data_image0
_cell_length_a       12.2731
_cell_length_b       12.2731
_cell_length_c       25.135
_cell_angle_alpha    90
_cell_angle_beta     90
_cell_angle_gamma    90

_symmetry_space_group_name_H-M    P 1
_symmetry_int_tables_number       1

loop_
  _symmetry_equiv_pos_as_xyz
  'x, y, z'

loop_
  _atom_site_label
  _atom_site_occupancy
  _atom_site_fract_x
  _atom_site_fract_y
  _atom_site_fract_z
  _atom_site_thermal_displace_type
  _atom_site_B_iso_or_equiv
  _atom_site_type_symbol
  Cd1      1.0000 0.75000  0.75000  0.92322  Biso   1.000  Cd
  Cd2      1.0000 0.25000  0.25000  0.42322  Biso   1.000  Cd
  H1       1.0000 0.91900  0.57300  0.86940  Biso   1.000  H
  H2       1.0000 0.93520  0.43500  0.80810  Biso   1.000  H
  H3       1.0000 0.63350  0.50460  0.75900  Biso   1.000  H
  H4       1.0000 0.62600  0.63790  0.82290  Biso   1.000  H
  H5       1.0000 0.64770  0.32470  0.72780  Biso   1.000  H
  H6       1.0000 0.69320  0.40790  0.68560  Biso   1.000  H
  H7       1.0000 0.60170  0.17350  0.66090  Biso   1.000  H
  H8       1.0000 0.68150  0.15720  0.61240  Biso   1.000  H
  H9       1.0000 0.41940  0.11370  0.49720  Biso   1.000  H
  H10      1.0000 0.54030  0.12130  0.56730  Biso   1.000  H
  H11      1.0000 0.49980  0.44360  0.56600  Biso   1.000  H
  H12      1.0000 0.37830  0.42300  0.49770  Biso   1.000  H
  H13      1.0000 0.50870  0.77080  0.94750  Biso   1.000  H
  H14      1.0000 0.58100  0.92700  0.86940  Biso   1.000  H
  H15      1.0000 0.56480  0.06500  0.80810  Biso   1.000  H
  H16      1.0000 0.86650  0.99540  0.75900  Biso   1.000  H
  H17      1.0000 0.87400  0.86210  0.82290  Biso   1.000  H
  H18      1.0000 0.85230  0.17530  0.72780  Biso   1.000  H
  H19      1.0000 0.80680  0.09210  0.68560  Biso   1.000  H
  H20      1.0000 0.89830  0.32650  0.66090  Biso   1.000  H
  H21      1.0000 0.81850  0.34280  0.61240  Biso   1.000  H
  H22      1.0000 0.08060  0.38630  0.49720  Biso   1.000  H
  H23      1.0000 0.95970  0.37870  0.56730  Biso   1.000  H
  H24      1.0000 0.00020  0.05640  0.56600  Biso   1.000  H
  H25      1.0000 0.12170  0.07700  0.49770  Biso   1.000  H
  H26      1.0000 0.99130  0.72920  0.94750  Biso   1.000  H
  H27      1.0000 0.42700  0.41900  0.36940  Biso   1.000  H
  H28      1.0000 0.56500  0.43520  0.30810  Biso   1.000  H
  H29      1.0000 0.49540  0.13350  0.25900  Biso   1.000  H
  H30      1.0000 0.36210  0.12600  0.32290  Biso   1.000  H
  H31      1.0000 0.67530  0.14770  0.22780  Biso   1.000  H
  H32      1.0000 0.59210  0.19320  0.18560  Biso   1.000  H
  H33      1.0000 0.82650  0.10170  0.16090  Biso   1.000  H
  H34      1.0000 0.84280  0.18150  0.11240  Biso   1.000  H
  H35      1.0000 0.88630  0.91940  0.99720  Biso   1.000  H
  H36      1.0000 0.87870  0.04030  0.06730  Biso   1.000  H
  H37      1.0000 0.55640  0.99980  0.06600  Biso   1.000  H
  H38      1.0000 0.57700  0.87830  0.99770  Biso   1.000  H
  H39      1.0000 0.22920  0.00870  0.44750  Biso   1.000  H
  H40      1.0000 0.07300  0.08100  0.36940  Biso   1.000  H
  H41      1.0000 0.93500  0.06480  0.30810  Biso   1.000  H
  H42      1.0000 0.00460  0.36650  0.25900  Biso   1.000  H
  H43      1.0000 0.13790  0.37400  0.32290  Biso   1.000  H
  H44      1.0000 0.82470  0.35230  0.22780  Biso   1.000  H
  H45      1.0000 0.90790  0.30680  0.18560  Biso   1.000  H
  H46      1.0000 0.67350  0.39830  0.16090  Biso   1.000  H
  H47      1.0000 0.65720  0.31850  0.11240  Biso   1.000  H
  H48      1.0000 0.61370  0.58060  0.99720  Biso   1.000  H
  H49      1.0000 0.62130  0.45970  0.06730  Biso   1.000  H
  H50      1.0000 0.94360  0.50020  0.06600  Biso   1.000  H
  H51      1.0000 0.92300  0.62170  0.99770  Biso   1.000  H
  H52      1.0000 0.27080  0.49130  0.44750  Biso   1.000  H
  C1       1.0000 0.85990  0.55790  0.84754  Biso   1.000  C
  C2       1.0000 0.87110  0.47510  0.81030  Biso   1.000  C
  C3       1.0000 0.78520  0.45390  0.77681  Biso   1.000  C
  C4       1.0000 0.69260  0.51600  0.78140  Biso   1.000  C
  C5       1.0000 0.68900  0.59620  0.82030  Biso   1.000  C
  C6       1.0000 0.71170  0.34560  0.70753  Biso   1.000  C
  C7       1.0000 0.65570  0.20910  0.63868  Biso   1.000  C
  C8       1.0000 0.43560  0.18160  0.51160  Biso   1.000  C
  C9       1.0000 0.51030  0.18470  0.55340  Biso   1.000  C
  C10      1.0000 0.53730  0.28390  0.57272  Biso   1.000  C
  C11      1.0000 0.48540  0.37460  0.55240  Biso   1.000  C
  C12      1.0000 0.41180  0.36120  0.51150  Biso   1.000  C
  C13      1.0000 0.64010  0.94210  0.84754  Biso   1.000  C
  C14      1.0000 0.62890  0.02490  0.81030  Biso   1.000  C
  C15      1.0000 0.71480  0.04610  0.77681  Biso   1.000  C
  C16      1.0000 0.80740  0.98400  0.78140  Biso   1.000  C
  C17      1.0000 0.81100  0.90380  0.82030  Biso   1.000  C
  C18      1.0000 0.78830  0.15440  0.70753  Biso   1.000  C
  C19      1.0000 0.84430  0.29090  0.63868  Biso   1.000  C
  C20      1.0000 0.06440  0.31840  0.51160  Biso   1.000  C
  C21      1.0000 0.98970  0.31530  0.55340  Biso   1.000  C
  C22      1.0000 0.96270  0.21610  0.57272  Biso   1.000  C
  C23      1.0000 0.01460  0.12540  0.55240  Biso   1.000  C
  C24      1.0000 0.08820  0.13880  0.51150  Biso   1.000  C
  C25      1.0000 0.44210  0.35990  0.34754  Biso   1.000  C
  C26      1.0000 0.52490  0.37110  0.31030  Biso   1.000  C
  C27      1.0000 0.54610  0.28520  0.27681  Biso   1.000  C
  C28      1.0000 0.48400  0.19260  0.28140  Biso   1.000  C
  C29      1.0000 0.40380  0.18900  0.32030  Biso   1.000  C
  C30      1.0000 0.65440  0.21170  0.20753  Biso   1.000  C
  C31      1.0000 0.79090  0.15570  0.13868  Biso   1.000  C
  C32      1.0000 0.81840  0.93560  0.01160  Biso   1.000  C
  C33      1.0000 0.81530  0.01030  0.05340  Biso   1.000  C
  C34      1.0000 0.71610  0.03730  0.07272  Biso   1.000  C
  C35      1.0000 0.62540  0.98540  0.05240  Biso   1.000  C
  C36      1.0000 0.63880  0.91180  0.01150  Biso   1.000  C
  C37      1.0000 0.05790  0.14010  0.34754  Biso   1.000  C
  C38      1.0000 0.97510  0.12890  0.31030  Biso   1.000  C
  C39      1.0000 0.95390  0.21480  0.27681  Biso   1.000  C
  C40      1.0000 0.01600  0.30740  0.28140  Biso   1.000  C
  C41      1.0000 0.09620  0.31100  0.32030  Biso   1.000  C
  C42      1.0000 0.84560  0.28830  0.20753  Biso   1.000  C
  C43      1.0000 0.70910  0.34430  0.13868  Biso   1.000  C
  C44      1.0000 0.68160  0.56440  0.01160  Biso   1.000  C
  C45      1.0000 0.68470  0.48970  0.05340  Biso   1.000  C
  C46      1.0000 0.78390  0.46270  0.07272  Biso   1.000  C
  C47      1.0000 0.87460  0.51460  0.05240  Biso   1.000  C
  C48      1.0000 0.86120  0.58820  0.01150  Biso   1.000  C
  C49      1.0000 0.75000  0.25000  0.67250  Biso   1.000  C
  C50      1.0000 0.75000  0.25000  0.17250  Biso   1.000  C
  S1       1.0000 0.54178  0.72386  0.92154  Biso   1.000  S
  S2       1.0000 0.95822  0.77614  0.92154  Biso   1.000  S
  S3       1.0000 0.27614  0.04178  0.42154  Biso   1.000  S
  S4       1.0000 0.22386  0.45822  0.42154  Biso   1.000  S
  N1       1.0000 0.76980  0.61720  0.85394  Biso   1.000  N
  N2       1.0000 0.38620  0.26680  0.49086  Biso   1.000  N
  N3       1.0000 0.73020  0.88280  0.85394  Biso   1.000  N
  N4       1.0000 0.11380  0.23320  0.49086  Biso   1.000  N
  N5       1.0000 0.38280  0.26980  0.35394  Biso   1.000  N
  N6       1.0000 0.73320  0.88620  0.99086  Biso   1.000  N
  N7       1.0000 0.11720  0.23020  0.35394  Biso   1.000  N
  N8       1.0000 0.76680  0.61380  0.99086  Biso   1.000  N
  O1       1.0000 0.79930  0.37230  0.74258  Biso   1.000  O
  O2       1.0000 0.60920  0.30250  0.61290  Biso   1.000  O
  O3       1.0000 0.70070  0.12770  0.74258  Biso   1.000  O
  O4       1.0000 0.89080  0.19750  0.61290  Biso   1.000  O
  O5       1.0000 0.62770  0.29930  0.24258  Biso   1.000  O
  O6       1.0000 0.69750  0.10920  0.11290  Biso   1.000  O
  O7       1.0000 0.87230  0.20070  0.24258  Biso   1.000  O
  O8       1.0000 0.80250  0.39080  0.11290  Biso   1.000  O
  Cd3      1.0000 0.25000  0.25000  0.07678  Biso   1.000  Cd
  Cd4      1.0000 0.75000  0.75000  0.57678  Biso   1.000  Cd
  H53      1.0000 0.08100  0.42700  0.13060  Biso   1.000  H
  H54      1.0000 0.06480  0.56500  0.19190  Biso   1.000  H
  H55      1.0000 0.36650  0.49540  0.24100  Biso   1.000  H
  H56      1.0000 0.37400  0.36210  0.17710  Biso   1.000  H
  H57      1.0000 0.35230  0.67530  0.27220  Biso   1.000  H
  H58      1.0000 0.30680  0.59210  0.31440  Biso   1.000  H
  H59      1.0000 0.39830  0.82650  0.33910  Biso   1.000  H
  H60      1.0000 0.31850  0.84280  0.38760  Biso   1.000  H
  H61      1.0000 0.58060  0.88630  0.50280  Biso   1.000  H
  H62      1.0000 0.45970  0.87870  0.43270  Biso   1.000  H
  H63      1.0000 0.50020  0.55640  0.43400  Biso   1.000  H
  H64      1.0000 0.62170  0.57700  0.50230  Biso   1.000  H
  H65      1.0000 0.49130  0.22920  0.05250  Biso   1.000  H
  H66      1.0000 0.41900  0.07300  0.13060  Biso   1.000  H
  H67      1.0000 0.43520  0.93500  0.19190  Biso   1.000  H
  H68      1.0000 0.13350  0.00460  0.24100  Biso   1.000  H
  H69      1.0000 0.12600  0.13790  0.17710  Biso   1.000  H
  H70      1.0000 0.14770  0.82470  0.27220  Biso   1.000  H
  H71      1.0000 0.19320  0.90790  0.31440  Biso   1.000  H
  H72      1.0000 0.10170  0.67350  0.33910  Biso   1.000  H
  H73      1.0000 0.18150  0.65720  0.38760  Biso   1.000  H
  H74      1.0000 0.91940  0.61370  0.50280  Biso   1.000  H
  H75      1.0000 0.04030  0.62130  0.43270  Biso   1.000  H
  H76      1.0000 0.99980  0.94360  0.43400  Biso   1.000  H
  H77      1.0000 0.87830  0.92300  0.50230  Biso   1.000  H
  H78      1.0000 0.00870  0.27080  0.05250  Biso   1.000  H
  H79      1.0000 0.57300  0.58100  0.63060  Biso   1.000  H
  H80      1.0000 0.43500  0.56480  0.69190  Biso   1.000  H
  H81      1.0000 0.50460  0.86650  0.74100  Biso   1.000  H
  H82      1.0000 0.63790  0.87400  0.67710  Biso   1.000  H
  H83      1.0000 0.32470  0.85230  0.77220  Biso   1.000  H
  H84      1.0000 0.40790  0.80680  0.81440  Biso   1.000  H
  H85      1.0000 0.17350  0.89830  0.83910  Biso   1.000  H
  H86      1.0000 0.15720  0.81850  0.88760  Biso   1.000  H
  H87      1.0000 0.11370  0.08060  0.00280  Biso   1.000  H
  H88      1.0000 0.12130  0.95970  0.93270  Biso   1.000  H
  H89      1.0000 0.44360  0.00020  0.93400  Biso   1.000  H
  H90      1.0000 0.42300  0.12170  0.00230  Biso   1.000  H
  H91      1.0000 0.77080  0.99130  0.55250  Biso   1.000  H
  H92      1.0000 0.92700  0.91900  0.63060  Biso   1.000  H
  H93      1.0000 0.06500  0.93520  0.69190  Biso   1.000  H
  H94      1.0000 0.99540  0.63350  0.74100  Biso   1.000  H
  H95      1.0000 0.86210  0.62600  0.67710  Biso   1.000  H
  H96      1.0000 0.17530  0.64770  0.77220  Biso   1.000  H
  H97      1.0000 0.09210  0.69320  0.81440  Biso   1.000  H
  H98      1.0000 0.32650  0.60170  0.83910  Biso   1.000  H
  H99      1.0000 0.34280  0.68150  0.88760  Biso   1.000  H
  H100     1.0000 0.38630  0.41940  0.00280  Biso   1.000  H
  H101     1.0000 0.37870  0.54030  0.93270  Biso   1.000  H
  H102     1.0000 0.05640  0.49980  0.93400  Biso   1.000  H
  H103     1.0000 0.07700  0.37830  0.00230  Biso   1.000  H
  H104     1.0000 0.72920  0.50870  0.55250  Biso   1.000  H
  C51      1.0000 0.14010  0.44210  0.15246  Biso   1.000  C
  C52      1.0000 0.12890  0.52490  0.18970  Biso   1.000  C
  C53      1.0000 0.21480  0.54610  0.22319  Biso   1.000  C
  C54      1.0000 0.30740  0.48400  0.21860  Biso   1.000  C
  C55      1.0000 0.31100  0.40380  0.17970  Biso   1.000  C
  C56      1.0000 0.28830  0.65440  0.29247  Biso   1.000  C
  C57      1.0000 0.34430  0.79090  0.36132  Biso   1.000  C
  C58      1.0000 0.56440  0.81840  0.48840  Biso   1.000  C
  C59      1.0000 0.48970  0.81530  0.44660  Biso   1.000  C
  C60      1.0000 0.46270  0.71610  0.42728  Biso   1.000  C
  C61      1.0000 0.51460  0.62540  0.44760  Biso   1.000  C
  C62      1.0000 0.58820  0.63880  0.48850  Biso   1.000  C
  C63      1.0000 0.35990  0.05790  0.15246  Biso   1.000  C
  C64      1.0000 0.37110  0.97510  0.18970  Biso   1.000  C
  C65      1.0000 0.28520  0.95390  0.22319  Biso   1.000  C
  C66      1.0000 0.19260  0.01600  0.21860  Biso   1.000  C
  C67      1.0000 0.18900  0.09620  0.17970  Biso   1.000  C
  C68      1.0000 0.21170  0.84560  0.29247  Biso   1.000  C
  C69      1.0000 0.15570  0.70910  0.36132  Biso   1.000  C
  C70      1.0000 0.93560  0.68160  0.48840  Biso   1.000  C
  C71      1.0000 0.01030  0.68470  0.44660  Biso   1.000  C
  C72      1.0000 0.03730  0.78390  0.42728  Biso   1.000  C
  C73      1.0000 0.98540  0.87460  0.44760  Biso   1.000  C
  C74      1.0000 0.91180  0.86120  0.48850  Biso   1.000  C
  C75      1.0000 0.55790  0.64010  0.65246  Biso   1.000  C
  C76      1.0000 0.47510  0.62890  0.68970  Biso   1.000  C
  C77      1.0000 0.45390  0.71480  0.72319  Biso   1.000  C
  C78      1.0000 0.51600  0.80740  0.71860  Biso   1.000  C
  C79      1.0000 0.59620  0.81100  0.67970  Biso   1.000  C
  C80      1.0000 0.34560  0.78830  0.79247  Biso   1.000  C
  C81      1.0000 0.20910  0.84430  0.86132  Biso   1.000  C
  C82      1.0000 0.18160  0.06440  0.98840  Biso   1.000  C
  C83      1.0000 0.18470  0.98970  0.94660  Biso   1.000  C
  C84      1.0000 0.28390  0.96270  0.92728  Biso   1.000  C
  C85      1.0000 0.37460  0.01460  0.94760  Biso   1.000  C
  C86      1.0000 0.36120  0.08820  0.98850  Biso   1.000  C
  C87      1.0000 0.94210  0.85990  0.65246  Biso   1.000  C
  C88      1.0000 0.02490  0.87110  0.68970  Biso   1.000  C
  C89      1.0000 0.04610  0.78520  0.72319  Biso   1.000  C
  C90      1.0000 0.98400  0.69260  0.71860  Biso   1.000  C
  C91      1.0000 0.90380  0.68900  0.67970  Biso   1.000  C
  C92      1.0000 0.15440  0.71170  0.79247  Biso   1.000  C
  C93      1.0000 0.29090  0.65570  0.86132  Biso   1.000  C
  C94      1.0000 0.31840  0.43560  0.98840  Biso   1.000  C
  C95      1.0000 0.31530  0.51030  0.94660  Biso   1.000  C
  C96      1.0000 0.21610  0.53730  0.92728  Biso   1.000  C
  C97      1.0000 0.12540  0.48540  0.94760  Biso   1.000  C
  C98      1.0000 0.13880  0.41180  0.98850  Biso   1.000  C
  C99      1.0000 0.25000  0.75000  0.32750  Biso   1.000  C
  C100     1.0000 0.25000  0.75000  0.82750  Biso   1.000  C
  S5       1.0000 0.45822  0.27614  0.07846  Biso   1.000  S
  S6       1.0000 0.04178  0.22386  0.07846  Biso   1.000  S
  S7       1.0000 0.72386  0.95822  0.57846  Biso   1.000  S
  S8       1.0000 0.77614  0.54178  0.57846  Biso   1.000  S
  N9       1.0000 0.23020  0.38280  0.14606  Biso   1.000  N
  N10      1.0000 0.61380  0.73320  0.50914  Biso   1.000  N
  N11      1.0000 0.26980  0.11720  0.14606  Biso   1.000  N
  N12      1.0000 0.88620  0.76680  0.50914  Biso   1.000  N
  N13      1.0000 0.61720  0.73020  0.64606  Biso   1.000  N
  N14      1.0000 0.26680  0.11380  0.00914  Biso   1.000  N
  N15      1.0000 0.88280  0.76980  0.64606  Biso   1.000  N
  N16      1.0000 0.23320  0.38620  0.00914  Biso   1.000  N
  O9       1.0000 0.20070  0.62770  0.25742  Biso   1.000  O
  O10      1.0000 0.39080  0.69750  0.38710  Biso   1.000  O
  O11      1.0000 0.29930  0.87230  0.25742  Biso   1.000  O
  O12      1.0000 0.10920  0.80250  0.38710  Biso   1.000  O
  O13      1.0000 0.37230  0.70070  0.75742  Biso   1.000  O
  O14      1.0000 0.30250  0.89080  0.88710  Biso   1.000  O
  O15      1.0000 0.12770  0.79930  0.75742  Biso   1.000  O
  O16      1.0000 0.19750  0.60920  0.88710  Biso   1.000  O
