data_image0
_cell_length_a       12.175
_cell_length_b       12.175
_cell_length_c       24.924
_cell_angle_alpha    90
_cell_angle_beta     90
_cell_angle_gamma    90

_symmetry_space_group_name_H-M    P 1
_symmetry_int_tables_number       1

loop_
  _symmetry_equiv_pos_as_xyz
  'x, y, z'

loop_
  _atom_site_label
  _atom_site_occupancy
  _atom_site_fract_x
  _atom_site_fract_y
  _atom_site_fract_z
  _atom_site_thermal_displace_type
  _atom_site_B_iso_or_equiv
  _atom_site_type_symbol
  Mn1      1.0000 0.75000  0.75000  0.92384  Biso   1.000  Mn
  Mn2      1.0000 0.25000  0.25000  0.42384  Biso   1.000  Mn
  H1       1.0000 0.92290  0.91910  0.87230  Biso   1.000  H
  H2       1.0000 0.05750  0.93870  0.80900  Biso   1.000  H
  H3       1.0000 0.99380  0.63140  0.76140  Biso   1.000  H
  H4       1.0000 0.86130  0.62490  0.82640  Biso   1.000  H
  H5       1.0000 0.17430  0.64750  0.72920  Biso   1.000  H
  H6       1.0000 0.09200  0.69290  0.68580  Biso   1.000  H
  H7       1.0000 0.32580  0.59960  0.66140  Biso   1.000  H
  H8       1.0000 0.34430  0.68190  0.61360  Biso   1.000  H
  H9       1.0000 0.05550  0.50060  0.56430  Biso   1.000  H
  H10      1.0000 0.37880  0.53540  0.56880  Biso   1.000  H
  H11      1.0000 0.07700  0.38110  0.49490  Biso   1.000  H
  H12      1.0000 0.38890  0.39930  0.50370  Biso   1.000  H
  H13      1.0000 0.75920  0.51800  0.88840  Biso   1.000  H
  H14      1.0000 0.57710  0.58090  0.87230  Biso   1.000  H
  H15      1.0000 0.44250  0.56130  0.80900  Biso   1.000  H
  H16      1.0000 0.50620  0.86860  0.76140  Biso   1.000  H
  H17      1.0000 0.63870  0.87510  0.82640  Biso   1.000  H
  H18      1.0000 0.32570  0.85250  0.72920  Biso   1.000  H
  H19      1.0000 0.40800  0.80710  0.68580  Biso   1.000  H
  H20      1.0000 0.17420  0.90040  0.66140  Biso   1.000  H
  H21      1.0000 0.15570  0.81810  0.61360  Biso   1.000  H
  H22      1.0000 0.44450  0.99940  0.56430  Biso   1.000  H
  H23      1.0000 0.12120  0.96460  0.56880  Biso   1.000  H
  H24      1.0000 0.42300  0.11890  0.49490  Biso   1.000  H
  H25      1.0000 0.11110  0.10070  0.50370  Biso   1.000  H
  H26      1.0000 0.74080  0.98200  0.88840  Biso   1.000  H
  H27      1.0000 0.08090  0.42290  0.37230  Biso   1.000  H
  H28      1.0000 0.06130  0.55750  0.30900  Biso   1.000  H
  H29      1.0000 0.36860  0.49380  0.26140  Biso   1.000  H
  H30      1.0000 0.37510  0.36130  0.32640  Biso   1.000  H
  H31      1.0000 0.35250  0.67430  0.22920  Biso   1.000  H
  H32      1.0000 0.30710  0.59200  0.18580  Biso   1.000  H
  H33      1.0000 0.40040  0.82580  0.16140  Biso   1.000  H
  H34      1.0000 0.31810  0.84430  0.11360  Biso   1.000  H
  H35      1.0000 0.49940  0.55550  0.06430  Biso   1.000  H
  H36      1.0000 0.46460  0.87880  0.06880  Biso   1.000  H
  H37      1.0000 0.61890  0.57700  0.99490  Biso   1.000  H
  H38      1.0000 0.60070  0.88890  0.00370  Biso   1.000  H
  H39      1.0000 0.48200  0.25920  0.38840  Biso   1.000  H
  H40      1.0000 0.41910  0.07710  0.37230  Biso   1.000  H
  H41      1.0000 0.43870  0.94250  0.30900  Biso   1.000  H
  H42      1.0000 0.13140  0.00620  0.26140  Biso   1.000  H
  H43      1.0000 0.12490  0.13870  0.32640  Biso   1.000  H
  H44      1.0000 0.14750  0.82570  0.22920  Biso   1.000  H
  H45      1.0000 0.19290  0.90800  0.18580  Biso   1.000  H
  H46      1.0000 0.09960  0.67420  0.16140  Biso   1.000  H
  H47      1.0000 0.18190  0.65570  0.11360  Biso   1.000  H
  H48      1.0000 0.00060  0.94450  0.06430  Biso   1.000  H
  H49      1.0000 0.03540  0.62120  0.06880  Biso   1.000  H
  H50      1.0000 0.88110  0.92300  0.99490  Biso   1.000  H
  H51      1.0000 0.89930  0.61110  0.00370  Biso   1.000  H
  H52      1.0000 0.01800  0.24080  0.38840  Biso   1.000  H
  C1       1.0000 0.93770  0.86000  0.84980  Biso   1.000  C
  C2       1.0000 0.01920  0.87290  0.81196  Biso   1.000  C
  C3       1.0000 0.04240  0.78620  0.77890  Biso   1.000  C
  C4       1.0000 0.98170  0.69140  0.78378  Biso   1.000  C
  C5       1.0000 0.90240  0.68900  0.82306  Biso   1.000  C
  C6       1.0000 0.15390  0.71180  0.70846  Biso   1.000  C
  C7       1.0000 0.29090  0.65520  0.63938  Biso   1.000  C
  C8       1.0000 0.21460  0.53660  0.57251  Biso   1.000  C
  C9       1.0000 0.12540  0.48570  0.55118  Biso   1.000  C
  C10      1.0000 0.31510  0.50480  0.55467  Biso   1.000  C
  C11      1.0000 0.13980  0.41190  0.50991  Biso   1.000  C
  C12      1.0000 0.32000  0.42430  0.51426  Biso   1.000  C
  C13      1.0000 0.56230  0.64000  0.84980  Biso   1.000  C
  C14      1.0000 0.48080  0.62710  0.81196  Biso   1.000  C
  C15      1.0000 0.45760  0.71380  0.77890  Biso   1.000  C
  C16      1.0000 0.51830  0.80860  0.78378  Biso   1.000  C
  C17      1.0000 0.59760  0.81100  0.82306  Biso   1.000  C
  C18      1.0000 0.34610  0.78820  0.70846  Biso   1.000  C
  C19      1.0000 0.20910  0.84480  0.63938  Biso   1.000  C
  C20      1.0000 0.28540  0.96340  0.57251  Biso   1.000  C
  C21      1.0000 0.37460  0.01430  0.55118  Biso   1.000  C
  C22      1.0000 0.18490  0.99520  0.55467  Biso   1.000  C
  C23      1.0000 0.36020  0.08810  0.50991  Biso   1.000  C
  C24      1.0000 0.18000  0.07570  0.51426  Biso   1.000  C
  C25      1.0000 0.14000  0.43770  0.34980  Biso   1.000  C
  C26      1.0000 0.12710  0.51920  0.31196  Biso   1.000  C
  C27      1.0000 0.21380  0.54240  0.27890  Biso   1.000  C
  C28      1.0000 0.30860  0.48170  0.28378  Biso   1.000  C
  C29      1.0000 0.31100  0.40240  0.32306  Biso   1.000  C
  C30      1.0000 0.28820  0.65390  0.20846  Biso   1.000  C
  C31      1.0000 0.34480  0.79090  0.13938  Biso   1.000  C
  C32      1.0000 0.46340  0.71460  0.07251  Biso   1.000  C
  C33      1.0000 0.51430  0.62540  0.05118  Biso   1.000  C
  C34      1.0000 0.49520  0.81510  0.05467  Biso   1.000  C
  C35      1.0000 0.58810  0.63980  0.00991  Biso   1.000  C
  C36      1.0000 0.57570  0.82000  0.01426  Biso   1.000  C
  C37      1.0000 0.36000  0.06230  0.34980  Biso   1.000  C
  C38      1.0000 0.37290  0.98080  0.31196  Biso   1.000  C
  C39      1.0000 0.28620  0.95760  0.27890  Biso   1.000  C
  C40      1.0000 0.19140  0.01830  0.28378  Biso   1.000  C
  C41      1.0000 0.18900  0.09760  0.32306  Biso   1.000  C
  C42      1.0000 0.21180  0.84610  0.20846  Biso   1.000  C
  C43      1.0000 0.15520  0.70910  0.13938  Biso   1.000  C
  C44      1.0000 0.03660  0.78540  0.07251  Biso   1.000  C
  C45      1.0000 0.98570  0.87460  0.05118  Biso   1.000  C
  C46      1.0000 0.00480  0.68490  0.05467  Biso   1.000  C
  C47      1.0000 0.91190  0.86020  0.00991  Biso   1.000  C
  C48      1.0000 0.92430  0.68000  0.01426  Biso   1.000  C
  C49      1.0000 0.25000  0.75000  0.67449  Biso   1.000  C
  C50      1.0000 0.25000  0.75000  0.17449  Biso   1.000  C
  S1       1.0000 0.77679  0.54627  0.92334  Biso   1.000  S
  S2       1.0000 0.72321  0.95373  0.92334  Biso   1.000  S
  S3       1.0000 0.45373  0.27679  0.42334  Biso   1.000  S
  S4       1.0000 0.04627  0.22321  0.42334  Biso   1.000  S
  N1       1.0000 0.87970  0.77050  0.85643  Biso   1.000  N
  N2       1.0000 0.23290  0.38190  0.49036  Biso   1.000  N
  N3       1.0000 0.62030  0.72950  0.85643  Biso   1.000  N
  N4       1.0000 0.26710  0.11810  0.49036  Biso   1.000  N
  N5       1.0000 0.22950  0.37970  0.35643  Biso   1.000  N
  N6       1.0000 0.61810  0.73290  0.99036  Biso   1.000  N
  N7       1.0000 0.27050  0.12030  0.35643  Biso   1.000  N
  N8       1.0000 0.88190  0.76710  0.99036  Biso   1.000  N
  O1       1.0000 0.12540  0.80070  0.74354  Biso   1.000  O
  O2       1.0000 0.19774  0.60933  0.61200  Biso   1.000  O
  O3       1.0000 0.37460  0.69930  0.74354  Biso   1.000  O
  O4       1.0000 0.30226  0.89067  0.61200  Biso   1.000  O
  O5       1.0000 0.19930  0.62540  0.24354  Biso   1.000  O
  O6       1.0000 0.39067  0.69774  0.11200  Biso   1.000  O
  O7       1.0000 0.30070  0.87460  0.24354  Biso   1.000  O
  O8       1.0000 0.10933  0.80226  0.11200  Biso   1.000  O
  Mn3      1.0000 0.25000  0.25000  0.07616  Biso   1.000  Mn
  Mn4      1.0000 0.75000  0.75000  0.57616  Biso   1.000  Mn
  H53      1.0000 0.07710  0.08090  0.12770  Biso   1.000  H
  H54      1.0000 0.94250  0.06130  0.19100  Biso   1.000  H
  H55      1.0000 0.00620  0.36860  0.23860  Biso   1.000  H
  H56      1.0000 0.13870  0.37510  0.17360  Biso   1.000  H
  H57      1.0000 0.82570  0.35250  0.27080  Biso   1.000  H
  H58      1.0000 0.90800  0.30710  0.31420  Biso   1.000  H
  H59      1.0000 0.67420  0.40040  0.33860  Biso   1.000  H
  H60      1.0000 0.65570  0.31810  0.38640  Biso   1.000  H
  H61      1.0000 0.94450  0.49940  0.43570  Biso   1.000  H
  H62      1.0000 0.62120  0.46460  0.43120  Biso   1.000  H
  H63      1.0000 0.92300  0.61890  0.50510  Biso   1.000  H
  H64      1.0000 0.61110  0.60070  0.49630  Biso   1.000  H
  H65      1.0000 0.24080  0.48200  0.11160  Biso   1.000  H
  H66      1.0000 0.42290  0.41910  0.12770  Biso   1.000  H
  H67      1.0000 0.55750  0.43870  0.19100  Biso   1.000  H
  H68      1.0000 0.49380  0.13140  0.23860  Biso   1.000  H
  H69      1.0000 0.36130  0.12490  0.17360  Biso   1.000  H
  H70      1.0000 0.67430  0.14750  0.27080  Biso   1.000  H
  H71      1.0000 0.59200  0.19290  0.31420  Biso   1.000  H
  H72      1.0000 0.82580  0.09960  0.33860  Biso   1.000  H
  H73      1.0000 0.84430  0.18190  0.38640  Biso   1.000  H
  H74      1.0000 0.55550  0.00060  0.43570  Biso   1.000  H
  H75      1.0000 0.87880  0.03540  0.43120  Biso   1.000  H
  H76      1.0000 0.57700  0.88110  0.50510  Biso   1.000  H
  H77      1.0000 0.88890  0.89930  0.49630  Biso   1.000  H
  H78      1.0000 0.25920  0.01800  0.11160  Biso   1.000  H
  H79      1.0000 0.91910  0.57710  0.62770  Biso   1.000  H
  H80      1.0000 0.93870  0.44250  0.69100  Biso   1.000  H
  H81      1.0000 0.63140  0.50620  0.73860  Biso   1.000  H
  H82      1.0000 0.62490  0.63870  0.67360  Biso   1.000  H
  H83      1.0000 0.64750  0.32570  0.77080  Biso   1.000  H
  H84      1.0000 0.69290  0.40800  0.81420  Biso   1.000  H
  H85      1.0000 0.59960  0.17420  0.83860  Biso   1.000  H
  H86      1.0000 0.68190  0.15570  0.88640  Biso   1.000  H
  H87      1.0000 0.50060  0.44450  0.93570  Biso   1.000  H
  H88      1.0000 0.53540  0.12120  0.93120  Biso   1.000  H
  H89      1.0000 0.38110  0.42300  0.00510  Biso   1.000  H
  H90      1.0000 0.39930  0.11110  0.99630  Biso   1.000  H
  H91      1.0000 0.51800  0.74080  0.61160  Biso   1.000  H
  H92      1.0000 0.58090  0.92290  0.62770  Biso   1.000  H
  H93      1.0000 0.56130  0.05750  0.69100  Biso   1.000  H
  H94      1.0000 0.86860  0.99380  0.73860  Biso   1.000  H
  H95      1.0000 0.87510  0.86130  0.67360  Biso   1.000  H
  H96      1.0000 0.85250  0.17430  0.77080  Biso   1.000  H
  H97      1.0000 0.80710  0.09200  0.81420  Biso   1.000  H
  H98      1.0000 0.90040  0.32580  0.83860  Biso   1.000  H
  H99      1.0000 0.81810  0.34430  0.88640  Biso   1.000  H
  H100     1.0000 0.99940  0.05550  0.93570  Biso   1.000  H
  H101     1.0000 0.96460  0.37880  0.93120  Biso   1.000  H
  H102     1.0000 0.11890  0.07700  0.00510  Biso   1.000  H
  H103     1.0000 0.10070  0.38890  0.99630  Biso   1.000  H
  H104     1.0000 0.98200  0.75920  0.61160  Biso   1.000  H
  C51      1.0000 0.06230  0.14000  0.15020  Biso   1.000  C
  C52      1.0000 0.98080  0.12710  0.18804  Biso   1.000  C
  C53      1.0000 0.95760  0.21380  0.22110  Biso   1.000  C
  C54      1.0000 0.01830  0.30860  0.21622  Biso   1.000  C
  C55      1.0000 0.09760  0.31100  0.17694  Biso   1.000  C
  C56      1.0000 0.84610  0.28820  0.29154  Biso   1.000  C
  C57      1.0000 0.70910  0.34480  0.36062  Biso   1.000  C
  C58      1.0000 0.78540  0.46340  0.42749  Biso   1.000  C
  C59      1.0000 0.87460  0.51430  0.44882  Biso   1.000  C
  C60      1.0000 0.68490  0.49520  0.44533  Biso   1.000  C
  C61      1.0000 0.86020  0.58810  0.49009  Biso   1.000  C
  C62      1.0000 0.68000  0.57570  0.48574  Biso   1.000  C
  C63      1.0000 0.43770  0.36000  0.15020  Biso   1.000  C
  C64      1.0000 0.51920  0.37290  0.18804  Biso   1.000  C
  C65      1.0000 0.54240  0.28620  0.22110  Biso   1.000  C
  C66      1.0000 0.48170  0.19140  0.21622  Biso   1.000  C
  C67      1.0000 0.40240  0.18900  0.17694  Biso   1.000  C
  C68      1.0000 0.65390  0.21180  0.29154  Biso   1.000  C
  C69      1.0000 0.79090  0.15520  0.36062  Biso   1.000  C
  C70      1.0000 0.71460  0.03660  0.42749  Biso   1.000  C
  C71      1.0000 0.62540  0.98570  0.44882  Biso   1.000  C
  C72      1.0000 0.81510  0.00480  0.44533  Biso   1.000  C
  C73      1.0000 0.63980  0.91190  0.49009  Biso   1.000  C
  C74      1.0000 0.82000  0.92430  0.48574  Biso   1.000  C
  C75      1.0000 0.86000  0.56230  0.65020  Biso   1.000  C
  C76      1.0000 0.87290  0.48080  0.68804  Biso   1.000  C
  C77      1.0000 0.78620  0.45760  0.72110  Biso   1.000  C
  C78      1.0000 0.69140  0.51830  0.71622  Biso   1.000  C
  C79      1.0000 0.68900  0.59760  0.67694  Biso   1.000  C
  C80      1.0000 0.71180  0.34610  0.79154  Biso   1.000  C
  C81      1.0000 0.65520  0.20910  0.86062  Biso   1.000  C
  C82      1.0000 0.53660  0.28540  0.92749  Biso   1.000  C
  C83      1.0000 0.48570  0.37460  0.94882  Biso   1.000  C
  C84      1.0000 0.50480  0.18490  0.94533  Biso   1.000  C
  C85      1.0000 0.41190  0.36020  0.99009  Biso   1.000  C
  C86      1.0000 0.42430  0.18000  0.98574  Biso   1.000  C
  C87      1.0000 0.64000  0.93770  0.65020  Biso   1.000  C
  C88      1.0000 0.62710  0.01920  0.68804  Biso   1.000  C
  C89      1.0000 0.71380  0.04240  0.72110  Biso   1.000  C
  C90      1.0000 0.80860  0.98170  0.71622  Biso   1.000  C
  C91      1.0000 0.81100  0.90240  0.67694  Biso   1.000  C
  C92      1.0000 0.78820  0.15390  0.79154  Biso   1.000  C
  C93      1.0000 0.84480  0.29090  0.86062  Biso   1.000  C
  C94      1.0000 0.96340  0.21460  0.92749  Biso   1.000  C
  C95      1.0000 0.01430  0.12540  0.94882  Biso   1.000  C
  C96      1.0000 0.99520  0.31510  0.94533  Biso   1.000  C
  C97      1.0000 0.08810  0.13980  0.99009  Biso   1.000  C
  C98      1.0000 0.07570  0.32000  0.98574  Biso   1.000  C
  C99      1.0000 0.75000  0.25000  0.32551  Biso   1.000  C
  C100     1.0000 0.75000  0.25000  0.82551  Biso   1.000  C
  S5       1.0000 0.22321  0.45373  0.07666  Biso   1.000  S
  S6       1.0000 0.27679  0.04627  0.07666  Biso   1.000  S
  S7       1.0000 0.54627  0.72321  0.57666  Biso   1.000  S
  S8       1.0000 0.95373  0.77679  0.57666  Biso   1.000  S
  N9       1.0000 0.12030  0.22950  0.14357  Biso   1.000  N
  N10      1.0000 0.76710  0.61810  0.50964  Biso   1.000  N
  N11      1.0000 0.37970  0.27050  0.14357  Biso   1.000  N
  N12      1.0000 0.73290  0.88190  0.50964  Biso   1.000  N
  N13      1.0000 0.77050  0.62030  0.64357  Biso   1.000  N
  N14      1.0000 0.38190  0.26710  0.00964  Biso   1.000  N
  N15      1.0000 0.72950  0.87970  0.64357  Biso   1.000  N
  N16      1.0000 0.11810  0.23290  0.00964  Biso   1.000  N
  O9       1.0000 0.87460  0.19930  0.25646  Biso   1.000  O
  O10      1.0000 0.80226  0.39067  0.38800  Biso   1.000  O
  O11      1.0000 0.62540  0.30070  0.25646  Biso   1.000  O
  O12      1.0000 0.69774  0.10933  0.38800  Biso   1.000  O
  O13      1.0000 0.80070  0.37460  0.75646  Biso   1.000  O
  O14      1.0000 0.60933  0.30226  0.88800  Biso   1.000  O
  O15      1.0000 0.69930  0.12540  0.75646  Biso   1.000  O
  O16      1.0000 0.89067  0.19774  0.88800  Biso   1.000  O
