data_image0
_cell_length_a       12.079
_cell_length_b       12.079
_cell_length_c       24.539
_cell_angle_alpha    90
_cell_angle_beta     90
_cell_angle_gamma    90

_symmetry_space_group_name_H-M    P 1
_symmetry_int_tables_number       1

loop_
  _symmetry_equiv_pos_as_xyz
  'x, y, z'

loop_
  _atom_site_label
  _atom_site_occupancy
  _atom_site_fract_x
  _atom_site_fract_y
  _atom_site_fract_z
  _atom_site_thermal_displace_type
  _atom_site_B_iso_or_equiv
  _atom_site_type_symbol
  Co1      1.0000 0.75000  0.75000  0.92260  Biso   1.000  Co
  Co2      1.0000 0.25000  0.25000  0.42260  Biso   1.000  Co
  H1       1.0000 0.58200  0.57450  0.87740  Biso   1.000  H
  H2       1.0000 0.56450  0.43600  0.81550  Biso   1.000  H
  H3       1.0000 0.86450  0.51670  0.75770  Biso   1.000  H
  H4       1.0000 0.87210  0.65040  0.82350  Biso   1.000  H
  H5       1.0000 0.80460  0.41100  0.68460  Biso   1.000  H
  H6       1.0000 0.85460  0.32890  0.72810  Biso   1.000  H
  H7       1.0000 0.81880  0.15620  0.61080  Biso   1.000  H
  H8       1.0000 0.90190  0.17310  0.65960  Biso   1.000  H
  H9       1.0000 0.09770  0.11240  0.49770  Biso   1.000  H
  H10      1.0000 0.96630  0.12250  0.56580  Biso   1.000  H
  H11      1.0000 0.01410  0.44360  0.56620  Biso   1.000  H
  H12      1.0000 0.12240  0.42470  0.49090  Biso   1.000  H
  H13      1.0000 0.52880  0.86590  0.90000  Biso   1.000  H
  H14      1.0000 0.91800  0.92550  0.87740  Biso   1.000  H
  H15      1.0000 0.93550  0.06400  0.81550  Biso   1.000  H
  H16      1.0000 0.63550  0.98330  0.75770  Biso   1.000  H
  H17      1.0000 0.62790  0.84960  0.82350  Biso   1.000  H
  H18      1.0000 0.69540  0.08900  0.68460  Biso   1.000  H
  H19      1.0000 0.64540  0.17110  0.72810  Biso   1.000  H
  H20      1.0000 0.68120  0.34380  0.61080  Biso   1.000  H
  H21      1.0000 0.59810  0.32690  0.65960  Biso   1.000  H
  H22      1.0000 0.40230  0.38760  0.49770  Biso   1.000  H
  H23      1.0000 0.53370  0.37750  0.56580  Biso   1.000  H
  H24      1.0000 0.48590  0.05640  0.56620  Biso   1.000  H
  H25      1.0000 0.37760  0.07530  0.49090  Biso   1.000  H
  H26      1.0000 0.97120  0.63410  0.90000  Biso   1.000  H
  H27      1.0000 0.42550  0.08200  0.37740  Biso   1.000  H
  H28      1.0000 0.56400  0.06450  0.31550  Biso   1.000  H
  H29      1.0000 0.48330  0.36450  0.25770  Biso   1.000  H
  H30      1.0000 0.34960  0.37210  0.32350  Biso   1.000  H
  H31      1.0000 0.58900  0.30460  0.18460  Biso   1.000  H
  H32      1.0000 0.67110  0.35460  0.22810  Biso   1.000  H
  H33      1.0000 0.84380  0.31880  0.11080  Biso   1.000  H
  H34      1.0000 0.82690  0.40190  0.15960  Biso   1.000  H
  H35      1.0000 0.88760  0.59770  0.99770  Biso   1.000  H
  H36      1.0000 0.87750  0.46630  0.06580  Biso   1.000  H
  H37      1.0000 0.55640  0.51410  0.06620  Biso   1.000  H
  H38      1.0000 0.57530  0.62240  0.99090  Biso   1.000  H
  H39      1.0000 0.13410  0.02880  0.40000  Biso   1.000  H
  H40      1.0000 0.07450  0.41800  0.37740  Biso   1.000  H
  H41      1.0000 0.93600  0.43550  0.31550  Biso   1.000  H
  H42      1.0000 0.01670  0.13550  0.25770  Biso   1.000  H
  H43      1.0000 0.15040  0.12790  0.32350  Biso   1.000  H
  H44      1.0000 0.91100  0.19540  0.18460  Biso   1.000  H
  H45      1.0000 0.82890  0.14540  0.22810  Biso   1.000  H
  H46      1.0000 0.65620  0.18120  0.11080  Biso   1.000  H
  H47      1.0000 0.67310  0.09810  0.15960  Biso   1.000  H
  H48      1.0000 0.61240  0.90230  0.99770  Biso   1.000  H
  H49      1.0000 0.62250  0.03370  0.06580  Biso   1.000  H
  H50      1.0000 0.94360  0.98590  0.06620  Biso   1.000  H
  H51      1.0000 0.92470  0.87760  0.99090  Biso   1.000  H
  H52      1.0000 0.36590  0.47120  0.40000  Biso   1.000  H
  C1       1.0000 0.64040  0.56140  0.85354  Biso   1.000  C
  C2       1.0000 0.62860  0.47860  0.81630  Biso   1.000  C
  C3       1.0000 0.71400  0.45870  0.77942  Biso   1.000  C
  C4       1.0000 0.80620  0.52550  0.78203  Biso   1.000  C
  C5       1.0000 0.80920  0.60600  0.82197  Biso   1.000  C
  C6       1.0000 0.78830  0.34800  0.70782  Biso   1.000  C
  C7       1.0000 0.84590  0.20900  0.63745  Biso   1.000  C
  C8       1.0000 0.07680  0.18200  0.51018  Biso   1.000  C
  C9       1.0000 0.99780  0.18680  0.55184  Biso   1.000  C
  C10      1.0000 0.96880  0.28650  0.57099  Biso   1.000  C
  C11      1.0000 0.02380  0.37400  0.55068  Biso   1.000  C
  C12      1.0000 0.09410  0.36110  0.50719  Biso   1.000  C
  C13      1.0000 0.85960  0.93860  0.85354  Biso   1.000  C
  C14      1.0000 0.87140  0.02140  0.81630  Biso   1.000  C
  C15      1.0000 0.78600  0.04130  0.77942  Biso   1.000  C
  C16      1.0000 0.69380  0.97450  0.78203  Biso   1.000  C
  C17      1.0000 0.69080  0.89400  0.82197  Biso   1.000  C
  C18      1.0000 0.71170  0.15200  0.70782  Biso   1.000  C
  C19      1.0000 0.65410  0.29100  0.63745  Biso   1.000  C
  C20      1.0000 0.42320  0.31800  0.51018  Biso   1.000  C
  C21      1.0000 0.50220  0.31320  0.55184  Biso   1.000  C
  C22      1.0000 0.53120  0.21350  0.57099  Biso   1.000  C
  C23      1.0000 0.47620  0.12600  0.55068  Biso   1.000  C
  C24      1.0000 0.40590  0.13890  0.50719  Biso   1.000  C
  C25      1.0000 0.43860  0.14040  0.35354  Biso   1.000  C
  C26      1.0000 0.52140  0.12860  0.31630  Biso   1.000  C
  C27      1.0000 0.54130  0.21400  0.27942  Biso   1.000  C
  C28      1.0000 0.47450  0.30620  0.28203  Biso   1.000  C
  C29      1.0000 0.39400  0.30920  0.32197  Biso   1.000  C
  C30      1.0000 0.65200  0.28830  0.20782  Biso   1.000  C
  C31      1.0000 0.79100  0.34590  0.13745  Biso   1.000  C
  C32      1.0000 0.81800  0.57680  0.01018  Biso   1.000  C
  C33      1.0000 0.81320  0.49780  0.05184  Biso   1.000  C
  C34      1.0000 0.71350  0.46880  0.07099  Biso   1.000  C
  C35      1.0000 0.62600  0.52380  0.05068  Biso   1.000  C
  C36      1.0000 0.63890  0.59410  0.00719  Biso   1.000  C
  C37      1.0000 0.06140  0.35960  0.35354  Biso   1.000  C
  C38      1.0000 0.97860  0.37140  0.31630  Biso   1.000  C
  C39      1.0000 0.95870  0.28600  0.27942  Biso   1.000  C
  C40      1.0000 0.02550  0.19380  0.28203  Biso   1.000  C
  C41      1.0000 0.10600  0.19080  0.32197  Biso   1.000  C
  C42      1.0000 0.84800  0.21170  0.20782  Biso   1.000  C
  C43      1.0000 0.70900  0.15410  0.13745  Biso   1.000  C
  C44      1.0000 0.68200  0.92320  0.01018  Biso   1.000  C
  C45      1.0000 0.68680  0.00220  0.05184  Biso   1.000  C
  C46      1.0000 0.78650  0.03120  0.07099  Biso   1.000  C
  C47      1.0000 0.87400  0.97620  0.05068  Biso   1.000  C
  C48      1.0000 0.86110  0.90590  0.00719  Biso   1.000  C
  C49      1.0000 0.75000  0.25000  0.67362  Biso   1.000  C
  C50      1.0000 0.75000  0.25000  0.17362  Biso   1.000  C
  S1       1.0000 0.54920  0.77878  0.92121  Biso   1.000  S
  S2       1.0000 0.95080  0.72122  0.92121  Biso   1.000  S
  S3       1.0000 0.22122  0.04920  0.42121  Biso   1.000  S
  S4       1.0000 0.27878  0.45080  0.42121  Biso   1.000  S
  N1       1.0000 0.73110  0.62560  0.85815  Biso   1.000  N
  N2       1.0000 0.12310  0.26770  0.48759  Biso   1.000  N
  N3       1.0000 0.76890  0.87440  0.85815  Biso   1.000  N
  N4       1.0000 0.37690  0.23230  0.48759  Biso   1.000  N
  N5       1.0000 0.37440  0.23110  0.35815  Biso   1.000  N
  N6       1.0000 0.73230  0.62310  0.98759  Biso   1.000  N
  N7       1.0000 0.12560  0.26890  0.35815  Biso   1.000  N
  N8       1.0000 0.76770  0.87690  0.98759  Biso   1.000  N
  O1       1.0000 0.69948  0.37395  0.74451  Biso   1.000  O
  O2       1.0000 0.89187  0.30430  0.61047  Biso   1.000  O
  O3       1.0000 0.80052  0.12605  0.74451  Biso   1.000  O
  O4       1.0000 0.60813  0.19570  0.61047  Biso   1.000  O
  O5       1.0000 0.62605  0.19948  0.24451  Biso   1.000  O
  O6       1.0000 0.69570  0.39187  0.11047  Biso   1.000  O
  O7       1.0000 0.87395  0.30052  0.24451  Biso   1.000  O
  O8       1.0000 0.80430  0.10813  0.11047  Biso   1.000  O
  Co3      1.0000 0.25000  0.25000  0.07740  Biso   1.000  Co
  Co4      1.0000 0.75000  0.75000  0.57740  Biso   1.000  Co
  H53      1.0000 0.41800  0.42550  0.12260  Biso   1.000  H
  H54      1.0000 0.43550  0.56400  0.18450  Biso   1.000  H
  H55      1.0000 0.13550  0.48330  0.24230  Biso   1.000  H
  H56      1.0000 0.12790  0.34960  0.17650  Biso   1.000  H
  H57      1.0000 0.19540  0.58900  0.31540  Biso   1.000  H
  H58      1.0000 0.14540  0.67110  0.27190  Biso   1.000  H
  H59      1.0000 0.18120  0.84380  0.38920  Biso   1.000  H
  H60      1.0000 0.09810  0.82690  0.34040  Biso   1.000  H
  H61      1.0000 0.90230  0.88760  0.50230  Biso   1.000  H
  H62      1.0000 0.03370  0.87750  0.43420  Biso   1.000  H
  H63      1.0000 0.98590  0.55640  0.43380  Biso   1.000  H
  H64      1.0000 0.87760  0.57530  0.50910  Biso   1.000  H
  H65      1.0000 0.47120  0.13410  0.10000  Biso   1.000  H
  H66      1.0000 0.08200  0.07450  0.12260  Biso   1.000  H
  H67      1.0000 0.06450  0.93600  0.18450  Biso   1.000  H
  H68      1.0000 0.36450  0.01670  0.24230  Biso   1.000  H
  H69      1.0000 0.37210  0.15040  0.17650  Biso   1.000  H
  H70      1.0000 0.30460  0.91100  0.31540  Biso   1.000  H
  H71      1.0000 0.35460  0.82890  0.27190  Biso   1.000  H
  H72      1.0000 0.31880  0.65620  0.38920  Biso   1.000  H
  H73      1.0000 0.40190  0.67310  0.34040  Biso   1.000  H
  H74      1.0000 0.59770  0.61240  0.50230  Biso   1.000  H
  H75      1.0000 0.46630  0.62250  0.43420  Biso   1.000  H
  H76      1.0000 0.51410  0.94360  0.43380  Biso   1.000  H
  H77      1.0000 0.62240  0.92470  0.50910  Biso   1.000  H
  H78      1.0000 0.02880  0.36590  0.10000  Biso   1.000  H
  H79      1.0000 0.57450  0.91800  0.62260  Biso   1.000  H
  H80      1.0000 0.43600  0.93550  0.68450  Biso   1.000  H
  H81      1.0000 0.51670  0.63550  0.74230  Biso   1.000  H
  H82      1.0000 0.65040  0.62790  0.67650  Biso   1.000  H
  H83      1.0000 0.41100  0.69540  0.81540  Biso   1.000  H
  H84      1.0000 0.32890  0.64540  0.77190  Biso   1.000  H
  H85      1.0000 0.15620  0.68120  0.88920  Biso   1.000  H
  H86      1.0000 0.17310  0.59810  0.84040  Biso   1.000  H
  H87      1.0000 0.11240  0.40230  0.00230  Biso   1.000  H
  H88      1.0000 0.12250  0.53370  0.93420  Biso   1.000  H
  H89      1.0000 0.44360  0.48590  0.93380  Biso   1.000  H
  H90      1.0000 0.42470  0.37760  0.00910  Biso   1.000  H
  H91      1.0000 0.86590  0.97120  0.60000  Biso   1.000  H
  H92      1.0000 0.92550  0.58200  0.62260  Biso   1.000  H
  H93      1.0000 0.06400  0.56450  0.68450  Biso   1.000  H
  H94      1.0000 0.98330  0.86450  0.74230  Biso   1.000  H
  H95      1.0000 0.84960  0.87210  0.67650  Biso   1.000  H
  H96      1.0000 0.08900  0.80460  0.81540  Biso   1.000  H
  H97      1.0000 0.17110  0.85460  0.77190  Biso   1.000  H
  H98      1.0000 0.34380  0.81880  0.88920  Biso   1.000  H
  H99      1.0000 0.32690  0.90190  0.84040  Biso   1.000  H
  H100     1.0000 0.38760  0.09770  0.00230  Biso   1.000  H
  H101     1.0000 0.37750  0.96630  0.93420  Biso   1.000  H
  H102     1.0000 0.05640  0.01410  0.93380  Biso   1.000  H
  H103     1.0000 0.07530  0.12240  0.00910  Biso   1.000  H
  H104     1.0000 0.63410  0.52880  0.60000  Biso   1.000  H
  C51      1.0000 0.35960  0.43860  0.14646  Biso   1.000  C
  C52      1.0000 0.37140  0.52140  0.18370  Biso   1.000  C
  C53      1.0000 0.28600  0.54130  0.22058  Biso   1.000  C
  C54      1.0000 0.19380  0.47450  0.21797  Biso   1.000  C
  C55      1.0000 0.19080  0.39400  0.17803  Biso   1.000  C
  C56      1.0000 0.21170  0.65200  0.29218  Biso   1.000  C
  C57      1.0000 0.15410  0.79100  0.36255  Biso   1.000  C
  C58      1.0000 0.92320  0.81800  0.48982  Biso   1.000  C
  C59      1.0000 0.00220  0.81320  0.44816  Biso   1.000  C
  C60      1.0000 0.03120  0.71350  0.42901  Biso   1.000  C
  C61      1.0000 0.97620  0.62600  0.44932  Biso   1.000  C
  C62      1.0000 0.90590  0.63890  0.49281  Biso   1.000  C
  C63      1.0000 0.14040  0.06140  0.14646  Biso   1.000  C
  C64      1.0000 0.12860  0.97860  0.18370  Biso   1.000  C
  C65      1.0000 0.21400  0.95870  0.22058  Biso   1.000  C
  C66      1.0000 0.30620  0.02550  0.21797  Biso   1.000  C
  C67      1.0000 0.30920  0.10600  0.17803  Biso   1.000  C
  C68      1.0000 0.28830  0.84800  0.29218  Biso   1.000  C
  C69      1.0000 0.34590  0.70900  0.36255  Biso   1.000  C
  C70      1.0000 0.57680  0.68200  0.48982  Biso   1.000  C
  C71      1.0000 0.49780  0.68680  0.44816  Biso   1.000  C
  C72      1.0000 0.46880  0.78650  0.42901  Biso   1.000  C
  C73      1.0000 0.52380  0.87400  0.44932  Biso   1.000  C
  C74      1.0000 0.59410  0.86110  0.49281  Biso   1.000  C
  C75      1.0000 0.56140  0.85960  0.64646  Biso   1.000  C
  C76      1.0000 0.47860  0.87140  0.68370  Biso   1.000  C
  C77      1.0000 0.45870  0.78600  0.72058  Biso   1.000  C
  C78      1.0000 0.52550  0.69380  0.71797  Biso   1.000  C
  C79      1.0000 0.60600  0.69080  0.67803  Biso   1.000  C
  C80      1.0000 0.34800  0.71170  0.79218  Biso   1.000  C
  C81      1.0000 0.20900  0.65410  0.86255  Biso   1.000  C
  C82      1.0000 0.18200  0.42320  0.98982  Biso   1.000  C
  C83      1.0000 0.18680  0.50220  0.94816  Biso   1.000  C
  C84      1.0000 0.28650  0.53120  0.92901  Biso   1.000  C
  C85      1.0000 0.37400  0.47620  0.94932  Biso   1.000  C
  C86      1.0000 0.36110  0.40590  0.99281  Biso   1.000  C
  C87      1.0000 0.93860  0.64040  0.64646  Biso   1.000  C
  C88      1.0000 0.02140  0.62860  0.68370  Biso   1.000  C
  C89      1.0000 0.04130  0.71400  0.72058  Biso   1.000  C
  C90      1.0000 0.97450  0.80620  0.71797  Biso   1.000  C
  C91      1.0000 0.89400  0.80920  0.67803  Biso   1.000  C
  C92      1.0000 0.15200  0.78830  0.79218  Biso   1.000  C
  C93      1.0000 0.29100  0.84590  0.86255  Biso   1.000  C
  C94      1.0000 0.31800  0.07680  0.98982  Biso   1.000  C
  C95      1.0000 0.31320  0.99780  0.94816  Biso   1.000  C
  C96      1.0000 0.21350  0.96880  0.92901  Biso   1.000  C
  C97      1.0000 0.12600  0.02380  0.94932  Biso   1.000  C
  C98      1.0000 0.13890  0.09410  0.99281  Biso   1.000  C
  C99      1.0000 0.25000  0.75000  0.32638  Biso   1.000  C
  C100     1.0000 0.25000  0.75000  0.82638  Biso   1.000  C
  S5       1.0000 0.45080  0.22122  0.07879  Biso   1.000  S
  S6       1.0000 0.04920  0.27878  0.07879  Biso   1.000  S
  S7       1.0000 0.77878  0.95080  0.57879  Biso   1.000  S
  S8       1.0000 0.72122  0.54920  0.57879  Biso   1.000  S
  N9       1.0000 0.26890  0.37440  0.14185  Biso   1.000  N
  N10      1.0000 0.87690  0.73230  0.51241  Biso   1.000  N
  N11      1.0000 0.23110  0.12560  0.14185  Biso   1.000  N
  N12      1.0000 0.62310  0.76770  0.51241  Biso   1.000  N
  N13      1.0000 0.62560  0.76890  0.64185  Biso   1.000  N
  N14      1.0000 0.26770  0.37690  0.01241  Biso   1.000  N
  N15      1.0000 0.87440  0.73110  0.64185  Biso   1.000  N
  N16      1.0000 0.23230  0.12310  0.01241  Biso   1.000  N
  O9       1.0000 0.30052  0.62605  0.25549  Biso   1.000  O
  O10      1.0000 0.10813  0.69570  0.38953  Biso   1.000  O
  O11      1.0000 0.19948  0.87395  0.25549  Biso   1.000  O
  O12      1.0000 0.39187  0.80430  0.38953  Biso   1.000  O
  O13      1.0000 0.37395  0.80052  0.75549  Biso   1.000  O
  O14      1.0000 0.30430  0.60813  0.88953  Biso   1.000  O
  O15      1.0000 0.12605  0.69948  0.75549  Biso   1.000  O
  O16      1.0000 0.19570  0.89187  0.88953  Biso   1.000  O
