data_image0
_cell_length_a       16.169
_cell_length_b       16.169
_cell_length_c       18.199
_cell_angle_alpha    90
_cell_angle_beta     90
_cell_angle_gamma    90

_symmetry_space_group_name_H-M    P 1
_symmetry_int_tables_number       1

loop_
  _symmetry_equiv_pos_as_xyz
  'x, y, z'

loop_
  _atom_site_label
  _atom_site_occupancy
  _atom_site_fract_x
  _atom_site_fract_y
  _atom_site_fract_z
  _atom_site_thermal_displace_type
  _atom_site_B_iso_or_equiv
  _atom_site_type_symbol
  V1       1.0000 0.00420  0.82246  0.86407  Biso   1.000  V
  V2       1.0000 0.17532  0.83103  0.00010  Biso   1.000  V
  V3       1.0000 0.24685  0.00457  0.99245  Biso   1.000  V
  V4       1.0000 0.21390  0.25140  0.72758  Biso   1.000  V
  V5       1.0000 0.99580  0.17754  0.86407  Biso   1.000  V
  V6       1.0000 0.82468  0.16897  0.00010  Biso   1.000  V
  V7       1.0000 0.75315  0.99543  0.99245  Biso   1.000  V
  V8       1.0000 0.78610  0.74860  0.72758  Biso   1.000  V
  V9       1.0000 0.82246  0.99580  0.13593  Biso   1.000  V
  V10      1.0000 0.83103  0.82468  0.99990  Biso   1.000  V
  V11      1.0000 0.00457  0.75315  0.00755  Biso   1.000  V
  V12      1.0000 0.25140  0.78610  0.27242  Biso   1.000  V
  V13      1.0000 0.17754  0.00420  0.13593  Biso   1.000  V
  V14      1.0000 0.16897  0.17532  0.99990  Biso   1.000  V
  V15      1.0000 0.99543  0.24685  0.00755  Biso   1.000  V
  V16      1.0000 0.74860  0.21390  0.27242  Biso   1.000  V
  V17      1.0000 0.49580  0.32246  0.63593  Biso   1.000  V
  V18      1.0000 0.32468  0.33103  0.49990  Biso   1.000  V
  V19      1.0000 0.25315  0.50457  0.50755  Biso   1.000  V
  V20      1.0000 0.28610  0.75140  0.77242  Biso   1.000  V
  V21      1.0000 0.50420  0.67754  0.63593  Biso   1.000  V
  V22      1.0000 0.67532  0.66897  0.49990  Biso   1.000  V
  V23      1.0000 0.74685  0.49543  0.50755  Biso   1.000  V
  V24      1.0000 0.71390  0.24860  0.77242  Biso   1.000  V
  V25      1.0000 0.67754  0.49580  0.36407  Biso   1.000  V
  V26      1.0000 0.66897  0.32468  0.50010  Biso   1.000  V
  V27      1.0000 0.49543  0.25315  0.49245  Biso   1.000  V
  V28      1.0000 0.24860  0.28610  0.22758  Biso   1.000  V
  V29      1.0000 0.32246  0.50420  0.36407  Biso   1.000  V
  V30      1.0000 0.33103  0.67532  0.50010  Biso   1.000  V
  V31      1.0000 0.50457  0.74685  0.49245  Biso   1.000  V
  V32      1.0000 0.75140  0.71390  0.22758  Biso   1.000  V
  V33      1.0000 0.00000  0.00000  0.79698  Biso   1.000  V
  V34      1.0000 0.00000  0.00000  0.20302  Biso   1.000  V
  V35      1.0000 0.50000  0.50000  0.70302  Biso   1.000  V
  V36      1.0000 0.50000  0.50000  0.29698  Biso   1.000  V
  Si1      1.0000 0.17700  0.09300  0.83770  Biso   1.000  Si
  Si2      1.0000 0.17990  0.91460  0.83780  Biso   1.000  Si
  Si3      1.0000 0.82300  0.90700  0.83770  Biso   1.000  Si
  Si4      1.0000 0.82010  0.08540  0.83780  Biso   1.000  Si
  Si5      1.0000 0.09300  0.82300  0.16230  Biso   1.000  Si
  Si6      1.0000 0.91460  0.82010  0.16220  Biso   1.000  Si
  Si7      1.0000 0.90700  0.17700  0.16230  Biso   1.000  Si
  Si8      1.0000 0.08540  0.17990  0.16220  Biso   1.000  Si
  Si9      1.0000 0.32300  0.59300  0.66230  Biso   1.000  Si
  Si10     1.0000 0.32010  0.41460  0.66220  Biso   1.000  Si
  Si11     1.0000 0.67700  0.40700  0.66230  Biso   1.000  Si
  Si12     1.0000 0.67990  0.58540  0.66220  Biso   1.000  Si
  Si13     1.0000 0.40700  0.32300  0.33770  Biso   1.000  Si
  Si14     1.0000 0.58540  0.32010  0.33780  Biso   1.000  Si
  Si15     1.0000 0.59300  0.67700  0.33770  Biso   1.000  Si
  Si16     1.0000 0.41460  0.67990  0.33780  Biso   1.000  Si
  H1       1.0000 0.28880  0.07300  0.70690  Biso   1.000  H
  H2       1.0000 0.24350  0.07820  0.63120  Biso   1.000  H
  H3       1.0000 0.41530  0.06260  0.64620  Biso   1.000  H
  H4       1.0000 0.36970  0.06720  0.57080  Biso   1.000  H
  H5       1.0000 0.41790  0.93570  0.60810  Biso   1.000  H
  H6       1.0000 0.32900  0.93990  0.57520  Biso   1.000  H
  H7       1.0000 0.36920  0.92810  0.71330  Biso   1.000  H
  H8       1.0000 0.28020  0.93520  0.68220  Biso   1.000  H
  H9       1.0000 0.71120  0.92700  0.70690  Biso   1.000  H
  H10      1.0000 0.75650  0.92180  0.63120  Biso   1.000  H
  H11      1.0000 0.58470  0.93740  0.64620  Biso   1.000  H
  H12      1.0000 0.63030  0.93280  0.57080  Biso   1.000  H
  H13      1.0000 0.58210  0.06430  0.60810  Biso   1.000  H
  H14      1.0000 0.67100  0.06010  0.57520  Biso   1.000  H
  H15      1.0000 0.63080  0.07190  0.71330  Biso   1.000  H
  H16      1.0000 0.71980  0.06480  0.68220  Biso   1.000  H
  H17      1.0000 0.07300  0.71120  0.29310  Biso   1.000  H
  H18      1.0000 0.07820  0.75650  0.36880  Biso   1.000  H
  H19      1.0000 0.06260  0.58470  0.35380  Biso   1.000  H
  H20      1.0000 0.06720  0.63030  0.42920  Biso   1.000  H
  H21      1.0000 0.93570  0.58210  0.39190  Biso   1.000  H
  H22      1.0000 0.93990  0.67100  0.42480  Biso   1.000  H
  H23      1.0000 0.92810  0.63080  0.28670  Biso   1.000  H
  H24      1.0000 0.93520  0.71980  0.31780  Biso   1.000  H
  H25      1.0000 0.92700  0.28880  0.29310  Biso   1.000  H
  H26      1.0000 0.92180  0.24350  0.36880  Biso   1.000  H
  H27      1.0000 0.93740  0.41530  0.35380  Biso   1.000  H
  H28      1.0000 0.93280  0.36970  0.42920  Biso   1.000  H
  H29      1.0000 0.06430  0.41790  0.39190  Biso   1.000  H
  H30      1.0000 0.06010  0.32900  0.42480  Biso   1.000  H
  H31      1.0000 0.07190  0.36920  0.28670  Biso   1.000  H
  H32      1.0000 0.06480  0.28020  0.31780  Biso   1.000  H
  H33      1.0000 0.21120  0.57300  0.79310  Biso   1.000  H
  H34      1.0000 0.25650  0.57820  0.86880  Biso   1.000  H
  H35      1.0000 0.08470  0.56260  0.85380  Biso   1.000  H
  H36      1.0000 0.13030  0.56720  0.92920  Biso   1.000  H
  H37      1.0000 0.08210  0.43570  0.89190  Biso   1.000  H
  H38      1.0000 0.17100  0.43990  0.92480  Biso   1.000  H
  H39      1.0000 0.13080  0.42810  0.78670  Biso   1.000  H
  H40      1.0000 0.21980  0.43520  0.81780  Biso   1.000  H
  H41      1.0000 0.78880  0.42700  0.79310  Biso   1.000  H
  H42      1.0000 0.74350  0.42180  0.86880  Biso   1.000  H
  H43      1.0000 0.91530  0.43740  0.85380  Biso   1.000  H
  H44      1.0000 0.86970  0.43280  0.92920  Biso   1.000  H
  H45      1.0000 0.91790  0.56430  0.89190  Biso   1.000  H
  H46      1.0000 0.82900  0.56010  0.92480  Biso   1.000  H
  H47      1.0000 0.86920  0.57190  0.78670  Biso   1.000  H
  H48      1.0000 0.78020  0.56480  0.81780  Biso   1.000  H
  H49      1.0000 0.42700  0.21120  0.20690  Biso   1.000  H
  H50      1.0000 0.42180  0.25650  0.13120  Biso   1.000  H
  H51      1.0000 0.43740  0.08470  0.14620  Biso   1.000  H
  H52      1.0000 0.43280  0.13030  0.07080  Biso   1.000  H
  H53      1.0000 0.56430  0.08210  0.10810  Biso   1.000  H
  H54      1.0000 0.56010  0.17100  0.07520  Biso   1.000  H
  H55      1.0000 0.57190  0.13080  0.21330  Biso   1.000  H
  H56      1.0000 0.56480  0.21980  0.18220  Biso   1.000  H
  H57      1.0000 0.57300  0.78880  0.20690  Biso   1.000  H
  H58      1.0000 0.57820  0.74350  0.13120  Biso   1.000  H
  H59      1.0000 0.56260  0.91530  0.14620  Biso   1.000  H
  H60      1.0000 0.56720  0.86970  0.07080  Biso   1.000  H
  H61      1.0000 0.43570  0.91790  0.10810  Biso   1.000  H
  H62      1.0000 0.43990  0.82900  0.07520  Biso   1.000  H
  H63      1.0000 0.42810  0.86920  0.21330  Biso   1.000  H
  H64      1.0000 0.43520  0.78020  0.18220  Biso   1.000  H
  C1       1.0000 0.29400  0.09290  0.65680  Biso   1.000  C
  C2       1.0000 0.36490  0.04710  0.62100  Biso   1.000  C
  C3       1.0000 0.36200  0.95470  0.61770  Biso   1.000  C
  C4       1.0000 0.33500  0.91290  0.67200  Biso   1.000  C
  C5       1.0000 0.70600  0.90710  0.65680  Biso   1.000  C
  C6       1.0000 0.63510  0.95290  0.62100  Biso   1.000  C
  C7       1.0000 0.63800  0.04530  0.61770  Biso   1.000  C
  C8       1.0000 0.66500  0.08710  0.67200  Biso   1.000  C
  C9       1.0000 0.09290  0.70600  0.34320  Biso   1.000  C
  C10      1.0000 0.04710  0.63510  0.37900  Biso   1.000  C
  C11      1.0000 0.95470  0.63800  0.38230  Biso   1.000  C
  C12      1.0000 0.91290  0.66500  0.32800  Biso   1.000  C
  C13      1.0000 0.90710  0.29400  0.34320  Biso   1.000  C
  C14      1.0000 0.95290  0.36490  0.37900  Biso   1.000  C
  C15      1.0000 0.04530  0.36200  0.38230  Biso   1.000  C
  C16      1.0000 0.08710  0.33500  0.32800  Biso   1.000  C
  C17      1.0000 0.20600  0.59290  0.84320  Biso   1.000  C
  C18      1.0000 0.13510  0.54710  0.87900  Biso   1.000  C
  C19      1.0000 0.13800  0.45470  0.88230  Biso   1.000  C
  C20      1.0000 0.16500  0.41290  0.82800  Biso   1.000  C
  C21      1.0000 0.79400  0.40710  0.84320  Biso   1.000  C
  C22      1.0000 0.86490  0.45290  0.87900  Biso   1.000  C
  C23      1.0000 0.86200  0.54530  0.88230  Biso   1.000  C
  C24      1.0000 0.83500  0.58710  0.82800  Biso   1.000  C
  C25      1.0000 0.40710  0.20600  0.15680  Biso   1.000  C
  C26      1.0000 0.45290  0.13510  0.12100  Biso   1.000  C
  C27      1.0000 0.54530  0.13800  0.11770  Biso   1.000  C
  C28      1.0000 0.58710  0.16500  0.17200  Biso   1.000  C
  C29      1.0000 0.59290  0.79400  0.15680  Biso   1.000  C
  C30      1.0000 0.54710  0.86490  0.12100  Biso   1.000  C
  C31      1.0000 0.45470  0.86200  0.11770  Biso   1.000  C
  C32      1.0000 0.41290  0.83500  0.17200  Biso   1.000  C
  N1       1.0000 0.30000  0.18470  0.65890  Biso   1.000  N
  N2       1.0000 0.32570  0.82610  0.67640  Biso   1.000  N
  N3       1.0000 0.70000  0.81530  0.65890  Biso   1.000  N
  N4       1.0000 0.67430  0.17390  0.67640  Biso   1.000  N
  N5       1.0000 0.18470  0.70000  0.34110  Biso   1.000  N
  N6       1.0000 0.82610  0.67430  0.32360  Biso   1.000  N
  N7       1.0000 0.81530  0.30000  0.34110  Biso   1.000  N
  N8       1.0000 0.17390  0.32570  0.32360  Biso   1.000  N
  N9       1.0000 0.20000  0.68470  0.84110  Biso   1.000  N
  N10      1.0000 0.17430  0.32610  0.82360  Biso   1.000  N
  N11      1.0000 0.80000  0.31530  0.84110  Biso   1.000  N
  N12      1.0000 0.82570  0.67390  0.82360  Biso   1.000  N
  N13      1.0000 0.31530  0.20000  0.15890  Biso   1.000  N
  N14      1.0000 0.67390  0.17430  0.17640  Biso   1.000  N
  N15      1.0000 0.68470  0.80000  0.15890  Biso   1.000  N
  N16      1.0000 0.32610  0.82570  0.17640  Biso   1.000  N
  O1       1.0000 0.08480  0.79740  0.93600  Biso   1.000  O
  O2       1.0000 0.20880  0.00250  0.80560  Biso   1.000  O
  O3       1.0000 0.00900  0.75060  0.80480  Biso   1.000  O
  O4       1.0000 0.34610  0.00560  0.99030  Biso   1.000  O
  O5       1.0000 0.24320  0.75930  0.99980  Biso   1.000  O
  O6       1.0000 0.21840  0.16670  0.79720  Biso   1.000  O
  O7       1.0000 0.20680  0.91420  0.92550  Biso   1.000  O
  O8       1.0000 0.20020  0.09150  0.92400  Biso   1.000  O
  O9       1.0000 0.07800  0.91380  0.83610  Biso   1.000  O
  O10      1.0000 0.07420  0.08870  0.82740  Biso   1.000  O
  O11      1.0000 0.92540  0.79280  0.93950  Biso   1.000  O
  O12      1.0000 0.13050  0.25110  0.67640  Biso   1.000  O
  O13      1.0000 0.21820  0.83740  0.79360  Biso   1.000  O
  O14      1.0000 0.91520  0.20260  0.93600  Biso   1.000  O
  O15      1.0000 0.79120  0.99750  0.80560  Biso   1.000  O
  O16      1.0000 0.99100  0.24940  0.80480  Biso   1.000  O
  O17      1.0000 0.65390  0.99440  0.99030  Biso   1.000  O
  O18      1.0000 0.75680  0.24070  0.99980  Biso   1.000  O
  O19      1.0000 0.78160  0.83330  0.79720  Biso   1.000  O
  O20      1.0000 0.79320  0.08580  0.92550  Biso   1.000  O
  O21      1.0000 0.79980  0.90850  0.92400  Biso   1.000  O
  O22      1.0000 0.92200  0.08620  0.83610  Biso   1.000  O
  O23      1.0000 0.92580  0.91130  0.82740  Biso   1.000  O
  O24      1.0000 0.07460  0.20720  0.93950  Biso   1.000  O
  O25      1.0000 0.86950  0.74890  0.67640  Biso   1.000  O
  O26      1.0000 0.78180  0.16260  0.79360  Biso   1.000  O
  O27      1.0000 0.79740  0.91520  0.06400  Biso   1.000  O
  O28      1.0000 0.00250  0.79120  0.19440  Biso   1.000  O
  O29      1.0000 0.75060  0.99100  0.19520  Biso   1.000  O
  O30      1.0000 0.00560  0.65390  0.00970  Biso   1.000  O
  O31      1.0000 0.75930  0.75680  0.00020  Biso   1.000  O
  O32      1.0000 0.16670  0.78160  0.20280  Biso   1.000  O
  O33      1.0000 0.91420  0.79320  0.07450  Biso   1.000  O
  O34      1.0000 0.09150  0.79980  0.07600  Biso   1.000  O
  O35      1.0000 0.91380  0.92200  0.16390  Biso   1.000  O
  O36      1.0000 0.08870  0.92580  0.17260  Biso   1.000  O
  O37      1.0000 0.79280  0.07460  0.06050  Biso   1.000  O
  O38      1.0000 0.25110  0.86950  0.32360  Biso   1.000  O
  O39      1.0000 0.83740  0.78180  0.20640  Biso   1.000  O
  O40      1.0000 0.20260  0.08480  0.06400  Biso   1.000  O
  O41      1.0000 0.99750  0.20880  0.19440  Biso   1.000  O
  O42      1.0000 0.24940  0.00900  0.19520  Biso   1.000  O
  O43      1.0000 0.99440  0.34610  0.00970  Biso   1.000  O
  O44      1.0000 0.24070  0.24320  0.00020  Biso   1.000  O
  O45      1.0000 0.83330  0.21840  0.20280  Biso   1.000  O
  O46      1.0000 0.08580  0.20680  0.07450  Biso   1.000  O
  O47      1.0000 0.90850  0.20020  0.07600  Biso   1.000  O
  O48      1.0000 0.08620  0.07800  0.16390  Biso   1.000  O
  O49      1.0000 0.91130  0.07420  0.17260  Biso   1.000  O
  O50      1.0000 0.20720  0.92540  0.06050  Biso   1.000  O
  O51      1.0000 0.74890  0.13050  0.32360  Biso   1.000  O
  O52      1.0000 0.16260  0.21820  0.20640  Biso   1.000  O
  O53      1.0000 0.41520  0.29740  0.56400  Biso   1.000  O
  O54      1.0000 0.29120  0.50250  0.69440  Biso   1.000  O
  O55      1.0000 0.49100  0.25060  0.69520  Biso   1.000  O
  O56      1.0000 0.15390  0.50560  0.50970  Biso   1.000  O
  O57      1.0000 0.25680  0.25930  0.50020  Biso   1.000  O
  O58      1.0000 0.28160  0.66670  0.70280  Biso   1.000  O
  O59      1.0000 0.29320  0.41420  0.57450  Biso   1.000  O
  O60      1.0000 0.29980  0.59150  0.57600  Biso   1.000  O
  O61      1.0000 0.42200  0.41380  0.66390  Biso   1.000  O
  O62      1.0000 0.42580  0.58870  0.67260  Biso   1.000  O
  O63      1.0000 0.57460  0.29280  0.56050  Biso   1.000  O
  O64      1.0000 0.36950  0.75110  0.82360  Biso   1.000  O
  O65      1.0000 0.28180  0.33740  0.70640  Biso   1.000  O
  O66      1.0000 0.58480  0.70260  0.56400  Biso   1.000  O
  O67      1.0000 0.70880  0.49750  0.69440  Biso   1.000  O
  O68      1.0000 0.50900  0.74940  0.69520  Biso   1.000  O
  O69      1.0000 0.84610  0.49440  0.50970  Biso   1.000  O
  O70      1.0000 0.74320  0.74070  0.50020  Biso   1.000  O
  O71      1.0000 0.71840  0.33330  0.70280  Biso   1.000  O
  O72      1.0000 0.70680  0.58580  0.57450  Biso   1.000  O
  O73      1.0000 0.70020  0.40850  0.57600  Biso   1.000  O
  O74      1.0000 0.57800  0.58620  0.66390  Biso   1.000  O
  O75      1.0000 0.57420  0.41130  0.67260  Biso   1.000  O
  O76      1.0000 0.42540  0.70720  0.56050  Biso   1.000  O
  O77      1.0000 0.63050  0.24890  0.82360  Biso   1.000  O
  O78      1.0000 0.71820  0.66260  0.70640  Biso   1.000  O
  O79      1.0000 0.70260  0.41520  0.43600  Biso   1.000  O
  O80      1.0000 0.49750  0.29120  0.30560  Biso   1.000  O
  O81      1.0000 0.74940  0.49100  0.30480  Biso   1.000  O
  O82      1.0000 0.49440  0.15390  0.49030  Biso   1.000  O
  O83      1.0000 0.74070  0.25680  0.49980  Biso   1.000  O
  O84      1.0000 0.33330  0.28160  0.29720  Biso   1.000  O
  O85      1.0000 0.58580  0.29320  0.42550  Biso   1.000  O
  O86      1.0000 0.40850  0.29980  0.42400  Biso   1.000  O
  O87      1.0000 0.58620  0.42200  0.33610  Biso   1.000  O
  O88      1.0000 0.41130  0.42580  0.32740  Biso   1.000  O
  O89      1.0000 0.70720  0.57460  0.43950  Biso   1.000  O
  O90      1.0000 0.24890  0.36950  0.17640  Biso   1.000  O
  O91      1.0000 0.66260  0.28180  0.29360  Biso   1.000  O
  O92      1.0000 0.29740  0.58480  0.43600  Biso   1.000  O
  O93      1.0000 0.50250  0.70880  0.30560  Biso   1.000  O
  O94      1.0000 0.25060  0.50900  0.30480  Biso   1.000  O
  O95      1.0000 0.50560  0.84610  0.49030  Biso   1.000  O
  O96      1.0000 0.25930  0.74320  0.49980  Biso   1.000  O
  O97      1.0000 0.66670  0.71840  0.29720  Biso   1.000  O
  O98      1.0000 0.41420  0.70680  0.42550  Biso   1.000  O
  O99      1.0000 0.59150  0.70020  0.42400  Biso   1.000  O
  O100     1.0000 0.41380  0.57800  0.33610  Biso   1.000  O
  O101     1.0000 0.58870  0.57420  0.32740  Biso   1.000  O
  O102     1.0000 0.29280  0.42540  0.43950  Biso   1.000  O
  O103     1.0000 0.75110  0.63050  0.17640  Biso   1.000  O
  O104     1.0000 0.33740  0.71820  0.29360  Biso   1.000  O
  O105     1.0000 0.00000  0.00000  0.70710  Biso   1.000  O
  O106     1.0000 0.00000  0.00000  0.29290  Biso   1.000  O
  O107     1.0000 0.50000  0.50000  0.79290  Biso   1.000  O
  O108     1.0000 0.50000  0.50000  0.20710  Biso   1.000  O
