data_image0
_cell_length_a       8.7796
_cell_length_b       10.0297
_cell_length_c       10.1561
_cell_angle_alpha    119.587
_cell_angle_beta     115.607
_cell_angle_gamma    90.0045

_symmetry_space_group_name_H-M    P 1
_symmetry_int_tables_number       1

loop_
  _symmetry_equiv_pos_as_xyz
  'x, y, z'

loop_
  _atom_site_label
  _atom_site_occupancy
  _atom_site_fract_x
  _atom_site_fract_y
  _atom_site_fract_z
  _atom_site_thermal_displace_type
  _atom_site_B_iso_or_equiv
  _atom_site_type_symbol
  Zn1      1.0000 0.70419  0.88772  0.72458  Biso   1.000  Zn
  Zn2      1.0000 0.47961  0.16314  0.27542  Biso   1.000  Zn
  H1       1.0000 0.60300  0.60660  0.75400  Biso   1.000  H
  H2       1.0000 0.53450  0.42790  0.65920  Biso   1.000  H
  H3       1.0000 0.12460  0.30590  0.12200  Biso   1.000  H
  H4       1.0000 0.98750  0.21940  0.94380  Biso   1.000  H
  H5       1.0000 0.34900  0.85260  0.24600  Biso   1.000  H
  H6       1.0000 0.37530  0.76870  0.34080  Biso   1.000  H
  H7       1.0000 0.50260  0.18390  0.87800  Biso   1.000  H
  H8       1.0000 0.54370  0.27560  0.05620  Biso   1.000  H
  C1       1.0000 0.57360  0.52490  0.54400  Biso   1.000  C
  C2       1.0000 0.09220  0.07550  0.99620  Biso   1.000  C
  C3       1.0000 0.52960  0.98090  0.45600  Biso   1.000  C
  C4       1.0000 0.59600  0.07930  0.00380  Biso   1.000  C
  N1       1.0000 0.61120  0.65700  0.54720  Biso   1.000  N
  N2       1.0000 0.59070  0.60440  0.38720  Biso   1.000  N
  N3       1.0000 0.57010  0.52210  0.67260  Biso   1.000  N
  N4       1.0000 0.53250  0.39690  0.38940  Biso   1.000  N
  N5       1.0000 0.54380  0.45340  0.29440  Biso   1.000  N
  N6       1.0000 0.02920  0.82440  0.89360  Biso   1.000  N
  N7       1.0000 0.18280  0.88800  0.02560  Biso   1.000  N
  N8       1.0000 0.96420  0.94010  0.86880  Biso   1.000  N
  N9       1.0000 0.22840  0.04780  0.09500  Biso   1.000  N
  N10      1.0000 0.08040  0.21760  0.01780  Biso   1.000  N
  N11      1.0000 0.56400  0.10980  0.45280  Biso   1.000  N
  N12      1.0000 0.70350  0.21720  0.61280  Biso   1.000  N
  N13      1.0000 0.39750  0.84950  0.32740  Biso   1.000  N
  N14      1.0000 0.64310  0.00750  0.61060  Biso   1.000  N
  N15      1.0000 0.74940  0.15900  0.70560  Biso   1.000  N
  N16      1.0000 0.63560  0.93080  0.10640  Biso   1.000  N
  N17      1.0000 0.65720  0.86240  0.97440  Biso   1.000  N
  N18      1.0000 0.59540  0.07130  0.13120  Biso   1.000  N
  N19      1.0000 0.63340  0.95280  0.90500  Biso   1.000  N
  N20      1.0000 0.56260  0.19980  0.98220  Biso   1.000  N
