data_image0
_cell_length_a       7.4087
_cell_length_b       14.5347
_cell_length_c       16.4236
_cell_angle_alpha    90
_cell_angle_beta     90
_cell_angle_gamma    94.993

_symmetry_space_group_name_H-M    P 1
_symmetry_int_tables_number       1

loop_
  _symmetry_equiv_pos_as_xyz
  'x, y, z'

loop_
  _atom_site_label
  _atom_site_occupancy
  _atom_site_fract_x
  _atom_site_fract_y
  _atom_site_fract_z
  _atom_site_thermal_displace_type
  _atom_site_B_iso_or_equiv
  _atom_site_type_symbol
  Zn1      1.0000 0.22160  0.68087  0.48192  Biso   1.000  Zn
  Zn2      1.0000 0.19130  0.47910  0.37277  Biso   1.000  Zn
  Zn3      1.0000 0.27840  0.81913  0.98192  Biso   1.000  Zn
  Zn4      1.0000 0.30870  0.02090  0.87277  Biso   1.000  Zn
  Zn5      1.0000 0.77840  0.31913  0.51808  Biso   1.000  Zn
  Zn6      1.0000 0.80870  0.52090  0.62723  Biso   1.000  Zn
  Zn7      1.0000 0.72160  0.18087  0.01808  Biso   1.000  Zn
  Zn8      1.0000 0.69130  0.97910  0.12723  Biso   1.000  Zn
  Zn9      1.0000 0.50000  0.50000  0.50000  Biso   1.000  Zn
  Zn10     1.0000 0.00000  0.00000  0.00000  Biso   1.000  Zn
  H1       1.0000 0.83620  0.48200  0.47600  Biso   1.000  H
  H2       1.0000 0.36480  0.78090  0.35780  Biso   1.000  H
  H3       1.0000 0.35870  0.80820  0.43870  Biso   1.000  H
  H4       1.0000 0.42880  0.67420  0.20540  Biso   1.000  H
  H5       1.0000 0.04860  0.72920  0.22440  Biso   1.000  H
  H6       1.0000 0.66380  0.01800  0.97600  Biso   1.000  H
  H7       1.0000 0.13520  0.71910  0.85780  Biso   1.000  H
  H8       1.0000 0.14130  0.69180  0.93870  Biso   1.000  H
  H9       1.0000 0.07120  0.82580  0.70540  Biso   1.000  H
  H10      1.0000 0.45140  0.77080  0.72440  Biso   1.000  H
  H11      1.0000 0.16380  0.51800  0.52400  Biso   1.000  H
  H12      1.0000 0.63520  0.21910  0.64220  Biso   1.000  H
  H13      1.0000 0.64130  0.19180  0.56130  Biso   1.000  H
  H14      1.0000 0.57120  0.32580  0.79460  Biso   1.000  H
  H15      1.0000 0.95140  0.27080  0.77560  Biso   1.000  H
  H16      1.0000 0.33620  0.98200  0.02400  Biso   1.000  H
  H17      1.0000 0.86480  0.28090  0.14220  Biso   1.000  H
  H18      1.0000 0.85870  0.30820  0.06130  Biso   1.000  H
  H19      1.0000 0.92880  0.17420  0.29460  Biso   1.000  H
  H20      1.0000 0.54860  0.22920  0.27560  Biso   1.000  H
  C1       1.0000 0.83070  0.66440  0.28030  Biso   1.000  C
  C2       1.0000 0.64310  0.64760  0.27470  Biso   1.000  C
  C3       1.0000 0.55350  0.68720  0.21050  Biso   1.000  C
  C4       1.0000 0.64390  0.74480  0.15450  Biso   1.000  C
  C5       1.0000 0.83270  0.75990  0.15970  Biso   1.000  C
  C6       1.0000 0.92300  0.71950  0.22160  Biso   1.000  C
  C7       1.0000 0.94590  0.62590  0.34570  Biso   1.000  C
  C8       1.0000 0.53440  0.59200  0.33630  Biso   1.000  C
  C9       1.0000 0.52810  0.78630  0.09210  Biso   1.000  C
  C10      1.0000 0.94560  0.81900  0.09930  Biso   1.000  C
  C11      1.0000 0.66930  0.83560  0.78030  Biso   1.000  C
  C12      1.0000 0.85690  0.85240  0.77470  Biso   1.000  C
  C13      1.0000 0.94650  0.81280  0.71050  Biso   1.000  C
  C14      1.0000 0.85610  0.75520  0.65450  Biso   1.000  C
  C15      1.0000 0.66730  0.74010  0.65970  Biso   1.000  C
  C16      1.0000 0.57700  0.78050  0.72160  Biso   1.000  C
  C17      1.0000 0.55410  0.87410  0.84570  Biso   1.000  C
  C18      1.0000 0.96560  0.90800  0.83630  Biso   1.000  C
  C19      1.0000 0.97190  0.71370  0.59210  Biso   1.000  C
  C20      1.0000 0.55440  0.68100  0.59930  Biso   1.000  C
  C21      1.0000 0.16930  0.33560  0.71970  Biso   1.000  C
  C22      1.0000 0.35690  0.35240  0.72530  Biso   1.000  C
  C23      1.0000 0.44650  0.31280  0.78950  Biso   1.000  C
  C24      1.0000 0.35610  0.25520  0.84550  Biso   1.000  C
  C25      1.0000 0.16730  0.24010  0.84030  Biso   1.000  C
  C26      1.0000 0.07700  0.28050  0.77840  Biso   1.000  C
  C27      1.0000 0.05410  0.37410  0.65430  Biso   1.000  C
  C28      1.0000 0.46560  0.40800  0.66370  Biso   1.000  C
  C29      1.0000 0.47190  0.21370  0.90790  Biso   1.000  C
  C30      1.0000 0.05440  0.18100  0.90070  Biso   1.000  C
  C31      1.0000 0.33070  0.16440  0.21970  Biso   1.000  C
  C32      1.0000 0.14310  0.14760  0.22530  Biso   1.000  C
  C33      1.0000 0.05350  0.18720  0.28950  Biso   1.000  C
  C34      1.0000 0.14390  0.24480  0.34550  Biso   1.000  C
  C35      1.0000 0.33270  0.25990  0.34030  Biso   1.000  C
  C36      1.0000 0.42300  0.21950  0.27840  Biso   1.000  C
  C37      1.0000 0.44590  0.12590  0.15430  Biso   1.000  C
  C38      1.0000 0.03440  0.09200  0.16370  Biso   1.000  C
  C39      1.0000 0.02810  0.28630  0.40790  Biso   1.000  C
  C40      1.0000 0.44560  0.31900  0.40070  Biso   1.000  C
  O1       1.0000 0.97000  0.54260  0.34100  Biso   1.000  O
  O2       1.0000 0.01740  0.68330  0.39470  Biso   1.000  O
  O3       1.0000 0.37780  0.56030  0.31380  Biso   1.000  O
  O4       1.0000 0.60380  0.58090  0.40410  Biso   1.000  O
  O5       1.0000 0.52370  0.87160  0.08700  Biso   1.000  O
  O6       1.0000 0.42720  0.73290  0.04960  Biso   1.000  O
  O7       1.0000 0.07830  0.78310  0.07050  Biso   1.000  O
  O8       1.0000 0.90140  0.89730  0.08430  Biso   1.000  O
  O9       1.0000 0.75400  0.45350  0.51740  Biso   1.000  O
  O10      1.0000 0.37990  0.76440  0.40700  Biso   1.000  O
  O11      1.0000 0.53000  0.95740  0.84100  Biso   1.000  O
  O12      1.0000 0.48260  0.81670  0.89470  Biso   1.000  O
  O13      1.0000 0.12220  0.93970  0.81380  Biso   1.000  O
  O14      1.0000 0.89620  0.91910  0.90410  Biso   1.000  O
  O15      1.0000 0.97630  0.62840  0.58700  Biso   1.000  O
  O16      1.0000 0.07280  0.76710  0.54960  Biso   1.000  O
  O17      1.0000 0.42170  0.71690  0.57050  Biso   1.000  O
  O18      1.0000 0.59860  0.60270  0.58430  Biso   1.000  O
  O19      1.0000 0.74600  0.04650  0.01740  Biso   1.000  O
  O20      1.0000 0.12010  0.73560  0.90700  Biso   1.000  O
  O21      1.0000 0.03000  0.45740  0.65900  Biso   1.000  O
  O22      1.0000 0.98260  0.31670  0.60530  Biso   1.000  O
  O23      1.0000 0.62220  0.43970  0.68620  Biso   1.000  O
  O24      1.0000 0.39620  0.41910  0.59590  Biso   1.000  O
  O25      1.0000 0.47630  0.12840  0.91300  Biso   1.000  O
  O26      1.0000 0.57280  0.26710  0.95040  Biso   1.000  O
  O27      1.0000 0.92170  0.21690  0.92950  Biso   1.000  O
  O28      1.0000 0.09860  0.10270  0.91570  Biso   1.000  O
  O29      1.0000 0.24600  0.54650  0.48260  Biso   1.000  O
  O30      1.0000 0.62010  0.23560  0.59300  Biso   1.000  O
  O31      1.0000 0.47000  0.04260  0.15900  Biso   1.000  O
  O32      1.0000 0.51740  0.18330  0.10530  Biso   1.000  O
  O33      1.0000 0.87780  0.06030  0.18620  Biso   1.000  O
  O34      1.0000 0.10380  0.08090  0.09590  Biso   1.000  O
  O35      1.0000 0.02370  0.37160  0.41300  Biso   1.000  O
  O36      1.0000 0.92720  0.23290  0.45040  Biso   1.000  O
  O37      1.0000 0.57830  0.28310  0.42950  Biso   1.000  O
  O38      1.0000 0.40140  0.39730  0.41570  Biso   1.000  O
  O39      1.0000 0.25400  0.95350  0.98260  Biso   1.000  O
  O40      1.0000 0.87990  0.26440  0.09300  Biso   1.000  O
