data_image0
_cell_length_a       8.405
_cell_length_b       10.293
_cell_length_c       17.6785
_cell_angle_alpha    90
_cell_angle_beta     102.813
_cell_angle_gamma    90

_symmetry_space_group_name_H-M    P 1
_symmetry_int_tables_number       1

loop_
  _symmetry_equiv_pos_as_xyz
  'x, y, z'

loop_
  _atom_site_label
  _atom_site_occupancy
  _atom_site_fract_x
  _atom_site_fract_y
  _atom_site_fract_z
  _atom_site_thermal_displace_type
  _atom_site_B_iso_or_equiv
  _atom_site_type_symbol
  Cu1      1.0000 0.32634  0.44245  0.93198  Biso   1.000  Cu
  Cu2      1.0000 0.82634  0.05755  0.43198  Biso   1.000  Cu
  H1       1.0000 0.36000  0.66290  0.59460  Biso   1.000  H
  H2       1.0000 0.31330  0.55000  0.70000  Biso   1.000  H
  H3       1.0000 0.03630  0.22770  0.66920  Biso   1.000  H
  H4       1.0000 0.14380  0.41050  0.48450  Biso   1.000  H
  H5       1.0000 0.73530  0.93550  0.56450  Biso   1.000  H
  H6       1.0000 0.56870  0.77240  0.59170  Biso   1.000  H
  H7       1.0000 0.39230  0.72840  0.36310  Biso   1.000  H
  H8       1.0000 0.56390  0.89110  0.34130  Biso   1.000  H
  H9       1.0000 0.86000  0.83710  0.09460  Biso   1.000  H
  H10      1.0000 0.81330  0.95000  0.20000  Biso   1.000  H
  H11      1.0000 0.53630  0.27230  0.16920  Biso   1.000  H
  H12      1.0000 0.64380  0.08950  0.98450  Biso   1.000  H
  H13      1.0000 0.23530  0.56450  0.06450  Biso   1.000  H
  H14      1.0000 0.06870  0.72760  0.09170  Biso   1.000  H
  H15      1.0000 0.89230  0.77160  0.86310  Biso   1.000  H
  H16      1.0000 0.06390  0.60890  0.84130  Biso   1.000  H
  C1       1.0000 0.24416  0.49710  0.58786  Biso   1.000  C
  C2       1.0000 0.25410  0.48810  0.66700  Biso   1.000  C
  C3       1.0000 0.17708  0.38800  0.69788  Biso   1.000  C
  C4       1.0000 0.08788  0.29520  0.64908  Biso   1.000  C
  C5       1.0000 0.07716  0.30510  0.56946  Biso   1.000  C
  C6       1.0000 0.15318  0.40500  0.53778  Biso   1.000  C
  C7       1.0000 0.35947  0.61520  0.49097  Biso   1.000  C
  C8       1.0000 0.66620  0.89270  0.52380  Biso   1.000  C
  C9       1.0000 0.56635  0.79490  0.54055  Biso   1.000  C
  C10      1.0000 0.46316  0.73100  0.48026  Biso   1.000  C
  C11      1.0000 0.46178  0.76870  0.40468  Biso   1.000  C
  C12      1.0000 0.56476  0.86660  0.39206  Biso   1.000  C
  C13      1.0000 0.19462  0.37920  0.78422  Biso   1.000  C
  C14      1.0000 0.98548  0.20690  0.51648  Biso   1.000  C
  C15      1.0000 0.74416  0.00290  0.08786  Biso   1.000  C
  C16      1.0000 0.75410  0.01190  0.16700  Biso   1.000  C
  C17      1.0000 0.67708  0.11200  0.19788  Biso   1.000  C
  C18      1.0000 0.58788  0.20480  0.14908  Biso   1.000  C
  C19      1.0000 0.57716  0.19490  0.06946  Biso   1.000  C
  C20      1.0000 0.65318  0.09500  0.03778  Biso   1.000  C
  C21      1.0000 0.85947  0.88480  0.99097  Biso   1.000  C
  C22      1.0000 0.16620  0.60730  0.02380  Biso   1.000  C
  C23      1.0000 0.06635  0.70510  0.04055  Biso   1.000  C
  C24      1.0000 0.96316  0.76900  0.98026  Biso   1.000  C
  C25      1.0000 0.96178  0.73130  0.90468  Biso   1.000  C
  C26      1.0000 0.06476  0.63340  0.89206  Biso   1.000  C
  C27      1.0000 0.69462  0.12080  0.28422  Biso   1.000  C
  C28      1.0000 0.48548  0.29310  0.01648  Biso   1.000  C
  N1       1.0000 0.32692  0.60160  0.56182  Biso   1.000  N
  N2       1.0000 0.66638  0.92780  0.45068  Biso   1.000  N
  N3       1.0000 0.82692  0.89840  0.06182  Biso   1.000  N
  N4       1.0000 0.16638  0.57220  0.95068  Biso   1.000  N
  O1       1.0000 0.31234  0.54090  0.43674  Biso   1.000  O
  O2       1.0000 0.29285  0.46250  0.82375  Biso   1.000  O
  O3       1.0000 0.11932  0.29740  0.81292  Biso   1.000  O
  O4       1.0000 0.91978  0.10920  0.54178  Biso   1.000  O
  O5       1.0000 0.97095  0.21530  0.44385  Biso   1.000  O
  O6       1.0000 0.81234  0.95910  0.93674  Biso   1.000  O
  O7       1.0000 0.79285  0.03750  0.32375  Biso   1.000  O
  O8       1.0000 0.61932  0.20260  0.31292  Biso   1.000  O
  O9       1.0000 0.41978  0.39080  0.04178  Biso   1.000  O
  O10      1.0000 0.47095  0.28470  0.94385  Biso   1.000  O
  Cu3      1.0000 0.17366  0.94245  0.56802  Biso   1.000  Cu
  Cu4      1.0000 0.67366  0.55755  0.06802  Biso   1.000  Cu
  H17      1.0000 0.14000  0.16290  0.90540  Biso   1.000  H
  H18      1.0000 0.18670  0.05000  0.80000  Biso   1.000  H
  H19      1.0000 0.46370  0.72770  0.83080  Biso   1.000  H
  H20      1.0000 0.35620  0.91050  0.01550  Biso   1.000  H
  H21      1.0000 0.76470  0.43550  0.93550  Biso   1.000  H
  H22      1.0000 0.93130  0.27240  0.90830  Biso   1.000  H
  H23      1.0000 0.10770  0.22840  0.13690  Biso   1.000  H
  H24      1.0000 0.93610  0.39110  0.15870  Biso   1.000  H
  H25      1.0000 0.64000  0.33710  0.40540  Biso   1.000  H
  H26      1.0000 0.68670  0.45000  0.30000  Biso   1.000  H
  H27      1.0000 0.96370  0.77230  0.33080  Biso   1.000  H
  H28      1.0000 0.85620  0.58950  0.51550  Biso   1.000  H
  H29      1.0000 0.26470  0.06450  0.43550  Biso   1.000  H
  H30      1.0000 0.43130  0.22760  0.40830  Biso   1.000  H
  H31      1.0000 0.60770  0.27160  0.63690  Biso   1.000  H
  H32      1.0000 0.43610  0.10890  0.65870  Biso   1.000  H
  C29      1.0000 0.25584  0.99710  0.91214  Biso   1.000  C
  C30      1.0000 0.24590  0.98810  0.83300  Biso   1.000  C
  C31      1.0000 0.32292  0.88800  0.80212  Biso   1.000  C
  C32      1.0000 0.41212  0.79520  0.85092  Biso   1.000  C
  C33      1.0000 0.42284  0.80510  0.93054  Biso   1.000  C
  C34      1.0000 0.34682  0.90500  0.96222  Biso   1.000  C
  C35      1.0000 0.14053  0.11520  0.00903  Biso   1.000  C
  C36      1.0000 0.83380  0.39270  0.97620  Biso   1.000  C
  C37      1.0000 0.93365  0.29490  0.95945  Biso   1.000  C
  C38      1.0000 0.03684  0.23100  0.01974  Biso   1.000  C
  C39      1.0000 0.03822  0.26870  0.09532  Biso   1.000  C
  C40      1.0000 0.93524  0.36660  0.10794  Biso   1.000  C
  C41      1.0000 0.30538  0.87920  0.71578  Biso   1.000  C
  C42      1.0000 0.51452  0.70690  0.98352  Biso   1.000  C
  C43      1.0000 0.75584  0.50290  0.41214  Biso   1.000  C
  C44      1.0000 0.74590  0.51190  0.33300  Biso   1.000  C
  C45      1.0000 0.82292  0.61200  0.30212  Biso   1.000  C
  C46      1.0000 0.91212  0.70480  0.35092  Biso   1.000  C
  C47      1.0000 0.92284  0.69490  0.43054  Biso   1.000  C
  C48      1.0000 0.84682  0.59500  0.46222  Biso   1.000  C
  C49      1.0000 0.64053  0.38480  0.50903  Biso   1.000  C
  C50      1.0000 0.33380  0.10730  0.47620  Biso   1.000  C
  C51      1.0000 0.43365  0.20510  0.45945  Biso   1.000  C
  C52      1.0000 0.53684  0.26900  0.51974  Biso   1.000  C
  C53      1.0000 0.53822  0.23130  0.59532  Biso   1.000  C
  C54      1.0000 0.43524  0.13340  0.60794  Biso   1.000  C
  C55      1.0000 0.80538  0.62080  0.21578  Biso   1.000  C
  C56      1.0000 0.01452  0.79310  0.48352  Biso   1.000  C
  N5       1.0000 0.17308  0.10160  0.93818  Biso   1.000  N
  N6       1.0000 0.83362  0.42780  0.04932  Biso   1.000  N
  N7       1.0000 0.67308  0.39840  0.43818  Biso   1.000  N
  N8       1.0000 0.33362  0.07220  0.54932  Biso   1.000  N
  O11      1.0000 0.18766  0.04090  0.06326  Biso   1.000  O
  O12      1.0000 0.20715  0.96250  0.67625  Biso   1.000  O
  O13      1.0000 0.38068  0.79740  0.68708  Biso   1.000  O
  O14      1.0000 0.58022  0.60920  0.95822  Biso   1.000  O
  O15      1.0000 0.52905  0.71530  0.05615  Biso   1.000  O
  O16      1.0000 0.68766  0.45910  0.56326  Biso   1.000  O
  O17      1.0000 0.70715  0.53750  0.17625  Biso   1.000  O
  O18      1.0000 0.88068  0.70260  0.18708  Biso   1.000  O
  O19      1.0000 0.08022  0.89080  0.45822  Biso   1.000  O
  O20      1.0000 0.02905  0.78470  0.55615  Biso   1.000  O
