data_image0
_cell_length_a       8.4048
_cell_length_b       10.2379
_cell_length_c       17.6671
_cell_angle_alpha    90
_cell_angle_beta     103.032
_cell_angle_gamma    90

_symmetry_space_group_name_H-M    P 1
_symmetry_int_tables_number       1

loop_
  _symmetry_equiv_pos_as_xyz
  'x, y, z'

loop_
  _atom_site_label
  _atom_site_occupancy
  _atom_site_fract_x
  _atom_site_fract_y
  _atom_site_fract_z
  _atom_site_thermal_displace_type
  _atom_site_B_iso_or_equiv
  _atom_site_type_symbol
  Cu1      1.0000 0.82629  0.55774  0.43204  Biso   1.000  Cu
  Cu2      1.0000 0.32629  0.94226  0.93204  Biso   1.000  Cu
  H1       1.0000 0.53690  0.77030  0.16960  Biso   1.000  H
  H2       1.0000 0.64560  0.58920  0.98480  Biso   1.000  H
  H3       1.0000 0.81420  0.44880  0.19980  Biso   1.000  H
  H4       1.0000 0.89420  0.27110  0.86370  Biso   1.000  H
  H5       1.0000 0.06340  0.10900  0.84180  Biso   1.000  H
  H6       1.0000 0.23550  0.06440  0.06450  Biso   1.000  H
  H7       1.0000 0.06930  0.22580  0.09210  Biso   1.000  H
  H8       1.0000 0.86490  0.33810  0.09610  Biso   1.000  H
  H9       1.0000 0.03690  0.72970  0.66960  Biso   1.000  H
  H10      1.0000 0.14560  0.91080  0.48480  Biso   1.000  H
  H11      1.0000 0.31420  0.05120  0.69980  Biso   1.000  H
  H12      1.0000 0.39420  0.22890  0.36370  Biso   1.000  H
  H13      1.0000 0.56340  0.39100  0.34180  Biso   1.000  H
  H14      1.0000 0.73550  0.43560  0.56450  Biso   1.000  H
  H15      1.0000 0.56930  0.27420  0.59210  Biso   1.000  H
  H16      1.0000 0.36490  0.16190  0.59610  Biso   1.000  H
  C1       1.0000 0.67750  0.61080  0.19760  Biso   1.000  C
  C2       1.0000 0.58870  0.70280  0.14930  Biso   1.000  C
  C3       1.0000 0.57700  0.69410  0.06970  Biso   1.000  C
  C4       1.0000 0.65440  0.59440  0.03810  Biso   1.000  C
  C5       1.0000 0.74550  0.50270  0.08820  Biso   1.000  C
  C6       1.0000 0.75480  0.51110  0.16670  Biso   1.000  C
  C7       1.0000 0.69470  0.61910  0.28390  Biso   1.000  C
  C8       1.0000 0.48620  0.79290  0.01660  Biso   1.000  C
  C9       1.0000 0.85920  0.38290  0.99120  Biso   1.000  C
  C10      1.0000 0.96420  0.26830  0.98110  Biso   1.000  C
  C11      1.0000 0.96370  0.23030  0.90540  Biso   1.000  C
  C12      1.0000 0.06500  0.13350  0.89260  Biso   1.000  C
  C13      1.0000 0.16600  0.10740  0.02370  Biso   1.000  C
  C14      1.0000 0.06680  0.20410  0.04070  Biso   1.000  C
  C15      1.0000 0.17750  0.88920  0.69760  Biso   1.000  C
  C16      1.0000 0.08870  0.79720  0.64930  Biso   1.000  C
  C17      1.0000 0.07700  0.80590  0.56970  Biso   1.000  C
  C18      1.0000 0.15440  0.90560  0.53810  Biso   1.000  C
  C19      1.0000 0.24550  0.99730  0.58820  Biso   1.000  C
  C20      1.0000 0.25480  0.98890  0.66670  Biso   1.000  C
  C21      1.0000 0.19470  0.88090  0.78390  Biso   1.000  C
  C22      1.0000 0.98620  0.70710  0.51660  Biso   1.000  C
  C23      1.0000 0.35920  0.11710  0.49120  Biso   1.000  C
  C24      1.0000 0.46420  0.23170  0.48110  Biso   1.000  C
  C25      1.0000 0.46370  0.26970  0.40540  Biso   1.000  C
  C26      1.0000 0.56500  0.36650  0.39260  Biso   1.000  C
  C27      1.0000 0.66600  0.39260  0.52370  Biso   1.000  C
  C28      1.0000 0.56680  0.29590  0.54070  Biso   1.000  C
  N1       1.0000 0.16710  0.07220  0.95100  Biso   1.000  N
  N2       1.0000 0.82920  0.39840  0.06270  Biso   1.000  N
  N3       1.0000 0.66710  0.42780  0.45100  Biso   1.000  N
  N4       1.0000 0.32920  0.10160  0.56270  Biso   1.000  N
  O1       1.0000 0.79312  0.53620  0.32362  Biso   1.000  O
  O2       1.0000 0.61890  0.70070  0.31250  Biso   1.000  O
  O3       1.0000 0.46968  0.78400  0.94418  Biso   1.000  O
  O4       1.0000 0.42092  0.89060  0.04172  Biso   1.000  O
  O5       1.0000 0.81035  0.45730  0.93745  Biso   1.000  O
  O6       1.0000 0.29312  0.96380  0.82362  Biso   1.000  O
  O7       1.0000 0.11890  0.79930  0.81250  Biso   1.000  O
  O8       1.0000 0.96968  0.71600  0.44418  Biso   1.000  O
  O9       1.0000 0.92092  0.60940  0.54172  Biso   1.000  O
  O10      1.0000 0.31035  0.04270  0.43745  Biso   1.000  O
  Cu3      1.0000 0.67371  0.05774  0.06796  Biso   1.000  Cu
  Cu4      1.0000 0.17371  0.44226  0.56796  Biso   1.000  Cu
  H17      1.0000 0.96310  0.27030  0.33040  Biso   1.000  H
  H18      1.0000 0.85440  0.08920  0.51520  Biso   1.000  H
  H19      1.0000 0.68580  0.94880  0.30020  Biso   1.000  H
  H20      1.0000 0.60580  0.77110  0.63630  Biso   1.000  H
  H21      1.0000 0.43660  0.60900  0.65820  Biso   1.000  H
  H22      1.0000 0.26450  0.56440  0.43550  Biso   1.000  H
  H23      1.0000 0.43070  0.72580  0.40790  Biso   1.000  H
  H24      1.0000 0.63510  0.83810  0.40390  Biso   1.000  H
  H25      1.0000 0.46310  0.22970  0.83040  Biso   1.000  H
  H26      1.0000 0.35440  0.41080  0.01520  Biso   1.000  H
  H27      1.0000 0.18580  0.55120  0.80020  Biso   1.000  H
  H28      1.0000 0.10580  0.72890  0.13630  Biso   1.000  H
  H29      1.0000 0.93660  0.89100  0.15820  Biso   1.000  H
  H30      1.0000 0.76450  0.93560  0.93550  Biso   1.000  H
  H31      1.0000 0.93070  0.77420  0.90790  Biso   1.000  H
  H32      1.0000 0.13510  0.66190  0.90390  Biso   1.000  H
  C29      1.0000 0.82250  0.11080  0.30240  Biso   1.000  C
  C30      1.0000 0.91130  0.20280  0.35070  Biso   1.000  C
  C31      1.0000 0.92300  0.19410  0.43030  Biso   1.000  C
  C32      1.0000 0.84560  0.09440  0.46190  Biso   1.000  C
  C33      1.0000 0.75450  0.00270  0.41180  Biso   1.000  C
  C34      1.0000 0.74520  0.01110  0.33330  Biso   1.000  C
  C35      1.0000 0.80530  0.11910  0.21610  Biso   1.000  C
  C36      1.0000 0.01380  0.29290  0.48340  Biso   1.000  C
  C37      1.0000 0.64080  0.88290  0.50880  Biso   1.000  C
  C38      1.0000 0.53580  0.76830  0.51890  Biso   1.000  C
  C39      1.0000 0.53630  0.73030  0.59460  Biso   1.000  C
  C40      1.0000 0.43500  0.63350  0.60740  Biso   1.000  C
  C41      1.0000 0.33400  0.60740  0.47630  Biso   1.000  C
  C42      1.0000 0.43320  0.70410  0.45930  Biso   1.000  C
  C43      1.0000 0.32250  0.38920  0.80240  Biso   1.000  C
  C44      1.0000 0.41130  0.29720  0.85070  Biso   1.000  C
  C45      1.0000 0.42300  0.30590  0.93030  Biso   1.000  C
  C46      1.0000 0.34560  0.40560  0.96190  Biso   1.000  C
  C47      1.0000 0.25450  0.49730  0.91180  Biso   1.000  C
  C48      1.0000 0.24520  0.48890  0.83330  Biso   1.000  C
  C49      1.0000 0.30530  0.38090  0.71610  Biso   1.000  C
  C50      1.0000 0.51380  0.20710  0.98340  Biso   1.000  C
  C51      1.0000 0.14080  0.61710  0.00880  Biso   1.000  C
  C52      1.0000 0.03580  0.73170  0.01890  Biso   1.000  C
  C53      1.0000 0.03630  0.76970  0.09460  Biso   1.000  C
  C54      1.0000 0.93500  0.86650  0.10740  Biso   1.000  C
  C55      1.0000 0.83400  0.89260  0.97630  Biso   1.000  C
  C56      1.0000 0.93320  0.79590  0.95930  Biso   1.000  C
  N5       1.0000 0.33290  0.57220  0.54900  Biso   1.000  N
  N6       1.0000 0.67080  0.89840  0.43730  Biso   1.000  N
  N7       1.0000 0.83290  0.92780  0.04900  Biso   1.000  N
  N8       1.0000 0.17080  0.60160  0.93730  Biso   1.000  N
  O11      1.0000 0.70688  0.03620  0.17638  Biso   1.000  O
  O12      1.0000 0.88110  0.20070  0.18750  Biso   1.000  O
  O13      1.0000 0.03032  0.28400  0.55582  Biso   1.000  O
  O14      1.0000 0.07908  0.39060  0.45828  Biso   1.000  O
  O15      1.0000 0.68965  0.95730  0.56255  Biso   1.000  O
  O16      1.0000 0.20688  0.46380  0.67638  Biso   1.000  O
  O17      1.0000 0.38110  0.29930  0.68750  Biso   1.000  O
  O18      1.0000 0.53032  0.21600  0.05582  Biso   1.000  O
  O19      1.0000 0.57908  0.10940  0.95828  Biso   1.000  O
  O20      1.0000 0.18965  0.54270  0.06255  Biso   1.000  O
