data_image0
_cell_length_a       8.4283
_cell_length_b       10.2553
_cell_length_c       17.712
_cell_angle_alpha    90
_cell_angle_beta     103.036
_cell_angle_gamma    90

_symmetry_space_group_name_H-M    P 1
_symmetry_int_tables_number       1

loop_
  _symmetry_equiv_pos_as_xyz
  'x, y, z'

loop_
  _atom_site_label
  _atom_site_occupancy
  _atom_site_fract_x
  _atom_site_fract_y
  _atom_site_fract_z
  _atom_site_thermal_displace_type
  _atom_site_B_iso_or_equiv
  _atom_site_type_symbol
  Cu1      1.0000 0.32605  0.44224  0.93208  Biso   1.000  Cu
  Cu2      1.0000 0.82605  0.05776  0.43208  Biso   1.000  Cu
  H1       1.0000 0.36300  0.66170  0.59560  Biso   1.000  H
  H2       1.0000 0.03340  0.23090  0.66920  Biso   1.000  H
  H3       1.0000 0.31490  0.55020  0.69980  Biso   1.000  H
  H4       1.0000 0.14190  0.41230  0.48520  Biso   1.000  H
  H5       1.0000 0.39440  0.72760  0.36350  Biso   1.000  H
  H6       1.0000 0.56460  0.89210  0.34200  Biso   1.000  H
  H7       1.0000 0.56870  0.77340  0.59150  Biso   1.000  H
  H8       1.0000 0.73390  0.93590  0.56510  Biso   1.000  H
  H9       1.0000 0.86300  0.83830  0.09560  Biso   1.000  H
  H10      1.0000 0.53340  0.26910  0.16920  Biso   1.000  H
  H11      1.0000 0.81490  0.94980  0.19980  Biso   1.000  H
  H12      1.0000 0.64190  0.08770  0.98520  Biso   1.000  H
  H13      1.0000 0.89440  0.77240  0.86350  Biso   1.000  H
  H14      1.0000 0.06460  0.60790  0.84200  Biso   1.000  H
  H15      1.0000 0.06870  0.72660  0.09150  Biso   1.000  H
  H16      1.0000 0.23390  0.56410  0.06510  Biso   1.000  H
  C1       1.0000 0.98530  0.20630  0.51640  Biso   1.000  C
  C2       1.0000 0.07800  0.30590  0.56970  Biso   1.000  C
  C3       1.0000 0.08720  0.29710  0.64920  Biso   1.000  C
  C4       1.0000 0.17830  0.38930  0.69760  Biso   1.000  C
  C5       1.0000 0.25510  0.48820  0.66690  Biso   1.000  C
  C6       1.0000 0.24480  0.49670  0.58780  Biso   1.000  C
  C7       1.0000 0.15300  0.40600  0.53850  Biso   1.000  C
  C8       1.0000 0.19370  0.38060  0.78340  Biso   1.000  C
  C9       1.0000 0.35900  0.61660  0.49140  Biso   1.000  C
  C10      1.0000 0.46310  0.73210  0.48090  Biso   1.000  C
  C11      1.0000 0.46300  0.76870  0.40510  Biso   1.000  C
  C12      1.0000 0.56620  0.86680  0.39260  Biso   1.000  C
  C13      1.0000 0.56620  0.79570  0.54030  Biso   1.000  C
  C14      1.0000 0.66590  0.89250  0.52420  Biso   1.000  C
  C15      1.0000 0.48530  0.29370  0.01640  Biso   1.000  C
  C16      1.0000 0.57800  0.19410  0.06970  Biso   1.000  C
  C17      1.0000 0.58720  0.20290  0.14920  Biso   1.000  C
  C18      1.0000 0.67830  0.11070  0.19760  Biso   1.000  C
  C19      1.0000 0.75510  0.01180  0.16690  Biso   1.000  C
  C20      1.0000 0.74480  0.00330  0.08780  Biso   1.000  C
  C21      1.0000 0.65300  0.09400  0.03850  Biso   1.000  C
  C22      1.0000 0.69370  0.11940  0.28340  Biso   1.000  C
  C23      1.0000 0.85900  0.88340  0.99140  Biso   1.000  C
  C24      1.0000 0.96310  0.76790  0.98090  Biso   1.000  C
  C25      1.0000 0.96300  0.73130  0.90510  Biso   1.000  C
  C26      1.0000 0.06620  0.63320  0.89260  Biso   1.000  C
  C27      1.0000 0.06620  0.70430  0.04030  Biso   1.000  C
  C28      1.0000 0.16590  0.60750  0.02420  Biso   1.000  C
  N1       1.0000 0.32820  0.60130  0.56240  Biso   1.000  N
  N2       1.0000 0.66870  0.92680  0.45110  Biso   1.000  N
  N3       1.0000 0.82820  0.89870  0.06240  Biso   1.000  N
  N4       1.0000 0.16870  0.57320  0.95110  Biso   1.000  N
  O1       1.0000 0.96960  0.21500  0.44430  Biso   1.000  O
  O2       1.0000 0.92060  0.10870  0.54150  Biso   1.000  O
  O3       1.0000 0.11900  0.29940  0.81260  Biso   1.000  O
  O4       1.0000 0.29290  0.46370  0.82360  Biso   1.000  O
  O5       1.0000 0.31060  0.54150  0.43790  Biso   1.000  O
  O6       1.0000 0.46960  0.28500  0.94430  Biso   1.000  O
  O7       1.0000 0.42060  0.39130  0.04150  Biso   1.000  O
  O8       1.0000 0.61900  0.20060  0.31260  Biso   1.000  O
  O9       1.0000 0.79290  0.03630  0.32360  Biso   1.000  O
  O10      1.0000 0.81060  0.95850  0.93790  Biso   1.000  O
  Cu3      1.0000 0.17395  0.94224  0.56792  Biso   1.000  Cu
  Cu4      1.0000 0.67395  0.55776  0.06792  Biso   1.000  Cu
  H17      1.0000 0.13700  0.16170  0.90440  Biso   1.000  H
  H18      1.0000 0.46660  0.73090  0.83080  Biso   1.000  H
  H19      1.0000 0.18510  0.05020  0.80020  Biso   1.000  H
  H20      1.0000 0.35810  0.91230  0.01480  Biso   1.000  H
  H21      1.0000 0.10560  0.22760  0.13650  Biso   1.000  H
  H22      1.0000 0.93540  0.39210  0.15800  Biso   1.000  H
  H23      1.0000 0.93130  0.27340  0.90850  Biso   1.000  H
  H24      1.0000 0.76610  0.43590  0.93490  Biso   1.000  H
  H25      1.0000 0.63700  0.33830  0.40440  Biso   1.000  H
  H26      1.0000 0.96660  0.76910  0.33080  Biso   1.000  H
  H27      1.0000 0.68510  0.44980  0.30020  Biso   1.000  H
  H28      1.0000 0.85810  0.58770  0.51480  Biso   1.000  H
  H29      1.0000 0.60560  0.27240  0.63650  Biso   1.000  H
  H30      1.0000 0.43540  0.10790  0.65800  Biso   1.000  H
  H31      1.0000 0.43130  0.22660  0.40850  Biso   1.000  H
  H32      1.0000 0.26610  0.06410  0.43490  Biso   1.000  H
  C29      1.0000 0.51470  0.70630  0.98360  Biso   1.000  C
  C30      1.0000 0.42200  0.80590  0.93030  Biso   1.000  C
  C31      1.0000 0.41280  0.79710  0.85080  Biso   1.000  C
  C32      1.0000 0.32170  0.88930  0.80240  Biso   1.000  C
  C33      1.0000 0.24490  0.98820  0.83310  Biso   1.000  C
  C34      1.0000 0.25520  0.99670  0.91220  Biso   1.000  C
  C35      1.0000 0.34700  0.90600  0.96150  Biso   1.000  C
  C36      1.0000 0.30630  0.88060  0.71660  Biso   1.000  C
  C37      1.0000 0.14100  0.11660  0.00860  Biso   1.000  C
  C38      1.0000 0.03690  0.23210  0.01910  Biso   1.000  C
  C39      1.0000 0.03700  0.26870  0.09490  Biso   1.000  C
  C40      1.0000 0.93380  0.36680  0.10740  Biso   1.000  C
  C41      1.0000 0.93380  0.29570  0.95970  Biso   1.000  C
  C42      1.0000 0.83410  0.39250  0.97580  Biso   1.000  C
  C43      1.0000 0.01470  0.79370  0.48360  Biso   1.000  C
  C44      1.0000 0.92200  0.69410  0.43030  Biso   1.000  C
  C45      1.0000 0.91280  0.70290  0.35080  Biso   1.000  C
  C46      1.0000 0.82170  0.61070  0.30240  Biso   1.000  C
  C47      1.0000 0.74490  0.51180  0.33310  Biso   1.000  C
  C48      1.0000 0.75520  0.50330  0.41220  Biso   1.000  C
  C49      1.0000 0.84700  0.59400  0.46150  Biso   1.000  C
  C50      1.0000 0.80630  0.61940  0.21660  Biso   1.000  C
  C51      1.0000 0.64100  0.38340  0.50860  Biso   1.000  C
  C52      1.0000 0.53690  0.26790  0.51910  Biso   1.000  C
  C53      1.0000 0.53700  0.23130  0.59490  Biso   1.000  C
  C54      1.0000 0.43380  0.13320  0.60740  Biso   1.000  C
  C55      1.0000 0.43380  0.20430  0.45970  Biso   1.000  C
  C56      1.0000 0.33410  0.10750  0.47580  Biso   1.000  C
  N5       1.0000 0.17180  0.10130  0.93760  Biso   1.000  N
  N6       1.0000 0.83130  0.42680  0.04890  Biso   1.000  N
  N7       1.0000 0.67180  0.39870  0.43760  Biso   1.000  N
  N8       1.0000 0.33130  0.07320  0.54890  Biso   1.000  N
  O11      1.0000 0.53040  0.71500  0.05570  Biso   1.000  O
  O12      1.0000 0.57940  0.60870  0.95850  Biso   1.000  O
  O13      1.0000 0.38100  0.79940  0.68740  Biso   1.000  O
  O14      1.0000 0.20710  0.96370  0.67640  Biso   1.000  O
  O15      1.0000 0.18940  0.04150  0.06210  Biso   1.000  O
  O16      1.0000 0.03040  0.78500  0.55570  Biso   1.000  O
  O17      1.0000 0.07940  0.89130  0.45850  Biso   1.000  O
  O18      1.0000 0.88100  0.70060  0.18740  Biso   1.000  O
  O19      1.0000 0.70710  0.53630  0.17640  Biso   1.000  O
  O20      1.0000 0.68940  0.45850  0.56210  Biso   1.000  O
