data_image0
_cell_length_a       18.1535
_cell_length_b       18.3033
_cell_length_c       25.2354
_cell_angle_alpha    90
_cell_angle_beta     90
_cell_angle_gamma    90

_symmetry_space_group_name_H-M    P 1
_symmetry_int_tables_number       1

loop_
  _symmetry_equiv_pos_as_xyz
  'x, y, z'

loop_
  _atom_site_label
  _atom_site_occupancy
  _atom_site_fract_x
  _atom_site_fract_y
  _atom_site_fract_z
  _atom_site_thermal_displace_type
  _atom_site_B_iso_or_equiv
  _atom_site_type_symbol
  Cd1      1.0000 0.21458  0.21850  0.57052  Biso   1.000  Cd
  Cd2      1.0000 0.28542  0.78150  0.07052  Biso   1.000  Cd
  H1       1.0000 0.36690  0.31700  0.58130  Biso   1.000  H
  H2       1.0000 0.39320  0.44380  0.54590  Biso   1.000  H
  H3       1.0000 0.18610  0.38900  0.52290  Biso   1.000  H
  H4       1.0000 0.12030  0.81270  0.13130  Biso   1.000  H
  H5       1.0000 0.08500  0.79860  0.22470  Biso   1.000  H
  H6       1.0000 0.30060  0.75980  0.20490  Biso   1.000  H
  H7       1.0000 0.13360  0.09040  0.65930  Biso   1.000  H
  H8       1.0000 0.14500  0.95680  0.64780  Biso   1.000  H
  H9       1.0000 0.20800  0.05200  0.51790  Biso   1.000  H
  H10      1.0000 0.34220  0.56710  0.55680  Biso   1.000  H
  H11      1.0000 0.31660  0.68390  0.52560  Biso   1.000  H
  H12      1.0000 0.15850  0.60800  0.43040  Biso   1.000  H
  H13      1.0000 0.18900  0.48680  0.45670  Biso   1.000  H
  H14      1.0000 0.13630  0.81220  0.40430  Biso   1.000  H
  H15      1.0000 0.12730  0.83650  0.31560  Biso   1.000  H
  H16      1.0000 0.28300  0.68510  0.28560  Biso   1.000  H
  H17      1.0000 0.30090  0.67230  0.37890  Biso   1.000  H
  H18      1.0000 0.15490  0.74340  0.54580  Biso   1.000  H
  H19      1.0000 0.13290  0.84870  0.59130  Biso   1.000  H
  H20      1.0000 0.27230  0.95800  0.49630  Biso   1.000  H
  H21      1.0000 0.27520  0.85770  0.44090  Biso   1.000  H
  H22      1.0000 0.13310  0.68300  0.08130  Biso   1.000  H
  H23      1.0000 0.10680  0.55620  0.04590  Biso   1.000  H
  H24      1.0000 0.31390  0.61100  0.02290  Biso   1.000  H
  H25      1.0000 0.37970  0.18730  0.63130  Biso   1.000  H
  H26      1.0000 0.41500  0.20140  0.72470  Biso   1.000  H
  H27      1.0000 0.19940  0.24020  0.70490  Biso   1.000  H
  H28      1.0000 0.36640  0.90960  0.15930  Biso   1.000  H
  H29      1.0000 0.35500  0.04320  0.14780  Biso   1.000  H
  H30      1.0000 0.29200  0.94800  0.01790  Biso   1.000  H
  H31      1.0000 0.15780  0.43290  0.05680  Biso   1.000  H
  H32      1.0000 0.18340  0.31610  0.02560  Biso   1.000  H
  H33      1.0000 0.34150  0.39200  0.93040  Biso   1.000  H
  H34      1.0000 0.31100  0.51320  0.95670  Biso   1.000  H
  H35      1.0000 0.36370  0.18780  0.90430  Biso   1.000  H
  H36      1.0000 0.37270  0.16350  0.81560  Biso   1.000  H
  H37      1.0000 0.21700  0.31490  0.78560  Biso   1.000  H
  H38      1.0000 0.19910  0.32770  0.87890  Biso   1.000  H
  H39      1.0000 0.34510  0.25660  0.04580  Biso   1.000  H
  H40      1.0000 0.36710  0.15130  0.09130  Biso   1.000  H
  H41      1.0000 0.22770  0.04200  0.99630  Biso   1.000  H
  H42      1.0000 0.22480  0.14230  0.94090  Biso   1.000  H
  H43      1.0000 0.00260  0.82110  0.83110  Biso   1.000  H
  H44      1.0000 0.20660  0.83610  0.88970  Biso   1.000  H
  H45      1.0000 0.03810  0.78740  0.98550  Biso   1.000  H
  H46      1.0000 0.18670  0.85930  0.80390  Biso   1.000  H
  H47      1.0000 0.49740  0.17890  0.33110  Biso   1.000  H
  H48      1.0000 0.29340  0.16390  0.38970  Biso   1.000  H
  H49      1.0000 0.46190  0.21260  0.48550  Biso   1.000  H
  H50      1.0000 0.31330  0.14070  0.30390  Biso   1.000  H
  C1       1.0000 0.33370  0.34760  0.56420  Biso   1.000  C
  C2       1.0000 0.34820  0.41950  0.54630  Biso   1.000  C
  C3       1.0000 0.23520  0.38800  0.53341  Biso   1.000  C
  C4       1.0000 0.15240  0.79980  0.15849  Biso   1.000  C
  C5       1.0000 0.13160  0.79270  0.21000  Biso   1.000  C
  C6       1.0000 0.25140  0.77110  0.19844  Biso   1.000  C
  C7       1.0000 0.15220  0.06750  0.62930  Biso   1.000  C
  C8       1.0000 0.15710  0.99240  0.62297  Biso   1.000  C
  C9       1.0000 0.19260  0.04590  0.55275  Biso   1.000  C
  C10      1.0000 0.26670  0.51820  0.51143  Biso   1.000  C
  C11      1.0000 0.30600  0.57460  0.53130  Biso   1.000  C
  C12      1.0000 0.29050  0.64410  0.51238  Biso   1.000  C
  C13      1.0000 0.23740  0.65530  0.47465  Biso   1.000  C
  C14      1.0000 0.19620  0.59920  0.45448  Biso   1.000  C
  C15      1.0000 0.21280  0.52690  0.47140  Biso   1.000  C
  C16      1.0000 0.21670  0.73850  0.40050  Biso   1.000  C
  C17      1.0000 0.16710  0.78760  0.38082  Biso   1.000  C
  C18      1.0000 0.16110  0.80210  0.32753  Biso   1.000  C
  C19      1.0000 0.20690  0.76440  0.29034  Biso   1.000  C
  C20      1.0000 0.25560  0.71310  0.30920  Biso   1.000  C
  C21      1.0000 0.26410  0.70270  0.36590  Biso   1.000  C
  C22      1.0000 0.21720  0.78880  0.48913  Biso   1.000  C
  C23      1.0000 0.17530  0.78720  0.53419  Biso   1.000  C
  C24      1.0000 0.16370  0.84970  0.56184  Biso   1.000  C
  C25      1.0000 0.19660  0.91530  0.54723  Biso   1.000  C
  C26      1.0000 0.24470  0.91660  0.50386  Biso   1.000  C
  C27      1.0000 0.24990  0.85540  0.47290  Biso   1.000  C
  C28      1.0000 0.16630  0.65240  0.06420  Biso   1.000  C
  C29      1.0000 0.15180  0.58050  0.04630  Biso   1.000  C
  C30      1.0000 0.26480  0.61200  0.03341  Biso   1.000  C
  C31      1.0000 0.34760  0.20020  0.65849  Biso   1.000  C
  C32      1.0000 0.36840  0.20730  0.71000  Biso   1.000  C
  C33      1.0000 0.24860  0.22890  0.69844  Biso   1.000  C
  C34      1.0000 0.34780  0.93250  0.12930  Biso   1.000  C
  C35      1.0000 0.34290  0.00760  0.12297  Biso   1.000  C
  C36      1.0000 0.30740  0.95410  0.05275  Biso   1.000  C
  C37      1.0000 0.23330  0.48180  0.01143  Biso   1.000  C
  C38      1.0000 0.19400  0.42540  0.03130  Biso   1.000  C
  C39      1.0000 0.20950  0.35590  0.01238  Biso   1.000  C
  C40      1.0000 0.26260  0.34470  0.97465  Biso   1.000  C
  C41      1.0000 0.30380  0.40080  0.95448  Biso   1.000  C
  C42      1.0000 0.28720  0.47310  0.97140  Biso   1.000  C
  C43      1.0000 0.28330  0.26150  0.90050  Biso   1.000  C
  C44      1.0000 0.33290  0.21240  0.88082  Biso   1.000  C
  C45      1.0000 0.33890  0.19790  0.82753  Biso   1.000  C
  C46      1.0000 0.29310  0.23560  0.79034  Biso   1.000  C
  C47      1.0000 0.24440  0.28690  0.80920  Biso   1.000  C
  C48      1.0000 0.23590  0.29730  0.86590  Biso   1.000  C
  C49      1.0000 0.28280  0.21120  0.98913  Biso   1.000  C
  C50      1.0000 0.32470  0.21280  0.03419  Biso   1.000  C
  C51      1.0000 0.33630  0.15030  0.06184  Biso   1.000  C
  C52      1.0000 0.30340  0.08470  0.04723  Biso   1.000  C
  C53      1.0000 0.25530  0.08340  0.00386  Biso   1.000  C
  C54      1.0000 0.25010  0.14460  0.97290  Biso   1.000  C
  C55      1.0000 0.92970  0.77370  0.91528  Biso   1.000  C
  C56      1.0000 0.00840  0.79490  0.90847  Biso   1.000  C
  C57      1.0000 0.03450  0.81770  0.85979  Biso   1.000  C
  C58      1.0000 0.10500  0.83460  0.85395  Biso   1.000  C
  C59      1.0000 0.15650  0.82960  0.89568  Biso   1.000  C
  C60      1.0000 0.13000  0.81500  0.94524  Biso   1.000  C
  C61      1.0000 0.05600  0.79750  0.95180  Biso   1.000  C
  C62      1.0000 0.18110  0.81770  0.99183  Biso   1.000  C
  C63      1.0000 0.57030  0.22630  0.41528  Biso   1.000  C
  C64      1.0000 0.49160  0.20510  0.40847  Biso   1.000  C
  C65      1.0000 0.46550  0.18230  0.35979  Biso   1.000  C
  C66      1.0000 0.39500  0.16540  0.35395  Biso   1.000  C
  C67      1.0000 0.34350  0.17040  0.39568  Biso   1.000  C
  C68      1.0000 0.37000  0.18500  0.44524  Biso   1.000  C
  C69      1.0000 0.44400  0.20250  0.45180  Biso   1.000  C
  C70      1.0000 0.31890  0.18230  0.49183  Biso   1.000  C
  N1       1.0000 0.26710  0.33230  0.55277  Biso   1.000  N
  N2       1.0000 0.28120  0.44510  0.52990  Biso   1.000  N
  N3       1.0000 0.22220  0.73110  0.45500  Biso   1.000  N
  N4       1.0000 0.22370  0.78640  0.15147  Biso   1.000  N
  N5       1.0000 0.19840  0.77410  0.23573  Biso   1.000  N
  N6       1.0000 0.17790  0.10320  0.58637  Biso   1.000  N
  N7       1.0000 0.18250  0.98167  0.57484  Biso   1.000  N
  N8       1.0000 0.23290  0.66770  0.05277  Biso   1.000  N
  N9       1.0000 0.21880  0.55490  0.02990  Biso   1.000  N
  N10      1.0000 0.27780  0.26890  0.95500  Biso   1.000  N
  N11      1.0000 0.27630  0.21360  0.65147  Biso   1.000  N
  N12      1.0000 0.30160  0.22590  0.73573  Biso   1.000  N
  N13      1.0000 0.32210  0.89680  0.08637  Biso   1.000  N
  N14      1.0000 0.31750  0.01833  0.07484  Biso   1.000  N
  O1       1.0000 0.89145  0.76290  0.87575  Biso   1.000  O
  O2       1.0000 0.90331  0.76268  0.95998  Biso   1.000  O
  O3       1.0000 0.15454  0.82041  0.03646  Biso   1.000  O
  O4       1.0000 0.25054  0.80842  0.98103  Biso   1.000  O
  O5       1.0000 0.13510  0.84840  0.80136  Biso   1.000  O
  O6       1.0000 0.60855  0.23710  0.37575  Biso   1.000  O
  O7       1.0000 0.59669  0.23732  0.45998  Biso   1.000  O
  O8       1.0000 0.34546  0.17959  0.53646  Biso   1.000  O
  O9       1.0000 0.24946  0.19158  0.48103  Biso   1.000  O
  O10      1.0000 0.36490  0.15160  0.30136  Biso   1.000  O
  Cd3      1.0000 0.78542  0.71850  0.92948  Biso   1.000  Cd
  Cd4      1.0000 0.71458  0.28150  0.42948  Biso   1.000  Cd
  H51      1.0000 0.99740  0.32110  0.66890  Biso   1.000  H
  H52      1.0000 0.79340  0.33610  0.61030  Biso   1.000  H
  H53      1.0000 0.96190  0.28740  0.51450  Biso   1.000  H
  H54      1.0000 0.81330  0.35930  0.69610  Biso   1.000  H
  H55      1.0000 0.50260  0.67890  0.16890  Biso   1.000  H
  H56      1.0000 0.70660  0.66390  0.11030  Biso   1.000  H
  H57      1.0000 0.53810  0.71260  0.01450  Biso   1.000  H
  H58      1.0000 0.68670  0.64070  0.19610  Biso   1.000  H
  H59      1.0000 0.63310  0.81700  0.91870  Biso   1.000  H
  H60      1.0000 0.60680  0.94380  0.95410  Biso   1.000  H
  H61      1.0000 0.81390  0.88900  0.97710  Biso   1.000  H
  H62      1.0000 0.87970  0.31270  0.36870  Biso   1.000  H
  H63      1.0000 0.91500  0.29860  0.27530  Biso   1.000  H
  H64      1.0000 0.69940  0.25980  0.29510  Biso   1.000  H
  H65      1.0000 0.86640  0.59040  0.84070  Biso   1.000  H
  H66      1.0000 0.85500  0.45680  0.85220  Biso   1.000  H
  H67      1.0000 0.79200  0.55200  0.98210  Biso   1.000  H
  H68      1.0000 0.65780  0.06710  0.94320  Biso   1.000  H
  H69      1.0000 0.68340  0.18390  0.97440  Biso   1.000  H
  H70      1.0000 0.84150  0.10800  0.06960  Biso   1.000  H
  H71      1.0000 0.81100  0.98680  0.04330  Biso   1.000  H
  H72      1.0000 0.86370  0.31220  0.09570  Biso   1.000  H
  H73      1.0000 0.87270  0.33650  0.18440  Biso   1.000  H
  H74      1.0000 0.71700  0.18510  0.21440  Biso   1.000  H
  H75      1.0000 0.69910  0.17230  0.12110  Biso   1.000  H
  H76      1.0000 0.84510  0.24340  0.95420  Biso   1.000  H
  H77      1.0000 0.86710  0.34870  0.90870  Biso   1.000  H
  H78      1.0000 0.72770  0.45800  0.00370  Biso   1.000  H
  H79      1.0000 0.72480  0.35770  0.05910  Biso   1.000  H
  H80      1.0000 0.86690  0.18300  0.41870  Biso   1.000  H
  H81      1.0000 0.89320  0.05620  0.45410  Biso   1.000  H
  H82      1.0000 0.68610  0.11100  0.47710  Biso   1.000  H
  H83      1.0000 0.62030  0.68730  0.86870  Biso   1.000  H
  H84      1.0000 0.58500  0.70140  0.77530  Biso   1.000  H
  H85      1.0000 0.80060  0.74020  0.79510  Biso   1.000  H
  H86      1.0000 0.63360  0.40960  0.34070  Biso   1.000  H
  H87      1.0000 0.64500  0.54320  0.35220  Biso   1.000  H
  H88      1.0000 0.70800  0.44800  0.48210  Biso   1.000  H
  H89      1.0000 0.84220  0.93290  0.44320  Biso   1.000  H
  H90      1.0000 0.81660  0.81610  0.47440  Biso   1.000  H
  H91      1.0000 0.65850  0.89200  0.56960  Biso   1.000  H
  H92      1.0000 0.68900  0.01320  0.54330  Biso   1.000  H
  H93      1.0000 0.63630  0.68780  0.59570  Biso   1.000  H
  H94      1.0000 0.62730  0.66350  0.68440  Biso   1.000  H
  H95      1.0000 0.78300  0.81490  0.71440  Biso   1.000  H
  H96      1.0000 0.80090  0.82770  0.62110  Biso   1.000  H
  H97      1.0000 0.65490  0.75660  0.45420  Biso   1.000  H
  H98      1.0000 0.63290  0.65130  0.40870  Biso   1.000  H
  H99      1.0000 0.77230  0.54200  0.50370  Biso   1.000  H
  H100     1.0000 0.77520  0.64230  0.55910  Biso   1.000  H
  C71      1.0000 0.07030  0.27370  0.58472  Biso   1.000  C
  C72      1.0000 0.99160  0.29490  0.59153  Biso   1.000  C
  C73      1.0000 0.96550  0.31770  0.64021  Biso   1.000  C
  C74      1.0000 0.89500  0.33460  0.64605  Biso   1.000  C
  C75      1.0000 0.84350  0.32960  0.60432  Biso   1.000  C
  C76      1.0000 0.87000  0.31500  0.55476  Biso   1.000  C
  C77      1.0000 0.94400  0.29750  0.54820  Biso   1.000  C
  C78      1.0000 0.81890  0.31770  0.50817  Biso   1.000  C
  C79      1.0000 0.42970  0.72630  0.08472  Biso   1.000  C
  C80      1.0000 0.50840  0.70510  0.09153  Biso   1.000  C
  C81      1.0000 0.53450  0.68230  0.14021  Biso   1.000  C
  C82      1.0000 0.60500  0.66540  0.14605  Biso   1.000  C
  C83      1.0000 0.65650  0.67040  0.10432  Biso   1.000  C
  C84      1.0000 0.63000  0.68500  0.05476  Biso   1.000  C
  C85      1.0000 0.55600  0.70250  0.04820  Biso   1.000  C
  C86      1.0000 0.68110  0.68230  0.00817  Biso   1.000  C
  C87      1.0000 0.66630  0.84760  0.93580  Biso   1.000  C
  C88      1.0000 0.65180  0.91950  0.95370  Biso   1.000  C
  C89      1.0000 0.76480  0.88800  0.96659  Biso   1.000  C
  C90      1.0000 0.84760  0.29980  0.34151  Biso   1.000  C
  C91      1.0000 0.86840  0.29270  0.29000  Biso   1.000  C
  C92      1.0000 0.74860  0.27110  0.30156  Biso   1.000  C
  C93      1.0000 0.84780  0.56750  0.87070  Biso   1.000  C
  C94      1.0000 0.84290  0.49240  0.87703  Biso   1.000  C
  C95      1.0000 0.80740  0.54590  0.94725  Biso   1.000  C
  C96      1.0000 0.73330  0.01820  0.98857  Biso   1.000  C
  C97      1.0000 0.69400  0.07460  0.96870  Biso   1.000  C
  C98      1.0000 0.70950  0.14410  0.98762  Biso   1.000  C
  C99      1.0000 0.76260  0.15530  0.02535  Biso   1.000  C
  C100     1.0000 0.80380  0.09920  0.04552  Biso   1.000  C
  C101     1.0000 0.78720  0.02690  0.02860  Biso   1.000  C
  C102     1.0000 0.78330  0.23850  0.09950  Biso   1.000  C
  C103     1.0000 0.83290  0.28760  0.11918  Biso   1.000  C
  C104     1.0000 0.83890  0.30210  0.17247  Biso   1.000  C
  C105     1.0000 0.79310  0.26440  0.20966  Biso   1.000  C
  C106     1.0000 0.74440  0.21310  0.19080  Biso   1.000  C
  C107     1.0000 0.73590  0.20270  0.13410  Biso   1.000  C
  C108     1.0000 0.78280  0.28880  0.01087  Biso   1.000  C
  C109     1.0000 0.82470  0.28720  0.96581  Biso   1.000  C
  C110     1.0000 0.83630  0.34970  0.93816  Biso   1.000  C
  C111     1.0000 0.80340  0.41530  0.95277  Biso   1.000  C
  C112     1.0000 0.75530  0.41660  0.99614  Biso   1.000  C
  C113     1.0000 0.75010  0.35540  0.02710  Biso   1.000  C
  C114     1.0000 0.83370  0.15240  0.43580  Biso   1.000  C
  C115     1.0000 0.84820  0.08050  0.45370  Biso   1.000  C
  C116     1.0000 0.73520  0.11200  0.46659  Biso   1.000  C
  C117     1.0000 0.65240  0.70020  0.84151  Biso   1.000  C
  C118     1.0000 0.63160  0.70730  0.79000  Biso   1.000  C
  C119     1.0000 0.75140  0.72890  0.80156  Biso   1.000  C
  C120     1.0000 0.65220  0.43250  0.37070  Biso   1.000  C
  C121     1.0000 0.65710  0.50760  0.37703  Biso   1.000  C
  C122     1.0000 0.69260  0.45410  0.44725  Biso   1.000  C
  C123     1.0000 0.76670  0.98180  0.48857  Biso   1.000  C
  C124     1.0000 0.80600  0.92540  0.46870  Biso   1.000  C
  C125     1.0000 0.79050  0.85590  0.48762  Biso   1.000  C
  C126     1.0000 0.73740  0.84470  0.52535  Biso   1.000  C
  C127     1.0000 0.69620  0.90080  0.54552  Biso   1.000  C
  C128     1.0000 0.71280  0.97310  0.52860  Biso   1.000  C
  C129     1.0000 0.71670  0.76150  0.59950  Biso   1.000  C
  C130     1.0000 0.66710  0.71240  0.61918  Biso   1.000  C
  C131     1.0000 0.66110  0.69790  0.67247  Biso   1.000  C
  C132     1.0000 0.70690  0.73560  0.70966  Biso   1.000  C
  C133     1.0000 0.75560  0.78690  0.69080  Biso   1.000  C
  C134     1.0000 0.76410  0.79730  0.63410  Biso   1.000  C
  C135     1.0000 0.71720  0.71120  0.51087  Biso   1.000  C
  C136     1.0000 0.67530  0.71280  0.46581  Biso   1.000  C
  C137     1.0000 0.66370  0.65030  0.43816  Biso   1.000  C
  C138     1.0000 0.69660  0.58470  0.45277  Biso   1.000  C
  C139     1.0000 0.74470  0.58340  0.49614  Biso   1.000  C
  C140     1.0000 0.74990  0.64460  0.52710  Biso   1.000  C
  N15      1.0000 0.73290  0.83230  0.94723  Biso   1.000  N
  N16      1.0000 0.71880  0.94510  0.97010  Biso   1.000  N
  N17      1.0000 0.77780  0.23110  0.04500  Biso   1.000  N
  N18      1.0000 0.77630  0.28640  0.34853  Biso   1.000  N
  N19      1.0000 0.80160  0.27410  0.26427  Biso   1.000  N
  N20      1.0000 0.82210  0.60320  0.91363  Biso   1.000  N
  N21      1.0000 0.81750  0.48167  0.92516  Biso   1.000  N
  N22      1.0000 0.76710  0.16770  0.44723  Biso   1.000  N
  N23      1.0000 0.78120  0.05490  0.47010  Biso   1.000  N
  N24      1.0000 0.72220  0.76890  0.54500  Biso   1.000  N
  N25      1.0000 0.72370  0.71360  0.84853  Biso   1.000  N
  N26      1.0000 0.69840  0.72590  0.76427  Biso   1.000  N
  N27      1.0000 0.67790  0.39680  0.41363  Biso   1.000  N
  N28      1.0000 0.68250  0.51833  0.42516  Biso   1.000  N
  O11      1.0000 0.10855  0.26290  0.62425  Biso   1.000  O
  O12      1.0000 0.09669  0.26268  0.54002  Biso   1.000  O
  O13      1.0000 0.84546  0.32041  0.46354  Biso   1.000  O
  O14      1.0000 0.74946  0.30842  0.51897  Biso   1.000  O
  O15      1.0000 0.86490  0.34840  0.69864  Biso   1.000  O
  O16      1.0000 0.39145  0.73710  0.12425  Biso   1.000  O
  O17      1.0000 0.40331  0.73732  0.04002  Biso   1.000  O
  O18      1.0000 0.65454  0.67959  0.96354  Biso   1.000  O
  O19      1.0000 0.75054  0.69158  0.01897  Biso   1.000  O
  O20      1.0000 0.63510  0.65160  0.19864  Biso   1.000  O
  Cd5      1.0000 0.48868  0.49708  0.68825  Biso   1.000  Cd
  Cd6      1.0000 0.98868  0.00292  0.31175  Biso   1.000  Cd
  H101     1.0000 0.32480  0.56340  0.65260  Biso   1.000  H
  H102     1.0000 0.35570  0.36490  0.70590  Biso   1.000  H
  H103     1.0000 0.22180  0.37700  0.68260  Biso   1.000  H
  H104     1.0000 0.02950  0.01570  0.44180  Biso   1.000  H
  H105     1.0000 0.03080  0.92530  0.51620  Biso   1.000  H
  H106     1.0000 0.96900  0.83230  0.38130  Biso   1.000  H
  H107     1.0000 0.65520  0.51710  0.63630  Biso   1.000  H
  H108     1.0000 0.61960  0.52810  0.78890  Biso   1.000  H
  H109     1.0000 0.75310  0.54340  0.77550  Biso   1.000  H
  H110     1.0000 0.12920  0.41790  0.63560  Biso   1.000  H
  H111     1.0000 0.02140  0.46310  0.60220  Biso   1.000  H
  H112     1.0000 0.10680  0.66290  0.60120  Biso   1.000  H
  H113     1.0000 0.21360  0.61950  0.63860  Biso   1.000  H
  H114     1.0000 0.94730  0.63770  0.67070  Biso   1.000  H
  H115     1.0000 0.84240  0.61110  0.72380  Biso   1.000  H
  H116     1.0000 0.76870  0.48570  0.60240  Biso   1.000  H
  H117     1.0000 0.87780  0.50750  0.55730  Biso   1.000  H
  H118     1.0000 0.03240  0.61530  0.48700  Biso   1.000  H
  H119     1.0000 0.03360  0.71640  0.42760  Biso   1.000  H
  H120     1.0000 0.93540  0.82990  0.54710  Biso   1.000  H
  H121     1.0000 0.93580  0.72690  0.60060  Biso   1.000  H
  H122     1.0000 0.82480  0.93660  0.34740  Biso   1.000  H
  H123     1.0000 0.85570  0.13510  0.29410  Biso   1.000  H
  H124     1.0000 0.72180  0.12300  0.31740  Biso   1.000  H
  H125     1.0000 0.52950  0.48430  0.55820  Biso   1.000  H
  H126     1.0000 0.53080  0.57470  0.48380  Biso   1.000  H
  H127     1.0000 0.46900  0.66770  0.61870  Biso   1.000  H
  H128     1.0000 0.15520  0.98290  0.36370  Biso   1.000  H
  H129     1.0000 0.11960  0.97190  0.21110  Biso   1.000  H
  H130     1.0000 0.25310  0.95660  0.22450  Biso   1.000  H
  H131     1.0000 0.62920  0.08210  0.36440  Biso   1.000  H
  H132     1.0000 0.52140  0.03690  0.39780  Biso   1.000  H
  H133     1.0000 0.60680  0.83710  0.39880  Biso   1.000  H
  H134     1.0000 0.71360  0.88050  0.36140  Biso   1.000  H
  H135     1.0000 0.44730  0.86230  0.32930  Biso   1.000  H
  H136     1.0000 0.34240  0.88890  0.27620  Biso   1.000  H
  H137     1.0000 0.26870  0.01430  0.39760  Biso   1.000  H
  H138     1.0000 0.37780  0.99250  0.44270  Biso   1.000  H
  H139     1.0000 0.53240  0.88470  0.51300  Biso   1.000  H
  H140     1.0000 0.53360  0.78360  0.57240  Biso   1.000  H
  H141     1.0000 0.43540  0.67010  0.45290  Biso   1.000  H
  H142     1.0000 0.43580  0.77310  0.39940  Biso   1.000  H
  C141     1.0000 0.31600  0.51560  0.66346  Biso   1.000  C
  C142     1.0000 0.33240  0.40640  0.69270  Biso   1.000  C
  C143     1.0000 0.25800  0.41270  0.67950  Biso   1.000  C
  C144     1.0000 0.01760  0.96650  0.43874  Biso   1.000  C
  C145     1.0000 0.01790  0.91750  0.48102  Biso   1.000  C
  C146     1.0000 0.98420  0.86730  0.40565  Biso   1.000  C
  C147     1.0000 0.66260  0.51960  0.67273  Biso   1.000  C
  C148     1.0000 0.64380  0.52600  0.75650  Biso   1.000  C
  C149     1.0000 0.71790  0.53550  0.74939  Biso   1.000  C
  C150     1.0000 0.18360  0.51240  0.64214  Biso   1.000  C
  C151     1.0000 0.12510  0.46780  0.62967  Biso   1.000  C
  C152     1.0000 0.06030  0.49500  0.60860  Biso   1.000  C
  C153     1.0000 0.05210  0.56680  0.59710  Biso   1.000  C
  C154     1.0000 0.11110  0.61330  0.60860  Biso   1.000  C
  C155     1.0000 0.17540  0.58730  0.63093  Biso   1.000  C
  C156     1.0000 0.91850  0.57690  0.60983  Biso   1.000  C
  C157     1.0000 0.91100  0.60660  0.65800  Biso   1.000  C
  C158     1.0000 0.84790  0.59140  0.69010  Biso   1.000  C
  C159     1.0000 0.79670  0.54650  0.66853  Biso   1.000  C
  C160     1.0000 0.80520  0.51510  0.61696  Biso   1.000  C
  C161     1.0000 0.86900  0.53000  0.58969  Biso   1.000  C
  C162     1.0000 0.98320  0.66040  0.54904  Biso   1.000  C
  C163     1.0000 0.01260  0.65940  0.49851  Biso   1.000  C
  C164     1.0000 0.01560  0.71940  0.46200  Biso   1.000  C
  C165     1.0000 0.98690  0.78530  0.48619  Biso   1.000  C
  C166     1.0000 0.95630  0.78680  0.53467  Biso   1.000  C
  C167     1.0000 0.95560  0.72430  0.56660  Biso   1.000  C
  C168     1.0000 0.81600  0.98440  0.33654  Biso   1.000  C
  C169     1.0000 0.83240  0.09360  0.30730  Biso   1.000  C
  C170     1.0000 0.75800  0.08730  0.32050  Biso   1.000  C
  C171     1.0000 0.51760  0.53350  0.56126  Biso   1.000  C
  C172     1.0000 0.51790  0.58250  0.51898  Biso   1.000  C
  C173     1.0000 0.48420  0.63270  0.59435  Biso   1.000  C
  C174     1.0000 0.16260  0.98040  0.32727  Biso   1.000  C
  C175     1.0000 0.14380  0.97400  0.24350  Biso   1.000  C
  C176     1.0000 0.21790  0.96450  0.25061  Biso   1.000  C
  C177     1.0000 0.68360  0.98760  0.35786  Biso   1.000  C
  C178     1.0000 0.62510  0.03220  0.37033  Biso   1.000  C
  C179     1.0000 0.56030  0.00500  0.39140  Biso   1.000  C
  C180     1.0000 0.55210  0.93320  0.40290  Biso   1.000  C
  C181     1.0000 0.61110  0.88670  0.39140  Biso   1.000  C
  C182     1.0000 0.67540  0.91270  0.36907  Biso   1.000  C
  C183     1.0000 0.41850  0.92310  0.39017  Biso   1.000  C
  C184     1.0000 0.41100  0.89340  0.34200  Biso   1.000  C
  C185     1.0000 0.34790  0.90860  0.30990  Biso   1.000  C
  C186     1.0000 0.29670  0.95350  0.33147  Biso   1.000  C
  C187     1.0000 0.30520  0.98490  0.38304  Biso   1.000  C
  C188     1.0000 0.36900  0.97000  0.41031  Biso   1.000  C
  C189     1.0000 0.48320  0.83960  0.45096  Biso   1.000  C
  C190     1.0000 0.51260  0.84060  0.50149  Biso   1.000  C
  C191     1.0000 0.51560  0.78060  0.53800  Biso   1.000  C
  C192     1.0000 0.48690  0.71470  0.51381  Biso   1.000  C
  C193     1.0000 0.45630  0.71320  0.46533  Biso   1.000  C
  C194     1.0000 0.45560  0.77570  0.43340  Biso   1.000  C
  N29      1.0000 0.36540  0.47340  0.68243  Biso   1.000  N
  N30      1.0000 0.24930  0.48270  0.66105  Biso   1.000  N
  N31      1.0000 0.98420  0.59630  0.57902  Biso   1.000  N
  N32      1.0000 0.99860  0.93510  0.39420  Biso   1.000  N
  N33      1.0000 0.99440  0.85530  0.45711  Biso   1.000  N
  N34      1.0000 0.60980  0.51260  0.70789  Biso   1.000  N
  N35      1.0000 0.72940  0.53080  0.69569  Biso   1.000  N
  N36      1.0000 0.86540  0.02660  0.31757  Biso   1.000  N
  N37      1.0000 0.74930  0.01730  0.33895  Biso   1.000  N
  N38      1.0000 0.48420  0.90370  0.42098  Biso   1.000  N
  N39      1.0000 0.49860  0.56490  0.60580  Biso   1.000  N
  N40      1.0000 0.49440  0.64470  0.54289  Biso   1.000  N
  N41      1.0000 0.10980  0.98740  0.29211  Biso   1.000  N
  N42      1.0000 0.22940  0.96920  0.30431  Biso   1.000  N
  Cd7      1.0000 0.01132  0.50292  0.18825  Biso   1.000  Cd
  Cd8      1.0000 0.51132  0.99708  0.81175  Biso   1.000  Cd
  H143     1.0000 0.17520  0.43660  0.15260  Biso   1.000  H
  H144     1.0000 0.14430  0.63510  0.20590  Biso   1.000  H
  H145     1.0000 0.27820  0.62300  0.18260  Biso   1.000  H
  H146     1.0000 0.47050  0.98430  0.94180  Biso   1.000  H
  H147     1.0000 0.46920  0.07470  0.01620  Biso   1.000  H
  H148     1.0000 0.53100  0.16770  0.88130  Biso   1.000  H
  H149     1.0000 0.84480  0.48290  0.13630  Biso   1.000  H
  H150     1.0000 0.88040  0.47190  0.28890  Biso   1.000  H
  H151     1.0000 0.74690  0.45660  0.27550  Biso   1.000  H
  H152     1.0000 0.37080  0.58210  0.13560  Biso   1.000  H
  H153     1.0000 0.47860  0.53690  0.10220  Biso   1.000  H
  H154     1.0000 0.39320  0.33710  0.10120  Biso   1.000  H
  H155     1.0000 0.28640  0.38050  0.13860  Biso   1.000  H
  H156     1.0000 0.55270  0.36230  0.17070  Biso   1.000  H
  H157     1.0000 0.65760  0.38890  0.22380  Biso   1.000  H
  H158     1.0000 0.73130  0.51430  0.10240  Biso   1.000  H
  H159     1.0000 0.62220  0.49250  0.05730  Biso   1.000  H
  H160     1.0000 0.46760  0.38470  0.98700  Biso   1.000  H
  H161     1.0000 0.46640  0.28360  0.92760  Biso   1.000  H
  H162     1.0000 0.56460  0.17010  0.04710  Biso   1.000  H
  H163     1.0000 0.56420  0.27310  0.10060  Biso   1.000  H
  H164     1.0000 0.67520  0.06340  0.84740  Biso   1.000  H
  H165     1.0000 0.64430  0.86490  0.79410  Biso   1.000  H
  H166     1.0000 0.77820  0.87700  0.81740  Biso   1.000  H
  H167     1.0000 0.97050  0.51570  0.05820  Biso   1.000  H
  H168     1.0000 0.96920  0.42530  0.98380  Biso   1.000  H
  H169     1.0000 0.03100  0.33230  0.11870  Biso   1.000  H
  H170     1.0000 0.34480  0.01710  0.86370  Biso   1.000  H
  H171     1.0000 0.38040  0.02810  0.71110  Biso   1.000  H
  H172     1.0000 0.24690  0.04340  0.72450  Biso   1.000  H
  H173     1.0000 0.87080  0.91790  0.86440  Biso   1.000  H
  H174     1.0000 0.97860  0.96310  0.89780  Biso   1.000  H
  H175     1.0000 0.89320  0.16290  0.89880  Biso   1.000  H
  H176     1.0000 0.78640  0.11950  0.86140  Biso   1.000  H
  H177     1.0000 0.05270  0.13770  0.82930  Biso   1.000  H
  H178     1.0000 0.15760  0.11110  0.77620  Biso   1.000  H
  H179     1.0000 0.23130  0.98570  0.89760  Biso   1.000  H
  H180     1.0000 0.12220  0.00750  0.94270  Biso   1.000  H
  H181     1.0000 0.96760  0.11530  0.01300  Biso   1.000  H
  H182     1.0000 0.96640  0.21640  0.07240  Biso   1.000  H
  H183     1.0000 0.06460  0.32990  0.95290  Biso   1.000  H
  H184     1.0000 0.06420  0.22690  0.89940  Biso   1.000  H
  C195     1.0000 0.18400  0.48440  0.16346  Biso   1.000  C
  C196     1.0000 0.16760  0.59360  0.19270  Biso   1.000  C
  C197     1.0000 0.24200  0.58730  0.17950  Biso   1.000  C
  C198     1.0000 0.48240  0.03350  0.93874  Biso   1.000  C
  C199     1.0000 0.48210  0.08250  0.98102  Biso   1.000  C
  C200     1.0000 0.51580  0.13270  0.90565  Biso   1.000  C
  C201     1.0000 0.83740  0.48040  0.17273  Biso   1.000  C
  C202     1.0000 0.85620  0.47400  0.25650  Biso   1.000  C
  C203     1.0000 0.78210  0.46450  0.24939  Biso   1.000  C
  C204     1.0000 0.31640  0.48760  0.14214  Biso   1.000  C
  C205     1.0000 0.37490  0.53220  0.12967  Biso   1.000  C
  C206     1.0000 0.43970  0.50500  0.10860  Biso   1.000  C
  C207     1.0000 0.44790  0.43320  0.09710  Biso   1.000  C
  C208     1.0000 0.38890  0.38670  0.10860  Biso   1.000  C
  C209     1.0000 0.32460  0.41270  0.13093  Biso   1.000  C
  C210     1.0000 0.58150  0.42310  0.10983  Biso   1.000  C
  C211     1.0000 0.58900  0.39340  0.15800  Biso   1.000  C
  C212     1.0000 0.65210  0.40860  0.19010  Biso   1.000  C
  C213     1.0000 0.70330  0.45350  0.16853  Biso   1.000  C
  C214     1.0000 0.69480  0.48490  0.11696  Biso   1.000  C
  C215     1.0000 0.63100  0.47000  0.08969  Biso   1.000  C
  C216     1.0000 0.51680  0.33960  0.04904  Biso   1.000  C
  C217     1.0000 0.48740  0.34060  0.99851  Biso   1.000  C
  C218     1.0000 0.48440  0.28060  0.96200  Biso   1.000  C
  C219     1.0000 0.51310  0.21470  0.98619  Biso   1.000  C
  C220     1.0000 0.54370  0.21320  0.03467  Biso   1.000  C
  C221     1.0000 0.54440  0.27570  0.06660  Biso   1.000  C
  C222     1.0000 0.68400  0.01560  0.83654  Biso   1.000  C
  C223     1.0000 0.66760  0.90640  0.80730  Biso   1.000  C
  C224     1.0000 0.74200  0.91270  0.82050  Biso   1.000  C
  C225     1.0000 0.98240  0.46650  0.06126  Biso   1.000  C
  C226     1.0000 0.98210  0.41750  0.01898  Biso   1.000  C
  C227     1.0000 0.01580  0.36730  0.09435  Biso   1.000  C
  C228     1.0000 0.33740  0.01960  0.82727  Biso   1.000  C
  C229     1.0000 0.35620  0.02600  0.74350  Biso   1.000  C
  C230     1.0000 0.28210  0.03550  0.75061  Biso   1.000  C
  C231     1.0000 0.81640  0.01240  0.85786  Biso   1.000  C
  C232     1.0000 0.87490  0.96780  0.87033  Biso   1.000  C
  C233     1.0000 0.93970  0.99500  0.89140  Biso   1.000  C
  C234     1.0000 0.94790  0.06680  0.90290  Biso   1.000  C
  C235     1.0000 0.88890  0.11330  0.89140  Biso   1.000  C
  C236     1.0000 0.82460  0.08730  0.86907  Biso   1.000  C
  C237     1.0000 0.08150  0.07690  0.89017  Biso   1.000  C
  C238     1.0000 0.08900  0.10660  0.84200  Biso   1.000  C
  C239     1.0000 0.15210  0.09140  0.80990  Biso   1.000  C
  C240     1.0000 0.20330  0.04650  0.83147  Biso   1.000  C
  C241     1.0000 0.19480  0.01510  0.88304  Biso   1.000  C
  C242     1.0000 0.13100  0.03000  0.91031  Biso   1.000  C
  C243     1.0000 0.01680  0.16040  0.95096  Biso   1.000  C
  C244     1.0000 0.98740  0.15940  0.00149  Biso   1.000  C
  C245     1.0000 0.98440  0.21940  0.03800  Biso   1.000  C
  C246     1.0000 0.01310  0.28530  0.01381  Biso   1.000  C
  C247     1.0000 0.04370  0.28680  0.96533  Biso   1.000  C
  C248     1.0000 0.04440  0.22430  0.93340  Biso   1.000  C
  N43      1.0000 0.13460  0.52660  0.18243  Biso   1.000  N
  N44      1.0000 0.25070  0.51730  0.16105  Biso   1.000  N
  N45      1.0000 0.51580  0.40370  0.07902  Biso   1.000  N
  N46      1.0000 0.50140  0.06490  0.89420  Biso   1.000  N
  N47      1.0000 0.50560  0.14470  0.95711  Biso   1.000  N
  N48      1.0000 0.89020  0.48740  0.20789  Biso   1.000  N
  N49      1.0000 0.77060  0.46920  0.19569  Biso   1.000  N
  N50      1.0000 0.63460  0.97340  0.81757  Biso   1.000  N
  N51      1.0000 0.75070  0.98270  0.83895  Biso   1.000  N
  N52      1.0000 0.01580  0.09630  0.92098  Biso   1.000  N
  N53      1.0000 0.00140  0.43510  0.10580  Biso   1.000  N
  N54      1.0000 0.00560  0.35530  0.04289  Biso   1.000  N
  N55      1.0000 0.39020  0.01260  0.79211  Biso   1.000  N
  N56      1.0000 0.27060  0.03080  0.80431  Biso   1.000  N
