data_image0
_cell_length_a       13.663
_cell_length_b       18.329
_cell_length_c       22.173
_cell_angle_alpha    67.204
_cell_angle_beta     88.26
_cell_angle_gamma    86.712

_symmetry_space_group_name_H-M    P 1
_symmetry_int_tables_number       1

loop_
  _symmetry_equiv_pos_as_xyz
  'x, y, z'

loop_
  _atom_site_label
  _atom_site_occupancy
  _atom_site_fract_x
  _atom_site_fract_y
  _atom_site_fract_z
  _atom_site_thermal_displace_type
  _atom_site_B_iso_or_equiv
  _atom_site_type_symbol
  Mn1      1.0000 0.42318  0.21357  0.13960  Biso   1.000  Mn
  Mn2      1.0000 0.21701  0.29277  0.19467  Biso   1.000  Mn
  Mn3      1.0000 0.00892  0.37010  0.25223  Biso   1.000  Mn
  Mn4      1.0000 0.58231  0.74021  0.07275  Biso   1.000  Mn
  Mn5      1.0000 0.58174  0.99828  0.59211  Biso   1.000  Mn
  Mn6      1.0000 0.87151  0.24629  0.85024  Biso   1.000  Mn
  Mn7      1.0000 0.85257  0.84222  0.31961  Biso   1.000  Mn
  Mn8      1.0000 0.85442  0.58392  0.80034  Biso   1.000  Mn
  Mn9      1.0000 0.56047  0.33783  0.53573  Biso   1.000  Mn
  H1       1.0000 0.30360  0.48310  0.08890  Biso   1.000  H
  H2       1.0000 0.58720  0.43950  0.11840  Biso   1.000  H
  H3       1.0000 0.31760  0.69660  0.11220  Biso   1.000  H
  H4       1.0000 0.20830  0.71350  0.08940  Biso   1.000  H
  H5       1.0000 0.24150  0.63100  0.14260  Biso   1.000  H
  H6       1.0000 0.36290  0.73700  0.98970  Biso   1.000  H
  H7       1.0000 0.31420  0.69300  0.95110  Biso   1.000  H
  H8       1.0000 0.25010  0.74980  0.97570  Biso   1.000  H
  H9       1.0000 0.17400  0.56360  0.07680  Biso   1.000  H
  H10      1.0000 0.13870  0.64750  0.02660  Biso   1.000  H
  H11      1.0000 0.20260  0.59000  0.00260  Biso   1.000  H
  H12      1.0000 0.69090  0.53190  0.12370  Biso   1.000  H
  H13      1.0000 0.76860  0.64430  0.16490  Biso   1.000  H
  H14      1.0000 0.83880  0.54700  0.13640  Biso   1.000  H
  H15      1.0000 0.85180  0.60600  0.06370  Biso   1.000  H
  H16      1.0000 0.00280  0.59180  0.10980  Biso   1.000  H
  H17      1.0000 0.95850  0.60250  0.17210  Biso   1.000  H
  H18      1.0000 0.02950  0.71730  0.11300  Biso   1.000  H
  H19      1.0000 0.98250  0.72250  0.04790  Biso   1.000  H
  H20      1.0000 0.89870  0.81580  0.07840  Biso   1.000  H
  H21      1.0000 0.88140  0.75330  0.14960  Biso   1.000  H
  H22      1.0000 0.79900  0.74950  0.03630  Biso   1.000  H
  H23      1.0000 0.76520  0.87170  0.09690  Biso   1.000  H
  H24      1.0000 0.42020  0.05590  0.08100  Biso   1.000  H
  H25      1.0000 0.70690  0.98990  0.09750  Biso   1.000  H
  H26      1.0000 0.35230  0.81300  0.13790  Biso   1.000  H
  H27      1.0000 0.30910  0.86810  0.17240  Biso   1.000  H
  H28      1.0000 0.24280  0.84530  0.12660  Biso   1.000  H
  H29      1.0000 0.36670  0.87000  0.01300  Biso   1.000  H
  H30      1.0000 0.25700  0.90120  0.01050  Biso   1.000  H
  H31      1.0000 0.33870  0.96020  0.97490  Biso   1.000  H
  H32      1.0000 0.20120  0.98690  0.06910  Biso   1.000  H
  H33      1.0000 0.27480  0.01300  0.10890  Biso   1.000  H
  H34      1.0000 0.28240  0.04560  0.03240  Biso   1.000  H
  H35      1.0000 0.26950  0.15130  0.38010  Biso   1.000  H
  H36      1.0000 0.55140  0.11830  0.33940  Biso   1.000  H
  H37      1.0000 0.29590  0.18390  0.53230  Biso   1.000  H
  H38      1.0000 0.23460  0.12110  0.58680  Biso   1.000  H
  H39      1.0000 0.34650  0.10320  0.57800  Biso   1.000  H
  H40      1.0000 0.17640  0.18380  0.44830  Biso   1.000  H
  H41      1.0000 0.15650  0.10240  0.44430  Biso   1.000  H
  H42      1.0000 0.11670  0.12120  0.50410  Biso   1.000  H
  H43      1.0000 0.20020  0.99490  0.58010  Biso   1.000  H
  H44      1.0000 0.23880  0.97750  0.51950  Biso   1.000  H
  H45      1.0000 0.31280  0.97950  0.57140  Biso   1.000  H
  H46      1.0000 0.66070  0.05350  0.41880  Biso   1.000  H
  H47      1.0000 0.73840  0.90660  0.53290  Biso   1.000  H
  H48      1.0000 0.83500  0.04520  0.45300  Biso   1.000  H
  H49      1.0000 0.79990  0.98080  0.42920  Biso   1.000  H
  H50      1.0000 0.91310  0.88830  0.49280  Biso   1.000  H
  H51      1.0000 0.96930  0.96440  0.45200  Biso   1.000  H
  H52      1.0000 0.97390  0.99880  0.54270  Biso   1.000  H
  H53      1.0000 0.02050  0.91250  0.56160  Biso   1.000  H
  H54      1.0000 0.87070  0.85990  0.60980  Biso   1.000  H
  H55      1.0000 0.90960  0.91350  0.64380  Biso   1.000  H
  H56      1.0000 0.80720  0.02100  0.57470  Biso   1.000  H
  H57      1.0000 0.78530  0.88780  0.70630  Biso   1.000  H
  H58      1.0000 0.47990  0.85610  0.88430  Biso   1.000  H
  H59      1.0000 0.74230  0.82170  0.81640  Biso   1.000  H
  H60      1.0000 0.34910  0.94950  0.86740  Biso   1.000  H
  H61      1.0000 0.25430  0.95160  0.82850  Biso   1.000  H
  H62      1.0000 0.31850  0.87260  0.85950  Biso   1.000  H
  H63      1.0000 0.26250  0.93720  0.72070  Biso   1.000  H
  H64      1.0000 0.36480  0.92870  0.68930  Biso   1.000  H
  H65      1.0000 0.32780  0.85870  0.75140  Biso   1.000  H
  H66      1.0000 0.41640  0.05940  0.77360  Biso   1.000  H
  H67      1.0000 0.42020  0.05570  0.70410  Biso   1.000  H
  H68      1.0000 0.31890  0.06450  0.73640  Biso   1.000  H
  H69      1.0000 0.03300  0.26730  0.05380  Biso   1.000  H
  H70      1.0000 0.27510  0.20640  0.97470  Biso   1.000  H
  H71      1.0000 0.34740  0.24180  0.87440  Biso   1.000  H
  H72      1.0000 0.34180  0.15060  0.91530  Biso   1.000  H
  H73      1.0000 0.35630  0.18230  0.83920  Biso   1.000  H
  H74      1.0000 0.19660  0.07800  0.90970  Biso   1.000  H
  H75      1.0000 0.11160  0.12230  0.86120  Biso   1.000  H
  H76      1.0000 0.21450  0.10640  0.83410  Biso   1.000  H
  H77      1.0000 0.20830  0.31600  0.79540  Biso   1.000  H
  H78      1.0000 0.22390  0.25320  0.76370  Biso   1.000  H
  H79      1.0000 0.12000  0.26810  0.79000  Biso   1.000  H
  H80      1.0000 0.88080  0.28330  0.00540  Biso   1.000  H
  H81      1.0000 0.71390  0.22260  0.97020  Biso   1.000  H
  H82      1.0000 0.73250  0.31020  0.01980  Biso   1.000  H
  H83      1.0000 0.72270  0.38220  0.95210  Biso   1.000  H
  H84      1.0000 0.57280  0.36990  0.00320  Biso   1.000  H
  H85      1.0000 0.57390  0.27950  0.01690  Biso   1.000  H
  H86      1.0000 0.46790  0.34150  0.93570  Biso   1.000  H
  H87      1.0000 0.54390  0.40380  0.89660  Biso   1.000  H
  H88      1.0000 0.55120  0.24430  0.91140  Biso   1.000  H
  H89      1.0000 0.53620  0.31830  0.84520  Biso   1.000  H
  H90      1.0000 0.69480  0.35830  0.85320  Biso   1.000  H
  H91      1.0000 0.61240  0.25210  0.79550  Biso   1.000  H
  H92      1.0000 0.79940  0.10050  0.65120  Biso   1.000  H
  H93      1.0000 0.58710  0.20960  0.71430  Biso   1.000  H
  H94      1.0000 0.00640  0.22260  0.64790  Biso   1.000  H
  H95      1.0000 0.01750  0.20860  0.72180  Biso   1.000  H
  H96      1.0000 0.09180  0.16620  0.68910  Biso   1.000  H
  H97      1.0000 0.97960  0.08270  0.80610  Biso   1.000  H
  H98      1.0000 0.95370  0.01240  0.78680  Biso   1.000  H
  H99      1.0000 0.05940  0.04450  0.77350  Biso   1.000  H
  H100     1.0000 0.96180  0.11250  0.61700  Biso   1.000  H
  H101     1.0000 0.04820  0.06040  0.66030  Biso   1.000  H
  H102     1.0000 0.94160  0.02990  0.67220  Biso   1.000  H
  H103     1.0000 0.84620  0.14560  0.27110  Biso   1.000  H
  H104     1.0000 0.13490  0.09600  0.30660  Biso   1.000  H
  H105     1.0000 0.29760  0.94390  0.36030  Biso   1.000  H
  H106     1.0000 0.25710  0.02240  0.30510  Biso   1.000  H
  H107     1.0000 0.22860  0.00390  0.37840  Biso   1.000  H
  H108     1.0000 0.18850  0.83720  0.41870  Biso   1.000  H
  H109     1.0000 0.12070  0.89720  0.43750  Biso   1.000  H
  H110     1.0000 0.07650  0.84730  0.40220  Biso   1.000  H
  H111     1.0000 0.23620  0.86420  0.30560  Biso   1.000  H
  H112     1.0000 0.12620  0.87400  0.28450  Biso   1.000  H
  H113     1.0000 0.19770  0.94170  0.24850  Biso   1.000  H
  H114     1.0000 0.74310  0.04770  0.27990  Biso   1.000  H
  H115     1.0000 0.64560  0.88710  0.35250  Biso   1.000  H
  H116     1.0000 0.59860  0.01670  0.23470  Biso   1.000  H
  H117     1.0000 0.59220  0.02100  0.30430  Biso   1.000  H
  H118     1.0000 0.43930  0.99710  0.27450  Biso   1.000  H
  H119     1.0000 0.47610  0.92680  0.33780  Biso   1.000  H
  H120     1.0000 0.40860  0.87530  0.27160  Biso   1.000  H
  H121     1.0000 0.47490  0.92480  0.21240  Biso   1.000  H
  H122     1.0000 0.54760  0.79640  0.25590  Biso   1.000  H
  H123     1.0000 0.54390  0.79580  0.32690  Biso   1.000  H
  H124     1.0000 0.66220  0.89350  0.22380  Biso   1.000  H
  H125     1.0000 0.67380  0.72260  0.27920  Biso   1.000  H
  H126     1.0000 0.00840  0.52570  0.31370  Biso   1.000  H
  H127     1.0000 0.72750  0.59290  0.29170  Biso   1.000  H
  H128     1.0000 0.15550  0.57050  0.28050  Biso   1.000  H
  H129     1.0000 0.23000  0.59270  0.32240  Biso   1.000  H
  H130     1.0000 0.14710  0.53460  0.35700  Biso   1.000  H
  H131     1.0000 0.06910  0.70890  0.37970  Biso   1.000  H
  H132     1.0000 0.09670  0.61840  0.41690  Biso   1.000  H
  H133     1.0000 0.17840  0.67720  0.38120  Biso   1.000  H
  H134     1.0000 0.11010  0.70800  0.21780  Biso   1.000  H
  H135     1.0000 0.07950  0.76620  0.25220  Biso   1.000  H
  H136     1.0000 0.18790  0.73180  0.25650  Biso   1.000  H
  H137     1.0000 0.16360  0.43790  0.01420  Biso   1.000  H
  H138     1.0000 0.88160  0.46760  0.05390  Biso   1.000  H
  H139     1.0000 0.20060  0.60720  0.86840  Biso   1.000  H
  H140     1.0000 0.24690  0.58000  0.81450  Biso   1.000  H
  H141     1.0000 0.13460  0.60370  0.81310  Biso   1.000  H
  H142     1.0000 0.09000  0.46300  0.81630  Biso   1.000  H
  H143     1.0000 0.20350  0.44990  0.80940  Biso   1.000  H
  H144     1.0000 0.14580  0.38890  0.86760  Biso   1.000  H
  H145     1.0000 0.28490  0.48380  0.94630  Biso   1.000  H
  H146     1.0000 0.26350  0.40180  0.94400  Biso   1.000  H
  H147     1.0000 0.31980  0.46420  0.88600  Biso   1.000  H
  H148     1.0000 0.76560  0.51980  0.97360  Biso   1.000  H
  H149     1.0000 0.64570  0.53070  0.85180  Biso   1.000  H
  H150     1.0000 0.61120  0.51190  0.96030  Biso   1.000  H
  H151     1.0000 0.62540  0.60210  0.94400  Biso   1.000  H
  H152     1.0000 0.45520  0.58260  0.94020  Biso   1.000  H
  H153     1.0000 0.47600  0.54510  0.88800  Biso   1.000  H
  H154     1.0000 0.41890  0.67370  0.83660  Biso   1.000  H
  H155     1.0000 0.50170  0.70300  0.86800  Biso   1.000  H
  H156     1.0000 0.55040  0.72840  0.75910  Biso   1.000  H
  H157     1.0000 0.53440  0.64020  0.76850  Biso   1.000  H
  H158     1.0000 0.68000  0.68910  0.83120  Biso   1.000  H
  H159     1.0000 0.66040  0.71710  0.68920  Biso   1.000  H
  H160     1.0000 0.95550  0.71360  0.50990  Biso   1.000  H
  H161     1.0000 0.69160  0.75110  0.57790  Biso   1.000  H
  H162     1.0000 0.02660  0.53300  0.69480  Biso   1.000  H
  H163     1.0000 0.02950  0.52520  0.62690  Biso   1.000  H
  H164     1.0000 0.12750  0.52660  0.66130  Biso   1.000  H
  H165     1.0000 0.11370  0.72980  0.63280  Biso   1.000  H
  H166     1.0000 0.08240  0.66100  0.69760  Biso   1.000  H
  H167     1.0000 0.17910  0.65110  0.66100  Biso   1.000  H
  H168     1.0000 0.11170  0.71960  0.52850  Biso   1.000  H
  H169     1.0000 0.17750  0.64100  0.55610  Biso   1.000  H
  H170     1.0000 0.07680  0.64210  0.52350  Biso   1.000  H
  H171     1.0000 0.15650  0.38010  0.41170  Biso   1.000  H
  H172     1.0000 0.39800  0.31550  0.33660  Biso   1.000  H
  H173     1.0000 0.07830  0.40980  0.54930  Biso   1.000  H
  H174     1.0000 0.09330  0.44050  0.47330  Biso   1.000  H
  H175     1.0000 0.08230  0.34990  0.51440  Biso   1.000  H
  H176     1.0000 0.32570  0.45640  0.53160  Biso   1.000  H
  H177     1.0000 0.24010  0.50390  0.48470  Biso   1.000  H
  H178     1.0000 0.22380  0.47070  0.56070  Biso   1.000  H
  H179     1.0000 0.30680  0.30950  0.59740  Biso   1.000  H
  H180     1.0000 0.20550  0.33240  0.62210  Biso   1.000  H
  H181     1.0000 0.21120  0.27210  0.58750  Biso   1.000  H
  H182     1.0000 0.54770  0.28940  0.38830  Biso   1.000  H
  H183     1.0000 0.69110  0.21800  0.50320  Biso   1.000  H
  H184     1.0000 0.68640  0.21710  0.39880  Biso   1.000  H
  H185     1.0000 0.72920  0.30160  0.36920  Biso   1.000  H
  H186     1.0000 0.83210  0.16380  0.45690  Biso   1.000  H
  H187     1.0000 0.85780  0.20600  0.38220  Biso   1.000  H
  H188     1.0000 0.96550  0.24360  0.44600  Biso   1.000  H
  H189     1.0000 0.90540  0.31820  0.39830  Biso   1.000  H
  H190     1.0000 0.89960  0.32400  0.50370  Biso   1.000  H
  H191     1.0000 0.86050  0.23820  0.53510  Biso   1.000  H
  H192     1.0000 0.75520  0.37230  0.44590  Biso   1.000  H
  H193     1.0000 0.82190  0.34540  0.57720  Biso   1.000  H
  H194     1.0000 0.63510  0.47420  0.74410  Biso   1.000  H
  H195     1.0000 0.84840  0.37340  0.66910  Biso   1.000  H
  H196     1.0000 0.34270  0.41290  0.70210  Biso   1.000  H
  H197     1.0000 0.41750  0.36730  0.67250  Biso   1.000  H
  H198     1.0000 0.42910  0.35990  0.74480  Biso   1.000  H
  H199     1.0000 0.38110  0.54740  0.61030  Biso   1.000  H
  H200     1.0000 0.48950  0.57380  0.59910  Biso   1.000  H
  H201     1.0000 0.45760  0.50680  0.57760  Biso   1.000  H
  H202     1.0000 0.39530  0.52620  0.72610  Biso   1.000  H
  H203     1.0000 0.48110  0.47190  0.76850  Biso   1.000  H
  H204     1.0000 0.50330  0.55330  0.71220  Biso   1.000  H
  C1       1.0000 0.43180  0.36610  0.12060  Biso   1.000  C
  C2       1.0000 0.44330  0.44690  0.10600  Biso   1.000  C
  C3       1.0000 0.36540  0.50170  0.08940  Biso   1.000  C
  C4       1.0000 0.37130  0.58270  0.07340  Biso   1.000  C
  C5       1.0000 0.46620  0.60880  0.08130  Biso   1.000  C
  C6       1.0000 0.54840  0.55180  0.09920  Biso   1.000  C
  C7       1.0000 0.53310  0.47510  0.10900  Biso   1.000  C
  C8       1.0000 0.28530  0.64260  0.05000  Biso   1.000  C
  C9       1.0000 0.26090  0.67380  0.10350  Biso   1.000  C
  C10      1.0000 0.30500  0.71210  0.98560  Biso   1.000  C
  C11      1.0000 0.19130  0.60760  0.03790  Biso   1.000  C
  C12      1.0000 0.64310  0.57290  0.10880  Biso   1.000  C
  C13      1.0000 0.77140  0.65460  0.11810  Biso   1.000  C
  C14      1.0000 0.85160  0.60140  0.10870  Biso   1.000  C
  C15      1.0000 0.95270  0.62060  0.12500  Biso   1.000  C
  C16      1.0000 0.97070  0.70770  0.09440  Biso   1.000  C
  C17      1.0000 0.88610  0.76060  0.10390  Biso   1.000  C
  C18      1.0000 0.79060  0.74080  0.08270  Biso   1.000  C
  C19      1.0000 0.70390  0.85530  0.09170  Biso   1.000  C
  C20      1.0000 0.58850  0.10940  0.09800  Biso   1.000  C
  C21      1.0000 0.62150  0.90760  0.08950  Biso   1.000  C
  C22      1.0000 0.52510  0.89160  0.08280  Biso   1.000  C
  C23      1.0000 0.44970  0.94720  0.07960  Biso   1.000  C
  C24      1.0000 0.47060  0.01870  0.08310  Biso   1.000  C
  C25      1.0000 0.56700  0.03480  0.08980  Biso   1.000  C
  C26      1.0000 0.64240  0.97920  0.09300  Biso   1.000  C
  C27      1.0000 0.33900  0.92890  0.07590  Biso   1.000  C
  C28      1.0000 0.30800  0.85740  0.13340  Biso   1.000  C
  C29      1.0000 0.32390  0.91360  0.01250  Biso   1.000  C
  C30      1.0000 0.26740  0.00050  0.07110  Biso   1.000  C
  C31      1.0000 0.38650  0.16700  0.27680  Biso   1.000  C
  C32      1.0000 0.40840  0.13780  0.34690  Biso   1.000  C
  C33      1.0000 0.33250  0.13180  0.39460  Biso   1.000  C
  C34      1.0000 0.34930  0.09820  0.46130  Biso   1.000  C
  C35      1.0000 0.44960  0.07070  0.48220  Biso   1.000  C
  C36      1.0000 0.52090  0.08000  0.43510  Biso   1.000  C
  C37      1.0000 0.50050  0.11290  0.36940  Biso   1.000  C
  C38      1.0000 0.26340  0.09280  0.50940  Biso   1.000  C
  C39      1.0000 0.28710  0.12830  0.55560  Biso   1.000  C
  C40      1.0000 0.16980  0.12820  0.47320  Biso   1.000  C
  C41      1.0000 0.25280  0.00250  0.54890  Biso   1.000  C
  C42      1.0000 0.61750  0.04680  0.45350  Biso   1.000  C
  C43      1.0000 0.75140  0.96200  0.52340  Biso   1.000  C
  C44      1.0000 0.82530  0.98900  0.46630  Biso   1.000  C
  C45      1.0000 0.92140  0.94290  0.48680  Biso   1.000  C
  C46      1.0000 0.96010  0.94490  0.54940  Biso   1.000  C
  C47      1.0000 0.88440  0.91390  0.60320  Biso   1.000  C
  C48      1.0000 0.79050  0.96630  0.58470  Biso   1.000  C
  C49      1.0000 0.72200  0.90820  0.69350  Biso   1.000  C
  C50      1.0000 0.64920  0.89260  0.74420  Biso   1.000  C
  C51      1.0000 0.55120  0.92800  0.73290  Biso   1.000  C
  C52      1.0000 0.48530  0.91390  0.78680  Biso   1.000  C
  C53      1.0000 0.52200  0.86620  0.84850  Biso   1.000  C
  C54      1.0000 0.61560  0.83340  0.85980  Biso   1.000  C
  C55      1.0000 0.67920  0.84500  0.80880  Biso   1.000  C
  C56      1.0000 0.64740  0.78300  0.92900  Biso   1.000  C
  C57      1.0000 0.37990  0.95120  0.77600  Biso   1.000  C
  C58      1.0000 0.32000  0.92920  0.83860  Biso   1.000  C
  C59      1.0000 0.32860  0.91530  0.72970  Biso   1.000  C
  C60      1.0000 0.38430  0.04100  0.74460  Biso   1.000  C
  C61      1.0000 0.22140  0.22910  0.08260  Biso   1.000  C
  C62      1.0000 0.16110  0.23410  0.02470  Biso   1.000  C
  C63      1.0000 0.06380  0.25290  0.02180  Biso   1.000  C
  C64      1.0000 0.00830  0.25030  0.96830  Biso   1.000  C
  C65      1.0000 0.05440  0.23130  0.91950  Biso   1.000  C
  C66      1.0000 0.15620  0.21580  0.92110  Biso   1.000  C
  C67      1.0000 0.20770  0.21710  0.97320  Biso   1.000  C
  C68      1.0000 0.21470  0.20000  0.86580  Biso   1.000  C
  C69      1.0000 0.32530  0.19300  0.87450  Biso   1.000  C
  C70      1.0000 0.18110  0.11880  0.86790  Biso   1.000  C
  C71      1.0000 0.18930  0.26570  0.79710  Biso   1.000  C
  C72      1.0000 0.90410  0.27010  0.97090  Biso   1.000  C
  C73      1.0000 0.73380  0.27610  0.94310  Biso   1.000  C
  C74      1.0000 0.70200  0.32900  0.97720  Biso   1.000  C
  C75      1.0000 0.59220  0.33060  0.98530  Biso   1.000  C
  C76      1.0000 0.53690  0.34860  0.92470  Biso   1.000  C
  C77      1.0000 0.56860  0.29870  0.88730  Biso   1.000  C
  C78      1.0000 0.68140  0.30240  0.87730  Biso   1.000  C
  C79      1.0000 0.67950  0.23960  0.79780  Biso   1.000  C
  C80      1.0000 0.71830  0.20290  0.75600  Biso   1.000  C
  C81      1.0000 0.82050  0.18400  0.75460  Biso   1.000  C
  C82      1.0000 0.85450  0.14320  0.71090  Biso   1.000  C
  C83      1.0000 0.78190  0.13160  0.67490  Biso   1.000  C
  C84      1.0000 0.68270  0.16140  0.66950  Biso   1.000  C
  C85      1.0000 0.65270  0.19350  0.71310  Biso   1.000  C
  C86      1.0000 0.61320  0.15690  0.61970  Biso   1.000  C
  C87      1.0000 0.96040  0.11600  0.70930  Biso   1.000  C
  C88      1.0000 0.02470  0.18440  0.69030  Biso   1.000  C
  C89      1.0000 0.99090  0.05890  0.77460  Biso   1.000  C
  C90      1.0000 0.97980  0.07590  0.66000  Biso   1.000  C
  C91      1.0000 0.00700  0.22250  0.26920  Biso   1.000  C
  C92      1.0000 0.99380  0.13310  0.28490  Biso   1.000  C
  C93      1.0000 0.89990  0.10950  0.28190  Biso   1.000  C
  C94      1.0000 0.88960  0.02780  0.29610  Biso   1.000  C
  C95      1.0000 0.97120  0.97440  0.31150  Biso   1.000  C
  C96      1.0000 0.06460  0.99870  0.31760  Biso   1.000  C
  C97      1.0000 0.07360  0.07830  0.30350  Biso   1.000  C
  C98      1.0000 0.15430  0.93930  0.33960  Biso   1.000  C
  C99      1.0000 0.24240  0.98120  0.34650  Biso   1.000  C
  C100     1.0000 0.13310  0.87430  0.40560  Biso   1.000  C
  C101     1.0000 0.18110  0.90120  0.28980  Biso   1.000  C
  C102     1.0000 0.79160  0.00710  0.29190  Biso   1.000  C
  C103     1.0000 0.66170  0.91720  0.30640  Biso   1.000  C
  C104     1.0000 0.58710  0.98640  0.28090  Biso   1.000  C
  C105     1.0000 0.48770  0.95350  0.29110  Biso   1.000  C
  C106     1.0000 0.47260  0.89720  0.25950  Biso   1.000  C
  C107     1.0000 0.55310  0.82900  0.28110  Biso   1.000  C
  C108     1.0000 0.65340  0.86250  0.27070  Biso   1.000  C
  C109     1.0000 0.73380  0.73550  0.28990  Biso   1.000  C
  C110     1.0000 0.81300  0.67710  0.30130  Biso   1.000  C
  C111     1.0000 0.91210  0.69310  0.30830  Biso   1.000  C
  C112     1.0000 0.99110  0.63370  0.31070  Biso   1.000  C
  C113     1.0000 0.96010  0.56530  0.30920  Biso   1.000  C
  C114     1.0000 0.86410  0.54730  0.30170  Biso   1.000  C
  C115     1.0000 0.79190  0.60280  0.29730  Biso   1.000  C
  C116     1.0000 0.83940  0.47300  0.29200  Biso   1.000  C
  C117     1.0000 0.09480  0.65110  0.31680  Biso   1.000  C
  C118     1.0000 0.16330  0.58060  0.31940  Biso   1.000  C
  C119     1.0000 0.11130  0.66520  0.37950  Biso   1.000  C
  C120     1.0000 0.12040  0.72060  0.25520  Biso   1.000  C
  C121     1.0000 0.04880  0.41840  0.11700  Biso   1.000  C
  C122     1.0000 0.02610  0.44830  0.04420  Biso   1.000  C
  C123     1.0000 0.10030  0.45450  0.99880  Biso   1.000  C
  C124     1.0000 0.08620  0.48390  0.93210  Biso   1.000  C
  C125     1.0000 0.99030  0.50860  0.90940  Biso   1.000  C
  C126     1.0000 0.91010  0.50240  0.95560  Biso   1.000  C
  C127     1.0000 0.93160  0.47180  0.02350  Biso   1.000  C
  C128     1.0000 0.16840  0.49340  0.88330  Biso   1.000  C
  C129     1.0000 0.18960  0.57900  0.84090  Biso   1.000  C
  C130     1.0000 0.15010  0.44390  0.83980  Biso   1.000  C
  C131     1.0000 0.26900  0.45720  0.91830  Biso   1.000  C
  C132     1.0000 0.80970  0.52520  0.93950  Biso   1.000  C
  C133     1.0000 0.66810  0.56920  0.86850  Biso   1.000  C
  C134     1.0000 0.60490  0.56460  0.92630  Biso   1.000  C
  C135     1.0000 0.49690  0.58440  0.90360  Biso   1.000  C
  C136     1.0000 0.48660  0.66370  0.85080  Biso   1.000  C
  C137     1.0000 0.55470  0.67380  0.79010  Biso   1.000  C
  C138     1.0000 0.65910  0.65050  0.81420  Biso   1.000  C
  C139     1.0000 0.71970  0.68790  0.70140  Biso   1.000  C
  C140     1.0000 0.78780  0.69200  0.64990  Biso   1.000  C
  C141     1.0000 0.88510  0.66260  0.66060  Biso   1.000  C
  C142     1.0000 0.95000  0.67050  0.60600  Biso   1.000  C
  C143     1.0000 0.91450  0.70890  0.54530  Biso   1.000  C
  C144     1.0000 0.81600  0.74330  0.53230  Biso   1.000  C
  C145     1.0000 0.75650  0.73170  0.58510  Biso   1.000  C
  C146     1.0000 0.77950  0.78770  0.46470  Biso   1.000  C
  C147     1.0000 0.05890  0.64040  0.61800  Biso   1.000  C
  C148     1.0000 0.06080  0.54710  0.65370  Biso   1.000  C
  C149     1.0000 0.11300  0.67330  0.65540  Biso   1.000  C
  C150     1.0000 0.11130  0.66290  0.55000  Biso   1.000  C
  C151     1.0000 0.21380  0.35980  0.30460  Biso   1.000  C
  C152     1.0000 0.26840  0.35430  0.36250  Biso   1.000  C
  C153     1.0000 0.22370  0.36810  0.41410  Biso   1.000  C
  C154     1.0000 0.27160  0.36530  0.46940  Biso   1.000  C
  C155     1.0000 0.37730  0.34840  0.47110  Biso   1.000  C
  C156     1.0000 0.42370  0.32730  0.42160  Biso   1.000  C
  C157     1.0000 0.36800  0.33020  0.36870  Biso   1.000  C
  C158     1.0000 0.22260  0.38580  0.52380  Biso   1.000  C
  C159     1.0000 0.10790  0.39770  0.51430  Biso   1.000  C
  C160     1.0000 0.25600  0.46090  0.52540  Biso   1.000  C
  C161     1.0000 0.23790  0.31900  0.58840  Biso   1.000  C
  C162     1.0000 0.52510  0.30480  0.42180  Biso   1.000  C
  C163     1.0000 0.68950  0.26900  0.46590  Biso   1.000  C
  C164     1.0000 0.72890  0.25240  0.40750  Biso   1.000  C
  C165     1.0000 0.83300  0.21470  0.42040  Biso   1.000  C
  C166     1.0000 0.90030  0.26890  0.43610  Biso   1.000  C
  C167     1.0000 0.85890  0.28680  0.49610  Biso   1.000  C
  C168     1.0000 0.75410  0.32120  0.48320  Biso   1.000  C
  C169     1.0000 0.75400  0.35130  0.57950  Biso   1.000  C
  C170     1.0000 0.82010  0.42970  0.76350  Biso   1.000  C
  C171     1.0000 0.71540  0.37870  0.62970  Biso   1.000  C
  C172     1.0000 0.61760  0.40330  0.63170  Biso   1.000  C
  C173     1.0000 0.58760  0.43910  0.67460  Biso   1.000  C
  C174     1.0000 0.65530  0.45030  0.71540  Biso   1.000  C
  C175     1.0000 0.75300  0.42570  0.71330  Biso   1.000  C
  C176     1.0000 0.78310  0.38990  0.67050  Biso   1.000  C
  C177     1.0000 0.47600  0.46750  0.67710  Biso   1.000  C
  C178     1.0000 0.41000  0.39500  0.70140  Biso   1.000  C
  C179     1.0000 0.44850  0.52960  0.60980  Biso   1.000  C
  C180     1.0000 0.46270  0.50860  0.72550  Biso   1.000  C
  N1       1.0000 0.67080  0.64420  0.09890  Biso   1.000  N
  N2       1.0000 0.70150  0.78700  0.08720  Biso   1.000  N
  N3       1.0000 0.65530  0.00820  0.51160  Biso   1.000  N
  N4       1.0000 0.70850  0.94730  0.63280  Biso   1.000  N
  N5       1.0000 0.84170  0.27050  0.92770  Biso   1.000  N
  N6       1.0000 0.73050  0.25790  0.84030  Biso   1.000  N
  N7       1.0000 0.76520  0.93670  0.30330  Biso   1.000  N
  N8       1.0000 0.73710  0.80310  0.29300  Biso   1.000  N
  N9       1.0000 0.77750  0.55180  0.88280  Biso   1.000  N
  N10      1.0000 0.73250  0.64810  0.76220  Biso   1.000  N
  N11      1.0000 0.58710  0.30370  0.46280  Biso   1.000  N
  N12      1.0000 0.70690  0.33490  0.53930  Biso   1.000  N
  O1       1.0000 0.34770  0.33750  0.12960  Biso   1.000  O
  O2       1.0000 0.50530  0.31910  0.12300  Biso   1.000  O
  O3       1.0000 0.47260  0.68240  0.07460  Biso   1.000  O
  O4       1.0000 0.50310  0.82200  0.07960  Biso   1.000  O
  O5       1.0000 0.29960  0.18800  0.25680  Biso   1.000  O
  O6       1.0000 0.45500  0.16930  0.23710  Biso   1.000  O
  O7       1.0000 0.46530  0.03660  0.54520  Biso   1.000  O
  O8       1.0000 0.52100  0.96970  0.67510  Biso   1.000  O
  O9       1.0000 0.59220  0.78580  0.97390  Biso   1.000  O
  O10      1.0000 0.72310  0.74390  0.93660  Biso   1.000  O
  O11      1.0000 0.17680  0.24380  0.12670  Biso   1.000  O
  O12      1.0000 0.30850  0.20740  0.08280  Biso   1.000  O
  O13      1.0000 0.00500  0.22450  0.87220  Biso   1.000  O
  O14      1.0000 0.88420  0.20120  0.78650  Biso   1.000  O
  O15      1.0000 0.54960  0.21120  0.60070  Biso   1.000  O
  O16      1.0000 0.63040  0.10620  0.59410  Biso   1.000  O
  O17      1.0000 0.08960  0.24790  0.25750  Biso   1.000  O
  O18      1.0000 0.93230  0.26410  0.26980  Biso   1.000  O
  O19      1.0000 0.96050  0.89870  0.32250  Biso   1.000  O
  O20      1.0000 0.93330  0.75840  0.31040  Biso   1.000  O
  O21      1.0000 0.91100  0.43150  0.28790  Biso   1.000  O
  O22      1.0000 0.75650  0.46040  0.28540  Biso   1.000  O
  O23      1.0000 0.97570  0.41730  0.15340  Biso   1.000  O
  O24      1.0000 0.13500  0.39890  0.13430  Biso   1.000  O
  O25      1.0000 0.97150  0.53830  0.84630  Biso   1.000  O
  O26      1.0000 0.92150  0.62440  0.72180  Biso   1.000  O
  O27      1.0000 0.83550  0.78400  0.41960  Biso   1.000  O
  O28      1.0000 0.70020  0.82680  0.45570  Biso   1.000  O
  O29      1.0000 0.12160  0.38010  0.30450  Biso   1.000  O
  O30      1.0000 0.25880  0.34420  0.26060  Biso   1.000  O
  O31      1.0000 0.42920  0.35180  0.51930  Biso   1.000  O
  O32      1.0000 0.54960  0.38730  0.59570  Biso   1.000  O
  O33      1.0000 0.88700  0.37210  0.78900  Biso   1.000  O
  O34      1.0000 0.80280  0.48550  0.78250  Biso   1.000  O
  O35      1.0000 0.51850  0.15270  0.10350  Biso   1.000  O
  O36      1.0000 0.67370  0.12660  0.09670  Biso   1.000  O
