data_image0
_cell_length_a       12.5984
_cell_length_b       14.1777
_cell_length_c       14.1777
_cell_angle_alpha    98.6803
_cell_angle_beta     98.2555
_cell_angle_gamma    98.2555

_symmetry_space_group_name_H-M    P 1
_symmetry_int_tables_number       1

loop_
  _symmetry_equiv_pos_as_xyz
  'x, y, z'

loop_
  _atom_site_label
  _atom_site_occupancy
  _atom_site_fract_x
  _atom_site_fract_y
  _atom_site_fract_z
  _atom_site_thermal_displace_type
  _atom_site_B_iso_or_equiv
  _atom_site_type_symbol
  Cd1      1.0000 0.42300  0.30505  0.40134  Biso   1.000  Cd
  Cd2      1.0000 0.07700  0.59866  0.69495  Biso   1.000  Cd
  Cd3      1.0000 0.57700  0.69495  0.59866  Biso   1.000  Cd
  Cd4      1.0000 0.92300  0.40134  0.30505  Biso   1.000  Cd
  H1       1.0000 0.62400  0.15580  0.62760  Biso   1.000  H
  H2       1.0000 0.69390  0.05830  0.74990  Biso   1.000  H
  H3       1.0000 0.83990  0.01420  0.83760  Biso   1.000  H
  H4       1.0000 0.01470  0.07340  0.82080  Biso   1.000  H
  H5       1.0000 0.04590  0.17380  0.71340  Biso   1.000  H
  H6       1.0000 0.97430  0.25940  0.58340  Biso   1.000  H
  H7       1.0000 0.34610  0.10840  0.46860  Biso   1.000  H
  H8       1.0000 0.20110  0.00980  0.50520  Biso   1.000  H
  H9       1.0000 0.00720  0.17930  0.39690  Biso   1.000  H
  H10      1.0000 0.15740  0.27690  0.36850  Biso   1.000  H
  H11      1.0000 0.58850  0.17910  0.30030  Biso   1.000  H
  H12      1.0000 0.60250  0.07200  0.16600  Biso   1.000  H
  H13      1.0000 0.30550  0.10380  0.04820  Biso   1.000  H
  H14      1.0000 0.30070  0.21110  0.18490  Biso   1.000  H
  H15      1.0000 0.45430  0.43530  0.56990  Biso   1.000  H
  H16      1.0000 0.36060  0.42810  0.53770  Biso   1.000  H
  H17      1.0000 0.87600  0.37240  0.84420  Biso   1.000  H
  H18      1.0000 0.80610  0.25010  0.94170  Biso   1.000  H
  H19      1.0000 0.66010  0.16240  0.98580  Biso   1.000  H
  H20      1.0000 0.48530  0.17920  0.92660  Biso   1.000  H
  H21      1.0000 0.45410  0.28660  0.82620  Biso   1.000  H
  H22      1.0000 0.52570  0.41660  0.74060  Biso   1.000  H
  H23      1.0000 0.15390  0.53140  0.89160  Biso   1.000  H
  H24      1.0000 0.29890  0.49480  0.99020  Biso   1.000  H
  H25      1.0000 0.49280  0.60310  0.82070  Biso   1.000  H
  H26      1.0000 0.34260  0.63150  0.72310  Biso   1.000  H
  H27      1.0000 0.91150  0.69970  0.82090  Biso   1.000  H
  H28      1.0000 0.89750  0.83400  0.92800  Biso   1.000  H
  H29      1.0000 0.19450  0.95180  0.89620  Biso   1.000  H
  H30      1.0000 0.19930  0.81510  0.78890  Biso   1.000  H
  H31      1.0000 0.04570  0.43010  0.56470  Biso   1.000  H
  H32      1.0000 0.13940  0.46230  0.57190  Biso   1.000  H
  H33      1.0000 0.37600  0.84420  0.37240  Biso   1.000  H
  H34      1.0000 0.30610  0.94170  0.25010  Biso   1.000  H
  H35      1.0000 0.16010  0.98580  0.16240  Biso   1.000  H
  H36      1.0000 0.98530  0.92660  0.17920  Biso   1.000  H
  H37      1.0000 0.95410  0.82620  0.28660  Biso   1.000  H
  H38      1.0000 0.02570  0.74060  0.41660  Biso   1.000  H
  H39      1.0000 0.65390  0.89160  0.53140  Biso   1.000  H
  H40      1.0000 0.79890  0.99020  0.49480  Biso   1.000  H
  H41      1.0000 0.99280  0.82070  0.60310  Biso   1.000  H
  H42      1.0000 0.84260  0.72310  0.63150  Biso   1.000  H
  H43      1.0000 0.41150  0.82090  0.69970  Biso   1.000  H
  H44      1.0000 0.39750  0.92800  0.83400  Biso   1.000  H
  H45      1.0000 0.69450  0.89620  0.95180  Biso   1.000  H
  H46      1.0000 0.69930  0.78890  0.81510  Biso   1.000  H
  H47      1.0000 0.54570  0.56470  0.43010  Biso   1.000  H
  H48      1.0000 0.63940  0.57190  0.46230  Biso   1.000  H
  H49      1.0000 0.12400  0.62760  0.15580  Biso   1.000  H
  H50      1.0000 0.19390  0.74990  0.05830  Biso   1.000  H
  H51      1.0000 0.33990  0.83760  0.01420  Biso   1.000  H
  H52      1.0000 0.51470  0.82080  0.07340  Biso   1.000  H
  H53      1.0000 0.54590  0.71340  0.17380  Biso   1.000  H
  H54      1.0000 0.47430  0.58340  0.25940  Biso   1.000  H
  H55      1.0000 0.84610  0.46860  0.10840  Biso   1.000  H
  H56      1.0000 0.70110  0.50520  0.00980  Biso   1.000  H
  H57      1.0000 0.50720  0.39690  0.17930  Biso   1.000  H
  H58      1.0000 0.65740  0.36850  0.27690  Biso   1.000  H
  H59      1.0000 0.08850  0.30030  0.17910  Biso   1.000  H
  H60      1.0000 0.10250  0.16600  0.07200  Biso   1.000  H
  H61      1.0000 0.80550  0.04820  0.10380  Biso   1.000  H
  H62      1.0000 0.80070  0.18490  0.21110  Biso   1.000  H
  H63      1.0000 0.95430  0.56990  0.43530  Biso   1.000  H
  H64      1.0000 0.86060  0.53770  0.42810  Biso   1.000  H
  C1       1.0000 0.61060  0.25462  0.49178  Biso   1.000  C
  C2       1.0000 0.71000  0.22697  0.54665  Biso   1.000  C
  C3       1.0000 0.69450  0.17372  0.61668  Biso   1.000  C
  C4       1.0000 0.78140  0.14423  0.67437  Biso   1.000  C
  C5       1.0000 0.76420  0.08160  0.74160  Biso   1.000  C
  C6       1.0000 0.85120  0.05600  0.79400  Biso   1.000  C
  C7       1.0000 0.95630  0.09110  0.78350  Biso   1.000  C
  C8       1.0000 0.97480  0.15090  0.71970  Biso   1.000  C
  C9       1.0000 0.88790  0.17917  0.66283  Biso   1.000  C
  C10      1.0000 0.90360  0.23612  0.59068  Biso   1.000  C
  C11      1.0000 0.81950  0.25840  0.53184  Biso   1.000  C
  C12      1.0000 0.84510  0.30240  0.44580  Biso   1.000  C
  C13      1.0000 0.27690  0.12410  0.45570  Biso   1.000  C
  C14      1.0000 0.19030  0.06340  0.47680  Biso   1.000  C
  C15      1.0000 0.08840  0.08520  0.45440  Biso   1.000  C
  C16      1.0000 0.07620  0.16420  0.41340  Biso   1.000  C
  C17      1.0000 0.16680  0.22260  0.39620  Biso   1.000  C
  C18      1.0000 0.53070  0.16370  0.24890  Biso   1.000  C
  C19      1.0000 0.53980  0.09910  0.16830  Biso   1.000  C
  C20      1.0000 0.45560  0.07569  0.09231  Biso   1.000  C
  C21      1.0000 0.36440  0.11820  0.09880  Biso   1.000  C
  C22      1.0000 0.36210  0.18220  0.18140  Biso   1.000  C
  C23      1.0000 0.88940  0.50822  0.74538  Biso   1.000  C
  C24      1.0000 0.79000  0.45335  0.77303  Biso   1.000  C
  C25      1.0000 0.80550  0.38332  0.82628  Biso   1.000  C
  C26      1.0000 0.71860  0.32563  0.85577  Biso   1.000  C
  C27      1.0000 0.73580  0.25840  0.91840  Biso   1.000  C
  C28      1.0000 0.64880  0.20600  0.94400  Biso   1.000  C
  C29      1.0000 0.54370  0.21650  0.90890  Biso   1.000  C
  C30      1.0000 0.52520  0.28030  0.84910  Biso   1.000  C
  C31      1.0000 0.61210  0.33717  0.82083  Biso   1.000  C
  C32      1.0000 0.59640  0.40932  0.76388  Biso   1.000  C
  C33      1.0000 0.68050  0.46816  0.74160  Biso   1.000  C
  C34      1.0000 0.65490  0.55420  0.69760  Biso   1.000  C
  C35      1.0000 0.22310  0.54430  0.87590  Biso   1.000  C
  C36      1.0000 0.30970  0.52320  0.93660  Biso   1.000  C
  C37      1.0000 0.41160  0.54560  0.91480  Biso   1.000  C
  C38      1.0000 0.42380  0.58660  0.83580  Biso   1.000  C
  C39      1.0000 0.33320  0.60380  0.77740  Biso   1.000  C
  C40      1.0000 0.96930  0.75110  0.83630  Biso   1.000  C
  C41      1.0000 0.96020  0.83170  0.90090  Biso   1.000  C
  C42      1.0000 0.04440  0.90769  0.92431  Biso   1.000  C
  C43      1.0000 0.13560  0.90120  0.88180  Biso   1.000  C
  C44      1.0000 0.13790  0.81860  0.81780  Biso   1.000  C
  C45      1.0000 0.38940  0.74538  0.50822  Biso   1.000  C
  C46      1.0000 0.29000  0.77303  0.45335  Biso   1.000  C
  C47      1.0000 0.30550  0.82628  0.38332  Biso   1.000  C
  C48      1.0000 0.21860  0.85577  0.32563  Biso   1.000  C
  C49      1.0000 0.23580  0.91840  0.25840  Biso   1.000  C
  C50      1.0000 0.14880  0.94400  0.20600  Biso   1.000  C
  C51      1.0000 0.04370  0.90890  0.21650  Biso   1.000  C
  C52      1.0000 0.02520  0.84910  0.28030  Biso   1.000  C
  C53      1.0000 0.11210  0.82083  0.33717  Biso   1.000  C
  C54      1.0000 0.09640  0.76388  0.40932  Biso   1.000  C
  C55      1.0000 0.18050  0.74160  0.46816  Biso   1.000  C
  C56      1.0000 0.15490  0.69760  0.55420  Biso   1.000  C
  C57      1.0000 0.72310  0.87590  0.54430  Biso   1.000  C
  C58      1.0000 0.80970  0.93660  0.52320  Biso   1.000  C
  C59      1.0000 0.91160  0.91480  0.54560  Biso   1.000  C
  C60      1.0000 0.92380  0.83580  0.58660  Biso   1.000  C
  C61      1.0000 0.83320  0.77740  0.60380  Biso   1.000  C
  C62      1.0000 0.46930  0.83630  0.75110  Biso   1.000  C
  C63      1.0000 0.46020  0.90090  0.83170  Biso   1.000  C
  C64      1.0000 0.54440  0.92431  0.90769  Biso   1.000  C
  C65      1.0000 0.63560  0.88180  0.90120  Biso   1.000  C
  C66      1.0000 0.63790  0.81780  0.81860  Biso   1.000  C
  C67      1.0000 0.11060  0.49178  0.25462  Biso   1.000  C
  C68      1.0000 0.21000  0.54665  0.22697  Biso   1.000  C
  C69      1.0000 0.19450  0.61668  0.17372  Biso   1.000  C
  C70      1.0000 0.28140  0.67437  0.14423  Biso   1.000  C
  C71      1.0000 0.26420  0.74160  0.08160  Biso   1.000  C
  C72      1.0000 0.35120  0.79400  0.05600  Biso   1.000  C
  C73      1.0000 0.45630  0.78350  0.09110  Biso   1.000  C
  C74      1.0000 0.47480  0.71970  0.15090  Biso   1.000  C
  C75      1.0000 0.38790  0.66283  0.17917  Biso   1.000  C
  C76      1.0000 0.40360  0.59068  0.23612  Biso   1.000  C
  C77      1.0000 0.31950  0.53184  0.25840  Biso   1.000  C
  C78      1.0000 0.34510  0.44580  0.30240  Biso   1.000  C
  C79      1.0000 0.77690  0.45570  0.12410  Biso   1.000  C
  C80      1.0000 0.69030  0.47680  0.06340  Biso   1.000  C
  C81      1.0000 0.58840  0.45440  0.08520  Biso   1.000  C
  C82      1.0000 0.57620  0.41340  0.16420  Biso   1.000  C
  C83      1.0000 0.66680  0.39620  0.22260  Biso   1.000  C
  C84      1.0000 0.03070  0.24890  0.16370  Biso   1.000  C
  C85      1.0000 0.03980  0.16830  0.09910  Biso   1.000  C
  C86      1.0000 0.95560  0.09231  0.07569  Biso   1.000  C
  C87      1.0000 0.86440  0.09880  0.11820  Biso   1.000  C
  C88      1.0000 0.86210  0.18140  0.18220  Biso   1.000  C
  N1       1.0000 0.26700  0.20337  0.41787  Biso   1.000  N
  N2       1.0000 0.44270  0.20495  0.25619  Biso   1.000  N
  N3       1.0000 0.45460  0.01012  0.00464  Biso   1.000  N
  N4       1.0000 0.99070  0.02735  0.47165  Biso   1.000  N
  N5       1.0000 0.23300  0.58213  0.79663  Biso   1.000  N
  N6       1.0000 0.05730  0.74381  0.79505  Biso   1.000  N
  N7       1.0000 0.04540  0.99536  0.98988  Biso   1.000  N
  N8       1.0000 0.50930  0.52835  0.97265  Biso   1.000  N
  N9       1.0000 0.73300  0.79663  0.58213  Biso   1.000  N
  N10      1.0000 0.55730  0.79505  0.74381  Biso   1.000  N
  N11      1.0000 0.54540  0.98988  0.99536  Biso   1.000  N
  N12      1.0000 0.00930  0.97265  0.52835  Biso   1.000  N
  N13      1.0000 0.76700  0.41787  0.20337  Biso   1.000  N
  N14      1.0000 0.94270  0.25619  0.20495  Biso   1.000  N
  N15      1.0000 0.95460  0.00464  0.01012  Biso   1.000  N
  N16      1.0000 0.49070  0.47165  0.02735  Biso   1.000  N
  O1       1.0000 0.52454  0.19334  0.47556  Biso   1.000  O
  O2       1.0000 0.61168  0.33516  0.46648  Biso   1.000  O
  O3       1.0000 0.78263  0.27916  0.36670  Biso   1.000  O
  O4       1.0000 0.93528  0.35955  0.45583  Biso   1.000  O
  O5       1.0000 0.40149  0.38826  0.55314  Biso   1.000  O
  O6       1.0000 0.97546  0.52444  0.80666  Biso   1.000  O
  O7       1.0000 0.88832  0.53352  0.66484  Biso   1.000  O
  O8       1.0000 0.71737  0.63330  0.72084  Biso   1.000  O
  O9       1.0000 0.56472  0.54417  0.64045  Biso   1.000  O
  O10      1.0000 0.09851  0.44686  0.61174  Biso   1.000  O
  O11      1.0000 0.47546  0.80666  0.52444  Biso   1.000  O
  O12      1.0000 0.38832  0.66484  0.53352  Biso   1.000  O
  O13      1.0000 0.21737  0.72084  0.63330  Biso   1.000  O
  O14      1.0000 0.06472  0.64045  0.54417  Biso   1.000  O
  O15      1.0000 0.59851  0.61174  0.44686  Biso   1.000  O
  O16      1.0000 0.02454  0.47556  0.19334  Biso   1.000  O
  O17      1.0000 0.11168  0.46648  0.33516  Biso   1.000  O
  O18      1.0000 0.28263  0.36670  0.27916  Biso   1.000  O
  O19      1.0000 0.43528  0.45583  0.35955  Biso   1.000  O
  O20      1.0000 0.90149  0.55314  0.38826  Biso   1.000  O
