data_image0
_cell_length_a       8.959
_cell_length_b       10.0692
_cell_length_c       10.1205
_cell_angle_alpha    119.75
_cell_angle_beta     116.182
_cell_angle_gamma    90.1611

_symmetry_space_group_name_H-M    P 1
_symmetry_int_tables_number       1

loop_
  _symmetry_equiv_pos_as_xyz
  'x, y, z'

loop_
  _atom_site_label
  _atom_site_occupancy
  _atom_site_fract_x
  _atom_site_fract_y
  _atom_site_fract_z
  _atom_site_thermal_displace_type
  _atom_site_B_iso_or_equiv
  _atom_site_type_symbol
  Zn1      1.0000 0.16937  0.83602  0.27434  Biso   1.000  Zn
  Zn2      1.0000 0.39503  0.56168  0.72566  Biso   1.000  Zn
  H1       1.0000 0.50040  0.10790  0.65760  Biso   1.000  H
  H2       1.0000 0.54670  0.28490  0.77480  Biso   1.000  H
  H3       1.0000 0.70580  0.87050  0.89740  Biso   1.000  H
  H4       1.0000 0.88780  0.94680  0.04920  Biso   1.000  H
  H5       1.0000 0.34280  0.45030  0.34240  Biso   1.000  H
  H6       1.0000 0.27190  0.51010  0.22520  Biso   1.000  H
  H7       1.0000 0.30840  0.97310  0.10260  Biso   1.000  H
  H8       1.0000 0.33860  0.89760  0.95080  Biso   1.000  H
  C1       1.0000 0.34140  0.19800  0.54460  Biso   1.000  C
  C2       1.0000 0.78300  0.75060  0.00060  Biso   1.000  C
  C3       1.0000 0.29680  0.65340  0.45540  Biso   1.000  C
  C4       1.0000 0.28240  0.75000  0.99940  Biso   1.000  C
  N1       1.0000 0.47980  0.19680  0.67500  Biso   1.000  N
  N2       1.0000 0.30910  0.33010  0.54820  Biso   1.000  N
  N3       1.0000 0.17840  0.27610  0.38280  Biso   1.000  N
  N4       1.0000 0.12970  0.12470  0.29160  Biso   1.000  N
  N5       1.0000 0.23200  0.06950  0.38780  Biso   1.000  N
  N6       1.0000 0.79340  0.87000  0.98000  Biso   1.000  N
  N7       1.0000 0.91290  0.73920  0.12200  Biso   1.000  N
  N8       1.0000 0.84670  0.60380  0.10660  Biso   1.000  N
  N9       1.0000 0.69240  0.53690  0.97480  Biso   1.000  N
  N10      1.0000 0.64590  0.62520  0.90360  Biso   1.000  N
  N11      1.0000 0.30480  0.52180  0.32500  Biso   1.000  N
  N12      1.0000 0.26090  0.78190  0.45180  Biso   1.000  N
  N13      1.0000 0.29560  0.89330  0.61720  Biso   1.000  N
  N14      1.0000 0.33810  0.83310  0.70840  Biso   1.000  N
  N15      1.0000 0.34420  0.68170  0.61220  Biso   1.000  N
  N16      1.0000 0.31340  0.89000  0.02000  Biso   1.000  N
  N17      1.0000 0.29090  0.61720  0.87800  Biso   1.000  N
  N18      1.0000 0.24010  0.49720  0.89340  Biso   1.000  N
  N19      1.0000 0.21760  0.56210  0.02520  Biso   1.000  N
  N20      1.0000 0.24230  0.72160  0.09640  Biso   1.000  N
