data_image0
_cell_length_a       18.549
_cell_length_b       18.549
_cell_length_c       18.549
_cell_angle_alpha    90
_cell_angle_beta     90
_cell_angle_gamma    90

_symmetry_space_group_name_H-M    P 1
_symmetry_int_tables_number       1

loop_
  _symmetry_equiv_pos_as_xyz
  'x, y, z'

loop_
  _atom_site_label
  _atom_site_occupancy
  _atom_site_fract_x
  _atom_site_fract_y
  _atom_site_fract_z
  _atom_site_thermal_displace_type
  _atom_site_B_iso_or_equiv
  _atom_site_type_symbol
  Ni1      1.0000 0.00000  0.61885  0.50000  Biso   1.000  Ni
  Ni2      1.0000 0.00000  0.38115  0.50000  Biso   1.000  Ni
  Ni3      1.0000 0.50000  0.00000  0.61885  Biso   1.000  Ni
  Ni4      1.0000 0.50000  0.00000  0.38115  Biso   1.000  Ni
  Ni5      1.0000 0.61885  0.50000  0.00000  Biso   1.000  Ni
  Ni6      1.0000 0.38115  0.50000  0.00000  Biso   1.000  Ni
  Ni7      1.0000 0.61885  0.00000  0.50000  Biso   1.000  Ni
  Ni8      1.0000 0.38115  0.00000  0.50000  Biso   1.000  Ni
  Ni9      1.0000 0.00000  0.50000  0.38115  Biso   1.000  Ni
  Ni10     1.0000 0.00000  0.50000  0.61885  Biso   1.000  Ni
  Ni11     1.0000 0.50000  0.61885  0.00000  Biso   1.000  Ni
  Ni12     1.0000 0.50000  0.38115  0.00000  Biso   1.000  Ni
  H1       1.0000 0.85450  0.71315  0.56038  Biso   1.000  H
  H2       1.0000 0.14550  0.28685  0.56038  Biso   1.000  H
  H3       1.0000 0.14550  0.71315  0.43962  Biso   1.000  H
  H4       1.0000 0.85450  0.28685  0.43962  Biso   1.000  H
  H5       1.0000 0.56038  0.85450  0.71315  Biso   1.000  H
  H6       1.0000 0.56038  0.14550  0.28685  Biso   1.000  H
  H7       1.0000 0.43962  0.14550  0.71315  Biso   1.000  H
  H8       1.0000 0.43962  0.85450  0.28685  Biso   1.000  H
  H9       1.0000 0.71315  0.56038  0.85450  Biso   1.000  H
  H10      1.0000 0.28685  0.56038  0.14550  Biso   1.000  H
  H11      1.0000 0.71315  0.43962  0.14550  Biso   1.000  H
  H12      1.0000 0.28685  0.43962  0.85450  Biso   1.000  H
  H13      1.0000 0.71315  0.85450  0.43962  Biso   1.000  H
  H14      1.0000 0.28685  0.14550  0.43962  Biso   1.000  H
  H15      1.0000 0.71315  0.14550  0.56038  Biso   1.000  H
  H16      1.0000 0.28685  0.85450  0.56038  Biso   1.000  H
  H17      1.0000 0.85450  0.56038  0.28685  Biso   1.000  H
  H18      1.0000 0.14550  0.56038  0.71315  Biso   1.000  H
  H19      1.0000 0.14550  0.43962  0.28685  Biso   1.000  H
  H20      1.0000 0.85450  0.43962  0.71315  Biso   1.000  H
  H21      1.0000 0.56038  0.71315  0.14550  Biso   1.000  H
  H22      1.0000 0.56038  0.28685  0.85450  Biso   1.000  H
  H23      1.0000 0.43962  0.71315  0.85450  Biso   1.000  H
  H24      1.0000 0.43962  0.28685  0.14550  Biso   1.000  H
  H25      1.0000 0.14550  0.28685  0.43962  Biso   1.000  H
  H26      1.0000 0.85450  0.71315  0.43962  Biso   1.000  H
  H27      1.0000 0.85450  0.28685  0.56038  Biso   1.000  H
  H28      1.0000 0.14550  0.71315  0.56038  Biso   1.000  H
  H29      1.0000 0.43962  0.14550  0.28685  Biso   1.000  H
  H30      1.0000 0.43962  0.85450  0.71315  Biso   1.000  H
  H31      1.0000 0.56038  0.85450  0.28685  Biso   1.000  H
  H32      1.0000 0.56038  0.14550  0.71315  Biso   1.000  H
  H33      1.0000 0.28685  0.43962  0.14550  Biso   1.000  H
  H34      1.0000 0.71315  0.43962  0.85450  Biso   1.000  H
  H35      1.0000 0.28685  0.56038  0.85450  Biso   1.000  H
  H36      1.0000 0.71315  0.56038  0.14550  Biso   1.000  H
  H37      1.0000 0.28685  0.14550  0.56038  Biso   1.000  H
  H38      1.0000 0.71315  0.85450  0.56038  Biso   1.000  H
  H39      1.0000 0.28685  0.85450  0.43962  Biso   1.000  H
  H40      1.0000 0.71315  0.14550  0.43962  Biso   1.000  H
  H41      1.0000 0.14550  0.43962  0.71315  Biso   1.000  H
  H42      1.0000 0.85450  0.43962  0.28685  Biso   1.000  H
  H43      1.0000 0.85450  0.56038  0.71315  Biso   1.000  H
  H44      1.0000 0.14550  0.56038  0.28685  Biso   1.000  H
  H45      1.0000 0.43962  0.28685  0.85450  Biso   1.000  H
  H46      1.0000 0.43962  0.71315  0.14550  Biso   1.000  H
  H47      1.0000 0.56038  0.28685  0.14550  Biso   1.000  H
  H48      1.0000 0.56038  0.71315  0.85450  Biso   1.000  H
  H49      1.0000 0.77211  0.77211  0.61817  Biso   1.000  H
  H50      1.0000 0.22788  0.22788  0.61817  Biso   1.000  H
  H51      1.0000 0.22788  0.77211  0.38183  Biso   1.000  H
  H52      1.0000 0.77211  0.22788  0.38183  Biso   1.000  H
  H53      1.0000 0.61817  0.77211  0.77211  Biso   1.000  H
  H54      1.0000 0.61817  0.22788  0.22788  Biso   1.000  H
  H55      1.0000 0.38183  0.22788  0.77211  Biso   1.000  H
  H56      1.0000 0.38183  0.77211  0.22788  Biso   1.000  H
  H57      1.0000 0.77211  0.61817  0.77211  Biso   1.000  H
  H58      1.0000 0.22788  0.61817  0.22788  Biso   1.000  H
  H59      1.0000 0.77211  0.38183  0.22788  Biso   1.000  H
  H60      1.0000 0.22788  0.38183  0.77211  Biso   1.000  H
  H61      1.0000 0.77211  0.77211  0.38183  Biso   1.000  H
  H62      1.0000 0.22788  0.22788  0.38183  Biso   1.000  H
  H63      1.0000 0.77211  0.22788  0.61817  Biso   1.000  H
  H64      1.0000 0.22788  0.77211  0.61817  Biso   1.000  H
  H65      1.0000 0.77211  0.61817  0.22788  Biso   1.000  H
  H66      1.0000 0.22788  0.61817  0.77211  Biso   1.000  H
  H67      1.0000 0.22788  0.38183  0.22788  Biso   1.000  H
  H68      1.0000 0.77211  0.38183  0.77211  Biso   1.000  H
  H69      1.0000 0.61817  0.77211  0.22788  Biso   1.000  H
  H70      1.0000 0.61817  0.22788  0.77211  Biso   1.000  H
  H71      1.0000 0.38183  0.77211  0.77211  Biso   1.000  H
  H72      1.0000 0.38183  0.22788  0.22788  Biso   1.000  H
  C1       1.0000 0.86569  0.67080  0.58691  Biso   1.000  C
  C2       1.0000 0.13431  0.32920  0.58691  Biso   1.000  C
  C3       1.0000 0.13431  0.67080  0.41309  Biso   1.000  C
  C4       1.0000 0.86569  0.32920  0.41309  Biso   1.000  C
  C5       1.0000 0.58691  0.86569  0.67080  Biso   1.000  C
  C6       1.0000 0.58691  0.13431  0.32920  Biso   1.000  C
  C7       1.0000 0.41309  0.13431  0.67080  Biso   1.000  C
  C8       1.0000 0.41309  0.86569  0.32920  Biso   1.000  C
  C9       1.0000 0.67080  0.58691  0.86569  Biso   1.000  C
  C10      1.0000 0.32920  0.58691  0.13431  Biso   1.000  C
  C11      1.0000 0.67080  0.41309  0.13431  Biso   1.000  C
  C12      1.0000 0.32920  0.41309  0.86569  Biso   1.000  C
  C13      1.0000 0.67080  0.86569  0.41309  Biso   1.000  C
  C14      1.0000 0.32920  0.13431  0.41309  Biso   1.000  C
  C15      1.0000 0.67080  0.13431  0.58691  Biso   1.000  C
  C16      1.0000 0.32920  0.86569  0.58691  Biso   1.000  C
  C17      1.0000 0.86569  0.58691  0.32920  Biso   1.000  C
  C18      1.0000 0.13431  0.58691  0.67080  Biso   1.000  C
  C19      1.0000 0.13431  0.41309  0.32920  Biso   1.000  C
  C20      1.0000 0.86569  0.41309  0.67080  Biso   1.000  C
  C21      1.0000 0.58691  0.67080  0.13431  Biso   1.000  C
  C22      1.0000 0.58691  0.32920  0.86569  Biso   1.000  C
  C23      1.0000 0.41309  0.67080  0.86569  Biso   1.000  C
  C24      1.0000 0.41309  0.32920  0.13431  Biso   1.000  C
  C25      1.0000 0.13431  0.32920  0.41309  Biso   1.000  C
  C26      1.0000 0.86569  0.67080  0.41309  Biso   1.000  C
  C27      1.0000 0.86569  0.32920  0.58691  Biso   1.000  C
  C28      1.0000 0.13431  0.67080  0.58691  Biso   1.000  C
  C29      1.0000 0.41309  0.13431  0.32920  Biso   1.000  C
  C30      1.0000 0.41309  0.86569  0.67080  Biso   1.000  C
  C31      1.0000 0.58691  0.86569  0.32920  Biso   1.000  C
  C32      1.0000 0.58691  0.13431  0.67080  Biso   1.000  C
  C33      1.0000 0.32920  0.41309  0.13431  Biso   1.000  C
  C34      1.0000 0.67080  0.41309  0.86569  Biso   1.000  C
  C35      1.0000 0.32920  0.58691  0.86569  Biso   1.000  C
  C36      1.0000 0.67080  0.58691  0.13431  Biso   1.000  C
  C37      1.0000 0.32920  0.13431  0.58691  Biso   1.000  C
  C38      1.0000 0.67080  0.86569  0.58691  Biso   1.000  C
  C39      1.0000 0.32920  0.86569  0.41309  Biso   1.000  C
  C40      1.0000 0.67080  0.13431  0.41309  Biso   1.000  C
  C41      1.0000 0.13431  0.41309  0.67080  Biso   1.000  C
  C42      1.0000 0.86569  0.41309  0.32920  Biso   1.000  C
  C43      1.0000 0.86569  0.58691  0.67080  Biso   1.000  C
  C44      1.0000 0.13431  0.58691  0.32920  Biso   1.000  C
  C45      1.0000 0.41309  0.32920  0.86569  Biso   1.000  C
  C46      1.0000 0.41309  0.67080  0.13431  Biso   1.000  C
  C47      1.0000 0.58691  0.32920  0.13431  Biso   1.000  C
  C48      1.0000 0.58691  0.67080  0.86569  Biso   1.000  C
  C49      1.0000 0.77994  0.68949  0.68949  Biso   1.000  C
  C50      1.0000 0.83522  0.65040  0.65040  Biso   1.000  C
  C51      1.0000 0.22006  0.31051  0.68949  Biso   1.000  C
  C52      1.0000 0.16478  0.34960  0.65040  Biso   1.000  C
  C53      1.0000 0.22006  0.68949  0.31051  Biso   1.000  C
  C54      1.0000 0.16478  0.65040  0.34960  Biso   1.000  C
  C55      1.0000 0.77994  0.31051  0.31051  Biso   1.000  C
  C56      1.0000 0.83522  0.34960  0.34960  Biso   1.000  C
  C57      1.0000 0.68949  0.77994  0.68949  Biso   1.000  C
  C58      1.0000 0.65040  0.83522  0.65040  Biso   1.000  C
  C59      1.0000 0.68949  0.22006  0.31051  Biso   1.000  C
  C60      1.0000 0.65040  0.16478  0.34960  Biso   1.000  C
  C61      1.0000 0.31051  0.22006  0.68949  Biso   1.000  C
  C62      1.0000 0.34960  0.16478  0.65040  Biso   1.000  C
  C63      1.0000 0.31051  0.77994  0.31051  Biso   1.000  C
  C64      1.0000 0.34960  0.83522  0.34960  Biso   1.000  C
  C65      1.0000 0.68949  0.68949  0.77994  Biso   1.000  C
  C66      1.0000 0.65040  0.65040  0.83522  Biso   1.000  C
  C67      1.0000 0.31051  0.68949  0.22006  Biso   1.000  C
  C68      1.0000 0.34960  0.65040  0.16478  Biso   1.000  C
  C69      1.0000 0.68949  0.31051  0.22006  Biso   1.000  C
  C70      1.0000 0.65040  0.34960  0.16478  Biso   1.000  C
  C71      1.0000 0.31051  0.31051  0.77994  Biso   1.000  C
  C72      1.0000 0.34960  0.34960  0.83522  Biso   1.000  C
  C73      1.0000 0.68949  0.77994  0.31051  Biso   1.000  C
  C74      1.0000 0.65040  0.83522  0.34960  Biso   1.000  C
  C75      1.0000 0.31051  0.22006  0.31051  Biso   1.000  C
  C76      1.0000 0.34960  0.16478  0.34960  Biso   1.000  C
  C77      1.0000 0.68949  0.22006  0.68949  Biso   1.000  C
  C78      1.0000 0.65040  0.16478  0.65040  Biso   1.000  C
  C79      1.0000 0.31051  0.77994  0.68949  Biso   1.000  C
  C80      1.0000 0.34960  0.83522  0.65040  Biso   1.000  C
  C81      1.0000 0.77994  0.68949  0.31051  Biso   1.000  C
  C82      1.0000 0.83522  0.65040  0.34960  Biso   1.000  C
  C83      1.0000 0.22006  0.68949  0.68949  Biso   1.000  C
  C84      1.0000 0.16478  0.65040  0.65040  Biso   1.000  C
  C85      1.0000 0.22006  0.31051  0.31051  Biso   1.000  C
  C86      1.0000 0.16478  0.34960  0.34960  Biso   1.000  C
  C87      1.0000 0.77994  0.31051  0.68949  Biso   1.000  C
  C88      1.0000 0.83522  0.34960  0.65040  Biso   1.000  C
  C89      1.0000 0.68949  0.68949  0.22006  Biso   1.000  C
  C90      1.0000 0.65040  0.65040  0.16478  Biso   1.000  C
  C91      1.0000 0.68949  0.31051  0.77994  Biso   1.000  C
  C92      1.0000 0.65040  0.34960  0.83522  Biso   1.000  C
  C93      1.0000 0.31051  0.68949  0.77994  Biso   1.000  C
  C94      1.0000 0.34960  0.65040  0.83522  Biso   1.000  C
  C95      1.0000 0.31051  0.31051  0.22006  Biso   1.000  C
  C96      1.0000 0.34960  0.34960  0.16478  Biso   1.000  C
  C97      1.0000 0.75378  0.75378  0.66233  Biso   1.000  C
  C98      1.0000 0.24622  0.24622  0.66233  Biso   1.000  C
  C99      1.0000 0.24622  0.75378  0.33767  Biso   1.000  C
  C100     1.0000 0.75378  0.24622  0.33767  Biso   1.000  C
  C101     1.0000 0.66233  0.75378  0.75378  Biso   1.000  C
  C102     1.0000 0.66233  0.24622  0.24622  Biso   1.000  C
  C103     1.0000 0.33767  0.24622  0.75378  Biso   1.000  C
  C104     1.0000 0.33767  0.75378  0.24622  Biso   1.000  C
  C105     1.0000 0.75378  0.66233  0.75378  Biso   1.000  C
  C106     1.0000 0.24622  0.66233  0.24622  Biso   1.000  C
  C107     1.0000 0.75378  0.33767  0.24622  Biso   1.000  C
  C108     1.0000 0.24622  0.33767  0.75378  Biso   1.000  C
  C109     1.0000 0.75378  0.75378  0.33767  Biso   1.000  C
  C110     1.0000 0.24622  0.24622  0.33767  Biso   1.000  C
  C111     1.0000 0.75378  0.24622  0.66233  Biso   1.000  C
  C112     1.0000 0.24622  0.75378  0.66233  Biso   1.000  C
  C113     1.0000 0.75378  0.66233  0.24622  Biso   1.000  C
  C114     1.0000 0.24622  0.66233  0.75378  Biso   1.000  C
  C115     1.0000 0.24622  0.33767  0.24622  Biso   1.000  C
  C116     1.0000 0.75378  0.33767  0.75378  Biso   1.000  C
  C117     1.0000 0.66233  0.75378  0.24622  Biso   1.000  C
  C118     1.0000 0.66233  0.24622  0.75378  Biso   1.000  C
  C119     1.0000 0.33767  0.75378  0.75378  Biso   1.000  C
  C120     1.0000 0.33767  0.24622  0.24622  Biso   1.000  C
  N1       1.0000 0.91500  0.61991  0.56807  Biso   1.000  N
  N2       1.0000 0.08500  0.38009  0.56807  Biso   1.000  N
  N3       1.0000 0.08500  0.61991  0.43193  Biso   1.000  N
  N4       1.0000 0.91500  0.38009  0.43193  Biso   1.000  N
  N5       1.0000 0.56807  0.91500  0.61991  Biso   1.000  N
  N6       1.0000 0.56807  0.08500  0.38009  Biso   1.000  N
  N7       1.0000 0.43193  0.08500  0.61991  Biso   1.000  N
  N8       1.0000 0.43193  0.91500  0.38009  Biso   1.000  N
  N9       1.0000 0.61991  0.56807  0.91500  Biso   1.000  N
  N10      1.0000 0.38009  0.56807  0.08500  Biso   1.000  N
  N11      1.0000 0.61991  0.43193  0.08500  Biso   1.000  N
  N12      1.0000 0.38009  0.43193  0.91500  Biso   1.000  N
  N13      1.0000 0.61991  0.91500  0.43193  Biso   1.000  N
  N14      1.0000 0.38009  0.08500  0.43193  Biso   1.000  N
  N15      1.0000 0.61991  0.08500  0.56807  Biso   1.000  N
  N16      1.0000 0.38009  0.91500  0.56807  Biso   1.000  N
  N17      1.0000 0.91500  0.56807  0.38009  Biso   1.000  N
  N18      1.0000 0.08500  0.56807  0.61991  Biso   1.000  N
  N19      1.0000 0.08500  0.43193  0.38009  Biso   1.000  N
  N20      1.0000 0.91500  0.43193  0.61991  Biso   1.000  N
  N21      1.0000 0.56807  0.61991  0.08500  Biso   1.000  N
  N22      1.0000 0.56807  0.38009  0.91500  Biso   1.000  N
  N23      1.0000 0.43193  0.61991  0.91500  Biso   1.000  N
  N24      1.0000 0.43193  0.38009  0.08500  Biso   1.000  N
  N25      1.0000 0.08500  0.38009  0.43193  Biso   1.000  N
  N26      1.0000 0.91500  0.61991  0.43193  Biso   1.000  N
  N27      1.0000 0.91500  0.38009  0.56807  Biso   1.000  N
  N28      1.0000 0.08500  0.61991  0.56807  Biso   1.000  N
  N29      1.0000 0.43193  0.08500  0.38009  Biso   1.000  N
  N30      1.0000 0.43193  0.91500  0.61991  Biso   1.000  N
  N31      1.0000 0.56807  0.91500  0.38009  Biso   1.000  N
  N32      1.0000 0.56807  0.08500  0.61991  Biso   1.000  N
  N33      1.0000 0.38009  0.43193  0.08500  Biso   1.000  N
  N34      1.0000 0.61991  0.43193  0.91500  Biso   1.000  N
  N35      1.0000 0.38009  0.56807  0.91500  Biso   1.000  N
  N36      1.0000 0.61991  0.56807  0.08500  Biso   1.000  N
  N37      1.0000 0.38009  0.08500  0.56807  Biso   1.000  N
  N38      1.0000 0.61991  0.91500  0.56807  Biso   1.000  N
  N39      1.0000 0.38009  0.91500  0.43193  Biso   1.000  N
  N40      1.0000 0.61991  0.08500  0.43193  Biso   1.000  N
  N41      1.0000 0.08500  0.43193  0.61991  Biso   1.000  N
  N42      1.0000 0.91500  0.43193  0.38009  Biso   1.000  N
  N43      1.0000 0.91500  0.56807  0.61991  Biso   1.000  N
  N44      1.0000 0.08500  0.56807  0.38009  Biso   1.000  N
  N45      1.0000 0.43193  0.38009  0.91500  Biso   1.000  N
  N46      1.0000 0.43193  0.61991  0.08500  Biso   1.000  N
  N47      1.0000 0.56807  0.38009  0.08500  Biso   1.000  N
  N48      1.0000 0.56807  0.61991  0.91500  Biso   1.000  N
  O1       1.0000 0.00000  0.73500  0.50000  Biso   1.000  O
  O2       1.0000 0.00000  0.26500  0.50000  Biso   1.000  O
  O3       1.0000 0.50000  0.00000  0.73500  Biso   1.000  O
  O4       1.0000 0.50000  0.00000  0.26500  Biso   1.000  O
  O5       1.0000 0.73500  0.50000  0.00000  Biso   1.000  O
  O6       1.0000 0.26500  0.50000  0.00000  Biso   1.000  O
  O7       1.0000 0.73500  0.00000  0.50000  Biso   1.000  O
  O8       1.0000 0.26500  0.00000  0.50000  Biso   1.000  O
  O9       1.0000 0.00000  0.50000  0.26500  Biso   1.000  O
  O10      1.0000 0.00000  0.50000  0.73500  Biso   1.000  O
  O11      1.0000 0.50000  0.73500  0.00000  Biso   1.000  O
  O12      1.0000 0.50000  0.26500  0.00000  Biso   1.000  O
