data_image0
_cell_length_a       15.4625
_cell_length_b       15.4625
_cell_length_c       20.0474
_cell_angle_alpha    90
_cell_angle_beta     90
_cell_angle_gamma    90

_symmetry_space_group_name_H-M    P 1
_symmetry_int_tables_number       1

loop_
  _symmetry_equiv_pos_as_xyz
  'x, y, z'

loop_
  _atom_site_label
  _atom_site_occupancy
  _atom_site_fract_x
  _atom_site_fract_y
  _atom_site_fract_z
  _atom_site_thermal_displace_type
  _atom_site_B_iso_or_equiv
  _atom_site_type_symbol
  Co1      1.0000 0.08575  0.91425  0.00000  Biso   1.000  Co
  Co2      1.0000 0.41425  0.58575  0.00000  Biso   1.000  Co
  Co3      1.0000 0.58575  0.08575  0.50000  Biso   1.000  Co
  Co4      1.0000 0.91425  0.41425  0.50000  Biso   1.000  Co
  Co5      1.0000 0.91425  0.08575  0.00000  Biso   1.000  Co
  Co6      1.0000 0.58575  0.41425  0.00000  Biso   1.000  Co
  Co7      1.0000 0.41425  0.91425  0.50000  Biso   1.000  Co
  Co8      1.0000 0.08575  0.58575  0.50000  Biso   1.000  Co
  Co9      1.0000 0.25000  0.75000  0.50000  Biso   1.000  Co
  Co10     1.0000 0.75000  0.25000  0.00000  Biso   1.000  Co
  Co11     1.0000 0.75000  0.25000  0.50000  Biso   1.000  Co
  Co12     1.0000 0.25000  0.75000  0.00000  Biso   1.000  Co
  H1       1.0000 0.15307  0.96777  0.74102  Biso   1.000  H
  H2       1.0000 0.13712  0.95399  0.84833  Biso   1.000  H
  H3       1.0000 0.27940  0.05342  0.57682  Biso   1.000  H
  H4       1.0000 0.14491  0.84075  0.62474  Biso   1.000  H
  H5       1.0000 0.34693  0.53223  0.74102  Biso   1.000  H
  H6       1.0000 0.36288  0.54601  0.84833  Biso   1.000  H
  H7       1.0000 0.22060  0.44658  0.57682  Biso   1.000  H
  H8       1.0000 0.35509  0.65925  0.62474  Biso   1.000  H
  H9       1.0000 0.53223  0.15307  0.24102  Biso   1.000  H
  H10      1.0000 0.54601  0.13712  0.34833  Biso   1.000  H
  H11      1.0000 0.44658  0.27940  0.07682  Biso   1.000  H
  H12      1.0000 0.65925  0.14491  0.12474  Biso   1.000  H
  H13      1.0000 0.96777  0.34693  0.24102  Biso   1.000  H
  H14      1.0000 0.95399  0.36288  0.34833  Biso   1.000  H
  H15      1.0000 0.05342  0.22060  0.07682  Biso   1.000  H
  H16      1.0000 0.84075  0.35509  0.12474  Biso   1.000  H
  H17      1.0000 0.84693  0.46777  0.75898  Biso   1.000  H
  H18      1.0000 0.86288  0.45399  0.65167  Biso   1.000  H
  H19      1.0000 0.72060  0.55342  0.92318  Biso   1.000  H
  H20      1.0000 0.85509  0.34075  0.87526  Biso   1.000  H
  H21      1.0000 0.65307  0.03223  0.75898  Biso   1.000  H
  H22      1.0000 0.63712  0.04601  0.65167  Biso   1.000  H
  H23      1.0000 0.77940  0.94658  0.92318  Biso   1.000  H
  H24      1.0000 0.64491  0.15925  0.87526  Biso   1.000  H
  H25      1.0000 0.46777  0.65307  0.25898  Biso   1.000  H
  H26      1.0000 0.45399  0.63712  0.15167  Biso   1.000  H
  H27      1.0000 0.55342  0.77940  0.42318  Biso   1.000  H
  H28      1.0000 0.34075  0.64491  0.37526  Biso   1.000  H
  H29      1.0000 0.03223  0.84693  0.25898  Biso   1.000  H
  H30      1.0000 0.04601  0.86288  0.15167  Biso   1.000  H
  H31      1.0000 0.94658  0.72060  0.42318  Biso   1.000  H
  H32      1.0000 0.15925  0.85509  0.37526  Biso   1.000  H
  H33      1.0000 0.84693  0.03223  0.25898  Biso   1.000  H
  H34      1.0000 0.86288  0.04601  0.15167  Biso   1.000  H
  H35      1.0000 0.72060  0.94658  0.42318  Biso   1.000  H
  H36      1.0000 0.85509  0.15925  0.37526  Biso   1.000  H
  H37      1.0000 0.65307  0.46777  0.25898  Biso   1.000  H
  H38      1.0000 0.63712  0.45399  0.15167  Biso   1.000  H
  H39      1.0000 0.77940  0.55342  0.42318  Biso   1.000  H
  H40      1.0000 0.64491  0.34075  0.37526  Biso   1.000  H
  H41      1.0000 0.46777  0.84693  0.75898  Biso   1.000  H
  H42      1.0000 0.45399  0.86288  0.65167  Biso   1.000  H
  H43      1.0000 0.55342  0.72060  0.92318  Biso   1.000  H
  H44      1.0000 0.34075  0.85509  0.87526  Biso   1.000  H
  H45      1.0000 0.03223  0.65307  0.75898  Biso   1.000  H
  H46      1.0000 0.04601  0.63712  0.65167  Biso   1.000  H
  H47      1.0000 0.94658  0.77940  0.92318  Biso   1.000  H
  H48      1.0000 0.15925  0.64491  0.87526  Biso   1.000  H
  H49      1.0000 0.15307  0.53223  0.24102  Biso   1.000  H
  H50      1.0000 0.13712  0.54601  0.34833  Biso   1.000  H
  H51      1.0000 0.27940  0.44658  0.07682  Biso   1.000  H
  H52      1.0000 0.14491  0.65925  0.12474  Biso   1.000  H
  H53      1.0000 0.34693  0.96777  0.24102  Biso   1.000  H
  H54      1.0000 0.36288  0.95399  0.34833  Biso   1.000  H
  H55      1.0000 0.22060  0.05342  0.07682  Biso   1.000  H
  H56      1.0000 0.35509  0.84075  0.12474  Biso   1.000  H
  H57      1.0000 0.53223  0.34693  0.74102  Biso   1.000  H
  H58      1.0000 0.54601  0.36288  0.84833  Biso   1.000  H
  H59      1.0000 0.44658  0.22060  0.57682  Biso   1.000  H
  H60      1.0000 0.65925  0.35509  0.62474  Biso   1.000  H
  H61      1.0000 0.96777  0.15307  0.74102  Biso   1.000  H
  H62      1.0000 0.95399  0.13712  0.84833  Biso   1.000  H
  H63      1.0000 0.05342  0.27940  0.57682  Biso   1.000  H
  H64      1.0000 0.84075  0.14491  0.62474  Biso   1.000  H
  H65      1.0000 0.08492  0.08492  0.56794  Biso   1.000  H
  H66      1.0000 0.41508  0.41508  0.56794  Biso   1.000  H
  H67      1.0000 0.41508  0.08492  0.06794  Biso   1.000  H
  H68      1.0000 0.08492  0.41508  0.06794  Biso   1.000  H
  H69      1.0000 0.91508  0.58492  0.93206  Biso   1.000  H
  H70      1.0000 0.58492  0.91508  0.93206  Biso   1.000  H
  H71      1.0000 0.58492  0.58492  0.43206  Biso   1.000  H
  H72      1.0000 0.91508  0.91508  0.43206  Biso   1.000  H
  C1       1.0000 0.11891  0.00884  0.71761  Biso   1.000  C
  C2       1.0000 0.12843  0.01831  0.64905  Biso   1.000  C
  C3       1.0000 0.09402  0.99354  0.86283  Biso   1.000  C
  C4       1.0000 0.19050  0.96550  0.61326  Biso   1.000  C
  C5       1.0000 0.26165  0.99478  0.58038  Biso   1.000  C
  C6       1.0000 0.18780  0.87801  0.60669  Biso   1.000  C
  C7       1.0000 0.38109  0.49116  0.71761  Biso   1.000  C
  C8       1.0000 0.37157  0.48169  0.64905  Biso   1.000  C
  C9       1.0000 0.40598  0.50646  0.86283  Biso   1.000  C
  C10      1.0000 0.30950  0.53450  0.61326  Biso   1.000  C
  C11      1.0000 0.23835  0.50522  0.58038  Biso   1.000  C
  C12      1.0000 0.31220  0.62199  0.60669  Biso   1.000  C
  C13      1.0000 0.49116  0.11891  0.21761  Biso   1.000  C
  C14      1.0000 0.48169  0.12843  0.14905  Biso   1.000  C
  C15      1.0000 0.50646  0.09402  0.36283  Biso   1.000  C
  C16      1.0000 0.53450  0.19050  0.11326  Biso   1.000  C
  C17      1.0000 0.50522  0.26165  0.08038  Biso   1.000  C
  C18      1.0000 0.62199  0.18780  0.10669  Biso   1.000  C
  C19      1.0000 0.00884  0.38109  0.21761  Biso   1.000  C
  C20      1.0000 0.01831  0.37157  0.14905  Biso   1.000  C
  C21      1.0000 0.99354  0.40598  0.36283  Biso   1.000  C
  C22      1.0000 0.96550  0.30950  0.11326  Biso   1.000  C
  C23      1.0000 0.99478  0.23835  0.08038  Biso   1.000  C
  C24      1.0000 0.87801  0.31220  0.10669  Biso   1.000  C
  C25      1.0000 0.88109  0.50884  0.78239  Biso   1.000  C
  C26      1.0000 0.87157  0.51831  0.85095  Biso   1.000  C
  C27      1.0000 0.90598  0.49354  0.63717  Biso   1.000  C
  C28      1.0000 0.80950  0.46550  0.88674  Biso   1.000  C
  C29      1.0000 0.73835  0.49478  0.91962  Biso   1.000  C
  C30      1.0000 0.81220  0.37801  0.89331  Biso   1.000  C
  C31      1.0000 0.61891  0.99116  0.78239  Biso   1.000  C
  C32      1.0000 0.62843  0.98169  0.85095  Biso   1.000  C
  C33      1.0000 0.59402  0.00646  0.63717  Biso   1.000  C
  C34      1.0000 0.69050  0.03450  0.88674  Biso   1.000  C
  C35      1.0000 0.76165  0.00522  0.91962  Biso   1.000  C
  C36      1.0000 0.68780  0.12199  0.89331  Biso   1.000  C
  C37      1.0000 0.50884  0.61891  0.28239  Biso   1.000  C
  C38      1.0000 0.51831  0.62843  0.35095  Biso   1.000  C
  C39      1.0000 0.49354  0.59402  0.13717  Biso   1.000  C
  C40      1.0000 0.46550  0.69050  0.38674  Biso   1.000  C
  C41      1.0000 0.49478  0.76165  0.41962  Biso   1.000  C
  C42      1.0000 0.37801  0.68780  0.39331  Biso   1.000  C
  C43      1.0000 0.99116  0.88109  0.28239  Biso   1.000  C
  C44      1.0000 0.98169  0.87157  0.35095  Biso   1.000  C
  C45      1.0000 0.00646  0.90598  0.13717  Biso   1.000  C
  C46      1.0000 0.03450  0.80950  0.38674  Biso   1.000  C
  C47      1.0000 0.00522  0.73835  0.41962  Biso   1.000  C
  C48      1.0000 0.12199  0.81220  0.39331  Biso   1.000  C
  C49      1.0000 0.88109  0.99116  0.28239  Biso   1.000  C
  C50      1.0000 0.87157  0.98169  0.35095  Biso   1.000  C
  C51      1.0000 0.90598  0.00646  0.13717  Biso   1.000  C
  C52      1.0000 0.80950  0.03450  0.38674  Biso   1.000  C
  C53      1.0000 0.73835  0.00522  0.41962  Biso   1.000  C
  C54      1.0000 0.81220  0.12199  0.39331  Biso   1.000  C
  C55      1.0000 0.61891  0.50884  0.28239  Biso   1.000  C
  C56      1.0000 0.62843  0.51831  0.35095  Biso   1.000  C
  C57      1.0000 0.59402  0.49354  0.13717  Biso   1.000  C
  C58      1.0000 0.69050  0.46550  0.38674  Biso   1.000  C
  C59      1.0000 0.76165  0.49478  0.41962  Biso   1.000  C
  C60      1.0000 0.68780  0.37801  0.39331  Biso   1.000  C
  C61      1.0000 0.50884  0.88109  0.78239  Biso   1.000  C
  C62      1.0000 0.51831  0.87157  0.85095  Biso   1.000  C
  C63      1.0000 0.49354  0.90598  0.63717  Biso   1.000  C
  C64      1.0000 0.46550  0.80950  0.88674  Biso   1.000  C
  C65      1.0000 0.49478  0.73835  0.91962  Biso   1.000  C
  C66      1.0000 0.37801  0.81220  0.89331  Biso   1.000  C
  C67      1.0000 0.99116  0.61891  0.78239  Biso   1.000  C
  C68      1.0000 0.98169  0.62843  0.85095  Biso   1.000  C
  C69      1.0000 0.00646  0.59402  0.63717  Biso   1.000  C
  C70      1.0000 0.03450  0.69050  0.88674  Biso   1.000  C
  C71      1.0000 0.00522  0.76165  0.91962  Biso   1.000  C
  C72      1.0000 0.12199  0.68780  0.89331  Biso   1.000  C
  C73      1.0000 0.11891  0.49116  0.21761  Biso   1.000  C
  C74      1.0000 0.12843  0.48169  0.14905  Biso   1.000  C
  C75      1.0000 0.09402  0.50646  0.36283  Biso   1.000  C
  C76      1.0000 0.19050  0.53450  0.11326  Biso   1.000  C
  C77      1.0000 0.26165  0.50522  0.08038  Biso   1.000  C
  C78      1.0000 0.18780  0.62199  0.10669  Biso   1.000  C
  C79      1.0000 0.38109  0.00884  0.21761  Biso   1.000  C
  C80      1.0000 0.37157  0.01831  0.14905  Biso   1.000  C
  C81      1.0000 0.40598  0.99354  0.36283  Biso   1.000  C
  C82      1.0000 0.30950  0.96550  0.11326  Biso   1.000  C
  C83      1.0000 0.23835  0.99478  0.08038  Biso   1.000  C
  C84      1.0000 0.31220  0.87801  0.10669  Biso   1.000  C
  C85      1.0000 0.49116  0.38109  0.71761  Biso   1.000  C
  C86      1.0000 0.48169  0.37157  0.64905  Biso   1.000  C
  C87      1.0000 0.50646  0.40598  0.86283  Biso   1.000  C
  C88      1.0000 0.53450  0.30950  0.61326  Biso   1.000  C
  C89      1.0000 0.50522  0.23835  0.58038  Biso   1.000  C
  C90      1.0000 0.62199  0.31220  0.60669  Biso   1.000  C
  C91      1.0000 0.00884  0.11891  0.71761  Biso   1.000  C
  C92      1.0000 0.01831  0.12843  0.64905  Biso   1.000  C
  C93      1.0000 0.99354  0.09402  0.86283  Biso   1.000  C
  C94      1.0000 0.96550  0.19050  0.61326  Biso   1.000  C
  C95      1.0000 0.99478  0.26165  0.58038  Biso   1.000  C
  C96      1.0000 0.87801  0.18780  0.60669  Biso   1.000  C
  C97      1.0000 0.05943  0.05943  0.75191  Biso   1.000  C
  C98      1.0000 0.07843  0.07843  0.61480  Biso   1.000  C
  C99      1.0000 0.04953  0.04953  0.82343  Biso   1.000  C
  C100     1.0000 0.44057  0.44057  0.75191  Biso   1.000  C
  C101     1.0000 0.42157  0.42157  0.61480  Biso   1.000  C
  C102     1.0000 0.45048  0.45047  0.82343  Biso   1.000  C
  C103     1.0000 0.44057  0.05943  0.25191  Biso   1.000  C
  C104     1.0000 0.42157  0.07843  0.11480  Biso   1.000  C
  C105     1.0000 0.45047  0.04953  0.32343  Biso   1.000  C
  C106     1.0000 0.05943  0.44057  0.25191  Biso   1.000  C
  C107     1.0000 0.07843  0.42157  0.11480  Biso   1.000  C
  C108     1.0000 0.04953  0.45048  0.32343  Biso   1.000  C
  C109     1.0000 0.94057  0.55943  0.74809  Biso   1.000  C
  C110     1.0000 0.92157  0.57843  0.88520  Biso   1.000  C
  C111     1.0000 0.95047  0.54952  0.67657  Biso   1.000  C
  C112     1.0000 0.55943  0.94057  0.74809  Biso   1.000  C
  C113     1.0000 0.57843  0.92157  0.88520  Biso   1.000  C
  C114     1.0000 0.54953  0.95048  0.67657  Biso   1.000  C
  C115     1.0000 0.55943  0.55943  0.24809  Biso   1.000  C
  C116     1.0000 0.57843  0.57843  0.38520  Biso   1.000  C
  C117     1.0000 0.54952  0.54953  0.17657  Biso   1.000  C
  C118     1.0000 0.94057  0.94057  0.24809  Biso   1.000  C
  C119     1.0000 0.92157  0.92157  0.38520  Biso   1.000  C
  C120     1.0000 0.95048  0.95047  0.17657  Biso   1.000  C
  N1       1.0000 0.06605  0.00405  0.92663  Biso   1.000  N
  N2       1.0000 0.30291  0.92537  0.55348  Biso   1.000  N
  N3       1.0000 0.25727  0.85320  0.56975  Biso   1.000  N
  N4       1.0000 0.43395  0.49595  0.92663  Biso   1.000  N
  N5       1.0000 0.19709  0.57463  0.55348  Biso   1.000  N
  N6       1.0000 0.24273  0.64680  0.56975  Biso   1.000  N
  N7       1.0000 0.49595  0.06605  0.42663  Biso   1.000  N
  N8       1.0000 0.57463  0.30291  0.05348  Biso   1.000  N
  N9       1.0000 0.64680  0.25727  0.06975  Biso   1.000  N
  N10      1.0000 0.00405  0.43395  0.42663  Biso   1.000  N
  N11      1.0000 0.92537  0.19709  0.05348  Biso   1.000  N
  N12      1.0000 0.85320  0.24273  0.06975  Biso   1.000  N
  N13      1.0000 0.93395  0.50405  0.57337  Biso   1.000  N
  N14      1.0000 0.69709  0.42537  0.94652  Biso   1.000  N
  N15      1.0000 0.74273  0.35320  0.93025  Biso   1.000  N
  N16      1.0000 0.56605  0.99595  0.57337  Biso   1.000  N
  N17      1.0000 0.80291  0.07463  0.94652  Biso   1.000  N
  N18      1.0000 0.75727  0.14680  0.93025  Biso   1.000  N
  N19      1.0000 0.50405  0.56605  0.07337  Biso   1.000  N
  N20      1.0000 0.42537  0.80291  0.44652  Biso   1.000  N
  N21      1.0000 0.35320  0.75727  0.43025  Biso   1.000  N
  N22      1.0000 0.99595  0.93395  0.07337  Biso   1.000  N
  N23      1.0000 0.07463  0.69709  0.44652  Biso   1.000  N
  N24      1.0000 0.14680  0.74273  0.43025  Biso   1.000  N
  N25      1.0000 0.93395  0.99595  0.07337  Biso   1.000  N
  N26      1.0000 0.69709  0.07463  0.44652  Biso   1.000  N
  N27      1.0000 0.74273  0.14680  0.43025  Biso   1.000  N
  N28      1.0000 0.56605  0.50405  0.07337  Biso   1.000  N
  N29      1.0000 0.80291  0.42537  0.44652  Biso   1.000  N
  N30      1.0000 0.75727  0.35320  0.43025  Biso   1.000  N
  N31      1.0000 0.50405  0.93395  0.57337  Biso   1.000  N
  N32      1.0000 0.42537  0.69709  0.94652  Biso   1.000  N
  N33      1.0000 0.35320  0.74273  0.93025  Biso   1.000  N
  N34      1.0000 0.99595  0.56605  0.57337  Biso   1.000  N
  N35      1.0000 0.07463  0.80291  0.94652  Biso   1.000  N
  N36      1.0000 0.14680  0.75727  0.93025  Biso   1.000  N
  N37      1.0000 0.06605  0.49595  0.42663  Biso   1.000  N
  N38      1.0000 0.30291  0.57463  0.05348  Biso   1.000  N
  N39      1.0000 0.25727  0.64680  0.06975  Biso   1.000  N
  N40      1.0000 0.43395  0.00405  0.42663  Biso   1.000  N
  N41      1.0000 0.19709  0.92537  0.05348  Biso   1.000  N
  N42      1.0000 0.24273  0.85320  0.06975  Biso   1.000  N
  N43      1.0000 0.49595  0.43395  0.92663  Biso   1.000  N
  N44      1.0000 0.57463  0.19709  0.55348  Biso   1.000  N
  N45      1.0000 0.64680  0.24273  0.56975  Biso   1.000  N
  N46      1.0000 0.00405  0.06605  0.92663  Biso   1.000  N
  N47      1.0000 0.92537  0.30291  0.55348  Biso   1.000  N
  N48      1.0000 0.85320  0.25727  0.56975  Biso   1.000  N
