data_image0
_cell_length_a       12.034
_cell_length_b       19.803
_cell_length_c       16.389
_cell_angle_alpha    90
_cell_angle_beta     90
_cell_angle_gamma    90

_symmetry_space_group_name_H-M    P 1
_symmetry_int_tables_number       1

loop_
  _symmetry_equiv_pos_as_xyz
  'x, y, z'

loop_
  _atom_site_label
  _atom_site_occupancy
  _atom_site_fract_x
  _atom_site_fract_y
  _atom_site_fract_z
  _atom_site_thermal_displace_type
  _atom_site_B_iso_or_equiv
  _atom_site_type_symbol
  Zn1      1.0000 0.58278  0.33164  0.96941  Biso   1.000  Zn
  Zn2      1.0000 0.91722  0.16836  0.96941  Biso   1.000  Zn
  Zn3      1.0000 0.08278  0.66836  0.53059  Biso   1.000  Zn
  Zn4      1.0000 0.41722  0.83164  0.53059  Biso   1.000  Zn
  Zn5      1.0000 0.41722  0.66836  0.03059  Biso   1.000  Zn
  Zn6      1.0000 0.08278  0.83164  0.03059  Biso   1.000  Zn
  Zn7      1.0000 0.91722  0.33164  0.46941  Biso   1.000  Zn
  Zn8      1.0000 0.58278  0.16836  0.46941  Biso   1.000  Zn
  H1       1.0000 0.37370  0.32610  0.87280  Biso   1.000  H
  H2       1.0000 0.20930  0.38640  0.85600  Biso   1.000  H
  H3       1.0000 0.30330  0.51410  0.03250  Biso   1.000  H
  H4       1.0000 0.46560  0.45280  0.05060  Biso   1.000  H
  H5       1.0000 0.12410  0.49450  0.87640  Biso   1.000  H
  H6       1.0000 0.15150  0.53680  0.95330  Biso   1.000  H
  H7       1.0000 0.97780  0.48760  0.92230  Biso   1.000  H
  H8       1.0000 0.90500  0.40250  0.86870  Biso   1.000  H
  H9       1.0000 0.86430  0.28780  0.87280  Biso   1.000  H
  H10      1.0000 0.10000  0.38200  0.06820  Biso   1.000  H
  H11      1.0000 0.05890  0.26690  0.07030  Biso   1.000  H
  H12      1.0000 0.80110  0.35810  0.73810  Biso   1.000  H
  H13      1.0000 0.60350  0.35090  0.64480  Biso   1.000  H
  H14      1.0000 0.12630  0.17390  0.87280  Biso   1.000  H
  H15      1.0000 0.29070  0.11360  0.85600  Biso   1.000  H
  H16      1.0000 0.19670  0.98590  0.03250  Biso   1.000  H
  H17      1.0000 0.03440  0.04720  0.05060  Biso   1.000  H
  H18      1.0000 0.37590  0.00550  0.87640  Biso   1.000  H
  H19      1.0000 0.34850  0.96320  0.95330  Biso   1.000  H
  H20      1.0000 0.52220  0.01240  0.92230  Biso   1.000  H
  H21      1.0000 0.59500  0.09750  0.86870  Biso   1.000  H
  H22      1.0000 0.63570  0.21220  0.87280  Biso   1.000  H
  H23      1.0000 0.40000  0.11800  0.06820  Biso   1.000  H
  H24      1.0000 0.44110  0.23310  0.07030  Biso   1.000  H
  H25      1.0000 0.69890  0.14190  0.73810  Biso   1.000  H
  H26      1.0000 0.89650  0.14910  0.64480  Biso   1.000  H
  H27      1.0000 0.87370  0.67390  0.62720  Biso   1.000  H
  H28      1.0000 0.70930  0.61360  0.64400  Biso   1.000  H
  H29      1.0000 0.80330  0.48590  0.46750  Biso   1.000  H
  H30      1.0000 0.96560  0.54720  0.44940  Biso   1.000  H
  H31      1.0000 0.62410  0.50550  0.62360  Biso   1.000  H
  H32      1.0000 0.65150  0.46320  0.54670  Biso   1.000  H
  H33      1.0000 0.47780  0.51240  0.57770  Biso   1.000  H
  H34      1.0000 0.40500  0.59750  0.63130  Biso   1.000  H
  H35      1.0000 0.36430  0.71220  0.62720  Biso   1.000  H
  H36      1.0000 0.60000  0.61800  0.43180  Biso   1.000  H
  H37      1.0000 0.55890  0.73310  0.42970  Biso   1.000  H
  H38      1.0000 0.30110  0.64190  0.76190  Biso   1.000  H
  H39      1.0000 0.10350  0.64910  0.85520  Biso   1.000  H
  H40      1.0000 0.62630  0.82610  0.62720  Biso   1.000  H
  H41      1.0000 0.79070  0.88640  0.64400  Biso   1.000  H
  H42      1.0000 0.69670  0.01410  0.46750  Biso   1.000  H
  H43      1.0000 0.53440  0.95280  0.44940  Biso   1.000  H
  H44      1.0000 0.87590  0.99450  0.62360  Biso   1.000  H
  H45      1.0000 0.84850  0.03680  0.54670  Biso   1.000  H
  H46      1.0000 0.02220  0.98760  0.57770  Biso   1.000  H
  H47      1.0000 0.09500  0.90250  0.63130  Biso   1.000  H
  H48      1.0000 0.13570  0.78780  0.62720  Biso   1.000  H
  H49      1.0000 0.90000  0.88200  0.43180  Biso   1.000  H
  H50      1.0000 0.94110  0.76690  0.42970  Biso   1.000  H
  H51      1.0000 0.19890  0.85810  0.76190  Biso   1.000  H
  H52      1.0000 0.39650  0.85090  0.85520  Biso   1.000  H
  H53      1.0000 0.62630  0.67390  0.12720  Biso   1.000  H
  H54      1.0000 0.79070  0.61360  0.14400  Biso   1.000  H
  H55      1.0000 0.69670  0.48590  0.96750  Biso   1.000  H
  H56      1.0000 0.53440  0.54720  0.94940  Biso   1.000  H
  H57      1.0000 0.87590  0.50550  0.12360  Biso   1.000  H
  H58      1.0000 0.84850  0.46320  0.04670  Biso   1.000  H
  H59      1.0000 0.02220  0.51240  0.07770  Biso   1.000  H
  H60      1.0000 0.09500  0.59750  0.13130  Biso   1.000  H
  H61      1.0000 0.13570  0.71220  0.12720  Biso   1.000  H
  H62      1.0000 0.90000  0.61800  0.93180  Biso   1.000  H
  H63      1.0000 0.94110  0.73310  0.92970  Biso   1.000  H
  H64      1.0000 0.19890  0.64190  0.26190  Biso   1.000  H
  H65      1.0000 0.39650  0.64910  0.35520  Biso   1.000  H
  H66      1.0000 0.87370  0.82610  0.12720  Biso   1.000  H
  H67      1.0000 0.70930  0.88640  0.14400  Biso   1.000  H
  H68      1.0000 0.80330  0.01410  0.96750  Biso   1.000  H
  H69      1.0000 0.96560  0.95280  0.94940  Biso   1.000  H
  H70      1.0000 0.62410  0.99450  0.12360  Biso   1.000  H
  H71      1.0000 0.65150  0.03680  0.04670  Biso   1.000  H
  H72      1.0000 0.47780  0.98760  0.07770  Biso   1.000  H
  H73      1.0000 0.40500  0.90250  0.13130  Biso   1.000  H
  H74      1.0000 0.36430  0.78780  0.12720  Biso   1.000  H
  H75      1.0000 0.60000  0.88200  0.93180  Biso   1.000  H
  H76      1.0000 0.55890  0.76690  0.92970  Biso   1.000  H
  H77      1.0000 0.30110  0.85810  0.26190  Biso   1.000  H
  H78      1.0000 0.10350  0.85090  0.35520  Biso   1.000  H
  H79      1.0000 0.12630  0.32610  0.37280  Biso   1.000  H
  H80      1.0000 0.29070  0.38640  0.35600  Biso   1.000  H
  H81      1.0000 0.19670  0.51410  0.53250  Biso   1.000  H
  H82      1.0000 0.03440  0.45280  0.55060  Biso   1.000  H
  H83      1.0000 0.37590  0.49450  0.37640  Biso   1.000  H
  H84      1.0000 0.34850  0.53680  0.45330  Biso   1.000  H
  H85      1.0000 0.52220  0.48760  0.42230  Biso   1.000  H
  H86      1.0000 0.59500  0.40250  0.36870  Biso   1.000  H
  H87      1.0000 0.63570  0.28780  0.37280  Biso   1.000  H
  H88      1.0000 0.40000  0.38200  0.56820  Biso   1.000  H
  H89      1.0000 0.44110  0.26690  0.57030  Biso   1.000  H
  H90      1.0000 0.69890  0.35810  0.23810  Biso   1.000  H
  H91      1.0000 0.89650  0.35090  0.14480  Biso   1.000  H
  H92      1.0000 0.37370  0.17390  0.37280  Biso   1.000  H
  H93      1.0000 0.20930  0.11360  0.35600  Biso   1.000  H
  H94      1.0000 0.30330  0.98590  0.53250  Biso   1.000  H
  H95      1.0000 0.46560  0.04720  0.55060  Biso   1.000  H
  H96      1.0000 0.12410  0.00550  0.37640  Biso   1.000  H
  H97      1.0000 0.15150  0.96320  0.45330  Biso   1.000  H
  H98      1.0000 0.97780  0.01240  0.42230  Biso   1.000  H
  H99      1.0000 0.90500  0.09750  0.36870  Biso   1.000  H
  H100     1.0000 0.86430  0.21220  0.37280  Biso   1.000  H
  H101     1.0000 0.10000  0.11800  0.56820  Biso   1.000  H
  H102     1.0000 0.05890  0.23310  0.57030  Biso   1.000  H
  H103     1.0000 0.80110  0.14190  0.23810  Biso   1.000  H
  H104     1.0000 0.60350  0.14910  0.14480  Biso   1.000  H
  C1       1.0000 0.35960  0.36388  0.90480  Biso   1.000  C
  C2       1.0000 0.26070  0.39990  0.89520  Biso   1.000  C
  C3       1.0000 0.23870  0.45559  0.94370  Biso   1.000  C
  C4       1.0000 0.31660  0.47600  0.00080  Biso   1.000  C
  C5       1.0000 0.41480  0.43970  0.01090  Biso   1.000  C
  C6       1.0000 0.13580  0.49120  0.93480  Biso   1.000  C
  C7       1.0000 0.02320  0.47490  0.96950  Biso   1.000  C
  C8       1.0000 0.00250  0.40330  0.96880  Biso   1.000  C
  C9       1.0000 0.93480  0.37540  0.90960  Biso   1.000  C
  C10      1.0000 0.91140  0.30680  0.91150  Biso   1.000  C
  C11      1.0000 0.05250  0.36320  0.02970  Biso   1.000  C
  C12      1.0000 0.02820  0.29430  0.03020  Biso   1.000  C
  C13      1.0000 0.65510  0.36830  0.79940  Biso   1.000  C
  C14      1.0000 0.72450  0.36040  0.73100  Biso   1.000  C
  C15      1.0000 0.67980  0.35590  0.65170  Biso   1.000  C
  C16      1.0000 0.74760  0.35890  0.58480  Biso   1.000  C
  C17      1.0000 0.14040  0.13612  0.90480  Biso   1.000  C
  C18      1.0000 0.23930  0.10010  0.89520  Biso   1.000  C
  C19      1.0000 0.26130  0.04441  0.94370  Biso   1.000  C
  C20      1.0000 0.18340  0.02400  0.00080  Biso   1.000  C
  C21      1.0000 0.08520  0.06030  0.01090  Biso   1.000  C
  C22      1.0000 0.36420  0.00880  0.93480  Biso   1.000  C
  C23      1.0000 0.47680  0.02510  0.96950  Biso   1.000  C
  C24      1.0000 0.49750  0.09670  0.96880  Biso   1.000  C
  C25      1.0000 0.56520  0.12460  0.90960  Biso   1.000  C
  C26      1.0000 0.58860  0.19320  0.91150  Biso   1.000  C
  C27      1.0000 0.44750  0.13680  0.02970  Biso   1.000  C
  C28      1.0000 0.47180  0.20570  0.03020  Biso   1.000  C
  C29      1.0000 0.84490  0.13170  0.79940  Biso   1.000  C
  C30      1.0000 0.77550  0.13960  0.73100  Biso   1.000  C
  C31      1.0000 0.82020  0.14410  0.65170  Biso   1.000  C
  C32      1.0000 0.75240  0.14110  0.58480  Biso   1.000  C
  C33      1.0000 0.85960  0.63612  0.59520  Biso   1.000  C
  C34      1.0000 0.76070  0.60010  0.60480  Biso   1.000  C
  C35      1.0000 0.73870  0.54441  0.55630  Biso   1.000  C
  C36      1.0000 0.81660  0.52400  0.49920  Biso   1.000  C
  C37      1.0000 0.91480  0.56030  0.48910  Biso   1.000  C
  C38      1.0000 0.63580  0.50880  0.56520  Biso   1.000  C
  C39      1.0000 0.52320  0.52510  0.53050  Biso   1.000  C
  C40      1.0000 0.50250  0.59670  0.53120  Biso   1.000  C
  C41      1.0000 0.43480  0.62460  0.59040  Biso   1.000  C
  C42      1.0000 0.41140  0.69320  0.58850  Biso   1.000  C
  C43      1.0000 0.55250  0.63680  0.47030  Biso   1.000  C
  C44      1.0000 0.52820  0.70570  0.46980  Biso   1.000  C
  C45      1.0000 0.15510  0.63170  0.70060  Biso   1.000  C
  C46      1.0000 0.22450  0.63960  0.76900  Biso   1.000  C
  C47      1.0000 0.17980  0.64410  0.84830  Biso   1.000  C
  C48      1.0000 0.24760  0.64110  0.91520  Biso   1.000  C
  C49      1.0000 0.64040  0.86388  0.59520  Biso   1.000  C
  C50      1.0000 0.73930  0.89990  0.60480  Biso   1.000  C
  C51      1.0000 0.76130  0.95559  0.55630  Biso   1.000  C
  C52      1.0000 0.68340  0.97600  0.49920  Biso   1.000  C
  C53      1.0000 0.58520  0.93970  0.48910  Biso   1.000  C
  C54      1.0000 0.86420  0.99120  0.56520  Biso   1.000  C
  C55      1.0000 0.97680  0.97490  0.53050  Biso   1.000  C
  C56      1.0000 0.99750  0.90330  0.53120  Biso   1.000  C
  C57      1.0000 0.06520  0.87540  0.59040  Biso   1.000  C
  C58      1.0000 0.08860  0.80680  0.58850  Biso   1.000  C
  C59      1.0000 0.94750  0.86320  0.47030  Biso   1.000  C
  C60      1.0000 0.97180  0.79430  0.46980  Biso   1.000  C
  C61      1.0000 0.34490  0.86830  0.70060  Biso   1.000  C
  C62      1.0000 0.27550  0.86040  0.76900  Biso   1.000  C
  C63      1.0000 0.32020  0.85590  0.84830  Biso   1.000  C
  C64      1.0000 0.25240  0.85890  0.91520  Biso   1.000  C
  C65      1.0000 0.64040  0.63612  0.09520  Biso   1.000  C
  C66      1.0000 0.73930  0.60010  0.10480  Biso   1.000  C
  C67      1.0000 0.76130  0.54441  0.05630  Biso   1.000  C
  C68      1.0000 0.68340  0.52400  0.99920  Biso   1.000  C
  C69      1.0000 0.58520  0.56030  0.98910  Biso   1.000  C
  C70      1.0000 0.86420  0.50880  0.06520  Biso   1.000  C
  C71      1.0000 0.97680  0.52510  0.03050  Biso   1.000  C
  C72      1.0000 0.99750  0.59670  0.03120  Biso   1.000  C
  C73      1.0000 0.06520  0.62460  0.09040  Biso   1.000  C
  C74      1.0000 0.08860  0.69320  0.08850  Biso   1.000  C
  C75      1.0000 0.94750  0.63680  0.97030  Biso   1.000  C
  C76      1.0000 0.97180  0.70570  0.96980  Biso   1.000  C
  C77      1.0000 0.34490  0.63170  0.20060  Biso   1.000  C
  C78      1.0000 0.27550  0.63960  0.26900  Biso   1.000  C
  C79      1.0000 0.32020  0.64410  0.34830  Biso   1.000  C
  C80      1.0000 0.25240  0.64110  0.41520  Biso   1.000  C
  C81      1.0000 0.85960  0.86388  0.09520  Biso   1.000  C
  C82      1.0000 0.76070  0.89990  0.10480  Biso   1.000  C
  C83      1.0000 0.73870  0.95559  0.05630  Biso   1.000  C
  C84      1.0000 0.81660  0.97600  0.99920  Biso   1.000  C
  C85      1.0000 0.91480  0.93970  0.98910  Biso   1.000  C
  C86      1.0000 0.63580  0.99120  0.06520  Biso   1.000  C
  C87      1.0000 0.52320  0.97490  0.03050  Biso   1.000  C
  C88      1.0000 0.50250  0.90330  0.03120  Biso   1.000  C
  C89      1.0000 0.43480  0.87540  0.09040  Biso   1.000  C
  C90      1.0000 0.41140  0.80680  0.08850  Biso   1.000  C
  C91      1.0000 0.55250  0.86320  0.97030  Biso   1.000  C
  C92      1.0000 0.52820  0.79430  0.96980  Biso   1.000  C
  C93      1.0000 0.15510  0.86830  0.20060  Biso   1.000  C
  C94      1.0000 0.22450  0.86040  0.26900  Biso   1.000  C
  C95      1.0000 0.17980  0.85590  0.34830  Biso   1.000  C
  C96      1.0000 0.24760  0.85890  0.41520  Biso   1.000  C
  C97      1.0000 0.14040  0.36388  0.40480  Biso   1.000  C
  C98      1.0000 0.23930  0.39990  0.39520  Biso   1.000  C
  C99      1.0000 0.26130  0.45559  0.44370  Biso   1.000  C
  C100     1.0000 0.18340  0.47600  0.50080  Biso   1.000  C
  C101     1.0000 0.08520  0.43970  0.51090  Biso   1.000  C
  C102     1.0000 0.36420  0.49120  0.43480  Biso   1.000  C
  C103     1.0000 0.47680  0.47490  0.46950  Biso   1.000  C
  C104     1.0000 0.49750  0.40330  0.46880  Biso   1.000  C
  C105     1.0000 0.56520  0.37540  0.40960  Biso   1.000  C
  C106     1.0000 0.58860  0.30680  0.41150  Biso   1.000  C
  C107     1.0000 0.44750  0.36320  0.52970  Biso   1.000  C
  C108     1.0000 0.47180  0.29430  0.53020  Biso   1.000  C
  C109     1.0000 0.84490  0.36830  0.29940  Biso   1.000  C
  C110     1.0000 0.77550  0.36040  0.23100  Biso   1.000  C
  C111     1.0000 0.82020  0.35590  0.15170  Biso   1.000  C
  C112     1.0000 0.75240  0.35890  0.08480  Biso   1.000  C
  C113     1.0000 0.35960  0.13612  0.40480  Biso   1.000  C
  C114     1.0000 0.26070  0.10010  0.39520  Biso   1.000  C
  C115     1.0000 0.23870  0.04441  0.44370  Biso   1.000  C
  C116     1.0000 0.31660  0.02400  0.50080  Biso   1.000  C
  C117     1.0000 0.41480  0.06030  0.51090  Biso   1.000  C
  C118     1.0000 0.13580  0.00880  0.43480  Biso   1.000  C
  C119     1.0000 0.02320  0.02510  0.46950  Biso   1.000  C
  C120     1.0000 0.00250  0.09670  0.46880  Biso   1.000  C
  C121     1.0000 0.93480  0.12460  0.40960  Biso   1.000  C
  C122     1.0000 0.91140  0.19320  0.41150  Biso   1.000  C
  C123     1.0000 0.05250  0.13680  0.52970  Biso   1.000  C
  C124     1.0000 0.02820  0.20570  0.53020  Biso   1.000  C
  C125     1.0000 0.65510  0.13170  0.29940  Biso   1.000  C
  C126     1.0000 0.72450  0.13960  0.23100  Biso   1.000  C
  C127     1.0000 0.67980  0.14410  0.15170  Biso   1.000  C
  C128     1.0000 0.74760  0.14110  0.08480  Biso   1.000  C
  N1       1.0000 0.43720  0.38484  0.96255  Biso   1.000  N
  N2       1.0000 0.95940  0.26650  0.97220  Biso   1.000  N
  N3       1.0000 0.06280  0.11516  0.96255  Biso   1.000  N
  N4       1.0000 0.54060  0.23350  0.97220  Biso   1.000  N
  N5       1.0000 0.93720  0.61516  0.53745  Biso   1.000  N
  N6       1.0000 0.45940  0.73350  0.52780  Biso   1.000  N
  N7       1.0000 0.56280  0.88484  0.53745  Biso   1.000  N
  N8       1.0000 0.04060  0.76650  0.52780  Biso   1.000  N
  N9       1.0000 0.56280  0.61516  0.03745  Biso   1.000  N
  N10      1.0000 0.04060  0.73350  0.02780  Biso   1.000  N
  N11      1.0000 0.93720  0.88484  0.03745  Biso   1.000  N
  N12      1.0000 0.45940  0.76650  0.02780  Biso   1.000  N
  N13      1.0000 0.06280  0.38484  0.46255  Biso   1.000  N
  N14      1.0000 0.54060  0.26650  0.47220  Biso   1.000  N
  N15      1.0000 0.43720  0.11516  0.46255  Biso   1.000  N
  N16      1.0000 0.95940  0.23350  0.47220  Biso   1.000  N
  O1       1.0000 0.67550  0.33956  0.86116  Biso   1.000  O
  O2       1.0000 0.57170  0.40880  0.79469  Biso   1.000  O
  O3       1.0000 0.71300  0.38421  0.52057  Biso   1.000  O
  O4       1.0000 0.84460  0.34417  0.58602  Biso   1.000  O
  O5       1.0000 0.82450  0.16044  0.86116  Biso   1.000  O
  O6       1.0000 0.92830  0.09120  0.79469  Biso   1.000  O
  O7       1.0000 0.78700  0.11579  0.52057  Biso   1.000  O
  O8       1.0000 0.65540  0.15583  0.58602  Biso   1.000  O
  O9       1.0000 0.17550  0.66044  0.63884  Biso   1.000  O
  O10      1.0000 0.07170  0.59120  0.70531  Biso   1.000  O
  O11      1.0000 0.21300  0.61579  0.97943  Biso   1.000  O
  O12      1.0000 0.34460  0.65583  0.91398  Biso   1.000  O
  O13      1.0000 0.32450  0.83956  0.63884  Biso   1.000  O
  O14      1.0000 0.42830  0.90880  0.70531  Biso   1.000  O
  O15      1.0000 0.28700  0.88421  0.97943  Biso   1.000  O
  O16      1.0000 0.15540  0.84417  0.91398  Biso   1.000  O
  O17      1.0000 0.32450  0.66044  0.13884  Biso   1.000  O
  O18      1.0000 0.42830  0.59120  0.20531  Biso   1.000  O
  O19      1.0000 0.28700  0.61579  0.47943  Biso   1.000  O
  O20      1.0000 0.15540  0.65583  0.41398  Biso   1.000  O
  O21      1.0000 0.17550  0.83956  0.13884  Biso   1.000  O
  O22      1.0000 0.07170  0.90880  0.20531  Biso   1.000  O
  O23      1.0000 0.21300  0.88421  0.47943  Biso   1.000  O
  O24      1.0000 0.34460  0.84417  0.41398  Biso   1.000  O
  O25      1.0000 0.82450  0.33956  0.36116  Biso   1.000  O
  O26      1.0000 0.92830  0.40880  0.29469  Biso   1.000  O
  O27      1.0000 0.78700  0.38421  0.02057  Biso   1.000  O
  O28      1.0000 0.65540  0.34417  0.08602  Biso   1.000  O
  O29      1.0000 0.67550  0.16044  0.36116  Biso   1.000  O
  O30      1.0000 0.57170  0.09120  0.29469  Biso   1.000  O
  O31      1.0000 0.71300  0.11579  0.02057  Biso   1.000  O
  O32      1.0000 0.84460  0.15583  0.08602  Biso   1.000  O
