data_image0
_cell_length_a       8.715
_cell_length_b       12.934
_cell_length_c       14.0605
_cell_angle_alpha    62.6167
_cell_angle_beta     83.686
_cell_angle_gamma    76.1659

_symmetry_space_group_name_H-M    P 1
_symmetry_int_tables_number       1

loop_
  _symmetry_equiv_pos_as_xyz
  'x, y, z'

loop_
  _atom_site_label
  _atom_site_occupancy
  _atom_site_fract_x
  _atom_site_fract_y
  _atom_site_fract_z
  _atom_site_thermal_displace_type
  _atom_site_B_iso_or_equiv
  _atom_site_type_symbol
  Zn1      1.0000 0.36757  0.74115  0.82246  Biso   1.000  Zn
  Zn2      1.0000 0.86757  0.56361  0.17754  Biso   1.000  Zn
  H1       1.0000 0.09300  0.09630  0.46840  Biso   1.000  H
  H2       1.0000 0.85010  0.20040  0.39220  Biso   1.000  H
  H3       1.0000 0.64380  0.02040  0.66480  Biso   1.000  H
  H4       1.0000 0.87850  0.91990  0.74320  Biso   1.000  H
  H5       1.0000 0.47570  0.16230  0.51580  Biso   1.000  H
  H6       1.0000 0.62280  0.31640  0.34400  Biso   1.000  H
  H7       1.0000 0.24830  0.26140  0.45900  Biso   1.000  H
  H8       1.0000 0.00150  0.37330  0.38280  Biso   1.000  H
  H9       1.0000 0.20870  0.56600  0.12580  Biso   1.000  H
  H10      1.0000 0.45240  0.47370  0.19580  Biso   1.000  H
  H11      1.0000 0.23980  0.43540  0.77860  Biso   1.000  H
  H12      1.0000 0.14970  0.26130  0.84040  Biso   1.000  H
  H13      1.0000 0.14500  0.22040  0.13880  Biso   1.000  H
  H14      1.0000 0.24570  0.39200  0.07740  Biso   1.000  H
  H15      1.0000 0.05100  0.08200  0.10620  Biso   1.000  H
  H16      1.0000 0.08260  0.09440  0.90500  Biso   1.000  H
  H17      1.0000 0.05710  0.92550  0.88900  Biso   1.000  H
  H18      1.0000 0.96750  0.74890  0.95440  Biso   1.000  H
  H19      1.0000 0.85830  0.75910  0.22920  Biso   1.000  H
  H20      1.0000 0.93550  0.93050  0.16820  Biso   1.000  H
  H21      1.0000 0.59300  0.56470  0.53160  Biso   1.000  H
  H22      1.0000 0.35010  0.59260  0.60780  Biso   1.000  H
  H23      1.0000 0.14380  0.68520  0.33520  Biso   1.000  H
  H24      1.0000 0.37850  0.66310  0.25680  Biso   1.000  H
  H25      1.0000 0.97570  0.67810  0.48420  Biso   1.000  H
  H26      1.0000 0.12280  0.66040  0.65600  Biso   1.000  H
  H27      1.0000 0.74830  0.72040  0.54100  Biso   1.000  H
  H28      1.0000 0.50150  0.75610  0.61720  Biso   1.000  H
  H29      1.0000 0.70870  0.69180  0.87420  Biso   1.000  H
  H30      1.0000 0.95240  0.66950  0.80420  Biso   1.000  H
  H31      1.0000 0.73980  0.21400  0.22140  Biso   1.000  H
  H32      1.0000 0.64970  0.10170  0.15960  Biso   1.000  H
  H33      1.0000 0.64500  0.35920  0.86120  Biso   1.000  H
  H34      1.0000 0.74570  0.46940  0.92260  Biso   1.000  H
  H35      1.0000 0.55100  0.18820  0.89380  Biso   1.000  H
  H36      1.0000 0.58260  0.99940  0.09500  Biso   1.000  H
  H37      1.0000 0.55710  0.81450  0.11100  Biso   1.000  H
  H38      1.0000 0.46750  0.70330  0.04560  Biso   1.000  H
  H39      1.0000 0.35830  0.98830  0.77080  Biso   1.000  H
  H40      1.0000 0.43550  0.09870  0.83180  Biso   1.000  H
  C1       1.0000 0.16500  0.92050  0.66320  Biso   1.000  C
  C2       1.0000 0.01680  0.99310  0.61480  Biso   1.000  C
  C3       1.0000 0.00240  0.08020  0.50920  Biso   1.000  C
  C4       1.0000 0.85640  0.14330  0.46360  Biso   1.000  C
  C5       1.0000 0.71980  0.12330  0.52180  Biso   1.000  C
  C6       1.0000 0.73490  0.03720  0.62480  Biso   1.000  C
  C7       1.0000 0.87500  0.97560  0.67160  Biso   1.000  C
  C8       1.0000 0.56270  0.19020  0.47680  Biso   1.000  C
  C9       1.0000 0.53590  0.28860  0.38380  Biso   1.000  C
  C10      1.0000 0.37680  0.35630  0.33980  Biso   1.000  C
  C11      1.0000 0.24260  0.32660  0.39160  Biso   1.000  C
  C12      1.0000 0.09300  0.39340  0.34480  Biso   1.000  C
  C13      1.0000 0.21570  0.50640  0.19620  Biso   1.000  C
  C14      1.0000 0.36360  0.45060  0.23580  Biso   1.000  C
  C15      1.0000 0.30170  0.54210  0.87880  Biso   1.000  C
  C16      1.0000 0.24370  0.43220  0.92460  Biso   1.000  C
  C17      1.0000 0.21980  0.39260  0.85100  Biso   1.000  C
  C18      1.0000 0.16570  0.28840  0.88860  Biso   1.000  C
  C19      1.0000 0.13520  0.22380  0.99540  Biso   1.000  C
  C20      1.0000 0.16400  0.26310  0.06620  Biso   1.000  C
  C21      1.0000 0.22220  0.36780  0.02880  Biso   1.000  C
  C22      1.0000 0.07800  0.11640  0.03420  Biso   1.000  C
  C23      1.0000 0.05880  0.05970  0.97760  Biso   1.000  C
  C24      1.0000 0.00470  0.95010  0.02060  Biso   1.000  C
  C25      1.0000 0.01640  0.89310  0.95800  Biso   1.000  C
  C26      1.0000 0.96600  0.78410  0.99940  Biso   1.000  C
  C27      1.0000 0.90080  0.79060  0.16060  Biso   1.000  C
  C28      1.0000 0.94490  0.89400  0.12360  Biso   1.000  C
  C29      1.0000 0.66500  0.58370  0.33680  Biso   1.000  C
  C30      1.0000 0.51680  0.60790  0.38520  Biso   1.000  C
  C31      1.0000 0.50240  0.58940  0.49080  Biso   1.000  C
  C32      1.0000 0.35640  0.60690  0.53640  Biso   1.000  C
  C33      1.0000 0.21980  0.64510  0.47820  Biso   1.000  C
  C34      1.0000 0.23490  0.66200  0.37520  Biso   1.000  C
  C35      1.0000 0.37500  0.64720  0.32840  Biso   1.000  C
  C36      1.0000 0.06270  0.66700  0.52320  Biso   1.000  C
  C37      1.0000 0.03590  0.67240  0.61620  Biso   1.000  C
  C38      1.0000 0.87680  0.69610  0.66020  Biso   1.000  C
  C39      1.0000 0.74260  0.71820  0.60840  Biso   1.000  C
  C40      1.0000 0.59300  0.73820  0.65520  Biso   1.000  C
  C41      1.0000 0.71570  0.70260  0.80380  Biso   1.000  C
  C42      1.0000 0.86360  0.68640  0.76420  Biso   1.000  C
  C43      1.0000 0.80170  0.42090  0.12120  Biso   1.000  C
  C44      1.0000 0.74370  0.35680  0.07540  Biso   1.000  C
  C45      1.0000 0.71980  0.24360  0.14900  Biso   1.000  C
  C46      1.0000 0.66570  0.17700  0.11140  Biso   1.000  C
  C47      1.0000 0.63520  0.21920  0.00460  Biso   1.000  C
  C48      1.0000 0.66400  0.32930  0.93380  Biso   1.000  C
  C49      1.0000 0.72220  0.39660  0.97120  Biso   1.000  C
  C50      1.0000 0.57800  0.15060  0.96580  Biso   1.000  C
  C51      1.0000 0.55880  0.03730  0.02240  Biso   1.000  C
  C52      1.0000 0.50470  0.97070  0.97940  Biso   1.000  C
  C53      1.0000 0.51640  0.85110  0.04200  Biso   1.000  C
  C54      1.0000 0.46600  0.78350  0.00060  Biso   1.000  C
  C55      1.0000 0.40080  0.95120  0.83940  Biso   1.000  C
  C56      1.0000 0.44490  0.01760  0.87640  Biso   1.000  C
  N1       1.0000 0.08140  0.48640  0.24520  Biso   1.000  N
  N2       1.0000 0.91540  0.72880  0.10220  Biso   1.000  N
  N3       1.0000 0.58140  0.73160  0.75480  Biso   1.000  N
  N4       1.0000 0.41540  0.83100  0.89780  Biso   1.000  N
  O1       1.0000 0.16310  0.84300  0.76020  Biso   1.000  O
  O2       1.0000 0.28860  0.94220  0.61200  Biso   1.000  O
  O3       1.0000 0.31650  0.59000  0.94280  Biso   1.000  O
  O4       1.0000 0.33070  0.59920  0.78300  Biso   1.000  O
  O5       1.0000 0.66310  0.60320  0.23980  Biso   1.000  O
  O6       1.0000 0.78860  0.55420  0.38800  Biso   1.000  O
  O7       1.0000 0.81650  0.53280  0.05720  Biso   1.000  O
  O8       1.0000 0.83070  0.38220  0.21700  Biso   1.000  O
