data_image0
_cell_length_a       8.409
_cell_length_b       13.488
_cell_length_c       14.1302
_cell_angle_alpha    61.4924
_cell_angle_beta     85.7574
_cell_angle_gamma    81.0829

_symmetry_space_group_name_H-M    P 1
_symmetry_int_tables_number       1

loop_
  _symmetry_equiv_pos_as_xyz
  'x, y, z'

loop_
  _atom_site_label
  _atom_site_occupancy
  _atom_site_fract_x
  _atom_site_fract_y
  _atom_site_fract_z
  _atom_site_thermal_displace_type
  _atom_site_B_iso_or_equiv
  _atom_site_type_symbol
  Zn1      1.0000 0.47811  0.61776  0.18240  Biso   1.000  Zn
  Zn2      1.0000 0.97811  0.80016  0.81760  Biso   1.000  Zn
  H1       1.0000 0.98360  0.46580  0.25860  Biso   1.000  H
  H2       1.0000 0.22230  0.35040  0.33360  Biso   1.000  H
  H3       1.0000 0.98290  0.14530  0.59700  Biso   1.000  H
  H4       1.0000 0.74200  0.25930  0.52100  Biso   1.000  H
  H5       1.0000 0.37730  0.19010  0.47200  Biso   1.000  H
  H6       1.0000 0.21560  0.04700  0.65160  Biso   1.000  H
  H7       1.0000 0.38400  0.91060  0.80440  Biso   1.000  H
  H8       1.0000 0.63070  0.80630  0.87740  Biso   1.000  H
  H9       1.0000 0.84200  0.96800  0.59760  Biso   1.000  H
  H10      1.0000 0.60330  0.07590  0.51840  Biso   1.000  H
  H11      1.0000 0.61810  0.96490  0.92260  Biso   1.000  H
  H12      1.0000 0.70070  0.14480  0.86020  Biso   1.000  H
  H13      1.0000 0.67210  0.10340  0.16280  Biso   1.000  H
  H14      1.0000 0.58770  0.92860  0.22420  Biso   1.000  H
  H15      1.0000 0.78520  0.28930  0.89000  Biso   1.000  H
  H16      1.0000 0.74780  0.26720  0.09420  Biso   1.000  H
  H17      1.0000 0.90430  0.43560  0.82980  Biso   1.000  H
  H18      1.0000 0.98330  0.61640  0.76640  Biso   1.000  H
  H19      1.0000 0.85110  0.61670  0.04080  Biso   1.000  H
  H20      1.0000 0.78320  0.43540  0.11120  Biso   1.000  H
  H21      1.0000 0.48360  0.72440  0.74140  Biso   1.000  H
  H22      1.0000 0.72230  0.68400  0.66640  Biso   1.000  H
  H23      1.0000 0.48290  0.74230  0.40300  Biso   1.000  H
  H24      1.0000 0.24200  0.78030  0.47900  Biso   1.000  H
  H25      1.0000 0.87730  0.66210  0.52800  Biso   1.000  H
  H26      1.0000 0.71560  0.69860  0.34840  Biso   1.000  H
  H27      1.0000 0.88400  0.71500  0.19560  Biso   1.000  H
  H28      1.0000 0.13070  0.68370  0.12260  Biso   1.000  H
  H29      1.0000 0.34200  0.56560  0.40240  Biso   1.000  H
  H30      1.0000 0.10330  0.59430  0.48160  Biso   1.000  H
  H31      1.0000 0.11810  0.88750  0.07740  Biso   1.000  H
  H32      1.0000 0.20070  0.00500  0.13980  Biso   1.000  H
  H33      1.0000 0.17210  0.26620  0.83720  Biso   1.000  H
  H34      1.0000 0.08770  0.15280  0.77580  Biso   1.000  H
  H35      1.0000 0.28520  0.17930  0.11000  Biso   1.000  H
  H36      1.0000 0.24780  0.36140  0.90580  Biso   1.000  H
  H37      1.0000 0.40430  0.26540  0.17020  Biso   1.000  H
  H38      1.0000 0.48330  0.38280  0.23360  Biso   1.000  H
  H39      1.0000 0.35110  0.65750  0.95920  Biso   1.000  H
  H40      1.0000 0.28320  0.54660  0.88880  Biso   1.000  H
  C1       1.0000 0.68170  0.44680  0.33440  Biso   1.000  C
  C2       1.0000 0.83810  0.37450  0.38220  Biso   1.000  C
  C3       1.0000 0.98290  0.40040  0.32740  Biso   1.000  C
  C4       1.0000 0.12480  0.33170  0.37240  Biso   1.000  C
  C5       1.0000 0.12980  0.23630  0.47240  Biso   1.000  C
  C6       1.0000 0.98320  0.21020  0.52800  Biso   1.000  C
  C7       1.0000 0.84000  0.27820  0.48300  Biso   1.000  C
  C8       1.0000 0.28500  0.16610  0.51560  Biso   1.000  C
  C9       1.0000 0.30830  0.07270  0.60940  Biso   1.000  C
  C10      1.0000 0.46450  0.00520  0.65380  Biso   1.000  C
  C11      1.0000 0.47720  0.92400  0.76020  Biso   1.000  C
  C12      1.0000 0.62500  0.86160  0.80340  Biso   1.000  C
  C13      1.0000 0.74710  0.95630  0.64020  Biso   1.000  C
  C14      1.0000 0.60570  0.02080  0.59260  Biso   1.000  C
  C15      1.0000 0.53860  0.81330  0.12260  Biso   1.000  C
  C16      1.0000 0.59240  0.92960  0.07900  Biso   1.000  C
  C17      1.0000 0.62820  0.99320  0.97160  Biso   1.000  C
  C18      1.0000 0.67970  0.10020  0.93460  Biso   1.000  C
  C19      1.0000 0.70010  0.14080  0.00520  Biso   1.000  C
  C20      1.0000 0.66210  0.07540  0.11360  Biso   1.000  C
  C21      1.0000 0.61100  0.97210  0.15000  Biso   1.000  C
  C22      1.0000 0.75740  0.25200  0.96420  Biso   1.000  C
  C23      1.0000 0.77380  0.30480  0.01980  Biso   1.000  C
  C24      1.0000 0.82880  0.41690  0.97740  Biso   1.000  C
  C25      1.0000 0.89240  0.47140  0.87420  Biso   1.000  C
  C26      1.0000 0.93890  0.58010  0.83660  Biso   1.000  C
  C27      1.0000 0.86350  0.57990  0.99720  Biso   1.000  C
  C28      1.0000 0.81990  0.47220  0.03880  Biso   1.000  C
  C29      1.0000 0.18170  0.78120  0.66560  Biso   1.000  C
  C30      1.0000 0.33810  0.75670  0.61780  Biso   1.000  C
  C31      1.0000 0.48290  0.72780  0.67260  Biso   1.000  C
  C32      1.0000 0.62480  0.70410  0.62760  Biso   1.000  C
  C33      1.0000 0.62980  0.70870  0.52760  Biso   1.000  C
  C34      1.0000 0.48320  0.73820  0.47200  Biso   1.000  C
  C35      1.0000 0.34000  0.76120  0.51700  Biso   1.000  C
  C36      1.0000 0.78500  0.68170  0.48440  Biso   1.000  C
  C37      1.0000 0.80830  0.68210  0.39060  Biso   1.000  C
  C38      1.0000 0.96450  0.65900  0.34620  Biso   1.000  C
  C39      1.0000 0.97720  0.68420  0.23980  Biso   1.000  C
  C40      1.0000 0.12500  0.66500  0.19660  Biso   1.000  C
  C41      1.0000 0.24710  0.59650  0.35980  Biso   1.000  C
  C42      1.0000 0.10570  0.61340  0.40740  Biso   1.000  C
  C43      1.0000 0.03860  0.93590  0.87740  Biso   1.000  C
  C44      1.0000 0.09240  0.00860  0.92100  Biso   1.000  C
  C45      1.0000 0.12820  0.96480  0.02840  Biso   1.000  C
  C46      1.0000 0.17970  0.03480  0.06540  Biso   1.000  C
  C47      1.0000 0.20010  0.14600  0.99480  Biso   1.000  C
  C48      1.0000 0.16210  0.18900  0.88640  Biso   1.000  C
  C49      1.0000 0.11100  0.12210  0.85000  Biso   1.000  C
  C50      1.0000 0.25740  0.21620  0.03580  Biso   1.000  C
  C51      1.0000 0.27380  0.32460  0.98020  Biso   1.000  C
  C52      1.0000 0.32880  0.39430  0.02260  Biso   1.000  C
  C53      1.0000 0.39240  0.34560  0.12580  Biso   1.000  C
  C54      1.0000 0.43890  0.41670  0.16340  Biso   1.000  C
  C55      1.0000 0.36350  0.57710  0.00280  Biso   1.000  C
  C56      1.0000 0.31990  0.51100  0.96120  Biso   1.000  C
  N1       1.0000 0.75930  0.87670  0.74460  Biso   1.000  N
  N2       1.0000 0.92280  0.63450  0.89680  Biso   1.000  N
  N3       1.0000 0.25930  0.62130  0.25540  Biso   1.000  N
  N4       1.0000 0.42280  0.53130  0.10320  Biso   1.000  N
  O1       1.0000 0.68920  0.52992  0.23816  Biso   1.000  O
  O2       1.0000 0.55400  0.42336  0.38388  Biso   1.000  O
  O3       1.0000 0.52500  0.77361  0.05818  Biso   1.000  O
  O4       1.0000 0.51540  0.75850  0.22140  Biso   1.000  O
  O5       1.0000 0.18920  0.76808  0.76184  Biso   1.000  O
  O6       1.0000 0.05400  0.80724  0.61612  Biso   1.000  O
  O7       1.0000 0.02500  0.83179  0.94182  Biso   1.000  O
  O8       1.0000 0.01540  0.97990  0.77860  Biso   1.000  O
