data_UVASAM01_freeONLY
_audit_creation_date              2015-10-16
_audit_creation_method            'Materials Studio'
_symmetry_space_group_name_H-M    'P1'
_symmetry_Int_Tables_number       1
_symmetry_cell_setting            triclinic
loop_
_symmetry_equiv_pos_as_xyz
  x,y,z
_cell_length_a                    8.3985
_cell_length_b                    13.4836
_cell_length_c                    14.1863
_cell_angle_alpha                 61.6255
_cell_angle_beta                  85.7940
_cell_angle_gamma                 81.1220
loop_
_atom_site_label
_atom_site_type_symbol
_atom_site_fract_x
_atom_site_fract_y
_atom_site_fract_z
_atom_site_U_iso_or_equiv
_atom_site_adp_type
_atom_site_occupancy
Zn1    Zn    0.69643   0.60892   0.18234   0.01267  Uiso   1.00
Zn2    Zn    0.19643   0.79126   0.81766   0.01267  Uiso   1.00
H1     H     0.29580   0.21800   0.52700   0.01267  Uiso   1.00
H2     H     0.89100   0.11950   0.10900   0.01267  Uiso   1.00
H3     H     0.49420   0.14470   0.16320   0.01267  Uiso   1.00
H4     H     0.69430   0.26430   0.40580   0.01267  Uiso   1.00
H5     H     0.69600   0.79350   0.23280   0.01267  Uiso   1.00
H6     H     0.27230   0.14140   0.82880   0.01267  Uiso   1.00
H7     H     0.56990   0.51910   0.92160   0.01267  Uiso   1.00
H8     H     0.89440   0.97170   0.88920   0.01267  Uiso   1.00
H9     H     0.79210   0.69050   0.80500   0.01267  Uiso   1.00
H10    H     0.07030   0.33110   0.47960   0.01267  Uiso   1.00
H11    H     0.32990   0.84540   0.59840   0.01267  Uiso   1.00
H12    H     0.81790   0.79140   0.96140   0.01267  Uiso   1.00
H13    H     0.79580   0.74500   0.47300   0.01267  Uiso   1.00
H14    H     0.04440   0.60030   0.12500   0.01267  Uiso   1.00
H15    H     0.18840   0.68500   0.25960   0.01267  Uiso   1.00
H16    H     0.93080   0.13900   0.90660   0.01267  Uiso   1.00
H17    H     0.39440   0.86090   0.11080   0.01267  Uiso   1.00
H18    H     0.58260   0.25850   0.22420   0.01267  Uiso   1.00
H19    H     0.31790   0.75280   0.03860   0.01267  Uiso   1.00
H20    H     0.29210   0.49550   0.19500   0.01267  Uiso   1.00
H21    H     0.19430   0.67010   0.59420   0.01267  Uiso   1.00
H22    H     0.47330   0.40420   0.86100   0.01267  Uiso   1.00
H23    H     0.08260   0.48270   0.77580   0.01267  Uiso   1.00
H24    H     0.68840   0.94460   0.74040   0.01267  Uiso   1.00
H25    H     0.57030   0.81070   0.52040   0.01267  Uiso   1.00
H26    H     0.46140   0.36130   0.34960   0.01267  Uiso   1.00
H27    H     0.99420   0.30790   0.83680   0.01267  Uiso   1.00
H28    H     0.54440   0.72530   0.87500   0.01267  Uiso   1.00
H29    H     0.44890   0.05750   0.66200   0.01267  Uiso   1.00
H30    H     0.96140   0.71090   0.65040   0.01267  Uiso   1.00
H31    H     0.39100   0.22850   0.89100   0.01267  Uiso   1.00
H32    H     0.43080   0.04560   0.09340   0.01267  Uiso   1.00
H33    H     0.43200   0.62910   0.52000   0.01267  Uiso   1.00
H34    H     0.06990   0.44070   0.07840   0.01267  Uiso   1.00
H35    H     0.97330   0.26520   0.13900   0.01267  Uiso   1.00
H36    H     0.19600   0.02630   0.76720   0.01267  Uiso   1.00
H37    H     0.93200   0.14910   0.48000   0.01267  Uiso   1.00
H38    H     0.77230   0.97020   0.17120   0.01267  Uiso   1.00
H39    H     0.82990   0.44380   0.40160   0.01267  Uiso   1.00
H40    H     0.94890   0.71950   0.33800   0.01267  Uiso   1.00
C1     C     0.50930   0.22060   0.11380   0.01267  Uiso   1.00
C2     C     0.06820   0.38710   0.40640   0.01267  Uiso   1.00
C3     C     0.35670   0.89730   0.03900   0.01267  Uiso   1.00
C4     C     0.00930   0.33440   0.88620   0.01267  Uiso   1.00
C5     C     0.70850   0.74900   0.65360   0.01267  Uiso   1.00
C6     C     0.58170   0.39970   0.07960   0.01267  Uiso   1.00
C7     C     0.85670   0.93630   0.96100   0.01267  Uiso   1.00
C8     C     0.73940   0.82930   0.16260   0.01267  Uiso   1.00
C9     C     0.42490   0.81280   0.64080   0.01267  Uiso   1.00
C10    C     0.23940   0.99190   0.83740   0.01267  Uiso   1.00
C11    C     0.47850   0.26220   0.00440   0.01267  Uiso   1.00
C12    C     0.90380   0.10210   0.98060   0.01267  Uiso   1.00
C13    C     0.80970   0.82820   0.00480   0.01267  Uiso   1.00
C14    C     0.84840   0.99160   0.02200   0.01267  Uiso   1.00
C15    C     0.40380   0.08270   0.01940   0.01267  Uiso   1.00
C16    C     0.83670   0.03620   0.61920   0.01267  Uiso   1.00
C17    C     0.88850   0.72660   0.51580   0.01267  Uiso   1.00
C18    C     0.86810   0.72640   0.60900   0.01267  Uiso   1.00
C19    C     0.30970   0.83300   0.99520   0.01267  Uiso   1.00
C20    C     0.78430   0.93500   0.12640   0.01267  Uiso   1.00
C21    C     0.28430   0.06140   0.87360   0.01267  Uiso   1.00
C22    C     0.92020   0.15610   0.03540   0.01267  Uiso   1.00
C23    C     0.69900   0.72230   0.76080   0.01267  Uiso   1.00
C24    C     0.13330   0.59350   0.87760   0.01267  Uiso   1.00
C25    C     0.19260   0.67270   0.52620   0.01267  Uiso   1.00
C26    C     0.04780   0.70280   0.37440   0.01267  Uiso   1.00
C27    C     0.38850   0.24240   0.48420   0.01267  Uiso   1.00
C28    C     0.33400   0.64950   0.48160   0.01267  Uiso   1.00
C29    C     0.05280   0.41430   0.02920   0.01267  Uiso   1.00
C30    C     0.69000   0.00970   0.67200   0.01267  Uiso   1.00
C31    C     0.55280   0.44350   0.97080   0.01267  Uiso   1.00
C32    C     0.42020   0.19150   0.96460   0.01267  Uiso   1.00
C33    C     0.06100   0.43850   0.85000   0.01267  Uiso   1.00
C34    C     0.49180   0.63120   0.33160   0.01267  Uiso   1.00
C35    C     0.19900   0.48310   0.23920   0.01267  Uiso   1.00
C36    C     0.36810   0.33540   0.39100   0.01267  Uiso   1.00
C37    C     0.83400   0.13110   0.51840   0.01267  Uiso   1.00
C38    C     0.19000   0.68170   0.32800   0.01267  Uiso   1.00
C39    C     0.56100   0.28850   0.15000   0.01267  Uiso   1.00
C40    C     0.33670   0.65540   0.38080   0.01267  Uiso   1.00
C41    C     0.63330   0.47110   0.12240   0.01267  Uiso   1.00
C42    C     0.97850   0.26660   0.99560   0.01267  Uiso   1.00
C43    C     0.49770   0.37370   0.93480   0.01267  Uiso   1.00
C44    C     0.92490   0.45360   0.35920   0.01267  Uiso   1.00
C45    C     0.04650   0.70000   0.47360   0.01267  Uiso   1.00
C46    C     0.69260   0.19890   0.47380   0.01267  Uiso   1.00
C47    C     0.54650   0.17360   0.52640   0.01267  Uiso   1.00
C48    C     0.20850   0.40260   0.34640   0.01267  Uiso   1.00
C49    C     0.55030   0.74320   0.80160   0.01267  Uiso   1.00
C50    C     0.05030   0.54480   0.19840   0.01267  Uiso   1.00
C51    C     0.34840   0.01360   0.97800   0.01267  Uiso   1.00
C52    C     0.99180   0.96280   0.66840   0.01267  Uiso   1.00
C53    C     0.56820   0.79350   0.59360   0.01267  Uiso   1.00
C54    C     0.08170   0.47930   0.92040   0.01267  Uiso   1.00
C55    C     0.54780   0.07720   0.62560   0.01267  Uiso   1.00
C56    C     0.99770   0.30850   0.06520   0.01267  Uiso   1.00
N1     N     0.25330   0.87860   0.89500   0.01267  Uiso   1.00
N2     N     0.75330   0.77360   0.10500   0.01267  Uiso   1.00
N3     N     0.91610   0.53140   0.25520   0.01267  Uiso   1.00
N4     N     0.41610   0.78660   0.74480   0.01267  Uiso   1.00
O1     O     0.48540   0.64260   0.23820   0.01267  Uiso   1.00
O2     O     0.15280   0.63531   0.94038   0.01267  Uiso   1.00
O3     O     0.98540   0.88080   0.76180   0.01267  Uiso   1.00
O4     O     0.62120   0.60470   0.38220   0.01267  Uiso   1.00
O5     O     0.65720   0.43085   0.22090   0.01267  Uiso   1.00
O6     O     0.65280   0.57569   0.05962   0.01267  Uiso   1.00
O7     O     0.15720   0.65175   0.77910   0.01267  Uiso   1.00
O8     O     0.12120   0.98690   0.61780   0.01267  Uiso   1.00
