data_image0
_cell_length_a       8.406
_cell_length_b       13.507
_cell_length_c       14.1361
_cell_angle_alpha    61.4615
_cell_angle_beta     85.7892
_cell_angle_gamma    81.1591

_symmetry_space_group_name_H-M    P 1
_symmetry_int_tables_number       1

loop_
  _symmetry_equiv_pos_as_xyz
  'x, y, z'

loop_
  _atom_site_label
  _atom_site_occupancy
  _atom_site_fract_x
  _atom_site_fract_y
  _atom_site_fract_z
  _atom_site_thermal_displace_type
  _atom_site_B_iso_or_equiv
  _atom_site_type_symbol
  Zn1      1.0000 0.83362  0.92030  0.18274  Biso   1.000  Zn
  Zn2      1.0000 0.33362  0.10304  0.81726  Biso   1.000  Zn
  H1       1.0000 0.83990  0.02430  0.74060  Biso   1.000  H
  H2       1.0000 0.07900  0.98960  0.66580  Biso   1.000  H
  H3       1.0000 0.84120  0.04210  0.40740  Biso   1.000  H
  H4       1.0000 0.59990  0.08190  0.48060  Biso   1.000  H
  H5       1.0000 0.23080  0.96620  0.52720  Biso   1.000  H
  H6       1.0000 0.07400  0.99970  0.34920  Biso   1.000  H
  H7       1.0000 0.45740  0.89470  0.48220  Biso   1.000  H
  H8       1.0000 0.69710  0.86620  0.40220  Biso   1.000  H
  H9       1.0000 0.48670  0.99030  0.12500  Biso   1.000  H
  H10      1.0000 0.24020  0.01720  0.19600  Biso   1.000  H
  H11      1.0000 0.46580  0.19490  0.07520  Biso   1.000  H
  H12      1.0000 0.55190  0.30720  0.13860  Biso   1.000  H
  H13      1.0000 0.53270  0.56700  0.83720  Biso   1.000  H
  H14      1.0000 0.44670  0.45490  0.77620  Biso   1.000  H
  H15      1.0000 0.63640  0.48460  0.10760  Biso   1.000  H
  H16      1.0000 0.60630  0.66580  0.90600  Biso   1.000  H
  H17      1.0000 0.64050  0.84720  0.88920  Biso   1.000  H
  H18      1.0000 0.70530  0.95970  0.96160  Biso   1.000  H
  H19      1.0000 0.84020  0.68690  0.23020  Biso   1.000  H
  H20      1.0000 0.75810  0.57060  0.16980  Biso   1.000  H
  H21      1.0000 0.33990  0.76490  0.25940  Biso   1.000  H
  H22      1.0000 0.57900  0.65540  0.33420  Biso   1.000  H
  H23      1.0000 0.34120  0.44950  0.59260  Biso   1.000  H
  H24      1.0000 0.09990  0.56250  0.51940  Biso   1.000  H
  H25      1.0000 0.73080  0.49340  0.47280  Biso   1.000  H
  H26      1.0000 0.57400  0.34890  0.65080  Biso   1.000  H
  H27      1.0000 0.95740  0.37690  0.51780  Biso   1.000  H
  H28      1.0000 0.19710  0.26840  0.59780  Biso   1.000  H
  H29      1.0000 0.98670  0.11530  0.87500  Biso   1.000  H
  H30      1.0000 0.74020  0.21320  0.80400  Biso   1.000  H
  H31      1.0000 0.96580  0.27010  0.92480  Biso   1.000  H
  H32      1.0000 0.05190  0.44580  0.86140  Biso   1.000  H
  H33      1.0000 0.03270  0.40420  0.16280  Biso   1.000  H
  H34      1.0000 0.94670  0.23110  0.22380  Biso   1.000  H
  H35      1.0000 0.13640  0.59220  0.89240  Biso   1.000  H
  H36      1.0000 0.10630  0.57180  0.09400  Biso   1.000  H
  H37      1.0000 0.14050  0.73640  0.11080  Biso   1.000  H
  H38      1.0000 0.20530  0.92130  0.03840  Biso   1.000  H
  H39      1.0000 0.34020  0.91710  0.76980  Biso   1.000  H
  H40      1.0000 0.25810  0.74040  0.83020  Biso   1.000  H
  C1       1.0000 0.54050  0.08210  0.66600  Biso   1.000  C
  C2       1.0000 0.69430  0.05850  0.61860  Biso   1.000  C
  C3       1.0000 0.83980  0.02920  0.67280  Biso   1.000  C
  C4       1.0000 0.98320  0.00720  0.62860  Biso   1.000  C
  C5       1.0000 0.98550  0.01130  0.52700  Biso   1.000  C
  C6       1.0000 0.84160  0.03910  0.47440  Biso   1.000  C
  C7       1.0000 0.69550  0.06300  0.51840  Biso   1.000  C
  C8       1.0000 0.14050  0.98460  0.48460  Biso   1.000  C
  C9       1.0000 0.16430  0.98420  0.39080  Biso   1.000  C
  C10      1.0000 0.32340  0.96130  0.34680  Biso   1.000  C
  C11      1.0000 0.46080  0.91420  0.40960  Biso   1.000  C
  C12      1.0000 0.60390  0.89710  0.36080  Biso   1.000  C
  C13      1.0000 0.47980  0.96930  0.19800  Biso   1.000  C
  C14      1.0000 0.33180  0.98780  0.23900  Biso   1.000  C
  C15      1.0000 0.39540  0.24040  0.87740  Biso   1.000  C
  C16      1.0000 0.44700  0.31100  0.92000  Biso   1.000  C
  C17      1.0000 0.47940  0.26970  0.02700  Biso   1.000  C
  C18      1.0000 0.53220  0.33670  0.06560  Biso   1.000  C
  C19      1.0000 0.55500  0.44780  0.99400  Biso   1.000  C
  C20      1.0000 0.52040  0.49190  0.88520  Biso   1.000  C
  C21      1.0000 0.46840  0.42490  0.84900  Biso   1.000  C
  C22      1.0000 0.61150  0.52020  0.03460  Biso   1.000  C
  C23      1.0000 0.63030  0.62900  0.97920  Biso   1.000  C
  C24      1.0000 0.68610  0.69670  0.02360  Biso   1.000  C
  C25      1.0000 0.67550  0.81340  0.96000  Biso   1.000  C
  C26      1.0000 0.71830  0.88100  0.00320  Biso   1.000  C
  C27      1.0000 0.79470  0.72020  0.16200  Biso   1.000  C
  C28      1.0000 0.74770  0.64890  0.12560  Biso   1.000  C
  C29      1.0000 0.04050  0.74810  0.33400  Biso   1.000  C
  C30      1.0000 0.19430  0.67710  0.38140  Biso   1.000  C
  C31      1.0000 0.33980  0.70200  0.32720  Biso   1.000  C
  C32      1.0000 0.48320  0.63580  0.37140  Biso   1.000  C
  C33      1.0000 0.48550  0.53830  0.47300  Biso   1.000  C
  C34      1.0000 0.34160  0.51350  0.52560  Biso   1.000  C
  C35      1.0000 0.19550  0.58140  0.48160  Biso   1.000  C
  C36      1.0000 0.64050  0.46920  0.51540  Biso   1.000  C
  C37      1.0000 0.66430  0.37500  0.60920  Biso   1.000  C
  C38      1.0000 0.82340  0.30810  0.65320  Biso   1.000  C
  C39      1.0000 0.96080  0.32380  0.59040  Biso   1.000  C
  C40      1.0000 0.10390  0.25790  0.63920  Biso   1.000  C
  C41      1.0000 0.97980  0.16730  0.80200  Biso   1.000  C
  C42      1.0000 0.83180  0.22680  0.76100  Biso   1.000  C
  C43      1.0000 0.89540  0.11780  0.12260  Biso   1.000  C
  C44      1.0000 0.94700  0.23100  0.08000  Biso   1.000  C
  C45      1.0000 0.97940  0.29670  0.97300  Biso   1.000  C
  C46      1.0000 0.03220  0.40230  0.93440  Biso   1.000  C
  C47      1.0000 0.05500  0.44180  0.00600  Biso   1.000  C
  C48      1.0000 0.02040  0.37710  0.11480  Biso   1.000  C
  C49      1.0000 0.96840  0.27390  0.15100  Biso   1.000  C
  C50      1.0000 0.11150  0.55480  0.96540  Biso   1.000  C
  C51      1.0000 0.13030  0.60820  0.02080  Biso   1.000  C
  C52      1.0000 0.18610  0.72030  0.97640  Biso   1.000  C
  C53      1.0000 0.17550  0.77340  0.04000  Biso   1.000  C
  C54      1.0000 0.21830  0.88420  0.99680  Biso   1.000  C
  C55      1.0000 0.29470  0.88220  0.83800  Biso   1.000  C
  C56      1.0000 0.24770  0.77450  0.87440  Biso   1.000  C
  N1       1.0000 0.61420  0.92310  0.25640  Biso   1.000  N
  N2       1.0000 0.77730  0.83310  0.10360  Biso   1.000  N
  N3       1.0000 0.11420  0.17950  0.74360  Biso   1.000  N
  N4       1.0000 0.27730  0.93670  0.89640  Biso   1.000  N
  O1       1.0000 0.54650  0.07070  0.76240  Biso   1.000  O
  O2       1.0000 0.41060  0.10980  0.61680  Biso   1.000  O
  O3       1.0000 0.37920  0.13550  0.94180  Biso   1.000  O
  O4       1.0000 0.37100  0.28140  0.77860  Biso   1.000  O
  O5       1.0000 0.04650  0.83310  0.23760  Biso   1.000  O
  O6       1.0000 0.91060  0.72660  0.38320  Biso   1.000  O
  O7       1.0000 0.87920  0.07730  0.05820  Biso   1.000  O
  O8       1.0000 0.87100  0.06000  0.22140  Biso   1.000  O
