data_image0
_cell_length_a       12.2862
_cell_length_b       14.9471
_cell_length_c       20.8959
_cell_angle_alpha    90
_cell_angle_beta     90
_cell_angle_gamma    90

_symmetry_space_group_name_H-M    P 1
_symmetry_int_tables_number       1

loop_
  _symmetry_equiv_pos_as_xyz
  'x, y, z'

loop_
  _atom_site_label
  _atom_site_occupancy
  _atom_site_fract_x
  _atom_site_fract_y
  _atom_site_fract_z
  _atom_site_thermal_displace_type
  _atom_site_B_iso_or_equiv
  _atom_site_type_symbol
  Mn1      1.0000 0.91569  0.62456  0.30633  Biso   1.000  Mn
  Mn2      1.0000 0.58431  0.87544  0.80633  Biso   1.000  Mn
  Mn3      1.0000 0.08431  0.62456  0.19367  Biso   1.000  Mn
  Mn4      1.0000 0.41569  0.87544  0.69367  Biso   1.000  Mn
  Mn5      1.0000 0.08431  0.37544  0.69367  Biso   1.000  Mn
  Mn6      1.0000 0.41569  0.12456  0.19367  Biso   1.000  Mn
  Mn7      1.0000 0.91569  0.37544  0.80633  Biso   1.000  Mn
  Mn8      1.0000 0.58431  0.12456  0.30633  Biso   1.000  Mn
  H1       1.0000 0.59990  0.61950  0.46000  Biso   1.000  H
  H2       1.0000 0.91690  0.64000  0.46460  Biso   1.000  H
  H3       1.0000 0.86820  0.52970  0.56880  Biso   1.000  H
  H4       1.0000 0.74560  0.62560  0.73310  Biso   1.000  H
  H5       1.0000 0.64050  0.72350  0.56530  Biso   1.000  H
  H6       1.0000 0.90010  0.88050  0.96000  Biso   1.000  H
  H7       1.0000 0.58310  0.86000  0.96460  Biso   1.000  H
  H8       1.0000 0.63180  0.97030  0.06880  Biso   1.000  H
  H9       1.0000 0.75440  0.87440  0.23310  Biso   1.000  H
  H10      1.0000 0.85950  0.77650  0.06530  Biso   1.000  H
  H11      1.0000 0.40010  0.61950  0.04000  Biso   1.000  H
  H12      1.0000 0.08310  0.64000  0.03540  Biso   1.000  H
  H13      1.0000 0.13180  0.52970  0.93120  Biso   1.000  H
  H14      1.0000 0.25440  0.62560  0.76690  Biso   1.000  H
  H15      1.0000 0.35950  0.72350  0.93470  Biso   1.000  H
  H16      1.0000 0.09990  0.88050  0.54000  Biso   1.000  H
  H17      1.0000 0.41690  0.86000  0.53540  Biso   1.000  H
  H18      1.0000 0.36820  0.97030  0.43120  Biso   1.000  H
  H19      1.0000 0.24560  0.87440  0.26690  Biso   1.000  H
  H20      1.0000 0.14050  0.77650  0.43470  Biso   1.000  H
  H21      1.0000 0.40010  0.38050  0.54000  Biso   1.000  H
  H22      1.0000 0.08310  0.36000  0.53540  Biso   1.000  H
  H23      1.0000 0.13180  0.47030  0.43120  Biso   1.000  H
  H24      1.0000 0.25440  0.37440  0.26690  Biso   1.000  H
  H25      1.0000 0.35950  0.27650  0.43470  Biso   1.000  H
  H26      1.0000 0.09990  0.11950  0.04000  Biso   1.000  H
  H27      1.0000 0.41690  0.14000  0.03540  Biso   1.000  H
  H28      1.0000 0.36820  0.02970  0.93120  Biso   1.000  H
  H29      1.0000 0.24560  0.12560  0.76690  Biso   1.000  H
  H30      1.0000 0.14050  0.22350  0.93470  Biso   1.000  H
  H31      1.0000 0.59990  0.38050  0.96000  Biso   1.000  H
  H32      1.0000 0.91690  0.36000  0.96460  Biso   1.000  H
  H33      1.0000 0.86820  0.47030  0.06880  Biso   1.000  H
  H34      1.0000 0.74560  0.37440  0.23310  Biso   1.000  H
  H35      1.0000 0.64050  0.27650  0.06530  Biso   1.000  H
  H36      1.0000 0.90010  0.11950  0.46000  Biso   1.000  H
  H37      1.0000 0.58310  0.14000  0.46460  Biso   1.000  H
  H38      1.0000 0.63180  0.02970  0.56880  Biso   1.000  H
  H39      1.0000 0.75440  0.12560  0.73310  Biso   1.000  H
  H40      1.0000 0.85950  0.22350  0.56530  Biso   1.000  H
  C1       1.0000 0.67260  0.61860  0.44750  Biso   1.000  C
  C2       1.0000 0.84600  0.63080  0.45040  Biso   1.000  C
  C3       1.0000 0.75370  0.62320  0.55710  Biso   1.000  C
  C4       1.0000 0.82010  0.56720  0.59030  Biso   1.000  C
  C5       1.0000 0.81500  0.56690  0.65750  Biso   1.000  C
  C6       1.0000 0.74830  0.62580  0.68870  Biso   1.000  C
  C7       1.0000 0.68420  0.68630  0.65410  Biso   1.000  C
  C8       1.0000 0.61260  0.75310  0.68960  Biso   1.000  C
  C9       1.0000 0.68460  0.68480  0.58860  Biso   1.000  C
  C10      1.0000 0.88030  0.49900  0.69360  Biso   1.000  C
  C11      1.0000 0.82740  0.88140  0.94750  Biso   1.000  C
  C12      1.0000 0.65400  0.86920  0.95040  Biso   1.000  C
  C13      1.0000 0.74630  0.87680  0.05710  Biso   1.000  C
  C14      1.0000 0.67990  0.93280  0.09030  Biso   1.000  C
  C15      1.0000 0.68500  0.93310  0.15750  Biso   1.000  C
  C16      1.0000 0.75170  0.87420  0.18870  Biso   1.000  C
  C17      1.0000 0.81580  0.81370  0.15410  Biso   1.000  C
  C18      1.0000 0.88740  0.74690  0.18960  Biso   1.000  C
  C19      1.0000 0.81540  0.81520  0.08860  Biso   1.000  C
  C20      1.0000 0.61970  0.00100  0.19360  Biso   1.000  C
  C21      1.0000 0.32740  0.61860  0.05250  Biso   1.000  C
  C22      1.0000 0.15400  0.63080  0.04960  Biso   1.000  C
  C23      1.0000 0.24630  0.62320  0.94290  Biso   1.000  C
  C24      1.0000 0.17990  0.56720  0.90970  Biso   1.000  C
  C25      1.0000 0.18500  0.56690  0.84250  Biso   1.000  C
  C26      1.0000 0.25170  0.62580  0.81130  Biso   1.000  C
  C27      1.0000 0.31580  0.68630  0.84590  Biso   1.000  C
  C28      1.0000 0.38740  0.75310  0.81040  Biso   1.000  C
  C29      1.0000 0.31540  0.68480  0.91140  Biso   1.000  C
  C30      1.0000 0.11970  0.49900  0.80640  Biso   1.000  C
  C31      1.0000 0.17260  0.88140  0.55250  Biso   1.000  C
  C32      1.0000 0.34600  0.86920  0.54960  Biso   1.000  C
  C33      1.0000 0.25370  0.87680  0.44290  Biso   1.000  C
  C34      1.0000 0.32010  0.93280  0.40970  Biso   1.000  C
  C35      1.0000 0.31500  0.93310  0.34250  Biso   1.000  C
  C36      1.0000 0.24830  0.87420  0.31130  Biso   1.000  C
  C37      1.0000 0.18420  0.81370  0.34590  Biso   1.000  C
  C38      1.0000 0.11260  0.74690  0.31040  Biso   1.000  C
  C39      1.0000 0.18460  0.81520  0.41140  Biso   1.000  C
  C40      1.0000 0.38030  0.00100  0.30640  Biso   1.000  C
  C41      1.0000 0.32740  0.38140  0.55250  Biso   1.000  C
  C42      1.0000 0.15400  0.36920  0.54960  Biso   1.000  C
  C43      1.0000 0.24630  0.37680  0.44290  Biso   1.000  C
  C44      1.0000 0.17990  0.43280  0.40970  Biso   1.000  C
  C45      1.0000 0.18500  0.43310  0.34250  Biso   1.000  C
  C46      1.0000 0.25170  0.37420  0.31130  Biso   1.000  C
  C47      1.0000 0.31580  0.31370  0.34590  Biso   1.000  C
  C48      1.0000 0.38740  0.24690  0.31040  Biso   1.000  C
  C49      1.0000 0.31540  0.31520  0.41140  Biso   1.000  C
  C50      1.0000 0.11970  0.50100  0.30640  Biso   1.000  C
  C51      1.0000 0.17260  0.11860  0.05250  Biso   1.000  C
  C52      1.0000 0.34600  0.13080  0.04960  Biso   1.000  C
  C53      1.0000 0.25370  0.12320  0.94290  Biso   1.000  C
  C54      1.0000 0.32010  0.06720  0.90970  Biso   1.000  C
  C55      1.0000 0.31500  0.06690  0.84250  Biso   1.000  C
  C56      1.0000 0.24830  0.12580  0.81130  Biso   1.000  C
  C57      1.0000 0.18420  0.18630  0.84590  Biso   1.000  C
  C58      1.0000 0.11260  0.25310  0.81040  Biso   1.000  C
  C59      1.0000 0.18460  0.18480  0.91140  Biso   1.000  C
  C60      1.0000 0.38030  0.99900  0.80640  Biso   1.000  C
  C61      1.0000 0.67260  0.38140  0.94750  Biso   1.000  C
  C62      1.0000 0.84600  0.36920  0.95040  Biso   1.000  C
  C63      1.0000 0.75370  0.37680  0.05710  Biso   1.000  C
  C64      1.0000 0.82010  0.43280  0.09030  Biso   1.000  C
  C65      1.0000 0.81500  0.43310  0.15750  Biso   1.000  C
  C66      1.0000 0.74830  0.37420  0.18870  Biso   1.000  C
  C67      1.0000 0.68420  0.31370  0.15410  Biso   1.000  C
  C68      1.0000 0.61260  0.24690  0.18960  Biso   1.000  C
  C69      1.0000 0.68460  0.31520  0.08860  Biso   1.000  C
  C70      1.0000 0.88030  0.50100  0.19360  Biso   1.000  C
  C71      1.0000 0.82740  0.11860  0.44750  Biso   1.000  C
  C72      1.0000 0.65400  0.13080  0.45040  Biso   1.000  C
  C73      1.0000 0.74630  0.12320  0.55710  Biso   1.000  C
  C74      1.0000 0.67990  0.06720  0.59030  Biso   1.000  C
  C75      1.0000 0.68500  0.06690  0.65750  Biso   1.000  C
  C76      1.0000 0.75170  0.12580  0.68870  Biso   1.000  C
  C77      1.0000 0.81580  0.18630  0.65410  Biso   1.000  C
  C78      1.0000 0.88740  0.25310  0.68960  Biso   1.000  C
  C79      1.0000 0.81540  0.18480  0.58860  Biso   1.000  C
  C80      1.0000 0.61970  0.99900  0.69360  Biso   1.000  C
  N1       1.0000 0.75710  0.62330  0.48860  Biso   1.000  N
  N2       1.0000 0.81670  0.62320  0.39080  Biso   1.000  N
  N3       1.0000 0.70460  0.61250  0.38880  Biso   1.000  N
  N4       1.0000 0.74290  0.87670  0.98860  Biso   1.000  N
  N5       1.0000 0.68330  0.87680  0.89080  Biso   1.000  N
  N6       1.0000 0.79540  0.88750  0.88880  Biso   1.000  N
  N7       1.0000 0.24290  0.62330  0.01140  Biso   1.000  N
  N8       1.0000 0.18330  0.62320  0.10920  Biso   1.000  N
  N9       1.0000 0.29540  0.61250  0.11120  Biso   1.000  N
  N10      1.0000 0.25710  0.87670  0.51140  Biso   1.000  N
  N11      1.0000 0.31670  0.87680  0.60920  Biso   1.000  N
  N12      1.0000 0.20460  0.88750  0.61120  Biso   1.000  N
  N13      1.0000 0.24290  0.37670  0.51140  Biso   1.000  N
  N14      1.0000 0.18330  0.37680  0.60920  Biso   1.000  N
  N15      1.0000 0.29540  0.38750  0.61120  Biso   1.000  N
  N16      1.0000 0.25710  0.12330  0.01140  Biso   1.000  N
  N17      1.0000 0.31670  0.12320  0.10920  Biso   1.000  N
  N18      1.0000 0.20460  0.11250  0.11120  Biso   1.000  N
  N19      1.0000 0.75710  0.37670  0.98860  Biso   1.000  N
  N20      1.0000 0.81670  0.37680  0.89080  Biso   1.000  N
  N21      1.0000 0.70460  0.38750  0.88880  Biso   1.000  N
  N22      1.0000 0.74290  0.12330  0.48860  Biso   1.000  N
  N23      1.0000 0.68330  0.12320  0.39080  Biso   1.000  N
  N24      1.0000 0.79540  0.11250  0.38880  Biso   1.000  N
  O1       1.0000 0.64350  0.77610  0.74330  Biso   1.000  O
  O2       1.0000 0.53050  0.78060  0.66060  Biso   1.000  O
  O3       1.0000 0.84920  0.47720  0.74830  Biso   1.000  O
  O4       1.0000 0.96280  0.46870  0.66580  Biso   1.000  O
  O5       1.0000 0.85650  0.72390  0.24330  Biso   1.000  O
  O6       1.0000 0.96950  0.71940  0.16060  Biso   1.000  O
  O7       1.0000 0.65080  0.02280  0.24830  Biso   1.000  O
  O8       1.0000 0.53720  0.03130  0.16580  Biso   1.000  O
  O9       1.0000 0.35650  0.77610  0.75670  Biso   1.000  O
  O10      1.0000 0.46950  0.78060  0.83940  Biso   1.000  O
  O11      1.0000 0.15080  0.47720  0.75170  Biso   1.000  O
  O12      1.0000 0.03720  0.46870  0.83420  Biso   1.000  O
  O13      1.0000 0.14350  0.72390  0.25670  Biso   1.000  O
  O14      1.0000 0.03050  0.71940  0.33940  Biso   1.000  O
  O15      1.0000 0.34920  0.02280  0.25170  Biso   1.000  O
  O16      1.0000 0.46280  0.03130  0.33420  Biso   1.000  O
  O17      1.0000 0.35650  0.22390  0.25670  Biso   1.000  O
  O18      1.0000 0.46950  0.21940  0.33940  Biso   1.000  O
  O19      1.0000 0.15080  0.52280  0.25170  Biso   1.000  O
  O20      1.0000 0.03720  0.53130  0.33420  Biso   1.000  O
  O21      1.0000 0.14350  0.27610  0.75670  Biso   1.000  O
  O22      1.0000 0.03050  0.28060  0.83940  Biso   1.000  O
  O23      1.0000 0.34920  0.97720  0.75170  Biso   1.000  O
  O24      1.0000 0.46280  0.96870  0.83420  Biso   1.000  O
  O25      1.0000 0.64350  0.22390  0.24330  Biso   1.000  O
  O26      1.0000 0.53050  0.21940  0.16060  Biso   1.000  O
  O27      1.0000 0.84920  0.52280  0.24830  Biso   1.000  O
  O28      1.0000 0.96280  0.53130  0.16580  Biso   1.000  O
  O29      1.0000 0.85650  0.27610  0.74330  Biso   1.000  O
  O30      1.0000 0.96950  0.28060  0.66060  Biso   1.000  O
  O31      1.0000 0.65080  0.97720  0.74830  Biso   1.000  O
  O32      1.0000 0.53720  0.96870  0.66580  Biso   1.000  O
