data_image0
_cell_length_a       22.3992
_cell_length_b       22.3992
_cell_length_c       22.3992
_cell_angle_alpha    109.471
_cell_angle_beta     109.471
_cell_angle_gamma    109.471

_symmetry_space_group_name_H-M    P 1
_symmetry_int_tables_number       1

loop_
  _symmetry_equiv_pos_as_xyz
  'x, y, z'

loop_
  _atom_site_label
  _atom_site_occupancy
  _atom_site_fract_x
  _atom_site_fract_y
  _atom_site_fract_z
  _atom_site_thermal_displace_type
  _atom_site_B_iso_or_equiv
  _atom_site_type_symbol
  Zn1      1.0000 0.50000  0.96262  0.50000  Biso   1.000  Zn
  Zn2      1.0000 0.50000  0.80562  0.50000  Biso   1.000  Zn
  Zn3      1.0000 0.96262  0.00000  0.00000  Biso   1.000  Zn
  Zn4      1.0000 0.80562  0.00000  0.00000  Biso   1.000  Zn
  Zn5      1.0000 0.53738  0.53738  0.03738  Biso   1.000  Zn
  Zn6      1.0000 0.69438  0.69438  0.19438  Biso   1.000  Zn
  Zn7      1.0000 0.00000  0.50000  0.46262  Biso   1.000  Zn
  Zn8      1.0000 0.00000  0.50000  0.30562  Biso   1.000  Zn
  Zn9      1.0000 0.50000  0.46262  0.50000  Biso   1.000  Zn
  Zn10     1.0000 0.50000  0.30562  0.50000  Biso   1.000  Zn
  Zn11     1.0000 0.46262  0.00000  0.00000  Biso   1.000  Zn
  Zn12     1.0000 0.30562  0.00000  0.00000  Biso   1.000  Zn
  Zn13     1.0000 0.00000  0.50000  0.96262  Biso   1.000  Zn
  Zn14     1.0000 0.00000  0.50000  0.80562  Biso   1.000  Zn
  Zn15     1.0000 0.03738  0.03738  0.53738  Biso   1.000  Zn
  Zn16     1.0000 0.19438  0.19438  0.69438  Biso   1.000  Zn
  H1       1.0000 0.67690  0.99790  0.46360  Biso   1.000  H
  H2       1.0000 0.79330  0.04820  0.48030  Biso   1.000  H
  H3       1.0000 0.85170  0.97230  0.61800  Biso   1.000  H
  H4       1.0000 0.73450  0.91920  0.59590  Biso   1.000  H
  H5       1.0000 0.92140  0.08750  0.55090  Biso   1.000  H
  H6       1.0000 0.94790  0.06310  0.60960  Biso   1.000  H
  H7       1.0000 0.85430  0.89660  0.49510  Biso   1.000  H
  H8       1.0000 0.93280  0.94210  0.56750  Biso   1.000  H
  H9       1.0000 0.84290  0.99130  0.42960  Biso   1.000  H
  H10      1.0000 0.85430  0.92310  0.39840  Biso   1.000  H
  H11      1.0000 0.03430  0.21330  0.03640  Biso   1.000  H
  H12      1.0000 0.06790  0.31300  0.01970  Biso   1.000  H
  H13      1.0000 0.85430  0.23370  0.88200  Biso   1.000  H
  H14      1.0000 0.82330  0.13860  0.90410  Biso   1.000  H
  H15      1.0000 0.03660  0.37050  0.94910  Biso   1.000  H
  H16      1.0000 0.95350  0.33830  0.89040  Biso   1.000  H
  H17      1.0000 0.90150  0.35920  0.00490  Biso   1.000  H
  H18      1.0000 0.87460  0.36530  0.93250  Biso   1.000  H
  H19      1.0000 0.06170  0.41330  0.07040  Biso   1.000  H
  H20      1.0000 0.02470  0.45590  0.10160  Biso   1.000  H
  H21      1.0000 0.46570  0.50210  0.17900  Biso   1.000  H
  H22      1.0000 0.43210  0.45180  0.24510  Biso   1.000  H
  H23      1.0000 0.64570  0.52770  0.37940  Biso   1.000  H
  H24      1.0000 0.67670  0.58080  0.31530  Biso   1.000  H
  H25      1.0000 0.46340  0.41250  0.33390  Biso   1.000  H
  H26      1.0000 0.54650  0.43690  0.38480  Biso   1.000  H
  H27      1.0000 0.59850  0.60340  0.45770  Biso   1.000  H
  H28      1.0000 0.62540  0.55790  0.49070  Biso   1.000  H
  H29      1.0000 0.43830  0.50870  0.35160  Biso   1.000  H
  H30      1.0000 0.47530  0.57690  0.43120  Biso   1.000  H
  H31      1.0000 0.82310  0.28670  0.32100  Biso   1.000  H
  H32      1.0000 0.70670  0.18700  0.25490  Biso   1.000  H
  H33      1.0000 0.64830  0.26630  0.12060  Biso   1.000  H
  H34      1.0000 0.76550  0.36140  0.18470  Biso   1.000  H
  H35      1.0000 0.57860  0.12950  0.16610  Biso   1.000  H
  H36      1.0000 0.55210  0.16170  0.11520  Biso   1.000  H
  H37      1.0000 0.64570  0.14080  0.04230  Biso   1.000  H
  H38      1.0000 0.56720  0.13470  0.00930  Biso   1.000  H
  H39      1.0000 0.65710  0.08670  0.14840  Biso   1.000  H
  H40      1.0000 0.64570  0.04410  0.06880  Biso   1.000  H
  H41      1.0000 0.67900  0.46570  0.00210  Biso   1.000  H
  H42      1.0000 0.74510  0.43210  0.95180  Biso   1.000  H
  H43      1.0000 0.87940  0.64570  0.02770  Biso   1.000  H
  H44      1.0000 0.81530  0.67670  0.08080  Biso   1.000  H
  H45      1.0000 0.83390  0.46340  0.91250  Biso   1.000  H
  H46      1.0000 0.88480  0.54650  0.93690  Biso   1.000  H
  H47      1.0000 0.95770  0.59850  0.10340  Biso   1.000  H
  H48      1.0000 0.99070  0.62540  0.05790  Biso   1.000  H
  H49      1.0000 0.85160  0.43830  0.00870  Biso   1.000  H
  H50      1.0000 0.93120  0.47530  0.07690  Biso   1.000  H
  H51      1.0000 0.82100  0.82310  0.78670  Biso   1.000  H
  H52      1.0000 0.75490  0.70670  0.68700  Biso   1.000  H
  H53      1.0000 0.62060  0.64830  0.76630  Biso   1.000  H
  H54      1.0000 0.68470  0.76550  0.86140  Biso   1.000  H
  H55      1.0000 0.66610  0.57860  0.62950  Biso   1.000  H
  H56      1.0000 0.61520  0.55210  0.66170  Biso   1.000  H
  H57      1.0000 0.54230  0.64570  0.64080  Biso   1.000  H
  H58      1.0000 0.50930  0.56720  0.63470  Biso   1.000  H
  H59      1.0000 0.64840  0.65710  0.58670  Biso   1.000  H
  H60      1.0000 0.56880  0.64570  0.54410  Biso   1.000  H
  H61      1.0000 0.96360  0.67690  0.49790  Biso   1.000  H
  H62      1.0000 0.98030  0.79330  0.54820  Biso   1.000  H
  H63      1.0000 0.11800  0.85170  0.47230  Biso   1.000  H
  H64      1.0000 0.09590  0.73450  0.41920  Biso   1.000  H
  H65      1.0000 0.05090  0.92140  0.58750  Biso   1.000  H
  H66      1.0000 0.10960  0.94790  0.56310  Biso   1.000  H
  H67      1.0000 0.99510  0.85430  0.39660  Biso   1.000  H
  H68      1.0000 0.06750  0.93280  0.44210  Biso   1.000  H
  H69      1.0000 0.92960  0.84290  0.49130  Biso   1.000  H
  H70      1.0000 0.89840  0.85430  0.42310  Biso   1.000  H
  H71      1.0000 0.53640  0.03430  0.71330  Biso   1.000  H
  H72      1.0000 0.51970  0.06790  0.81300  Biso   1.000  H
  H73      1.0000 0.38200  0.85430  0.73370  Biso   1.000  H
  H74      1.0000 0.40410  0.82330  0.63860  Biso   1.000  H
  H75      1.0000 0.44910  0.03660  0.87050  Biso   1.000  H
  H76      1.0000 0.39040  0.95350  0.83830  Biso   1.000  H
  H77      1.0000 0.50490  0.90150  0.85920  Biso   1.000  H
  H78      1.0000 0.43250  0.87460  0.86530  Biso   1.000  H
  H79      1.0000 0.57040  0.06170  0.91330  Biso   1.000  H
  H80      1.0000 0.60160  0.02470  0.95590  Biso   1.000  H
  H81      1.0000 0.21330  0.53640  0.53430  Biso   1.000  H
  H82      1.0000 0.31300  0.51970  0.56790  Biso   1.000  H
  H83      1.0000 0.23370  0.38200  0.35430  Biso   1.000  H
  H84      1.0000 0.13860  0.40410  0.32330  Biso   1.000  H
  H85      1.0000 0.37050  0.44910  0.53660  Biso   1.000  H
  H86      1.0000 0.33830  0.39040  0.45350  Biso   1.000  H
  H87      1.0000 0.35920  0.50490  0.40150  Biso   1.000  H
  H88      1.0000 0.36530  0.43250  0.37460  Biso   1.000  H
  H89      1.0000 0.41330  0.57040  0.56170  Biso   1.000  H
  H90      1.0000 0.45590  0.60160  0.52470  Biso   1.000  H
  H91      1.0000 0.99790  0.96360  0.17690  Biso   1.000  H
  H92      1.0000 0.04820  0.98030  0.29330  Biso   1.000  H
  H93      1.0000 0.97230  0.11800  0.35170  Biso   1.000  H
  H94      1.0000 0.91920  0.09590  0.23450  Biso   1.000  H
  H95      1.0000 0.08750  0.05090  0.42140  Biso   1.000  H
  H96      1.0000 0.06310  0.10960  0.44790  Biso   1.000  H
  H97      1.0000 0.89660  0.99510  0.35430  Biso   1.000  H
  H98      1.0000 0.94210  0.06750  0.43280  Biso   1.000  H
  H99      1.0000 0.99130  0.92960  0.34290  Biso   1.000  H
  H100     1.0000 0.92310  0.89840  0.35430  Biso   1.000  H
  H101     1.0000 0.28670  0.82100  0.32310  Biso   1.000  H
  H102     1.0000 0.18700  0.75490  0.20670  Biso   1.000  H
  H103     1.0000 0.26630  0.62060  0.14830  Biso   1.000  H
  H104     1.0000 0.36140  0.68470  0.26550  Biso   1.000  H
  H105     1.0000 0.12950  0.66610  0.07860  Biso   1.000  H
  H106     1.0000 0.16170  0.61520  0.05210  Biso   1.000  H
  H107     1.0000 0.14080  0.54230  0.14570  Biso   1.000  H
  H108     1.0000 0.13470  0.50930  0.06720  Biso   1.000  H
  H109     1.0000 0.08670  0.64840  0.15710  Biso   1.000  H
  H110     1.0000 0.04410  0.56880  0.14570  Biso   1.000  H
  H111     1.0000 0.50210  0.67900  0.96570  Biso   1.000  H
  H112     1.0000 0.45180  0.74510  0.93210  Biso   1.000  H
  H113     1.0000 0.52770  0.87940  0.14570  Biso   1.000  H
  H114     1.0000 0.58080  0.81530  0.17670  Biso   1.000  H
  H115     1.0000 0.41250  0.83390  0.96340  Biso   1.000  H
  H116     1.0000 0.43690  0.88480  0.04650  Biso   1.000  H
  H117     1.0000 0.60340  0.95770  0.09850  Biso   1.000  H
  H118     1.0000 0.55790  0.99070  0.12540  Biso   1.000  H
  H119     1.0000 0.50870  0.85160  0.93830  Biso   1.000  H
  H120     1.0000 0.57690  0.93120  0.97530  Biso   1.000  H
  H121     1.0000 0.71330  0.53430  0.53640  Biso   1.000  H
  H122     1.0000 0.81300  0.56790  0.51970  Biso   1.000  H
  H123     1.0000 0.73370  0.35430  0.38200  Biso   1.000  H
  H124     1.0000 0.63860  0.32330  0.40410  Biso   1.000  H
  H125     1.0000 0.87050  0.53660  0.44910  Biso   1.000  H
  H126     1.0000 0.83830  0.45350  0.39040  Biso   1.000  H
  H127     1.0000 0.85920  0.40150  0.50490  Biso   1.000  H
  H128     1.0000 0.86530  0.37460  0.43250  Biso   1.000  H
  H129     1.0000 0.91330  0.56170  0.57040  Biso   1.000  H
  H130     1.0000 0.95590  0.52470  0.60160  Biso   1.000  H
  H131     1.0000 0.49790  0.17690  0.96360  Biso   1.000  H
  H132     1.0000 0.54820  0.29330  0.98030  Biso   1.000  H
  H133     1.0000 0.47230  0.35170  0.11800  Biso   1.000  H
  H134     1.0000 0.41920  0.23450  0.09590  Biso   1.000  H
  H135     1.0000 0.58750  0.42140  0.05090  Biso   1.000  H
  H136     1.0000 0.56310  0.44790  0.10960  Biso   1.000  H
  H137     1.0000 0.39660  0.35430  0.99510  Biso   1.000  H
  H138     1.0000 0.44210  0.43280  0.06750  Biso   1.000  H
  H139     1.0000 0.49130  0.34290  0.92960  Biso   1.000  H
  H140     1.0000 0.42310  0.35430  0.89840  Biso   1.000  H
  H141     1.0000 0.78670  0.32310  0.82100  Biso   1.000  H
  H142     1.0000 0.68700  0.20670  0.75490  Biso   1.000  H
  H143     1.0000 0.76630  0.14830  0.62060  Biso   1.000  H
  H144     1.0000 0.86140  0.26550  0.68470  Biso   1.000  H
  H145     1.0000 0.62950  0.07860  0.66610  Biso   1.000  H
  H146     1.0000 0.66170  0.05210  0.61520  Biso   1.000  H
  H147     1.0000 0.64080  0.14570  0.54230  Biso   1.000  H
  H148     1.0000 0.63470  0.06720  0.50930  Biso   1.000  H
  H149     1.0000 0.58670  0.15710  0.64840  Biso   1.000  H
  H150     1.0000 0.54410  0.14570  0.56880  Biso   1.000  H
  H151     1.0000 0.00210  0.96570  0.67900  Biso   1.000  H
  H152     1.0000 0.95180  0.93210  0.74510  Biso   1.000  H
  H153     1.0000 0.02770  0.14570  0.87940  Biso   1.000  H
  H154     1.0000 0.08080  0.17670  0.81530  Biso   1.000  H
  H155     1.0000 0.91250  0.96340  0.83390  Biso   1.000  H
  H156     1.0000 0.93690  0.04650  0.88480  Biso   1.000  H
  H157     1.0000 0.10340  0.09850  0.95770  Biso   1.000  H
  H158     1.0000 0.05790  0.12540  0.99070  Biso   1.000  H
  H159     1.0000 0.00870  0.93830  0.85160  Biso   1.000  H
  H160     1.0000 0.07690  0.97530  0.93120  Biso   1.000  H
  H161     1.0000 0.17690  0.46360  0.99790  Biso   1.000  H
  H162     1.0000 0.29330  0.48030  0.04820  Biso   1.000  H
  H163     1.0000 0.35170  0.61800  0.97230  Biso   1.000  H
  H164     1.0000 0.23450  0.59590  0.91920  Biso   1.000  H
  H165     1.0000 0.42140  0.55090  0.08750  Biso   1.000  H
  H166     1.0000 0.44790  0.60960  0.06310  Biso   1.000  H
  H167     1.0000 0.35430  0.49510  0.89660  Biso   1.000  H
  H168     1.0000 0.43280  0.56750  0.94210  Biso   1.000  H
  H169     1.0000 0.34290  0.42960  0.99130  Biso   1.000  H
  H170     1.0000 0.35430  0.39840  0.92310  Biso   1.000  H
  H171     1.0000 0.53430  0.03640  0.21330  Biso   1.000  H
  H172     1.0000 0.56790  0.01970  0.31300  Biso   1.000  H
  H173     1.0000 0.35430  0.88200  0.23370  Biso   1.000  H
  H174     1.0000 0.32330  0.90410  0.13860  Biso   1.000  H
  H175     1.0000 0.53660  0.94910  0.37050  Biso   1.000  H
  H176     1.0000 0.45350  0.89040  0.33830  Biso   1.000  H
  H177     1.0000 0.40150  0.00490  0.35920  Biso   1.000  H
  H178     1.0000 0.37460  0.93250  0.36530  Biso   1.000  H
  H179     1.0000 0.56170  0.07040  0.41330  Biso   1.000  H
  H180     1.0000 0.52470  0.10160  0.45590  Biso   1.000  H
  H181     1.0000 0.96570  0.17900  0.50210  Biso   1.000  H
  H182     1.0000 0.93210  0.24510  0.45180  Biso   1.000  H
  H183     1.0000 0.14570  0.37940  0.52770  Biso   1.000  H
  H184     1.0000 0.17670  0.31530  0.58080  Biso   1.000  H
  H185     1.0000 0.96340  0.33390  0.41250  Biso   1.000  H
  H186     1.0000 0.04650  0.38480  0.43690  Biso   1.000  H
  H187     1.0000 0.09850  0.45770  0.60340  Biso   1.000  H
  H188     1.0000 0.12540  0.49070  0.55790  Biso   1.000  H
  H189     1.0000 0.93830  0.35160  0.50870  Biso   1.000  H
  H190     1.0000 0.97530  0.43120  0.57690  Biso   1.000  H
  H191     1.0000 0.32310  0.32100  0.28670  Biso   1.000  H
  H192     1.0000 0.20670  0.25490  0.18700  Biso   1.000  H
  H193     1.0000 0.14830  0.12060  0.26630  Biso   1.000  H
  H194     1.0000 0.26550  0.18470  0.36140  Biso   1.000  H
  H195     1.0000 0.07860  0.16610  0.12950  Biso   1.000  H
  H196     1.0000 0.05210  0.11520  0.16170  Biso   1.000  H
  H197     1.0000 0.14570  0.04230  0.14080  Biso   1.000  H
  H198     1.0000 0.06720  0.00930  0.13470  Biso   1.000  H
  H199     1.0000 0.15710  0.14840  0.08670  Biso   1.000  H
  H200     1.0000 0.14570  0.06880  0.04410  Biso   1.000  H
  H201     1.0000 0.17900  0.00210  0.46570  Biso   1.000  H
  H202     1.0000 0.24510  0.95180  0.43210  Biso   1.000  H
  H203     1.0000 0.37940  0.02770  0.64570  Biso   1.000  H
  H204     1.0000 0.31530  0.08080  0.67670  Biso   1.000  H
  H205     1.0000 0.33390  0.91250  0.46340  Biso   1.000  H
  H206     1.0000 0.38480  0.93690  0.54650  Biso   1.000  H
  H207     1.0000 0.45770  0.10340  0.59850  Biso   1.000  H
  H208     1.0000 0.49070  0.05790  0.62540  Biso   1.000  H
  H209     1.0000 0.35160  0.00870  0.43830  Biso   1.000  H
  H210     1.0000 0.43120  0.07690  0.47530  Biso   1.000  H
  H211     1.0000 0.32100  0.78670  0.82310  Biso   1.000  H
  H212     1.0000 0.25490  0.68700  0.70670  Biso   1.000  H
  H213     1.0000 0.12060  0.76630  0.64830  Biso   1.000  H
  H214     1.0000 0.18470  0.86140  0.76550  Biso   1.000  H
  H215     1.0000 0.16610  0.62950  0.57860  Biso   1.000  H
  H216     1.0000 0.11520  0.66170  0.55210  Biso   1.000  H
  H217     1.0000 0.04230  0.64080  0.64570  Biso   1.000  H
  H218     1.0000 0.00930  0.63470  0.56720  Biso   1.000  H
  H219     1.0000 0.14840  0.58670  0.65710  Biso   1.000  H
  H220     1.0000 0.06880  0.54410  0.64570  Biso   1.000  H
  H221     1.0000 0.46360  0.49790  0.67690  Biso   1.000  H
  H222     1.0000 0.48030  0.54820  0.79330  Biso   1.000  H
  H223     1.0000 0.61800  0.47230  0.85170  Biso   1.000  H
  H224     1.0000 0.59590  0.41920  0.73450  Biso   1.000  H
  H225     1.0000 0.55090  0.58750  0.92140  Biso   1.000  H
  H226     1.0000 0.60960  0.56310  0.94790  Biso   1.000  H
  H227     1.0000 0.49510  0.39660  0.85430  Biso   1.000  H
  H228     1.0000 0.56750  0.44210  0.93280  Biso   1.000  H
  H229     1.0000 0.42960  0.49130  0.84290  Biso   1.000  H
  H230     1.0000 0.39840  0.42310  0.85430  Biso   1.000  H
  H231     1.0000 0.03640  0.71330  0.03430  Biso   1.000  H
  H232     1.0000 0.01970  0.81300  0.06790  Biso   1.000  H
  H233     1.0000 0.88200  0.73370  0.85430  Biso   1.000  H
  H234     1.0000 0.90410  0.63860  0.82330  Biso   1.000  H
  H235     1.0000 0.94910  0.87050  0.03660  Biso   1.000  H
  H236     1.0000 0.89040  0.83830  0.95350  Biso   1.000  H
  H237     1.0000 0.00490  0.85920  0.90150  Biso   1.000  H
  H238     1.0000 0.93250  0.86530  0.87460  Biso   1.000  H
  H239     1.0000 0.07040  0.91330  0.06170  Biso   1.000  H
  H240     1.0000 0.10160  0.95590  0.02470  Biso   1.000  H
  C1       1.0000 0.61610  0.91800  0.51210  Biso   1.000  C
  C2       1.0000 0.69320  0.95130  0.52590  Biso   1.000  C
  C3       1.0000 0.71250  0.99120  0.49370  Biso   1.000  C
  C4       1.0000 0.78160  0.02150  0.50390  Biso   1.000  C
  C5       1.0000 0.83550  0.01330  0.54960  Biso   1.000  C
  C6       1.0000 0.81580  0.97620  0.58460  Biso   1.000  C
  C7       1.0000 0.74660  0.94550  0.57210  Biso   1.000  C
  C8       1.0000 0.91150  0.04510  0.55880  Biso   1.000  C
  C9       1.0000 0.90740  0.92650  0.51490  Biso   1.000  C
  C10      1.0000 0.88030  0.97650  0.43240  Biso   1.000  C
  C11      1.0000 0.90590  0.10400  0.98790  Biso   1.000  C
  C12      1.0000 0.92540  0.16730  0.97410  Biso   1.000  C
  C13      1.0000 0.99750  0.21880  0.00630  Biso   1.000  C
  C14      1.0000 0.01760  0.27770  0.99610  Biso   1.000  C
  C15      1.0000 0.96370  0.28590  0.95040  Biso   1.000  C
  C16      1.0000 0.89160  0.23120  0.91540  Biso   1.000  C
  C17      1.0000 0.87340  0.17450  0.92790  Biso   1.000  C
  C18      1.0000 0.98630  0.35270  0.94120  Biso   1.000  C
  C19      1.0000 0.91160  0.39250  0.98510  Biso   1.000  C
  C20      1.0000 0.04410  0.44790  0.06760  Biso   1.000  C
  C21      1.0000 0.59410  0.58200  0.19810  Biso   1.000  C
  C22      1.0000 0.57460  0.54870  0.24190  Biso   1.000  C
  C23      1.0000 0.50250  0.50880  0.22130  Biso   1.000  C
  C24      1.0000 0.48240  0.47850  0.26010  Biso   1.000  C
  C25      1.0000 0.53630  0.48670  0.32220  Biso   1.000  C
  C26      1.0000 0.60840  0.52380  0.33960  Biso   1.000  C
  C27      1.0000 0.62660  0.55450  0.30110  Biso   1.000  C
  C28      1.0000 0.51370  0.45490  0.36640  Biso   1.000  C
  C29      1.0000 0.58840  0.57350  0.48090  Biso   1.000  C
  C30      1.0000 0.45590  0.52350  0.40380  Biso   1.000  C
  C31      1.0000 0.88390  0.39600  0.30190  Biso   1.000  C
  C32      1.0000 0.80680  0.33270  0.25810  Biso   1.000  C
  C33      1.0000 0.78750  0.28120  0.27870  Biso   1.000  C
  C34      1.0000 0.71840  0.22230  0.23990  Biso   1.000  C
  C35      1.0000 0.66450  0.21410  0.17780  Biso   1.000  C
  C36      1.0000 0.68420  0.26880  0.16040  Biso   1.000  C
  C37      1.0000 0.75340  0.32550  0.19890  Biso   1.000  C
  C38      1.0000 0.58850  0.14730  0.13360  Biso   1.000  C
  C39      1.0000 0.59260  0.10750  0.01910  Biso   1.000  C
  C40      1.0000 0.61970  0.05210  0.09620  Biso   1.000  C
  C41      1.0000 0.69810  0.59410  0.08200  Biso   1.000  C
  C42      1.0000 0.74190  0.57460  0.04870  Biso   1.000  C
  C43      1.0000 0.72130  0.50250  0.00880  Biso   1.000  C
  C44      1.0000 0.76010  0.48240  0.97850  Biso   1.000  C
  C45      1.0000 0.82220  0.53630  0.98670  Biso   1.000  C
  C46      1.0000 0.83960  0.60840  0.02380  Biso   1.000  C
  C47      1.0000 0.80110  0.62660  0.05450  Biso   1.000  C
  C48      1.0000 0.86640  0.51370  0.95490  Biso   1.000  C
  C49      1.0000 0.98090  0.58840  0.07350  Biso   1.000  C
  C50      1.0000 0.90380  0.45590  0.02350  Biso   1.000  C
  C51      1.0000 0.80190  0.88390  0.89600  Biso   1.000  C
  C52      1.0000 0.75810  0.80680  0.83270  Biso   1.000  C
  C53      1.0000 0.77870  0.78750  0.78120  Biso   1.000  C
  C54      1.0000 0.73990  0.71840  0.72230  Biso   1.000  C
  C55      1.0000 0.67780  0.66450  0.71410  Biso   1.000  C
  C56      1.0000 0.66040  0.68420  0.76880  Biso   1.000  C
  C57      1.0000 0.69890  0.75340  0.82550  Biso   1.000  C
  C58      1.0000 0.63360  0.58850  0.64730  Biso   1.000  C
  C59      1.0000 0.51910  0.59260  0.60750  Biso   1.000  C
  C60      1.0000 0.59620  0.61970  0.55210  Biso   1.000  C
  C61      1.0000 0.01210  0.61610  0.41800  Biso   1.000  C
  C62      1.0000 0.02590  0.69320  0.45130  Biso   1.000  C
  C63      1.0000 0.99370  0.71250  0.49120  Biso   1.000  C
  C64      1.0000 0.00390  0.78160  0.52150  Biso   1.000  C
  C65      1.0000 0.04960  0.83550  0.51330  Biso   1.000  C
  C66      1.0000 0.08460  0.81580  0.47620  Biso   1.000  C
  C67      1.0000 0.07210  0.74660  0.44550  Biso   1.000  C
  C68      1.0000 0.05880  0.91150  0.54510  Biso   1.000  C
  C69      1.0000 0.01490  0.90740  0.42650  Biso   1.000  C
  C70      1.0000 0.93240  0.88030  0.47650  Biso   1.000  C
  C71      1.0000 0.48790  0.90590  0.60400  Biso   1.000  C
  C72      1.0000 0.47410  0.92540  0.66730  Biso   1.000  C
  C73      1.0000 0.50630  0.99750  0.71880  Biso   1.000  C
  C74      1.0000 0.49610  0.01760  0.77770  Biso   1.000  C
  C75      1.0000 0.45040  0.96370  0.78590  Biso   1.000  C
  C76      1.0000 0.41540  0.89160  0.73120  Biso   1.000  C
  C77      1.0000 0.42790  0.87340  0.67450  Biso   1.000  C
  C78      1.0000 0.44120  0.98630  0.85270  Biso   1.000  C
  C79      1.0000 0.48510  0.91160  0.89250  Biso   1.000  C
  C80      1.0000 0.56760  0.04410  0.94790  Biso   1.000  C
  C81      1.0000 0.10400  0.48790  0.40590  Biso   1.000  C
  C82      1.0000 0.16730  0.47410  0.42540  Biso   1.000  C
  C83      1.0000 0.21880  0.50630  0.49750  Biso   1.000  C
  C84      1.0000 0.27770  0.49610  0.51760  Biso   1.000  C
  C85      1.0000 0.28590  0.45040  0.46370  Biso   1.000  C
  C86      1.0000 0.23120  0.41540  0.39160  Biso   1.000  C
  C87      1.0000 0.17450  0.42790  0.37340  Biso   1.000  C
  C88      1.0000 0.35270  0.44120  0.48630  Biso   1.000  C
  C89      1.0000 0.39250  0.48510  0.41160  Biso   1.000  C
  C90      1.0000 0.44790  0.56760  0.54410  Biso   1.000  C
  C91      1.0000 0.91800  0.01210  0.11610  Biso   1.000  C
  C92      1.0000 0.95130  0.02590  0.19320  Biso   1.000  C
  C93      1.0000 0.99120  0.99370  0.21250  Biso   1.000  C
  C94      1.0000 0.02150  0.00390  0.28160  Biso   1.000  C
  C95      1.0000 0.01330  0.04960  0.33550  Biso   1.000  C
  C96      1.0000 0.97620  0.08460  0.31580  Biso   1.000  C
  C97      1.0000 0.94550  0.07210  0.24660  Biso   1.000  C
  C98      1.0000 0.04510  0.05880  0.41150  Biso   1.000  C
  C99      1.0000 0.92650  0.01490  0.40740  Biso   1.000  C
  C100     1.0000 0.97650  0.93240  0.38030  Biso   1.000  C
  C101     1.0000 0.39600  0.80190  0.38390  Biso   1.000  C
  C102     1.0000 0.33270  0.75810  0.30680  Biso   1.000  C
  C103     1.0000 0.28120  0.77870  0.28750  Biso   1.000  C
  C104     1.0000 0.22230  0.73990  0.21840  Biso   1.000  C
  C105     1.0000 0.21410  0.67780  0.16450  Biso   1.000  C
  C106     1.0000 0.26880  0.66040  0.18420  Biso   1.000  C
  C107     1.0000 0.32550  0.69890  0.25340  Biso   1.000  C
  C108     1.0000 0.14730  0.63360  0.08850  Biso   1.000  C
  C109     1.0000 0.10750  0.51910  0.09260  Biso   1.000  C
  C110     1.0000 0.05210  0.59620  0.11970  Biso   1.000  C
  C111     1.0000 0.58200  0.69810  0.09410  Biso   1.000  C
  C112     1.0000 0.54870  0.74190  0.07460  Biso   1.000  C
  C113     1.0000 0.50880  0.72130  0.00250  Biso   1.000  C
  C114     1.0000 0.47850  0.76010  0.98240  Biso   1.000  C
  C115     1.0000 0.48670  0.82220  0.03630  Biso   1.000  C
  C116     1.0000 0.52380  0.83960  0.10840  Biso   1.000  C
  C117     1.0000 0.55450  0.80110  0.12660  Biso   1.000  C
  C118     1.0000 0.45490  0.86640  0.01370  Biso   1.000  C
  C119     1.0000 0.57350  0.98090  0.08840  Biso   1.000  C
  C120     1.0000 0.52350  0.90380  0.95590  Biso   1.000  C
  C121     1.0000 0.60400  0.40590  0.48790  Biso   1.000  C
  C122     1.0000 0.66730  0.42540  0.47410  Biso   1.000  C
  C123     1.0000 0.71880  0.49750  0.50630  Biso   1.000  C
  C124     1.0000 0.77770  0.51760  0.49610  Biso   1.000  C
  C125     1.0000 0.78590  0.46370  0.45040  Biso   1.000  C
  C126     1.0000 0.73120  0.39160  0.41540  Biso   1.000  C
  C127     1.0000 0.67450  0.37340  0.42790  Biso   1.000  C
  C128     1.0000 0.85270  0.48630  0.44120  Biso   1.000  C
  C129     1.0000 0.89250  0.41160  0.48510  Biso   1.000  C
  C130     1.0000 0.94790  0.54410  0.56760  Biso   1.000  C
  C131     1.0000 0.41800  0.11610  0.01210  Biso   1.000  C
  C132     1.0000 0.45130  0.19320  0.02590  Biso   1.000  C
  C133     1.0000 0.49120  0.21250  0.99370  Biso   1.000  C
  C134     1.0000 0.52150  0.28160  0.00390  Biso   1.000  C
  C135     1.0000 0.51330  0.33550  0.04960  Biso   1.000  C
  C136     1.0000 0.47620  0.31580  0.08460  Biso   1.000  C
  C137     1.0000 0.44550  0.24660  0.07210  Biso   1.000  C
  C138     1.0000 0.54510  0.41150  0.05880  Biso   1.000  C
  C139     1.0000 0.42650  0.40740  0.01490  Biso   1.000  C
  C140     1.0000 0.47650  0.38030  0.93240  Biso   1.000  C
  C141     1.0000 0.89600  0.38390  0.80190  Biso   1.000  C
  C142     1.0000 0.83270  0.30680  0.75810  Biso   1.000  C
  C143     1.0000 0.78120  0.28750  0.77870  Biso   1.000  C
  C144     1.0000 0.72230  0.21840  0.73990  Biso   1.000  C
  C145     1.0000 0.71410  0.16450  0.67780  Biso   1.000  C
  C146     1.0000 0.76880  0.18420  0.66040  Biso   1.000  C
  C147     1.0000 0.82550  0.25340  0.69890  Biso   1.000  C
  C148     1.0000 0.64730  0.08850  0.63360  Biso   1.000  C
  C149     1.0000 0.60750  0.09260  0.51910  Biso   1.000  C
  C150     1.0000 0.55210  0.11970  0.59620  Biso   1.000  C
  C151     1.0000 0.08200  0.09410  0.69810  Biso   1.000  C
  C152     1.0000 0.04870  0.07460  0.74190  Biso   1.000  C
  C153     1.0000 0.00880  0.00250  0.72130  Biso   1.000  C
  C154     1.0000 0.97850  0.98240  0.76010  Biso   1.000  C
  C155     1.0000 0.98670  0.03630  0.82220  Biso   1.000  C
  C156     1.0000 0.02380  0.10840  0.83960  Biso   1.000  C
  C157     1.0000 0.05450  0.12660  0.80110  Biso   1.000  C
  C158     1.0000 0.95490  0.01370  0.86640  Biso   1.000  C
  C159     1.0000 0.07350  0.08840  0.98090  Biso   1.000  C
  C160     1.0000 0.02350  0.95590  0.90380  Biso   1.000  C
  C161     1.0000 0.11610  0.51210  0.91800  Biso   1.000  C
  C162     1.0000 0.19320  0.52590  0.95130  Biso   1.000  C
  C163     1.0000 0.21250  0.49370  0.99120  Biso   1.000  C
  C164     1.0000 0.28160  0.50390  0.02150  Biso   1.000  C
  C165     1.0000 0.33550  0.54960  0.01330  Biso   1.000  C
  C166     1.0000 0.31580  0.58460  0.97620  Biso   1.000  C
  C167     1.0000 0.24660  0.57210  0.94550  Biso   1.000  C
  C168     1.0000 0.41150  0.55880  0.04510  Biso   1.000  C
  C169     1.0000 0.40740  0.51490  0.92650  Biso   1.000  C
  C170     1.0000 0.38030  0.43240  0.97650  Biso   1.000  C
  C171     1.0000 0.40590  0.98790  0.10400  Biso   1.000  C
  C172     1.0000 0.42540  0.97410  0.16730  Biso   1.000  C
  C173     1.0000 0.49750  0.00630  0.21880  Biso   1.000  C
  C174     1.0000 0.51760  0.99610  0.27770  Biso   1.000  C
  C175     1.0000 0.46370  0.95040  0.28590  Biso   1.000  C
  C176     1.0000 0.39160  0.91540  0.23120  Biso   1.000  C
  C177     1.0000 0.37340  0.92790  0.17450  Biso   1.000  C
  C178     1.0000 0.48630  0.94120  0.35270  Biso   1.000  C
  C179     1.0000 0.41160  0.98510  0.39250  Biso   1.000  C
  C180     1.0000 0.54410  0.06760  0.44790  Biso   1.000  C
  C181     1.0000 0.09410  0.19810  0.58200  Biso   1.000  C
  C182     1.0000 0.07460  0.24190  0.54870  Biso   1.000  C
  C183     1.0000 0.00250  0.22130  0.50880  Biso   1.000  C
  C184     1.0000 0.98240  0.26010  0.47850  Biso   1.000  C
  C185     1.0000 0.03630  0.32220  0.48670  Biso   1.000  C
  C186     1.0000 0.10840  0.33960  0.52380  Biso   1.000  C
  C187     1.0000 0.12660  0.30110  0.55450  Biso   1.000  C
  C188     1.0000 0.01370  0.36640  0.45490  Biso   1.000  C
  C189     1.0000 0.08840  0.48090  0.57350  Biso   1.000  C
  C190     1.0000 0.95590  0.40380  0.52350  Biso   1.000  C
  C191     1.0000 0.38390  0.30190  0.39600  Biso   1.000  C
  C192     1.0000 0.30680  0.25810  0.33270  Biso   1.000  C
  C193     1.0000 0.28750  0.27870  0.28120  Biso   1.000  C
  C194     1.0000 0.21840  0.23990  0.22230  Biso   1.000  C
  C195     1.0000 0.16450  0.17780  0.21410  Biso   1.000  C
  C196     1.0000 0.18420  0.16040  0.26880  Biso   1.000  C
  C197     1.0000 0.25340  0.19890  0.32550  Biso   1.000  C
  C198     1.0000 0.08850  0.13360  0.14730  Biso   1.000  C
  C199     1.0000 0.09260  0.01910  0.10750  Biso   1.000  C
  C200     1.0000 0.11970  0.09620  0.05210  Biso   1.000  C
  C201     1.0000 0.19810  0.08200  0.59410  Biso   1.000  C
  C202     1.0000 0.24190  0.04870  0.57460  Biso   1.000  C
  C203     1.0000 0.22130  0.00880  0.50250  Biso   1.000  C
  C204     1.0000 0.26010  0.97850  0.48240  Biso   1.000  C
  C205     1.0000 0.32220  0.98670  0.53630  Biso   1.000  C
  C206     1.0000 0.33960  0.02380  0.60840  Biso   1.000  C
  C207     1.0000 0.30110  0.05450  0.62660  Biso   1.000  C
  C208     1.0000 0.36640  0.95490  0.51370  Biso   1.000  C
  C209     1.0000 0.48090  0.07350  0.58840  Biso   1.000  C
  C210     1.0000 0.40380  0.02350  0.45590  Biso   1.000  C
  C211     1.0000 0.30190  0.89600  0.88390  Biso   1.000  C
  C212     1.0000 0.25810  0.83270  0.80680  Biso   1.000  C
  C213     1.0000 0.27870  0.78120  0.78750  Biso   1.000  C
  C214     1.0000 0.23990  0.72230  0.71840  Biso   1.000  C
  C215     1.0000 0.17780  0.71410  0.66450  Biso   1.000  C
  C216     1.0000 0.16040  0.76880  0.68420  Biso   1.000  C
  C217     1.0000 0.19890  0.82550  0.75340  Biso   1.000  C
  C218     1.0000 0.13360  0.64730  0.58850  Biso   1.000  C
  C219     1.0000 0.01910  0.60750  0.59260  Biso   1.000  C
  C220     1.0000 0.09620  0.55210  0.61970  Biso   1.000  C
  C221     1.0000 0.51210  0.41800  0.61610  Biso   1.000  C
  C222     1.0000 0.52590  0.45130  0.69320  Biso   1.000  C
  C223     1.0000 0.49370  0.49120  0.71250  Biso   1.000  C
  C224     1.0000 0.50390  0.52150  0.78160  Biso   1.000  C
  C225     1.0000 0.54960  0.51330  0.83550  Biso   1.000  C
  C226     1.0000 0.58460  0.47620  0.81580  Biso   1.000  C
  C227     1.0000 0.57210  0.44550  0.74660  Biso   1.000  C
  C228     1.0000 0.55880  0.54510  0.91150  Biso   1.000  C
  C229     1.0000 0.51490  0.42650  0.90740  Biso   1.000  C
  C230     1.0000 0.43240  0.47650  0.88030  Biso   1.000  C
  C231     1.0000 0.98790  0.60400  0.90590  Biso   1.000  C
  C232     1.0000 0.97410  0.66730  0.92540  Biso   1.000  C
  C233     1.0000 0.00630  0.71880  0.99750  Biso   1.000  C
  C234     1.0000 0.99610  0.77770  0.01760  Biso   1.000  C
  C235     1.0000 0.95040  0.78590  0.96370  Biso   1.000  C
  C236     1.0000 0.91540  0.73120  0.89160  Biso   1.000  C
  C237     1.0000 0.92790  0.67450  0.87340  Biso   1.000  C
  C238     1.0000 0.94120  0.85270  0.98630  Biso   1.000  C
  C239     1.0000 0.98510  0.89250  0.91160  Biso   1.000  C
  C240     1.0000 0.06760  0.94790  0.04410  Biso   1.000  C
  N1       1.0000 0.92140  0.99120  0.50720  Biso   1.000  N
  N2       1.0000 0.98400  0.41420  0.99280  Biso   1.000  N
  N3       1.0000 0.51600  0.50880  0.43020  Biso   1.000  N
  N4       1.0000 0.57860  0.08580  0.06980  Biso   1.000  N
  N5       1.0000 0.93020  0.51600  0.00880  Biso   1.000  N
  N6       1.0000 0.56980  0.57860  0.58580  Biso   1.000  N
  N7       1.0000 0.00720  0.92140  0.49120  Biso   1.000  N
  N8       1.0000 0.49280  0.98400  0.91420  Biso   1.000  N
  N9       1.0000 0.41420  0.49280  0.48400  Biso   1.000  N
  N10      1.0000 0.99120  0.00720  0.42140  Biso   1.000  N
  N11      1.0000 0.08580  0.56980  0.07860  Biso   1.000  N
  N12      1.0000 0.50880  0.93020  0.01600  Biso   1.000  N
  N13      1.0000 0.91420  0.48400  0.49280  Biso   1.000  N
  N14      1.0000 0.49120  0.42140  0.00720  Biso   1.000  N
  N15      1.0000 0.58580  0.07860  0.56980  Biso   1.000  N
  N16      1.0000 0.00880  0.01600  0.93020  Biso   1.000  N
  N17      1.0000 0.42140  0.50720  0.99120  Biso   1.000  N
  N18      1.0000 0.48400  0.99280  0.41420  Biso   1.000  N
  N19      1.0000 0.01600  0.43020  0.50880  Biso   1.000  N
  N20      1.0000 0.07860  0.06980  0.08580  Biso   1.000  N
  N21      1.0000 0.43020  0.00880  0.51600  Biso   1.000  N
  N22      1.0000 0.06980  0.58580  0.57860  Biso   1.000  N
  N23      1.0000 0.50720  0.49120  0.92140  Biso   1.000  N
  N24      1.0000 0.99280  0.91420  0.98400  Biso   1.000  N
  O1       1.0000 0.57465  0.93466  0.48263  Biso   1.000  O
  O2       1.0000 0.60025  0.87100  0.53345  Biso   1.000  O
  O3       1.0000 0.95203  0.09202  0.01737  Biso   1.000  O
  O4       1.0000 0.83755  0.06680  0.96655  Biso   1.000  O
  O5       1.0000 0.54797  0.56534  0.13999  Biso   1.000  O
  O6       1.0000 0.66245  0.62900  0.22925  Biso   1.000  O
  O7       1.0000 0.92535  0.40798  0.36001  Biso   1.000  O
  O8       1.0000 0.89975  0.43320  0.27075  Biso   1.000  O
  O9       1.0000 0.63999  0.54797  0.06534  Biso   1.000  O
  O10      1.0000 0.72925  0.66245  0.12900  Biso   1.000  O
  O11      1.0000 0.86001  0.92535  0.90798  Biso   1.000  O
  O12      1.0000 0.77075  0.89975  0.93320  Biso   1.000  O
  O13      1.0000 0.98263  0.57465  0.43466  Biso   1.000  O
  O14      1.0000 0.03345  0.60025  0.37100  Biso   1.000  O
  O15      1.0000 0.51737  0.95203  0.59202  Biso   1.000  O
  O16      1.0000 0.46655  0.83755  0.56680  Biso   1.000  O
  O17      1.0000 0.09202  0.51737  0.45203  Biso   1.000  O
  O18      1.0000 0.06680  0.46655  0.33755  Biso   1.000  O
  O19      1.0000 0.93466  0.98263  0.07465  Biso   1.000  O
  O20      1.0000 0.87100  0.03345  0.10025  Biso   1.000  O
  O21      1.0000 0.40798  0.86001  0.42535  Biso   1.000  O
  O22      1.0000 0.43320  0.77075  0.39975  Biso   1.000  O
  O23      1.0000 0.56534  0.63999  0.04797  Biso   1.000  O
  O24      1.0000 0.62900  0.72925  0.16245  Biso   1.000  O
  O25      1.0000 0.59202  0.45203  0.51737  Biso   1.000  O
  O26      1.0000 0.56680  0.33755  0.46655  Biso   1.000  O
  O27      1.0000 0.43466  0.07465  0.98263  Biso   1.000  O
  O28      1.0000 0.37100  0.10025  0.03345  Biso   1.000  O
  O29      1.0000 0.90798  0.42535  0.86001  Biso   1.000  O
  O30      1.0000 0.93320  0.39975  0.77075  Biso   1.000  O
  O31      1.0000 0.06534  0.04797  0.63999  Biso   1.000  O
  O32      1.0000 0.12900  0.16245  0.72925  Biso   1.000  O
  O33      1.0000 0.07465  0.48263  0.93466  Biso   1.000  O
  O34      1.0000 0.10025  0.53345  0.87100  Biso   1.000  O
  O35      1.0000 0.45203  0.01737  0.09202  Biso   1.000  O
  O36      1.0000 0.33755  0.96655  0.06680  Biso   1.000  O
  O37      1.0000 0.04797  0.13999  0.56534  Biso   1.000  O
  O38      1.0000 0.16245  0.22925  0.62900  Biso   1.000  O
  O39      1.0000 0.42535  0.36001  0.40798  Biso   1.000  O
  O40      1.0000 0.39975  0.27075  0.43320  Biso   1.000  O
  O41      1.0000 0.13999  0.06534  0.54797  Biso   1.000  O
  O42      1.0000 0.22925  0.12900  0.66245  Biso   1.000  O
  O43      1.0000 0.36001  0.90798  0.92535  Biso   1.000  O
  O44      1.0000 0.27075  0.93320  0.89975  Biso   1.000  O
  O45      1.0000 0.48263  0.43466  0.57465  Biso   1.000  O
  O46      1.0000 0.53345  0.37100  0.60025  Biso   1.000  O
  O47      1.0000 0.01737  0.59202  0.95203  Biso   1.000  O
  O48      1.0000 0.96655  0.56680  0.83755  Biso   1.000  O
