data_image0
_cell_length_a       13.265
_cell_length_b       13.983
_cell_length_c       14.189
_cell_angle_alpha    112.066
_cell_angle_beta     90
_cell_angle_gamma    90

_symmetry_space_group_name_H-M    P 1
_symmetry_int_tables_number       1

loop_
  _symmetry_equiv_pos_as_xyz
  'x, y, z'

loop_
  _atom_site_label
  _atom_site_occupancy
  _atom_site_fract_x
  _atom_site_fract_y
  _atom_site_fract_z
  _atom_site_thermal_displace_type
  _atom_site_B_iso_or_equiv
  _atom_site_type_symbol
  Zn1      1.0000 0.55314  0.40033  0.94897  Biso   1.000  Zn
  Zn2      1.0000 0.05314  0.59967  0.55103  Biso   1.000  Zn
  Zn3      1.0000 0.44686  0.59967  0.05103  Biso   1.000  Zn
  Zn4      1.0000 0.94686  0.40033  0.44897  Biso   1.000  Zn
  H1       1.0000 0.25770  0.72250  0.08780  Biso   1.000  H
  H2       1.0000 0.20590  0.89490  0.15380  Biso   1.000  H
  H3       1.0000 0.49320  0.98600  0.21510  Biso   1.000  H
  H4       1.0000 0.54250  0.81430  0.15950  Biso   1.000  H
  H5       1.0000 0.43990  0.25680  0.13550  Biso   1.000  H
  H6       1.0000 0.28990  0.51780  0.29080  Biso   1.000  H
  H7       1.0000 0.23820  0.26010  0.34790  Biso   1.000  H
  H8       1.0000 0.42950  0.11770  0.19920  Biso   1.000  H
  H9       1.0000 0.75770  0.27750  0.41220  Biso   1.000  H
  H10      1.0000 0.70590  0.10510  0.34620  Biso   1.000  H
  H11      1.0000 0.99320  0.01400  0.28490  Biso   1.000  H
  H12      1.0000 0.04250  0.18570  0.34050  Biso   1.000  H
  H13      1.0000 0.93990  0.74320  0.36450  Biso   1.000  H
  H14      1.0000 0.78990  0.48220  0.20920  Biso   1.000  H
  H15      1.0000 0.73820  0.73990  0.15210  Biso   1.000  H
  H16      1.0000 0.92950  0.88230  0.30080  Biso   1.000  H
  H17      1.0000 0.74230  0.27750  0.91220  Biso   1.000  H
  H18      1.0000 0.79410  0.10510  0.84620  Biso   1.000  H
  H19      1.0000 0.50680  0.01400  0.78490  Biso   1.000  H
  H20      1.0000 0.45750  0.18570  0.84050  Biso   1.000  H
  H21      1.0000 0.56010  0.74320  0.86450  Biso   1.000  H
  H22      1.0000 0.71010  0.48220  0.70920  Biso   1.000  H
  H23      1.0000 0.76180  0.73990  0.65210  Biso   1.000  H
  H24      1.0000 0.57050  0.88230  0.80080  Biso   1.000  H
  H25      1.0000 0.24230  0.72250  0.58780  Biso   1.000  H
  H26      1.0000 0.29410  0.89490  0.65380  Biso   1.000  H
  H27      1.0000 0.00680  0.98600  0.71510  Biso   1.000  H
  H28      1.0000 0.95750  0.81430  0.65950  Biso   1.000  H
  H29      1.0000 0.06010  0.25680  0.63550  Biso   1.000  H
  H30      1.0000 0.21010  0.51780  0.79080  Biso   1.000  H
  H31      1.0000 0.26180  0.26010  0.84790  Biso   1.000  H
  H32      1.0000 0.07050  0.11770  0.69920  Biso   1.000  H
  C1       1.0000 0.30470  0.77510  0.11520  Biso   1.000  C
  C2       1.0000 0.27390  0.87860  0.15320  Biso   1.000  C
  C3       1.0000 0.34400  0.95530  0.18940  Biso   1.000  C
  C4       1.0000 0.44580  0.93340  0.19140  Biso   1.000  C
  C5       1.0000 0.47480  0.83050  0.15690  Biso   1.000  C
  C6       1.0000 0.30470  0.06560  0.22540  Biso   1.000  C
  C7       1.0000 0.34450  0.24180  0.23830  Biso   1.000  C
  C8       1.0000 0.39330  0.29250  0.18530  Biso   1.000  C
  C9       1.0000 0.37480  0.39590  0.20450  Biso   1.000  C
  C10      1.0000 0.30310  0.44870  0.27780  Biso   1.000  C
  C11      1.0000 0.25190  0.39960  0.33080  Biso   1.000  C
  C12      1.0000 0.27210  0.29390  0.31200  Biso   1.000  C
  C13      1.0000 0.42370  0.44380  0.13730  Biso   1.000  C
  C14      1.0000 0.16700  0.44810  0.40210  Biso   1.000  C
  C15      1.0000 0.80470  0.22490  0.38480  Biso   1.000  C
  C16      1.0000 0.77390  0.12140  0.34680  Biso   1.000  C
  C17      1.0000 0.84400  0.04470  0.31060  Biso   1.000  C
  C18      1.0000 0.94580  0.06660  0.30860  Biso   1.000  C
  C19      1.0000 0.97480  0.16950  0.34310  Biso   1.000  C
  C20      1.0000 0.80470  0.93440  0.27460  Biso   1.000  C
  C21      1.0000 0.84450  0.75820  0.26170  Biso   1.000  C
  C22      1.0000 0.89330  0.70750  0.31470  Biso   1.000  C
  C23      1.0000 0.87480  0.60410  0.29550  Biso   1.000  C
  C24      1.0000 0.80310  0.55130  0.22220  Biso   1.000  C
  C25      1.0000 0.75190  0.60040  0.16920  Biso   1.000  C
  C26      1.0000 0.77210  0.70610  0.18800  Biso   1.000  C
  C27      1.0000 0.92370  0.55620  0.36270  Biso   1.000  C
  C28      1.0000 0.66700  0.55190  0.09790  Biso   1.000  C
  C29      1.0000 0.69530  0.22490  0.88480  Biso   1.000  C
  C30      1.0000 0.72610  0.12140  0.84680  Biso   1.000  C
  C31      1.0000 0.65600  0.04470  0.81060  Biso   1.000  C
  C32      1.0000 0.55420  0.06660  0.80860  Biso   1.000  C
  C33      1.0000 0.52520  0.16950  0.84310  Biso   1.000  C
  C34      1.0000 0.69530  0.93440  0.77460  Biso   1.000  C
  C35      1.0000 0.65550  0.75820  0.76170  Biso   1.000  C
  C36      1.0000 0.60670  0.70750  0.81470  Biso   1.000  C
  C37      1.0000 0.62520  0.60410  0.79550  Biso   1.000  C
  C38      1.0000 0.69690  0.55130  0.72220  Biso   1.000  C
  C39      1.0000 0.74810  0.60040  0.66920  Biso   1.000  C
  C40      1.0000 0.72790  0.70610  0.68800  Biso   1.000  C
  C41      1.0000 0.57630  0.55620  0.86270  Biso   1.000  C
  C42      1.0000 0.83300  0.55190  0.59790  Biso   1.000  C
  C43      1.0000 0.19530  0.77510  0.61520  Biso   1.000  C
  C44      1.0000 0.22610  0.87860  0.65320  Biso   1.000  C
  C45      1.0000 0.15600  0.95530  0.68940  Biso   1.000  C
  C46      1.0000 0.05420  0.93340  0.69140  Biso   1.000  C
  C47      1.0000 0.02520  0.83050  0.65690  Biso   1.000  C
  C48      1.0000 0.19530  0.06560  0.72540  Biso   1.000  C
  C49      1.0000 0.15550  0.24180  0.73830  Biso   1.000  C
  C50      1.0000 0.10670  0.29250  0.68530  Biso   1.000  C
  C51      1.0000 0.12520  0.39590  0.70450  Biso   1.000  C
  C52      1.0000 0.19690  0.44870  0.77780  Biso   1.000  C
  C53      1.0000 0.24810  0.39960  0.83080  Biso   1.000  C
  C54      1.0000 0.22790  0.29390  0.81200  Biso   1.000  C
  C55      1.0000 0.07630  0.44380  0.63730  Biso   1.000  C
  C56      1.0000 0.33300  0.44810  0.90210  Biso   1.000  C
  N1       1.0000 0.40590  0.75188  0.11883  Biso   1.000  N
  N2       1.0000 0.36876  0.13713  0.21792  Biso   1.000  N
  N3       1.0000 0.90590  0.24812  0.38117  Biso   1.000  N
  N4       1.0000 0.86876  0.86287  0.28208  Biso   1.000  N
  N5       1.0000 0.59410  0.24812  0.88117  Biso   1.000  N
  N6       1.0000 0.63124  0.86287  0.78208  Biso   1.000  N
  N7       1.0000 0.09410  0.75188  0.61883  Biso   1.000  N
  N8       1.0000 0.13124  0.13713  0.71792  Biso   1.000  N
  O1       1.0000 0.21672  0.08200  0.25248  Biso   1.000  O
  O2       1.0000 0.48672  0.39067  0.07609  Biso   1.000  O
  O3       1.0000 0.39724  0.53440  0.14920  Biso   1.000  O
  O4       1.0000 0.17653  0.54068  0.46151  Biso   1.000  O
  O5       1.0000 0.09174  0.39407  0.39768  Biso   1.000  O
  O6       1.0000 0.71672  0.91800  0.24752  Biso   1.000  O
  O7       1.0000 0.98672  0.60933  0.42391  Biso   1.000  O
  O8       1.0000 0.89724  0.46560  0.35080  Biso   1.000  O
  O9       1.0000 0.67653  0.45932  0.03849  Biso   1.000  O
  O10      1.0000 0.59174  0.60593  0.10232  Biso   1.000  O
  O11      1.0000 0.78328  0.91800  0.74752  Biso   1.000  O
  O12      1.0000 0.51328  0.60933  0.92391  Biso   1.000  O
  O13      1.0000 0.60276  0.46560  0.85080  Biso   1.000  O
  O14      1.0000 0.82347  0.45932  0.53849  Biso   1.000  O
  O15      1.0000 0.90826  0.60593  0.60232  Biso   1.000  O
  O16      1.0000 0.28328  0.08200  0.75248  Biso   1.000  O
  O17      1.0000 0.01328  0.39067  0.57609  Biso   1.000  O
  O18      1.0000 0.10276  0.53440  0.64920  Biso   1.000  O
  O19      1.0000 0.32347  0.54068  0.96151  Biso   1.000  O
  O20      1.0000 0.40826  0.39407  0.89768  Biso   1.000  O
