data_image0
_cell_length_a       10.896
_cell_length_b       19.698
_cell_length_c       21.554
_cell_angle_alpha    90
_cell_angle_beta     100.48
_cell_angle_gamma    90

_symmetry_space_group_name_H-M    P 1
_symmetry_int_tables_number       1

loop_
  _symmetry_equiv_pos_as_xyz
  'x, y, z'

loop_
  _atom_site_label
  _atom_site_occupancy
  _atom_site_fract_x
  _atom_site_fract_y
  _atom_site_fract_z
  _atom_site_thermal_displace_type
  _atom_site_B_iso_or_equiv
  _atom_site_type_symbol
  Zn1      1.0000 0.64512  0.05068  0.63465  Biso   1.000  Zn
  Zn2      1.0000 0.68460  0.94772  0.73491  Biso   1.000  Zn
  Zn3      1.0000 0.64512  0.44932  0.13465  Biso   1.000  Zn
  Zn4      1.0000 0.68460  0.55228  0.23491  Biso   1.000  Zn
  H1       1.0000 0.63620  0.91270  0.48480  Biso   1.000  H
  H2       1.0000 0.68860  0.76370  0.61390  Biso   1.000  H
  H3       1.0000 0.63840  0.83400  0.40570  Biso   1.000  H
  H4       1.0000 0.09180  0.92170  0.75190  Biso   1.000  H
  H5       1.0000 0.30030  0.92120  0.74250  Biso   1.000  H
  H6       1.0000 0.66010  0.30230  0.11190  Biso   1.000  H
  H7       1.0000 0.76560  0.09340  0.88650  Biso   1.000  H
  H8       1.0000 0.66140  0.38220  0.91310  Biso   1.000  H
  H9       1.0000 0.59460  0.22730  0.75940  Biso   1.000  H
  H10      1.0000 0.66660  0.22600  0.03310  Biso   1.000  H
  H11      1.0000 0.69750  0.68480  0.53500  Biso   1.000  H
  H12      1.0000 0.02700  0.07470  0.62710  Biso   1.000  H
  H13      1.0000 0.58670  0.30440  0.83970  Biso   1.000  H
  H14      1.0000 0.23390  0.07210  0.61560  Biso   1.000  H
  H15      1.0000 0.79840  0.63670  0.45690  Biso   1.000  H
  H16      1.0000 0.65080  0.45460  0.99510  Biso   1.000  H
  H17      1.0000 0.76120  0.17170  0.96510  Biso   1.000  H
  H18      1.0000 0.80570  0.56650  0.37180  Biso   1.000  H
  H19      1.0000 0.55140  0.67320  0.26530  Biso   1.000  H
  H20      1.0000 0.53960  0.74590  0.34630  Biso   1.000  H
  H21      1.0000 0.63620  0.58730  0.98480  Biso   1.000  H
  H22      1.0000 0.68860  0.73630  0.11390  Biso   1.000  H
  H23      1.0000 0.63840  0.66600  0.90570  Biso   1.000  H
  H24      1.0000 0.09180  0.57830  0.25190  Biso   1.000  H
  H25      1.0000 0.30030  0.57880  0.24250  Biso   1.000  H
  H26      1.0000 0.66010  0.19770  0.61190  Biso   1.000  H
  H27      1.0000 0.76560  0.40660  0.38650  Biso   1.000  H
  H28      1.0000 0.66140  0.11780  0.41310  Biso   1.000  H
  H29      1.0000 0.59460  0.27270  0.25940  Biso   1.000  H
  H30      1.0000 0.66660  0.27400  0.53310  Biso   1.000  H
  H31      1.0000 0.69750  0.81520  0.03500  Biso   1.000  H
  H32      1.0000 0.02700  0.42530  0.12710  Biso   1.000  H
  H33      1.0000 0.58670  0.19560  0.33970  Biso   1.000  H
  H34      1.0000 0.23390  0.42790  0.11560  Biso   1.000  H
  H35      1.0000 0.79840  0.86330  0.95690  Biso   1.000  H
  H36      1.0000 0.65080  0.04540  0.49510  Biso   1.000  H
  H37      1.0000 0.76120  0.32830  0.46510  Biso   1.000  H
  H38      1.0000 0.80570  0.93350  0.87180  Biso   1.000  H
  H39      1.0000 0.55140  0.82680  0.76530  Biso   1.000  H
  H40      1.0000 0.53960  0.75410  0.84630  Biso   1.000  H
  C1       1.0000 0.66310  0.84680  0.55710  Biso   1.000  C
  C2       1.0000 0.66980  0.75120  0.46206  Biso   1.000  C
  C3       1.0000 0.67350  0.70170  0.40999  Biso   1.000  C
  C4       1.0000 0.67350  0.15110  0.81424  Biso   1.000  C
  C5       1.0000 0.03820  0.99810  0.69030  Biso   1.000  C
  C6       1.0000 0.64800  0.86700  0.49496  Biso   1.000  C
  C7       1.0000 0.42520  0.99840  0.67471  Biso   1.000  C
  C8       1.0000 0.65840  0.89860  0.60791  Biso   1.000  C
  C9       1.0000 0.68020  0.77780  0.57210  Biso   1.000  C
  C10      1.0000 0.66900  0.24560  0.91130  Biso   1.000  C
  C11      1.0000 0.66510  0.29480  0.96280  Biso   1.000  C
  C12      1.0000 0.65010  0.81980  0.44754  Biso   1.000  C
  C13      1.0000 0.67230  0.09830  0.76296  Biso   1.000  C
  C14      1.0000 0.12050  0.95220  0.72490  Biso   1.000  C
  C15      1.0000 0.24540  0.95190  0.71920  Biso   1.000  C
  C16      1.0000 0.28850  0.99720  0.67880  Biso   1.000  C
  C17      1.0000 0.90210  0.99800  0.69490  Biso   1.000  C
  C18      1.0000 0.65950  0.31840  0.07130  Biso   1.000  C
  C19      1.0000 0.72780  0.13540  0.87680  Biso   1.000  C
  C20      1.0000 0.66050  0.36470  0.95310  Biso   1.000  C
  C21      1.0000 0.62520  0.21500  0.80100  Biso   1.000  C
  C22      1.0000 0.66410  0.27220  0.02420  Biso   1.000  C
  C23      1.0000 0.68460  0.73040  0.52480  Biso   1.000  C
  C24      1.0000 0.08150  0.04360  0.64990  Biso   1.000  C
  C25      1.0000 0.62160  0.26170  0.84940  Biso   1.000  C
  C26      1.0000 0.20570  0.04250  0.64350  Biso   1.000  C
  C27      1.0000 0.74940  0.64610  0.41780  Biso   1.000  C
  C28      1.0000 0.65460  0.40810  0.00278  Biso   1.000  C
  C29      1.0000 0.72480  0.18250  0.92380  Biso   1.000  C
  C30      1.0000 0.75210  0.60370  0.36640  Biso   1.000  C
  C31      1.0000 0.60360  0.66620  0.30400  Biso   1.000  C
  C32      1.0000 0.59640  0.71020  0.35240  Biso   1.000  C
  C33      1.0000 0.66310  0.65320  0.05710  Biso   1.000  C
  C34      1.0000 0.66980  0.74880  0.96206  Biso   1.000  C
  C35      1.0000 0.67350  0.79830  0.90999  Biso   1.000  C
  C36      1.0000 0.67350  0.34890  0.31424  Biso   1.000  C
  C37      1.0000 0.03820  0.50190  0.19030  Biso   1.000  C
  C38      1.0000 0.64800  0.63300  0.99496  Biso   1.000  C
  C39      1.0000 0.42520  0.50160  0.17471  Biso   1.000  C
  C40      1.0000 0.65840  0.60140  0.10791  Biso   1.000  C
  C41      1.0000 0.68020  0.72220  0.07210  Biso   1.000  C
  C42      1.0000 0.66900  0.25440  0.41130  Biso   1.000  C
  C43      1.0000 0.66510  0.20520  0.46280  Biso   1.000  C
  C44      1.0000 0.65010  0.68020  0.94754  Biso   1.000  C
  C45      1.0000 0.67230  0.40170  0.26296  Biso   1.000  C
  C46      1.0000 0.12050  0.54780  0.22490  Biso   1.000  C
  C47      1.0000 0.24540  0.54810  0.21920  Biso   1.000  C
  C48      1.0000 0.28850  0.50280  0.17880  Biso   1.000  C
  C49      1.0000 0.90210  0.50200  0.19490  Biso   1.000  C
  C50      1.0000 0.65950  0.18160  0.57130  Biso   1.000  C
  C51      1.0000 0.72780  0.36460  0.37680  Biso   1.000  C
  C52      1.0000 0.66050  0.13530  0.45310  Biso   1.000  C
  C53      1.0000 0.62520  0.28500  0.30100  Biso   1.000  C
  C54      1.0000 0.66410  0.22780  0.52420  Biso   1.000  C
  C55      1.0000 0.68460  0.76960  0.02480  Biso   1.000  C
  C56      1.0000 0.08150  0.45640  0.14990  Biso   1.000  C
  C57      1.0000 0.62160  0.23830  0.34940  Biso   1.000  C
  C58      1.0000 0.20570  0.45750  0.14350  Biso   1.000  C
  C59      1.0000 0.74940  0.85390  0.91780  Biso   1.000  C
  C60      1.0000 0.65460  0.09190  0.50278  Biso   1.000  C
  C61      1.0000 0.72480  0.31750  0.42380  Biso   1.000  C
  C62      1.0000 0.75210  0.89630  0.86640  Biso   1.000  C
  C63      1.0000 0.60360  0.83380  0.80400  Biso   1.000  C
  C64      1.0000 0.59640  0.78980  0.85240  Biso   1.000  C
  N1       1.0000 0.65420  0.38603  0.06160  Biso   1.000  N
  N2       1.0000 0.68210  0.61370  0.30995  Biso   1.000  N
  N3       1.0000 0.65420  0.11397  0.56160  Biso   1.000  N
  N4       1.0000 0.68210  0.88630  0.80995  Biso   1.000  N
  O1       1.0000 0.64110  0.11717  0.70703  Biso   1.000  O
  O2       1.0000 0.45920  0.03475  0.63288  Biso   1.000  O
  O3       1.0000 0.66140  0.87804  0.66327  Biso   1.000  O
  O4       1.0000 0.83510  0.04250  0.66440  Biso   1.000  O
  O5       1.0000 0.86550  0.95212  0.72819  Biso   1.000  O
  O6       1.0000 0.49730  0.96330  0.71462  Biso   1.000  O
  O7       1.0000 0.65300  0.95935  0.59102  Biso   1.000  O
  O8       1.0000 0.70180  0.03893  0.78136  Biso   1.000  O
  O9       1.0000 0.64110  0.38283  0.20703  Biso   1.000  O
  O10      1.0000 0.45920  0.46525  0.13288  Biso   1.000  O
  O11      1.0000 0.66140  0.62196  0.16327  Biso   1.000  O
  O12      1.0000 0.83510  0.45750  0.16440  Biso   1.000  O
  O13      1.0000 0.86550  0.54788  0.22819  Biso   1.000  O
  O14      1.0000 0.49730  0.53670  0.21462  Biso   1.000  O
  O15      1.0000 0.65300  0.54065  0.09102  Biso   1.000  O
  O16      1.0000 0.70180  0.46107  0.28136  Biso   1.000  O
  Zn5      1.0000 0.35488  0.55068  0.86535  Biso   1.000  Zn
  Zn6      1.0000 0.31540  0.44772  0.76509  Biso   1.000  Zn
  Zn7      1.0000 0.35488  0.94932  0.36535  Biso   1.000  Zn
  Zn8      1.0000 0.31540  0.05228  0.26509  Biso   1.000  Zn
  H41      1.0000 0.36380  0.41270  0.01520  Biso   1.000  H
  H42      1.0000 0.31140  0.26370  0.88610  Biso   1.000  H
  H43      1.0000 0.36160  0.33400  0.09430  Biso   1.000  H
  H44      1.0000 0.90820  0.42170  0.74810  Biso   1.000  H
  H45      1.0000 0.69970  0.42120  0.75750  Biso   1.000  H
  H46      1.0000 0.33990  0.80230  0.38810  Biso   1.000  H
  H47      1.0000 0.23440  0.59340  0.61350  Biso   1.000  H
  H48      1.0000 0.33860  0.88220  0.58690  Biso   1.000  H
  H49      1.0000 0.40540  0.72730  0.74060  Biso   1.000  H
  H50      1.0000 0.33340  0.72600  0.46690  Biso   1.000  H
  H51      1.0000 0.30250  0.18480  0.96500  Biso   1.000  H
  H52      1.0000 0.97300  0.57470  0.87290  Biso   1.000  H
  H53      1.0000 0.41330  0.80440  0.66030  Biso   1.000  H
  H54      1.0000 0.76610  0.57210  0.88440  Biso   1.000  H
  H55      1.0000 0.20160  0.13670  0.04310  Biso   1.000  H
  H56      1.0000 0.34920  0.95460  0.50490  Biso   1.000  H
  H57      1.0000 0.23880  0.67170  0.53490  Biso   1.000  H
  H58      1.0000 0.19430  0.06650  0.12820  Biso   1.000  H
  H59      1.0000 0.44860  0.17320  0.23470  Biso   1.000  H
  H60      1.0000 0.46040  0.24590  0.15370  Biso   1.000  H
  H61      1.0000 0.36380  0.08730  0.51520  Biso   1.000  H
  H62      1.0000 0.31140  0.23630  0.38610  Biso   1.000  H
  H63      1.0000 0.36160  0.16600  0.59430  Biso   1.000  H
  H64      1.0000 0.90820  0.07830  0.24810  Biso   1.000  H
  H65      1.0000 0.69970  0.07880  0.25750  Biso   1.000  H
  H66      1.0000 0.33990  0.69770  0.88810  Biso   1.000  H
  H67      1.0000 0.23440  0.90660  0.11350  Biso   1.000  H
  H68      1.0000 0.33860  0.61780  0.08690  Biso   1.000  H
  H69      1.0000 0.40540  0.77270  0.24060  Biso   1.000  H
  H70      1.0000 0.33340  0.77400  0.96690  Biso   1.000  H
  H71      1.0000 0.30250  0.31520  0.46500  Biso   1.000  H
  H72      1.0000 0.97300  0.92530  0.37290  Biso   1.000  H
  H73      1.0000 0.41330  0.69560  0.16030  Biso   1.000  H
  H74      1.0000 0.76610  0.92790  0.38440  Biso   1.000  H
  H75      1.0000 0.20160  0.36330  0.54310  Biso   1.000  H
  H76      1.0000 0.34920  0.54540  0.00490  Biso   1.000  H
  H77      1.0000 0.23880  0.82830  0.03490  Biso   1.000  H
  H78      1.0000 0.19430  0.43350  0.62820  Biso   1.000  H
  H79      1.0000 0.44860  0.32680  0.73470  Biso   1.000  H
  H80      1.0000 0.46040  0.25410  0.65370  Biso   1.000  H
  C65      1.0000 0.33690  0.34680  0.94290  Biso   1.000  C
  C66      1.0000 0.33020  0.25120  0.03794  Biso   1.000  C
  C67      1.0000 0.32650  0.20170  0.09001  Biso   1.000  C
  C68      1.0000 0.32650  0.65110  0.68576  Biso   1.000  C
  C69      1.0000 0.96180  0.49810  0.80970  Biso   1.000  C
  C70      1.0000 0.35200  0.36700  0.00504  Biso   1.000  C
  C71      1.0000 0.57480  0.49840  0.82529  Biso   1.000  C
  C72      1.0000 0.34160  0.39860  0.89209  Biso   1.000  C
  C73      1.0000 0.31980  0.27780  0.92790  Biso   1.000  C
  C74      1.0000 0.33100  0.74560  0.58870  Biso   1.000  C
  C75      1.0000 0.33490  0.79480  0.53720  Biso   1.000  C
  C76      1.0000 0.34990  0.31980  0.05246  Biso   1.000  C
  C77      1.0000 0.32770  0.59830  0.73704  Biso   1.000  C
  C78      1.0000 0.87950  0.45220  0.77510  Biso   1.000  C
  C79      1.0000 0.75460  0.45190  0.78080  Biso   1.000  C
  C80      1.0000 0.71150  0.49720  0.82120  Biso   1.000  C
  C81      1.0000 0.09790  0.49800  0.80510  Biso   1.000  C
  C82      1.0000 0.34050  0.81840  0.42870  Biso   1.000  C
  C83      1.0000 0.27220  0.63540  0.62320  Biso   1.000  C
  C84      1.0000 0.33950  0.86470  0.54690  Biso   1.000  C
  C85      1.0000 0.37480  0.71500  0.69900  Biso   1.000  C
  C86      1.0000 0.33590  0.77220  0.47580  Biso   1.000  C
  C87      1.0000 0.31540  0.23040  0.97520  Biso   1.000  C
  C88      1.0000 0.91850  0.54360  0.85010  Biso   1.000  C
  C89      1.0000 0.37840  0.76170  0.65060  Biso   1.000  C
  C90      1.0000 0.79430  0.54250  0.85650  Biso   1.000  C
  C91      1.0000 0.25060  0.14610  0.08220  Biso   1.000  C
  C92      1.0000 0.34540  0.90810  0.49722  Biso   1.000  C
  C93      1.0000 0.27520  0.68250  0.57620  Biso   1.000  C
  C94      1.0000 0.24790  0.10370  0.13360  Biso   1.000  C
  C95      1.0000 0.39640  0.16620  0.19600  Biso   1.000  C
  C96      1.0000 0.40360  0.21020  0.14760  Biso   1.000  C
  C97      1.0000 0.33690  0.15320  0.44290  Biso   1.000  C
  C98      1.0000 0.33020  0.24880  0.53794  Biso   1.000  C
  C99      1.0000 0.32650  0.29830  0.59001  Biso   1.000  C
  C100     1.0000 0.32650  0.84890  0.18576  Biso   1.000  C
  C101     1.0000 0.96180  0.00190  0.30970  Biso   1.000  C
  C102     1.0000 0.35200  0.13300  0.50504  Biso   1.000  C
  C103     1.0000 0.57480  0.00160  0.32529  Biso   1.000  C
  C104     1.0000 0.34160  0.10140  0.39209  Biso   1.000  C
  C105     1.0000 0.31980  0.22220  0.42790  Biso   1.000  C
  C106     1.0000 0.33100  0.75440  0.08870  Biso   1.000  C
  C107     1.0000 0.33490  0.70520  0.03720  Biso   1.000  C
  C108     1.0000 0.34990  0.18020  0.55246  Biso   1.000  C
  C109     1.0000 0.32770  0.90170  0.23704  Biso   1.000  C
  C110     1.0000 0.87950  0.04780  0.27510  Biso   1.000  C
  C111     1.0000 0.75460  0.04810  0.28080  Biso   1.000  C
  C112     1.0000 0.71150  0.00280  0.32120  Biso   1.000  C
  C113     1.0000 0.09790  0.00200  0.30510  Biso   1.000  C
  C114     1.0000 0.34050  0.68160  0.92870  Biso   1.000  C
  C115     1.0000 0.27220  0.86460  0.12320  Biso   1.000  C
  C116     1.0000 0.33950  0.63530  0.04690  Biso   1.000  C
  C117     1.0000 0.37480  0.78500  0.19900  Biso   1.000  C
  C118     1.0000 0.33590  0.72780  0.97580  Biso   1.000  C
  C119     1.0000 0.31540  0.26960  0.47520  Biso   1.000  C
  C120     1.0000 0.91850  0.95640  0.35010  Biso   1.000  C
  C121     1.0000 0.37840  0.73830  0.15060  Biso   1.000  C
  C122     1.0000 0.79430  0.95750  0.35650  Biso   1.000  C
  C123     1.0000 0.25060  0.35390  0.58220  Biso   1.000  C
  C124     1.0000 0.34540  0.59190  0.99722  Biso   1.000  C
  C125     1.0000 0.27520  0.81750  0.07620  Biso   1.000  C
  C126     1.0000 0.24790  0.39630  0.63360  Biso   1.000  C
  C127     1.0000 0.39640  0.33380  0.69600  Biso   1.000  C
  C128     1.0000 0.40360  0.28980  0.64760  Biso   1.000  C
  N5       1.0000 0.34580  0.88603  0.43840  Biso   1.000  N
  N6       1.0000 0.31790  0.11370  0.19005  Biso   1.000  N
  N7       1.0000 0.34580  0.61397  0.93840  Biso   1.000  N
  N8       1.0000 0.31790  0.38630  0.69005  Biso   1.000  N
  O17      1.0000 0.35890  0.61717  0.79297  Biso   1.000  O
  O18      1.0000 0.54080  0.53475  0.86712  Biso   1.000  O
  O19      1.0000 0.33860  0.37804  0.83673  Biso   1.000  O
  O20      1.0000 0.16490  0.54250  0.83560  Biso   1.000  O
  O21      1.0000 0.13450  0.45212  0.77181  Biso   1.000  O
  O22      1.0000 0.50270  0.46330  0.78538  Biso   1.000  O
  O23      1.0000 0.34700  0.45935  0.90898  Biso   1.000  O
  O24      1.0000 0.29820  0.53893  0.71864  Biso   1.000  O
  O25      1.0000 0.35890  0.88283  0.29297  Biso   1.000  O
  O26      1.0000 0.54080  0.96525  0.36712  Biso   1.000  O
  O27      1.0000 0.33860  0.12196  0.33673  Biso   1.000  O
  O28      1.0000 0.16490  0.95750  0.33560  Biso   1.000  O
  O29      1.0000 0.13450  0.04788  0.27181  Biso   1.000  O
  O30      1.0000 0.50270  0.03670  0.28538  Biso   1.000  O
  O31      1.0000 0.34700  0.04065  0.40898  Biso   1.000  O
  O32      1.0000 0.29820  0.96107  0.21864  Biso   1.000  O
