data_image0
_cell_length_a       6.767
_cell_length_b       11.231
_cell_length_c       19.7425
_cell_angle_alpha    106.525
_cell_angle_beta     90.9203
_cell_angle_gamma    90

_symmetry_space_group_name_H-M    P 1
_symmetry_int_tables_number       1

loop_
  _symmetry_equiv_pos_as_xyz
  'x, y, z'

loop_
  _atom_site_label
  _atom_site_occupancy
  _atom_site_fract_x
  _atom_site_fract_y
  _atom_site_fract_z
  _atom_site_thermal_displace_type
  _atom_site_B_iso_or_equiv
  _atom_site_type_symbol
  Er1      1.0000 0.80984  0.92025  0.25904  Biso   1.000  Er
  Er2      1.0000 0.69016  0.66121  0.74096  Biso   1.000  Er
  Er3      1.0000 0.19016  0.07975  0.74096  Biso   1.000  Er
  Er4      1.0000 0.30984  0.33879  0.25904  Biso   1.000  Er
  H1       1.0000 0.47160  0.83320  0.03580  Biso   1.000  H
  H2       1.0000 0.59490  0.07500  0.06240  Biso   1.000  H
  H3       1.0000 0.48510  0.24830  0.43280  Biso   1.000  H
  H4       1.0000 0.62900  0.01310  0.42620  Biso   1.000  H
  H5       1.0000 0.61960  0.22760  0.54620  Biso   1.000  H
  H6       1.0000 0.82790  0.01100  0.53000  Biso   1.000  H
  H7       1.0000 0.67600  0.71100  0.32600  Biso   1.000  H
  H8       1.0000 0.50200  0.80300  0.31400  Biso   1.000  H
  H9       1.0000 0.06500  0.71430  0.17460  Biso   1.000  H
  H10      1.0000 0.88400  0.64800  0.19000  Biso   1.000  H
  H11      1.0000 0.24700  0.97900  0.24200  Biso   1.000  H
  H12      1.0000 0.14700  0.89320  0.16440  Biso   1.000  H
  H13      1.0000 0.02840  0.79740  0.96420  Biso   1.000  H
  H14      1.0000 0.90510  0.01260  0.93760  Biso   1.000  H
  H15      1.0000 0.01490  0.81550  0.56720  Biso   1.000  H
  H16      1.0000 0.87100  0.58690  0.57380  Biso   1.000  H
  H17      1.0000 0.88040  0.68140  0.45380  Biso   1.000  H
  H18      1.0000 0.67210  0.48100  0.47000  Biso   1.000  H
  H19      1.0000 0.82400  0.38500  0.67400  Biso   1.000  H
  H20      1.0000 0.99800  0.48900  0.68600  Biso   1.000  H
  H21      1.0000 0.43500  0.53970  0.82540  Biso   1.000  H
  H22      1.0000 0.61600  0.45800  0.81000  Biso   1.000  H
  H23      1.0000 0.25300  0.73700  0.75800  Biso   1.000  H
  H24      1.0000 0.35300  0.72880  0.83560  Biso   1.000  H
  H25      1.0000 0.52840  0.16680  0.96420  Biso   1.000  H
  H26      1.0000 0.40510  0.92500  0.93760  Biso   1.000  H
  H27      1.0000 0.51490  0.75170  0.56720  Biso   1.000  H
  H28      1.0000 0.37100  0.98690  0.57380  Biso   1.000  H
  H29      1.0000 0.38040  0.77240  0.45380  Biso   1.000  H
  H30      1.0000 0.17210  0.98900  0.47000  Biso   1.000  H
  H31      1.0000 0.32400  0.28900  0.67400  Biso   1.000  H
  H32      1.0000 0.49800  0.19700  0.68600  Biso   1.000  H
  H33      1.0000 0.93500  0.28570  0.82540  Biso   1.000  H
  H34      1.0000 0.11600  0.35200  0.81000  Biso   1.000  H
  H35      1.0000 0.75300  0.02100  0.75800  Biso   1.000  H
  H36      1.0000 0.85300  0.10680  0.83560  Biso   1.000  H
  H37      1.0000 0.97160  0.20260  0.03580  Biso   1.000  H
  H38      1.0000 0.09490  0.98740  0.06240  Biso   1.000  H
  H39      1.0000 0.98510  0.18450  0.43280  Biso   1.000  H
  H40      1.0000 0.12900  0.41310  0.42620  Biso   1.000  H
  H41      1.0000 0.11960  0.31860  0.54620  Biso   1.000  H
  H42      1.0000 0.32790  0.51900  0.53000  Biso   1.000  H
  H43      1.0000 0.17600  0.61500  0.32600  Biso   1.000  H
  H44      1.0000 0.00200  0.51100  0.31400  Biso   1.000  H
  H45      1.0000 0.56500  0.46030  0.17460  Biso   1.000  H
  H46      1.0000 0.38400  0.54200  0.19000  Biso   1.000  H
  H47      1.0000 0.74700  0.26300  0.24200  Biso   1.000  H
  H48      1.0000 0.64700  0.27120  0.16440  Biso   1.000  H
  C1       1.0000 0.62760  0.91092  0.13024  Biso   1.000  C
  C2       1.0000 0.53490  0.90598  0.06136  Biso   1.000  C
  C3       1.0000 0.53880  0.00121  0.03482  Biso   1.000  C
  C4       1.0000 0.46230  0.11198  0.33516  Biso   1.000  C
  C5       1.0000 0.51460  0.16560  0.41060  Biso   1.000  C
  C6       1.0000 0.60470  0.09665  0.44810  Biso   1.000  C
  C7       1.0000 0.66470  0.14922  0.52184  Biso   1.000  C
  C8       1.0000 0.78170  0.08882  0.55524  Biso   1.000  C
  C9       1.0000 0.84280  0.13862  0.63064  Biso   1.000  C
  C10      1.0000 0.87240  0.78068  0.86976  Biso   1.000  C
  C11      1.0000 0.96510  0.84462  0.93864  Biso   1.000  C
  C12      1.0000 0.96120  0.96639  0.96518  Biso   1.000  C
  C13      1.0000 0.03770  0.77682  0.66484  Biso   1.000  C
  C14      1.0000 0.98540  0.75500  0.58940  Biso   1.000  C
  C15      1.0000 0.89530  0.64855  0.55190  Biso   1.000  C
  C16      1.0000 0.83530  0.62738  0.47816  Biso   1.000  C
  C17      1.0000 0.71830  0.53358  0.44476  Biso   1.000  C
  C18      1.0000 0.65720  0.50798  0.36936  Biso   1.000  C
  C19      1.0000 0.37240  0.08908  0.86976  Biso   1.000  C
  C20      1.0000 0.46510  0.09402  0.93864  Biso   1.000  C
  C21      1.0000 0.46120  0.99879  0.96518  Biso   1.000  C
  C22      1.0000 0.53770  0.88802  0.66484  Biso   1.000  C
  C23      1.0000 0.48540  0.83440  0.58940  Biso   1.000  C
  C24      1.0000 0.39530  0.90335  0.55190  Biso   1.000  C
  C25      1.0000 0.33530  0.85078  0.47816  Biso   1.000  C
  C26      1.0000 0.21830  0.91118  0.44476  Biso   1.000  C
  C27      1.0000 0.15720  0.86138  0.36936  Biso   1.000  C
  C28      1.0000 0.12760  0.21932  0.13024  Biso   1.000  C
  C29      1.0000 0.03490  0.15538  0.06136  Biso   1.000  C
  C30      1.0000 0.03880  0.03361  0.03482  Biso   1.000  C
  C31      1.0000 0.96230  0.22318  0.33516  Biso   1.000  C
  C32      1.0000 0.01460  0.24500  0.41060  Biso   1.000  C
  C33      1.0000 0.10470  0.35145  0.44810  Biso   1.000  C
  C34      1.0000 0.16470  0.37262  0.52184  Biso   1.000  C
  C35      1.0000 0.28170  0.46642  0.55524  Biso   1.000  C
  C36      1.0000 0.34280  0.49202  0.63064  Biso   1.000  C
  O1       1.0000 0.72270  0.00588  0.16476  Biso   1.000  O
  O2       1.0000 0.61360  0.82025  0.15530  Biso   1.000  O
  O3       1.0000 0.51100  0.00250  0.30220  Biso   1.000  O
  O4       1.0000 0.37020  0.18160  0.30700  Biso   1.000  O
  O5       1.0000 0.99080  0.08428  0.64876  Biso   1.000  O
  O6       1.0000 0.75720  0.22962  0.66984  Biso   1.000  O
  O7       1.0000 0.64020  0.77771  0.30402  Biso   1.000  O
  O8       1.0000 0.96120  0.72577  0.21174  Biso   1.000  O
  O9       1.0000 0.12590  0.95267  0.21134  Biso   1.000  O
  O10      1.0000 0.77730  0.84112  0.83524  Biso   1.000  O
  O11      1.0000 0.88640  0.66495  0.84470  Biso   1.000  O
  O12      1.0000 0.98900  0.70030  0.69780  Biso   1.000  O
  O13      1.0000 0.12980  0.87460  0.69300  Biso   1.000  O
  O14      1.0000 0.50920  0.43552  0.35124  Biso   1.000  O
  O15      1.0000 0.74280  0.55978  0.33016  Biso   1.000  O
  O16      1.0000 0.85980  0.47369  0.69598  Biso   1.000  O
  O17      1.0000 0.53880  0.51403  0.78826  Biso   1.000  O
  O18      1.0000 0.37410  0.74133  0.78866  Biso   1.000  O
  O19      1.0000 0.27730  0.99412  0.83524  Biso   1.000  O
  O20      1.0000 0.38640  0.17975  0.84470  Biso   1.000  O
  O21      1.0000 0.48900  0.99750  0.69780  Biso   1.000  O
  O22      1.0000 0.62980  0.81840  0.69300  Biso   1.000  O
  O23      1.0000 0.00920  0.91572  0.35124  Biso   1.000  O
  O24      1.0000 0.24280  0.77038  0.33016  Biso   1.000  O
  O25      1.0000 0.35980  0.22229  0.69598  Biso   1.000  O
  O26      1.0000 0.03880  0.27423  0.78826  Biso   1.000  O
  O27      1.0000 0.87410  0.04733  0.78866  Biso   1.000  O
  O28      1.0000 0.22270  0.15888  0.16476  Biso   1.000  O
  O29      1.0000 0.11360  0.33505  0.15530  Biso   1.000  O
  O30      1.0000 0.01100  0.29970  0.30220  Biso   1.000  O
  O31      1.0000 0.87020  0.12540  0.30700  Biso   1.000  O
  O32      1.0000 0.49080  0.56448  0.64876  Biso   1.000  O
  O33      1.0000 0.25720  0.44022  0.66984  Biso   1.000  O
  O34      1.0000 0.14020  0.52631  0.30402  Biso   1.000  O
  O35      1.0000 0.46120  0.48597  0.21174  Biso   1.000  O
  O36      1.0000 0.62590  0.25867  0.21134  Biso   1.000  O
