data_image0
_cell_length_a       18.0782
_cell_length_b       22.1485
_cell_length_c       22.1485
_cell_angle_alpha    80.4124
_cell_angle_beta     65.9137
_cell_angle_gamma    65.9137

_symmetry_space_group_name_H-M    P 1
_symmetry_int_tables_number       1

loop_
  _symmetry_equiv_pos_as_xyz
  'x, y, z'

loop_
  _atom_site_label
  _atom_site_occupancy
  _atom_site_fract_x
  _atom_site_fract_y
  _atom_site_fract_z
  _atom_site_thermal_displace_type
  _atom_site_B_iso_or_equiv
  _atom_site_type_symbol
  Cu1      1.0000 0.73992  0.51008  0.01008  Biso   1.000  Cu
  Cu2      1.0000 0.76008  0.98992  0.48992  Biso   1.000  Cu
  Cu3      1.0000 0.75000  0.01008  0.98992  Biso   1.000  Cu
  Cu4      1.0000 0.25000  0.48992  0.51008  Biso   1.000  Cu
  H1       1.0000 0.56950  0.49460  0.07200  Biso   1.000  H
  H2       1.0000 0.46910  0.48750  0.17450  Biso   1.000  H
  H3       1.0000 0.59570  0.54150  0.25410  Biso   1.000  H
  H4       1.0000 0.69720  0.54350  0.14870  Biso   1.000  H
  H5       1.0000 0.35050  0.57670  0.43690  Biso   1.000  H
  H6       1.0000 0.45020  0.58580  0.33500  Biso   1.000  H
  H7       1.0000 0.43970  0.42960  0.27620  Biso   1.000  H
  H8       1.0000 0.34280  0.42220  0.37960  Biso   1.000  H
  H9       1.0000 0.63610  0.00540  0.42800  Biso   1.000  H
  H10      1.0000 0.63110  0.01250  0.32550  Biso   1.000  H
  H11      1.0000 0.89130  0.95850  0.24590  Biso   1.000  H
  H12      1.0000 0.88940  0.95650  0.35130  Biso   1.000  H
  H13      1.0000 0.86410  0.92330  0.06310  Biso   1.000  H
  H14      1.0000 0.87100  0.91420  0.16500  Biso   1.000  H
  H15      1.0000 0.64550  0.07040  0.22380  Biso   1.000  H
  H16      1.0000 0.64460  0.07780  0.12040  Biso   1.000  H
  H17      1.0000 0.86390  0.57200  0.99460  Biso   1.000  H
  H18      1.0000 0.86890  0.67450  0.98750  Biso   1.000  H
  H19      1.0000 0.60870  0.75410  0.04150  Biso   1.000  H
  H20      1.0000 0.61060  0.64870  0.04350  Biso   1.000  H
  H21      1.0000 0.63590  0.93690  0.07670  Biso   1.000  H
  H22      1.0000 0.62900  0.83500  0.08580  Biso   1.000  H
  H23      1.0000 0.85450  0.77620  0.92960  Biso   1.000  H
  H24      1.0000 0.85540  0.87960  0.92220  Biso   1.000  H
  H25      1.0000 0.93050  0.92800  0.50540  Biso   1.000  H
  H26      1.0000 0.03090  0.82550  0.51250  Biso   1.000  H
  H27      1.0000 0.90430  0.74590  0.45850  Biso   1.000  H
  H28      1.0000 0.80280  0.85130  0.45650  Biso   1.000  H
  H29      1.0000 0.14950  0.56310  0.42330  Biso   1.000  H
  H30      1.0000 0.04980  0.66500  0.41420  Biso   1.000  H
  H31      1.0000 0.06030  0.72380  0.57040  Biso   1.000  H
  H32      1.0000 0.15720  0.62040  0.57780  Biso   1.000  H
  H33      1.0000 0.85850  0.07200  0.00540  Biso   1.000  H
  H34      1.0000 0.85640  0.17450  0.01250  Biso   1.000  H
  H35      1.0000 0.65020  0.25410  0.95850  Biso   1.000  H
  H36      1.0000 0.65410  0.14870  0.95650  Biso   1.000  H
  H37      1.0000 0.71260  0.43690  0.92330  Biso   1.000  H
  H38      1.0000 0.71480  0.33500  0.91420  Biso   1.000  H
  H39      1.0000 0.78410  0.27620  0.07040  Biso   1.000  H
  H40      1.0000 0.77760  0.37960  0.07780  Biso   1.000  H
  H41      1.0000 0.43590  0.42800  0.49460  Biso   1.000  H
  H42      1.0000 0.54340  0.32550  0.48750  Biso   1.000  H
  H43      1.0000 0.36280  0.24590  0.54150  Biso   1.000  H
  H44      1.0000 0.25930  0.35130  0.54350  Biso   1.000  H
  H45      1.0000 0.57280  0.06310  0.57670  Biso   1.000  H
  H46      1.0000 0.46400  0.16500  0.58580  Biso   1.000  H
  H47      1.0000 0.63070  0.22380  0.42960  Biso   1.000  H
  H48      1.0000 0.73500  0.12040  0.42220  Biso   1.000  H
  H49      1.0000 0.06410  0.50540  0.57200  Biso   1.000  H
  H50      1.0000 0.95660  0.51250  0.67450  Biso   1.000  H
  H51      1.0000 0.13720  0.45850  0.75410  Biso   1.000  H
  H52      1.0000 0.24070  0.45650  0.64870  Biso   1.000  H
  H53      1.0000 0.92720  0.42330  0.93690  Biso   1.000  H
  H54      1.0000 0.03600  0.41420  0.83500  Biso   1.000  H
  H55      1.0000 0.86930  0.57040  0.77620  Biso   1.000  H
  H56      1.0000 0.76500  0.57780  0.87960  Biso   1.000  H
  H57      1.0000 0.64150  0.99460  0.92800  Biso   1.000  H
  H58      1.0000 0.64360  0.98750  0.82550  Biso   1.000  H
  H59      1.0000 0.84980  0.04150  0.74590  Biso   1.000  H
  H60      1.0000 0.84590  0.04350  0.85130  Biso   1.000  H
  H61      1.0000 0.78740  0.07670  0.56310  Biso   1.000  H
  H62      1.0000 0.78520  0.08580  0.66500  Biso   1.000  H
  H63      1.0000 0.71590  0.92960  0.72380  Biso   1.000  H
  H64      1.0000 0.72240  0.92220  0.62040  Biso   1.000  H
  C1       1.0000 0.57589  0.50283  0.10899  Biso   1.000  C
  C2       1.0000 0.51467  0.49936  0.17050  Biso   1.000  C
  C3       1.0000 0.52069  0.51338  0.22584  Biso   1.000  C
  C4       1.0000 0.59010  0.53090  0.21770  Biso   1.000  C
  C5       1.0000 0.65063  0.53216  0.15418  Biso   1.000  C
  C6       1.0000 0.36881  0.54677  0.40401  Biso   1.000  C
  C7       1.0000 0.42851  0.55252  0.34286  Biso   1.000  C
  C8       1.0000 0.45651  0.50907  0.29311  Biso   1.000  C
  C9       1.0000 0.42247  0.45995  0.30831  Biso   1.000  C
  C10      1.0000 0.36381  0.45605  0.37033  Biso   1.000  C
  C11      1.0000 0.68771  0.99717  0.39101  Biso   1.000  C
  C12      1.0000 0.68453  0.00064  0.32950  Biso   1.000  C
  C13      1.0000 0.75991  0.98662  0.27416  Biso   1.000  C
  C14      1.0000 0.83870  0.96910  0.28230  Biso   1.000  C
  C15      1.0000 0.83697  0.96784  0.34582  Biso   1.000  C
  C16      1.0000 0.81959  0.95323  0.09599  Biso   1.000  C
  C17      1.0000 0.82389  0.94748  0.15714  Biso   1.000  C
  C18      1.0000 0.75869  0.99093  0.20689  Biso   1.000  C
  C19      1.0000 0.69073  0.04005  0.19169  Biso   1.000  C
  C20      1.0000 0.69019  0.04395  0.12967  Biso   1.000  C
  C21      1.0000 0.81229  0.60899  0.00283  Biso   1.000  C
  C22      1.0000 0.81547  0.67050  0.99936  Biso   1.000  C
  C23      1.0000 0.74009  0.72584  0.01338  Biso   1.000  C
  C24      1.0000 0.66130  0.71770  0.03090  Biso   1.000  C
  C25      1.0000 0.66303  0.65418  0.03216  Biso   1.000  C
  C26      1.0000 0.68041  0.90401  0.04677  Biso   1.000  C
  C27      1.0000 0.67611  0.84286  0.05252  Biso   1.000  C
  C28      1.0000 0.74131  0.79311  0.00907  Biso   1.000  C
  C29      1.0000 0.80927  0.80831  0.95995  Biso   1.000  C
  C30      1.0000 0.80981  0.87033  0.95605  Biso   1.000  C
  C31      1.0000 0.92411  0.89101  0.49717  Biso   1.000  C
  C32      1.0000 0.98533  0.82950  0.50064  Biso   1.000  C
  C33      1.0000 0.97931  0.77416  0.48662  Biso   1.000  C
  C34      1.0000 0.90990  0.78230  0.46910  Biso   1.000  C
  C35      1.0000 0.84937  0.84582  0.46784  Biso   1.000  C
  C36      1.0000 0.13119  0.59599  0.45323  Biso   1.000  C
  C37      1.0000 0.07149  0.65714  0.44748  Biso   1.000  C
  C38      1.0000 0.04349  0.70689  0.49093  Biso   1.000  C
  C39      1.0000 0.07753  0.69169  0.54005  Biso   1.000  C
  C40      1.0000 0.13619  0.62967  0.54395  Biso   1.000  C
  C41      1.0000 0.81512  0.10899  0.99717  Biso   1.000  C
  C42      1.0000 0.81483  0.17050  0.00064  Biso   1.000  C
  C43      1.0000 0.75347  0.22584  0.98662  Biso   1.000  C
  C44      1.0000 0.69220  0.21770  0.96910  Biso   1.000  C
  C45      1.0000 0.69519  0.15418  0.96784  Biso   1.000  C
  C46      1.0000 0.72718  0.40401  0.95323  Biso   1.000  C
  C47      1.0000 0.72863  0.34286  0.94748  Biso   1.000  C
  C48      1.0000 0.75038  0.29311  0.99093  Biso   1.000  C
  C49      1.0000 0.76922  0.30831  0.04005  Biso   1.000  C
  C50      1.0000 0.76586  0.37033  0.04395  Biso   1.000  C
  C51      1.0000 0.42128  0.39101  0.50283  Biso   1.000  C
  C52      1.0000 0.48597  0.32950  0.49936  Biso   1.000  C
  C53      1.0000 0.46593  0.27416  0.51338  Biso   1.000  C
  C54      1.0000 0.37900  0.28230  0.53090  Biso   1.000  C
  C55      1.0000 0.31721  0.34582  0.53216  Biso   1.000  C
  C56      1.0000 0.58442  0.09599  0.54677  Biso   1.000  C
  C57      1.0000 0.51897  0.15714  0.55252  Biso   1.000  C
  C58      1.0000 0.53442  0.20689  0.50907  Biso   1.000  C
  C59      1.0000 0.61758  0.19169  0.45995  Biso   1.000  C
  C60      1.0000 0.68014  0.12967  0.45605  Biso   1.000  C
  C61      1.0000 0.07872  0.49717  0.60899  Biso   1.000  C
  C62      1.0000 0.01403  0.50064  0.67050  Biso   1.000  C
  C63      1.0000 0.03407  0.48662  0.72584  Biso   1.000  C
  C64      1.0000 0.12100  0.46910  0.71770  Biso   1.000  C
  C65      1.0000 0.18279  0.46784  0.65418  Biso   1.000  C
  C66      1.0000 0.91558  0.45323  0.90401  Biso   1.000  C
  C67      1.0000 0.98103  0.44748  0.84286  Biso   1.000  C
  C68      1.0000 0.96558  0.49093  0.79311  Biso   1.000  C
  C69      1.0000 0.88242  0.54005  0.80831  Biso   1.000  C
  C70      1.0000 0.81986  0.54395  0.87033  Biso   1.000  C
  C71      1.0000 0.68488  0.00283  0.89101  Biso   1.000  C
  C72      1.0000 0.68517  0.99936  0.82950  Biso   1.000  C
  C73      1.0000 0.74653  0.01338  0.77416  Biso   1.000  C
  C74      1.0000 0.80780  0.03090  0.78230  Biso   1.000  C
  C75      1.0000 0.80481  0.03216  0.84582  Biso   1.000  C
  C76      1.0000 0.77282  0.04677  0.59599  Biso   1.000  C
  C77      1.0000 0.77137  0.05252  0.65714  Biso   1.000  C
  C78      1.0000 0.74962  0.00907  0.70689  Biso   1.000  C
  C79      1.0000 0.73078  0.95995  0.69169  Biso   1.000  C
  C80      1.0000 0.73414  0.95605  0.62967  Biso   1.000  C
  N1       1.0000 0.64424  0.51764  0.10048  Biso   1.000  N
  N2       1.0000 0.33540  0.49923  0.41837  Biso   1.000  N
  N3       1.0000 0.76236  0.98236  0.39952  Biso   1.000  N
  N4       1.0000 0.75300  0.00077  0.08163  Biso   1.000  N
  N5       1.0000 0.73764  0.60048  0.01764  Biso   1.000  N
  N6       1.0000 0.74700  0.91837  0.99923  Biso   1.000  N
  N7       1.0000 0.85576  0.89952  0.48236  Biso   1.000  N
  N8       1.0000 0.16460  0.58163  0.50077  Biso   1.000  N
  N9       1.0000 0.75528  0.10048  0.98236  Biso   1.000  N
  N10      1.0000 0.74623  0.41837  0.00077  Biso   1.000  N
  N11      1.0000 0.33812  0.39952  0.51764  Biso   1.000  N
  N12      1.0000 0.66537  0.08163  0.49923  Biso   1.000  N
  N13      1.0000 0.16188  0.48236  0.60048  Biso   1.000  N
  N14      1.0000 0.83463  0.50077  0.91837  Biso   1.000  N
  N15      1.0000 0.74472  0.01764  0.89952  Biso   1.000  N
  N16      1.0000 0.75377  0.99923  0.58163  Biso   1.000  N
  Cu5      1.0000 0.25000  0.98992  0.01008  Biso   1.000  Cu
  Cu6      1.0000 0.75000  0.51008  0.48992  Biso   1.000  Cu
  Cu7      1.0000 0.26008  0.48992  0.98992  Biso   1.000  Cu
  Cu8      1.0000 0.23992  0.01008  0.51008  Biso   1.000  Cu
  H65      1.0000 0.14150  0.92800  0.99460  Biso   1.000  H
  H66      1.0000 0.14360  0.82550  0.98750  Biso   1.000  H
  H67      1.0000 0.34980  0.74590  0.04150  Biso   1.000  H
  H68      1.0000 0.34590  0.85130  0.04350  Biso   1.000  H
  H69      1.0000 0.28740  0.56310  0.07670  Biso   1.000  H
  H70      1.0000 0.28520  0.66500  0.08580  Biso   1.000  H
  H71      1.0000 0.21590  0.72380  0.92960  Biso   1.000  H
  H72      1.0000 0.22240  0.62040  0.92220  Biso   1.000  H
  H73      1.0000 0.56410  0.57200  0.50540  Biso   1.000  H
  H74      1.0000 0.45660  0.67450  0.51250  Biso   1.000  H
  H75      1.0000 0.63720  0.75410  0.45850  Biso   1.000  H
  H76      1.0000 0.74070  0.64870  0.45650  Biso   1.000  H
  H77      1.0000 0.42720  0.93690  0.42330  Biso   1.000  H
  H78      1.0000 0.53600  0.83500  0.41420  Biso   1.000  H
  H79      1.0000 0.36930  0.77620  0.57040  Biso   1.000  H
  H80      1.0000 0.26500  0.87960  0.57780  Biso   1.000  H
  H81      1.0000 0.93590  0.49460  0.42800  Biso   1.000  H
  H82      1.0000 0.04340  0.48750  0.32550  Biso   1.000  H
  H83      1.0000 0.86280  0.54150  0.24590  Biso   1.000  H
  H84      1.0000 0.75930  0.54350  0.35130  Biso   1.000  H
  H85      1.0000 0.07280  0.57670  0.06310  Biso   1.000  H
  H86      1.0000 0.96400  0.58580  0.16500  Biso   1.000  H
  H87      1.0000 0.13070  0.42960  0.22380  Biso   1.000  H
  H88      1.0000 0.23500  0.42220  0.12040  Biso   1.000  H
  H89      1.0000 0.35850  0.00540  0.07200  Biso   1.000  H
  H90      1.0000 0.35640  0.01250  0.17450  Biso   1.000  H
  H91      1.0000 0.15020  0.95850  0.25410  Biso   1.000  H
  H92      1.0000 0.15410  0.95650  0.14870  Biso   1.000  H
  H93      1.0000 0.21260  0.92330  0.43690  Biso   1.000  H
  H94      1.0000 0.21480  0.91420  0.33500  Biso   1.000  H
  H95      1.0000 0.28410  0.07040  0.27620  Biso   1.000  H
  H96      1.0000 0.27760  0.07780  0.37960  Biso   1.000  H
  H97      1.0000 0.43050  0.50540  0.92800  Biso   1.000  H
  H98      1.0000 0.53090  0.51250  0.82550  Biso   1.000  H
  H99      1.0000 0.40430  0.45850  0.74590  Biso   1.000  H
  H100     1.0000 0.30280  0.45650  0.85130  Biso   1.000  H
  H101     1.0000 0.64950  0.42330  0.56310  Biso   1.000  H
  H102     1.0000 0.54980  0.41420  0.66500  Biso   1.000  H
  H103     1.0000 0.56030  0.57040  0.72380  Biso   1.000  H
  H104     1.0000 0.65720  0.57780  0.62040  Biso   1.000  H
  H105     1.0000 0.36390  0.99460  0.57200  Biso   1.000  H
  H106     1.0000 0.36890  0.98750  0.67450  Biso   1.000  H
  H107     1.0000 0.10870  0.04150  0.75410  Biso   1.000  H
  H108     1.0000 0.11060  0.04350  0.64870  Biso   1.000  H
  H109     1.0000 0.13590  0.07670  0.93690  Biso   1.000  H
  H110     1.0000 0.12900  0.08580  0.83500  Biso   1.000  H
  H111     1.0000 0.35450  0.92960  0.77620  Biso   1.000  H
  H112     1.0000 0.35540  0.92220  0.87960  Biso   1.000  H
  H113     1.0000 0.13610  0.42800  0.00540  Biso   1.000  H
  H114     1.0000 0.13110  0.32550  0.01250  Biso   1.000  H
  H115     1.0000 0.39130  0.24590  0.95850  Biso   1.000  H
  H116     1.0000 0.38940  0.35130  0.95650  Biso   1.000  H
  H117     1.0000 0.36410  0.06310  0.92330  Biso   1.000  H
  H118     1.0000 0.37100  0.16500  0.91420  Biso   1.000  H
  H119     1.0000 0.14550  0.22380  0.07040  Biso   1.000  H
  H120     1.0000 0.14460  0.12040  0.07780  Biso   1.000  H
  H121     1.0000 0.06950  0.07200  0.49460  Biso   1.000  H
  H122     1.0000 0.96910  0.17450  0.48750  Biso   1.000  H
  H123     1.0000 0.09570  0.25410  0.54150  Biso   1.000  H
  H124     1.0000 0.19720  0.14870  0.54350  Biso   1.000  H
  H125     1.0000 0.85050  0.43690  0.57670  Biso   1.000  H
  H126     1.0000 0.95020  0.33500  0.58580  Biso   1.000  H
  H127     1.0000 0.93970  0.27620  0.42960  Biso   1.000  H
  H128     1.0000 0.84280  0.37960  0.42220  Biso   1.000  H
  C81      1.0000 0.18488  0.89101  0.00283  Biso   1.000  C
  C82      1.0000 0.18517  0.82950  0.99936  Biso   1.000  C
  C83      1.0000 0.24653  0.77416  0.01338  Biso   1.000  C
  C84      1.0000 0.30780  0.78230  0.03090  Biso   1.000  C
  C85      1.0000 0.30481  0.84582  0.03216  Biso   1.000  C
  C86      1.0000 0.27282  0.59599  0.04677  Biso   1.000  C
  C87      1.0000 0.27137  0.65714  0.05252  Biso   1.000  C
  C88      1.0000 0.24962  0.70689  0.00907  Biso   1.000  C
  C89      1.0000 0.23078  0.69169  0.95995  Biso   1.000  C
  C90      1.0000 0.23414  0.62967  0.95605  Biso   1.000  C
  C91      1.0000 0.57872  0.60899  0.49717  Biso   1.000  C
  C92      1.0000 0.51403  0.67050  0.50064  Biso   1.000  C
  C93      1.0000 0.53407  0.72584  0.48662  Biso   1.000  C
  C94      1.0000 0.62100  0.71770  0.46910  Biso   1.000  C
  C95      1.0000 0.68279  0.65418  0.46784  Biso   1.000  C
  C96      1.0000 0.41558  0.90401  0.45323  Biso   1.000  C
  C97      1.0000 0.48103  0.84286  0.44748  Biso   1.000  C
  C98      1.0000 0.46558  0.79311  0.49093  Biso   1.000  C
  C99      1.0000 0.38242  0.80831  0.54005  Biso   1.000  C
  C100     1.0000 0.31986  0.87033  0.54395  Biso   1.000  C
  C101     1.0000 0.92128  0.50283  0.39101  Biso   1.000  C
  C102     1.0000 0.98597  0.49936  0.32950  Biso   1.000  C
  C103     1.0000 0.96593  0.51338  0.27416  Biso   1.000  C
  C104     1.0000 0.87900  0.53090  0.28230  Biso   1.000  C
  C105     1.0000 0.81721  0.53216  0.34582  Biso   1.000  C
  C106     1.0000 0.08442  0.54677  0.09599  Biso   1.000  C
  C107     1.0000 0.01897  0.55252  0.15714  Biso   1.000  C
  C108     1.0000 0.03442  0.50907  0.20689  Biso   1.000  C
  C109     1.0000 0.11758  0.45995  0.19169  Biso   1.000  C
  C110     1.0000 0.18014  0.45605  0.12967  Biso   1.000  C
  C111     1.0000 0.31512  0.99717  0.10899  Biso   1.000  C
  C112     1.0000 0.31483  0.00064  0.17050  Biso   1.000  C
  C113     1.0000 0.25347  0.98662  0.22584  Biso   1.000  C
  C114     1.0000 0.19220  0.96910  0.21770  Biso   1.000  C
  C115     1.0000 0.19519  0.96784  0.15418  Biso   1.000  C
  C116     1.0000 0.22718  0.95323  0.40401  Biso   1.000  C
  C117     1.0000 0.22863  0.94748  0.34286  Biso   1.000  C
  C118     1.0000 0.25038  0.99093  0.29311  Biso   1.000  C
  C119     1.0000 0.26922  0.04005  0.30831  Biso   1.000  C
  C120     1.0000 0.26586  0.04395  0.37033  Biso   1.000  C
  C121     1.0000 0.42411  0.49717  0.89101  Biso   1.000  C
  C122     1.0000 0.48533  0.50064  0.82950  Biso   1.000  C
  C123     1.0000 0.47931  0.48662  0.77416  Biso   1.000  C
  C124     1.0000 0.40990  0.46910  0.78230  Biso   1.000  C
  C125     1.0000 0.34937  0.46784  0.84582  Biso   1.000  C
  C126     1.0000 0.63119  0.45323  0.59599  Biso   1.000  C
  C127     1.0000 0.57149  0.44748  0.65714  Biso   1.000  C
  C128     1.0000 0.54349  0.49093  0.70689  Biso   1.000  C
  C129     1.0000 0.57753  0.54005  0.69169  Biso   1.000  C
  C130     1.0000 0.63619  0.54395  0.62967  Biso   1.000  C
  C131     1.0000 0.31229  0.00283  0.60899  Biso   1.000  C
  C132     1.0000 0.31547  0.99936  0.67050  Biso   1.000  C
  C133     1.0000 0.24009  0.01338  0.72584  Biso   1.000  C
  C134     1.0000 0.16130  0.03090  0.71770  Biso   1.000  C
  C135     1.0000 0.16303  0.03216  0.65418  Biso   1.000  C
  C136     1.0000 0.18041  0.04677  0.90401  Biso   1.000  C
  C137     1.0000 0.17611  0.05252  0.84286  Biso   1.000  C
  C138     1.0000 0.24131  0.00907  0.79311  Biso   1.000  C
  C139     1.0000 0.30927  0.95995  0.80831  Biso   1.000  C
  C140     1.0000 0.30981  0.95605  0.87033  Biso   1.000  C
  C141     1.0000 0.18771  0.39101  0.99717  Biso   1.000  C
  C142     1.0000 0.18453  0.32950  0.00064  Biso   1.000  C
  C143     1.0000 0.25991  0.27416  0.98662  Biso   1.000  C
  C144     1.0000 0.33870  0.28230  0.96910  Biso   1.000  C
  C145     1.0000 0.33697  0.34582  0.96784  Biso   1.000  C
  C146     1.0000 0.31959  0.09599  0.95323  Biso   1.000  C
  C147     1.0000 0.32389  0.15714  0.94748  Biso   1.000  C
  C148     1.0000 0.25869  0.20689  0.99093  Biso   1.000  C
  C149     1.0000 0.19073  0.19169  0.04005  Biso   1.000  C
  C150     1.0000 0.19019  0.12967  0.04395  Biso   1.000  C
  C151     1.0000 0.07589  0.10899  0.50283  Biso   1.000  C
  C152     1.0000 0.01467  0.17050  0.49936  Biso   1.000  C
  C153     1.0000 0.02069  0.22584  0.51338  Biso   1.000  C
  C154     1.0000 0.09010  0.21770  0.53090  Biso   1.000  C
  C155     1.0000 0.15063  0.15418  0.53216  Biso   1.000  C
  C156     1.0000 0.86881  0.40401  0.54677  Biso   1.000  C
  C157     1.0000 0.92851  0.34286  0.55252  Biso   1.000  C
  C158     1.0000 0.95651  0.29311  0.50907  Biso   1.000  C
  C159     1.0000 0.92247  0.30831  0.45995  Biso   1.000  C
  C160     1.0000 0.86381  0.37033  0.45605  Biso   1.000  C
  N17      1.0000 0.24472  0.89952  0.01764  Biso   1.000  N
  N18      1.0000 0.25377  0.58163  0.99923  Biso   1.000  N
  N19      1.0000 0.66188  0.60048  0.48236  Biso   1.000  N
  N20      1.0000 0.33463  0.91837  0.50077  Biso   1.000  N
  N21      1.0000 0.83812  0.51764  0.39952  Biso   1.000  N
  N22      1.0000 0.16537  0.49923  0.08163  Biso   1.000  N
  N23      1.0000 0.25528  0.98236  0.10048  Biso   1.000  N
  N24      1.0000 0.24623  0.00077  0.41837  Biso   1.000  N
  N25      1.0000 0.35576  0.48236  0.89952  Biso   1.000  N
  N26      1.0000 0.66460  0.50077  0.58163  Biso   1.000  N
  N27      1.0000 0.23764  0.01764  0.60048  Biso   1.000  N
  N28      1.0000 0.24700  0.99923  0.91837  Biso   1.000  N
  N29      1.0000 0.26236  0.39952  0.98236  Biso   1.000  N
  N30      1.0000 0.25300  0.08163  0.00077  Biso   1.000  N
  N31      1.0000 0.14424  0.10048  0.51764  Biso   1.000  N
  N32      1.0000 0.83540  0.41837  0.49923  Biso   1.000  N
