data_image0
_cell_length_a       18.2725
_cell_length_b       22.168
_cell_length_c       22.168
_cell_angle_alpha    80.2206
_cell_angle_beta     65.6609
_cell_angle_gamma    65.661

_symmetry_space_group_name_H-M    P 1
_symmetry_int_tables_number       1

loop_
  _symmetry_equiv_pos_as_xyz
  'x, y, z'

loop_
  _atom_site_label
  _atom_site_occupancy
  _atom_site_fract_x
  _atom_site_fract_y
  _atom_site_fract_z
  _atom_site_thermal_displace_type
  _atom_site_B_iso_or_equiv
  _atom_site_type_symbol
  Cu1      1.0000 0.25885  0.99115  0.49115  Biso   1.000  Cu
  Cu2      1.0000 0.24115  0.50885  0.00885  Biso   1.000  Cu
  Cu3      1.0000 0.75000  0.49115  0.50885  Biso   1.000  Cu
  Cu4      1.0000 0.25000  0.00885  0.99115  Biso   1.000  Cu
  H1       1.0000 0.22310  0.92170  0.62090  Biso   1.000  H
  H2       1.0000 0.21760  0.92750  0.72550  Biso   1.000  H
  H3       1.0000 0.27740  0.08790  0.66850  Biso   1.000  H
  H4       1.0000 0.28140  0.07910  0.56530  Biso   1.000  H
  H5       1.0000 0.34240  0.04510  0.85210  Biso   1.000  H
  H6       1.0000 0.34660  0.04230  0.74750  Biso   1.000  H
  H7       1.0000 0.14740  0.98390  0.82650  Biso   1.000  H
  H8       1.0000 0.14510  0.99010  0.92950  Biso   1.000  H
  H9       1.0000 0.26570  0.57830  0.87910  Biso   1.000  H
  H10      1.0000 0.37060  0.57250  0.77450  Biso   1.000  H
  H11      1.0000 0.53380  0.41210  0.83150  Biso   1.000  H
  H12      1.0000 0.42580  0.42090  0.93470  Biso   1.000  H
  H13      1.0000 0.73960  0.45490  0.64790  Biso   1.000  H
  H14      1.0000 0.63640  0.45770  0.75250  Biso   1.000  H
  H15      1.0000 0.45780  0.51610  0.67350  Biso   1.000  H
  H16      1.0000 0.56470  0.50990  0.57050  Biso   1.000  H
  H17      1.0000 0.23430  0.12090  0.42170  Biso   1.000  H
  H18      1.0000 0.12940  0.22550  0.42750  Biso   1.000  H
  H19      1.0000 0.96620  0.16850  0.58790  Biso   1.000  H
  H20      1.0000 0.07420  0.06530  0.57910  Biso   1.000  H
  H21      1.0000 0.76040  0.35210  0.54510  Biso   1.000  H
  H22      1.0000 0.86360  0.24750  0.54230  Biso   1.000  H
  H23      1.0000 0.04220  0.32650  0.48390  Biso   1.000  H
  H24      1.0000 0.93530  0.42950  0.49010  Biso   1.000  H
  H25      1.0000 0.27690  0.37910  0.07830  Biso   1.000  H
  H26      1.0000 0.28240  0.27450  0.07250  Biso   1.000  H
  H27      1.0000 0.22260  0.33150  0.91210  Biso   1.000  H
  H28      1.0000 0.21860  0.43470  0.92090  Biso   1.000  H
  H29      1.0000 0.15760  0.14790  0.95490  Biso   1.000  H
  H30      1.0000 0.15340  0.25250  0.95770  Biso   1.000  H
  H31      1.0000 0.35260  0.17350  0.01610  Biso   1.000  H
  H32      1.0000 0.35490  0.07050  0.00990  Biso   1.000  H
  H33      1.0000 0.65600  0.62090  0.57830  Biso   1.000  H
  H34      1.0000 0.55690  0.72550  0.57250  Biso   1.000  H
  H35      1.0000 0.55410  0.66850  0.41210  Biso   1.000  H
  H36      1.0000 0.65330  0.56530  0.42090  Biso   1.000  H
  H37      1.0000 0.30550  0.85210  0.45490  Biso   1.000  H
  H38      1.0000 0.40590  0.74750  0.45770  Biso   1.000  H
  H39      1.0000 0.52610  0.82650  0.51610  Biso   1.000  H
  H40      1.0000 0.42540  0.92950  0.50990  Biso   1.000  H
  H41      1.0000 0.35520  0.87910  0.92170  Biso   1.000  H
  H42      1.0000 0.35490  0.77450  0.92750  Biso   1.000  H
  H43      1.0000 0.13470  0.83150  0.08790  Biso   1.000  H
  H44      1.0000 0.13950  0.93470  0.07910  Biso   1.000  H
  H45      1.0000 0.11250  0.64790  0.04510  Biso   1.000  H
  H46      1.0000 0.11110  0.75250  0.04230  Biso   1.000  H
  H47      1.0000 0.36870  0.67350  0.98390  Biso   1.000  H
  H48      1.0000 0.36480  0.57050  0.99010  Biso   1.000  H
  H49      1.0000 0.14480  0.07830  0.12090  Biso   1.000  H
  H50      1.0000 0.14510  0.07250  0.22550  Biso   1.000  H
  H51      1.0000 0.36530  0.91210  0.16850  Biso   1.000  H
  H52      1.0000 0.36050  0.92090  0.06530  Biso   1.000  H
  H53      1.0000 0.38750  0.95490  0.35210  Biso   1.000  H
  H54      1.0000 0.38890  0.95770  0.24750  Biso   1.000  H
  H55      1.0000 0.13130  0.01610  0.32650  Biso   1.000  H
  H56      1.0000 0.13520  0.00990  0.42950  Biso   1.000  H
  H57      1.0000 0.84400  0.42170  0.37910  Biso   1.000  H
  H58      1.0000 0.94310  0.42750  0.27450  Biso   1.000  H
  H59      1.0000 0.94590  0.58790  0.33150  Biso   1.000  H
  H60      1.0000 0.84670  0.57910  0.43470  Biso   1.000  H
  H61      1.0000 0.19450  0.54510  0.14790  Biso   1.000  H
  H62      1.0000 0.09410  0.54230  0.25250  Biso   1.000  H
  H63      1.0000 0.97390  0.48390  0.17350  Biso   1.000  H
  H64      1.0000 0.07460  0.49010  0.07050  Biso   1.000  H
  C1       1.0000 0.23379  0.95563  0.63079  Biso   1.000  C
  C2       1.0000 0.23093  0.95859  0.69355  Biso   1.000  C
  C3       1.0000 0.24830  0.00903  0.70837  Biso   1.000  C
  C4       1.0000 0.26628  0.05357  0.65987  Biso   1.000  C
  C5       1.0000 0.26829  0.04839  0.59783  Biso   1.000  C
  C6       1.0000 0.30301  0.03219  0.84679  Biso   1.000  C
  C7       1.0000 0.30563  0.03089  0.78385  Biso   1.000  C
  C8       1.0000 0.24666  0.01240  0.77548  Biso   1.000  C
  C9       1.0000 0.18766  0.99664  0.83064  Biso   1.000  C
  C10      1.0000 0.18725  0.99951  0.89239  Biso   1.000  C
  C11      1.0000 0.32021  0.54437  0.86921  Biso   1.000  C
  C12      1.0000 0.38307  0.54141  0.80645  Biso   1.000  C
  C13      1.0000 0.46570  0.49097  0.79163  Biso   1.000  C
  C14      1.0000 0.47972  0.44643  0.84013  Biso   1.000  C
  C15      1.0000 0.41451  0.45161  0.90217  Biso   1.000  C
  C16      1.0000 0.68199  0.46781  0.65321  Biso   1.000  C
  C17      1.0000 0.62037  0.46911  0.71615  Biso   1.000  C
  C18      1.0000 0.53454  0.48760  0.72452  Biso   1.000  C
  C19      1.0000 0.51494  0.50336  0.66936  Biso   1.000  C
  C20      1.0000 0.57915  0.50049  0.60761  Biso   1.000  C
  C21      1.0000 0.17979  0.13079  0.45563  Biso   1.000  C
  C22      1.0000 0.11693  0.19355  0.45859  Biso   1.000  C
  C23      1.0000 0.03430  0.20837  0.50903  Biso   1.000  C
  C24      1.0000 0.02028  0.15987  0.55357  Biso   1.000  C
  C25      1.0000 0.08549  0.09783  0.54839  Biso   1.000  C
  C26      1.0000 0.81801  0.34679  0.53219  Biso   1.000  C
  C27      1.0000 0.87963  0.28385  0.53089  Biso   1.000  C
  C28      1.0000 0.96546  0.27548  0.51240  Biso   1.000  C
  C29      1.0000 0.98506  0.33064  0.49664  Biso   1.000  C
  C30      1.0000 0.92085  0.39239  0.49951  Biso   1.000  C
  C31      1.0000 0.26621  0.36921  0.04437  Biso   1.000  C
  C32      1.0000 0.26907  0.30645  0.04141  Biso   1.000  C
  C33      1.0000 0.25170  0.29163  0.99097  Biso   1.000  C
  C34      1.0000 0.23372  0.34013  0.94643  Biso   1.000  C
  C35      1.0000 0.23171  0.40217  0.95161  Biso   1.000  C
  C36      1.0000 0.19699  0.15321  0.96781  Biso   1.000  C
  C37      1.0000 0.19437  0.21615  0.96911  Biso   1.000  C
  C38      1.0000 0.25334  0.22452  0.98760  Biso   1.000  C
  C39      1.0000 0.31234  0.16936  0.00336  Biso   1.000  C
  C40      1.0000 0.31275  0.10761  0.00049  Biso   1.000  C
  C41      1.0000 0.63542  0.63079  0.54437  Biso   1.000  C
  C42      1.0000 0.57552  0.69355  0.54141  Biso   1.000  C
  C43      1.0000 0.54333  0.70837  0.49097  Biso   1.000  C
  C44      1.0000 0.57385  0.65987  0.44643  Biso   1.000  C
  C45      1.0000 0.63388  0.59783  0.45161  Biso   1.000  C
  C46      1.0000 0.35020  0.84679  0.46781  Biso   1.000  C
  C47      1.0000 0.41052  0.78385  0.46911  Biso   1.000  C
  C48      1.0000 0.47786  0.77548  0.48760  Biso   1.000  C
  C49      1.0000 0.48170  0.83064  0.50336  Biso   1.000  C
  C50      1.0000 0.42036  0.89239  0.50049  Biso   1.000  C
  C51      1.0000 0.31058  0.86921  0.95563  Biso   1.000  C
  C52      1.0000 0.31048  0.80645  0.95859  Biso   1.000  C
  C53      1.0000 0.24267  0.79163  0.00903  Biso   1.000  C
  C54      1.0000 0.18015  0.84013  0.05357  Biso   1.000  C
  C55      1.0000 0.18332  0.90217  0.04839  Biso   1.000  C
  C56      1.0000 0.16480  0.65321  0.03219  Biso   1.000  C
  C57      1.0000 0.16348  0.71615  0.03089  Biso   1.000  C
  C58      1.0000 0.24094  0.72452  0.01240  Biso   1.000  C
  C59      1.0000 0.31570  0.66936  0.99664  Biso   1.000  C
  C60      1.0000 0.31324  0.60761  0.99951  Biso   1.000  C
  C61      1.0000 0.18942  0.04437  0.13079  Biso   1.000  C
  C62      1.0000 0.18952  0.04141  0.19355  Biso   1.000  C
  C63      1.0000 0.25733  0.99097  0.20837  Biso   1.000  C
  C64      1.0000 0.31985  0.94643  0.15987  Biso   1.000  C
  C65      1.0000 0.31668  0.95161  0.09783  Biso   1.000  C
  C66      1.0000 0.33520  0.96781  0.34679  Biso   1.000  C
  C67      1.0000 0.33652  0.96911  0.28385  Biso   1.000  C
  C68      1.0000 0.25906  0.98760  0.27548  Biso   1.000  C
  C69      1.0000 0.18430  0.00336  0.33064  Biso   1.000  C
  C70      1.0000 0.18676  0.00049  0.39239  Biso   1.000  C
  C71      1.0000 0.86458  0.45563  0.36921  Biso   1.000  C
  C72      1.0000 0.92448  0.45859  0.30645  Biso   1.000  C
  C73      1.0000 0.95667  0.50903  0.29163  Biso   1.000  C
  C74      1.0000 0.92615  0.55357  0.34013  Biso   1.000  C
  C75      1.0000 0.86612  0.54839  0.40217  Biso   1.000  C
  C76      1.0000 0.14980  0.53219  0.15321  Biso   1.000  C
  C77      1.0000 0.08948  0.53089  0.21615  Biso   1.000  C
  C78      1.0000 0.02214  0.51240  0.22452  Biso   1.000  C
  C79      1.0000 0.01830  0.49664  0.16936  Biso   1.000  C
  C80      1.0000 0.07964  0.49951  0.10761  Biso   1.000  C
  N1       1.0000 0.25160  0.00011  0.58349  Biso   1.000  N
  N2       1.0000 0.24571  0.01551  0.90047  Biso   1.000  N
  N3       1.0000 0.33520  0.49989  0.91651  Biso   1.000  N
  N4       1.0000 0.66169  0.48449  0.59953  Biso   1.000  N
  N5       1.0000 0.16480  0.08349  0.50011  Biso   1.000  N
  N6       1.0000 0.83831  0.40047  0.51551  Biso   1.000  N
  N7       1.0000 0.24840  0.41651  0.99989  Biso   1.000  N
  N8       1.0000 0.25429  0.09953  0.98449  Biso   1.000  N
  N9       1.0000 0.66491  0.58349  0.49989  Biso   1.000  N
  N10      1.0000 0.35382  0.90047  0.48449  Biso   1.000  N
  N11      1.0000 0.24829  0.91651  0.00011  Biso   1.000  N
  N12      1.0000 0.23878  0.59953  0.01551  Biso   1.000  N
  N13      1.0000 0.25171  0.99989  0.08349  Biso   1.000  N
  N14      1.0000 0.26122  0.98449  0.40047  Biso   1.000  N
  N15      1.0000 0.83509  0.50011  0.41651  Biso   1.000  N
  N16      1.0000 0.14618  0.51551  0.09953  Biso   1.000  N
  Cu5      1.0000 0.25000  0.50885  0.49115  Biso   1.000  Cu
  Cu6      1.0000 0.75000  0.99115  0.00885  Biso   1.000  Cu
  Cu7      1.0000 0.74115  0.00885  0.50885  Biso   1.000  Cu
  Cu8      1.0000 0.75885  0.49115  0.99115  Biso   1.000  Cu
  H65      1.0000 0.34400  0.37910  0.42170  Biso   1.000  H
  H66      1.0000 0.44310  0.27450  0.42750  Biso   1.000  H
  H67      1.0000 0.44590  0.33150  0.58790  Biso   1.000  H
  H68      1.0000 0.34670  0.43470  0.57910  Biso   1.000  H
  H69      1.0000 0.69450  0.14790  0.54510  Biso   1.000  H
  H70      1.0000 0.59410  0.25250  0.54230  Biso   1.000  H
  H71      1.0000 0.47390  0.17350  0.48390  Biso   1.000  H
  H72      1.0000 0.57460  0.07050  0.49010  Biso   1.000  H
  H73      1.0000 0.64480  0.12090  0.07830  Biso   1.000  H
  H74      1.0000 0.64510  0.22550  0.07250  Biso   1.000  H
  H75      1.0000 0.86530  0.16850  0.91210  Biso   1.000  H
  H76      1.0000 0.86050  0.06530  0.92090  Biso   1.000  H
  H77      1.0000 0.88750  0.35210  0.95490  Biso   1.000  H
  H78      1.0000 0.88890  0.24750  0.95770  Biso   1.000  H
  H79      1.0000 0.63130  0.32650  0.01610  Biso   1.000  H
  H80      1.0000 0.63520  0.42950  0.00990  Biso   1.000  H
  H81      1.0000 0.85520  0.92170  0.87910  Biso   1.000  H
  H82      1.0000 0.85490  0.92750  0.77450  Biso   1.000  H
  H83      1.0000 0.63470  0.08790  0.83150  Biso   1.000  H
  H84      1.0000 0.63950  0.07910  0.93470  Biso   1.000  H
  H85      1.0000 0.61250  0.04510  0.64790  Biso   1.000  H
  H86      1.0000 0.61110  0.04230  0.75250  Biso   1.000  H
  H87      1.0000 0.86870  0.98390  0.67350  Biso   1.000  H
  H88      1.0000 0.86480  0.99010  0.57050  Biso   1.000  H
  H89      1.0000 0.15600  0.57830  0.62090  Biso   1.000  H
  H90      1.0000 0.05690  0.57250  0.72550  Biso   1.000  H
  H91      1.0000 0.05410  0.41210  0.66850  Biso   1.000  H
  H92      1.0000 0.15330  0.42090  0.56530  Biso   1.000  H
  H93      1.0000 0.80550  0.45490  0.85210  Biso   1.000  H
  H94      1.0000 0.90590  0.45770  0.74750  Biso   1.000  H
  H95      1.0000 0.02610  0.51610  0.82650  Biso   1.000  H
  H96      1.0000 0.92540  0.50990  0.92950  Biso   1.000  H
  H97      1.0000 0.77690  0.07830  0.37910  Biso   1.000  H
  H98      1.0000 0.78240  0.07250  0.27450  Biso   1.000  H
  H99      1.0000 0.72260  0.91210  0.33150  Biso   1.000  H
  H100     1.0000 0.71860  0.92090  0.43470  Biso   1.000  H
  H101     1.0000 0.65760  0.95490  0.14790  Biso   1.000  H
  H102     1.0000 0.65340  0.95770  0.25250  Biso   1.000  H
  H103     1.0000 0.85260  0.01610  0.17350  Biso   1.000  H
  H104     1.0000 0.85490  0.00990  0.07050  Biso   1.000  H
  H105     1.0000 0.73430  0.42170  0.12090  Biso   1.000  H
  H106     1.0000 0.62940  0.42750  0.22550  Biso   1.000  H
  H107     1.0000 0.46620  0.58790  0.16850  Biso   1.000  H
  H108     1.0000 0.57420  0.57910  0.06530  Biso   1.000  H
  H109     1.0000 0.26040  0.54510  0.35210  Biso   1.000  H
  H110     1.0000 0.36360  0.54230  0.24750  Biso   1.000  H
  H111     1.0000 0.54220  0.48390  0.32650  Biso   1.000  H
  H112     1.0000 0.43530  0.49010  0.42950  Biso   1.000  H
  H113     1.0000 0.76570  0.87910  0.57830  Biso   1.000  H
  H114     1.0000 0.87060  0.77450  0.57250  Biso   1.000  H
  H115     1.0000 0.03380  0.83150  0.41210  Biso   1.000  H
  H116     1.0000 0.92580  0.93470  0.42090  Biso   1.000  H
  H117     1.0000 0.23960  0.64790  0.45490  Biso   1.000  H
  H118     1.0000 0.13640  0.75250  0.45770  Biso   1.000  H
  H119     1.0000 0.95780  0.67350  0.51610  Biso   1.000  H
  H120     1.0000 0.06470  0.57050  0.50990  Biso   1.000  H
  H121     1.0000 0.72310  0.62090  0.92170  Biso   1.000  H
  H122     1.0000 0.71760  0.72550  0.92750  Biso   1.000  H
  H123     1.0000 0.77740  0.66850  0.08790  Biso   1.000  H
  H124     1.0000 0.78140  0.56530  0.07910  Biso   1.000  H
  H125     1.0000 0.84240  0.85210  0.04510  Biso   1.000  H
  H126     1.0000 0.84660  0.74750  0.04230  Biso   1.000  H
  H127     1.0000 0.64740  0.82650  0.98390  Biso   1.000  H
  H128     1.0000 0.64510  0.92950  0.99010  Biso   1.000  H
  C81      1.0000 0.36458  0.36921  0.45563  Biso   1.000  C
  C82      1.0000 0.42448  0.30645  0.45859  Biso   1.000  C
  C83      1.0000 0.45667  0.29163  0.50903  Biso   1.000  C
  C84      1.0000 0.42615  0.34013  0.55357  Biso   1.000  C
  C85      1.0000 0.36612  0.40217  0.54839  Biso   1.000  C
  C86      1.0000 0.64980  0.15321  0.53219  Biso   1.000  C
  C87      1.0000 0.58948  0.21615  0.53089  Biso   1.000  C
  C88      1.0000 0.52214  0.22452  0.51240  Biso   1.000  C
  C89      1.0000 0.51830  0.16936  0.49664  Biso   1.000  C
  C90      1.0000 0.57964  0.10761  0.49951  Biso   1.000  C
  C91      1.0000 0.68942  0.13079  0.04437  Biso   1.000  C
  C92      1.0000 0.68952  0.19355  0.04141  Biso   1.000  C
  C93      1.0000 0.75733  0.20837  0.99097  Biso   1.000  C
  C94      1.0000 0.81985  0.15987  0.94643  Biso   1.000  C
  C95      1.0000 0.81668  0.09783  0.95161  Biso   1.000  C
  C96      1.0000 0.83520  0.34679  0.96781  Biso   1.000  C
  C97      1.0000 0.83652  0.28385  0.96911  Biso   1.000  C
  C98      1.0000 0.75906  0.27548  0.98760  Biso   1.000  C
  C99      1.0000 0.68430  0.33064  0.00336  Biso   1.000  C
  C100     1.0000 0.68676  0.39239  0.00049  Biso   1.000  C
  C101     1.0000 0.81058  0.95563  0.86921  Biso   1.000  C
  C102     1.0000 0.81048  0.95859  0.80645  Biso   1.000  C
  C103     1.0000 0.74267  0.00903  0.79163  Biso   1.000  C
  C104     1.0000 0.68015  0.05357  0.84013  Biso   1.000  C
  C105     1.0000 0.68332  0.04839  0.90217  Biso   1.000  C
  C106     1.0000 0.66480  0.03219  0.65321  Biso   1.000  C
  C107     1.0000 0.66348  0.03089  0.71615  Biso   1.000  C
  C108     1.0000 0.74094  0.01240  0.72452  Biso   1.000  C
  C109     1.0000 0.81570  0.99664  0.66936  Biso   1.000  C
  C110     1.0000 0.81324  0.99951  0.60761  Biso   1.000  C
  C111     1.0000 0.13542  0.54437  0.63079  Biso   1.000  C
  C112     1.0000 0.07552  0.54141  0.69355  Biso   1.000  C
  C113     1.0000 0.04333  0.49097  0.70837  Biso   1.000  C
  C114     1.0000 0.07385  0.44643  0.65987  Biso   1.000  C
  C115     1.0000 0.13388  0.45161  0.59783  Biso   1.000  C
  C116     1.0000 0.85020  0.46781  0.84679  Biso   1.000  C
  C117     1.0000 0.91052  0.46911  0.78385  Biso   1.000  C
  C118     1.0000 0.97786  0.48760  0.77548  Biso   1.000  C
  C119     1.0000 0.98170  0.50336  0.83064  Biso   1.000  C
  C120     1.0000 0.92036  0.50049  0.89239  Biso   1.000  C
  C121     1.0000 0.76621  0.04437  0.36921  Biso   1.000  C
  C122     1.0000 0.76907  0.04141  0.30645  Biso   1.000  C
  C123     1.0000 0.75170  0.99097  0.29163  Biso   1.000  C
  C124     1.0000 0.73372  0.94643  0.34013  Biso   1.000  C
  C125     1.0000 0.73171  0.95161  0.40217  Biso   1.000  C
  C126     1.0000 0.69699  0.96781  0.15321  Biso   1.000  C
  C127     1.0000 0.69437  0.96911  0.21615  Biso   1.000  C
  C128     1.0000 0.75334  0.98760  0.22452  Biso   1.000  C
  C129     1.0000 0.81234  0.00336  0.16936  Biso   1.000  C
  C130     1.0000 0.81275  0.00049  0.10761  Biso   1.000  C
  C131     1.0000 0.67979  0.45563  0.13079  Biso   1.000  C
  C132     1.0000 0.61693  0.45859  0.19355  Biso   1.000  C
  C133     1.0000 0.53430  0.50903  0.20837  Biso   1.000  C
  C134     1.0000 0.52028  0.55357  0.15987  Biso   1.000  C
  C135     1.0000 0.58549  0.54839  0.09783  Biso   1.000  C
  C136     1.0000 0.31801  0.53219  0.34679  Biso   1.000  C
  C137     1.0000 0.37963  0.53089  0.28385  Biso   1.000  C
  C138     1.0000 0.46546  0.51240  0.27548  Biso   1.000  C
  C139     1.0000 0.48506  0.49664  0.33064  Biso   1.000  C
  C140     1.0000 0.42085  0.49951  0.39239  Biso   1.000  C
  C141     1.0000 0.82021  0.86921  0.54437  Biso   1.000  C
  C142     1.0000 0.88307  0.80645  0.54141  Biso   1.000  C
  C143     1.0000 0.96570  0.79163  0.49097  Biso   1.000  C
  C144     1.0000 0.97972  0.84013  0.44643  Biso   1.000  C
  C145     1.0000 0.91451  0.90217  0.45161  Biso   1.000  C
  C146     1.0000 0.18199  0.65321  0.46781  Biso   1.000  C
  C147     1.0000 0.12037  0.71615  0.46911  Biso   1.000  C
  C148     1.0000 0.03454  0.72452  0.48760  Biso   1.000  C
  C149     1.0000 0.01494  0.66936  0.50336  Biso   1.000  C
  C150     1.0000 0.07915  0.60761  0.50049  Biso   1.000  C
  C151     1.0000 0.73379  0.63079  0.95563  Biso   1.000  C
  C152     1.0000 0.73093  0.69355  0.95859  Biso   1.000  C
  C153     1.0000 0.74830  0.70837  0.00903  Biso   1.000  C
  C154     1.0000 0.76628  0.65987  0.05357  Biso   1.000  C
  C155     1.0000 0.76829  0.59783  0.04839  Biso   1.000  C
  C156     1.0000 0.80301  0.84679  0.03219  Biso   1.000  C
  C157     1.0000 0.80563  0.78385  0.03089  Biso   1.000  C
  C158     1.0000 0.74666  0.77548  0.01240  Biso   1.000  C
  C159     1.0000 0.68766  0.83064  0.99664  Biso   1.000  C
  C160     1.0000 0.68725  0.89239  0.99951  Biso   1.000  C
  N17      1.0000 0.33509  0.41651  0.50011  Biso   1.000  N
  N18      1.0000 0.64618  0.09953  0.51551  Biso   1.000  N
  N19      1.0000 0.75171  0.08349  0.99989  Biso   1.000  N
  N20      1.0000 0.76122  0.40047  0.98449  Biso   1.000  N
  N21      1.0000 0.74829  0.00011  0.91651  Biso   1.000  N
  N22      1.0000 0.73878  0.01551  0.59953  Biso   1.000  N
  N23      1.0000 0.16491  0.49989  0.58349  Biso   1.000  N
  N24      1.0000 0.85382  0.48449  0.90047  Biso   1.000  N
  N25      1.0000 0.74840  0.99989  0.41651  Biso   1.000  N
  N26      1.0000 0.75429  0.98449  0.09953  Biso   1.000  N
  N27      1.0000 0.66480  0.50011  0.08349  Biso   1.000  N
  N28      1.0000 0.33831  0.51551  0.40047  Biso   1.000  N
  N29      1.0000 0.83520  0.91651  0.49989  Biso   1.000  N
  N30      1.0000 0.16169  0.59953  0.48449  Biso   1.000  N
  N31      1.0000 0.75160  0.58349  0.00011  Biso   1.000  N
  N32      1.0000 0.74571  0.90047  0.01551  Biso   1.000  N
