data_image0
_cell_length_a       10.9909
_cell_length_b       10.9909
_cell_length_c       10.991
_cell_angle_alpha    90
_cell_angle_beta     90
_cell_angle_gamma    90

_symmetry_space_group_name_H-M    P 1
_symmetry_int_tables_number       1

loop_
  _symmetry_equiv_pos_as_xyz
  'x, y, z'

loop_
  _atom_site_label
  _atom_site_occupancy
  _atom_site_fract_x
  _atom_site_fract_y
  _atom_site_fract_z
  _atom_site_thermal_displace_type
  _atom_site_B_iso_or_equiv
  _atom_site_type_symbol
  Li1      1.0000 0.91840  0.58920  0.83640  Biso   1.000  Li
  Li2      1.0000 0.08160  0.41080  0.83640  Biso   1.000  Li
  Li3      1.0000 0.58920  0.08160  0.16360  Biso   1.000  Li
  Li4      1.0000 0.41080  0.91840  0.16360  Biso   1.000  Li
  Li5      1.0000 0.08160  0.58920  0.66360  Biso   1.000  Li
  Li6      1.0000 0.91840  0.41080  0.66360  Biso   1.000  Li
  Li7      1.0000 0.41080  0.08160  0.33640  Biso   1.000  Li
  Li8      1.0000 0.58920  0.91840  0.33640  Biso   1.000  Li
  H1       1.0000 0.20660  0.54320  0.04030  Biso   1.000  H
  H2       1.0000 0.13230  0.81870  0.82660  Biso   1.000  H
  H3       1.0000 0.32090  0.67040  0.14970  Biso   1.000  H
  H4       1.0000 0.24950  0.93550  0.94500  Biso   1.000  H
  H5       1.0000 0.79340  0.45680  0.04030  Biso   1.000  H
  H6       1.0000 0.86770  0.18130  0.82660  Biso   1.000  H
  H7       1.0000 0.67910  0.32960  0.14970  Biso   1.000  H
  H8       1.0000 0.75050  0.06450  0.94500  Biso   1.000  H
  H9       1.0000 0.54320  0.79340  0.95970  Biso   1.000  H
  H10      1.0000 0.81870  0.86770  0.17340  Biso   1.000  H
  H11      1.0000 0.67040  0.67910  0.85030  Biso   1.000  H
  H12      1.0000 0.93550  0.75050  0.05500  Biso   1.000  H
  H13      1.0000 0.45680  0.20660  0.95970  Biso   1.000  H
  H14      1.0000 0.18130  0.13230  0.17340  Biso   1.000  H
  H15      1.0000 0.32960  0.32090  0.85030  Biso   1.000  H
  H16      1.0000 0.06450  0.24950  0.05500  Biso   1.000  H
  H17      1.0000 0.79340  0.54320  0.45970  Biso   1.000  H
  H18      1.0000 0.86770  0.81870  0.67340  Biso   1.000  H
  H19      1.0000 0.67910  0.67040  0.35030  Biso   1.000  H
  H20      1.0000 0.75050  0.93550  0.55500  Biso   1.000  H
  H21      1.0000 0.20660  0.45680  0.45970  Biso   1.000  H
  H22      1.0000 0.13230  0.18130  0.67340  Biso   1.000  H
  H23      1.0000 0.32090  0.32960  0.35030  Biso   1.000  H
  H24      1.0000 0.24950  0.06450  0.55500  Biso   1.000  H
  H25      1.0000 0.45680  0.79340  0.54030  Biso   1.000  H
  H26      1.0000 0.18130  0.86770  0.32660  Biso   1.000  H
  H27      1.0000 0.32960  0.67910  0.64970  Biso   1.000  H
  H28      1.0000 0.06450  0.75050  0.44500  Biso   1.000  H
  H29      1.0000 0.54320  0.20660  0.54030  Biso   1.000  H
  H30      1.0000 0.81870  0.13230  0.32660  Biso   1.000  H
  H31      1.0000 0.67040  0.32090  0.64970  Biso   1.000  H
  H32      1.0000 0.93550  0.24950  0.44500  Biso   1.000  H
  C1       1.0000 0.21550  0.62340  0.01500  Biso   1.000  C
  C2       1.0000 0.17290  0.78330  0.89180  Biso   1.000  C
  C3       1.0000 0.28220  0.70250  0.08170  Biso   1.000  C
  C4       1.0000 0.24230  0.85380  0.96590  Biso   1.000  C
  C5       1.0000 0.16210  0.66200  0.91160  Biso   1.000  C
  C6       1.0000 0.78450  0.37660  0.01500  Biso   1.000  C
  C7       1.0000 0.82710  0.21670  0.89180  Biso   1.000  C
  C8       1.0000 0.71780  0.29750  0.08170  Biso   1.000  C
  C9       1.0000 0.75770  0.14620  0.96590  Biso   1.000  C
  C10      1.0000 0.83790  0.33800  0.91160  Biso   1.000  C
  C11      1.0000 0.62340  0.78450  0.98500  Biso   1.000  C
  C12      1.0000 0.78330  0.82710  0.10820  Biso   1.000  C
  C13      1.0000 0.70250  0.71780  0.91830  Biso   1.000  C
  C14      1.0000 0.85380  0.75770  0.03410  Biso   1.000  C
  C15      1.0000 0.66200  0.83790  0.08840  Biso   1.000  C
  C16      1.0000 0.37660  0.21550  0.98500  Biso   1.000  C
  C17      1.0000 0.21670  0.17290  0.10820  Biso   1.000  C
  C18      1.0000 0.29750  0.28220  0.91830  Biso   1.000  C
  C19      1.0000 0.14620  0.24230  0.03410  Biso   1.000  C
  C20      1.0000 0.33800  0.16210  0.08840  Biso   1.000  C
  C21      1.0000 0.78450  0.62340  0.48500  Biso   1.000  C
  C22      1.0000 0.82710  0.78330  0.60820  Biso   1.000  C
  C23      1.0000 0.71780  0.70250  0.41830  Biso   1.000  C
  C24      1.0000 0.75770  0.85380  0.53410  Biso   1.000  C
  C25      1.0000 0.83790  0.66200  0.58840  Biso   1.000  C
  C26      1.0000 0.21550  0.37660  0.48500  Biso   1.000  C
  C27      1.0000 0.17290  0.21670  0.60820  Biso   1.000  C
  C28      1.0000 0.28220  0.29750  0.41830  Biso   1.000  C
  C29      1.0000 0.24230  0.14620  0.53410  Biso   1.000  C
  C30      1.0000 0.16210  0.33800  0.58840  Biso   1.000  C
  C31      1.0000 0.37660  0.78450  0.51500  Biso   1.000  C
  C32      1.0000 0.21670  0.82710  0.39180  Biso   1.000  C
  C33      1.0000 0.29750  0.71780  0.58170  Biso   1.000  C
  C34      1.0000 0.14620  0.75770  0.46590  Biso   1.000  C
  C35      1.0000 0.33800  0.83790  0.41160  Biso   1.000  C
  C36      1.0000 0.62340  0.21550  0.51500  Biso   1.000  C
  C37      1.0000 0.78330  0.17290  0.39180  Biso   1.000  C
  C38      1.0000 0.70250  0.28220  0.58170  Biso   1.000  C
  C39      1.0000 0.85380  0.24230  0.46590  Biso   1.000  C
  C40      1.0000 0.66200  0.16210  0.41160  Biso   1.000  C
  N1       1.0000 0.29880  0.81920  0.06160  Biso   1.000  N
  N2       1.0000 0.70120  0.18080  0.06160  Biso   1.000  N
  N3       1.0000 0.81920  0.70120  0.93840  Biso   1.000  N
  N4       1.0000 0.18080  0.29880  0.93840  Biso   1.000  N
  N5       1.0000 0.70120  0.81920  0.43840  Biso   1.000  N
  N6       1.0000 0.29880  0.18080  0.43840  Biso   1.000  N
  N7       1.0000 0.18080  0.70120  0.56160  Biso   1.000  N
  N8       1.0000 0.81920  0.29880  0.56160  Biso   1.000  N
  O1       1.0000 0.09630  0.58940  0.84140  Biso   1.000  O
  O2       1.0000 0.90370  0.41060  0.84140  Biso   1.000  O
  O3       1.0000 0.58940  0.90370  0.15860  Biso   1.000  O
  O4       1.0000 0.41060  0.09630  0.15860  Biso   1.000  O
  O5       1.0000 0.90370  0.58940  0.65860  Biso   1.000  O
  O6       1.0000 0.09630  0.41060  0.65860  Biso   1.000  O
  O7       1.0000 0.41060  0.90370  0.34140  Biso   1.000  O
  O8       1.0000 0.58940  0.09630  0.34140  Biso   1.000  O
