data_image0
_cell_length_a       9.0541
_cell_length_b       10.4443
_cell_length_c       18.2006
_cell_angle_alpha    90
_cell_angle_beta     90
_cell_angle_gamma    90

_symmetry_space_group_name_H-M    P 1
_symmetry_int_tables_number       1

loop_
  _symmetry_equiv_pos_as_xyz
  'x, y, z'

loop_
  _atom_site_label
  _atom_site_occupancy
  _atom_site_fract_x
  _atom_site_fract_y
  _atom_site_fract_z
  _atom_site_thermal_displace_type
  _atom_site_B_iso_or_equiv
  _atom_site_type_symbol
  Zn1      1.0000 0.13211  0.01884  0.59969  Biso   1.000  Zn
  Zn2      1.0000 0.63211  0.98116  0.40031  Biso   1.000  Zn
  Zn3      1.0000 0.13211  0.48116  0.09969  Biso   1.000  Zn
  Zn4      1.0000 0.63211  0.51884  0.90031  Biso   1.000  Zn
  H1       1.0000 0.32780  0.03840  0.47020  Biso   1.000  H
  H2       1.0000 0.72740  0.63550  0.60790  Biso   1.000  H
  H3       1.0000 0.32660  0.69680  0.73360  Biso   1.000  H
  H4       1.0000 0.23980  0.79740  0.69480  Biso   1.000  H
  H5       1.0000 0.96660  0.68450  0.71090  Biso   1.000  H
  H6       1.0000 0.85230  0.53850  0.78640  Biso   1.000  H
  H7       1.0000 0.60390  0.80360  0.87120  Biso   1.000  H
  H8       1.0000 0.70730  0.95710  0.79590  Biso   1.000  H
  H9       1.0000 0.82780  0.96160  0.52980  Biso   1.000  H
  H10      1.0000 0.22740  0.36450  0.39210  Biso   1.000  H
  H11      1.0000 0.82660  0.30320  0.26640  Biso   1.000  H
  H12      1.0000 0.73980  0.20260  0.30520  Biso   1.000  H
  H13      1.0000 0.46660  0.31550  0.28910  Biso   1.000  H
  H14      1.0000 0.35230  0.46150  0.21360  Biso   1.000  H
  H15      1.0000 0.10390  0.19640  0.12880  Biso   1.000  H
  H16      1.0000 0.20730  0.04290  0.20410  Biso   1.000  H
  H17      1.0000 0.32780  0.46160  0.97020  Biso   1.000  H
  H18      1.0000 0.72740  0.86450  0.10790  Biso   1.000  H
  H19      1.0000 0.32660  0.80320  0.23360  Biso   1.000  H
  H20      1.0000 0.23980  0.70260  0.19480  Biso   1.000  H
  H21      1.0000 0.96660  0.81550  0.21090  Biso   1.000  H
  H22      1.0000 0.85230  0.96150  0.28640  Biso   1.000  H
  H23      1.0000 0.60390  0.69640  0.37120  Biso   1.000  H
  H24      1.0000 0.70730  0.54290  0.29590  Biso   1.000  H
  H25      1.0000 0.82780  0.53840  0.02980  Biso   1.000  H
  H26      1.0000 0.22740  0.13550  0.89210  Biso   1.000  H
  H27      1.0000 0.82660  0.19680  0.76640  Biso   1.000  H
  H28      1.0000 0.73980  0.29740  0.80520  Biso   1.000  H
  H29      1.0000 0.46660  0.18450  0.78910  Biso   1.000  H
  H30      1.0000 0.35230  0.03850  0.71360  Biso   1.000  H
  H31      1.0000 0.10390  0.30360  0.62880  Biso   1.000  H
  H32      1.0000 0.20730  0.45710  0.70410  Biso   1.000  H
  C1       1.0000 0.37330  0.97590  0.49880  Biso   1.000  C
  C2       1.0000 0.64690  0.68940  0.60100  Biso   1.000  C
  C3       1.0000 0.42150  0.75710  0.64610  Biso   1.000  C
  C4       1.0000 0.41430  0.84130  0.58431  Biso   1.000  C
  C5       1.0000 0.53100  0.83820  0.53635  Biso   1.000  C
  C6       1.0000 0.92040  0.93430  0.69560  Biso   1.000  C
  C7       1.0000 0.89280  0.71080  0.74310  Biso   1.000  C
  C8       1.0000 0.84950  0.83740  0.74590  Biso   1.000  C
  C9       1.0000 0.82420  0.62400  0.78890  Biso   1.000  C
  C10      1.0000 0.67770  0.77980  0.83850  Biso   1.000  C
  C11      1.0000 0.73960  0.87270  0.79370  Biso   1.000  C
  C12      1.0000 0.87330  0.02410  0.50120  Biso   1.000  C
  C13      1.0000 0.14690  0.31060  0.39900  Biso   1.000  C
  C14      1.0000 0.92150  0.24290  0.35390  Biso   1.000  C
  C15      1.0000 0.91430  0.15870  0.41569  Biso   1.000  C
  C16      1.0000 0.03100  0.16180  0.46365  Biso   1.000  C
  C17      1.0000 0.42040  0.06570  0.30440  Biso   1.000  C
  C18      1.0000 0.39280  0.28920  0.25690  Biso   1.000  C
  C19      1.0000 0.34950  0.16260  0.25410  Biso   1.000  C
  C20      1.0000 0.32420  0.37600  0.21110  Biso   1.000  C
  C21      1.0000 0.17770  0.22020  0.16150  Biso   1.000  C
  C22      1.0000 0.23960  0.12730  0.20630  Biso   1.000  C
  C23      1.0000 0.37330  0.52410  0.99880  Biso   1.000  C
  C24      1.0000 0.64690  0.81060  0.10100  Biso   1.000  C
  C25      1.0000 0.42150  0.74290  0.14610  Biso   1.000  C
  C26      1.0000 0.41430  0.65870  0.08431  Biso   1.000  C
  C27      1.0000 0.53100  0.66180  0.03635  Biso   1.000  C
  C28      1.0000 0.92040  0.56570  0.19560  Biso   1.000  C
  C29      1.0000 0.89280  0.78920  0.24310  Biso   1.000  C
  C30      1.0000 0.84950  0.66260  0.24590  Biso   1.000  C
  C31      1.0000 0.82420  0.87600  0.28890  Biso   1.000  C
  C32      1.0000 0.67770  0.72020  0.33850  Biso   1.000  C
  C33      1.0000 0.73960  0.62730  0.29370  Biso   1.000  C
  C34      1.0000 0.87330  0.47590  0.00120  Biso   1.000  C
  C35      1.0000 0.14690  0.18940  0.89900  Biso   1.000  C
  C36      1.0000 0.92150  0.25710  0.85390  Biso   1.000  C
  C37      1.0000 0.91430  0.34130  0.91569  Biso   1.000  C
  C38      1.0000 0.03100  0.33820  0.96365  Biso   1.000  C
  C39      1.0000 0.42040  0.43430  0.80440  Biso   1.000  C
  C40      1.0000 0.39280  0.21080  0.75690  Biso   1.000  C
  C41      1.0000 0.34950  0.33740  0.75410  Biso   1.000  C
  C42      1.0000 0.32420  0.12400  0.71110  Biso   1.000  C
  C43      1.0000 0.17770  0.27980  0.66150  Biso   1.000  C
  C44      1.0000 0.23960  0.37270  0.70630  Biso   1.000  C
  N1       1.0000 0.50500  0.92600  0.48101  Biso   1.000  N
  N2       1.0000 0.65320  0.76340  0.54224  Biso   1.000  N
  N3       1.0000 0.31170  0.93010  0.56010  Biso   1.000  N
  N4       1.0000 0.54110  0.68140  0.65165  Biso   1.000  N
  N5       1.0000 0.31690  0.74950  0.69760  Biso   1.000  N
  N6       1.0000 0.72020  0.65710  0.83634  Biso   1.000  N
  N7       1.0000 0.00500  0.07400  0.51899  Biso   1.000  N
  N8       1.0000 0.15320  0.23660  0.45776  Biso   1.000  N
  N9       1.0000 0.81170  0.06990  0.43990  Biso   1.000  N
  N10      1.0000 0.04110  0.31860  0.34835  Biso   1.000  N
  N11      1.0000 0.81690  0.25050  0.30240  Biso   1.000  N
  N12      1.0000 0.22020  0.34290  0.16366  Biso   1.000  N
  N13      1.0000 0.50500  0.57400  0.98101  Biso   1.000  N
  N14      1.0000 0.65320  0.73660  0.04224  Biso   1.000  N
  N15      1.0000 0.31170  0.56990  0.06010  Biso   1.000  N
  N16      1.0000 0.54110  0.81860  0.15165  Biso   1.000  N
  N17      1.0000 0.31690  0.75050  0.19760  Biso   1.000  N
  N18      1.0000 0.72020  0.84290  0.33634  Biso   1.000  N
  N19      1.0000 0.00500  0.42600  0.01899  Biso   1.000  N
  N20      1.0000 0.15320  0.26340  0.95776  Biso   1.000  N
  N21      1.0000 0.81170  0.43010  0.93990  Biso   1.000  N
  N22      1.0000 0.04110  0.18140  0.84835  Biso   1.000  N
  N23      1.0000 0.81690  0.24950  0.80240  Biso   1.000  N
  N24      1.0000 0.22020  0.15710  0.66366  Biso   1.000  N
  O1       1.0000 0.03790  0.89370  0.66284  Biso   1.000  O
  O2       1.0000 0.86670  0.04020  0.68735  Biso   1.000  O
  O3       1.0000 0.53790  0.10630  0.33716  Biso   1.000  O
  O4       1.0000 0.36670  0.95980  0.31265  Biso   1.000  O
  O5       1.0000 0.03790  0.60630  0.16284  Biso   1.000  O
  O6       1.0000 0.86670  0.45980  0.18735  Biso   1.000  O
  O7       1.0000 0.53790  0.39370  0.83716  Biso   1.000  O
  O8       1.0000 0.36670  0.54020  0.81265  Biso   1.000  O
