data_image0
_cell_length_a       10.329
_cell_length_b       16.0121
_cell_length_c       16.0121
_cell_angle_alpha    64.4914
_cell_angle_beta     77.583
_cell_angle_gamma    102.417

_symmetry_space_group_name_H-M    P 1
_symmetry_int_tables_number       1

loop_
  _symmetry_equiv_pos_as_xyz
  'x, y, z'

loop_
  _atom_site_label
  _atom_site_occupancy
  _atom_site_fract_x
  _atom_site_fract_y
  _atom_site_fract_z
  _atom_site_thermal_displace_type
  _atom_site_B_iso_or_equiv
  _atom_site_type_symbol
  Mg1      1.0000 0.00000  0.50000  0.00000  Biso   1.000  Mg
  Mg2      1.0000 0.00000  0.00000  0.50000  Biso   1.000  Mg
  Mg3      1.0000 0.50000  0.50000  0.50000  Biso   1.000  Mg
  H1       1.0000 0.11890  0.73940  0.86120  Biso   1.000  H
  H2       1.0000 0.03310  0.86550  0.81030  Biso   1.000  H
  H3       1.0000 0.79760  0.83630  0.88130  Biso   1.000  H
  H4       1.0000 0.48930  0.17810  0.22900  Biso   1.000  H
  H5       1.0000 0.28150  0.05320  0.33720  Biso   1.000  H
  H6       1.0000 0.11090  0.23780  0.36640  Biso   1.000  H
  H7       1.0000 0.30980  0.36720  0.25340  Biso   1.000  H
  H8       1.0000 0.53820  0.60090  0.05930  Biso   1.000  H
  H9       1.0000 0.54650  0.68890  0.96100  Biso   1.000  H
  H10      1.0000 0.57440  0.70730  0.04510  Biso   1.000  H
  H11      1.0000 0.98010  0.86120  0.39940  Biso   1.000  H
  H12      1.0000 0.84340  0.81030  0.32420  Biso   1.000  H
  H13      1.0000 0.67890  0.88130  0.28240  Biso   1.000  H
  H14      1.0000 0.71830  0.22900  0.59290  Biso   1.000  H
  H15      1.0000 0.61870  0.33720  0.60960  Biso   1.000  H
  H16      1.0000 0.47730  0.36640  0.39580  Biso   1.000  H
  H17      1.0000 0.56320  0.25340  0.37940  Biso   1.000  H
  H18      1.0000 0.59750  0.05930  0.33980  Biso   1.000  H
  H19      1.0000 0.50750  0.96100  0.35010  Biso   1.000  H
  H20      1.0000 0.61950  0.04510  0.24760  Biso   1.000  H
  H21      1.0000 0.37950  0.39940  0.73940  Biso   1.000  H
  H22      1.0000 0.16760  0.32420  0.86550  Biso   1.000  H
  H23      1.0000 0.96130  0.28240  0.83630  Biso   1.000  H
  H24      1.0000 0.31120  0.59290  0.17810  Biso   1.000  H
  H25      1.0000 0.22830  0.60960  0.05320  Biso   1.000  H
  H26      1.0000 0.87310  0.39580  0.23780  Biso   1.000  H
  H27      1.0000 0.94260  0.37940  0.36720  Biso   1.000  H
  H28      1.0000 0.93730  0.33980  0.60090  Biso   1.000  H
  H29      1.0000 0.85760  0.35010  0.68890  Biso   1.000  H
  H30      1.0000 0.86710  0.24760  0.70730  Biso   1.000  H
  H31      1.0000 0.88110  0.26060  0.13880  Biso   1.000  H
  H32      1.0000 0.96690  0.13450  0.18970  Biso   1.000  H
  H33      1.0000 0.20240  0.16370  0.11870  Biso   1.000  H
  H34      1.0000 0.51070  0.82190  0.77100  Biso   1.000  H
  H35      1.0000 0.71850  0.94680  0.66280  Biso   1.000  H
  H36      1.0000 0.88910  0.76220  0.63360  Biso   1.000  H
  H37      1.0000 0.69020  0.63280  0.74660  Biso   1.000  H
  H38      1.0000 0.46180  0.39910  0.94070  Biso   1.000  H
  H39      1.0000 0.45350  0.31110  0.03900  Biso   1.000  H
  H40      1.0000 0.42560  0.29270  0.95490  Biso   1.000  H
  H41      1.0000 0.01990  0.13880  0.60060  Biso   1.000  H
  H42      1.0000 0.15660  0.18970  0.67580  Biso   1.000  H
  H43      1.0000 0.32110  0.11870  0.71760  Biso   1.000  H
  H44      1.0000 0.28170  0.77100  0.40710  Biso   1.000  H
  H45      1.0000 0.38130  0.66280  0.39040  Biso   1.000  H
  H46      1.0000 0.52270  0.63360  0.60420  Biso   1.000  H
  H47      1.0000 0.43680  0.74660  0.62060  Biso   1.000  H
  H48      1.0000 0.40250  0.94070  0.66020  Biso   1.000  H
  H49      1.0000 0.49250  0.03900  0.64990  Biso   1.000  H
  H50      1.0000 0.38050  0.95490  0.75240  Biso   1.000  H
  H51      1.0000 0.62050  0.60060  0.26060  Biso   1.000  H
  H52      1.0000 0.83240  0.67580  0.13450  Biso   1.000  H
  H53      1.0000 0.03870  0.71760  0.16370  Biso   1.000  H
  H54      1.0000 0.68880  0.40710  0.82190  Biso   1.000  H
  H55      1.0000 0.77170  0.39040  0.94680  Biso   1.000  H
  H56      1.0000 0.12690  0.60420  0.76220  Biso   1.000  H
  H57      1.0000 0.05740  0.62060  0.63280  Biso   1.000  H
  H58      1.0000 0.06270  0.66020  0.39910  Biso   1.000  H
  H59      1.0000 0.14240  0.64990  0.31110  Biso   1.000  H
  H60      1.0000 0.13290  0.75240  0.29270  Biso   1.000  H
  C1       1.0000 0.02260  0.72600  0.88800  Biso   1.000  C
  C2       1.0000 0.97230  0.80200  0.85840  Biso   1.000  C
  C3       1.0000 0.83200  0.78440  0.89960  Biso   1.000  C
  C4       1.0000 0.74100  0.68920  0.96880  Biso   1.000  C
  C5       1.0000 0.79700  0.61520  0.99530  Biso   1.000  C
  C6       1.0000 0.71420  0.50770  0.06690  Biso   1.000  C
  C7       1.0000 0.56280  0.36900  0.16430  Biso   1.000  C
  C8       1.0000 0.42710  0.28810  0.23130  Biso   1.000  C
  C9       1.0000 0.41380  0.19220  0.25630  Biso   1.000  C
  C10      1.0000 0.28830  0.11730  0.32210  Biso   1.000  C
  C11      1.0000 0.18790  0.22540  0.33840  Biso   1.000  C
  C12      1.0000 0.30780  0.30320  0.27190  Biso   1.000  C
  C13      1.0000 0.58600  0.66990  0.01250  Biso   1.000  C
  C14      1.0000 0.91060  0.88800  0.38600  Biso   1.000  C
  C15      1.0000 0.83070  0.85840  0.33960  Biso   1.000  C
  C16      1.0000 0.73160  0.89960  0.31600  Biso   1.000  C
  C17      1.0000 0.70980  0.96880  0.34200  Biso   1.000  C
  C18      1.0000 0.79230  0.99530  0.38950  Biso   1.000  C
  C19      1.0000 0.78110  0.06690  0.42540  Biso   1.000  C
  C20      1.0000 0.72710  0.16430  0.46670  Biso   1.000  C
  C21      1.0000 0.65840  0.23130  0.48060  Biso   1.000  C
  C22      1.0000 0.67010  0.25630  0.55150  Biso   1.000  C
  C23      1.0000 0.61040  0.32210  0.56060  Biso   1.000  C
  C24      1.0000 0.52630  0.33840  0.43620  Biso   1.000  C
  C25      1.0000 0.57970  0.27190  0.42490  Biso   1.000  C
  C26      1.0000 0.59850  0.01250  0.31760  Biso   1.000  C
  C27      1.0000 0.29660  0.38600  0.72600  Biso   1.000  C
  C28      1.0000 0.17030  0.33960  0.80200  Biso   1.000  C
  C29      1.0000 0.04760  0.31600  0.78440  Biso   1.000  C
  C30      1.0000 0.05180  0.34200  0.68920  Biso   1.000  C
  C31      1.0000 0.18180  0.38950  0.61520  Biso   1.000  C
  C32      1.0000 0.20650  0.42540  0.50770  Biso   1.000  C
  C33      1.0000 0.19380  0.46670  0.36900  Biso   1.000  C
  C34      1.0000 0.13900  0.48060  0.28810  Biso   1.000  C
  C35      1.0000 0.22160  0.55150  0.19220  Biso   1.000  C
  C36      1.0000 0.17100  0.56060  0.11730  Biso   1.000  C
  C37      1.0000 0.96250  0.43620  0.22540  Biso   1.000  C
  C38      1.0000 0.00460  0.42490  0.30320  Biso   1.000  C
  C39      1.0000 0.91610  0.31760  0.66990  Biso   1.000  C
  C40      1.0000 0.97740  0.27400  0.11200  Biso   1.000  C
  C41      1.0000 0.02770  0.19800  0.14160  Biso   1.000  C
  C42      1.0000 0.16800  0.21560  0.10040  Biso   1.000  C
  C43      1.0000 0.25900  0.31080  0.03120  Biso   1.000  C
  C44      1.0000 0.20300  0.38480  0.00470  Biso   1.000  C
  C45      1.0000 0.28580  0.49230  0.93310  Biso   1.000  C
  C46      1.0000 0.43720  0.63100  0.83570  Biso   1.000  C
  C47      1.0000 0.57290  0.71190  0.76870  Biso   1.000  C
  C48      1.0000 0.58620  0.80780  0.74370  Biso   1.000  C
  C49      1.0000 0.71170  0.88270  0.67790  Biso   1.000  C
  C50      1.0000 0.81210  0.77460  0.66160  Biso   1.000  C
  C51      1.0000 0.69220  0.69680  0.72810  Biso   1.000  C
  C52      1.0000 0.41400  0.33010  0.98750  Biso   1.000  C
  C53      1.0000 0.08940  0.11200  0.61400  Biso   1.000  C
  C54      1.0000 0.16930  0.14160  0.66040  Biso   1.000  C
  C55      1.0000 0.26840  0.10040  0.68400  Biso   1.000  C
  C56      1.0000 0.29020  0.03120  0.65800  Biso   1.000  C
  C57      1.0000 0.20770  0.00470  0.61050  Biso   1.000  C
  C58      1.0000 0.21890  0.93310  0.57460  Biso   1.000  C
  C59      1.0000 0.27290  0.83570  0.53330  Biso   1.000  C
  C60      1.0000 0.34160  0.76870  0.51940  Biso   1.000  C
  C61      1.0000 0.32990  0.74370  0.44850  Biso   1.000  C
  C62      1.0000 0.38960  0.67790  0.43940  Biso   1.000  C
  C63      1.0000 0.47370  0.66160  0.56380  Biso   1.000  C
  C64      1.0000 0.42030  0.72810  0.57510  Biso   1.000  C
  C65      1.0000 0.40150  0.98750  0.68240  Biso   1.000  C
  C66      1.0000 0.70340  0.61400  0.27400  Biso   1.000  C
  C67      1.0000 0.82970  0.66040  0.19800  Biso   1.000  C
  C68      1.0000 0.95240  0.68400  0.21560  Biso   1.000  C
  C69      1.0000 0.94820  0.65800  0.31080  Biso   1.000  C
  C70      1.0000 0.81820  0.61050  0.38480  Biso   1.000  C
  C71      1.0000 0.79350  0.57460  0.49230  Biso   1.000  C
  C72      1.0000 0.80620  0.53330  0.63100  Biso   1.000  C
  C73      1.0000 0.86100  0.51940  0.71190  Biso   1.000  C
  C74      1.0000 0.77840  0.44850  0.80780  Biso   1.000  C
  C75      1.0000 0.82900  0.43940  0.88270  Biso   1.000  C
  C76      1.0000 0.03750  0.56380  0.77460  Biso   1.000  C
  C77      1.0000 0.99540  0.57510  0.69680  Biso   1.000  C
  C78      1.0000 0.08390  0.68240  0.33010  Biso   1.000  C
  N1       1.0000 0.93714  0.63132  0.95550  Biso   1.000  N
  N2       1.0000 0.78222  0.44132  0.08026  Biso   1.000  N
  N3       1.0000 0.68258  0.34988  0.14284  Biso   1.000  N
  N4       1.0000 0.57497  0.46529  0.11938  Biso   1.000  N
  N5       1.0000 0.17532  0.13082  0.36586  Biso   1.000  N
  N6       1.0000 0.89264  0.95550  0.41318  Biso   1.000  N
  N7       1.0000 0.86248  0.08026  0.47842  Biso   1.000  N
  N8       1.0000 0.82542  0.14284  0.50728  Biso   1.000  N
  N9       1.0000 0.69435  0.11938  0.41533  Biso   1.000  N
  N10      1.0000 0.54118  0.36586  0.50332  Biso   1.000  N
  N11      1.0000 0.30582  0.41318  0.63132  Biso   1.000  N
  N12      1.0000 0.34090  0.47842  0.44132  Biso   1.000  N
  N13      1.0000 0.33270  0.50728  0.34988  Biso   1.000  N
  N14      1.0000 0.10968  0.41533  0.46529  Biso   1.000  N
  N15      1.0000 0.04450  0.50332  0.13082  Biso   1.000  N
  N16      1.0000 0.06286  0.36868  0.04450  Biso   1.000  N
  N17      1.0000 0.21778  0.55868  0.91974  Biso   1.000  N
  N18      1.0000 0.31742  0.65012  0.85716  Biso   1.000  N
  N19      1.0000 0.42503  0.53471  0.88062  Biso   1.000  N
  N20      1.0000 0.82468  0.86918  0.63414  Biso   1.000  N
  N21      1.0000 0.10736  0.04450  0.58682  Biso   1.000  N
  N22      1.0000 0.13752  0.91974  0.52158  Biso   1.000  N
  N23      1.0000 0.17458  0.85716  0.49272  Biso   1.000  N
  N24      1.0000 0.30565  0.88062  0.58467  Biso   1.000  N
  N25      1.0000 0.45882  0.63414  0.49668  Biso   1.000  N
  N26      1.0000 0.69418  0.58682  0.36868  Biso   1.000  N
  N27      1.0000 0.65910  0.52158  0.55868  Biso   1.000  N
  N28      1.0000 0.66730  0.49272  0.65012  Biso   1.000  N
  N29      1.0000 0.89032  0.58467  0.53471  Biso   1.000  N
  N30      1.0000 0.95550  0.49668  0.86918  Biso   1.000  N
