data_image0
_cell_length_a       13.141
_cell_length_b       13.279
_cell_length_c       32.181
_cell_angle_alpha    90
_cell_angle_beta     90
_cell_angle_gamma    90

_symmetry_space_group_name_H-M    P 1
_symmetry_int_tables_number       1

loop_
  _symmetry_equiv_pos_as_xyz
  'x, y, z'

loop_
  _atom_site_label
  _atom_site_occupancy
  _atom_site_fract_x
  _atom_site_fract_y
  _atom_site_fract_z
  _atom_site_thermal_displace_type
  _atom_site_B_iso_or_equiv
  _atom_site_type_symbol
  Tb1      1.0000 0.96667  0.19267  0.46612  Biso   1.000  Tb
  Tb2      1.0000 0.04849  0.96189  0.73455  Biso   1.000  Tb
  Tb3      1.0000 0.03333  0.30733  0.96612  Biso   1.000  Tb
  Tb4      1.0000 0.95151  0.53811  0.23455  Biso   1.000  Tb
  Tb5      1.0000 0.46667  0.80733  0.03388  Biso   1.000  Tb
  Tb6      1.0000 0.54849  0.03811  0.76545  Biso   1.000  Tb
  Tb7      1.0000 0.53333  0.69267  0.53388  Biso   1.000  Tb
  Tb8      1.0000 0.45151  0.46189  0.26545  Biso   1.000  Tb
  Tb9      1.0000 0.03333  0.80733  0.53388  Biso   1.000  Tb
  Tb10     1.0000 0.95151  0.03811  0.26545  Biso   1.000  Tb
  Tb11     1.0000 0.96667  0.69267  0.03388  Biso   1.000  Tb
  Tb12     1.0000 0.04849  0.46189  0.76545  Biso   1.000  Tb
  Tb13     1.0000 0.53333  0.19267  0.96612  Biso   1.000  Tb
  Tb14     1.0000 0.45151  0.96189  0.23455  Biso   1.000  Tb
  Tb15     1.0000 0.46667  0.30733  0.46612  Biso   1.000  Tb
  Tb16     1.0000 0.54849  0.53811  0.73455  Biso   1.000  Tb
  H1       1.0000 0.26790  0.33360  0.78370  Biso   1.000  H
  H2       1.0000 0.17270  0.56520  0.51440  Biso   1.000  H
  H3       1.0000 0.92410  0.20490  0.60910  Biso   1.000  H
  H4       1.0000 0.33770  0.55640  0.48600  Biso   1.000  H
  H5       1.0000 0.43430  0.28340  0.79920  Biso   1.000  H
  H6       1.0000 0.94270  0.18810  0.68240  Biso   1.000  H
  H7       1.0000 0.02860  0.98210  0.82140  Biso   1.000  H
  H8       1.0000 0.12240  0.93710  0.81440  Biso   1.000  H
  H9       1.0000 0.01320  0.35110  0.39590  Biso   1.000  H
  H10      1.0000 0.02370  0.38720  0.43560  Biso   1.000  H
  H11      1.0000 0.73210  0.16640  0.28370  Biso   1.000  H
  H12      1.0000 0.82730  0.93480  0.01440  Biso   1.000  H
  H13      1.0000 0.07590  0.29510  0.10910  Biso   1.000  H
  H14      1.0000 0.66230  0.94360  0.98600  Biso   1.000  H
  H15      1.0000 0.56570  0.21660  0.29920  Biso   1.000  H
  H16      1.0000 0.05730  0.31190  0.18240  Biso   1.000  H
  H17      1.0000 0.97140  0.51790  0.32140  Biso   1.000  H
  H18      1.0000 0.87760  0.56290  0.31440  Biso   1.000  H
  H19      1.0000 0.98680  0.14890  0.89590  Biso   1.000  H
  H20      1.0000 0.97630  0.11280  0.93560  Biso   1.000  H
  H21      1.0000 0.76790  0.66640  0.71630  Biso   1.000  H
  H22      1.0000 0.67270  0.43480  0.98560  Biso   1.000  H
  H23      1.0000 0.42410  0.79510  0.89090  Biso   1.000  H
  H24      1.0000 0.83770  0.44360  0.01400  Biso   1.000  H
  H25      1.0000 0.93430  0.71660  0.70080  Biso   1.000  H
  H26      1.0000 0.44270  0.81190  0.81760  Biso   1.000  H
  H27      1.0000 0.52860  0.01790  0.67860  Biso   1.000  H
  H28      1.0000 0.62240  0.06290  0.68560  Biso   1.000  H
  H29      1.0000 0.51320  0.64890  0.10410  Biso   1.000  H
  H30      1.0000 0.52370  0.61280  0.06440  Biso   1.000  H
  H31      1.0000 0.23210  0.83360  0.21630  Biso   1.000  H
  H32      1.0000 0.32730  0.06520  0.48560  Biso   1.000  H
  H33      1.0000 0.57590  0.70490  0.39090  Biso   1.000  H
  H34      1.0000 0.16230  0.05640  0.51400  Biso   1.000  H
  H35      1.0000 0.06570  0.78340  0.20080  Biso   1.000  H
  H36      1.0000 0.55730  0.68810  0.31760  Biso   1.000  H
  H37      1.0000 0.47140  0.48210  0.17860  Biso   1.000  H
  H38      1.0000 0.37760  0.43710  0.18560  Biso   1.000  H
  H39      1.0000 0.48680  0.85110  0.60410  Biso   1.000  H
  H40      1.0000 0.47630  0.88720  0.56440  Biso   1.000  H
  H41      1.0000 0.73210  0.66640  0.21630  Biso   1.000  H
  H42      1.0000 0.82730  0.43480  0.48560  Biso   1.000  H
  H43      1.0000 0.07590  0.79510  0.39090  Biso   1.000  H
  H44      1.0000 0.66230  0.44360  0.51400  Biso   1.000  H
  H45      1.0000 0.56570  0.71660  0.20080  Biso   1.000  H
  H46      1.0000 0.05730  0.81190  0.31760  Biso   1.000  H
  H47      1.0000 0.97140  0.01790  0.17860  Biso   1.000  H
  H48      1.0000 0.87760  0.06290  0.18560  Biso   1.000  H
  H49      1.0000 0.98680  0.64890  0.60410  Biso   1.000  H
  H50      1.0000 0.97630  0.61280  0.56440  Biso   1.000  H
  H51      1.0000 0.26790  0.83360  0.71630  Biso   1.000  H
  H52      1.0000 0.17270  0.06520  0.98560  Biso   1.000  H
  H53      1.0000 0.92410  0.70490  0.89090  Biso   1.000  H
  H54      1.0000 0.33770  0.05640  0.01400  Biso   1.000  H
  H55      1.0000 0.43430  0.78340  0.70080  Biso   1.000  H
  H56      1.0000 0.94270  0.68810  0.81760  Biso   1.000  H
  H57      1.0000 0.02860  0.48210  0.67860  Biso   1.000  H
  H58      1.0000 0.12240  0.43710  0.68560  Biso   1.000  H
  H59      1.0000 0.01320  0.85110  0.10410  Biso   1.000  H
  H60      1.0000 0.02370  0.88720  0.06440  Biso   1.000  H
  H61      1.0000 0.23210  0.33360  0.28370  Biso   1.000  H
  H62      1.0000 0.32730  0.56520  0.01440  Biso   1.000  H
  H63      1.0000 0.57590  0.20490  0.10910  Biso   1.000  H
  H64      1.0000 0.16230  0.55640  0.98600  Biso   1.000  H
  H65      1.0000 0.06570  0.28340  0.29920  Biso   1.000  H
  H66      1.0000 0.55730  0.18810  0.18240  Biso   1.000  H
  H67      1.0000 0.47140  0.98210  0.32140  Biso   1.000  H
  H68      1.0000 0.37760  0.93710  0.31440  Biso   1.000  H
  H69      1.0000 0.48680  0.35110  0.89590  Biso   1.000  H
  H70      1.0000 0.47630  0.38720  0.93560  Biso   1.000  H
  H71      1.0000 0.76790  0.16640  0.78370  Biso   1.000  H
  H72      1.0000 0.67270  0.93480  0.51440  Biso   1.000  H
  H73      1.0000 0.42410  0.29510  0.60910  Biso   1.000  H
  H74      1.0000 0.83770  0.94360  0.48600  Biso   1.000  H
  H75      1.0000 0.93430  0.21660  0.79920  Biso   1.000  H
  H76      1.0000 0.44270  0.31190  0.68240  Biso   1.000  H
  H77      1.0000 0.52860  0.51790  0.82140  Biso   1.000  H
  H78      1.0000 0.62240  0.56290  0.81440  Biso   1.000  H
  H79      1.0000 0.51320  0.14890  0.39590  Biso   1.000  H
  H80      1.0000 0.52370  0.11280  0.43560  Biso   1.000  H
  C1       1.0000 0.22410  0.25160  0.47200  Biso   1.000  C
  C2       1.0000 0.30490  0.01770  0.74020  Biso   1.000  C
  C3       1.0000 0.23780  0.19720  0.76120  Biso   1.000  C
  C4       1.0000 0.30670  0.11970  0.75890  Biso   1.000  C
  C5       1.0000 0.05250  0.90000  0.63500  Biso   1.000  C
  C6       1.0000 0.13140  0.21150  0.74800  Biso   1.000  C
  C7       1.0000 0.04940  0.40490  0.52110  Biso   1.000  C
  C8       1.0000 0.97760  0.06580  0.60240  Biso   1.000  C
  C9       1.0000 0.15310  0.41950  0.50160  Biso   1.000  C
  C10      1.0000 0.97520  0.05760  0.55620  Biso   1.000  C
  C11      1.0000 0.22020  0.35870  0.48300  Biso   1.000  C
  C12      1.0000 0.29130  0.50360  0.48780  Biso   1.000  C
  C13      1.0000 0.38460  0.24340  0.78700  Biso   1.000  C
  C14      1.0000 0.00590  0.00260  0.63360  Biso   1.000  C
  C15      1.0000 0.95780  0.13940  0.66260  Biso   1.000  C
  C16      1.0000 0.77590  0.24840  0.97200  Biso   1.000  C
  C17      1.0000 0.69510  0.48230  0.24020  Biso   1.000  C
  C18      1.0000 0.76220  0.30280  0.26120  Biso   1.000  C
  C19      1.0000 0.69330  0.38030  0.25890  Biso   1.000  C
  C20      1.0000 0.94750  0.60000  0.13500  Biso   1.000  C
  C21      1.0000 0.86860  0.28850  0.24800  Biso   1.000  C
  C22      1.0000 0.95060  0.09510  0.02110  Biso   1.000  C
  C23      1.0000 0.02240  0.43420  0.10240  Biso   1.000  C
  C24      1.0000 0.84690  0.08050  0.00160  Biso   1.000  C
  C25      1.0000 0.02480  0.44240  0.05620  Biso   1.000  C
  C26      1.0000 0.77980  0.14130  0.98300  Biso   1.000  C
  C27      1.0000 0.70870  0.99640  0.98780  Biso   1.000  C
  C28      1.0000 0.61540  0.25660  0.28700  Biso   1.000  C
  C29      1.0000 0.99410  0.49740  0.13360  Biso   1.000  C
  C30      1.0000 0.04220  0.36060  0.16260  Biso   1.000  C
  C31      1.0000 0.72410  0.74840  0.02800  Biso   1.000  C
  C32      1.0000 0.80490  0.98230  0.75980  Biso   1.000  C
  C33      1.0000 0.73780  0.80280  0.73880  Biso   1.000  C
  C34      1.0000 0.80670  0.88030  0.74110  Biso   1.000  C
  C35      1.0000 0.55250  0.10000  0.86500  Biso   1.000  C
  C36      1.0000 0.63140  0.78850  0.75200  Biso   1.000  C
  C37      1.0000 0.54940  0.59510  0.97890  Biso   1.000  C
  C38      1.0000 0.47760  0.93420  0.89760  Biso   1.000  C
  C39      1.0000 0.65310  0.58050  0.99840  Biso   1.000  C
  C40      1.0000 0.47520  0.94240  0.94380  Biso   1.000  C
  C41      1.0000 0.72020  0.64130  0.01700  Biso   1.000  C
  C42      1.0000 0.79130  0.49640  0.01220  Biso   1.000  C
  C43      1.0000 0.88460  0.75660  0.71300  Biso   1.000  C
  C44      1.0000 0.50590  0.99740  0.86640  Biso   1.000  C
  C45      1.0000 0.45780  0.86060  0.83740  Biso   1.000  C
  C46      1.0000 0.27590  0.75160  0.52800  Biso   1.000  C
  C47      1.0000 0.19510  0.51770  0.25980  Biso   1.000  C
  C48      1.0000 0.26220  0.69720  0.23880  Biso   1.000  C
  C49      1.0000 0.19330  0.61970  0.24110  Biso   1.000  C
  C50      1.0000 0.44750  0.40000  0.36500  Biso   1.000  C
  C51      1.0000 0.36860  0.71150  0.25200  Biso   1.000  C
  C52      1.0000 0.45060  0.90490  0.47890  Biso   1.000  C
  C53      1.0000 0.52240  0.56580  0.39760  Biso   1.000  C
  C54      1.0000 0.34690  0.91950  0.49840  Biso   1.000  C
  C55      1.0000 0.52480  0.55760  0.44380  Biso   1.000  C
  C56      1.0000 0.27980  0.85870  0.51700  Biso   1.000  C
  C57      1.0000 0.20870  0.00360  0.51220  Biso   1.000  C
  C58      1.0000 0.11540  0.74340  0.21300  Biso   1.000  C
  C59      1.0000 0.49410  0.50260  0.36640  Biso   1.000  C
  C60      1.0000 0.54220  0.63940  0.33740  Biso   1.000  C
  C61      1.0000 0.77590  0.74840  0.52800  Biso   1.000  C
  C62      1.0000 0.69510  0.98230  0.25980  Biso   1.000  C
  C63      1.0000 0.76220  0.80280  0.23880  Biso   1.000  C
  C64      1.0000 0.69330  0.88030  0.24110  Biso   1.000  C
  C65      1.0000 0.94750  0.10000  0.36500  Biso   1.000  C
  C66      1.0000 0.86860  0.78850  0.25200  Biso   1.000  C
  C67      1.0000 0.95060  0.59510  0.47890  Biso   1.000  C
  C68      1.0000 0.02240  0.93420  0.39760  Biso   1.000  C
  C69      1.0000 0.84690  0.58050  0.49840  Biso   1.000  C
  C70      1.0000 0.02480  0.94240  0.44380  Biso   1.000  C
  C71      1.0000 0.77980  0.64130  0.51700  Biso   1.000  C
  C72      1.0000 0.70870  0.49640  0.51220  Biso   1.000  C
  C73      1.0000 0.61540  0.75660  0.21300  Biso   1.000  C
  C74      1.0000 0.99410  0.99740  0.36640  Biso   1.000  C
  C75      1.0000 0.04220  0.86060  0.33740  Biso   1.000  C
  C76      1.0000 0.22410  0.75160  0.02800  Biso   1.000  C
  C77      1.0000 0.30490  0.51770  0.75980  Biso   1.000  C
  C78      1.0000 0.23780  0.69720  0.73880  Biso   1.000  C
  C79      1.0000 0.30670  0.61970  0.74110  Biso   1.000  C
  C80      1.0000 0.05250  0.40000  0.86500  Biso   1.000  C
  C81      1.0000 0.13140  0.71150  0.75200  Biso   1.000  C
  C82      1.0000 0.04940  0.90490  0.97890  Biso   1.000  C
  C83      1.0000 0.97760  0.56580  0.89760  Biso   1.000  C
  C84      1.0000 0.15310  0.91950  0.99840  Biso   1.000  C
  C85      1.0000 0.97520  0.55760  0.94380  Biso   1.000  C
  C86      1.0000 0.22020  0.85870  0.01700  Biso   1.000  C
  C87      1.0000 0.29130  0.00360  0.01220  Biso   1.000  C
  C88      1.0000 0.38460  0.74340  0.71300  Biso   1.000  C
  C89      1.0000 0.00590  0.50260  0.86640  Biso   1.000  C
  C90      1.0000 0.95780  0.63940  0.83740  Biso   1.000  C
  C91      1.0000 0.27590  0.25160  0.97200  Biso   1.000  C
  C92      1.0000 0.19510  0.01770  0.24020  Biso   1.000  C
  C93      1.0000 0.26220  0.19720  0.26120  Biso   1.000  C
  C94      1.0000 0.19330  0.11970  0.25890  Biso   1.000  C
  C95      1.0000 0.44750  0.90000  0.13500  Biso   1.000  C
  C96      1.0000 0.36860  0.21150  0.24800  Biso   1.000  C
  C97      1.0000 0.45060  0.40490  0.02110  Biso   1.000  C
  C98      1.0000 0.52240  0.06580  0.10240  Biso   1.000  C
  C99      1.0000 0.34690  0.41950  0.00160  Biso   1.000  C
  C100     1.0000 0.52480  0.05760  0.05620  Biso   1.000  C
  C101     1.0000 0.27980  0.35870  0.98300  Biso   1.000  C
  C102     1.0000 0.20870  0.50360  0.98780  Biso   1.000  C
  C103     1.0000 0.11540  0.24340  0.28700  Biso   1.000  C
  C104     1.0000 0.49410  0.00260  0.13360  Biso   1.000  C
  C105     1.0000 0.54220  0.13940  0.16260  Biso   1.000  C
  C106     1.0000 0.72410  0.24840  0.47200  Biso   1.000  C
  C107     1.0000 0.80490  0.48230  0.74020  Biso   1.000  C
  C108     1.0000 0.73780  0.30280  0.76120  Biso   1.000  C
  C109     1.0000 0.80670  0.38030  0.75890  Biso   1.000  C
  C110     1.0000 0.55250  0.60000  0.63500  Biso   1.000  C
  C111     1.0000 0.63140  0.28850  0.74800  Biso   1.000  C
  C112     1.0000 0.54940  0.09510  0.52110  Biso   1.000  C
  C113     1.0000 0.47760  0.43420  0.60240  Biso   1.000  C
  C114     1.0000 0.65310  0.08050  0.50160  Biso   1.000  C
  C115     1.0000 0.47520  0.44240  0.55620  Biso   1.000  C
  C116     1.0000 0.72020  0.14130  0.48300  Biso   1.000  C
  C117     1.0000 0.79130  0.99640  0.48780  Biso   1.000  C
  C118     1.0000 0.88460  0.25660  0.78700  Biso   1.000  C
  C119     1.0000 0.50590  0.49740  0.63360  Biso   1.000  C
  C120     1.0000 0.45780  0.36060  0.66260  Biso   1.000  C
  N1       1.0000 0.99280  0.04940  0.67110  Biso   1.000  N
  N2       1.0000 0.29130  0.27430  0.77870  Biso   1.000  N
  N3       1.0000 0.30900  0.41120  0.47440  Biso   1.000  N
  N4       1.0000 0.39870  0.14860  0.77570  Biso   1.000  N
  N5       1.0000 0.19900  0.51140  0.50410  Biso   1.000  N
  N6       1.0000 0.94670  0.15180  0.62130  Biso   1.000  N
  N7       1.0000 0.00720  0.45060  0.17110  Biso   1.000  N
  N8       1.0000 0.70870  0.22570  0.27870  Biso   1.000  N
  N9       1.0000 0.69100  0.08880  0.97440  Biso   1.000  N
  N10      1.0000 0.60130  0.35140  0.27570  Biso   1.000  N
  N11      1.0000 0.80100  0.98860  0.00410  Biso   1.000  N
  N12      1.0000 0.05330  0.34820  0.12130  Biso   1.000  N
  N13      1.0000 0.49280  0.95060  0.82890  Biso   1.000  N
  N14      1.0000 0.79130  0.72570  0.72130  Biso   1.000  N
  N15      1.0000 0.80900  0.58880  0.02560  Biso   1.000  N
  N16      1.0000 0.89870  0.85140  0.72430  Biso   1.000  N
  N17      1.0000 0.69900  0.48860  0.99590  Biso   1.000  N
  N18      1.0000 0.44670  0.84820  0.87870  Biso   1.000  N
  N19      1.0000 0.50720  0.54940  0.32890  Biso   1.000  N
  N20      1.0000 0.20870  0.77430  0.22130  Biso   1.000  N
  N21      1.0000 0.19100  0.91120  0.52560  Biso   1.000  N
  N22      1.0000 0.10130  0.64860  0.22430  Biso   1.000  N
  N23      1.0000 0.30100  0.01140  0.49590  Biso   1.000  N
  N24      1.0000 0.55330  0.65180  0.37870  Biso   1.000  N
  N25      1.0000 0.00720  0.95060  0.32890  Biso   1.000  N
  N26      1.0000 0.70870  0.72570  0.22130  Biso   1.000  N
  N27      1.0000 0.69100  0.58880  0.52560  Biso   1.000  N
  N28      1.0000 0.60130  0.85140  0.22430  Biso   1.000  N
  N29      1.0000 0.80100  0.48860  0.49590  Biso   1.000  N
  N30      1.0000 0.05330  0.84820  0.37870  Biso   1.000  N
  N31      1.0000 0.99280  0.54940  0.82890  Biso   1.000  N
  N32      1.0000 0.29130  0.77430  0.72130  Biso   1.000  N
  N33      1.0000 0.30900  0.91120  0.02560  Biso   1.000  N
  N34      1.0000 0.39870  0.64860  0.72430  Biso   1.000  N
  N35      1.0000 0.19900  0.01140  0.99590  Biso   1.000  N
  N36      1.0000 0.94670  0.65180  0.87870  Biso   1.000  N
  N37      1.0000 0.50720  0.04940  0.17110  Biso   1.000  N
  N38      1.0000 0.20870  0.27430  0.27870  Biso   1.000  N
  N39      1.0000 0.19100  0.41120  0.97440  Biso   1.000  N
  N40      1.0000 0.10130  0.14860  0.27570  Biso   1.000  N
  N41      1.0000 0.30100  0.51140  0.00410  Biso   1.000  N
  N42      1.0000 0.55330  0.15180  0.12130  Biso   1.000  N
  N43      1.0000 0.49280  0.45060  0.67110  Biso   1.000  N
  N44      1.0000 0.79130  0.22570  0.77870  Biso   1.000  N
  N45      1.0000 0.80900  0.08880  0.47440  Biso   1.000  N
  N46      1.0000 0.89870  0.35140  0.77570  Biso   1.000  N
  N47      1.0000 0.69900  0.98860  0.50410  Biso   1.000  N
  N48      1.0000 0.44670  0.34820  0.62130  Biso   1.000  N
  O1       1.0000 0.97610  0.97060  0.54140  Biso   1.000  O
  O2       1.0000 0.99710  0.33180  0.51020  Biso   1.000  O
  O3       1.0000 0.97420  0.13820  0.53640  Biso   1.000  O
  O4       1.0000 0.10130  0.30150  0.74440  Biso   1.000  O
  O5       1.0000 0.22410  0.97770  0.72580  Biso   1.000  O
  O6       1.0000 0.06400  0.84950  0.60300  Biso   1.000  O
  O7       1.0000 0.08170  0.87190  0.67020  Biso   1.000  O
  O8       1.0000 0.14550  0.19910  0.46920  Biso   1.000  O
  O9       1.0000 0.31220  0.21490  0.46530  Biso   1.000  O
  O10      1.0000 0.39040  0.97430  0.73870  Biso   1.000  O
  O11      1.0000 0.07440  0.13670  0.74230  Biso   1.000  O
  O12      1.0000 0.02570  0.46640  0.54810  Biso   1.000  O
  O13      1.0000 0.08060  0.98090  0.80570  Biso   1.000  O
  O14      1.0000 0.00220  0.33770  0.42140  Biso   1.000  O
  O15      1.0000 0.02390  0.52940  0.04140  Biso   1.000  O
  O16      1.0000 0.00290  0.16820  0.01020  Biso   1.000  O
  O17      1.0000 0.02580  0.36180  0.03640  Biso   1.000  O
  O18      1.0000 0.89870  0.19850  0.24440  Biso   1.000  O
  O19      1.0000 0.77590  0.52230  0.22580  Biso   1.000  O
  O20      1.0000 0.93600  0.65050  0.10300  Biso   1.000  O
  O21      1.0000 0.91830  0.62810  0.17020  Biso   1.000  O
  O22      1.0000 0.85450  0.30090  0.96920  Biso   1.000  O
  O23      1.0000 0.68780  0.28510  0.96530  Biso   1.000  O
  O24      1.0000 0.60960  0.52570  0.23870  Biso   1.000  O
  O25      1.0000 0.92560  0.36330  0.24230  Biso   1.000  O
  O26      1.0000 0.97430  0.03360  0.04810  Biso   1.000  O
  O27      1.0000 0.91940  0.51910  0.30570  Biso   1.000  O
  O28      1.0000 0.99780  0.16230  0.92140  Biso   1.000  O
  O29      1.0000 0.47610  0.02940  0.95860  Biso   1.000  O
  O30      1.0000 0.49710  0.66820  0.98980  Biso   1.000  O
  O31      1.0000 0.47420  0.86180  0.96360  Biso   1.000  O
  O32      1.0000 0.60130  0.69850  0.75560  Biso   1.000  O
  O33      1.0000 0.72410  0.02230  0.77420  Biso   1.000  O
  O34      1.0000 0.56400  0.15050  0.89700  Biso   1.000  O
  O35      1.0000 0.58170  0.12810  0.82980  Biso   1.000  O
  O36      1.0000 0.64550  0.80090  0.03080  Biso   1.000  O
  O37      1.0000 0.81220  0.78510  0.03470  Biso   1.000  O
  O38      1.0000 0.89040  0.02570  0.76130  Biso   1.000  O
  O39      1.0000 0.57440  0.86330  0.75770  Biso   1.000  O
  O40      1.0000 0.52570  0.53360  0.95190  Biso   1.000  O
  O41      1.0000 0.58060  0.01910  0.69430  Biso   1.000  O
  O42      1.0000 0.50220  0.66230  0.07860  Biso   1.000  O
  O43      1.0000 0.52390  0.47060  0.45860  Biso   1.000  O
  O44      1.0000 0.50290  0.83180  0.48980  Biso   1.000  O
  O45      1.0000 0.52580  0.63820  0.46360  Biso   1.000  O
  O46      1.0000 0.39870  0.80150  0.25560  Biso   1.000  O
  O47      1.0000 0.27590  0.47770  0.27420  Biso   1.000  O
  O48      1.0000 0.43600  0.34950  0.39700  Biso   1.000  O
  O49      1.0000 0.41830  0.37190  0.32980  Biso   1.000  O
  O50      1.0000 0.35450  0.69910  0.53080  Biso   1.000  O
  O51      1.0000 0.18780  0.71490  0.53470  Biso   1.000  O
  O52      1.0000 0.10960  0.47430  0.26130  Biso   1.000  O
  O53      1.0000 0.42560  0.63670  0.25770  Biso   1.000  O
  O54      1.0000 0.47430  0.96640  0.45190  Biso   1.000  O
  O55      1.0000 0.41940  0.48090  0.19430  Biso   1.000  O
  O56      1.0000 0.49780  0.83770  0.57860  Biso   1.000  O
  O57      1.0000 0.02390  0.02940  0.45860  Biso   1.000  O
  O58      1.0000 0.00290  0.66820  0.48980  Biso   1.000  O
  O59      1.0000 0.02580  0.86180  0.46360  Biso   1.000  O
  O60      1.0000 0.89870  0.69850  0.25560  Biso   1.000  O
  O61      1.0000 0.77590  0.02230  0.27420  Biso   1.000  O
  O62      1.0000 0.93600  0.15050  0.39700  Biso   1.000  O
  O63      1.0000 0.91830  0.12810  0.32980  Biso   1.000  O
  O64      1.0000 0.85450  0.80090  0.53080  Biso   1.000  O
  O65      1.0000 0.68780  0.78510  0.53470  Biso   1.000  O
  O66      1.0000 0.60960  0.02570  0.26130  Biso   1.000  O
  O67      1.0000 0.92560  0.86330  0.25770  Biso   1.000  O
  O68      1.0000 0.97430  0.53360  0.45190  Biso   1.000  O
  O69      1.0000 0.91940  0.01910  0.19430  Biso   1.000  O
  O70      1.0000 0.99780  0.66230  0.57860  Biso   1.000  O
  O71      1.0000 0.97610  0.47060  0.95860  Biso   1.000  O
  O72      1.0000 0.99710  0.83180  0.98980  Biso   1.000  O
  O73      1.0000 0.97420  0.63820  0.96360  Biso   1.000  O
  O74      1.0000 0.10130  0.80150  0.75560  Biso   1.000  O
  O75      1.0000 0.22410  0.47770  0.77420  Biso   1.000  O
  O76      1.0000 0.06400  0.34950  0.89700  Biso   1.000  O
  O77      1.0000 0.08170  0.37190  0.82980  Biso   1.000  O
  O78      1.0000 0.14550  0.69910  0.03080  Biso   1.000  O
  O79      1.0000 0.31220  0.71490  0.03470  Biso   1.000  O
  O80      1.0000 0.39040  0.47430  0.76130  Biso   1.000  O
  O81      1.0000 0.07440  0.63670  0.75770  Biso   1.000  O
  O82      1.0000 0.02570  0.96640  0.95190  Biso   1.000  O
  O83      1.0000 0.08060  0.48090  0.69430  Biso   1.000  O
  O84      1.0000 0.00220  0.83770  0.07860  Biso   1.000  O
  O85      1.0000 0.52390  0.97060  0.04140  Biso   1.000  O
  O86      1.0000 0.50290  0.33180  0.01020  Biso   1.000  O
  O87      1.0000 0.52580  0.13820  0.03640  Biso   1.000  O
  O88      1.0000 0.39870  0.30150  0.24440  Biso   1.000  O
  O89      1.0000 0.27590  0.97770  0.22580  Biso   1.000  O
  O90      1.0000 0.43600  0.84950  0.10300  Biso   1.000  O
  O91      1.0000 0.41830  0.87190  0.17020  Biso   1.000  O
  O92      1.0000 0.35450  0.19910  0.96920  Biso   1.000  O
  O93      1.0000 0.18780  0.21490  0.96530  Biso   1.000  O
  O94      1.0000 0.10960  0.97430  0.23870  Biso   1.000  O
  O95      1.0000 0.42560  0.13670  0.24230  Biso   1.000  O
  O96      1.0000 0.47430  0.46640  0.04810  Biso   1.000  O
  O97      1.0000 0.41940  0.98090  0.30570  Biso   1.000  O
  O98      1.0000 0.49780  0.33770  0.92140  Biso   1.000  O
  O99      1.0000 0.47610  0.52940  0.54140  Biso   1.000  O
  O100     1.0000 0.49710  0.16820  0.51020  Biso   1.000  O
  O101     1.0000 0.47420  0.36180  0.53640  Biso   1.000  O
  O102     1.0000 0.60130  0.19850  0.74440  Biso   1.000  O
  O103     1.0000 0.72410  0.52230  0.72580  Biso   1.000  O
  O104     1.0000 0.56400  0.65050  0.60300  Biso   1.000  O
  O105     1.0000 0.58170  0.62810  0.67020  Biso   1.000  O
  O106     1.0000 0.64550  0.30090  0.46920  Biso   1.000  O
  O107     1.0000 0.81220  0.28510  0.46530  Biso   1.000  O
  O108     1.0000 0.89040  0.52570  0.73870  Biso   1.000  O
  O109     1.0000 0.57440  0.36330  0.74230  Biso   1.000  O
  O110     1.0000 0.52570  0.03360  0.54810  Biso   1.000  O
  O111     1.0000 0.58060  0.51910  0.80570  Biso   1.000  O
  O112     1.0000 0.50220  0.16230  0.42140  Biso   1.000  O
