data_image0
_cell_length_a       10.4
_cell_length_b       11.803
_cell_length_c       13.937
_cell_angle_alpha    71.845
_cell_angle_beta     71.975
_cell_angle_gamma    85.855

_symmetry_space_group_name_H-M    P 1
_symmetry_int_tables_number       1

loop_
  _symmetry_equiv_pos_as_xyz
  'x, y, z'

loop_
  _atom_site_label
  _atom_site_occupancy
  _atom_site_fract_x
  _atom_site_fract_y
  _atom_site_fract_z
  _atom_site_thermal_displace_type
  _atom_site_B_iso_or_equiv
  _atom_site_type_symbol
  Ni1      1.0000 0.42498  0.69808  0.25506  Biso   1.000  Ni
  Ni2      1.0000 0.57502  0.30192  0.74494  Biso   1.000  Ni
  Ni3      1.0000 0.00000  0.00000  0.50000  Biso   1.000  Ni
  H1       1.0000 0.51020  0.72830  0.02150  Biso   1.000  H
  H2       1.0000 0.27270  0.95200  0.14330  Biso   1.000  H
  H3       1.0000 0.32240  0.03060  0.94990  Biso   1.000  H
  H4       1.0000 0.51320  0.96760  0.79090  Biso   1.000  H
  H5       1.0000 0.57940  0.84410  0.82540  Biso   1.000  H
  H6       1.0000 0.30000  0.98650  0.77450  Biso   1.000  H
  H7       1.0000 0.22430  0.88720  0.87760  Biso   1.000  H
  H8       1.0000 0.23390  0.00790  0.60760  Biso   1.000  H
  H9       1.0000 0.04650  0.74810  0.86030  Biso   1.000  H
  H10      1.0000 0.92550  0.78580  0.72970  Biso   1.000  H
  H11      1.0000 0.27910  0.67860  0.84530  Biso   1.000  H
  H12      1.0000 0.33230  0.69440  0.93380  Biso   1.000  H
  H13      1.0000 0.61580  0.63310  0.89740  Biso   1.000  H
  H14      1.0000 0.71120  0.45580  0.85110  Biso   1.000  H
  H15      1.0000 0.37160  0.51180  0.78090  Biso   1.000  H
  H16      1.0000 0.44720  0.91910  0.63300  Biso   1.000  H
  H17      1.0000 0.42510  0.78230  0.65710  Biso   1.000  H
  H18      1.0000 0.68140  0.99330  0.61190  Biso   1.000  H
  H19      1.0000 0.65020  0.65560  0.62890  Biso   1.000  H
  H20      1.0000 0.88840  0.72040  0.54920  Biso   1.000  H
  H21      1.0000 0.98100  0.56490  0.40540  Biso   1.000  H
  H22      1.0000 0.53960  0.65200  0.48900  Biso   1.000  H
  H23      1.0000 0.73550  0.75560  0.37200  Biso   1.000  H
  H24      1.0000 0.73780  0.62590  0.36470  Biso   1.000  H
  H25      1.0000 0.81200  0.14200  0.59200  Biso   1.000  H
  H26      1.0000 0.93100  0.13900  0.62300  Biso   1.000  H
  H27      1.0000 0.40700  0.56900  0.42700  Biso   1.000  H
  H28      1.0000 0.48980  0.27170  0.97850  Biso   1.000  H
  H29      1.0000 0.72730  0.04800  0.85670  Biso   1.000  H
  H30      1.0000 0.67760  0.96940  0.05010  Biso   1.000  H
  H31      1.0000 0.48680  0.03240  0.20910  Biso   1.000  H
  H32      1.0000 0.42060  0.15590  0.17460  Biso   1.000  H
  H33      1.0000 0.70000  0.01350  0.22550  Biso   1.000  H
  H34      1.0000 0.77570  0.11280  0.12240  Biso   1.000  H
  H35      1.0000 0.76610  0.99210  0.39240  Biso   1.000  H
  H36      1.0000 0.95350  0.25190  0.13970  Biso   1.000  H
  H37      1.0000 0.07450  0.21420  0.27030  Biso   1.000  H
  H38      1.0000 0.72090  0.32140  0.15470  Biso   1.000  H
  H39      1.0000 0.66770  0.30560  0.06620  Biso   1.000  H
  H40      1.0000 0.38420  0.36690  0.10260  Biso   1.000  H
  H41      1.0000 0.28880  0.54420  0.14890  Biso   1.000  H
  H42      1.0000 0.62840  0.48820  0.21910  Biso   1.000  H
  H43      1.0000 0.55280  0.08090  0.36700  Biso   1.000  H
  H44      1.0000 0.57490  0.21770  0.34290  Biso   1.000  H
  H45      1.0000 0.31860  0.00670  0.38810  Biso   1.000  H
  H46      1.0000 0.34980  0.34440  0.37110  Biso   1.000  H
  H47      1.0000 0.11160  0.27960  0.45080  Biso   1.000  H
  H48      1.0000 0.01900  0.43510  0.59460  Biso   1.000  H
  H49      1.0000 0.46040  0.34800  0.51100  Biso   1.000  H
  H50      1.0000 0.26450  0.24440  0.62800  Biso   1.000  H
  H51      1.0000 0.26220  0.37410  0.63530  Biso   1.000  H
  H52      1.0000 0.18800  0.85800  0.40800  Biso   1.000  H
  H53      1.0000 0.06900  0.86100  0.37700  Biso   1.000  H
  H54      1.0000 0.59300  0.43100  0.57300  Biso   1.000  H
  C1       1.0000 0.45630  0.79350  0.02820  Biso   1.000  C
  C2       1.0000 0.32670  0.91620  0.09450  Biso   1.000  C
  C3       1.0000 0.35370  0.96030  0.98740  Biso   1.000  C
  C4       1.0000 0.49420  0.88500  0.83400  Biso   1.000  C
  C5       1.0000 0.40150  0.82830  0.79300  Biso   1.000  C
  C6       1.0000 0.27270  0.90280  0.80290  Biso   1.000  C
  C7       1.0000 0.17200  0.94720  0.65400  Biso   1.000  C
  C8       1.0000 0.07030  0.80470  0.79370  Biso   1.000  C
  C9       1.0000 0.00390  0.82620  0.72100  Biso   1.000  C
  C10      1.0000 0.35860  0.69880  0.85960  Biso   1.000  C
  C11      1.0000 0.57840  0.58790  0.86820  Biso   1.000  C
  C12      1.0000 0.63030  0.48960  0.84260  Biso   1.000  C
  C13      1.0000 0.44470  0.51980  0.80360  Biso   1.000  C
  C14      1.0000 0.46760  0.84100  0.67400  Biso   1.000  C
  C15      1.0000 0.70450  0.91740  0.60660  Biso   1.000  C
  C16      1.0000 0.68540  0.73090  0.61640  Biso   1.000  C
  C17      1.0000 0.81730  0.76760  0.57210  Biso   1.000  C
  C18      1.0000 0.17450  0.57820  0.41980  Biso   1.000  C
  C19      1.0000 0.03020  0.53690  0.45330  Biso   1.000  C
  C20      1.0000 0.47390  0.80300  0.39490  Biso   1.000  C
  C21      1.0000 0.54620  0.68380  0.41370  Biso   1.000  C
  C22      1.0000 0.69390  0.70190  0.34920  Biso   1.000  C
  C23      1.0000 0.72100  0.75170  0.23010  Biso   1.000  C
  C24      1.0000 0.54370  0.20650  0.97180  Biso   1.000  C
  C25      1.0000 0.67330  0.08380  0.90550  Biso   1.000  C
  C26      1.0000 0.64630  0.03970  0.01260  Biso   1.000  C
  C27      1.0000 0.50580  0.11500  0.16600  Biso   1.000  C
  C28      1.0000 0.59850  0.17170  0.20700  Biso   1.000  C
  C29      1.0000 0.72730  0.09720  0.19710  Biso   1.000  C
  C30      1.0000 0.82800  0.05280  0.34600  Biso   1.000  C
  C31      1.0000 0.92970  0.19530  0.20630  Biso   1.000  C
  C32      1.0000 0.99610  0.17380  0.27900  Biso   1.000  C
  C33      1.0000 0.64140  0.30120  0.14040  Biso   1.000  C
  C34      1.0000 0.42160  0.41210  0.13180  Biso   1.000  C
  C35      1.0000 0.36970  0.51040  0.15740  Biso   1.000  C
  C36      1.0000 0.55530  0.48020  0.19640  Biso   1.000  C
  C37      1.0000 0.53240  0.15900  0.32600  Biso   1.000  C
  C38      1.0000 0.29550  0.08260  0.39340  Biso   1.000  C
  C39      1.0000 0.31460  0.26910  0.38360  Biso   1.000  C
  C40      1.0000 0.18270  0.23240  0.42790  Biso   1.000  C
  C41      1.0000 0.82550  0.42180  0.58020  Biso   1.000  C
  C42      1.0000 0.96980  0.46310  0.54670  Biso   1.000  C
  C43      1.0000 0.52610  0.19700  0.60510  Biso   1.000  C
  C44      1.0000 0.45380  0.31620  0.58630  Biso   1.000  C
  C45      1.0000 0.30610  0.29810  0.65080  Biso   1.000  C
  C46      1.0000 0.27900  0.24830  0.76990  Biso   1.000  C
  N1       1.0000 0.39180  0.81070  0.11910  Biso   1.000  N
  N2       1.0000 0.43620  0.88040  0.94590  Biso   1.000  N
  N3       1.0000 0.17930  0.88240  0.75060  Biso   1.000  N
  N4       1.0000 0.06870  0.91600  0.63240  Biso   1.000  N
  N5       1.0000 0.54600  0.44670  0.80200  Biso   1.000  N
  N6       1.0000 0.45960  0.60860  0.84260  Biso   1.000  N
  N7       1.0000 0.83030  0.88600  0.56610  Biso   1.000  N
  N8       1.0000 0.61460  0.82680  0.63890  Biso   1.000  N
  N9       1.0000 0.60820  0.18930  0.88090  Biso   1.000  N
  N10      1.0000 0.56380  0.11960  0.05410  Biso   1.000  N
  N11      1.0000 0.82070  0.11760  0.24940  Biso   1.000  N
  N12      1.0000 0.93130  0.08400  0.36760  Biso   1.000  N
  N13      1.0000 0.45400  0.55330  0.19800  Biso   1.000  N
  N14      1.0000 0.54040  0.39140  0.15740  Biso   1.000  N
  N15      1.0000 0.16970  0.11400  0.43390  Biso   1.000  N
  N16      1.0000 0.38540  0.17320  0.36110  Biso   1.000  N
  O1       1.0000 0.23830  0.54450  0.48610  Biso   1.000  O
  O2       1.0000 0.22220  0.64280  0.32530  Biso   1.000  O
  O3       1.0000 0.39360  0.82000  0.33850  Biso   1.000  O
  O4       1.0000 0.50090  0.87620  0.43340  Biso   1.000  O
  O5       1.0000 0.84790  0.76540  0.17610  Biso   1.000  O
  O6       1.0000 0.63180  0.75060  0.18750  Biso   1.000  O
  O7       1.0000 0.89700  0.12640  0.57890  Biso   1.000  O
  O8       1.0000 0.48680  0.59810  0.38460  Biso   1.000  O
  O9       1.0000 0.76170  0.45550  0.51390  Biso   1.000  O
  O10      1.0000 0.77780  0.35720  0.67470  Biso   1.000  O
  O11      1.0000 0.60640  0.18000  0.66150  Biso   1.000  O
  O12      1.0000 0.49910  0.12380  0.56660  Biso   1.000  O
  O13      1.0000 0.15210  0.23460  0.82390  Biso   1.000  O
  O14      1.0000 0.36820  0.24940  0.81250  Biso   1.000  O
  O15      1.0000 0.10300  0.87360  0.42110  Biso   1.000  O
  O16      1.0000 0.51320  0.40190  0.61540  Biso   1.000  O
