data_image0
_cell_length_a       9.5868
_cell_length_b       10.1255
_cell_length_c       20.2095
_cell_angle_alpha    103.146
_cell_angle_beta     90
_cell_angle_gamma    90

_symmetry_space_group_name_H-M    P 1
_symmetry_int_tables_number       1

loop_
  _symmetry_equiv_pos_as_xyz
  'x, y, z'

loop_
  _atom_site_label
  _atom_site_occupancy
  _atom_site_fract_x
  _atom_site_fract_y
  _atom_site_fract_z
  _atom_site_thermal_displace_type
  _atom_site_B_iso_or_equiv
  _atom_site_type_symbol
  Eu1      1.0000 0.42941  0.76883  0.79843  Biso   1.000  Eu
  Eu2      1.0000 0.92941  0.73116  0.70157  Biso   1.000  Eu
  Eu3      1.0000 0.57059  0.23116  0.20157  Biso   1.000  Eu
  Eu4      1.0000 0.07059  0.26883  0.29843  Biso   1.000  Eu
  Zn1      1.0000 0.86129  0.30294  0.66367  Biso   1.000  Zn
  Zn2      1.0000 0.36129  0.19706  0.83633  Biso   1.000  Zn
  Zn3      1.0000 0.13871  0.69706  0.33633  Biso   1.000  Zn
  Zn4      1.0000 0.63871  0.80294  0.16367  Biso   1.000  Zn
  H1       1.0000 0.00780  0.94390  0.15330  Biso   1.000  H
  H2       1.0000 0.90250  0.82180  0.05630  Biso   1.000  H
  H3       1.0000 0.01960  0.77950  0.95450  Biso   1.000  H
  H4       1.0000 0.35160  0.98340  0.04680  Biso   1.000  H
  H5       1.0000 0.62570  0.10220  0.72040  Biso   1.000  H
  H6       1.0000 0.55010  0.80210  0.67170  Biso   1.000  H
  H7       1.0000 0.42270  0.83130  0.65950  Biso   1.000  H
  H8       1.0000 0.90690  0.40520  0.56110  Biso   1.000  H
  H9       1.0000 0.93080  0.27570  0.54860  Biso   1.000  H
  H10      1.0000 0.50780  0.55610  0.34670  Biso   1.000  H
  H11      1.0000 0.40250  0.67820  0.44370  Biso   1.000  H
  H12      1.0000 0.51960  0.72050  0.54550  Biso   1.000  H
  H13      1.0000 0.85160  0.51660  0.45320  Biso   1.000  H
  H14      1.0000 0.12570  0.39780  0.77960  Biso   1.000  H
  H15      1.0000 0.05010  0.69790  0.82830  Biso   1.000  H
  H16      1.0000 0.92270  0.66870  0.84050  Biso   1.000  H
  H17      1.0000 0.40690  0.09480  0.93890  Biso   1.000  H
  H18      1.0000 0.43080  0.22430  0.95140  Biso   1.000  H
  H19      1.0000 0.99220  0.05610  0.84670  Biso   1.000  H
  H20      1.0000 0.09750  0.17820  0.94370  Biso   1.000  H
  H21      1.0000 0.98040  0.22050  0.04550  Biso   1.000  H
  H22      1.0000 0.64840  0.01660  0.95320  Biso   1.000  H
  H23      1.0000 0.37430  0.89780  0.27960  Biso   1.000  H
  H24      1.0000 0.44990  0.19790  0.32830  Biso   1.000  H
  H25      1.0000 0.57730  0.16870  0.34050  Biso   1.000  H
  H26      1.0000 0.09310  0.59480  0.43890  Biso   1.000  H
  H27      1.0000 0.06920  0.72430  0.45140  Biso   1.000  H
  H28      1.0000 0.49220  0.44390  0.65330  Biso   1.000  H
  H29      1.0000 0.59750  0.32180  0.55630  Biso   1.000  H
  H30      1.0000 0.48040  0.27950  0.45450  Biso   1.000  H
  H31      1.0000 0.14840  0.48340  0.54680  Biso   1.000  H
  H32      1.0000 0.87430  0.60220  0.22040  Biso   1.000  H
  H33      1.0000 0.94990  0.30210  0.17170  Biso   1.000  H
  H34      1.0000 0.07730  0.33130  0.15950  Biso   1.000  H
  H35      1.0000 0.59310  0.90520  0.06110  Biso   1.000  H
  H36      1.0000 0.56920  0.77570  0.04860  Biso   1.000  H
  C1       1.0000 0.19070  0.97450  0.11040  Biso   1.000  C
  C2       1.0000 0.05610  0.92670  0.11240  Biso   1.000  C
  C3       1.0000 0.99290  0.85380  0.05430  Biso   1.000  C
  C4       1.0000 0.06300  0.82840  0.99360  Biso   1.000  C
  C5       1.0000 0.19790  0.87512  0.99012  Biso   1.000  C
  C6       1.0000 0.26170  0.94998  0.04888  Biso   1.000  C
  C7       1.0000 0.27470  0.84541  0.92411  Biso   1.000  C
  C8       1.0000 0.25880  0.05384  0.17444  Biso   1.000  C
  C9       1.0000 0.70230  0.53525  0.73895  Biso   1.000  C
  C10      1.0000 0.63900  0.41176  0.75256  Biso   1.000  C
  C11      1.0000 0.53650  0.38730  0.79610  Biso   1.000  C
  C12      1.0000 0.44900  0.47409  0.84879  Biso   1.000  C
  C13      1.0000 0.61390  0.19500  0.73730  Biso   1.000  C
  C14      1.0000 0.69070  0.52550  0.38960  Biso   1.000  C
  C15      1.0000 0.55610  0.57330  0.38760  Biso   1.000  C
  C16      1.0000 0.49290  0.64620  0.44570  Biso   1.000  C
  C17      1.0000 0.56300  0.67160  0.50640  Biso   1.000  C
  C18      1.0000 0.69790  0.62488  0.50988  Biso   1.000  C
  C19      1.0000 0.76170  0.55002  0.45112  Biso   1.000  C
  C20      1.0000 0.77470  0.65459  0.57589  Biso   1.000  C
  C21      1.0000 0.75880  0.44616  0.32556  Biso   1.000  C
  C22      1.0000 0.20230  0.96475  0.76105  Biso   1.000  C
  C23      1.0000 0.13900  0.08824  0.74744  Biso   1.000  C
  C24      1.0000 0.03650  0.11270  0.70390  Biso   1.000  C
  C25      1.0000 0.94900  0.02591  0.65121  Biso   1.000  C
  C26      1.0000 0.11390  0.30500  0.76270  Biso   1.000  C
  C27      1.0000 0.80930  0.02550  0.88960  Biso   1.000  C
  C28      1.0000 0.94390  0.07330  0.88760  Biso   1.000  C
  C29      1.0000 0.00710  0.14620  0.94570  Biso   1.000  C
  C30      1.0000 0.93700  0.17160  0.00640  Biso   1.000  C
  C31      1.0000 0.80210  0.12488  0.00988  Biso   1.000  C
  C32      1.0000 0.73830  0.05002  0.95112  Biso   1.000  C
  C33      1.0000 0.72530  0.15459  0.07589  Biso   1.000  C
  C34      1.0000 0.74120  0.94616  0.82556  Biso   1.000  C
  C35      1.0000 0.29770  0.46475  0.26105  Biso   1.000  C
  C36      1.0000 0.36100  0.58824  0.24744  Biso   1.000  C
  C37      1.0000 0.46350  0.61270  0.20390  Biso   1.000  C
  C38      1.0000 0.55100  0.52591  0.15121  Biso   1.000  C
  C39      1.0000 0.38610  0.80500  0.26270  Biso   1.000  C
  C40      1.0000 0.30930  0.47450  0.61040  Biso   1.000  C
  C41      1.0000 0.44390  0.42670  0.61240  Biso   1.000  C
  C42      1.0000 0.50710  0.35380  0.55430  Biso   1.000  C
  C43      1.0000 0.43700  0.32840  0.49360  Biso   1.000  C
  C44      1.0000 0.30210  0.37512  0.49012  Biso   1.000  C
  C45      1.0000 0.23830  0.44998  0.54888  Biso   1.000  C
  C46      1.0000 0.22530  0.34541  0.42411  Biso   1.000  C
  C47      1.0000 0.24120  0.55384  0.67444  Biso   1.000  C
  C48      1.0000 0.79770  0.03525  0.23895  Biso   1.000  C
  C49      1.0000 0.86100  0.91176  0.25256  Biso   1.000  C
  C50      1.0000 0.96350  0.88730  0.29610  Biso   1.000  C
  C51      1.0000 0.05100  0.97409  0.34879  Biso   1.000  C
  C52      1.0000 0.88610  0.69500  0.23730  Biso   1.000  C
  N1       1.0000 0.68700  0.28940  0.71580  Biso   1.000  N
  N2       1.0000 0.52160  0.24848  0.78568  Biso   1.000  N
  N3       1.0000 0.18700  0.21060  0.78420  Biso   1.000  N
  N4       1.0000 0.02160  0.25152  0.71432  Biso   1.000  N
  N5       1.0000 0.31300  0.71060  0.28420  Biso   1.000  N
  N6       1.0000 0.47840  0.75152  0.21432  Biso   1.000  N
  N7       1.0000 0.81300  0.78940  0.21580  Biso   1.000  N
  N8       1.0000 0.97840  0.74848  0.28568  Biso   1.000  N
  O1       1.0000 0.21960  0.77213  0.87193  Biso   1.000  O
  O2       1.0000 0.39720  0.89067  0.92087  Biso   1.000  O
  O3       1.0000 0.38630  0.07913  0.17173  Biso   1.000  O
  O4       1.0000 0.18560  0.08687  0.22737  Biso   1.000  O
  O5       1.0000 0.65190  0.64987  0.75917  Biso   1.000  O
  O6       1.0000 0.81420  0.51485  0.70345  Biso   1.000  O
  O7       1.0000 0.46800  0.60109  0.86229  Biso   1.000  O
  O8       1.0000 0.36200  0.41530  0.87800  Biso   1.000  O
  O9       1.0000 0.47290  0.81332  0.68852  Biso   1.000  O
  O10      1.0000 0.88360  0.33580  0.57230  Biso   1.000  O
  O11      1.0000 0.71960  0.72787  0.62807  Biso   1.000  O
  O12      1.0000 0.89720  0.60933  0.57913  Biso   1.000  O
  O13      1.0000 0.88630  0.42087  0.32827  Biso   1.000  O
  O14      1.0000 0.68560  0.41313  0.27263  Biso   1.000  O
  O15      1.0000 0.15190  0.85013  0.74083  Biso   1.000  O
  O16      1.0000 0.31420  0.98515  0.79655  Biso   1.000  O
  O17      1.0000 0.96800  0.89891  0.63771  Biso   1.000  O
  O18      1.0000 0.86200  0.08470  0.62200  Biso   1.000  O
  O19      1.0000 0.97290  0.68668  0.81148  Biso   1.000  O
  O20      1.0000 0.38360  0.16420  0.92770  Biso   1.000  O
  O21      1.0000 0.78040  0.22787  0.12807  Biso   1.000  O
  O22      1.0000 0.60280  0.10933  0.07913  Biso   1.000  O
  O23      1.0000 0.61370  0.92087  0.82827  Biso   1.000  O
  O24      1.0000 0.81440  0.91313  0.77263  Biso   1.000  O
  O25      1.0000 0.34810  0.35013  0.24083  Biso   1.000  O
  O26      1.0000 0.18580  0.48515  0.29655  Biso   1.000  O
  O27      1.0000 0.53200  0.39891  0.13771  Biso   1.000  O
  O28      1.0000 0.63800  0.58470  0.12200  Biso   1.000  O
  O29      1.0000 0.52710  0.18668  0.31148  Biso   1.000  O
  O30      1.0000 0.11640  0.66420  0.42770  Biso   1.000  O
  O31      1.0000 0.28040  0.27213  0.37193  Biso   1.000  O
  O32      1.0000 0.10280  0.39067  0.42087  Biso   1.000  O
  O33      1.0000 0.11370  0.57913  0.67173  Biso   1.000  O
  O34      1.0000 0.31440  0.58687  0.72737  Biso   1.000  O
  O35      1.0000 0.84810  0.14987  0.25917  Biso   1.000  O
  O36      1.0000 0.68580  0.01485  0.20345  Biso   1.000  O
  O37      1.0000 0.03200  0.10109  0.36229  Biso   1.000  O
  O38      1.0000 0.13800  0.91530  0.37800  Biso   1.000  O
  O39      1.0000 0.02710  0.31332  0.18852  Biso   1.000  O
  O40      1.0000 0.61640  0.83580  0.07230  Biso   1.000  O
