data_image0
_cell_length_a       9.5903
_cell_length_b       10.1806
_cell_length_c       20.2805
_cell_angle_alpha    102.765
_cell_angle_beta     90
_cell_angle_gamma    90

_symmetry_space_group_name_H-M    P 1
_symmetry_int_tables_number       1

loop_
  _symmetry_equiv_pos_as_xyz
  'x, y, z'

loop_
  _atom_site_label
  _atom_site_occupancy
  _atom_site_fract_x
  _atom_site_fract_y
  _atom_site_fract_z
  _atom_site_thermal_displace_type
  _atom_site_B_iso_or_equiv
  _atom_site_type_symbol
  Nd1      1.0000 0.43038  0.76885  0.79799  Biso   1.000  Nd
  Nd2      1.0000 0.93038  0.73115  0.70201  Biso   1.000  Nd
  Nd3      1.0000 0.56962  0.23115  0.20201  Biso   1.000  Nd
  Nd4      1.0000 0.06962  0.26885  0.29799  Biso   1.000  Nd
  Zn1      1.0000 0.86146  0.30099  0.66342  Biso   1.000  Zn
  Zn2      1.0000 0.36146  0.19901  0.83658  Biso   1.000  Zn
  Zn3      1.0000 0.13854  0.69901  0.33658  Biso   1.000  Zn
  Zn4      1.0000 0.63854  0.80099  0.16342  Biso   1.000  Zn
  H1       1.0000 0.00620  0.94080  0.15260  Biso   1.000  H
  H2       1.0000 0.90020  0.82080  0.05590  Biso   1.000  H
  H3       1.0000 0.01970  0.77860  0.95450  Biso   1.000  H
  H4       1.0000 0.34970  0.98200  0.04680  Biso   1.000  H
  H5       1.0000 0.62420  0.10420  0.72100  Biso   1.000  H
  H6       1.0000 0.55150  0.80400  0.66980  Biso   1.000  H
  H7       1.0000 0.42420  0.83310  0.65750  Biso   1.000  H
  H8       1.0000 0.90740  0.40480  0.56120  Biso   1.000  H
  H9       1.0000 0.93140  0.27530  0.54870  Biso   1.000  H
  H10      1.0000 0.50620  0.55920  0.34740  Biso   1.000  H
  H11      1.0000 0.40020  0.67920  0.44410  Biso   1.000  H
  H12      1.0000 0.51970  0.72140  0.54550  Biso   1.000  H
  H13      1.0000 0.84970  0.51800  0.45320  Biso   1.000  H
  H14      1.0000 0.12420  0.39580  0.77900  Biso   1.000  H
  H15      1.0000 0.05150  0.69600  0.83020  Biso   1.000  H
  H16      1.0000 0.92420  0.66690  0.84250  Biso   1.000  H
  H17      1.0000 0.40740  0.09520  0.93880  Biso   1.000  H
  H18      1.0000 0.43140  0.22470  0.95130  Biso   1.000  H
  H19      1.0000 0.99380  0.05920  0.84740  Biso   1.000  H
  H20      1.0000 0.09980  0.17920  0.94410  Biso   1.000  H
  H21      1.0000 0.98030  0.22140  0.04550  Biso   1.000  H
  H22      1.0000 0.65030  0.01800  0.95320  Biso   1.000  H
  H23      1.0000 0.37580  0.89580  0.27900  Biso   1.000  H
  H24      1.0000 0.44850  0.19600  0.33020  Biso   1.000  H
  H25      1.0000 0.57580  0.16690  0.34250  Biso   1.000  H
  H26      1.0000 0.09260  0.59520  0.43880  Biso   1.000  H
  H27      1.0000 0.06860  0.72470  0.45130  Biso   1.000  H
  H28      1.0000 0.49380  0.44080  0.65260  Biso   1.000  H
  H29      1.0000 0.59980  0.32080  0.55590  Biso   1.000  H
  H30      1.0000 0.48030  0.27860  0.45450  Biso   1.000  H
  H31      1.0000 0.15030  0.48200  0.54680  Biso   1.000  H
  H32      1.0000 0.87580  0.60420  0.22100  Biso   1.000  H
  H33      1.0000 0.94850  0.30400  0.16980  Biso   1.000  H
  H34      1.0000 0.07580  0.33310  0.15750  Biso   1.000  H
  H35      1.0000 0.59260  0.90480  0.06120  Biso   1.000  H
  H36      1.0000 0.56860  0.77530  0.04870  Biso   1.000  H
  C1       1.0000 0.18820  0.97290  0.11010  Biso   1.000  C
  C2       1.0000 0.05440  0.92450  0.11180  Biso   1.000  C
  C3       1.0000 0.99080  0.85240  0.05400  Biso   1.000  C
  C4       1.0000 0.06200  0.82750  0.99350  Biso   1.000  C
  C5       1.0000 0.19600  0.87508  0.99078  Biso   1.000  C
  C6       1.0000 0.25980  0.94889  0.04889  Biso   1.000  C
  C7       1.0000 0.27450  0.84546  0.92526  Biso   1.000  C
  C8       1.0000 0.25650  0.05092  0.17412  Biso   1.000  C
  C9       1.0000 0.70650  0.53293  0.73893  Biso   1.000  C
  C10      1.0000 0.64120  0.41176  0.75316  Biso   1.000  C
  C11      1.0000 0.53890  0.38684  0.79624  Biso   1.000  C
  C12      1.0000 0.45190  0.47305  0.84855  Biso   1.000  C
  C13      1.0000 0.61370  0.19630  0.73780  Biso   1.000  C
  C14      1.0000 0.68820  0.52710  0.38990  Biso   1.000  C
  C15      1.0000 0.55440  0.57550  0.38820  Biso   1.000  C
  C16      1.0000 0.49080  0.64760  0.44600  Biso   1.000  C
  C17      1.0000 0.56200  0.67250  0.50650  Biso   1.000  C
  C18      1.0000 0.69600  0.62492  0.50922  Biso   1.000  C
  C19      1.0000 0.75980  0.55111  0.45111  Biso   1.000  C
  C20      1.0000 0.77450  0.65454  0.57474  Biso   1.000  C
  C21      1.0000 0.75650  0.44908  0.32588  Biso   1.000  C
  C22      1.0000 0.20650  0.96707  0.76107  Biso   1.000  C
  C23      1.0000 0.14120  0.08824  0.74684  Biso   1.000  C
  C24      1.0000 0.03890  0.11316  0.70376  Biso   1.000  C
  C25      1.0000 0.95190  0.02695  0.65145  Biso   1.000  C
  C26      1.0000 0.11370  0.30370  0.76220  Biso   1.000  C
  C27      1.0000 0.81180  0.02710  0.88990  Biso   1.000  C
  C28      1.0000 0.94560  0.07550  0.88820  Biso   1.000  C
  C29      1.0000 0.00920  0.14760  0.94600  Biso   1.000  C
  C30      1.0000 0.93800  0.17250  0.00650  Biso   1.000  C
  C31      1.0000 0.80400  0.12492  0.00922  Biso   1.000  C
  C32      1.0000 0.74020  0.05111  0.95111  Biso   1.000  C
  C33      1.0000 0.72550  0.15454  0.07474  Biso   1.000  C
  C34      1.0000 0.74350  0.94908  0.82588  Biso   1.000  C
  C35      1.0000 0.29350  0.46707  0.26107  Biso   1.000  C
  C36      1.0000 0.35880  0.58824  0.24684  Biso   1.000  C
  C37      1.0000 0.46110  0.61316  0.20376  Biso   1.000  C
  C38      1.0000 0.54810  0.52695  0.15145  Biso   1.000  C
  C39      1.0000 0.38630  0.80370  0.26220  Biso   1.000  C
  C40      1.0000 0.31180  0.47290  0.61010  Biso   1.000  C
  C41      1.0000 0.44560  0.42450  0.61180  Biso   1.000  C
  C42      1.0000 0.50920  0.35240  0.55400  Biso   1.000  C
  C43      1.0000 0.43800  0.32750  0.49350  Biso   1.000  C
  C44      1.0000 0.30400  0.37508  0.49078  Biso   1.000  C
  C45      1.0000 0.24020  0.44889  0.54889  Biso   1.000  C
  C46      1.0000 0.22550  0.34546  0.42526  Biso   1.000  C
  C47      1.0000 0.24350  0.55092  0.67412  Biso   1.000  C
  C48      1.0000 0.79350  0.03293  0.23893  Biso   1.000  C
  C49      1.0000 0.85880  0.91176  0.25316  Biso   1.000  C
  C50      1.0000 0.96110  0.88684  0.29624  Biso   1.000  C
  C51      1.0000 0.04810  0.97305  0.34855  Biso   1.000  C
  C52      1.0000 0.88630  0.69630  0.23780  Biso   1.000  C
  N1       1.0000 0.68780  0.28944  0.71624  Biso   1.000  N
  N2       1.0000 0.52300  0.24954  0.78604  Biso   1.000  N
  N3       1.0000 0.18780  0.21056  0.78376  Biso   1.000  N
  N4       1.0000 0.02300  0.25046  0.71396  Biso   1.000  N
  N5       1.0000 0.31220  0.71056  0.28376  Biso   1.000  N
  N6       1.0000 0.47700  0.75046  0.21396  Biso   1.000  N
  N7       1.0000 0.81220  0.78944  0.21624  Biso   1.000  N
  N8       1.0000 0.97700  0.74954  0.28604  Biso   1.000  N
  O1       1.0000 0.21890  0.77228  0.87328  Biso   1.000  O
  O2       1.0000 0.39630  0.89212  0.92202  Biso   1.000  O
  O3       1.0000 0.38270  0.07811  0.17111  Biso   1.000  O
  O4       1.0000 0.18190  0.08249  0.22669  Biso   1.000  O
  O5       1.0000 0.65960  0.64842  0.75942  Biso   1.000  O
  O6       1.0000 0.81750  0.51053  0.70283  Biso   1.000  O
  O7       1.0000 0.47160  0.59926  0.86296  Biso   1.000  O
  O8       1.0000 0.36350  0.41436  0.87776  Biso   1.000  O
  O9       1.0000 0.47430  0.81517  0.68657  Biso   1.000  O
  O10      1.0000 0.88410  0.33545  0.57245  Biso   1.000  O
  O11      1.0000 0.71890  0.72772  0.62672  Biso   1.000  O
  O12      1.0000 0.89630  0.60788  0.57798  Biso   1.000  O
  O13      1.0000 0.88270  0.42189  0.32889  Biso   1.000  O
  O14      1.0000 0.68190  0.41751  0.27331  Biso   1.000  O
  O15      1.0000 0.15960  0.85158  0.74058  Biso   1.000  O
  O16      1.0000 0.31750  0.98947  0.79717  Biso   1.000  O
  O17      1.0000 0.97160  0.90074  0.63704  Biso   1.000  O
  O18      1.0000 0.86350  0.08564  0.62224  Biso   1.000  O
  O19      1.0000 0.97430  0.68483  0.81343  Biso   1.000  O
  O20      1.0000 0.38410  0.16455  0.92755  Biso   1.000  O
  O21      1.0000 0.78110  0.22772  0.12672  Biso   1.000  O
  O22      1.0000 0.60370  0.10788  0.07798  Biso   1.000  O
  O23      1.0000 0.61730  0.92189  0.82889  Biso   1.000  O
  O24      1.0000 0.81810  0.91751  0.77331  Biso   1.000  O
  O25      1.0000 0.34040  0.35158  0.24058  Biso   1.000  O
  O26      1.0000 0.18250  0.48947  0.29717  Biso   1.000  O
  O27      1.0000 0.52840  0.40074  0.13704  Biso   1.000  O
  O28      1.0000 0.63650  0.58564  0.12224  Biso   1.000  O
  O29      1.0000 0.52570  0.18483  0.31343  Biso   1.000  O
  O30      1.0000 0.11590  0.66455  0.42755  Biso   1.000  O
  O31      1.0000 0.28110  0.27228  0.37328  Biso   1.000  O
  O32      1.0000 0.10370  0.39212  0.42202  Biso   1.000  O
  O33      1.0000 0.11730  0.57811  0.67111  Biso   1.000  O
  O34      1.0000 0.31810  0.58249  0.72669  Biso   1.000  O
  O35      1.0000 0.84040  0.14842  0.25942  Biso   1.000  O
  O36      1.0000 0.68250  0.01053  0.20283  Biso   1.000  O
  O37      1.0000 0.02840  0.09926  0.36296  Biso   1.000  O
  O38      1.0000 0.13650  0.91436  0.37776  Biso   1.000  O
  O39      1.0000 0.02570  0.31517  0.18657  Biso   1.000  O
  O40      1.0000 0.61590  0.83545  0.07245  Biso   1.000  O
