data_image0
_cell_length_a       9.5831
_cell_length_b       10.1045
_cell_length_c       20.1735
_cell_angle_alpha    103.262
_cell_angle_beta     90
_cell_angle_gamma    90

_symmetry_space_group_name_H-M    P 1
_symmetry_int_tables_number       1

loop_
  _symmetry_equiv_pos_as_xyz
  'x, y, z'

loop_
  _atom_site_label
  _atom_site_occupancy
  _atom_site_fract_x
  _atom_site_fract_y
  _atom_site_fract_z
  _atom_site_thermal_displace_type
  _atom_site_B_iso_or_equiv
  _atom_site_type_symbol
  Gd1      1.0000 0.42944  0.76877  0.79855  Biso   1.000  Gd
  Gd2      1.0000 0.92944  0.73123  0.70145  Biso   1.000  Gd
  Gd3      1.0000 0.57056  0.23123  0.20145  Biso   1.000  Gd
  Gd4      1.0000 0.07056  0.26877  0.29855  Biso   1.000  Gd
  Zn1      1.0000 0.86150  0.30367  0.66379  Biso   1.000  Zn
  Zn2      1.0000 0.36150  0.19633  0.83621  Biso   1.000  Zn
  Zn3      1.0000 0.13850  0.69633  0.33621  Biso   1.000  Zn
  Zn4      1.0000 0.63850  0.80367  0.16379  Biso   1.000  Zn
  H1       1.0000 0.00770  0.94430  0.15350  Biso   1.000  H
  H2       1.0000 0.90160  0.82350  0.05650  Biso   1.000  H
  H3       1.0000 0.01870  0.77920  0.95430  Biso   1.000  H
  H4       1.0000 0.35170  0.98360  0.04680  Biso   1.000  H
  H5       1.0000 0.62730  0.10180  0.72020  Biso   1.000  H
  H6       1.0000 0.54950  0.80230  0.67250  Biso   1.000  H
  H7       1.0000 0.42210  0.83150  0.66030  Biso   1.000  H
  H8       1.0000 0.90700  0.40590  0.56100  Biso   1.000  H
  H9       1.0000 0.93100  0.27630  0.54840  Biso   1.000  H
  H10      1.0000 0.50770  0.55570  0.34650  Biso   1.000  H
  H11      1.0000 0.40160  0.67650  0.44350  Biso   1.000  H
  H12      1.0000 0.51870  0.72080  0.54570  Biso   1.000  H
  H13      1.0000 0.85170  0.51640  0.45320  Biso   1.000  H
  H14      1.0000 0.12730  0.39820  0.77980  Biso   1.000  H
  H15      1.0000 0.04950  0.69770  0.82750  Biso   1.000  H
  H16      1.0000 0.92210  0.66850  0.83970  Biso   1.000  H
  H17      1.0000 0.40700  0.09410  0.93900  Biso   1.000  H
  H18      1.0000 0.43100  0.22370  0.95160  Biso   1.000  H
  H19      1.0000 0.99230  0.05570  0.84650  Biso   1.000  H
  H20      1.0000 0.09840  0.17650  0.94350  Biso   1.000  H
  H21      1.0000 0.98130  0.22080  0.04570  Biso   1.000  H
  H22      1.0000 0.64830  0.01640  0.95320  Biso   1.000  H
  H23      1.0000 0.37270  0.89820  0.27980  Biso   1.000  H
  H24      1.0000 0.45050  0.19770  0.32750  Biso   1.000  H
  H25      1.0000 0.57790  0.16850  0.33970  Biso   1.000  H
  H26      1.0000 0.09300  0.59410  0.43900  Biso   1.000  H
  H27      1.0000 0.06900  0.72370  0.45160  Biso   1.000  H
  H28      1.0000 0.49230  0.44430  0.65350  Biso   1.000  H
  H29      1.0000 0.59840  0.32350  0.55650  Biso   1.000  H
  H30      1.0000 0.48130  0.27920  0.45430  Biso   1.000  H
  H31      1.0000 0.14830  0.48360  0.54680  Biso   1.000  H
  H32      1.0000 0.87270  0.60180  0.22020  Biso   1.000  H
  H33      1.0000 0.95050  0.30230  0.17250  Biso   1.000  H
  H34      1.0000 0.07790  0.33150  0.16030  Biso   1.000  H
  H35      1.0000 0.59300  0.90590  0.06100  Biso   1.000  H
  H36      1.0000 0.56900  0.77630  0.04840  Biso   1.000  H
  C1       1.0000 0.19150  0.97520  0.11060  Biso   1.000  C
  C2       1.0000 0.05590  0.92710  0.11240  Biso   1.000  C
  C3       1.0000 0.99230  0.85490  0.05450  Biso   1.000  C
  C4       1.0000 0.06220  0.82850  0.99340  Biso   1.000  C
  C5       1.0000 0.19790  0.87570  0.99000  Biso   1.000  C
  C6       1.0000 0.26170  0.95030  0.04890  Biso   1.000  C
  C7       1.0000 0.27420  0.84440  0.92360  Biso   1.000  C
  C8       1.0000 0.25930  0.05430  0.17460  Biso   1.000  C
  C9       1.0000 0.70180  0.53630  0.73920  Biso   1.000  C
  C10      1.0000 0.63870  0.41170  0.75280  Biso   1.000  C
  C11      1.0000 0.53650  0.38650  0.79540  Biso   1.000  C
  C12      1.0000 0.44840  0.47390  0.84830  Biso   1.000  C
  C13      1.0000 0.61480  0.19470  0.73710  Biso   1.000  C
  C14      1.0000 0.69150  0.52480  0.38940  Biso   1.000  C
  C15      1.0000 0.55590  0.57290  0.38760  Biso   1.000  C
  C16      1.0000 0.49230  0.64510  0.44550  Biso   1.000  C
  C17      1.0000 0.56220  0.67150  0.50660  Biso   1.000  C
  C18      1.0000 0.69790  0.62430  0.51000  Biso   1.000  C
  C19      1.0000 0.76170  0.54970  0.45110  Biso   1.000  C
  C20      1.0000 0.77420  0.65560  0.57640  Biso   1.000  C
  C21      1.0000 0.75930  0.44570  0.32540  Biso   1.000  C
  C22      1.0000 0.20180  0.96370  0.76080  Biso   1.000  C
  C23      1.0000 0.13870  0.08830  0.74720  Biso   1.000  C
  C24      1.0000 0.03650  0.11350  0.70460  Biso   1.000  C
  C25      1.0000 0.94840  0.02610  0.65170  Biso   1.000  C
  C26      1.0000 0.11480  0.30530  0.76290  Biso   1.000  C
  C27      1.0000 0.80850  0.02480  0.88940  Biso   1.000  C
  C28      1.0000 0.94410  0.07290  0.88760  Biso   1.000  C
  C29      1.0000 0.00770  0.14510  0.94550  Biso   1.000  C
  C30      1.0000 0.93780  0.17150  0.00660  Biso   1.000  C
  C31      1.0000 0.80210  0.12430  0.01000  Biso   1.000  C
  C32      1.0000 0.73830  0.04970  0.95110  Biso   1.000  C
  C33      1.0000 0.72580  0.15560  0.07640  Biso   1.000  C
  C34      1.0000 0.74070  0.94570  0.82540  Biso   1.000  C
  C35      1.0000 0.29820  0.46370  0.26080  Biso   1.000  C
  C36      1.0000 0.36130  0.58830  0.24720  Biso   1.000  C
  C37      1.0000 0.46350  0.61350  0.20460  Biso   1.000  C
  C38      1.0000 0.55160  0.52610  0.15170  Biso   1.000  C
  C39      1.0000 0.38520  0.80530  0.26290  Biso   1.000  C
  C40      1.0000 0.30850  0.47520  0.61060  Biso   1.000  C
  C41      1.0000 0.44410  0.42710  0.61240  Biso   1.000  C
  C42      1.0000 0.50770  0.35490  0.55450  Biso   1.000  C
  C43      1.0000 0.43780  0.32850  0.49340  Biso   1.000  C
  C44      1.0000 0.30210  0.37570  0.49000  Biso   1.000  C
  C45      1.0000 0.23830  0.45030  0.54890  Biso   1.000  C
  C46      1.0000 0.22580  0.34440  0.42360  Biso   1.000  C
  C47      1.0000 0.24070  0.55430  0.67460  Biso   1.000  C
  C48      1.0000 0.79820  0.03630  0.23920  Biso   1.000  C
  C49      1.0000 0.86130  0.91170  0.25280  Biso   1.000  C
  C50      1.0000 0.96350  0.88650  0.29540  Biso   1.000  C
  C51      1.0000 0.05160  0.97390  0.34830  Biso   1.000  C
  C52      1.0000 0.88520  0.69470  0.23710  Biso   1.000  C
  N1       1.0000 0.68690  0.28990  0.71580  Biso   1.000  N
  N2       1.0000 0.52180  0.24810  0.78580  Biso   1.000  N
  N3       1.0000 0.18690  0.21010  0.78420  Biso   1.000  N
  N4       1.0000 0.02180  0.25190  0.71420  Biso   1.000  N
  N5       1.0000 0.31310  0.71010  0.28420  Biso   1.000  N
  N6       1.0000 0.47820  0.75190  0.21420  Biso   1.000  N
  N7       1.0000 0.81310  0.78990  0.21580  Biso   1.000  N
  N8       1.0000 0.97820  0.74810  0.28580  Biso   1.000  N
  O1       1.0000 0.21950  0.77188  0.87148  Biso   1.000  O
  O2       1.0000 0.39710  0.89046  0.92056  Biso   1.000  O
  O3       1.0000 0.38690  0.07955  0.17145  Biso   1.000  O
  O4       1.0000 0.18610  0.08801  0.22751  Biso   1.000  O
  O5       1.0000 0.64990  0.65020  0.75930  Biso   1.000  O
  O6       1.0000 0.81400  0.51643  0.70393  Biso   1.000  O
  O7       1.0000 0.46670  0.60126  0.86206  Biso   1.000  O
  O8       1.0000 0.36180  0.41489  0.87799  Biso   1.000  O
  O9       1.0000 0.47220  0.81354  0.68934  Biso   1.000  O
  O10      1.0000 0.88370  0.33649  0.57219  Biso   1.000  O
  O11      1.0000 0.71950  0.72812  0.62852  Biso   1.000  O
  O12      1.0000 0.89710  0.60954  0.57944  Biso   1.000  O
  O13      1.0000 0.88690  0.42045  0.32855  Biso   1.000  O
  O14      1.0000 0.68610  0.41199  0.27249  Biso   1.000  O
  O15      1.0000 0.14990  0.84980  0.74070  Biso   1.000  O
  O16      1.0000 0.31400  0.98357  0.79607  Biso   1.000  O
  O17      1.0000 0.96670  0.89874  0.63794  Biso   1.000  O
  O18      1.0000 0.86180  0.08511  0.62201  Biso   1.000  O
  O19      1.0000 0.97220  0.68646  0.81066  Biso   1.000  O
  O20      1.0000 0.38370  0.16351  0.92781  Biso   1.000  O
  O21      1.0000 0.78050  0.22812  0.12852  Biso   1.000  O
  O22      1.0000 0.60290  0.10954  0.07944  Biso   1.000  O
  O23      1.0000 0.61310  0.92045  0.82855  Biso   1.000  O
  O24      1.0000 0.81390  0.91199  0.77249  Biso   1.000  O
  O25      1.0000 0.35010  0.34980  0.24070  Biso   1.000  O
  O26      1.0000 0.18600  0.48357  0.29607  Biso   1.000  O
  O27      1.0000 0.53330  0.39874  0.13794  Biso   1.000  O
  O28      1.0000 0.63820  0.58511  0.12201  Biso   1.000  O
  O29      1.0000 0.52780  0.18646  0.31066  Biso   1.000  O
  O30      1.0000 0.11630  0.66351  0.42781  Biso   1.000  O
  O31      1.0000 0.28050  0.27188  0.37148  Biso   1.000  O
  O32      1.0000 0.10290  0.39046  0.42056  Biso   1.000  O
  O33      1.0000 0.11310  0.57955  0.67145  Biso   1.000  O
  O34      1.0000 0.31390  0.58801  0.72751  Biso   1.000  O
  O35      1.0000 0.85010  0.15020  0.25930  Biso   1.000  O
  O36      1.0000 0.68600  0.01643  0.20393  Biso   1.000  O
  O37      1.0000 0.03330  0.10126  0.36206  Biso   1.000  O
  O38      1.0000 0.13820  0.91489  0.37799  Biso   1.000  O
  O39      1.0000 0.02780  0.31354  0.18934  Biso   1.000  O
  O40      1.0000 0.61630  0.83649  0.07219  Biso   1.000  O
