data_image0
_cell_length_a       8.6462
_cell_length_b       13.1598
_cell_length_c       15.3218
_cell_angle_alpha    115.433
_cell_angle_beta     94.9069
_cell_angle_gamma    90

_symmetry_space_group_name_H-M    P 1
_symmetry_int_tables_number       1

loop_
  _symmetry_equiv_pos_as_xyz
  'x, y, z'

loop_
  _atom_site_label
  _atom_site_occupancy
  _atom_site_fract_x
  _atom_site_fract_y
  _atom_site_fract_z
  _atom_site_thermal_displace_type
  _atom_site_B_iso_or_equiv
  _atom_site_type_symbol
  Cu1      1.0000 0.96189  0.49390  0.57898  Biso   1.000  Cu
  Cu2      1.0000 0.53811  0.91492  0.42102  Biso   1.000  Cu
  Cu3      1.0000 0.03811  0.50610  0.42102  Biso   1.000  Cu
  Cu4      1.0000 0.46189  0.08508  0.57898  Biso   1.000  Cu
  H1       1.0000 0.82340  0.63640  0.77200  Biso   1.000  H
  H2       1.0000 0.68290  0.62200  0.88480  Biso   1.000  H
  H3       1.0000 0.72850  0.29050  0.75440  Biso   1.000  H
  H4       1.0000 0.86820  0.31450  0.64540  Biso   1.000  H
  H5       1.0000 0.59610  0.36330  0.90260  Biso   1.000  H
  H6       1.0000 0.70690  0.24100  0.40900  Biso   1.000  H
  H7       1.0000 0.59920  0.17070  0.31440  Biso   1.000  H
  H8       1.0000 0.48840  0.35300  0.47480  Biso   1.000  H
  H9       1.0000 0.39420  0.28830  0.37300  Biso   1.000  H
  H10      1.0000 0.49500  0.45930  0.38480  Biso   1.000  H
  H11      1.0000 0.56830  0.35960  0.30140  Biso   1.000  H
  H12      1.0000 0.67660  0.86440  0.22800  Biso   1.000  H
  H13      1.0000 0.81710  0.73720  0.11520  Biso   1.000  H
  H14      1.0000 0.77150  0.53610  0.24560  Biso   1.000  H
  H15      1.0000 0.63180  0.66910  0.35460  Biso   1.000  H
  H16      1.0000 0.90390  0.46070  0.09740  Biso   1.000  H
  H17      1.0000 0.79310  0.83200  0.59100  Biso   1.000  H
  H18      1.0000 0.90080  0.85630  0.68560  Biso   1.000  H
  H19      1.0000 0.01160  0.87820  0.52520  Biso   1.000  H
  H20      1.0000 0.10580  0.91530  0.62700  Biso   1.000  H
  H21      1.0000 0.00500  0.07450  0.61520  Biso   1.000  H
  H22      1.0000 0.93170  0.05820  0.69860  Biso   1.000  H
  H23      1.0000 0.17660  0.36360  0.22800  Biso   1.000  H
  H24      1.0000 0.31710  0.37800  0.11520  Biso   1.000  H
  H25      1.0000 0.27150  0.70950  0.24560  Biso   1.000  H
  H26      1.0000 0.13180  0.68550  0.35460  Biso   1.000  H
  H27      1.0000 0.40390  0.63670  0.09740  Biso   1.000  H
  H28      1.0000 0.29310  0.75900  0.59100  Biso   1.000  H
  H29      1.0000 0.40080  0.82930  0.68560  Biso   1.000  H
  H30      1.0000 0.51160  0.64700  0.52520  Biso   1.000  H
  H31      1.0000 0.60580  0.71170  0.62700  Biso   1.000  H
  H32      1.0000 0.50500  0.54070  0.61520  Biso   1.000  H
  H33      1.0000 0.43170  0.64040  0.69860  Biso   1.000  H
  H34      1.0000 0.32340  0.13560  0.77200  Biso   1.000  H
  H35      1.0000 0.18290  0.26280  0.88480  Biso   1.000  H
  H36      1.0000 0.22850  0.46390  0.75440  Biso   1.000  H
  H37      1.0000 0.36820  0.33090  0.64540  Biso   1.000  H
  H38      1.0000 0.09610  0.53930  0.90260  Biso   1.000  H
  H39      1.0000 0.20690  0.16800  0.40900  Biso   1.000  H
  H40      1.0000 0.09920  0.14370  0.31440  Biso   1.000  H
  H41      1.0000 0.98840  0.12180  0.47480  Biso   1.000  H
  H42      1.0000 0.89420  0.08470  0.37300  Biso   1.000  H
  H43      1.0000 0.99500  0.92550  0.38480  Biso   1.000  H
  H44      1.0000 0.06830  0.94180  0.30140  Biso   1.000  H
  C1       1.0000 0.80360  0.56520  0.76860  Biso   1.000  C
  C2       1.0000 0.71930  0.55770  0.83660  Biso   1.000  C
  C3       1.0000 0.68900  0.45360  0.83280  Biso   1.000  C
  C4       1.0000 0.74660  0.36250  0.75940  Biso   1.000  C
  C5       1.0000 0.83010  0.37740  0.69440  Biso   1.000  C
  C6       1.0000 0.60300  0.43470  0.90440  Biso   1.000  C
  C7       1.0000 0.55780  0.13260  0.42580  Biso   1.000  C
  C8       1.0000 0.60090  0.21290  0.38420  Biso   1.000  C
  C9       1.0000 0.49750  0.31460  0.40540  Biso   1.000  C
  C10      1.0000 0.56420  0.39740  0.37120  Biso   1.000  C
  C11      1.0000 0.72600  0.44460  0.41940  Biso   1.000  C
  C12      1.0000 0.69640  0.79660  0.23140  Biso   1.000  C
  C13      1.0000 0.78070  0.72110  0.16340  Biso   1.000  C
  C14      1.0000 0.81100  0.62080  0.16720  Biso   1.000  C
  C15      1.0000 0.75340  0.60310  0.24060  Biso   1.000  C
  C16      1.0000 0.66990  0.68300  0.30560  Biso   1.000  C
  C17      1.0000 0.89700  0.53030  0.09560  Biso   1.000  C
  C18      1.0000 0.94220  0.70680  0.57420  Biso   1.000  C
  C19      1.0000 0.89910  0.82870  0.61580  Biso   1.000  C
  C20      1.0000 0.00250  0.90920  0.59460  Biso   1.000  C
  C21      1.0000 0.93580  0.02620  0.62880  Biso   1.000  C
  C22      1.0000 0.77400  0.02520  0.58060  Biso   1.000  C
  C23      1.0000 0.19640  0.43480  0.23140  Biso   1.000  C
  C24      1.0000 0.28070  0.44230  0.16340  Biso   1.000  C
  C25      1.0000 0.31100  0.54640  0.16720  Biso   1.000  C
  C26      1.0000 0.25340  0.63750  0.24060  Biso   1.000  C
  C27      1.0000 0.16990  0.62260  0.30560  Biso   1.000  C
  C28      1.0000 0.39700  0.56530  0.09560  Biso   1.000  C
  C29      1.0000 0.44220  0.86740  0.57420  Biso   1.000  C
  C30      1.0000 0.39910  0.78710  0.61580  Biso   1.000  C
  C31      1.0000 0.50250  0.68540  0.59460  Biso   1.000  C
  C32      1.0000 0.43580  0.60260  0.62880  Biso   1.000  C
  C33      1.0000 0.27400  0.55540  0.58060  Biso   1.000  C
  C34      1.0000 0.30360  0.20340  0.76860  Biso   1.000  C
  C35      1.0000 0.21930  0.27890  0.83660  Biso   1.000  C
  C36      1.0000 0.18900  0.37920  0.83280  Biso   1.000  C
  C37      1.0000 0.24660  0.39690  0.75940  Biso   1.000  C
  C38      1.0000 0.33010  0.31700  0.69440  Biso   1.000  C
  C39      1.0000 0.10300  0.46970  0.90440  Biso   1.000  C
  C40      1.0000 0.05780  0.29320  0.42580  Biso   1.000  C
  C41      1.0000 0.10090  0.17130  0.38420  Biso   1.000  C
  C42      1.0000 0.99750  0.09080  0.40540  Biso   1.000  C
  C43      1.0000 0.06420  0.97380  0.37120  Biso   1.000  C
  C44      1.0000 0.22600  0.97480  0.41940  Biso   1.000  C
  N1       1.0000 0.85910  0.47780  0.69800  Biso   1.000  N
  N2       1.0000 0.53790  0.51750  0.96960  Biso   1.000  N
  N3       1.0000 0.64090  0.77980  0.30200  Biso   1.000  N
  N4       1.0000 0.96210  0.54790  0.03040  Biso   1.000  N
  N5       1.0000 0.14090  0.52220  0.30200  Biso   1.000  N
  N6       1.0000 0.46210  0.48250  0.03040  Biso   1.000  N
  N7       1.0000 0.35910  0.22020  0.69800  Biso   1.000  N
  N8       1.0000 0.03790  0.45210  0.96960  Biso   1.000  N
  O1       1.0000 0.51510  0.17520  0.51040  Biso   1.000  O
  O2       1.0000 0.75530  0.45818  0.50436  Biso   1.000  O
  O3       1.0000 0.57360  0.03040  0.37500  Biso   1.000  O
  O4       1.0000 0.81950  0.46257  0.36834  Biso   1.000  O
  O5       1.0000 0.98490  0.66480  0.48960  Biso   1.000  O
  O6       1.0000 0.74470  0.95382  0.49564  Biso   1.000  O
  O7       1.0000 0.92640  0.65540  0.62500  Biso   1.000  O
  O8       1.0000 0.68050  0.09423  0.63166  Biso   1.000  O
  O9       1.0000 0.48490  0.82480  0.48960  Biso   1.000  O
  O10      1.0000 0.24470  0.54182  0.49564  Biso   1.000  O
  O11      1.0000 0.42640  0.96960  0.62500  Biso   1.000  O
  O12      1.0000 0.18050  0.53743  0.63166  Biso   1.000  O
  O13      1.0000 0.01510  0.33520  0.51040  Biso   1.000  O
  O14      1.0000 0.25530  0.04618  0.50436  Biso   1.000  O
  O15      1.0000 0.07360  0.34460  0.37500  Biso   1.000  O
  O16      1.0000 0.31950  0.90577  0.36834  Biso   1.000  O
