data_image0
_cell_length_a       8.641
_cell_length_b       13.153
_cell_length_c       15.3018
_cell_angle_alpha    115.454
_cell_angle_beta     94.9647
_cell_angle_gamma    90

_symmetry_space_group_name_H-M    P 1
_symmetry_int_tables_number       1

loop_
  _symmetry_equiv_pos_as_xyz
  'x, y, z'

loop_
  _atom_site_label
  _atom_site_occupancy
  _atom_site_fract_x
  _atom_site_fract_y
  _atom_site_fract_z
  _atom_site_thermal_displace_type
  _atom_site_B_iso_or_equiv
  _atom_site_type_symbol
  Cu1      1.0000 0.03810  0.91487  0.42096  Biso   1.000  Cu
  Cu2      1.0000 0.46190  0.49391  0.57904  Biso   1.000  Cu
  Cu3      1.0000 0.96190  0.08513  0.57904  Biso   1.000  Cu
  Cu4      1.0000 0.53810  0.50609  0.42096  Biso   1.000  Cu
  H1       1.0000 0.17630  0.86410  0.22700  Biso   1.000  H
  H2       1.0000 0.31770  0.73580  0.11500  Biso   1.000  H
  H3       1.0000 0.27370  0.53490  0.24520  Biso   1.000  H
  H4       1.0000 0.13070  0.66820  0.35380  Biso   1.000  H
  H5       1.0000 0.40390  0.46180  0.09680  Biso   1.000  H
  H6       1.0000 0.49370  0.92470  0.38320  Biso   1.000  H
  H7       1.0000 0.56820  0.94050  0.29980  Biso   1.000  H
  H8       1.0000 0.39470  0.08570  0.37160  Biso   1.000  H
  H9       1.0000 0.48890  0.12230  0.47340  Biso   1.000  H
  H10      1.0000 0.70700  0.16650  0.40740  Biso   1.000  H
  H11      1.0000 0.59800  0.14390  0.31340  Biso   1.000  H
  H12      1.0000 0.32370  0.63710  0.77300  Biso   1.000  H
  H13      1.0000 0.18230  0.62080  0.88500  Biso   1.000  H
  H14      1.0000 0.22630  0.28970  0.75480  Biso   1.000  H
  H15      1.0000 0.36930  0.31440  0.64620  Biso   1.000  H
  H16      1.0000 0.09610  0.36500  0.90320  Biso   1.000  H
  H17      1.0000 0.00630  0.54150  0.61680  Biso   1.000  H
  H18      1.0000 0.93180  0.64070  0.70020  Biso   1.000  H
  H19      1.0000 0.10530  0.71410  0.62840  Biso   1.000  H
  H20      1.0000 0.01110  0.64890  0.52660  Biso   1.000  H
  H21      1.0000 0.79300  0.75910  0.59260  Biso   1.000  H
  H22      1.0000 0.90200  0.83050  0.68660  Biso   1.000  H
  H23      1.0000 0.82370  0.13590  0.77300  Biso   1.000  H
  H24      1.0000 0.68230  0.26420  0.88500  Biso   1.000  H
  H25      1.0000 0.72630  0.46510  0.75480  Biso   1.000  H
  H26      1.0000 0.86930  0.33180  0.64620  Biso   1.000  H
  H27      1.0000 0.59610  0.53820  0.90320  Biso   1.000  H
  H28      1.0000 0.50630  0.07530  0.61680  Biso   1.000  H
  H29      1.0000 0.43180  0.05950  0.70020  Biso   1.000  H
  H30      1.0000 0.60530  0.91430  0.62840  Biso   1.000  H
  H31      1.0000 0.51110  0.87770  0.52660  Biso   1.000  H
  H32      1.0000 0.29300  0.83350  0.59260  Biso   1.000  H
  H33      1.0000 0.40200  0.85610  0.68660  Biso   1.000  H
  H34      1.0000 0.67630  0.36290  0.22700  Biso   1.000  H
  H35      1.0000 0.81770  0.37920  0.11500  Biso   1.000  H
  H36      1.0000 0.77370  0.71030  0.24520  Biso   1.000  H
  H37      1.0000 0.63070  0.68560  0.35380  Biso   1.000  H
  H38      1.0000 0.90390  0.63500  0.09680  Biso   1.000  H
  H39      1.0000 0.99370  0.45850  0.38320  Biso   1.000  H
  H40      1.0000 0.06820  0.35930  0.29980  Biso   1.000  H
  H41      1.0000 0.89470  0.28590  0.37160  Biso   1.000  H
  H42      1.0000 0.98890  0.35110  0.47340  Biso   1.000  H
  H43      1.0000 0.20700  0.24090  0.40740  Biso   1.000  H
  H44      1.0000 0.09800  0.16950  0.31340  Biso   1.000  H
  C1       1.0000 0.19620  0.79670  0.23100  Biso   1.000  C
  C2       1.0000 0.28050  0.72000  0.16340  Biso   1.000  C
  C3       1.0000 0.31050  0.61947  0.16674  Biso   1.000  C
  C4       1.0000 0.25450  0.60168  0.23976  Biso   1.000  C
  C5       1.0000 0.16980  0.68240  0.30520  Biso   1.000  C
  C6       1.0000 0.39670  0.53170  0.09540  Biso   1.000  C
  C7       1.0000 0.72450  0.97490  0.41880  Biso   1.000  C
  C8       1.0000 0.56350  0.97270  0.36960  Biso   1.000  C
  C9       1.0000 0.49790  0.09140  0.40420  Biso   1.000  C
  C10      1.0000 0.60080  0.17050  0.38320  Biso   1.000  C
  C11      1.0000 0.05720  0.13410  0.42700  Biso   1.000  C
  C12      1.0000 0.30380  0.56570  0.76900  Biso   1.000  C
  C13      1.0000 0.21950  0.55660  0.83660  Biso   1.000  C
  C14      1.0000 0.18950  0.45273  0.83326  Biso   1.000  C
  C15      1.0000 0.24550  0.36192  0.76024  Biso   1.000  C
  C16      1.0000 0.33020  0.37720  0.69480  Biso   1.000  C
  C17      1.0000 0.10330  0.43630  0.90460  Biso   1.000  C
  C18      1.0000 0.77550  0.55610  0.58120  Biso   1.000  C
  C19      1.0000 0.93650  0.60310  0.63040  Biso   1.000  C
  C20      1.0000 0.00210  0.68720  0.59580  Biso   1.000  C
  C21      1.0000 0.89920  0.78730  0.61680  Biso   1.000  C
  C22      1.0000 0.44280  0.70710  0.57300  Biso   1.000  C
  C23      1.0000 0.80380  0.20330  0.76900  Biso   1.000  C
  C24      1.0000 0.71950  0.28000  0.83660  Biso   1.000  C
  C25      1.0000 0.68950  0.38053  0.83326  Biso   1.000  C
  C26      1.0000 0.74550  0.39832  0.76024  Biso   1.000  C
  C27      1.0000 0.83020  0.31760  0.69480  Biso   1.000  C
  C28      1.0000 0.60330  0.46830  0.90460  Biso   1.000  C
  C29      1.0000 0.27550  0.02510  0.58120  Biso   1.000  C
  C30      1.0000 0.43650  0.02730  0.63040  Biso   1.000  C
  C31      1.0000 0.50210  0.90860  0.59580  Biso   1.000  C
  C32      1.0000 0.39920  0.82950  0.61680  Biso   1.000  C
  C33      1.0000 0.94280  0.86590  0.57300  Biso   1.000  C
  C34      1.0000 0.69620  0.43430  0.23100  Biso   1.000  C
  C35      1.0000 0.78050  0.44340  0.16340  Biso   1.000  C
  C36      1.0000 0.81050  0.54727  0.16674  Biso   1.000  C
  C37      1.0000 0.75450  0.63808  0.23976  Biso   1.000  C
  C38      1.0000 0.66980  0.62280  0.30520  Biso   1.000  C
  C39      1.0000 0.89670  0.56370  0.09540  Biso   1.000  C
  C40      1.0000 0.22450  0.44390  0.41880  Biso   1.000  C
  C41      1.0000 0.06350  0.39690  0.36960  Biso   1.000  C
  C42      1.0000 0.99790  0.31280  0.40420  Biso   1.000  C
  C43      1.0000 0.10080  0.21270  0.38320  Biso   1.000  C
  C44      1.0000 0.55720  0.29290  0.42700  Biso   1.000  C
  N1       1.0000 0.14110  0.78022  0.30204  Biso   1.000  N
  N2       1.0000 0.46240  0.54900  0.03080  Biso   1.000  N
  N3       1.0000 0.35890  0.47818  0.69796  Biso   1.000  N
  N4       1.0000 0.03760  0.51820  0.96920  Biso   1.000  N
  N5       1.0000 0.85890  0.21978  0.69796  Biso   1.000  N
  N6       1.0000 0.53760  0.45100  0.96920  Biso   1.000  N
  N7       1.0000 0.64110  0.52182  0.30204  Biso   1.000  N
  N8       1.0000 0.96240  0.48180  0.03080  Biso   1.000  N
  O1       1.0000 0.81880  0.90549  0.36818  Biso   1.000  O
  O2       1.0000 0.07410  0.03110  0.37540  Biso   1.000  O
  O3       1.0000 0.75600  0.04641  0.50422  Biso   1.000  O
  O4       1.0000 0.01310  0.17517  0.50934  Biso   1.000  O
  O5       1.0000 0.68120  0.53731  0.63182  Biso   1.000  O
  O6       1.0000 0.42590  0.65570  0.62460  Biso   1.000  O
  O7       1.0000 0.74400  0.54219  0.49578  Biso   1.000  O
  O8       1.0000 0.48690  0.66583  0.49066  Biso   1.000  O
  O9       1.0000 0.18120  0.09451  0.63182  Biso   1.000  O
  O10      1.0000 0.92590  0.96890  0.62460  Biso   1.000  O
  O11      1.0000 0.24400  0.95359  0.49578  Biso   1.000  O
  O12      1.0000 0.98690  0.82483  0.49066  Biso   1.000  O
  O13      1.0000 0.31880  0.46269  0.36818  Biso   1.000  O
  O14      1.0000 0.57410  0.34430  0.37540  Biso   1.000  O
  O15      1.0000 0.25600  0.45781  0.50422  Biso   1.000  O
  O16      1.0000 0.51310  0.33417  0.50934  Biso   1.000  O
