data_image0
_cell_length_a       6.262
_cell_length_b       15.512
_cell_length_c       15.512
_cell_angle_alpha    120
_cell_angle_beta     90
_cell_angle_gamma    90

_symmetry_space_group_name_H-M    P 1
_symmetry_int_tables_number       1

loop_
  _symmetry_equiv_pos_as_xyz
  'x, y, z'

loop_
  _atom_site_label
  _atom_site_occupancy
  _atom_site_fract_x
  _atom_site_fract_y
  _atom_site_fract_z
  _atom_site_thermal_displace_type
  _atom_site_B_iso_or_equiv
  _atom_site_type_symbol
  Zn1      1.0000 0.85040  0.50000  0.50000  Biso   1.000  Zn
  Zn2      1.0000 0.18373  0.00000  0.50000  Biso   1.000  Zn
  Zn3      1.0000 0.51707  0.50000  0.00000  Biso   1.000  Zn
  H1       1.0000 0.21540  0.72360  0.60190  Biso   1.000  H
  H2       1.0000 0.42610  0.59710  0.58900  Biso   1.000  H
  H3       1.0000 0.87800  0.66580  0.46190  Biso   1.000  H
  H4       1.0000 0.68400  0.79780  0.47670  Biso   1.000  H
  H5       1.0000 0.54873  0.87830  0.27640  Biso   1.000  H
  H6       1.0000 0.75943  0.99190  0.40290  Biso   1.000  H
  H7       1.0000 0.21133  0.79610  0.33420  Biso   1.000  H
  H8       1.0000 0.01733  0.67890  0.20220  Biso   1.000  H
  H9       1.0000 0.88207  0.39810  0.12170  Biso   1.000  H
  H10      1.0000 0.09277  0.41100  0.00810  Biso   1.000  H
  H11      1.0000 0.54467  0.53810  0.20390  Biso   1.000  H
  H12      1.0000 0.35067  0.52330  0.32110  Biso   1.000  H
  H13      1.0000 0.21540  0.27640  0.39810  Biso   1.000  H
  H14      1.0000 0.42610  0.40290  0.41100  Biso   1.000  H
  H15      1.0000 0.87800  0.33420  0.53810  Biso   1.000  H
  H16      1.0000 0.68400  0.20220  0.52330  Biso   1.000  H
  H17      1.0000 0.54873  0.12170  0.72360  Biso   1.000  H
  H18      1.0000 0.75943  0.00810  0.59710  Biso   1.000  H
  H19      1.0000 0.21133  0.20390  0.66580  Biso   1.000  H
  H20      1.0000 0.01733  0.32110  0.79780  Biso   1.000  H
  H21      1.0000 0.88207  0.60190  0.87830  Biso   1.000  H
  H22      1.0000 0.09277  0.58900  0.99190  Biso   1.000  H
  H23      1.0000 0.54467  0.46190  0.79610  Biso   1.000  H
  H24      1.0000 0.35067  0.47670  0.67890  Biso   1.000  H
  C1       1.0000 0.28720  0.85610  0.54230  Biso   1.000  C
  C2       1.0000 0.42610  0.77370  0.53790  Biso   1.000  C
  C3       1.0000 0.35020  0.71300  0.57310  Biso   1.000  C
  C4       1.0000 0.47720  0.63710  0.56470  Biso   1.000  C
  C5       1.0000 0.74320  0.67800  0.49080  Biso   1.000  C
  C6       1.0000 0.62660  0.75660  0.49840  Biso   1.000  C
  C7       1.0000 0.62053  0.68620  0.14390  Biso   1.000  C
  C8       1.0000 0.75943  0.76420  0.22630  Biso   1.000  C
  C9       1.0000 0.68353  0.86010  0.28700  Biso   1.000  C
  C10      1.0000 0.81053  0.92760  0.36290  Biso   1.000  C
  C11      1.0000 0.07653  0.81280  0.32200  Biso   1.000  C
  C12      1.0000 0.95993  0.74180  0.24340  Biso   1.000  C
  C13      1.0000 0.95387  0.45770  0.31380  Biso   1.000  C
  C14      1.0000 0.09277  0.46210  0.23580  Biso   1.000  C
  C15      1.0000 0.01687  0.42690  0.13990  Biso   1.000  C
  C16      1.0000 0.14387  0.43530  0.07240  Biso   1.000  C
  C17      1.0000 0.40987  0.50920  0.18720  Biso   1.000  C
  C18      1.0000 0.29327  0.50160  0.25820  Biso   1.000  C
  C19      1.0000 0.28720  0.14390  0.45770  Biso   1.000  C
  C20      1.0000 0.42610  0.22630  0.46210  Biso   1.000  C
  C21      1.0000 0.35020  0.28700  0.42690  Biso   1.000  C
  C22      1.0000 0.47720  0.36290  0.43530  Biso   1.000  C
  C23      1.0000 0.74320  0.32200  0.50920  Biso   1.000  C
  C24      1.0000 0.62660  0.24340  0.50160  Biso   1.000  C
  C25      1.0000 0.62053  0.31380  0.85610  Biso   1.000  C
  C26      1.0000 0.75943  0.23580  0.77370  Biso   1.000  C
  C27      1.0000 0.68353  0.13990  0.71300  Biso   1.000  C
  C28      1.0000 0.81053  0.07240  0.63710  Biso   1.000  C
  C29      1.0000 0.07653  0.18720  0.67800  Biso   1.000  C
  C30      1.0000 0.95993  0.25820  0.75660  Biso   1.000  C
  C31      1.0000 0.95387  0.54230  0.68620  Biso   1.000  C
  C32      1.0000 0.09277  0.53790  0.76420  Biso   1.000  C
  C33      1.0000 0.01687  0.57310  0.86010  Biso   1.000  C
  C34      1.0000 0.14387  0.56470  0.92760  Biso   1.000  C
  C35      1.0000 0.40987  0.49080  0.81280  Biso   1.000  C
  C36      1.0000 0.29327  0.49840  0.74180  Biso   1.000  C
  N1       1.0000 0.67040  0.61831  0.52341  Biso   1.000  N
  N2       1.0000 0.00373  0.90510  0.38169  Biso   1.000  N
  N3       1.0000 0.33707  0.47659  0.09490  Biso   1.000  N
  N4       1.0000 0.67040  0.38169  0.47659  Biso   1.000  N
  N5       1.0000 0.00373  0.09490  0.61831  Biso   1.000  N
  N6       1.0000 0.33707  0.52341  0.90510  Biso   1.000  N
  O1       1.0000 0.38340  0.91458  0.51939  Biso   1.000  O
  O2       1.0000 0.09710  0.85850  0.55960  Biso   1.000  O
  O3       1.0000 0.71673  0.60481  0.08542  Biso   1.000  O
  O4       1.0000 0.43043  0.70110  0.14150  Biso   1.000  O
  O5       1.0000 0.05007  0.48061  0.39519  Biso   1.000  O
  O6       1.0000 0.76377  0.44040  0.29890  Biso   1.000  O
  O7       1.0000 0.38340  0.08542  0.48061  Biso   1.000  O
  O8       1.0000 0.09710  0.14150  0.44040  Biso   1.000  O
  O9       1.0000 0.71673  0.39519  0.91458  Biso   1.000  O
  O10      1.0000 0.43043  0.29890  0.85850  Biso   1.000  O
  O11      1.0000 0.05007  0.51939  0.60481  Biso   1.000  O
  O12      1.0000 0.76377  0.55960  0.70110  Biso   1.000  O
