data_image0
_cell_length_a       16.043
_cell_length_b       19.7227
_cell_length_c       19.7227
_cell_angle_alpha    80.4785
_cell_angle_beta     66.0014
_cell_angle_gamma    66.0013

_symmetry_space_group_name_H-M    P 1
_symmetry_int_tables_number       1

loop_
  _symmetry_equiv_pos_as_xyz
  'x, y, z'

loop_
  _atom_site_label
  _atom_site_occupancy
  _atom_site_fract_x
  _atom_site_fract_y
  _atom_site_fract_z
  _atom_site_thermal_displace_type
  _atom_site_B_iso_or_equiv
  _atom_site_type_symbol
  Dy1      1.0000 0.95911  0.70162  0.88457  Biso   1.000  Dy
  Dy2      1.0000 0.54529  0.29838  0.11544  Biso   1.000  Dy
  Cu1      1.0000 0.61270  0.59071  0.18723  Biso   1.000  Cu
  Cu2      1.0000 0.39064  0.40929  0.81277  Biso   1.000  Cu
  H1       1.0000 0.11950  0.58260  0.06780  Biso   1.000  H
  H2       1.0000 0.23850  0.55710  0.11590  Biso   1.000  H
  H3       1.0000 0.22350  0.72480  0.92400  Biso   1.000  H
  H4       1.0000 0.33640  0.70250  0.97370  Biso   1.000  H
  H5       1.0000 0.41500  0.50570  0.10250  Biso   1.000  H
  H6       1.0000 0.53420  0.49280  0.14480  Biso   1.000  H
  H7       1.0000 0.35930  0.72410  0.07950  Biso   1.000  H
  H8       1.0000 0.47450  0.70450  0.12770  Biso   1.000  H
  H9       1.0000 0.84300  0.58470  0.76770  Biso   1.000  H
  H10      1.0000 0.73430  0.54630  0.75310  Biso   1.000  H
  H11      1.0000 0.68350  0.61460  0.98460  Biso   1.000  H
  H12      1.0000 0.57240  0.57530  0.97150  Biso   1.000  H
  H13      1.0000 0.57070  0.57700  0.75380  Biso   1.000  H
  H14      1.0000 0.46560  0.53150  0.74230  Biso   1.000  H
  H15      1.0000 0.53990  0.47670  0.94990  Biso   1.000  H
  H16      1.0000 0.43140  0.43660  0.93620  Biso   1.000  H
  H17      1.0000 0.11070  0.75960  0.62880  Biso   1.000  H
  H18      1.0000 0.21960  0.73690  0.50590  Biso   1.000  H
  H19      1.0000 0.27610  0.56330  0.68790  Biso   1.000  H
  H20      1.0000 0.38350  0.54220  0.56700  Biso   1.000  H
  H21      1.0000 0.28650  0.65200  0.39920  Biso   1.000  H
  H22      1.0000 0.40060  0.62750  0.27850  Biso   1.000  H
  H23      1.0000 0.51130  0.59070  0.46550  Biso   1.000  H
  H24      1.0000 0.61650  0.57350  0.34490  Biso   1.000  H
  H25      1.0000 0.82750  0.96460  0.92140  Biso   1.000  H
  H26      1.0000 0.73250  0.08820  0.91220  Biso   1.000  H
  H27      1.0000 0.68750  0.90510  0.83250  Biso   1.000  H
  H28      1.0000 0.60550  0.02830  0.81090  Biso   1.000  H
  H29      1.0000 0.57370  0.19060  0.94640  Biso   1.000  H
  H30      1.0000 0.48170  0.30970  0.92710  Biso   1.000  H
  H31      1.0000 0.61820  0.14210  0.74250  Biso   1.000  H
  H32      1.0000 0.52270  0.26260  0.72980  Biso   1.000  H
  H33      1.0000 0.76990  0.41740  0.93220  Biso   1.000  H
  H34      1.0000 0.91150  0.44290  0.88410  Biso   1.000  H
  H35      1.0000 0.87230  0.27520  0.07600  Biso   1.000  H
  H36      1.0000 0.01260  0.29750  0.02630  Biso   1.000  H
  H37      1.0000 0.02320  0.49430  0.89750  Biso   1.000  H
  H38      1.0000 0.17180  0.50720  0.85520  Biso   1.000  H
  H39      1.0000 0.16290  0.27590  0.92050  Biso   1.000  H
  H40      1.0000 0.30670  0.29550  0.87230  Biso   1.000  H
  H41      1.0000 0.19540  0.41530  0.23230  Biso   1.000  H
  H42      1.0000 0.03370  0.45370  0.24690  Biso   1.000  H
  H43      1.0000 0.28270  0.38540  0.01540  Biso   1.000  H
  H44      1.0000 0.11920  0.42470  0.02850  Biso   1.000  H
  H45      1.0000 0.90150  0.42300  0.24620  Biso   1.000  H
  H46      1.0000 0.73940  0.46850  0.25770  Biso   1.000  H
  H47      1.0000 0.96650  0.52330  0.05010  Biso   1.000  H
  H48      1.0000 0.80420  0.56340  0.06380  Biso   1.000  H
  H49      1.0000 0.49910  0.24040  0.37120  Biso   1.000  H
  H50      1.0000 0.46240  0.26310  0.49410  Biso   1.000  H
  H51      1.0000 0.52730  0.43670  0.31210  Biso   1.000  H
  H52      1.0000 0.49270  0.45780  0.43300  Biso   1.000  H
  H53      1.0000 0.33770  0.34800  0.60080  Biso   1.000  H
  H54      1.0000 0.30660  0.37250  0.72150  Biso   1.000  H
  H55      1.0000 0.56750  0.40930  0.53450  Biso   1.000  H
  H56      1.0000 0.53490  0.42650  0.65510  Biso   1.000  H
  H57      1.0000 0.71350  0.03540  0.07860  Biso   1.000  H
  H58      1.0000 0.73290  0.91180  0.08780  Biso   1.000  H
  H59      1.0000 0.42510  0.09490  0.16750  Biso   1.000  H
  H60      1.0000 0.44470  0.97170  0.18910  Biso   1.000  H
  H61      1.0000 0.71070  0.80940  0.05360  Biso   1.000  H
  H62      1.0000 0.71850  0.69030  0.07290  Biso   1.000  H
  H63      1.0000 0.50280  0.85790  0.25750  Biso   1.000  H
  H64      1.0000 0.51510  0.73740  0.27020  Biso   1.000  H
  C1       1.0000 0.08340  0.67180  0.95680  Biso   1.000  C
  C2       1.0000 0.16050  0.65350  0.98950  Biso   1.000  C
  C3       1.0000 0.16450  0.60580  0.04780  Biso   1.000  C
  C4       1.0000 0.23500  0.59150  0.07770  Biso   1.000  C
  C5       1.0000 0.22620  0.69100  0.96260  Biso   1.000  C
  C6       1.0000 0.29310  0.67760  0.99280  Biso   1.000  C
  C7       1.0000 0.30030  0.62820  0.05120  Biso   1.000  C
  C8       1.0000 0.37320  0.61730  0.08290  Biso   1.000  C
  C9       1.0000 0.42747  0.54710  0.10516  Biso   1.000  C
  C10      1.0000 0.49930  0.53970  0.13090  Biso   1.000  C
  C11      1.0000 0.39350  0.67620  0.09200  Biso   1.000  C
  C12      1.0000 0.46500  0.66340  0.12000  Biso   1.000  C
  C13      1.0000 0.84950  0.62520  0.88420  Biso   1.000  C
  C14      1.0000 0.77534  0.60109  0.87803  Biso   1.000  C
  C15      1.0000 0.78870  0.58220  0.80880  Biso   1.000  C
  C16      1.0000 0.72310  0.55990  0.79990  Biso   1.000  C
  C17      1.0000 0.69410  0.60010  0.93830  Biso   1.000  C
  C18      1.0000 0.62660  0.57720  0.93000  Biso   1.000  C
  C19      1.0000 0.63920  0.55730  0.86070  Biso   1.000  C
  C20      1.0000 0.56810  0.53206  0.85294  Biso   1.000  C
  C21      1.0000 0.54440  0.54760  0.79140  Biso   1.000  C
  C22      1.0000 0.48090  0.51960  0.78460  Biso   1.000  C
  C23      1.0000 0.52570  0.48880  0.90720  Biso   1.000  C
  C24      1.0000 0.46150  0.46350  0.89790  Biso   1.000  C
  C25      1.0000 0.10780  0.67750  0.74810  Biso   1.000  C
  C26      1.0000 0.18080  0.66340  0.67080  Biso   1.000  C
  C27      1.0000 0.16550  0.71540  0.61620  Biso   1.000  C
  C28      1.0000 0.23140  0.70230  0.54250  Biso   1.000  C
  C29      1.0000 0.26410  0.59840  0.65180  Biso   1.000  C
  C30      1.0000 0.32860  0.58630  0.57930  Biso   1.000  C
  C31      1.0000 0.31450  0.63740  0.52420  Biso   1.000  C
  C32      1.0000 0.38550  0.62340  0.44620  Biso   1.000  C
  C33      1.0000 0.35350  0.63490  0.38970  Biso   1.000  C
  C34      1.0000 0.42330  0.62050  0.31670  Biso   1.000  C
  C35      1.0000 0.48670  0.59920  0.42820  Biso   1.000  C
  C36      1.0000 0.54950  0.58820  0.35560  Biso   1.000  C
  C37      1.0000 0.81860  0.84170  0.89410  Biso   1.000  C
  C38      1.0000 0.76310  0.92270  0.88310  Biso   1.000  C
  C39      1.0000 0.77900  0.97690  0.90210  Biso   1.000  C
  C40      1.0000 0.72470  0.05160  0.89380  Biso   1.000  C
  C41      1.0000 0.69810  0.94190  0.84790  Biso   1.000  C
  C42      1.0000 0.64820  0.01600  0.83560  Biso   1.000  C
  C43      1.0000 0.66060  0.07110  0.85930  Biso   1.000  C
  C44      1.0000 0.60570  0.15030  0.84710  Biso   1.000  C
  C45      1.0000 0.56420  0.20350  0.90170  Biso   1.000  C
  C46      1.0000 0.50880  0.27520  0.88960  Biso   1.000  C
  C47      1.0000 0.59000  0.17500  0.78160  Biso   1.000  C
  C48      1.0000 0.53290  0.24800  0.77400  Biso   1.000  C
  C49      1.0000 0.71200  0.32820  0.04320  Biso   1.000  C
  C50      1.0000 0.80350  0.34650  0.01050  Biso   1.000  C
  C51      1.0000 0.81810  0.39420  0.95220  Biso   1.000  C
  C52      1.0000 0.90420  0.40850  0.92230  Biso   1.000  C
  C53      1.0000 0.87980  0.30900  0.03740  Biso   1.000  C
  C54      1.0000 0.96350  0.32240  0.00720  Biso   1.000  C
  C55      1.0000 0.97970  0.37180  0.94880  Biso   1.000  C
  C56      1.0000 0.07340  0.38270  0.91710  Biso   1.000  C
  C57      1.0000 0.07973  0.45290  0.89484  Biso   1.000  C
  C58      1.0000 0.16990  0.46030  0.86910  Biso   1.000  C
  C59      1.0000 0.16170  0.32380  0.90800  Biso   1.000  C
  C60      1.0000 0.24840  0.33660  0.88000  Biso   1.000  C
  C61      1.0000 0.35890  0.37480  0.11580  Biso   1.000  C
  C62      1.0000 0.25446  0.39891  0.12197  Biso   1.000  C
  C63      1.0000 0.17970  0.41780  0.19120  Biso   1.000  C
  C64      1.0000 0.08290  0.44010  0.20010  Biso   1.000  C
  C65      1.0000 0.23250  0.39990  0.06170  Biso   1.000  C
  C66      1.0000 0.13380  0.42280  0.07000  Biso   1.000  C
  C67      1.0000 0.05720  0.44270  0.13930  Biso   1.000  C
  C68      1.0000 0.95310  0.46794  0.14706  Biso   1.000  C
  C69      1.0000 0.88340  0.45240  0.20860  Biso   1.000  C
  C70      1.0000 0.78510  0.48040  0.21540  Biso   1.000  C
  C71      1.0000 0.92170  0.51120  0.09280  Biso   1.000  C
  C72      1.0000 0.82290  0.53650  0.10210  Biso   1.000  C
  C73      1.0000 0.53340  0.32250  0.25190  Biso   1.000  C
  C74      1.0000 0.51500  0.33660  0.32920  Biso   1.000  C
  C75      1.0000 0.49710  0.28460  0.38380  Biso   1.000  C
  C76      1.0000 0.47620  0.29770  0.45750  Biso   1.000  C
  C77      1.0000 0.51430  0.40160  0.34820  Biso   1.000  C
  C78      1.0000 0.49420  0.41370  0.42070  Biso   1.000  C
  C79      1.0000 0.47610  0.36260  0.47580  Biso   1.000  C
  C80      1.0000 0.45510  0.37660  0.55380  Biso   1.000  C
  C81      1.0000 0.37810  0.36510  0.61030  Biso   1.000  C
  C82      1.0000 0.36050  0.37950  0.68330  Biso   1.000  C
  C83      1.0000 0.51410  0.40080  0.57180  Biso   1.000  C
  C84      1.0000 0.49330  0.41180  0.64440  Biso   1.000  C
  C85      1.0000 0.55440  0.15830  0.10590  Biso   1.000  C
  C86      1.0000 0.56890  0.07730  0.11690  Biso   1.000  C
  C87      1.0000 0.65800  0.02310  0.09790  Biso   1.000  C
  C88      1.0000 0.67010  0.94840  0.10620  Biso   1.000  C
  C89      1.0000 0.48790  0.05810  0.15210  Biso   1.000  C
  C90      1.0000 0.49980  0.98400  0.16440  Biso   1.000  C
  C91      1.0000 0.59100  0.92890  0.14070  Biso   1.000  C
  C92      1.0000 0.60310  0.84970  0.15290  Biso   1.000  C
  C93      1.0000 0.66940  0.79650  0.09830  Biso   1.000  C
  C94      1.0000 0.67360  0.72480  0.11040  Biso   1.000  C
  C95      1.0000 0.54660  0.82500  0.21840  Biso   1.000  C
  C96      1.0000 0.55490  0.75200  0.22600  Biso   1.000  C
  N1       1.0000 0.52102  0.59730  0.13686  Biso   1.000  N
  N2       1.0000 0.44104  0.47622  0.83610  Biso   1.000  N
  N3       1.0000 0.52069  0.59716  0.29866  Biso   1.000  N
  N4       1.0000 0.49160  0.29858  0.82702  Biso   1.000  N
  N5       1.0000 0.25518  0.40270  0.86314  Biso   1.000  N
  N6       1.0000 0.75336  0.52378  0.16390  Biso   1.000  N
  N7       1.0000 0.41651  0.40284  0.70134  Biso   1.000  N
  N8       1.0000 0.61720  0.70142  0.17298  Biso   1.000  N
  O1       1.0000 0.07519  0.72477  0.91125  Biso   1.000  O
  O2       1.0000 0.02960  0.63519  0.97381  Biso   1.000  O
  O3       1.0000 0.83718  0.64594  0.94650  Biso   1.000  O
  O4       1.0000 0.92137  0.62643  0.82823  Biso   1.000  O
  O5       1.0000 0.11522  0.62626  0.79650  Biso   1.000  O
  O6       1.0000 0.03561  0.73935  0.76443  Biso   1.000  O
  O7       1.0000 0.81680  0.79360  0.86240  Biso   1.000  O
  O8       1.0000 0.87101  0.82399  0.93299  Biso   1.000  O
  O9       1.0000 0.71121  0.27523  0.08875  Biso   1.000  O
  O10      1.0000 0.63860  0.36481  0.02619  Biso   1.000  O
  O11      1.0000 0.42962  0.35406  0.05350  Biso   1.000  O
  O12      1.0000 0.37603  0.37357  0.17177  Biso   1.000  O
  O13      1.0000 0.53798  0.37374  0.20350  Biso   1.000  O
  O14      1.0000 0.53939  0.26065  0.23557  Biso   1.000  O
  O15      1.0000 0.47280  0.20640  0.13760  Biso   1.000  O
  O16      1.0000 0.62799  0.17601  0.06701  Biso   1.000  O
  Dy3      1.0000 0.15633  0.88456  0.29838  Biso   1.000  Dy
  Dy4      1.0000 0.33926  0.11544  0.70163  Biso   1.000  Dy
  Cu3      1.0000 0.20007  0.18723  0.40929  Biso   1.000  Cu
  Cu4      1.0000 0.79659  0.81277  0.59071  Biso   1.000  Cu
  H65      1.0000 0.81270  0.06780  0.41740  Biso   1.000  H
  H66      1.0000 0.64560  0.11590  0.44290  Biso   1.000  H
  H67      1.0000 0.85250  0.92400  0.27520  Biso   1.000  H
  H68      1.0000 0.68990  0.97370  0.29750  Biso   1.000  H
  H69      1.0000 0.48250  0.10250  0.49430  Biso   1.000  H
  H70      1.0000 0.32100  0.14480  0.50720  Biso   1.000  H
  H71      1.0000 0.56120  0.07950  0.27590  Biso   1.000  H
  H72      1.0000 0.39780  0.12770  0.29550  Biso   1.000  H
  H73      1.0000 0.38930  0.76770  0.41530  Biso   1.000  H
  H74      1.0000 0.51260  0.75310  0.45370  Biso   1.000  H
  H75      1.0000 0.33190  0.98460  0.38540  Biso   1.000  H
  H76      1.0000 0.45610  0.97150  0.42470  Biso   1.000  H
  H77      1.0000 0.67550  0.75380  0.42300  Biso   1.000  H
  H78      1.0000 0.79210  0.74230  0.46850  Biso   1.000  H
  H79      1.0000 0.51020  0.94990  0.52330  Biso   1.000  H
  H80      1.0000 0.63240  0.93620  0.56340  Biso   1.000  H
  H81      1.0000 0.26050  0.62880  0.24040  Biso   1.000  H
  H82      1.0000 0.27450  0.50590  0.26310  Biso   1.000  H
  H83      1.0000 0.03600  0.68790  0.43670  Biso   1.000  H
  H84      1.0000 0.04950  0.56700  0.45780  Biso   1.000  H
  H85      1.0000 0.31430  0.39920  0.34800  Biso   1.000  H
  H86      1.0000 0.32090  0.27850  0.37250  Biso   1.000  H
  H87      1.0000 0.02320  0.46550  0.40930  Biso   1.000  H
  H88      1.0000 0.03860  0.34490  0.42650  Biso   1.000  H
  H89      1.0000 0.25110  0.92140  0.03540  Biso   1.000  H
  H90      1.0000 0.35530  0.91220  0.91180  Biso   1.000  H
  H91      1.0000 0.48000  0.83250  0.09490  Biso   1.000  H
  H92      1.0000 0.58360  0.81090  0.97170  Biso   1.000  H
  H93      1.0000 0.47990  0.94640  0.80940  Biso   1.000  H
  H94      1.0000 0.59120  0.92710  0.69030  Biso   1.000  H
  H95      1.0000 0.63930  0.74250  0.85790  Biso   1.000  H
  H96      1.0000 0.74750  0.72980  0.73740  Biso   1.000  H
  H97      1.0000 0.29790  0.93220  0.58260  Biso   1.000  H
  H98      1.0000 0.20440  0.88410  0.55710  Biso   1.000  H
  H99      1.0000 0.05170  0.07600  0.72480  Biso   1.000  H
  H100     1.0000 0.96110  0.02630  0.70250  Biso   1.000  H
  H101     1.0000 0.07930  0.89750  0.50570  Biso   1.000  H
  H102     1.0000 0.97300  0.85520  0.49280  Biso   1.000  H
  H103     1.0000 0.91660  0.92050  0.72410  Biso   1.000  H
  H104     1.0000 0.82100  0.87230  0.70450  Biso   1.000  H
  H105     1.0000 0.57230  0.23230  0.58470  Biso   1.000  H
  H106     1.0000 0.71940  0.24690  0.54630  Biso   1.000  H
  H107     1.0000 0.70190  0.01540  0.61460  Biso   1.000  H
  H108     1.0000 0.85230  0.02850  0.57530  Biso   1.000  H
  H109     1.0000 0.85230  0.24620  0.57700  Biso   1.000  H
  H110     1.0000 0.00290  0.25770  0.53150  Biso   1.000  H
  H111     1.0000 0.98340  0.05010  0.47670  Biso   1.000  H
  H112     1.0000 0.13200  0.06380  0.43660  Biso   1.000  H
  H113     1.0000 0.12970  0.37120  0.75960  Biso   1.000  H
  H114     1.0000 0.04350  0.49410  0.73690  Biso   1.000  H
  H115     1.0000 0.16060  0.31210  0.56330  Biso   1.000  H
  H116     1.0000 0.07430  0.43300  0.54220  Biso   1.000  H
  H117     1.0000 0.06150  0.60080  0.65200  Biso   1.000  H
  H118     1.0000 0.97190  0.72150  0.62750  Biso   1.000  H
  H119     1.0000 0.89800  0.53450  0.59070  Biso   1.000  H
  H120     1.0000 0.81000  0.65510  0.57350  Biso   1.000  H
  H121     1.0000 0.20790  0.07860  0.96460  Biso   1.000  H
  H122     1.0000 0.17930  0.08780  0.08820  Biso   1.000  H
  H123     1.0000 0.40740  0.16750  0.90510  Biso   1.000  H
  H124     1.0000 0.36620  0.18910  0.02830  Biso   1.000  H
  H125     1.0000 0.23570  0.05360  0.19060  Biso   1.000  H
  H126     1.0000 0.20860  0.07290  0.30970  Biso   1.000  H
  H127     1.0000 0.23970  0.25750  0.14210  Biso   1.000  H
  H128     1.0000 0.21470  0.27020  0.26260  Biso   1.000  H
  C97      1.0000 0.95980  0.95680  0.32820  Biso   1.000  C
  C98      1.0000 0.85000  0.98950  0.34650  Biso   1.000  C
  C99      1.0000 0.78770  0.04780  0.39420  Biso   1.000  C
  C100     1.0000 0.68730  0.07770  0.40850  Biso   1.000  C
  C101     1.0000 0.81120  0.96260  0.30900  Biso   1.000  C
  C102     1.0000 0.71410  0.99280  0.32240  Biso   1.000  C
  C103     1.0000 0.64850  0.05120  0.37180  Biso   1.000  C
  C104     1.0000 0.54390  0.08290  0.38270  Biso   1.000  C
  C105     1.0000 0.46737  0.10516  0.45290  Biso   1.000  C
  C106     1.0000 0.36980  0.13090  0.46030  Biso   1.000  C
  C107     1.0000 0.51450  0.09200  0.32380  Biso   1.000  C
  C108     1.0000 0.41500  0.12000  0.33660  Biso   1.000  C
  C109     1.0000 0.26630  0.88420  0.37480  Biso   1.000  C
  C110     1.0000 0.34663  0.87803  0.39891  Biso   1.000  C
  C111     1.0000 0.40250  0.80880  0.41780  Biso   1.000  C
  C112     1.0000 0.47700  0.79990  0.44010  Biso   1.000  C
  C113     1.0000 0.36760  0.93830  0.39990  Biso   1.000  C
  C114     1.0000 0.44340  0.93000  0.42280  Biso   1.000  C
  C115     1.0000 0.50010  0.86070  0.44270  Biso   1.000  C
  C116     1.0000 0.57896  0.85294  0.46794  Biso   1.000  C
  C117     1.0000 0.66420  0.79140  0.45240  Biso   1.000  C
  C118     1.0000 0.73450  0.78460  0.48040  Biso   1.000  C
  C119     1.0000 0.56710  0.90720  0.51120  Biso   1.000  C
  C120     1.0000 0.64060  0.89790  0.53650  Biso   1.000  C
  C121     1.0000 0.14410  0.74810  0.32250  Biso   1.000  C
  C122     1.0000 0.14840  0.67080  0.33660  Biso   1.000  C
  C123     1.0000 0.21830  0.61620  0.28460  Biso   1.000  C
  C124     1.0000 0.22610  0.54250  0.29770  Biso   1.000  C
  C125     1.0000 0.08410  0.65180  0.40160  Biso   1.000  C
  C126     1.0000 0.09210  0.57930  0.41370  Biso   1.000  C
  C127     1.0000 0.16130  0.52420  0.36260  Biso   1.000  C
  C128     1.0000 0.16830  0.44620  0.37660  Biso   1.000  C
  C129     1.0000 0.25680  0.38970  0.36510  Biso   1.000  C
  C130     1.0000 0.26000  0.31670  0.37950  Biso   1.000  C
  C131     1.0000 0.08510  0.42820  0.40080  Biso   1.000  C
  C132     1.0000 0.09490  0.35560  0.41180  Biso   1.000  C
  C133     1.0000 0.28730  0.89410  0.15830  Biso   1.000  C
  C134     1.0000 0.35380  0.88310  0.07730  Biso   1.000  C
  C135     1.0000 0.31890  0.90210  0.02310  Biso   1.000  C
  C136     1.0000 0.38150  0.89380  0.94840  Biso   1.000  C
  C137     1.0000 0.45400  0.84790  0.05810  Biso   1.000  C
  C138     1.0000 0.51620  0.83560  0.98400  Biso   1.000  C
  C139     1.0000 0.48010  0.85930  0.92890  Biso   1.000  C
  C140     1.0000 0.54720  0.84710  0.84970  Biso   1.000  C
  C141     1.0000 0.53410  0.90170  0.79650  Biso   1.000  C
  C142     1.0000 0.60160  0.88960  0.72480  Biso   1.000  C
  C143     1.0000 0.62840  0.78160  0.82500  Biso   1.000  C
  C144     1.0000 0.69310  0.77400  0.75200  Biso   1.000  C
  C145     1.0000 0.24480  0.04320  0.67180  Biso   1.000  C
  C146     1.0000 0.18600  0.01050  0.65350  Biso   1.000  C
  C147     1.0000 0.22970  0.95220  0.60580  Biso   1.000  C
  C148     1.0000 0.17350  0.92230  0.59150  Biso   1.000  C
  C149     1.0000 0.08280  0.03740  0.69100  Biso   1.000  C
  C150     1.0000 0.02930  0.00720  0.67760  Biso   1.000  C
  C151     1.0000 0.07150  0.94880  0.62820  Biso   1.000  C
  C152     1.0000 0.00950  0.91710  0.61730  Biso   1.000  C
  C153     1.0000 0.02543  0.89484  0.54710  Biso   1.000  C
  C154     1.0000 0.96100  0.86910  0.53970  Biso   1.000  C
  C155     1.0000 0.93030  0.90800  0.67620  Biso   1.000  C
  C156     1.0000 0.87160  0.88000  0.66340  Biso   1.000  C
  C157     1.0000 0.52530  0.11580  0.62520  Biso   1.000  C
  C158     1.0000 0.62357  0.12197  0.60109  Biso   1.000  C
  C159     1.0000 0.62910  0.19120  0.58220  Biso   1.000  C
  C160     1.0000 0.71700  0.20010  0.55990  Biso   1.000  C
  C161     1.0000 0.70580  0.06170  0.60010  Biso   1.000  C
  C162     1.0000 0.79620  0.07000  0.57720  Biso   1.000  C
  C163     1.0000 0.80350  0.13930  0.55730  Biso   1.000  C
  C164     1.0000 0.89984  0.14706  0.53206  Biso   1.000  C
  C165     1.0000 0.90800  0.20860  0.54760  Biso   1.000  C
  C166     1.0000 0.99950  0.21540  0.51960  Biso   1.000  C
  C167     1.0000 0.98550  0.09280  0.48880  Biso   1.000  C
  C168     1.0000 0.07500  0.10210  0.46350  Biso   1.000  C
  C169     1.0000 0.21470  0.25190  0.67750  Biso   1.000  C
  C170     1.0000 0.15580  0.32920  0.66340  Biso   1.000  C
  C171     1.0000 0.11910  0.38380  0.71540  Biso   1.000  C
  C172     1.0000 0.06630  0.45750  0.70230  Biso   1.000  C
  C173     1.0000 0.13750  0.34820  0.59840  Biso   1.000  C
  C174     1.0000 0.08510  0.42070  0.58630  Biso   1.000  C
  C175     1.0000 0.04810  0.47580  0.63740  Biso   1.000  C
  C176     1.0000 0.99110  0.55380  0.62340  Biso   1.000  C
  C177     1.0000 0.01160  0.61030  0.63490  Biso   1.000  C
  C178     1.0000 0.95620  0.68330  0.62050  Biso   1.000  C
  C179     1.0000 0.91410  0.57180  0.59920  Biso   1.000  C
  C180     1.0000 0.86230  0.64440  0.58820  Biso   1.000  C
  C181     1.0000 0.33970  0.10590  0.84170  Biso   1.000  C
  C182     1.0000 0.31420  0.11690  0.92270  Biso   1.000  C
  C183     1.0000 0.24410  0.09790  0.97690  Biso   1.000  C
  C184     1.0000 0.22370  0.10620  0.05160  Biso   1.000  C
  C185     1.0000 0.36000  0.15210  0.94190  Biso   1.000  C
  C186     1.0000 0.33580  0.16440  0.01600  Biso   1.000  C
  C187     1.0000 0.26830  0.14070  0.07110  Biso   1.000  C
  C188     1.0000 0.24400  0.15290  0.15030  Biso   1.000  C
  C189     1.0000 0.23230  0.09830  0.20350  Biso   1.000  C
  C190     1.0000 0.21600  0.11040  0.27520  Biso   1.000  C
  C191     1.0000 0.23500  0.21840  0.17500  Biso   1.000  C
  C192     1.0000 0.21910  0.22600  0.24800  Biso   1.000  C
  N9       1.0000 0.34212  0.13686  0.40270  Biso   1.000  N
  N10      1.0000 0.72286  0.83610  0.52378  Biso   1.000  N
  N11      1.0000 0.18065  0.29866  0.40284  Biso   1.000  N
  N12      1.0000 0.68138  0.82702  0.70142  Biso   1.000  N
  N13      1.0000 0.88168  0.86314  0.59730  Biso   1.000  N
  N14      1.0000 0.08274  0.16390  0.47622  Biso   1.000  N
  N15      1.0000 0.88215  0.70134  0.59716  Biso   1.000  N
  N16      1.0000 0.20982  0.17298  0.29858  Biso   1.000  N
  O17      1.0000 0.01356  0.91125  0.27523  Biso   1.000  O
  O18      1.0000 0.99659  0.97381  0.36481  Biso   1.000  O
  O19      1.0000 0.21632  0.94650  0.35406  Biso   1.000  O
  O20      1.0000 0.25040  0.82823  0.37357  Biso   1.000  O
  O21      1.0000 0.08828  0.79650  0.37374  Biso   1.000  O
  O22      1.0000 0.19996  0.76443  0.26065  Biso   1.000  O
  O23      1.0000 0.32080  0.86240  0.20640  Biso   1.000  O
  O24      1.0000 0.19600  0.93299  0.17601  Biso   1.000  O
  O25      1.0000 0.20004  0.08875  0.72477  Biso   1.000  O
  O26      1.0000 0.33521  0.02619  0.63519  Biso   1.000  O
  O27      1.0000 0.51688  0.05350  0.64594  Biso   1.000  O
  O28      1.0000 0.45220  0.17177  0.62643  Biso   1.000  O
  O29      1.0000 0.25852  0.20350  0.62626  Biso   1.000  O
  O30      1.0000 0.22504  0.23557  0.73935  Biso   1.000  O
  O31      1.0000 0.38960  0.13760  0.79360  Biso   1.000  O
  O32      1.0000 0.30500  0.06701  0.82399  Biso   1.000  O
