data_image0
_cell_length_a       15.9224
_cell_length_b       19.6814
_cell_length_c       19.6814
_cell_angle_alpha    80.5827
_cell_angle_beta     66.14
_cell_angle_gamma    66.1399

_symmetry_space_group_name_H-M    P 1
_symmetry_int_tables_number       1

loop_
  _symmetry_equiv_pos_as_xyz
  'x, y, z'

loop_
  _atom_site_label
  _atom_site_occupancy
  _atom_site_fract_x
  _atom_site_fract_y
  _atom_site_fract_z
  _atom_site_thermal_displace_type
  _atom_site_B_iso_or_equiv
  _atom_site_type_symbol
  Er1      1.0000 0.20571  0.38278  0.20189  Biso   1.000  Er
  Er2      1.0000 0.79038  0.61722  0.79811  Biso   1.000  Er
  Cu1      1.0000 0.36036  0.68624  0.09070  Biso   1.000  Cu
  Cu2      1.0000 0.13730  0.31376  0.90930  Biso   1.000  Cu
  H1       1.0000 0.03540  0.42570  0.46270  Biso   1.000  H
  H2       1.0000 0.01570  0.40810  0.58590  Biso   1.000  H
  H3       1.0000 0.32580  0.33070  0.40510  Biso   1.000  H
  H4       1.0000 0.30630  0.31170  0.52750  Biso   1.000  H
  H5       1.0000 0.24890  0.24320  0.64160  Biso   1.000  H
  H6       1.0000 0.23460  0.23160  0.76140  Biso   1.000  H
  H7       1.0000 0.03700  0.44680  0.69080  Biso   1.000  H
  H8       1.0000 0.03230  0.42860  0.80880  Biso   1.000  H
  H9       1.0000 0.98430  0.56480  0.08080  Biso   1.000  H
  H10      1.0000 0.83920  0.61690  0.05890  Biso   1.000  H
  H11      1.0000 0.88120  0.42250  0.22510  Biso   1.000  H
  H12      1.0000 0.73650  0.47360  0.20380  Biso   1.000  H
  H13      1.0000 0.72840  0.60150  0.00630  Biso   1.000  H
  H14      1.0000 0.57950  0.64350  0.99290  Biso   1.000  H
  H15      1.0000 0.58780  0.58050  0.22370  Biso   1.000  H
  H16      1.0000 0.44390  0.62480  0.20460  Biso   1.000  H
  H17      1.0000 0.55510  0.26710  0.08270  Biso   1.000  H
  H18      1.0000 0.71760  0.25320  0.04740  Biso   1.000  H
  H19      1.0000 0.46730  0.48490  0.11330  Biso   1.000  H
  H20      1.0000 0.63100  0.47080  0.07700  Biso   1.000  H
  H21      1.0000 0.84810  0.25500  0.07900  Biso   1.000  H
  H22      1.0000 0.01060  0.24380  0.03220  Biso   1.000  H
  H23      1.0000 0.78210  0.45120  0.97680  Biso   1.000  H
  H24      1.0000 0.94550  0.43620  0.93480  Biso   1.000  H
  H25      1.0000 0.22640  0.18700  0.06280  Biso   1.000  H
  H26      1.0000 0.25520  0.06660  0.04200  Biso   1.000  H
  H27      1.0000 0.24950  0.12850  0.26050  Biso   1.000  H
  H28      1.0000 0.28630  0.00620  0.23740  Biso   1.000  H
  H29      1.0000 0.18080  0.96490  0.09190  Biso   1.000  H
  H30      1.0000 0.21520  0.84360  0.07380  Biso   1.000  H
  H31      1.0000 0.41400  0.89660  0.15220  Biso   1.000  H
  H32      1.0000 0.44390  0.77860  0.12820  Biso   1.000  H
  H33      1.0000 0.92380  0.57430  0.53730  Biso   1.000  H
  H34      1.0000 0.00970  0.59190  0.41410  Biso   1.000  H
  H35      1.0000 0.06160  0.66930  0.59490  Biso   1.000  H
  H36      1.0000 0.14550  0.68830  0.47250  Biso   1.000  H
  H37      1.0000 0.13370  0.75680  0.35840  Biso   1.000  H
  H38      1.0000 0.22760  0.76840  0.23860  Biso   1.000  H
  H39      1.0000 0.17460  0.55320  0.30920  Biso   1.000  H
  H40      1.0000 0.26970  0.57140  0.19120  Biso   1.000  H
  H41      1.0000 0.62990  0.43520  0.91920  Biso   1.000  H
  H42      1.0000 0.51500  0.38310  0.94110  Biso   1.000  H
  H43      1.0000 0.52880  0.57750  0.77490  Biso   1.000  H
  H44      1.0000 0.41390  0.52640  0.79620  Biso   1.000  H
  H45      1.0000 0.33620  0.39850  0.99370  Biso   1.000  H
  H46      1.0000 0.21590  0.35650  0.00710  Biso   1.000  H
  H47      1.0000 0.39200  0.41950  0.77630  Biso   1.000  H
  H48      1.0000 0.27330  0.37520  0.79540  Biso   1.000  H
  H49      1.0000 0.90490  0.73290  0.91730  Biso   1.000  H
  H50      1.0000 0.01820  0.74680  0.95260  Biso   1.000  H
  H51      1.0000 0.06550  0.51510  0.88670  Biso   1.000  H
  H52      1.0000 0.17880  0.52920  0.92300  Biso   1.000  H
  H53      1.0000 0.18210  0.74500  0.92100  Biso   1.000  H
  H54      1.0000 0.28660  0.75620  0.96780  Biso   1.000  H
  H55      1.0000 0.21010  0.54880  0.02320  Biso   1.000  H
  H56      1.0000 0.31650  0.56380  0.06520  Biso   1.000  H
  H57      1.0000 0.47620  0.81300  0.93720  Biso   1.000  H
  H58      1.0000 0.36380  0.93340  0.95800  Biso   1.000  H
  H59      1.0000 0.63850  0.87150  0.73950  Biso   1.000  H
  H60      1.0000 0.52990  0.99380  0.76260  Biso   1.000  H
  H61      1.0000 0.23760  0.03510  0.90810  Biso   1.000  H
  H62      1.0000 0.13260  0.15640  0.92620  Biso   1.000  H
  H63      1.0000 0.46280  0.10340  0.84780  Biso   1.000  H
  H64      1.0000 0.35070  0.22140  0.87180  Biso   1.000  H
  C1       1.0000 0.19610  0.39250  0.34110  Biso   1.000  C
  C2       1.0000 0.18190  0.38250  0.42150  Biso   1.000  C
  C3       1.0000 0.09090  0.40360  0.47540  Biso   1.000  C
  C4       1.0000 0.07930  0.39260  0.54960  Biso   1.000  C
  C5       1.0000 0.26250  0.34720  0.44160  Biso   1.000  C
  C6       1.0000 0.25080  0.33590  0.51510  Biso   1.000  C
  C7       1.0000 0.15840  0.35970  0.57090  Biso   1.000  C
  C8       1.0000 0.14600  0.34730  0.64990  Biso   1.000  C
  C9       1.0000 0.20380  0.28230  0.67450  Biso   1.000  C
  C10      1.0000 0.19450  0.27590  0.74670  Biso   1.000  C
  C11      1.0000 0.07920  0.40240  0.70340  Biso   1.000  C
  C12      1.0000 0.07630  0.39050  0.77450  Biso   1.000  C
  C13      1.0000 0.03860  0.45480  0.17300  Biso   1.000  C
  C14      1.0000 0.94790  0.48890  0.15490  Biso   1.000  C
  C15      1.0000 0.93430  0.54640  0.10560  Biso   1.000  C
  C16      1.0000 0.84730  0.57760  0.09220  Biso   1.000  C
  C17      1.0000 0.87280  0.46150  0.19170  Biso   1.000  C
  C18      1.0000 0.78640  0.49220  0.17860  Biso   1.000  C
  C19      1.0000 0.77210  0.55030  0.12830  Biso   1.000  C
  C20      1.0000 0.67750  0.58210  0.11710  Biso   1.000  C
  C21      1.0000 0.67138  0.60422  0.04762  Biso   1.000  C
  C22      1.0000 0.58140  0.63000  0.04000  Biso   1.000  C
  C23      1.0000 0.58890  0.59200  0.17560  Biso   1.000  C
  C24      1.0000 0.50220  0.61880  0.16360  Biso   1.000  C
  C25      1.0000 0.39030  0.38390  0.12710  Biso   1.000  C
  C26      1.0000 0.49450  0.37740  0.10260  Biso   1.000  C
  C27      1.0000 0.57030  0.30820  0.08180  Biso   1.000  C
  C28      1.0000 0.66770  0.30000  0.06000  Biso   1.000  C
  C29      1.0000 0.51740  0.43830  0.10010  Biso   1.000  C
  C30      1.0000 0.61580  0.42970  0.07790  Biso   1.000  C
  C31      1.0000 0.69160  0.36130  0.05690  Biso   1.000  C
  C32      1.0000 0.79655  0.35348  0.03142  Biso   1.000  C
  C33      1.0000 0.86650  0.29210  0.04870  Biso   1.000  C
  C34      1.0000 0.96440  0.28590  0.02030  Biso   1.000  C
  C35      1.0000 0.82740  0.40820  0.98860  Biso   1.000  C
  C36      1.0000 0.92610  0.39850  0.96310  Biso   1.000  C
  C37      1.0000 0.21770  0.24770  0.17790  Biso   1.000  C
  C38      1.0000 0.23500  0.17050  0.16390  Biso   1.000  C
  C39      1.0000 0.23730  0.15090  0.09850  Biso   1.000  C
  C40      1.0000 0.25560  0.07860  0.08560  Biso   1.000  C
  C41      1.0000 0.25210  0.11600  0.21600  Biso   1.000  C
  C42      1.0000 0.27300  0.04280  0.20260  Biso   1.000  C
  C43      1.0000 0.27420  0.02410  0.13730  Biso   1.000  C
  C44      1.0000 0.29480  0.94620  0.12360  Biso   1.000  C
  C45      1.0000 0.23500  0.92780  0.10000  Biso   1.000  C
  C46      1.0000 0.25690  0.85450  0.08870  Biso   1.000  C
  C47      1.0000 0.37290  0.88770  0.13490  Biso   1.000  C
  C48      1.0000 0.38990  0.81660  0.12100  Biso   1.000  C
  C49      1.0000 0.92970  0.60750  0.65890  Biso   1.000  C
  C50      1.0000 0.98590  0.61750  0.57850  Biso   1.000  C
  C51      1.0000 0.96990  0.59640  0.52460  Biso   1.000  C
  C52      1.0000 0.02150  0.60740  0.45040  Biso   1.000  C
  C53      1.0000 0.05130  0.65280  0.55840  Biso   1.000  C
  C54      1.0000 0.10180  0.66410  0.48490  Biso   1.000  C
  C55      1.0000 0.08900  0.64030  0.42910  Biso   1.000  C
  C56      1.0000 0.14320  0.65270  0.35010  Biso   1.000  C
  C57      1.0000 0.16060  0.71770  0.32550  Biso   1.000  C
  C58      1.0000 0.21710  0.72410  0.25330  Biso   1.000  C
  C59      1.0000 0.18500  0.59760  0.29660  Biso   1.000  C
  C60      1.0000 0.24130  0.60950  0.22550  Biso   1.000  C
  C61      1.0000 0.66640  0.54520  0.82700  Biso   1.000  C
  C62      1.0000 0.59170  0.51110  0.84510  Biso   1.000  C
  C63      1.0000 0.58630  0.45360  0.89440  Biso   1.000  C
  C64      1.0000 0.51710  0.42240  0.90780  Biso   1.000  C
  C65      1.0000 0.52600  0.53850  0.80830  Biso   1.000  C
  C66      1.0000 0.45720  0.50780  0.82140  Biso   1.000  C
  C67      1.0000 0.45070  0.44970  0.87170  Biso   1.000  C
  C68      1.0000 0.37670  0.41790  0.88290  Biso   1.000  C
  C69      1.0000 0.32322  0.39578  0.95238  Biso   1.000  C
  C70      1.0000 0.25140  0.37000  0.96000  Biso   1.000  C
  C71      1.0000 0.35650  0.40800  0.82440  Biso   1.000  C
  C72      1.0000 0.28460  0.38120  0.83640  Biso   1.000  C
  C73      1.0000 0.90130  0.61610  0.87290  Biso   1.000  C
  C74      1.0000 0.97450  0.62260  0.89740  Biso   1.000  C
  C75      1.0000 0.96030  0.69180  0.91820  Biso   1.000  C
  C76      1.0000 0.02770  0.70000  0.94000  Biso   1.000  C
  C77      1.0000 0.05580  0.56170  0.89990  Biso   1.000  C
  C78      1.0000 0.12340  0.57030  0.92210  Biso   1.000  C
  C79      1.0000 0.10980  0.63870  0.94310  Biso   1.000  C
  C80      1.0000 0.18145  0.64652  0.96858  Biso   1.000  C
  C81      1.0000 0.20730  0.70790  0.95130  Biso   1.000  C
  C82      1.0000 0.27060  0.71410  0.97970  Biso   1.000  C
  C83      1.0000 0.22420  0.59180  0.01140  Biso   1.000  C
  C84      1.0000 0.28770  0.60150  0.03690  Biso   1.000  C
  C85      1.0000 0.64330  0.75230  0.82210  Biso   1.000  C
  C86      1.0000 0.56940  0.82950  0.83610  Biso   1.000  C
  C87      1.0000 0.48670  0.84910  0.90150  Biso   1.000  C
  C88      1.0000 0.41980  0.92140  0.91440  Biso   1.000  C
  C89      1.0000 0.58410  0.88400  0.78400  Biso   1.000  C
  C90      1.0000 0.51840  0.95720  0.79740  Biso   1.000  C
  C91      1.0000 0.43560  0.97590  0.86270  Biso   1.000  C
  C92      1.0000 0.36460  0.05380  0.87640  Biso   1.000  C
  C93      1.0000 0.26280  0.07220  0.90000  Biso   1.000  C
  C94      1.0000 0.20010  0.14550  0.91130  Biso   1.000  C
  C95      1.0000 0.39550  0.11230  0.86510  Biso   1.000  C
  C96      1.0000 0.32750  0.18340  0.87900  Biso   1.000  C
  N1       1.0000 0.13222  0.32812  0.79804  Biso   1.000  N
  N2       1.0000 0.49568  0.63684  0.09780  Biso   1.000  N
  N3       1.0000 0.99550  0.33743  0.97697  Biso   1.000  N
  N4       1.0000 0.33377  0.79802  0.09744  Biso   1.000  N
  N5       1.0000 0.25838  0.67188  0.20196  Biso   1.000  N
  N6       1.0000 0.23032  0.36316  0.90220  Biso   1.000  N
  N7       1.0000 0.30990  0.66257  0.02303  Biso   1.000  N
  N8       1.0000 0.22923  0.20198  0.90256  Biso   1.000  N
  O1       1.0000 0.27830  0.35970  0.29310  Biso   1.000  O
  O2       1.0000 0.12441  0.43219  0.32239  Biso   1.000  O
  O3       1.0000 0.03960  0.40966  0.22554  Biso   1.000  O
  O4       1.0000 0.11330  0.47228  0.13672  Biso   1.000  O
  O5       1.0000 0.31912  0.44527  0.14749  Biso   1.000  O
  O6       1.0000 0.37358  0.32712  0.12732  Biso   1.000  O
  O7       1.0000 0.21352  0.29599  0.12617  Biso   1.000  O
  O8       1.0000 0.21021  0.26448  0.23970  Biso   1.000  O
  O9       1.0000 0.93110  0.64030  0.70690  Biso   1.000  O
  O10      1.0000 0.87899  0.56781  0.67761  Biso   1.000  O
  O11      1.0000 0.67480  0.59034  0.77446  Biso   1.000  O
  O12      1.0000 0.72230  0.52772  0.86328  Biso   1.000  O
  O13      1.0000 0.91188  0.55473  0.85251  Biso   1.000  O
  O14      1.0000 0.82802  0.67288  0.87268  Biso   1.000  O
  O15      1.0000 0.63568  0.70401  0.87383  Biso   1.000  O
  O16      1.0000 0.71439  0.73552  0.76030  Biso   1.000  O
  Er3      1.0000 0.59240  0.20189  0.61722  Biso   1.000  Er
  Er4      1.0000 0.41151  0.79811  0.38278  Biso   1.000  Er
  Cu3      1.0000 0.54894  0.09070  0.31376  Biso   1.000  Cu
  Cu4      1.0000 0.95340  0.90930  0.68624  Biso   1.000  Cu
  H65      1.0000 0.50190  0.46270  0.57430  Biso   1.000  H
  H66      1.0000 0.39840  0.58590  0.59190  Biso   1.000  H
  H67      1.0000 0.26910  0.40510  0.66930  Biso   1.000  H
  H68      1.0000 0.16620  0.52750  0.68830  Biso   1.000  H
  H69      1.0000 0.10950  0.64160  0.75680  Biso   1.000  H
  H70      1.0000 0.00400  0.76140  0.76840  Biso   1.000  H
  H71      1.0000 0.27220  0.69080  0.55320  Biso   1.000  H
  H72      1.0000 0.15890  0.80880  0.57140  Biso   1.000  H
  H73      1.0000 0.93490  0.08080  0.43520  Biso   1.000  H
  H74      1.0000 0.10190  0.05890  0.38310  Biso   1.000  H
  H75      1.0000 0.89370  0.22510  0.57750  Biso   1.000  H
  H76      1.0000 0.05970  0.20380  0.52640  Biso   1.000  H
  H77      1.0000 0.26530  0.00630  0.39850  Biso   1.000  H
  H78      1.0000 0.42760  0.99290  0.35650  Biso   1.000  H
  H79      1.0000 0.18850  0.22370  0.41950  Biso   1.000  H
  H80      1.0000 0.35150  0.20460  0.37520  Biso   1.000  H
  H81      1.0000 0.36220  0.08270  0.73290  Biso   1.000  H
  H82      1.0000 0.23500  0.04740  0.74680  Biso   1.000  H
  H83      1.0000 0.41940  0.11330  0.51510  Biso   1.000  H
  H84      1.0000 0.29200  0.07700  0.52920  Biso   1.000  H
  H85      1.0000 0.07290  0.07900  0.74500  Biso   1.000  H
  H86      1.0000 0.95720  0.03220  0.75620  Biso   1.000  H
  H87      1.0000 0.24110  0.97680  0.54880  Biso   1.000  H
  H88      1.0000 0.11970  0.93480  0.56380  Biso   1.000  H
  H89      1.0000 0.71080  0.06280  0.81300  Biso   1.000  H
  H90      1.0000 0.70280  0.04200  0.93340  Biso   1.000  H
  H91      1.0000 0.49000  0.26050  0.87150  Biso   1.000  H
  H92      1.0000 0.47630  0.23740  0.99380  Biso   1.000  H
  H93      1.0000 0.72730  0.09190  0.03510  Biso   1.000  H
  H94      1.0000 0.71100  0.07380  0.15640  Biso   1.000  H
  H95      1.0000 0.43380  0.15220  0.10340  Biso   1.000  H
  H96      1.0000 0.42790  0.12820  0.22140  Biso   1.000  H
  H97      1.0000 0.53890  0.53730  0.42570  Biso   1.000  H
  H98      1.0000 0.57620  0.41410  0.40810  Biso   1.000  H
  H99      1.0000 0.34350  0.59490  0.33070  Biso   1.000  H
  H100     1.0000 0.38200  0.47250  0.31170  Biso   1.000  H
  H101     1.0000 0.50790  0.35840  0.24320  Biso   1.000  H
  H102     1.0000 0.53380  0.23860  0.23160  Biso   1.000  H
  H103     1.0000 0.51620  0.30920  0.44680  Biso   1.000  H
  H104     1.0000 0.53910  0.19120  0.42860  Biso   1.000  H
  H105     1.0000 0.45090  0.91920  0.56480  Biso   1.000  H
  H106     1.0000 0.54390  0.94110  0.61690  Biso   1.000  H
  H107     1.0000 0.69630  0.77490  0.42250  Biso   1.000  H
  H108     1.0000 0.78990  0.79620  0.47360  Biso   1.000  H
  H109     1.0000 0.67010  0.99370  0.60150  Biso   1.000  H
  H110     1.0000 0.77700  0.00710  0.64350  Biso   1.000  H
  H111     1.0000 0.83170  0.77630  0.58050  Biso   1.000  H
  H112     1.0000 0.93130  0.79540  0.62480  Biso   1.000  H
  H113     1.0000 0.17780  0.91730  0.26710  Biso   1.000  H
  H114     1.0000 0.02920  0.95260  0.25320  Biso   1.000  H
  H115     1.0000 0.04780  0.88670  0.48490  Biso   1.000  H
  H116     1.0000 0.89820  0.92300  0.47080  Biso   1.000  H
  H117     1.0000 0.89690  0.92100  0.25500  Biso   1.000  H
  H118     1.0000 0.74560  0.96780  0.24380  Biso   1.000  H
  H119     1.0000 0.76670  0.02320  0.45120  Biso   1.000  H
  H120     1.0000 0.61830  0.06520  0.43620  Biso   1.000  H
  H121     1.0000 0.58660  0.93720  0.18700  Biso   1.000  H
  H122     1.0000 0.67820  0.95800  0.06660  Biso   1.000  H
  H123     1.0000 0.62200  0.73950  0.12850  Biso   1.000  H
  H124     1.0000 0.70750  0.76260  0.00620  Biso   1.000  H
  H125     1.0000 0.85430  0.90810  0.96490  Biso   1.000  H
  H126     1.0000 0.94120  0.92620  0.84360  Biso   1.000  H
  H127     1.0000 0.68940  0.84780  0.89660  Biso   1.000  H
  H128     1.0000 0.77750  0.87180  0.77860  Biso   1.000  H
  C97      1.0000 0.46280  0.34110  0.60750  Biso   1.000  C
  C98      1.0000 0.39660  0.42150  0.61750  Biso   1.000  C
  C99      1.0000 0.43370  0.47540  0.59640  Biso   1.000  C
  C100     1.0000 0.37110  0.54960  0.60740  Biso   1.000  C
  C101     1.0000 0.29590  0.44160  0.65280  Biso   1.000  C
  C102     1.0000 0.23410  0.51510  0.66410  Biso   1.000  C
  C103     1.0000 0.27070  0.57090  0.64030  Biso   1.000  C
  C104     1.0000 0.20410  0.64990  0.65270  Biso   1.000  C
  C105     1.0000 0.12170  0.67450  0.71770  Biso   1.000  C
  C106     1.0000 0.05880  0.74670  0.72410  Biso   1.000  C
  C107     1.0000 0.21740  0.70340  0.59760  Biso   1.000  C
  C108     1.0000 0.14920  0.77450  0.60950  Biso   1.000  C
  C109     1.0000 0.78840  0.17300  0.54520  Biso   1.000  C
  C110     1.0000 0.89720  0.15490  0.51110  Biso   1.000  C
  C111     1.0000 0.96010  0.10560  0.45360  Biso   1.000  C
  C112     1.0000 0.06050  0.09220  0.42240  Biso   1.000  C
  C113     1.0000 0.93550  0.19170  0.53850  Biso   1.000  C
  C114     1.0000 0.03500  0.17860  0.50780  Biso   1.000  C
  C115     1.0000 0.09960  0.12830  0.44970  Biso   1.000  C
  C116     1.0000 0.20540  0.11710  0.41790  Biso   1.000  C
  C117     1.0000 0.28100  0.04762  0.39578  Biso   1.000  C
  C118     1.0000 0.37860  0.04000  0.37000  Biso   1.000  C
  C119     1.0000 0.23550  0.17560  0.40800  Biso   1.000  C
  C120     1.0000 0.33420  0.16360  0.38120  Biso   1.000  C
  C121     1.0000 0.48260  0.12710  0.61610  Biso   1.000  C
  C122     1.0000 0.40290  0.10260  0.62260  Biso   1.000  C
  C123     1.0000 0.34790  0.08180  0.69180  Biso   1.000  C
  C124     1.0000 0.27230  0.06000  0.70000  Biso   1.000  C
  C125     1.0000 0.38250  0.10010  0.56170  Biso   1.000  C
  C126     1.0000 0.30630  0.07790  0.57030  Biso   1.000  C
  C127     1.0000 0.25150  0.05690  0.63870  Biso   1.000  C
  C128     1.0000 0.17203  0.03142  0.64652  Biso   1.000  C
  C129     1.0000 0.08480  0.04870  0.70790  Biso   1.000  C
  C130     1.0000 0.01530  0.02030  0.71410  Biso   1.000  C
  C131     1.0000 0.18400  0.98860  0.59180  Biso   1.000  C
  C132     1.0000 0.11080  0.96310  0.60150  Biso   1.000  C
  C133     1.0000 0.60440  0.17790  0.75230  Biso   1.000  C
  C134     1.0000 0.60110  0.16390  0.82950  Biso   1.000  C
  C135     1.0000 0.66420  0.09850  0.84910  Biso   1.000  C
  C136     1.0000 0.65880  0.08560  0.92140  Biso   1.000  C
  C137     1.0000 0.53190  0.21600  0.88400  Biso   1.000  C
  C138     1.0000 0.52440  0.20260  0.95720  Biso   1.000  C
  C139     1.0000 0.58850  0.13730  0.97590  Biso   1.000  C
  C140     1.0000 0.58160  0.12360  0.05380  Biso   1.000  C
  C141     1.0000 0.66500  0.10000  0.07220  Biso   1.000  C
  C142     1.0000 0.65440  0.08870  0.14550  Biso   1.000  C
  C143     1.0000 0.49220  0.13490  0.11230  Biso   1.000  C
  C144     1.0000 0.48910  0.12100  0.18340  Biso   1.000  C
  C145     1.0000 0.41140  0.65890  0.39250  Biso   1.000  C
  C146     1.0000 0.43560  0.57850  0.38250  Biso   1.000  C
  C147     1.0000 0.50550  0.52460  0.40360  Biso   1.000  C
  C148     1.0000 0.52810  0.45040  0.39260  Biso   1.000  C
  C149     1.0000 0.39030  0.55840  0.34720  Biso   1.000  C
  C150     1.0000 0.41330  0.48490  0.33590  Biso   1.000  C
  C151     1.0000 0.48190  0.42910  0.35970  Biso   1.000  C
  C152     1.0000 0.50670  0.35010  0.34730  Biso   1.000  C
  C153     1.0000 0.51390  0.32550  0.28230  Biso   1.000  C
  C154     1.0000 0.52960  0.25330  0.27590  Biso   1.000  C
  C155     1.0000 0.51840  0.29660  0.40240  Biso   1.000  C
  C156     1.0000 0.53320  0.22550  0.39050  Biso   1.000  C
  C157     1.0000 0.50660  0.82700  0.45480  Biso   1.000  C
  C158     1.0000 0.56320  0.84510  0.48890  Biso   1.000  C
  C159     1.0000 0.51930  0.89440  0.54640  Biso   1.000  C
  C160     1.0000 0.57510  0.90780  0.57760  Biso   1.000  C
  C161     1.0000 0.66570  0.80830  0.46150  Biso   1.000  C
  C162     1.0000 0.72140  0.82140  0.49220  Biso   1.000  C
  C163     1.0000 0.67760  0.87170  0.55030  Biso   1.000  C
  C164     1.0000 0.74040  0.88290  0.58210  Biso   1.000  C
  C165     1.0000 0.72440  0.95238  0.60422  Biso   1.000  C
  C166     1.0000 0.78860  0.96000  0.63000  Biso   1.000  C
  C167     1.0000 0.81910  0.82440  0.59200  Biso   1.000  C
  C168     1.0000 0.87900  0.83640  0.61880  Biso   1.000  C
  C169     1.0000 0.22580  0.87290  0.38390  Biso   1.000  C
  C170     1.0000 0.12810  0.89740  0.37740  Biso   1.000  C
  C171     1.0000 0.12150  0.91820  0.30820  Biso   1.000  C
  C172     1.0000 0.03230  0.94000  0.30000  Biso   1.000  C
  C173     1.0000 0.04430  0.89990  0.43830  Biso   1.000  C
  C174     1.0000 0.95450  0.92210  0.42970  Biso   1.000  C
  C175     1.0000 0.94710  0.94310  0.36130  Biso   1.000  C
  C176     1.0000 0.84997  0.96858  0.35348  Biso   1.000  C
  C177     1.0000 0.84140  0.95130  0.29210  Biso   1.000  C
  C178     1.0000 0.74970  0.97970  0.28590  Biso   1.000  C
  C179     1.0000 0.76440  0.01140  0.40820  Biso   1.000  C
  C180     1.0000 0.67540  0.03690  0.39850  Biso   1.000  C
  C181     1.0000 0.53460  0.82210  0.24770  Biso   1.000  C
  C182     1.0000 0.59450  0.83610  0.17050  Biso   1.000  C
  C183     1.0000 0.61180  0.90150  0.15090  Biso   1.000  C
  C184     1.0000 0.66580  0.91440  0.07860  Biso   1.000  C
  C185     1.0000 0.63190  0.78400  0.11600  Biso   1.000  C
  C186     1.0000 0.68420  0.79740  0.04280  Biso   1.000  C
  C187     1.0000 0.70170  0.86270  0.02410  Biso   1.000  C
  C188     1.0000 0.75900  0.87640  0.94620  Biso   1.000  C
  C189     1.0000 0.83720  0.90000  0.92780  Biso   1.000  C
  C190     1.0000 0.88860  0.91130  0.85450  Biso   1.000  C
  C191     1.0000 0.73940  0.86510  0.88770  Biso   1.000  C
  C192     1.0000 0.79350  0.87900  0.81660  Biso   1.000  C
  N9       1.0000 0.06974  0.79804  0.67188  Biso   1.000  N
  N10      1.0000 0.40652  0.09780  0.36316  Biso   1.000  N
  N11      1.0000 0.02753  0.97697  0.66257  Biso   1.000  N
  N12      1.0000 0.56879  0.09744  0.20198  Biso   1.000  N
  N13      1.0000 0.53966  0.20196  0.32812  Biso   1.000  N
  N14      1.0000 0.86748  0.90220  0.63684  Biso   1.000  N
  N15      1.0000 0.66707  0.02303  0.33743  Biso   1.000  N
  N16      1.0000 0.86821  0.90256  0.79802  Biso   1.000  N
  O17      1.0000 0.42860  0.29310  0.64030  Biso   1.000  O
  O18      1.0000 0.55320  0.32239  0.56781  Biso   1.000  O
  O19      1.0000 0.73486  0.22554  0.59034  Biso   1.000  O
  O20      1.0000 0.74998  0.13672  0.52772  Biso   1.000  O
  O21      1.0000 0.53339  0.14749  0.55473  Biso   1.000  O
  O22      1.0000 0.49910  0.12732  0.67288  Biso   1.000  O
  O23      1.0000 0.66031  0.12617  0.70401  Biso   1.000  O
  O24      1.0000 0.55009  0.23970  0.73552  Biso   1.000  O
  O25      1.0000 0.36200  0.70690  0.35970  Biso   1.000  O
  O26      1.0000 0.44340  0.67761  0.43219  Biso   1.000  O
  O27      1.0000 0.55074  0.77446  0.40966  Biso   1.000  O
  O28      1.0000 0.41442  0.86328  0.47228  Biso   1.000  O
  O29      1.0000 0.23561  0.85251  0.44527  Biso   1.000  O
  O30      1.0000 0.29930  0.87268  0.32712  Biso   1.000  O
  O31      1.0000 0.49049  0.87383  0.29599  Biso   1.000  O
  O32      1.0000 0.52531  0.76030  0.26448  Biso   1.000  O
