data_image0
_cell_length_a       8.522
_cell_length_b       10.18
_cell_length_c       17.534
_cell_angle_alpha    90
_cell_angle_beta     100.627
_cell_angle_gamma    90

_symmetry_space_group_name_H-M    P 1
_symmetry_int_tables_number       1

loop_
  _symmetry_equiv_pos_as_xyz
  'x, y, z'

loop_
  _atom_site_label
  _atom_site_occupancy
  _atom_site_fract_x
  _atom_site_fract_y
  _atom_site_fract_z
  _atom_site_thermal_displace_type
  _atom_site_B_iso_or_equiv
  _atom_site_type_symbol
  Cu1      1.0000 0.01522  0.67292  0.09536  Biso   1.000  Cu
  Cu2      1.0000 0.48478  0.17292  0.40464  Biso   1.000  Cu
  Cu3      1.0000 0.98478  0.32708  0.90464  Biso   1.000  Cu
  Cu4      1.0000 0.51522  0.82708  0.59536  Biso   1.000  Cu
  H1       1.0000 0.43270  0.38640  0.03630  Biso   1.000  H
  H2       1.0000 0.49450  0.27780  0.15620  Biso   1.000  H
  H3       1.0000 0.16030  0.49700  0.22780  Biso   1.000  H
  H4       1.0000 0.72090  0.74240  0.14030  Biso   1.000  H
  H5       1.0000 0.49470  0.86780  0.10300  Biso   1.000  H
  H6       1.0000 0.69950  0.01050  0.93230  Biso   1.000  H
  H7       1.0000 0.91770  0.88300  0.97720  Biso   1.000  H
  H8       1.0000 0.06730  0.88640  0.46370  Biso   1.000  H
  H9       1.0000 0.00550  0.77780  0.34380  Biso   1.000  H
  H10      1.0000 0.33970  0.99700  0.27220  Biso   1.000  H
  H11      1.0000 0.77910  0.24240  0.35970  Biso   1.000  H
  H12      1.0000 0.00530  0.36780  0.39700  Biso   1.000  H
  H13      1.0000 0.80050  0.51050  0.56770  Biso   1.000  H
  H14      1.0000 0.58230  0.38300  0.52280  Biso   1.000  H
  H15      1.0000 0.56730  0.61360  0.96370  Biso   1.000  H
  H16      1.0000 0.50550  0.72220  0.84380  Biso   1.000  H
  H17      1.0000 0.83970  0.50300  0.77220  Biso   1.000  H
  H18      1.0000 0.27910  0.25760  0.85970  Biso   1.000  H
  H19      1.0000 0.50530  0.13220  0.89700  Biso   1.000  H
  H20      1.0000 0.30050  0.98950  0.06770  Biso   1.000  H
  H21      1.0000 0.08230  0.11700  0.02280  Biso   1.000  H
  H22      1.0000 0.93270  0.11360  0.53630  Biso   1.000  H
  H23      1.0000 0.99450  0.22220  0.65620  Biso   1.000  H
  H24      1.0000 0.66030  0.00300  0.72780  Biso   1.000  H
  H25      1.0000 0.22090  0.75760  0.64030  Biso   1.000  H
  H26      1.0000 0.99470  0.63220  0.60300  Biso   1.000  H
  H27      1.0000 0.19950  0.48950  0.43230  Biso   1.000  H
  H28      1.0000 0.41770  0.61700  0.47720  Biso   1.000  H
  C1       1.0000 0.26700  0.50460  0.06640  Biso   1.000  C
  C2       1.0000 0.38020  0.40840  0.07650  Biso   1.000  C
  C3       1.0000 0.41690  0.34310  0.14770  Biso   1.000  C
  C4       1.0000 0.33300  0.37920  0.20570  Biso   1.000  C
  C5       1.0000 0.36360  0.31660  0.28460  Biso   1.000  C
  C6       1.0000 0.21880  0.47530  0.18970  Biso   1.000  C
  C7       1.0000 0.71550  0.79730  0.09750  Biso   1.000  C
  C8       1.0000 0.57880  0.87330  0.07610  Biso   1.000  C
  C9       1.0000 0.57170  0.95790  0.01320  Biso   1.000  C
  C10      1.0000 0.70050  0.95760  0.97560  Biso   1.000  C
  C11      1.0000 0.83060  0.87890  0.00220  Biso   1.000  C
  C12      1.0000 0.23300  0.00460  0.43360  Biso   1.000  C
  C13      1.0000 0.11980  0.90840  0.42350  Biso   1.000  C
  C14      1.0000 0.08310  0.84310  0.35230  Biso   1.000  C
  C15      1.0000 0.16700  0.87920  0.29430  Biso   1.000  C
  C16      1.0000 0.13640  0.81660  0.21540  Biso   1.000  C
  C17      1.0000 0.28120  0.97530  0.31030  Biso   1.000  C
  C18      1.0000 0.78450  0.29730  0.40250  Biso   1.000  C
  C19      1.0000 0.92120  0.37330  0.42390  Biso   1.000  C
  C20      1.0000 0.92830  0.45790  0.48680  Biso   1.000  C
  C21      1.0000 0.79950  0.45760  0.52440  Biso   1.000  C
  C22      1.0000 0.66940  0.37890  0.49780  Biso   1.000  C
  C23      1.0000 0.73300  0.49540  0.93360  Biso   1.000  C
  C24      1.0000 0.61980  0.59160  0.92350  Biso   1.000  C
  C25      1.0000 0.58310  0.65690  0.85230  Biso   1.000  C
  C26      1.0000 0.66700  0.62080  0.79430  Biso   1.000  C
  C27      1.0000 0.63640  0.68340  0.71540  Biso   1.000  C
  C28      1.0000 0.78120  0.52470  0.81030  Biso   1.000  C
  C29      1.0000 0.28450  0.20270  0.90250  Biso   1.000  C
  C30      1.0000 0.42120  0.12670  0.92390  Biso   1.000  C
  C31      1.0000 0.42830  0.04210  0.98680  Biso   1.000  C
  C32      1.0000 0.29950  0.04240  0.02440  Biso   1.000  C
  C33      1.0000 0.16940  0.12110  0.99780  Biso   1.000  C
  C34      1.0000 0.76700  0.99540  0.56640  Biso   1.000  C
  C35      1.0000 0.88020  0.09160  0.57650  Biso   1.000  C
  C36      1.0000 0.91690  0.15690  0.64770  Biso   1.000  C
  C37      1.0000 0.83300  0.12080  0.70570  Biso   1.000  C
  C38      1.0000 0.86360  0.18340  0.78460  Biso   1.000  C
  C39      1.0000 0.71880  0.02470  0.68970  Biso   1.000  C
  C40      1.0000 0.21550  0.70270  0.59750  Biso   1.000  C
  C41      1.0000 0.07880  0.62670  0.57610  Biso   1.000  C
  C42      1.0000 0.07170  0.54210  0.51320  Biso   1.000  C
  C43      1.0000 0.20050  0.54240  0.47560  Biso   1.000  C
  C44      1.0000 0.33060  0.62110  0.50220  Biso   1.000  C
  S1       1.0000 0.21640  0.59668  0.97645  Biso   1.000  S
  S2       1.0000 0.28360  0.09668  0.52355  Biso   1.000  S
  S3       1.0000 0.78360  0.40332  0.02355  Biso   1.000  S
  S4       1.0000 0.71640  0.90332  0.47645  Biso   1.000  S
  N1       1.0000 0.83720  0.79810  0.06150  Biso   1.000  N
  N2       1.0000 0.18770  0.53950  0.12190  Biso   1.000  N
  N3       1.0000 0.66280  0.29810  0.43850  Biso   1.000  N
  N4       1.0000 0.31230  0.03950  0.37810  Biso   1.000  N
  N5       1.0000 0.16280  0.20190  0.93850  Biso   1.000  N
  N6       1.0000 0.81230  0.46050  0.87810  Biso   1.000  N
  N7       1.0000 0.33720  0.70190  0.56150  Biso   1.000  N
  N8       1.0000 0.68770  0.96050  0.62190  Biso   1.000  N
  O1       1.0000 0.46970  0.22480  0.29530  Biso   1.000  O
  O2       1.0000 0.29080  0.35350  0.33450  Biso   1.000  O
  O3       1.0000 0.17740  0.49190  0.91680  Biso   1.000  O
  O4       1.0000 0.06660  0.66550  0.99020  Biso   1.000  O
  O5       1.0000 0.03030  0.72480  0.20470  Biso   1.000  O
  O6       1.0000 0.20920  0.85350  0.16550  Biso   1.000  O
  O7       1.0000 0.32260  0.99190  0.58320  Biso   1.000  O
  O8       1.0000 0.43340  0.16550  0.50980  Biso   1.000  O
  O9       1.0000 0.53030  0.77520  0.70470  Biso   1.000  O
  O10      1.0000 0.70920  0.64650  0.66550  Biso   1.000  O
  O11      1.0000 0.82260  0.50810  0.08320  Biso   1.000  O
  O12      1.0000 0.93340  0.33450  0.00980  Biso   1.000  O
  O13      1.0000 0.96970  0.27520  0.79530  Biso   1.000  O
  O14      1.0000 0.79080  0.14650  0.83450  Biso   1.000  O
  O15      1.0000 0.67740  0.00810  0.41680  Biso   1.000  O
  O16      1.0000 0.56660  0.83450  0.49020  Biso   1.000  O
