data_image0
_cell_length_a       10.016
_cell_length_b       21.934
_cell_length_c       21.934
_cell_angle_alpha    87.0118
_cell_angle_beta     76.8018
_cell_angle_gamma    76.8017

_symmetry_space_group_name_H-M    P 1
_symmetry_int_tables_number       1

loop_
  _symmetry_equiv_pos_as_xyz
  'x, y, z'

loop_
  _atom_site_label
  _atom_site_occupancy
  _atom_site_fract_x
  _atom_site_fract_y
  _atom_site_fract_z
  _atom_site_thermal_displace_type
  _atom_site_B_iso_or_equiv
  _atom_site_type_symbol
  Mn1      1.0000 0.97595  0.56637  0.52863  Biso   1.000  Mn
  Mn2      1.0000 0.57095  0.93363  0.97138  Biso   1.000  Mn
  Mn3      1.0000 0.50458  0.47138  0.06636  Biso   1.000  Mn
  Mn4      1.0000 0.54233  0.02862  0.43363  Biso   1.000  Mn
  Mn5      1.0000 0.02405  0.43363  0.47137  Biso   1.000  Mn
  Mn6      1.0000 0.42905  0.06637  0.02862  Biso   1.000  Mn
  Mn7      1.0000 0.49542  0.52862  0.93364  Biso   1.000  Mn
  Mn8      1.0000 0.45768  0.97138  0.56636  Biso   1.000  Mn
  H1       1.0000 0.24370  0.65690  0.26290  Biso   1.000  H
  H2       1.0000 0.28660  0.70810  0.29950  Biso   1.000  H
  H3       1.0000 0.39010  0.64080  0.28440  Biso   1.000  H
  H4       1.0000 0.44070  0.68520  0.36380  Biso   1.000  H
  H5       1.0000 0.51910  0.69430  0.45510  Biso   1.000  H
  H6       1.0000 0.40170  0.66220  0.54980  Biso   1.000  H
  H7       1.0000 0.21320  0.62680  0.61200  Biso   1.000  H
  H8       1.0000 0.87140  0.61710  0.76410  Biso   1.000  H
  H9       1.0000 0.73110  0.60270  0.86070  Biso   1.000  H
  H10      1.0000 0.60900  0.46670  0.79550  Biso   1.000  H
  H11      1.0000 0.74030  0.47870  0.69610  Biso   1.000  H
  H12      1.0000 0.71850  0.51370  0.45670  Biso   1.000  H
  H13      1.0000 0.70220  0.52430  0.52990  Biso   1.000  H
  H14      1.0000 0.70120  0.58250  0.48290  Biso   1.000  H
  H15      1.0000 0.66350  0.84310  0.23710  Biso   1.000  H
  H16      1.0000 0.79420  0.79190  0.20050  Biso   1.000  H
  H17      1.0000 0.81530  0.85920  0.21560  Biso   1.000  H
  H18      1.0000 0.98970  0.81480  0.13620  Biso   1.000  H
  H19      1.0000 0.16850  0.80570  0.04490  Biso   1.000  H
  H20      1.0000 0.11370  0.83780  0.95020  Biso   1.000  H
  H21      1.0000 0.95200  0.87320  0.88800  Biso   1.000  H
  H22      1.0000 0.75260  0.88290  0.73590  Biso   1.000  H
  H23      1.0000 0.69450  0.89730  0.63930  Biso   1.000  H
  H24      1.0000 0.37120  0.03330  0.70450  Biso   1.000  H
  H25      1.0000 0.41510  0.02130  0.80390  Biso   1.000  H
  H26      1.0000 0.18890  0.98630  0.04330  Biso   1.000  H
  H27      1.0000 0.25640  0.97570  0.97010  Biso   1.000  H
  H28      1.0000 0.26660  0.91750  0.01710  Biso   1.000  H
  H29      1.0000 0.50660  0.73710  0.15690  Biso   1.000  H
  H30      1.0000 0.58610  0.70050  0.20810  Biso   1.000  H
  H31      1.0000 0.67450  0.71560  0.14080  Biso   1.000  H
  H32      1.0000 0.80450  0.63620  0.18520  Biso   1.000  H
  H33      1.0000 0.97420  0.54490  0.19430  Biso   1.000  H
  H34      1.0000 0.95150  0.45020  0.16220  Biso   1.000  H
  H35      1.0000 0.82520  0.38800  0.12680  Biso   1.000  H
  H36      1.0000 0.63550  0.23590  0.11710  Biso   1.000  H
  H37      1.0000 0.59180  0.13930  0.10270  Biso   1.000  H
  H38      1.0000 0.40450  0.20450  0.96670  Biso   1.000  H
  H39      1.0000 0.43640  0.30390  0.97870  Biso   1.000  H
  H40      1.0000 0.17520  0.54330  0.01370  Biso   1.000  H
  H41      1.0000 0.23210  0.47010  0.02430  Biso   1.000  H
  H42      1.0000 0.18410  0.51710  0.08250  Biso   1.000  H
  H43      1.0000 0.90060  0.76290  0.34310  Biso   1.000  H
  H44      1.0000 0.99470  0.79950  0.29190  Biso   1.000  H
  H45      1.0000 0.03090  0.78440  0.35920  Biso   1.000  H
  H46      1.0000 0.12590  0.86380  0.31480  Biso   1.000  H
  H47      1.0000 0.21340  0.95510  0.30570  Biso   1.000  H
  H48      1.0000 0.06390  0.04980  0.33780  Biso   1.000  H
  H49      1.0000 0.84000  0.11200  0.37320  Biso   1.000  H
  H50      1.0000 0.48850  0.26410  0.38290  Biso   1.000  H
  H51      1.0000 0.33380  0.36070  0.39730  Biso   1.000  H
  H52      1.0000 0.07570  0.29550  0.53330  Biso   1.000  H
  H53      1.0000 0.21900  0.19610  0.52130  Biso   1.000  H
  H54      1.0000 0.23220  0.95670  0.48630  Biso   1.000  H
  H55      1.0000 0.22650  0.02990  0.47570  Biso   1.000  H
  H56      1.0000 0.28370  0.98290  0.41750  Biso   1.000  H
  H57      1.0000 0.75630  0.34310  0.73710  Biso   1.000  H
  H58      1.0000 0.71340  0.29190  0.70050  Biso   1.000  H
  H59      1.0000 0.60990  0.35920  0.71560  Biso   1.000  H
  H60      1.0000 0.55930  0.31480  0.63620  Biso   1.000  H
  H61      1.0000 0.48090  0.30570  0.54490  Biso   1.000  H
  H62      1.0000 0.59830  0.33780  0.45020  Biso   1.000  H
  H63      1.0000 0.78680  0.37320  0.38800  Biso   1.000  H
  H64      1.0000 0.12860  0.38290  0.23590  Biso   1.000  H
  H65      1.0000 0.26890  0.39730  0.13930  Biso   1.000  H
  H66      1.0000 0.39100  0.53330  0.20450  Biso   1.000  H
  H67      1.0000 0.25970  0.52130  0.30390  Biso   1.000  H
  H68      1.0000 0.28150  0.48630  0.54330  Biso   1.000  H
  H69      1.0000 0.29780  0.47570  0.47010  Biso   1.000  H
  H70      1.0000 0.29880  0.41750  0.51710  Biso   1.000  H
  H71      1.0000 0.33650  0.15690  0.76290  Biso   1.000  H
  H72      1.0000 0.20580  0.20810  0.79950  Biso   1.000  H
  H73      1.0000 0.18470  0.14080  0.78440  Biso   1.000  H
  H74      1.0000 0.01030  0.18520  0.86380  Biso   1.000  H
  H75      1.0000 0.83150  0.19430  0.95510  Biso   1.000  H
  H76      1.0000 0.88630  0.16220  0.04980  Biso   1.000  H
  H77      1.0000 0.04800  0.12680  0.11200  Biso   1.000  H
  H78      1.0000 0.24740  0.11710  0.26410  Biso   1.000  H
  H79      1.0000 0.30550  0.10270  0.36070  Biso   1.000  H
  H80      1.0000 0.62880  0.96670  0.29550  Biso   1.000  H
  H81      1.0000 0.58490  0.97870  0.19610  Biso   1.000  H
  H82      1.0000 0.81110  0.01370  0.95670  Biso   1.000  H
  H83      1.0000 0.74360  0.02430  0.02990  Biso   1.000  H
  H84      1.0000 0.73340  0.08250  0.98290  Biso   1.000  H
  H85      1.0000 0.49340  0.26290  0.84310  Biso   1.000  H
  H86      1.0000 0.41390  0.29950  0.79190  Biso   1.000  H
  H87      1.0000 0.32550  0.28440  0.85920  Biso   1.000  H
  H88      1.0000 0.19550  0.36380  0.81480  Biso   1.000  H
  H89      1.0000 0.02580  0.45510  0.80570  Biso   1.000  H
  H90      1.0000 0.04850  0.54980  0.83780  Biso   1.000  H
  H91      1.0000 0.17480  0.61200  0.87320  Biso   1.000  H
  H92      1.0000 0.36450  0.76410  0.88290  Biso   1.000  H
  H93      1.0000 0.40820  0.86070  0.89730  Biso   1.000  H
  H94      1.0000 0.59550  0.79550  0.03330  Biso   1.000  H
  H95      1.0000 0.56360  0.69610  0.02130  Biso   1.000  H
  H96      1.0000 0.82480  0.45670  0.98630  Biso   1.000  H
  H97      1.0000 0.76790  0.52990  0.97570  Biso   1.000  H
  H98      1.0000 0.81590  0.48290  0.91750  Biso   1.000  H
  H99      1.0000 0.09940  0.23710  0.65690  Biso   1.000  H
  H100     1.0000 0.00530  0.20050  0.70810  Biso   1.000  H
  H101     1.0000 0.96910  0.21560  0.64080  Biso   1.000  H
  H102     1.0000 0.87410  0.13620  0.68520  Biso   1.000  H
  H103     1.0000 0.78660  0.04490  0.69430  Biso   1.000  H
  H104     1.0000 0.93610  0.95020  0.66220  Biso   1.000  H
  H105     1.0000 0.16000  0.88800  0.62680  Biso   1.000  H
  H106     1.0000 0.51150  0.73590  0.61710  Biso   1.000  H
  H107     1.0000 0.66620  0.63930  0.60270  Biso   1.000  H
  H108     1.0000 0.92430  0.70450  0.46670  Biso   1.000  H
  H109     1.0000 0.78100  0.80390  0.47870  Biso   1.000  H
  H110     1.0000 0.76780  0.04330  0.51370  Biso   1.000  H
  H111     1.0000 0.77350  0.97010  0.52430  Biso   1.000  H
  H112     1.0000 0.71630  0.01710  0.58250  Biso   1.000  H
  C1       1.0000 0.29140  0.66338  0.29562  Biso   1.000  C
  C2       1.0000 0.27725  0.64715  0.40475  Biso   1.000  C
  C3       1.0000 0.39215  0.67179  0.40271  Biso   1.000  C
  C4       1.0000 0.43895  0.67735  0.45715  Biso   1.000  C
  C5       1.0000 0.36973  0.65847  0.51287  Biso   1.000  C
  C6       1.0000 0.25024  0.63332  0.51640  Biso   1.000  C
  C7       1.0000 0.20381  0.62540  0.46238  Biso   1.000  C
  C8       1.0000 0.17772  0.61864  0.57732  Biso   1.000  C
  C9       1.0000 0.90131  0.56114  0.65564  Biso   1.000  C
  C10      1.0000 0.81904  0.55039  0.71913  Biso   1.000  C
  C11      1.0000 0.81656  0.58634  0.76914  Biso   1.000  C
  C12      1.0000 0.73326  0.57715  0.82673  Biso   1.000  C
  C13      1.0000 0.66169  0.49835  0.78867  Biso   1.000  C
  C14      1.0000 0.74015  0.50480  0.72930  Biso   1.000  C
  C15      1.0000 0.74140  0.53791  0.48769  Biso   1.000  C
  C16      1.0000 0.75040  0.83662  0.20438  Biso   1.000  C
  C17      1.0000 0.82915  0.85285  0.09525  Biso   1.000  C
  C18      1.0000 0.96665  0.82821  0.09729  Biso   1.000  C
  C19      1.0000 0.07345  0.82265  0.04285  Biso   1.000  C
  C20      1.0000 0.04107  0.84153  0.98713  Biso   1.000  C
  C21      1.0000 0.89996  0.86668  0.98360  Biso   1.000  C
  C22      1.0000 0.79159  0.87460  0.03762  Biso   1.000  C
  C23      1.0000 0.87368  0.88136  0.92268  Biso   1.000  C
  C24      1.0000 0.61809  0.93886  0.84436  Biso   1.000  C
  C25      1.0000 0.58856  0.94961  0.78087  Biso   1.000  C
  C26      1.0000 0.67204  0.91366  0.73086  Biso   1.000  C
  C27      1.0000 0.63714  0.92285  0.67327  Biso   1.000  C
  C28      1.0000 0.44871  0.00165  0.71133  Biso   1.000  C
  C29      1.0000 0.47425  0.99520  0.77070  Biso   1.000  C
  C30      1.0000 0.26700  0.96209  0.01231  Biso   1.000  C
  C31      1.0000 0.58702  0.70438  0.16338  Biso   1.000  C
  C32      1.0000 0.68200  0.59525  0.14715  Biso   1.000  C
  C33      1.0000 0.79486  0.59729  0.17179  Biso   1.000  C
  C34      1.0000 0.89610  0.54285  0.17735  Biso   1.000  C
  C35      1.0000 0.88260  0.48713  0.15847  Biso   1.000  C
  C36      1.0000 0.76664  0.48360  0.13332  Biso   1.000  C
  C37      1.0000 0.66619  0.53762  0.12540  Biso   1.000  C
  C38      1.0000 0.75504  0.42268  0.11864  Biso   1.000  C
  C39      1.0000 0.55695  0.34436  0.06114  Biso   1.000  C
  C40      1.0000 0.53817  0.28087  0.05039  Biso   1.000  C
  C41      1.0000 0.58570  0.23086  0.08634  Biso   1.000  C
  C42      1.0000 0.55999  0.17327  0.07715  Biso   1.000  C
  C43      1.0000 0.45036  0.21133  0.99835  Biso   1.000  C
  C44      1.0000 0.46945  0.27070  0.00480  Biso   1.000  C
  C45      1.0000 0.22909  0.51231  0.03791  Biso   1.000  C
  C46      1.0000 0.95478  0.79562  0.33662  Biso   1.000  C
  C47      1.0000 0.92440  0.90475  0.35285  Biso   1.000  C
  C48      1.0000 0.06394  0.90271  0.32821  Biso   1.000  C
  C49      1.0000 0.11630  0.95715  0.32265  Biso   1.000  C
  C50      1.0000 0.02820  0.01287  0.34153  Biso   1.000  C
  C51      1.0000 0.88356  0.01640  0.36668  Biso   1.000  C
  C52      1.0000 0.82921  0.96238  0.37460  Biso   1.000  C
  C53      1.0000 0.79636  0.07732  0.38136  Biso   1.000  C
  C54      1.0000 0.46245  0.15564  0.43886  Biso   1.000  C
  C55      1.0000 0.36943  0.21913  0.44961  Biso   1.000  C
  C56      1.0000 0.40290  0.26914  0.41366  Biso   1.000  C
  C57      1.0000 0.31041  0.32673  0.42285  Biso   1.000  C
  C58      1.0000 0.16004  0.28867  0.50165  Biso   1.000  C
  C59      1.0000 0.24495  0.22930  0.49520  Biso   1.000  C
  C60      1.0000 0.27931  0.98769  0.46209  Biso   1.000  C
  C61      1.0000 0.70860  0.33662  0.70438  Biso   1.000  C
  C62      1.0000 0.72275  0.35285  0.59525  Biso   1.000  C
  C63      1.0000 0.60785  0.32821  0.59729  Biso   1.000  C
  C64      1.0000 0.56105  0.32265  0.54285  Biso   1.000  C
  C65      1.0000 0.63027  0.34153  0.48713  Biso   1.000  C
  C66      1.0000 0.74976  0.36668  0.48360  Biso   1.000  C
  C67      1.0000 0.79619  0.37460  0.53762  Biso   1.000  C
  C68      1.0000 0.82228  0.38136  0.42268  Biso   1.000  C
  C69      1.0000 0.09869  0.43886  0.34436  Biso   1.000  C
  C70      1.0000 0.18096  0.44961  0.28087  Biso   1.000  C
  C71      1.0000 0.18344  0.41366  0.23086  Biso   1.000  C
  C72      1.0000 0.26674  0.42285  0.17327  Biso   1.000  C
  C73      1.0000 0.33831  0.50165  0.21133  Biso   1.000  C
  C74      1.0000 0.25985  0.49520  0.27070  Biso   1.000  C
  C75      1.0000 0.25860  0.46209  0.51231  Biso   1.000  C
  C76      1.0000 0.24960  0.16338  0.79562  Biso   1.000  C
  C77      1.0000 0.17085  0.14715  0.90475  Biso   1.000  C
  C78      1.0000 0.03335  0.17179  0.90271  Biso   1.000  C
  C79      1.0000 0.92655  0.17735  0.95715  Biso   1.000  C
  C80      1.0000 0.95893  0.15847  0.01287  Biso   1.000  C
  C81      1.0000 0.10004  0.13332  0.01640  Biso   1.000  C
  C82      1.0000 0.20841  0.12540  0.96238  Biso   1.000  C
  C83      1.0000 0.12632  0.11864  0.07732  Biso   1.000  C
  C84      1.0000 0.38191  0.06114  0.15564  Biso   1.000  C
  C85      1.0000 0.41144  0.05039  0.21913  Biso   1.000  C
  C86      1.0000 0.32796  0.08634  0.26914  Biso   1.000  C
  C87      1.0000 0.36286  0.07715  0.32673  Biso   1.000  C
  C88      1.0000 0.55129  0.99835  0.28867  Biso   1.000  C
  C89      1.0000 0.52575  0.00480  0.22930  Biso   1.000  C
  C90      1.0000 0.73300  0.03791  0.98769  Biso   1.000  C
  C91      1.0000 0.41298  0.29562  0.83662  Biso   1.000  C
  C92      1.0000 0.31800  0.40475  0.85285  Biso   1.000  C
  C93      1.0000 0.20514  0.40271  0.82821  Biso   1.000  C
  C94      1.0000 0.10390  0.45715  0.82265  Biso   1.000  C
  C95      1.0000 0.11740  0.51287  0.84153  Biso   1.000  C
  C96      1.0000 0.23336  0.51640  0.86668  Biso   1.000  C
  C97      1.0000 0.33381  0.46238  0.87460  Biso   1.000  C
  C98      1.0000 0.24496  0.57732  0.88136  Biso   1.000  C
  C99      1.0000 0.44305  0.65564  0.93886  Biso   1.000  C
  C100     1.0000 0.46183  0.71913  0.94961  Biso   1.000  C
  C101     1.0000 0.41430  0.76914  0.91366  Biso   1.000  C
  C102     1.0000 0.44001  0.82673  0.92285  Biso   1.000  C
  C103     1.0000 0.54964  0.78867  0.00165  Biso   1.000  C
  C104     1.0000 0.53055  0.72930  0.99520  Biso   1.000  C
  C105     1.0000 0.77091  0.48769  0.96209  Biso   1.000  C
  C106     1.0000 0.04522  0.20438  0.66338  Biso   1.000  C
  C107     1.0000 0.07560  0.09525  0.64715  Biso   1.000  C
  C108     1.0000 0.93606  0.09729  0.67179  Biso   1.000  C
  C109     1.0000 0.88370  0.04285  0.67735  Biso   1.000  C
  C110     1.0000 0.97180  0.98713  0.65847  Biso   1.000  C
  C111     1.0000 0.11644  0.98360  0.63332  Biso   1.000  C
  C112     1.0000 0.17079  0.03762  0.62540  Biso   1.000  C
  C113     1.0000 0.20364  0.92268  0.61864  Biso   1.000  C
  C114     1.0000 0.53755  0.84436  0.56114  Biso   1.000  C
  C115     1.0000 0.63057  0.78087  0.55039  Biso   1.000  C
  C116     1.0000 0.59710  0.73086  0.58634  Biso   1.000  C
  C117     1.0000 0.68959  0.67327  0.57715  Biso   1.000  C
  C118     1.0000 0.83996  0.71133  0.49835  Biso   1.000  C
  C119     1.0000 0.75505  0.77070  0.50480  Biso   1.000  C
  C120     1.0000 0.72069  0.01231  0.53791  Biso   1.000  C
  N1       1.0000 0.06796  0.59531  0.58877  Biso   1.000  N
  N2       1.0000 0.00677  0.58692  0.65254  Biso   1.000  N
  N3       1.0000 0.65545  0.53407  0.83723  Biso   1.000  N
  N4       1.0000 0.75204  0.90469  0.91123  Biso   1.000  N
  N5       1.0000 0.74623  0.91308  0.84746  Biso   1.000  N
  N6       1.0000 0.52675  0.96593  0.66277  Biso   1.000  N
  N7       1.0000 0.65673  0.41123  0.09531  Biso   1.000  N
  N8       1.0000 0.65931  0.34746  0.08692  Biso   1.000  N
  N9       1.0000 0.49268  0.16277  0.03407  Biso   1.000  N
  N10      1.0000 0.66327  0.08877  0.40469  Biso   1.000  N
  N11      1.0000 0.59369  0.15254  0.41308  Biso   1.000  N
  N12      1.0000 0.18952  0.33723  0.46593  Biso   1.000  N
  N13      1.0000 0.93204  0.40469  0.41123  Biso   1.000  N
  N14      1.0000 0.99323  0.41308  0.34746  Biso   1.000  N
  N15      1.0000 0.34455  0.46593  0.16277  Biso   1.000  N
  N16      1.0000 0.24796  0.09531  0.08877  Biso   1.000  N
  N17      1.0000 0.25377  0.08692  0.15254  Biso   1.000  N
  N18      1.0000 0.47325  0.03407  0.33723  Biso   1.000  N
  N19      1.0000 0.34327  0.58877  0.90469  Biso   1.000  N
  N20      1.0000 0.34069  0.65254  0.91308  Biso   1.000  N
  N21      1.0000 0.50732  0.83723  0.96593  Biso   1.000  N
  N22      1.0000 0.33673  0.91123  0.59531  Biso   1.000  N
  N23      1.0000 0.40631  0.84746  0.58692  Biso   1.000  N
  N24      1.0000 0.81048  0.66277  0.53407  Biso   1.000  N
  O1       1.0000 0.22429  0.64020  0.35382  Biso   1.000  O
  O2       1.0000 0.09608  0.60035  0.46169  Biso   1.000  O
  O3       1.0000 0.86171  0.54441  0.60757  Biso   1.000  O
  O4       1.0000 0.88861  0.52811  0.47847  Biso   1.000  O
  O5       1.0000 0.71831  0.85980  0.14618  Biso   1.000  O
  O6       1.0000 0.65812  0.89965  0.03831  Biso   1.000  O
  O7       1.0000 0.51369  0.95559  0.89243  Biso   1.000  O
  O8       1.0000 0.39519  0.97189  0.02153  Biso   1.000  O
  O9       1.0000 0.57811  0.64618  0.14020  Biso   1.000  O
  O10      1.0000 0.55777  0.53831  0.10035  Biso   1.000  O
  O11      1.0000 0.46928  0.39243  0.04441  Biso   1.000  O
  O12      1.0000 0.36708  0.52153  0.02811  Biso   1.000  O
  O13      1.0000 0.86449  0.85382  0.35980  Biso   1.000  O
  O14      1.0000 0.69643  0.96169  0.39965  Biso   1.000  O
  O15      1.0000 0.40612  0.10757  0.45559  Biso   1.000  O
  O16      1.0000 0.41672  0.97847  0.47189  Biso   1.000  O
  O17      1.0000 0.77571  0.35980  0.64618  Biso   1.000  O
  O18      1.0000 0.90392  0.39965  0.53831  Biso   1.000  O
  O19      1.0000 0.13829  0.45559  0.39243  Biso   1.000  O
  O20      1.0000 0.11139  0.47189  0.52153  Biso   1.000  O
  O21      1.0000 0.28169  0.14020  0.85382  Biso   1.000  O
  O22      1.0000 0.34188  0.10035  0.96169  Biso   1.000  O
  O23      1.0000 0.48631  0.04441  0.10757  Biso   1.000  O
  O24      1.0000 0.60481  0.02811  0.97847  Biso   1.000  O
  O25      1.0000 0.42189  0.35382  0.85980  Biso   1.000  O
  O26      1.0000 0.44223  0.46169  0.89965  Biso   1.000  O
  O27      1.0000 0.53072  0.60757  0.95559  Biso   1.000  O
  O28      1.0000 0.63292  0.47847  0.97189  Biso   1.000  O
  O29      1.0000 0.13551  0.14618  0.64020  Biso   1.000  O
  O30      1.0000 0.30357  0.03831  0.60035  Biso   1.000  O
  O31      1.0000 0.59388  0.89243  0.54441  Biso   1.000  O
  O32      1.0000 0.58328  0.02153  0.52811  Biso   1.000  O
