data_image0
_cell_length_a       7.072
_cell_length_b       10.385
_cell_length_c       12.842
_cell_angle_alpha    100.695
_cell_angle_beta     91.181
_cell_angle_gamma    94.614

_symmetry_space_group_name_H-M    P 1
_symmetry_int_tables_number       1

loop_
  _symmetry_equiv_pos_as_xyz
  'x, y, z'

loop_
  _atom_site_label
  _atom_site_occupancy
  _atom_site_fract_x
  _atom_site_fract_y
  _atom_site_fract_z
  _atom_site_thermal_displace_type
  _atom_site_B_iso_or_equiv
  _atom_site_type_symbol
  Sr1      1.0000 0.24190  0.46690  0.39521  Biso   1.000  Sr
  Sr2      1.0000 0.75810  0.53310  0.60479  Biso   1.000  Sr
  H1       1.0000 0.81970  0.28580  0.02670  Biso   1.000  H
  H2       1.0000 0.80420  0.42440  0.18880  Biso   1.000  H
  H3       1.0000 0.65170  0.11270  0.32190  Biso   1.000  H
  H4       1.0000 0.56150  0.89320  0.28170  Biso   1.000  H
  H5       1.0000 0.58970  0.56480  0.06690  Biso   1.000  H
  H6       1.0000 0.69710  0.68850  0.94510  Biso   1.000  H
  H7       1.0000 0.18030  0.71420  0.97330  Biso   1.000  H
  H8       1.0000 0.19580  0.57560  0.81120  Biso   1.000  H
  H9       1.0000 0.34830  0.88730  0.67810  Biso   1.000  H
  H10      1.0000 0.43850  0.10680  0.71830  Biso   1.000  H
  H11      1.0000 0.41030  0.43520  0.93310  Biso   1.000  H
  H12      1.0000 0.30290  0.31150  0.05490  Biso   1.000  H
  Pt1      1.0000 0.78321  0.98519  0.93954  Biso   1.000  Pt
  Pt2      1.0000 0.21679  0.01481  0.06046  Biso   1.000  Pt
  C1       1.0000 0.78600  0.25000  0.08760  Biso   1.000  C
  C2       1.0000 0.77800  0.33270  0.18440  Biso   1.000  C
  C3       1.0000 0.72700  0.27910  0.27190  Biso   1.000  C
  C4       1.0000 0.68500  0.14720  0.26090  Biso   1.000  C
  C5       1.0000 0.69300  0.06230  0.16220  Biso   1.000  C
  C6       1.0000 0.66300  0.92280  0.14020  Biso   1.000  C
  C7       1.0000 0.59000  0.85070  0.21260  Biso   1.000  C
  C8       1.0000 0.55600  0.71450  0.18460  Biso   1.000  C
  C9       1.0000 0.60300  0.65670  0.08510  Biso   1.000  C
  C10      1.0000 0.67100  0.73060  0.01420  Biso   1.000  C
  C11      1.0000 0.73300  0.36920  0.38230  Biso   1.000  C
  C12      1.0000 0.45900  0.63300  0.26310  Biso   1.000  C
  C13      1.0000 0.85800  0.11460  0.85040  Biso   1.000  C
  C14      1.0000 0.79500  0.84360  0.81550  Biso   1.000  C
  C15      1.0000 0.21400  0.75000  0.91240  Biso   1.000  C
  C16      1.0000 0.22200  0.66730  0.81560  Biso   1.000  C
  C17      1.0000 0.27300  0.72090  0.72810  Biso   1.000  C
  C18      1.0000 0.31500  0.85280  0.73910  Biso   1.000  C
  C19      1.0000 0.30700  0.93770  0.83780  Biso   1.000  C
  C20      1.0000 0.33700  0.07720  0.85980  Biso   1.000  C
  C21      1.0000 0.41000  0.14930  0.78740  Biso   1.000  C
  C22      1.0000 0.44400  0.28550  0.81540  Biso   1.000  C
  C23      1.0000 0.39700  0.34330  0.91490  Biso   1.000  C
  C24      1.0000 0.32900  0.26940  0.98580  Biso   1.000  C
  C25      1.0000 0.26700  0.63080  0.61770  Biso   1.000  C
  C26      1.0000 0.54100  0.36700  0.73690  Biso   1.000  C
  C27      1.0000 0.14200  0.88540  0.14960  Biso   1.000  C
  C28      1.0000 0.20500  0.15640  0.18450  Biso   1.000  C
  N1       1.0000 0.74800  0.11230  0.07490  Biso   1.000  N
  N2       1.0000 0.69660  0.86160  0.03900  Biso   1.000  N
  N3       1.0000 0.90600  0.18630  0.80010  Biso   1.000  N
  N4       1.0000 0.80000  0.76040  0.74410  Biso   1.000  N
  N5       1.0000 0.25200  0.88770  0.92510  Biso   1.000  N
  N6       1.0000 0.30340  0.13840  0.96100  Biso   1.000  N
  N7       1.0000 0.09400  0.81370  0.19990  Biso   1.000  N
  N8       1.0000 0.20000  0.23960  0.25590  Biso   1.000  N
  O1       1.0000 0.58290  0.40740  0.41440  Biso   1.000  O
  O2       1.0000 0.88980  0.39070  0.42690  Biso   1.000  O
  O3       1.0000 0.44960  0.68560  0.35660  Biso   1.000  O
  O4       1.0000 0.39260  0.51980  0.21890  Biso   1.000  O
  O5       1.0000 0.00490  0.61130  0.32080  Biso   1.000  O
  O6       1.0000 0.23160  0.29220  0.52000  Biso   1.000  O
  O7       1.0000 0.41710  0.59260  0.58560  Biso   1.000  O
  O8       1.0000 0.11020  0.60930  0.57310  Biso   1.000  O
  O9       1.0000 0.55040  0.31440  0.64340  Biso   1.000  O
  O10      1.0000 0.60740  0.48020  0.78110  Biso   1.000  O
  O11      1.0000 0.99510  0.38870  0.67920  Biso   1.000  O
  O12      1.0000 0.76840  0.70780  0.48000  Biso   1.000  O
