data_image0
_cell_length_a       13.415
_cell_length_b       13.415
_cell_length_c       19.3449
_cell_angle_alpha    110.288
_cell_angle_beta     110.288
_cell_angle_gamma    90

_symmetry_space_group_name_H-M    P 1
_symmetry_int_tables_number       1

loop_
  _symmetry_equiv_pos_as_xyz
  'x, y, z'

loop_
  _atom_site_label
  _atom_site_occupancy
  _atom_site_fract_x
  _atom_site_fract_y
  _atom_site_fract_z
  _atom_site_thermal_displace_type
  _atom_site_B_iso_or_equiv
  _atom_site_type_symbol
  Cd1      1.0000 0.26808  0.44461  0.48964  Biso   1.000  Cd
  Cd2      1.0000 0.22156  0.04503  0.48964  Biso   1.000  Cd
  Cd3      1.0000 0.55539  0.77844  0.51036  Biso   1.000  Cd
  Cd4      1.0000 0.95497  0.73192  0.51036  Biso   1.000  Cd
  Cd5      1.0000 0.02844  0.30539  0.01036  Biso   1.000  Cd
  Cd6      1.0000 0.98192  0.70497  0.01036  Biso   1.000  Cd
  Cd7      1.0000 0.29503  0.97156  0.98964  Biso   1.000  Cd
  Cd8      1.0000 0.69461  0.01808  0.98964  Biso   1.000  Cd
  H1       1.0000 0.09800  0.70770  0.39880  Biso   1.000  H
  H2       1.0000 0.04270  0.59930  0.32380  Biso   1.000  H
  H3       1.0000 0.82270  0.57710  0.27420  Biso   1.000  H
  H4       1.0000 0.89290  0.51620  0.32840  Biso   1.000  H
  H5       1.0000 0.85400  0.78810  0.34460  Biso   1.000  H
  H6       1.0000 0.98040  0.82490  0.38840  Biso   1.000  H
  H7       1.0000 0.79900  0.68220  0.08120  Biso   1.000  H
  H8       1.0000 0.77810  0.70490  0.19840  Biso   1.000  H
  H9       1.0000 0.09410  0.78150  0.31000  Biso   1.000  H
  H10      1.0000 0.10970  0.74260  0.18700  Biso   1.000  H
  H11      1.0000 0.30080  0.69110  0.39880  Biso   1.000  H
  H12      1.0000 0.28110  0.72450  0.32380  Biso   1.000  H
  H13      1.0000 0.45150  0.69710  0.27420  Biso   1.000  H
  H14      1.0000 0.43550  0.81220  0.32840  Biso   1.000  H
  H15      1.0000 0.49060  0.55650  0.34460  Biso   1.000  H
  H16      1.0000 0.40800  0.56350  0.38840  Biso   1.000  H
  H17      1.0000 0.28220  0.39900  0.08120  Biso   1.000  H
  H18      1.0000 0.42030  0.49350  0.19840  Biso   1.000  H
  H19      1.0000 0.21590  0.52850  0.31000  Biso   1.000  H
  H20      1.0000 0.07730  0.44440  0.18700  Biso   1.000  H
  H21      1.0000 0.29230  0.69920  0.60120  Biso   1.000  H
  H22      1.0000 0.40070  0.71890  0.67620  Biso   1.000  H
  H23      1.0000 0.42290  0.54850  0.72580  Biso   1.000  H
  H24      1.0000 0.48380  0.56450  0.67160  Biso   1.000  H
  H25      1.0000 0.21190  0.50940  0.65540  Biso   1.000  H
  H26      1.0000 0.17510  0.59200  0.61160  Biso   1.000  H
  H27      1.0000 0.31780  0.71780  0.91880  Biso   1.000  H
  H28      1.0000 0.29510  0.57970  0.80160  Biso   1.000  H
  H29      1.0000 0.21850  0.78410  0.69000  Biso   1.000  H
  H30      1.0000 0.25740  0.92270  0.81300  Biso   1.000  H
  H31      1.0000 0.30890  0.90200  0.60120  Biso   1.000  H
  H32      1.0000 0.27550  0.95730  0.67620  Biso   1.000  H
  H33      1.0000 0.30290  0.17730  0.72580  Biso   1.000  H
  H34      1.0000 0.18780  0.10710  0.67160  Biso   1.000  H
  H35      1.0000 0.44350  0.14600  0.65540  Biso   1.000  H
  H36      1.0000 0.43650  0.01960  0.61160  Biso   1.000  H
  H37      1.0000 0.60100  0.20100  0.91880  Biso   1.000  H
  H38      1.0000 0.50650  0.22190  0.80160  Biso   1.000  H
  H39      1.0000 0.47150  0.90590  0.69000  Biso   1.000  H
  H40      1.0000 0.55560  0.89030  0.81300  Biso   1.000  H
  H41      1.0000 0.94920  0.04230  0.10120  Biso   1.000  H
  H42      1.0000 0.96890  0.15070  0.17620  Biso   1.000  H
  H43      1.0000 0.79850  0.17290  0.22580  Biso   1.000  H
  H44      1.0000 0.81450  0.23380  0.17160  Biso   1.000  H
  H45      1.0000 0.75940  0.96190  0.15540  Biso   1.000  H
  H46      1.0000 0.84200  0.92510  0.11160  Biso   1.000  H
  H47      1.0000 0.96780  0.06780  0.41880  Biso   1.000  H
  H48      1.0000 0.82970  0.04510  0.30160  Biso   1.000  H
  H49      1.0000 0.03410  0.96850  0.19000  Biso   1.000  H
  H50      1.0000 0.17270  0.00740  0.31300  Biso   1.000  H
  H51      1.0000 0.15200  0.05890  0.10120  Biso   1.000  H
  H52      1.0000 0.20730  0.02550  0.17620  Biso   1.000  H
  H53      1.0000 0.42730  0.05290  0.22580  Biso   1.000  H
  H54      1.0000 0.35710  0.93780  0.17160  Biso   1.000  H
  H55      1.0000 0.39600  0.19350  0.15540  Biso   1.000  H
  H56      1.0000 0.26960  0.18650  0.11160  Biso   1.000  H
  H57      1.0000 0.45100  0.35100  0.41880  Biso   1.000  H
  H58      1.0000 0.47190  0.25650  0.30160  Biso   1.000  H
  H59      1.0000 0.15590  0.22150  0.19000  Biso   1.000  H
  H60      1.0000 0.14030  0.30560  0.31300  Biso   1.000  H
  H61      1.0000 0.94110  0.05080  0.89880  Biso   1.000  H
  H62      1.0000 0.97450  0.03110  0.82380  Biso   1.000  H
  H63      1.0000 0.94710  0.20150  0.77420  Biso   1.000  H
  H64      1.0000 0.06220  0.18550  0.82840  Biso   1.000  H
  H65      1.0000 0.80650  0.24060  0.84460  Biso   1.000  H
  H66      1.0000 0.81350  0.15800  0.88840  Biso   1.000  H
  H67      1.0000 0.64900  0.03220  0.58120  Biso   1.000  H
  H68      1.0000 0.74350  0.17030  0.69840  Biso   1.000  H
  H69      1.0000 0.77850  0.96590  0.81000  Biso   1.000  H
  H70      1.0000 0.69440  0.82730  0.68700  Biso   1.000  H
  H71      1.0000 0.95770  0.84800  0.89880  Biso   1.000  H
  H72      1.0000 0.84930  0.79270  0.82380  Biso   1.000  H
  H73      1.0000 0.82710  0.57270  0.77420  Biso   1.000  H
  H74      1.0000 0.76620  0.64290  0.82840  Biso   1.000  H
  H75      1.0000 0.03810  0.60400  0.84460  Biso   1.000  H
  H76      1.0000 0.07490  0.73040  0.88840  Biso   1.000  H
  H77      1.0000 0.93220  0.54900  0.58120  Biso   1.000  H
  H78      1.0000 0.95490  0.52810  0.69840  Biso   1.000  H
  H79      1.0000 0.03150  0.84410  0.81000  Biso   1.000  H
  H80      1.0000 0.99260  0.85970  0.68700  Biso   1.000  H
  C1       1.0000 0.04620  0.64210  0.37800  Biso   1.000  C
  C2       1.0000 0.08543  0.57803  0.42986  Biso   1.000  C
  C3       1.0000 0.85710  0.58090  0.32940  Biso   1.000  C
  C4       1.0000 0.76733  0.58233  0.36646  Biso   1.000  C
  C5       1.0000 0.92485  0.76455  0.34770  Biso   1.000  C
  C6       1.0000 0.86139  0.69899  0.12798  Biso   1.000  C
  C7       1.0000 0.84835  0.71405  0.19830  Biso   1.000  C
  C8       1.0000 0.93520  0.74210  0.26800  Biso   1.000  C
  C9       1.0000 0.03155  0.75675  0.26310  Biso   1.000  C
  C10      1.0000 0.04034  0.73564  0.18888  Biso   1.000  C
  C11      1.0000 0.33180  0.73590  0.37800  Biso   1.000  C
  C12      1.0000 0.34443  0.85183  0.42986  Biso   1.000  C
  C13      1.0000 0.47230  0.74850  0.32940  Biso   1.000  C
  C14      1.0000 0.59913  0.78413  0.36646  Biso   1.000  C
  C15      1.0000 0.42285  0.58315  0.34770  Biso   1.000  C
  C16      1.0000 0.26659  0.42899  0.12798  Biso   1.000  C
  C17      1.0000 0.34995  0.48425  0.19830  Biso   1.000  C
  C18      1.0000 0.33280  0.52590  0.26800  Biso   1.000  C
  C19      1.0000 0.23155  0.50635  0.26310  Biso   1.000  C
  C20      1.0000 0.14854  0.45324  0.18888  Biso   1.000  C
  C21      1.0000 0.35790  0.66820  0.62200  Biso   1.000  C
  C22      1.0000 0.42197  0.65557  0.57014  Biso   1.000  C
  C23      1.0000 0.41910  0.52770  0.67060  Biso   1.000  C
  C24      1.0000 0.41767  0.40087  0.63354  Biso   1.000  C
  C25      1.0000 0.23545  0.57715  0.65230  Biso   1.000  C
  C26      1.0000 0.30101  0.73341  0.87202  Biso   1.000  C
  C27      1.0000 0.28595  0.65005  0.80170  Biso   1.000  C
  C28      1.0000 0.25790  0.66720  0.73200  Biso   1.000  C
  C29      1.0000 0.24325  0.76845  0.73690  Biso   1.000  C
  C30      1.0000 0.26436  0.85146  0.81112  Biso   1.000  C
  C31      1.0000 0.26410  0.95380  0.62200  Biso   1.000  C
  C32      1.0000 0.14817  0.91457  0.57014  Biso   1.000  C
  C33      1.0000 0.25150  0.14290  0.67060  Biso   1.000  C
  C34      1.0000 0.21587  0.23267  0.63354  Biso   1.000  C
  C35      1.0000 0.41685  0.07515  0.65230  Biso   1.000  C
  C36      1.0000 0.57101  0.13861  0.87202  Biso   1.000  C
  C37      1.0000 0.51575  0.15165  0.80170  Biso   1.000  C
  C38      1.0000 0.47410  0.06480  0.73200  Biso   1.000  C
  C39      1.0000 0.49365  0.96845  0.73690  Biso   1.000  C
  C40      1.0000 0.54676  0.95966  0.81112  Biso   1.000  C
  C41      1.0000 0.91820  0.10790  0.12200  Biso   1.000  C
  C42      1.0000 0.90557  0.17197  0.07014  Biso   1.000  C
  C43      1.0000 0.77770  0.16910  0.17060  Biso   1.000  C
  C44      1.0000 0.65087  0.16767  0.13354  Biso   1.000  C
  C45      1.0000 0.82715  0.98545  0.15230  Biso   1.000  C
  C46      1.0000 0.98341  0.05101  0.37202  Biso   1.000  C
  C47      1.0000 0.90005  0.03595  0.30170  Biso   1.000  C
  C48      1.0000 0.91720  0.00790  0.23200  Biso   1.000  C
  C49      1.0000 0.01845  0.99325  0.23690  Biso   1.000  C
  C50      1.0000 0.10146  0.01436  0.31112  Biso   1.000  C
  C51      1.0000 0.20380  0.01410  0.12200  Biso   1.000  C
  C52      1.0000 0.16457  0.89817  0.07014  Biso   1.000  C
  C53      1.0000 0.39290  0.00150  0.17060  Biso   1.000  C
  C54      1.0000 0.48267  0.96587  0.13354  Biso   1.000  C
  C55      1.0000 0.32515  0.16685  0.15230  Biso   1.000  C
  C56      1.0000 0.38861  0.32101  0.37202  Biso   1.000  C
  C57      1.0000 0.40165  0.26575  0.30170  Biso   1.000  C
  C58      1.0000 0.31480  0.22410  0.23200  Biso   1.000  C
  C59      1.0000 0.21845  0.24365  0.23690  Biso   1.000  C
  C60      1.0000 0.20966  0.29676  0.31112  Biso   1.000  C
  C61      1.0000 0.98590  0.08180  0.87800  Biso   1.000  C
  C62      1.0000 0.10183  0.09443  0.92986  Biso   1.000  C
  C63      1.0000 0.99850  0.22230  0.82940  Biso   1.000  C
  C64      1.0000 0.03413  0.34913  0.86646  Biso   1.000  C
  C65      1.0000 0.83315  0.17285  0.84770  Biso   1.000  C
  C66      1.0000 0.67899  0.01659  0.62798  Biso   1.000  C
  C67      1.0000 0.73425  0.09995  0.69830  Biso   1.000  C
  C68      1.0000 0.77590  0.08280  0.76800  Biso   1.000  C
  C69      1.0000 0.75635  0.98155  0.76310  Biso   1.000  C
  C70      1.0000 0.70324  0.89854  0.68888  Biso   1.000  C
  C71      1.0000 0.89210  0.79620  0.87800  Biso   1.000  C
  C72      1.0000 0.82803  0.83543  0.92986  Biso   1.000  C
  C73      1.0000 0.83090  0.60710  0.82940  Biso   1.000  C
  C74      1.0000 0.83233  0.51733  0.86646  Biso   1.000  C
  C75      1.0000 0.01455  0.67485  0.84770  Biso   1.000  C
  C76      1.0000 0.94899  0.61139  0.62798  Biso   1.000  C
  C77      1.0000 0.96405  0.59835  0.69830  Biso   1.000  C
  C78      1.0000 0.99210  0.68520  0.76800  Biso   1.000  C
  C79      1.0000 0.00675  0.78155  0.76310  Biso   1.000  C
  C80      1.0000 0.98564  0.79034  0.68888  Biso   1.000  C
  N1       1.0000 0.93543  0.67393  0.37406  Biso   1.000  N
  N2       1.0000 0.95646  0.70676  0.12212  Biso   1.000  N
  N3       1.0000 0.43863  0.70013  0.37406  Biso   1.000  N
  N4       1.0000 0.16566  0.41536  0.12212  Biso   1.000  N
  N5       1.0000 0.32607  0.56137  0.62594  Biso   1.000  N
  N6       1.0000 0.29324  0.83434  0.87788  Biso   1.000  N
  N7       1.0000 0.29987  0.06457  0.62594  Biso   1.000  N
  N8       1.0000 0.58464  0.04354  0.87788  Biso   1.000  N
  N9       1.0000 0.81137  0.07607  0.12594  Biso   1.000  N
  N10      1.0000 0.08434  0.04324  0.37788  Biso   1.000  N
  N11      1.0000 0.31457  0.04987  0.12594  Biso   1.000  N
  N12      1.0000 0.29354  0.33464  0.37788  Biso   1.000  N
  N13      1.0000 0.95013  0.18863  0.87406  Biso   1.000  N
  N14      1.0000 0.66536  0.91566  0.62212  Biso   1.000  N
  N15      1.0000 0.92393  0.68543  0.87406  Biso   1.000  N
  N16      1.0000 0.95676  0.70646  0.62212  Biso   1.000  N
  O1       1.0000 0.15571  0.52341  0.41522  Biso   1.000  O
  O2       1.0000 0.06161  0.59571  0.48702  Biso   1.000  O
  O3       1.0000 0.79503  0.62383  0.43886  Biso   1.000  O
  O4       1.0000 0.67716  0.52546  0.32132  Biso   1.000  O
  O5       1.0000 0.12942  0.33942  0.48204  Biso   1.000  O
  O6       1.0000 0.25951  0.89181  0.41522  Biso   1.000  O
  O7       1.0000 0.42541  0.89131  0.48702  Biso   1.000  O
  O8       1.0000 0.64383  0.81503  0.43886  Biso   1.000  O
  O9       1.0000 0.64416  0.79586  0.32132  Biso   1.000  O
  O10      1.0000 0.35262  0.14262  0.48204  Biso   1.000  O
  O11      1.0000 0.47659  0.74049  0.58478  Biso   1.000  O
  O12      1.0000 0.40429  0.57459  0.51298  Biso   1.000  O
  O13      1.0000 0.37617  0.35617  0.56114  Biso   1.000  O
  O14      1.0000 0.47454  0.35584  0.67868  Biso   1.000  O
  O15      1.0000 0.66058  0.64738  0.51796  Biso   1.000  O
  O16      1.0000 0.10819  0.84429  0.58478  Biso   1.000  O
  O17      1.0000 0.10869  0.93839  0.51298  Biso   1.000  O
  O18      1.0000 0.18497  0.20497  0.56114  Biso   1.000  O
  O19      1.0000 0.20414  0.32284  0.67868  Biso   1.000  O
  O20      1.0000 0.85738  0.87058  0.51796  Biso   1.000  O
  O21      1.0000 0.99049  0.22659  0.08478  Biso   1.000  O
  O22      1.0000 0.82459  0.15429  0.01298  Biso   1.000  O
  O23      1.0000 0.60617  0.12617  0.06114  Biso   1.000  O
  O24      1.0000 0.60584  0.22454  0.17868  Biso   1.000  O
  O25      1.0000 0.89738  0.41058  0.01796  Biso   1.000  O
  O26      1.0000 0.09429  0.85819  0.08478  Biso   1.000  O
  O27      1.0000 0.18839  0.85869  0.01298  Biso   1.000  O
  O28      1.0000 0.45497  0.93497  0.06114  Biso   1.000  O
  O29      1.0000 0.57284  0.95414  0.17868  Biso   1.000  O
  O30      1.0000 0.12058  0.60738  0.01796  Biso   1.000  O
  O31      1.0000 0.14181  0.00951  0.91522  Biso   1.000  O
  O32      1.0000 0.14131  0.17541  0.98702  Biso   1.000  O
  O33      1.0000 0.06503  0.39383  0.93886  Biso   1.000  O
  O34      1.0000 0.04586  0.39416  0.82132  Biso   1.000  O
  O35      1.0000 0.39262  0.10262  0.98204  Biso   1.000  O
  O36      1.0000 0.77341  0.90571  0.91522  Biso   1.000  O
  O37      1.0000 0.84571  0.81161  0.98702  Biso   1.000  O
  O38      1.0000 0.87383  0.54503  0.93886  Biso   1.000  O
  O39      1.0000 0.77546  0.42716  0.82132  Biso   1.000  O
  O40      1.0000 0.58942  0.87942  0.98204  Biso   1.000  O
