data_image0
_cell_length_a       17.2926
_cell_length_b       17.2926
_cell_length_c       22.8962
_cell_angle_alpha    90
_cell_angle_beta     90
_cell_angle_gamma    90

_symmetry_space_group_name_H-M    P 1
_symmetry_int_tables_number       1

loop_
  _symmetry_equiv_pos_as_xyz
  'x, y, z'

loop_
  _atom_site_label
  _atom_site_occupancy
  _atom_site_fract_x
  _atom_site_fract_y
  _atom_site_fract_z
  _atom_site_thermal_displace_type
  _atom_site_B_iso_or_equiv
  _atom_site_type_symbol
  Fe1      1.0000 0.00000  0.00000  0.00000  Biso   1.000  Fe
  Fe2      1.0000 0.50000  0.50000  0.50000  Biso   1.000  Fe
  Fe3      1.0000 0.50000  0.00000  0.05156  Biso   1.000  Fe
  Fe4      1.0000 0.00000  0.50000  0.94844  Biso   1.000  Fe
  Fe5      1.0000 0.00000  0.50000  0.44844  Biso   1.000  Fe
  Fe6      1.0000 0.50000  0.00000  0.55156  Biso   1.000  Fe
  Fe7      1.0000 0.50000  0.50000  0.00000  Biso   1.000  Fe
  Fe8      1.0000 0.00000  0.00000  0.50000  Biso   1.000  Fe
  H1       1.0000 0.85990  0.82160  0.97820  Biso   1.000  H
  H2       1.0000 0.85980  0.68910  0.96140  Biso   1.000  H
  H3       1.0000 0.63940  0.67640  0.01820  Biso   1.000  H
  H4       1.0000 0.63690  0.80850  0.03200  Biso   1.000  H
  H5       1.0000 0.10210  0.95100  0.89580  Biso   1.000  H
  H6       1.0000 0.10390  0.94630  0.79440  Biso   1.000  H
  H7       1.0000 0.06820  0.90440  0.70500  Biso   1.000  H
  H8       1.0000 0.06750  0.90870  0.60530  Biso   1.000  H
  H9       1.0000 0.55960  0.90410  0.94640  Biso   1.000  H
  H10      1.0000 0.56180  0.90010  0.84550  Biso   1.000  H
  H11      1.0000 0.60240  0.94350  0.75660  Biso   1.000  H
  H12      1.0000 0.59930  0.94480  0.65590  Biso   1.000  H
  H13      1.0000 0.14010  0.17840  0.97820  Biso   1.000  H
  H14      1.0000 0.14020  0.31090  0.96140  Biso   1.000  H
  H15      1.0000 0.36060  0.32360  0.01820  Biso   1.000  H
  H16      1.0000 0.36310  0.19150  0.03200  Biso   1.000  H
  H17      1.0000 0.89790  0.04900  0.89580  Biso   1.000  H
  H18      1.0000 0.89610  0.05370  0.79440  Biso   1.000  H
  H19      1.0000 0.93180  0.09560  0.70500  Biso   1.000  H
  H20      1.0000 0.93250  0.09130  0.60530  Biso   1.000  H
  H21      1.0000 0.44040  0.09590  0.94640  Biso   1.000  H
  H22      1.0000 0.43820  0.09990  0.84550  Biso   1.000  H
  H23      1.0000 0.39760  0.05650  0.75660  Biso   1.000  H
  H24      1.0000 0.40070  0.05520  0.65590  Biso   1.000  H
  H25      1.0000 0.82160  0.14010  0.02180  Biso   1.000  H
  H26      1.0000 0.68910  0.14020  0.03860  Biso   1.000  H
  H27      1.0000 0.67640  0.36060  0.98180  Biso   1.000  H
  H28      1.0000 0.80850  0.36310  0.96800  Biso   1.000  H
  H29      1.0000 0.95100  0.89790  0.10420  Biso   1.000  H
  H30      1.0000 0.94630  0.89610  0.20560  Biso   1.000  H
  H31      1.0000 0.90440  0.93180  0.29500  Biso   1.000  H
  H32      1.0000 0.90870  0.93250  0.39470  Biso   1.000  H
  H33      1.0000 0.90410  0.44040  0.05360  Biso   1.000  H
  H34      1.0000 0.90010  0.43820  0.15450  Biso   1.000  H
  H35      1.0000 0.94350  0.39760  0.24340  Biso   1.000  H
  H36      1.0000 0.94480  0.40070  0.34410  Biso   1.000  H
  H37      1.0000 0.17840  0.85990  0.02180  Biso   1.000  H
  H38      1.0000 0.31090  0.85980  0.03860  Biso   1.000  H
  H39      1.0000 0.32360  0.63940  0.98180  Biso   1.000  H
  H40      1.0000 0.19150  0.63690  0.96800  Biso   1.000  H
  H41      1.0000 0.04900  0.10210  0.10420  Biso   1.000  H
  H42      1.0000 0.05370  0.10390  0.20560  Biso   1.000  H
  H43      1.0000 0.09560  0.06820  0.29500  Biso   1.000  H
  H44      1.0000 0.09130  0.06750  0.39470  Biso   1.000  H
  H45      1.0000 0.09590  0.55960  0.05360  Biso   1.000  H
  H46      1.0000 0.09990  0.56180  0.15450  Biso   1.000  H
  H47      1.0000 0.05650  0.60240  0.24340  Biso   1.000  H
  H48      1.0000 0.05520  0.59930  0.34410  Biso   1.000  H
  H49      1.0000 0.64010  0.32160  0.52180  Biso   1.000  H
  H50      1.0000 0.64020  0.18910  0.53860  Biso   1.000  H
  H51      1.0000 0.86060  0.17640  0.48180  Biso   1.000  H
  H52      1.0000 0.86310  0.30850  0.46800  Biso   1.000  H
  H53      1.0000 0.39790  0.45100  0.60420  Biso   1.000  H
  H54      1.0000 0.39610  0.44630  0.70560  Biso   1.000  H
  H55      1.0000 0.43180  0.40440  0.79500  Biso   1.000  H
  H56      1.0000 0.43250  0.40870  0.89470  Biso   1.000  H
  H57      1.0000 0.94040  0.40410  0.55360  Biso   1.000  H
  H58      1.0000 0.93820  0.40010  0.65450  Biso   1.000  H
  H59      1.0000 0.89760  0.44350  0.74340  Biso   1.000  H
  H60      1.0000 0.90070  0.44480  0.84410  Biso   1.000  H
  H61      1.0000 0.35990  0.67840  0.52180  Biso   1.000  H
  H62      1.0000 0.35980  0.81090  0.53860  Biso   1.000  H
  H63      1.0000 0.13940  0.82360  0.48180  Biso   1.000  H
  H64      1.0000 0.13690  0.69150  0.46800  Biso   1.000  H
  H65      1.0000 0.60210  0.54900  0.60420  Biso   1.000  H
  H66      1.0000 0.60390  0.55370  0.70560  Biso   1.000  H
  H67      1.0000 0.56820  0.59560  0.79500  Biso   1.000  H
  H68      1.0000 0.56750  0.59130  0.89470  Biso   1.000  H
  H69      1.0000 0.05960  0.59590  0.55360  Biso   1.000  H
  H70      1.0000 0.06180  0.59990  0.65450  Biso   1.000  H
  H71      1.0000 0.10240  0.55650  0.74340  Biso   1.000  H
  H72      1.0000 0.09930  0.55520  0.84410  Biso   1.000  H
  H73      1.0000 0.67840  0.64010  0.47820  Biso   1.000  H
  H74      1.0000 0.81090  0.64020  0.46140  Biso   1.000  H
  H75      1.0000 0.82360  0.86060  0.51820  Biso   1.000  H
  H76      1.0000 0.69150  0.86310  0.53200  Biso   1.000  H
  H77      1.0000 0.54900  0.39790  0.39580  Biso   1.000  H
  H78      1.0000 0.55370  0.39610  0.29440  Biso   1.000  H
  H79      1.0000 0.59560  0.43180  0.20500  Biso   1.000  H
  H80      1.0000 0.59130  0.43250  0.10530  Biso   1.000  H
  H81      1.0000 0.59590  0.94040  0.44640  Biso   1.000  H
  H82      1.0000 0.59990  0.93820  0.34550  Biso   1.000  H
  H83      1.0000 0.55650  0.89760  0.25660  Biso   1.000  H
  H84      1.0000 0.55520  0.90070  0.15590  Biso   1.000  H
  H85      1.0000 0.32160  0.35990  0.47820  Biso   1.000  H
  H86      1.0000 0.18910  0.35980  0.46140  Biso   1.000  H
  H87      1.0000 0.17640  0.13940  0.51820  Biso   1.000  H
  H88      1.0000 0.30850  0.13690  0.53200  Biso   1.000  H
  H89      1.0000 0.45100  0.60210  0.39580  Biso   1.000  H
  H90      1.0000 0.44630  0.60390  0.29440  Biso   1.000  H
  H91      1.0000 0.40440  0.56820  0.20500  Biso   1.000  H
  H92      1.0000 0.40870  0.56750  0.10530  Biso   1.000  H
  H93      1.0000 0.40410  0.05960  0.44640  Biso   1.000  H
  H94      1.0000 0.40010  0.06180  0.34550  Biso   1.000  H
  H95      1.0000 0.44350  0.10240  0.25660  Biso   1.000  H
  H96      1.0000 0.44480  0.09930  0.15590  Biso   1.000  H
  C1       1.0000 0.81715  0.95683  0.00895  Biso   1.000  C
  C2       1.0000 0.74865  0.91475  0.01691  Biso   1.000  C
  C3       1.0000 0.68097  0.95173  0.03517  Biso   1.000  C
  C4       1.0000 0.74920  0.83199  0.00670  Biso   1.000  C
  C5       1.0000 0.81412  0.79295  0.98585  Biso   1.000  C
  C6       1.0000 0.81439  0.71355  0.97578  Biso   1.000  C
  C7       1.0000 0.74946  0.67015  0.98717  Biso   1.000  C
  C8       1.0000 0.68385  0.70626  0.00904  Biso   1.000  C
  C9       1.0000 0.68293  0.78479  0.01805  Biso   1.000  C
  C10      1.0000 0.74932  0.58375  0.97789  Biso   1.000  C
  C11      1.0000 0.68313  0.54233  0.98916  Biso   1.000  C
  C12      1.0000 0.81838  0.54680  0.96251  Biso   1.000  C
  C13      1.0000 0.05929  0.97109  0.87464  Biso   1.000  C
  C14      1.0000 0.06107  0.96893  0.81396  Biso   1.000  C
  C15      1.0000 0.04022  0.94396  0.68544  Biso   1.000  C
  C16      1.0000 0.03899  0.94667  0.62616  Biso   1.000  C
  C17      1.0000 0.53462  0.94432  0.92539  Biso   1.000  C
  C18      1.0000 0.53626  0.94140  0.86502  Biso   1.000  C
  C19      1.0000 0.56003  0.96701  0.73707  Biso   1.000  C
  C20      1.0000 0.55790  0.96770  0.67698  Biso   1.000  C
  C21      1.0000 0.18285  0.04317  0.00895  Biso   1.000  C
  C22      1.0000 0.25135  0.08525  0.01691  Biso   1.000  C
  C23      1.0000 0.31903  0.04827  0.03517  Biso   1.000  C
  C24      1.0000 0.25080  0.16801  0.00670  Biso   1.000  C
  C25      1.0000 0.18588  0.20705  0.98585  Biso   1.000  C
  C26      1.0000 0.18561  0.28645  0.97578  Biso   1.000  C
  C27      1.0000 0.25054  0.32985  0.98717  Biso   1.000  C
  C28      1.0000 0.31615  0.29374  0.00904  Biso   1.000  C
  C29      1.0000 0.31707  0.21521  0.01805  Biso   1.000  C
  C30      1.0000 0.25068  0.41625  0.97789  Biso   1.000  C
  C31      1.0000 0.31687  0.45767  0.98916  Biso   1.000  C
  C32      1.0000 0.18162  0.45320  0.96251  Biso   1.000  C
  C33      1.0000 0.94071  0.02891  0.87464  Biso   1.000  C
  C34      1.0000 0.93893  0.03107  0.81396  Biso   1.000  C
  C35      1.0000 0.95978  0.05604  0.68544  Biso   1.000  C
  C36      1.0000 0.96101  0.05333  0.62616  Biso   1.000  C
  C37      1.0000 0.46538  0.05568  0.92539  Biso   1.000  C
  C38      1.0000 0.46374  0.05860  0.86502  Biso   1.000  C
  C39      1.0000 0.43997  0.03299  0.73707  Biso   1.000  C
  C40      1.0000 0.44210  0.03230  0.67698  Biso   1.000  C
  C41      1.0000 0.95683  0.18285  0.99105  Biso   1.000  C
  C42      1.0000 0.91475  0.25135  0.98309  Biso   1.000  C
  C43      1.0000 0.95173  0.31903  0.96483  Biso   1.000  C
  C44      1.0000 0.83199  0.25080  0.99330  Biso   1.000  C
  C45      1.0000 0.79295  0.18588  0.01415  Biso   1.000  C
  C46      1.0000 0.71355  0.18561  0.02422  Biso   1.000  C
  C47      1.0000 0.67015  0.25054  0.01283  Biso   1.000  C
  C48      1.0000 0.70626  0.31615  0.99096  Biso   1.000  C
  C49      1.0000 0.78479  0.31707  0.98195  Biso   1.000  C
  C50      1.0000 0.58375  0.25068  0.02211  Biso   1.000  C
  C51      1.0000 0.54233  0.31687  0.01084  Biso   1.000  C
  C52      1.0000 0.54680  0.18162  0.03749  Biso   1.000  C
  C53      1.0000 0.97109  0.94071  0.12536  Biso   1.000  C
  C54      1.0000 0.96893  0.93893  0.18604  Biso   1.000  C
  C55      1.0000 0.94396  0.95978  0.31456  Biso   1.000  C
  C56      1.0000 0.94667  0.96101  0.37384  Biso   1.000  C
  C57      1.0000 0.94432  0.46538  0.07461  Biso   1.000  C
  C58      1.0000 0.94140  0.46374  0.13498  Biso   1.000  C
  C59      1.0000 0.96701  0.43997  0.26293  Biso   1.000  C
  C60      1.0000 0.96770  0.44210  0.32302  Biso   1.000  C
  C61      1.0000 0.04317  0.81715  0.99105  Biso   1.000  C
  C62      1.0000 0.08525  0.74865  0.98309  Biso   1.000  C
  C63      1.0000 0.04827  0.68097  0.96483  Biso   1.000  C
  C64      1.0000 0.16801  0.74920  0.99330  Biso   1.000  C
  C65      1.0000 0.20705  0.81412  0.01415  Biso   1.000  C
  C66      1.0000 0.28645  0.81439  0.02422  Biso   1.000  C
  C67      1.0000 0.32985  0.74946  0.01283  Biso   1.000  C
  C68      1.0000 0.29374  0.68385  0.99096  Biso   1.000  C
  C69      1.0000 0.21521  0.68293  0.98195  Biso   1.000  C
  C70      1.0000 0.41625  0.74932  0.02211  Biso   1.000  C
  C71      1.0000 0.45767  0.68313  0.01084  Biso   1.000  C
  C72      1.0000 0.45320  0.81838  0.03749  Biso   1.000  C
  C73      1.0000 0.02891  0.05929  0.12536  Biso   1.000  C
  C74      1.0000 0.03107  0.06107  0.18604  Biso   1.000  C
  C75      1.0000 0.05604  0.04022  0.31456  Biso   1.000  C
  C76      1.0000 0.05333  0.03899  0.37384  Biso   1.000  C
  C77      1.0000 0.05568  0.53462  0.07461  Biso   1.000  C
  C78      1.0000 0.05860  0.53626  0.13498  Biso   1.000  C
  C79      1.0000 0.03299  0.56003  0.26293  Biso   1.000  C
  C80      1.0000 0.03230  0.55790  0.32302  Biso   1.000  C
  C81      1.0000 0.68285  0.45683  0.49105  Biso   1.000  C
  C82      1.0000 0.75135  0.41475  0.48309  Biso   1.000  C
  C83      1.0000 0.81903  0.45173  0.46483  Biso   1.000  C
  C84      1.0000 0.75080  0.33199  0.49330  Biso   1.000  C
  C85      1.0000 0.68588  0.29295  0.51415  Biso   1.000  C
  C86      1.0000 0.68561  0.21355  0.52422  Biso   1.000  C
  C87      1.0000 0.75054  0.17015  0.51283  Biso   1.000  C
  C88      1.0000 0.81615  0.20626  0.49096  Biso   1.000  C
  C89      1.0000 0.81707  0.28479  0.48195  Biso   1.000  C
  C90      1.0000 0.75068  0.08375  0.52211  Biso   1.000  C
  C91      1.0000 0.81687  0.04233  0.51084  Biso   1.000  C
  C92      1.0000 0.68162  0.04680  0.53749  Biso   1.000  C
  C93      1.0000 0.44071  0.47109  0.62536  Biso   1.000  C
  C94      1.0000 0.43893  0.46893  0.68604  Biso   1.000  C
  C95      1.0000 0.45978  0.44396  0.81456  Biso   1.000  C
  C96      1.0000 0.46101  0.44667  0.87384  Biso   1.000  C
  C97      1.0000 0.96538  0.44432  0.57461  Biso   1.000  C
  C98      1.0000 0.96374  0.44140  0.63498  Biso   1.000  C
  C99      1.0000 0.93997  0.46701  0.76293  Biso   1.000  C
  C100     1.0000 0.94210  0.46770  0.82302  Biso   1.000  C
  C101     1.0000 0.31715  0.54317  0.49105  Biso   1.000  C
  C102     1.0000 0.24865  0.58525  0.48309  Biso   1.000  C
  C103     1.0000 0.18097  0.54827  0.46483  Biso   1.000  C
  C104     1.0000 0.24920  0.66801  0.49330  Biso   1.000  C
  C105     1.0000 0.31412  0.70705  0.51415  Biso   1.000  C
  C106     1.0000 0.31439  0.78645  0.52422  Biso   1.000  C
  C107     1.0000 0.24946  0.82985  0.51283  Biso   1.000  C
  C108     1.0000 0.18385  0.79374  0.49096  Biso   1.000  C
  C109     1.0000 0.18293  0.71521  0.48195  Biso   1.000  C
  C110     1.0000 0.24932  0.91625  0.52211  Biso   1.000  C
  C111     1.0000 0.18313  0.95767  0.51084  Biso   1.000  C
  C112     1.0000 0.31838  0.95320  0.53749  Biso   1.000  C
  C113     1.0000 0.55929  0.52891  0.62536  Biso   1.000  C
  C114     1.0000 0.56107  0.53107  0.68604  Biso   1.000  C
  C115     1.0000 0.54022  0.55604  0.81456  Biso   1.000  C
  C116     1.0000 0.53899  0.55333  0.87384  Biso   1.000  C
  C117     1.0000 0.03462  0.55568  0.57461  Biso   1.000  C
  C118     1.0000 0.03626  0.55860  0.63498  Biso   1.000  C
  C119     1.0000 0.06003  0.53299  0.76293  Biso   1.000  C
  C120     1.0000 0.05790  0.53230  0.82302  Biso   1.000  C
  C121     1.0000 0.54317  0.68285  0.50895  Biso   1.000  C
  C122     1.0000 0.58525  0.75135  0.51691  Biso   1.000  C
  C123     1.0000 0.54827  0.81903  0.53517  Biso   1.000  C
  C124     1.0000 0.66801  0.75080  0.50670  Biso   1.000  C
  C125     1.0000 0.70705  0.68588  0.48585  Biso   1.000  C
  C126     1.0000 0.78645  0.68561  0.47578  Biso   1.000  C
  C127     1.0000 0.82985  0.75054  0.48717  Biso   1.000  C
  C128     1.0000 0.79374  0.81615  0.50904  Biso   1.000  C
  C129     1.0000 0.71521  0.81707  0.51805  Biso   1.000  C
  C130     1.0000 0.91625  0.75068  0.47789  Biso   1.000  C
  C131     1.0000 0.95767  0.81687  0.48916  Biso   1.000  C
  C132     1.0000 0.95320  0.68162  0.46251  Biso   1.000  C
  C133     1.0000 0.52891  0.44071  0.37464  Biso   1.000  C
  C134     1.0000 0.53107  0.43893  0.31396  Biso   1.000  C
  C135     1.0000 0.55604  0.45978  0.18544  Biso   1.000  C
  C136     1.0000 0.55333  0.46101  0.12616  Biso   1.000  C
  C137     1.0000 0.55568  0.96538  0.42539  Biso   1.000  C
  C138     1.0000 0.55860  0.96374  0.36502  Biso   1.000  C
  C139     1.0000 0.53299  0.93997  0.23707  Biso   1.000  C
  C140     1.0000 0.53230  0.94210  0.17698  Biso   1.000  C
  C141     1.0000 0.45683  0.31715  0.50895  Biso   1.000  C
  C142     1.0000 0.41475  0.24865  0.51691  Biso   1.000  C
  C143     1.0000 0.45173  0.18097  0.53517  Biso   1.000  C
  C144     1.0000 0.33199  0.24920  0.50670  Biso   1.000  C
  C145     1.0000 0.29295  0.31412  0.48585  Biso   1.000  C
  C146     1.0000 0.21355  0.31439  0.47578  Biso   1.000  C
  C147     1.0000 0.17015  0.24946  0.48717  Biso   1.000  C
  C148     1.0000 0.20626  0.18385  0.50904  Biso   1.000  C
  C149     1.0000 0.28479  0.18293  0.51805  Biso   1.000  C
  C150     1.0000 0.08375  0.24932  0.47789  Biso   1.000  C
  C151     1.0000 0.04233  0.18313  0.48916  Biso   1.000  C
  C152     1.0000 0.04680  0.31838  0.46251  Biso   1.000  C
  C153     1.0000 0.47109  0.55929  0.37464  Biso   1.000  C
  C154     1.0000 0.46893  0.56107  0.31396  Biso   1.000  C
  C155     1.0000 0.44396  0.54022  0.18544  Biso   1.000  C
  C156     1.0000 0.44667  0.53899  0.12616  Biso   1.000  C
  C157     1.0000 0.44432  0.03462  0.42539  Biso   1.000  C
  C158     1.0000 0.44140  0.03626  0.36502  Biso   1.000  C
  C159     1.0000 0.46701  0.06003  0.23707  Biso   1.000  C
  C160     1.0000 0.46770  0.05790  0.17698  Biso   1.000  C
  C161     1.0000 0.50000  0.00000  0.83308  Biso   1.000  C
  C162     1.0000 0.50000  0.00000  0.76901  Biso   1.000  C
  C163     1.0000 0.00000  0.50000  0.16692  Biso   1.000  C
  C164     1.0000 0.00000  0.50000  0.23099  Biso   1.000  C
  C165     1.0000 0.00000  0.50000  0.66692  Biso   1.000  C
  C166     1.0000 0.00000  0.50000  0.73099  Biso   1.000  C
  C167     1.0000 0.50000  0.00000  0.33308  Biso   1.000  C
  C168     1.0000 0.50000  0.00000  0.26901  Biso   1.000  C
  C169     1.0000 0.00000  0.00000  0.78238  Biso   1.000  C
  C170     1.0000 0.00000  0.00000  0.71787  Biso   1.000  C
  C171     1.0000 0.00000  0.00000  0.21762  Biso   1.000  C
  C172     1.0000 0.00000  0.00000  0.28213  Biso   1.000  C
  C173     1.0000 0.50000  0.50000  0.71762  Biso   1.000  C
  C174     1.0000 0.50000  0.50000  0.78213  Biso   1.000  C
  C175     1.0000 0.50000  0.50000  0.28238  Biso   1.000  C
  C176     1.0000 0.50000  0.50000  0.21787  Biso   1.000  C
  N1       1.0000 0.87685  0.98464  0.00123  Biso   1.000  N
  N2       1.0000 0.62214  0.97643  0.04989  Biso   1.000  N
  N3       1.0000 0.87833  0.52148  0.94930  Biso   1.000  N
  N4       1.0000 0.62315  0.51431  0.99929  Biso   1.000  N
  N5       1.0000 0.12315  0.01536  0.00123  Biso   1.000  N
  N6       1.0000 0.37786  0.02357  0.04989  Biso   1.000  N
  N7       1.0000 0.12167  0.47852  0.94930  Biso   1.000  N
  N8       1.0000 0.37685  0.48569  0.99929  Biso   1.000  N
  N9       1.0000 0.98464  0.12315  0.99877  Biso   1.000  N
  N10      1.0000 0.97643  0.37786  0.95011  Biso   1.000  N
  N11      1.0000 0.52148  0.12167  0.05070  Biso   1.000  N
  N12      1.0000 0.51431  0.37685  0.00071  Biso   1.000  N
  N13      1.0000 0.01536  0.87685  0.99877  Biso   1.000  N
  N14      1.0000 0.02357  0.62214  0.95011  Biso   1.000  N
  N15      1.0000 0.47852  0.87833  0.05070  Biso   1.000  N
  N16      1.0000 0.48569  0.62315  0.00071  Biso   1.000  N
  N17      1.0000 0.62315  0.48464  0.49877  Biso   1.000  N
  N18      1.0000 0.87786  0.47643  0.45011  Biso   1.000  N
  N19      1.0000 0.62167  0.02148  0.55070  Biso   1.000  N
  N20      1.0000 0.87685  0.01431  0.50071  Biso   1.000  N
  N21      1.0000 0.37685  0.51536  0.49877  Biso   1.000  N
  N22      1.0000 0.12214  0.52357  0.45011  Biso   1.000  N
  N23      1.0000 0.37833  0.97852  0.55070  Biso   1.000  N
  N24      1.0000 0.12315  0.98569  0.50071  Biso   1.000  N
  N25      1.0000 0.51536  0.62315  0.50123  Biso   1.000  N
  N26      1.0000 0.52357  0.87786  0.54989  Biso   1.000  N
  N27      1.0000 0.97852  0.62167  0.44930  Biso   1.000  N
  N28      1.0000 0.98569  0.87685  0.49929  Biso   1.000  N
  N29      1.0000 0.48464  0.37685  0.50123  Biso   1.000  N
  N30      1.0000 0.47643  0.12214  0.54989  Biso   1.000  N
  N31      1.0000 0.02148  0.37833  0.44930  Biso   1.000  N
  N32      1.0000 0.01431  0.12315  0.49929  Biso   1.000  N
  N33      1.0000 0.50000  0.00000  0.95595  Biso   1.000  N
  N34      1.0000 0.50000  0.00000  0.64632  Biso   1.000  N
  N35      1.0000 0.00000  0.50000  0.04405  Biso   1.000  N
  N36      1.0000 0.00000  0.50000  0.35368  Biso   1.000  N
  N37      1.0000 0.00000  0.50000  0.54405  Biso   1.000  N
  N38      1.0000 0.00000  0.50000  0.85368  Biso   1.000  N
  N39      1.0000 0.50000  0.00000  0.45595  Biso   1.000  N
  N40      1.0000 0.50000  0.00000  0.14632  Biso   1.000  N
  N41      1.0000 0.00000  0.00000  0.90473  Biso   1.000  N
  N42      1.0000 0.00000  0.00000  0.59600  Biso   1.000  N
  N43      1.0000 0.00000  0.00000  0.09527  Biso   1.000  N
  N44      1.0000 0.00000  0.00000  0.40400  Biso   1.000  N
  N45      1.0000 0.50000  0.50000  0.59527  Biso   1.000  N
  N46      1.0000 0.50000  0.50000  0.90400  Biso   1.000  N
  N47      1.0000 0.50000  0.50000  0.40473  Biso   1.000  N
  N48      1.0000 0.50000  0.50000  0.09600  Biso   1.000  N
