data_image0
_cell_length_a       7.3013
_cell_length_b       9.1802
_cell_length_c       19.344
_cell_angle_alpha    90
_cell_angle_beta     90
_cell_angle_gamma    90

_symmetry_space_group_name_H-M    P 1
_symmetry_int_tables_number       1

loop_
  _symmetry_equiv_pos_as_xyz
  'x, y, z'

loop_
  _atom_site_label
  _atom_site_occupancy
  _atom_site_fract_x
  _atom_site_fract_y
  _atom_site_fract_z
  _atom_site_thermal_displace_type
  _atom_site_B_iso_or_equiv
  _atom_site_type_symbol
  Sc1      1.0000 0.64610  0.50440  0.49950  Biso   1.000  Sc
  Sc2      1.0000 0.14610  0.49560  0.50050  Biso   1.000  Sc
  Sc3      1.0000 0.64610  0.99560  0.99950  Biso   1.000  Sc
  Sc4      1.0000 0.14610  0.00440  0.00050  Biso   1.000  Sc
  H1       1.0000 0.12790  0.23900  0.68790  Biso   1.000  H
  H2       1.0000 0.13190  0.16970  0.80280  Biso   1.000  H
  H3       1.0000 0.66460  0.27530  0.82100  Biso   1.000  H
  H4       1.0000 0.66320  0.35900  0.70500  Biso   1.000  H
  H5       1.0000 0.34600  0.66200  0.53100  Biso   1.000  H
  H6       1.0000 0.62790  0.76100  0.31210  Biso   1.000  H
  H7       1.0000 0.63190  0.83030  0.19720  Biso   1.000  H
  H8       1.0000 0.16460  0.72470  0.17900  Biso   1.000  H
  H9       1.0000 0.16320  0.64100  0.29500  Biso   1.000  H
  H10      1.0000 0.84600  0.33800  0.46900  Biso   1.000  H
  H11      1.0000 0.12790  0.26100  0.18790  Biso   1.000  H
  H12      1.0000 0.13190  0.33030  0.30280  Biso   1.000  H
  H13      1.0000 0.66460  0.22470  0.32100  Biso   1.000  H
  H14      1.0000 0.66320  0.14100  0.20500  Biso   1.000  H
  H15      1.0000 0.34600  0.83800  0.03100  Biso   1.000  H
  H16      1.0000 0.62790  0.73900  0.81210  Biso   1.000  H
  H17      1.0000 0.63190  0.66970  0.69720  Biso   1.000  H
  H18      1.0000 0.16460  0.77530  0.67900  Biso   1.000  H
  H19      1.0000 0.16320  0.85900  0.79500  Biso   1.000  H
  H20      1.0000 0.84600  0.16200  0.96900  Biso   1.000  H
  C1       1.0000 0.40140  0.36010  0.61230  Biso   1.000  C
  C2       1.0000 0.39590  0.30950  0.68720  Biso   1.000  C
  C3       1.0000 0.23550  0.24970  0.71500  Biso   1.000  C
  C4       1.0000 0.24040  0.20760  0.78240  Biso   1.000  C
  C5       1.0000 0.40240  0.21810  0.82410  Biso   1.000  C
  C6       1.0000 0.55480  0.27070  0.79480  Biso   1.000  C
  C7       1.0000 0.55520  0.31980  0.72510  Biso   1.000  C
  C8       1.0000 0.40410  0.17050  0.89690  Biso   1.000  C
  C9       1.0000 0.90140  0.63990  0.38770  Biso   1.000  C
  C10      1.0000 0.89590  0.69050  0.31280  Biso   1.000  C
  C11      1.0000 0.73550  0.75030  0.28500  Biso   1.000  C
  C12      1.0000 0.74040  0.79240  0.21760  Biso   1.000  C
  C13      1.0000 0.90240  0.78190  0.17590  Biso   1.000  C
  C14      1.0000 0.05480  0.72930  0.20520  Biso   1.000  C
  C15      1.0000 0.05520  0.68020  0.27490  Biso   1.000  C
  C16      1.0000 0.90410  0.82950  0.10310  Biso   1.000  C
  C17      1.0000 0.40140  0.13990  0.11230  Biso   1.000  C
  C18      1.0000 0.39590  0.19050  0.18720  Biso   1.000  C
  C19      1.0000 0.23550  0.25030  0.21500  Biso   1.000  C
  C20      1.0000 0.24040  0.29240  0.28240  Biso   1.000  C
  C21      1.0000 0.40240  0.28190  0.32410  Biso   1.000  C
  C22      1.0000 0.55480  0.22930  0.29480  Biso   1.000  C
  C23      1.0000 0.55520  0.18020  0.22510  Biso   1.000  C
  C24      1.0000 0.40410  0.32950  0.39690  Biso   1.000  C
  C25      1.0000 0.90140  0.86010  0.88770  Biso   1.000  C
  C26      1.0000 0.89590  0.80950  0.81280  Biso   1.000  C
  C27      1.0000 0.73550  0.74970  0.78500  Biso   1.000  C
  C28      1.0000 0.74040  0.70760  0.71760  Biso   1.000  C
  C29      1.0000 0.90240  0.71810  0.67590  Biso   1.000  C
  C30      1.0000 0.05480  0.77070  0.70520  Biso   1.000  C
  C31      1.0000 0.05520  0.81980  0.77490  Biso   1.000  C
  C32      1.0000 0.90410  0.67050  0.60310  Biso   1.000  C
  O1       1.0000 0.55140  0.38700  0.58550  Biso   1.000  O
  O2       1.0000 0.24700  0.37230  0.58250  Biso   1.000  O
  O3       1.0000 0.24680  0.15490  0.92660  Biso   1.000  O
  O4       1.0000 0.55030  0.15030  0.92600  Biso   1.000  O
  O5       1.0000 0.39010  0.60670  0.49160  Biso   1.000  O
  O6       1.0000 0.05140  0.61300  0.41450  Biso   1.000  O
  O7       1.0000 0.74700  0.62770  0.41750  Biso   1.000  O
  O8       1.0000 0.74680  0.84510  0.07340  Biso   1.000  O
  O9       1.0000 0.05030  0.84970  0.07400  Biso   1.000  O
  O10      1.0000 0.89010  0.39330  0.50840  Biso   1.000  O
  O11      1.0000 0.55140  0.11300  0.08550  Biso   1.000  O
  O12      1.0000 0.24700  0.12770  0.08250  Biso   1.000  O
  O13      1.0000 0.24680  0.34510  0.42660  Biso   1.000  O
  O14      1.0000 0.55030  0.34970  0.42600  Biso   1.000  O
  O15      1.0000 0.39010  0.89330  0.99160  Biso   1.000  O
  O16      1.0000 0.05140  0.88700  0.91450  Biso   1.000  O
  O17      1.0000 0.74700  0.87230  0.91750  Biso   1.000  O
  O18      1.0000 0.74680  0.65490  0.57340  Biso   1.000  O
  O19      1.0000 0.05030  0.65030  0.57400  Biso   1.000  O
  O20      1.0000 0.89010  0.10670  0.00840  Biso   1.000  O
