data_image0
_cell_length_a       12.728
_cell_length_b       19.177
_cell_length_c       19.177
_cell_angle_alpha    120
_cell_angle_beta     90
_cell_angle_gamma    90

_symmetry_space_group_name_H-M    P 1
_symmetry_int_tables_number       1

loop_
  _symmetry_equiv_pos_as_xyz
  'x, y, z'

loop_
  _atom_site_label
  _atom_site_occupancy
  _atom_site_fract_x
  _atom_site_fract_y
  _atom_site_fract_z
  _atom_site_thermal_displace_type
  _atom_site_B_iso_or_equiv
  _atom_site_type_symbol
  U1       1.0000 0.50000  0.66695  0.00000  Biso   1.000  U
  U2       1.0000 0.50000  0.33305  0.33305  Biso   1.000  U
  U3       1.0000 0.50000  0.00000  0.66695  Biso   1.000  U
  U4       1.0000 0.00000  0.33305  0.00000  Biso   1.000  U
  U5       1.0000 0.00000  0.66695  0.66695  Biso   1.000  U
  U6       1.0000 0.00000  0.00000  0.33305  Biso   1.000  U
  U7       1.0000 0.50000  0.33305  0.00000  Biso   1.000  U
  U8       1.0000 0.50000  0.66695  0.66695  Biso   1.000  U
  U9       1.0000 0.50000  0.00000  0.33305  Biso   1.000  U
  U10      1.0000 0.00000  0.66695  0.00000  Biso   1.000  U
  U11      1.0000 0.00000  0.33305  0.33305  Biso   1.000  U
  U12      1.0000 0.00000  0.00000  0.66695  Biso   1.000  U
  C1       1.0000 0.25000  0.67250  0.04490  Biso   1.000  C
  C2       1.0000 0.25000  0.68680  0.97500  Biso   1.000  C
  C3       1.0000 0.25000  0.37240  0.32750  Biso   1.000  C
  C4       1.0000 0.25000  0.28820  0.31320  Biso   1.000  C
  C5       1.0000 0.25000  0.95510  0.62760  Biso   1.000  C
  C6       1.0000 0.25000  0.02500  0.71180  Biso   1.000  C
  C7       1.0000 0.75000  0.32750  0.95510  Biso   1.000  C
  C8       1.0000 0.75000  0.31320  0.02500  Biso   1.000  C
  C9       1.0000 0.75000  0.62760  0.67250  Biso   1.000  C
  C10      1.0000 0.75000  0.71180  0.68680  Biso   1.000  C
  C11      1.0000 0.75000  0.04490  0.37240  Biso   1.000  C
  C12      1.0000 0.75000  0.97500  0.28820  Biso   1.000  C
  C13      1.0000 0.75000  0.62760  0.95510  Biso   1.000  C
  C14      1.0000 0.75000  0.71180  0.02500  Biso   1.000  C
  C15      1.0000 0.75000  0.04490  0.67250  Biso   1.000  C
  C16      1.0000 0.75000  0.97500  0.68680  Biso   1.000  C
  C17      1.0000 0.75000  0.32750  0.37240  Biso   1.000  C
  C18      1.0000 0.75000  0.31320  0.28820  Biso   1.000  C
  C19      1.0000 0.25000  0.37240  0.04490  Biso   1.000  C
  C20      1.0000 0.25000  0.28820  0.97500  Biso   1.000  C
  C21      1.0000 0.25000  0.95510  0.32750  Biso   1.000  C
  C22      1.0000 0.25000  0.02500  0.31320  Biso   1.000  C
  C23      1.0000 0.25000  0.67250  0.62760  Biso   1.000  C
  C24      1.0000 0.25000  0.68680  0.71180  Biso   1.000  C
  C25      1.0000 0.47000  0.85230  0.14770  Biso   1.000  C
  C26      1.0000 0.50600  0.80865  0.19135  Biso   1.000  C
  C27      1.0000 0.47000  0.29540  0.14770  Biso   1.000  C
  C28      1.0000 0.50600  0.38270  0.19135  Biso   1.000  C
  C29      1.0000 0.47000  0.85230  0.70460  Biso   1.000  C
  C30      1.0000 0.50600  0.80865  0.61730  Biso   1.000  C
  C31      1.0000 0.97000  0.14770  0.85230  Biso   1.000  C
  C32      1.0000 0.00600  0.19135  0.80865  Biso   1.000  C
  C33      1.0000 0.97000  0.70460  0.85230  Biso   1.000  C
  C34      1.0000 0.00600  0.61730  0.80865  Biso   1.000  C
  C35      1.0000 0.97000  0.14770  0.29540  Biso   1.000  C
  C36      1.0000 0.00600  0.19135  0.38270  Biso   1.000  C
  C37      1.0000 0.53000  0.70460  0.85230  Biso   1.000  C
  C38      1.0000 0.49400  0.61730  0.80865  Biso   1.000  C
  C39      1.0000 0.53000  0.14770  0.85230  Biso   1.000  C
  C40      1.0000 0.49400  0.19135  0.80865  Biso   1.000  C
  C41      1.0000 0.53000  0.14770  0.29540  Biso   1.000  C
  C42      1.0000 0.49400  0.19135  0.38270  Biso   1.000  C
  C43      1.0000 0.03000  0.29540  0.14770  Biso   1.000  C
  C44      1.0000 0.99400  0.38270  0.19135  Biso   1.000  C
  C45      1.0000 0.03000  0.85230  0.14770  Biso   1.000  C
  C46      1.0000 0.99400  0.80865  0.19135  Biso   1.000  C
  C47      1.0000 0.03000  0.85230  0.70460  Biso   1.000  C
  C48      1.0000 0.99400  0.80865  0.61730  Biso   1.000  C
  C49      1.0000 0.54050  0.51630  0.03260  Biso   1.000  C
  C50      1.0000 0.54050  0.51630  0.48370  Biso   1.000  C
  C51      1.0000 0.54050  0.96740  0.48370  Biso   1.000  C
  C52      1.0000 0.04050  0.48370  0.96740  Biso   1.000  C
  C53      1.0000 0.04050  0.48370  0.51630  Biso   1.000  C
  C54      1.0000 0.04050  0.03260  0.51630  Biso   1.000  C
  C55      1.0000 0.45950  0.48370  0.96740  Biso   1.000  C
  C56      1.0000 0.45950  0.03260  0.51630  Biso   1.000  C
  C57      1.0000 0.45950  0.48370  0.51630  Biso   1.000  C
  C58      1.0000 0.95950  0.51630  0.03260  Biso   1.000  C
  C59      1.0000 0.95950  0.96740  0.48370  Biso   1.000  C
  C60      1.0000 0.95950  0.51630  0.48370  Biso   1.000  C
  O1       1.0000 0.33920  0.67200  0.07370  Biso   1.000  O
  O2       1.0000 0.52170  0.73410  0.14980  Biso   1.000  O
  O3       1.0000 0.45690  0.81050  0.07290  Biso   1.000  O
  O4       1.0000 0.57860  0.58700  0.05370  Biso   1.000  O
  O5       1.0000 0.33700  0.69470  0.95120  Biso   1.000  O
  O6       1.0000 0.33920  0.40170  0.32800  Biso   1.000  O
  O7       1.0000 0.52170  0.41570  0.26590  Biso   1.000  O
  O8       1.0000 0.45690  0.26240  0.18950  Biso   1.000  O
  O9       1.0000 0.57860  0.46670  0.41300  Biso   1.000  O
  O10      1.0000 0.33700  0.25650  0.30530  Biso   1.000  O
  O11      1.0000 0.33920  0.92630  0.59830  Biso   1.000  O
  O12      1.0000 0.52170  0.85020  0.58430  Biso   1.000  O
  O13      1.0000 0.45690  0.92710  0.73760  Biso   1.000  O
  O14      1.0000 0.57860  0.94630  0.53330  Biso   1.000  O
  O15      1.0000 0.33700  0.04880  0.74350  Biso   1.000  O
  O16      1.0000 0.83920  0.32800  0.92630  Biso   1.000  O
  O17      1.0000 0.02170  0.26590  0.85020  Biso   1.000  O
  O18      1.0000 0.95690  0.18950  0.92710  Biso   1.000  O
  O19      1.0000 0.07860  0.41300  0.94630  Biso   1.000  O
  O20      1.0000 0.83700  0.30530  0.04880  Biso   1.000  O
  O21      1.0000 0.83920  0.59830  0.67200  Biso   1.000  O
  O22      1.0000 0.02170  0.58430  0.73410  Biso   1.000  O
  O23      1.0000 0.95690  0.73760  0.81050  Biso   1.000  O
  O24      1.0000 0.07860  0.53330  0.58700  Biso   1.000  O
  O25      1.0000 0.83700  0.74350  0.69470  Biso   1.000  O
  O26      1.0000 0.83920  0.07370  0.40170  Biso   1.000  O
  O27      1.0000 0.02170  0.14980  0.41570  Biso   1.000  O
  O28      1.0000 0.95690  0.07290  0.26240  Biso   1.000  O
  O29      1.0000 0.07860  0.05370  0.46670  Biso   1.000  O
  O30      1.0000 0.83700  0.95120  0.25650  Biso   1.000  O
  O31      1.0000 0.66080  0.59830  0.92630  Biso   1.000  O
  O32      1.0000 0.47830  0.58430  0.85020  Biso   1.000  O
  O33      1.0000 0.54310  0.73760  0.92710  Biso   1.000  O
  O34      1.0000 0.42140  0.53330  0.94630  Biso   1.000  O
  O35      1.0000 0.66300  0.74350  0.04880  Biso   1.000  O
  O36      1.0000 0.66080  0.07370  0.67200  Biso   1.000  O
  O37      1.0000 0.47830  0.14980  0.73410  Biso   1.000  O
  O38      1.0000 0.54310  0.07290  0.81050  Biso   1.000  O
  O39      1.0000 0.42140  0.05370  0.58700  Biso   1.000  O
  O40      1.0000 0.66300  0.95120  0.69470  Biso   1.000  O
  O41      1.0000 0.66080  0.32800  0.40170  Biso   1.000  O
  O42      1.0000 0.47830  0.26590  0.41570  Biso   1.000  O
  O43      1.0000 0.54310  0.18950  0.26240  Biso   1.000  O
  O44      1.0000 0.42140  0.41300  0.46670  Biso   1.000  O
  O45      1.0000 0.66300  0.30530  0.25650  Biso   1.000  O
  O46      1.0000 0.16080  0.40170  0.07370  Biso   1.000  O
  O47      1.0000 0.97830  0.41570  0.14980  Biso   1.000  O
  O48      1.0000 0.04310  0.26240  0.07290  Biso   1.000  O
  O49      1.0000 0.92140  0.46670  0.05370  Biso   1.000  O
  O50      1.0000 0.16300  0.25650  0.95120  Biso   1.000  O
  O51      1.0000 0.16080  0.92630  0.32800  Biso   1.000  O
  O52      1.0000 0.97830  0.85020  0.26590  Biso   1.000  O
  O53      1.0000 0.04310  0.92710  0.18950  Biso   1.000  O
  O54      1.0000 0.92140  0.94630  0.41300  Biso   1.000  O
  O55      1.0000 0.16300  0.04880  0.30530  Biso   1.000  O
  O56      1.0000 0.16080  0.67200  0.59830  Biso   1.000  O
  O57      1.0000 0.97830  0.73410  0.58430  Biso   1.000  O
  O58      1.0000 0.04310  0.81050  0.73760  Biso   1.000  O
  O59      1.0000 0.92140  0.58700  0.53330  Biso   1.000  O
  O60      1.0000 0.16300  0.69470  0.74350  Biso   1.000  O
  O61      1.0000 0.66080  0.32800  0.92630  Biso   1.000  O
  O62      1.0000 0.47830  0.26590  0.85020  Biso   1.000  O
  O63      1.0000 0.54310  0.18950  0.92710  Biso   1.000  O
  O64      1.0000 0.42140  0.41300  0.94630  Biso   1.000  O
  O65      1.0000 0.66300  0.30530  0.04880  Biso   1.000  O
  O66      1.0000 0.66080  0.59830  0.67200  Biso   1.000  O
  O67      1.0000 0.47830  0.58430  0.73410  Biso   1.000  O
  O68      1.0000 0.54310  0.73760  0.81050  Biso   1.000  O
  O69      1.0000 0.42140  0.53330  0.58700  Biso   1.000  O
  O70      1.0000 0.66300  0.74350  0.69470  Biso   1.000  O
  O71      1.0000 0.66080  0.07370  0.40170  Biso   1.000  O
  O72      1.0000 0.47830  0.14980  0.41570  Biso   1.000  O
  O73      1.0000 0.54310  0.07290  0.26240  Biso   1.000  O
  O74      1.0000 0.42140  0.05370  0.46670  Biso   1.000  O
  O75      1.0000 0.66300  0.95120  0.25650  Biso   1.000  O
  O76      1.0000 0.16080  0.67200  0.07370  Biso   1.000  O
  O77      1.0000 0.97830  0.73410  0.14980  Biso   1.000  O
  O78      1.0000 0.04310  0.81050  0.07290  Biso   1.000  O
  O79      1.0000 0.92140  0.58700  0.05370  Biso   1.000  O
  O80      1.0000 0.16300  0.69470  0.95120  Biso   1.000  O
  O81      1.0000 0.16080  0.40170  0.32800  Biso   1.000  O
  O82      1.0000 0.97830  0.41570  0.26590  Biso   1.000  O
  O83      1.0000 0.04310  0.26240  0.18950  Biso   1.000  O
  O84      1.0000 0.92140  0.46670  0.41300  Biso   1.000  O
  O85      1.0000 0.16300  0.25650  0.30530  Biso   1.000  O
  O86      1.0000 0.16080  0.92630  0.59830  Biso   1.000  O
  O87      1.0000 0.97830  0.85020  0.58430  Biso   1.000  O
  O88      1.0000 0.04310  0.92710  0.73760  Biso   1.000  O
  O89      1.0000 0.92140  0.94630  0.53330  Biso   1.000  O
  O90      1.0000 0.16300  0.04880  0.74350  Biso   1.000  O
  O91      1.0000 0.33920  0.40170  0.07370  Biso   1.000  O
  O92      1.0000 0.52170  0.41570  0.14980  Biso   1.000  O
  O93      1.0000 0.45690  0.26240  0.07290  Biso   1.000  O
  O94      1.0000 0.57860  0.46670  0.05370  Biso   1.000  O
  O95      1.0000 0.33700  0.25650  0.95120  Biso   1.000  O
  O96      1.0000 0.33920  0.92630  0.32800  Biso   1.000  O
  O97      1.0000 0.52170  0.85020  0.26590  Biso   1.000  O
  O98      1.0000 0.45690  0.92710  0.18950  Biso   1.000  O
  O99      1.0000 0.57860  0.94630  0.41300  Biso   1.000  O
  O100     1.0000 0.33700  0.04880  0.30530  Biso   1.000  O
  O101     1.0000 0.33920  0.67200  0.59830  Biso   1.000  O
  O102     1.0000 0.52170  0.73410  0.58430  Biso   1.000  O
  O103     1.0000 0.45690  0.81050  0.73760  Biso   1.000  O
  O104     1.0000 0.57860  0.58700  0.53330  Biso   1.000  O
  O105     1.0000 0.33700  0.69470  0.74350  Biso   1.000  O
  O106     1.0000 0.83920  0.59830  0.92630  Biso   1.000  O
  O107     1.0000 0.02170  0.58430  0.85020  Biso   1.000  O
  O108     1.0000 0.95690  0.73760  0.92710  Biso   1.000  O
  O109     1.0000 0.07860  0.53330  0.94630  Biso   1.000  O
  O110     1.0000 0.83700  0.74350  0.04880  Biso   1.000  O
  O111     1.0000 0.83920  0.07370  0.67200  Biso   1.000  O
  O112     1.0000 0.02170  0.14980  0.73410  Biso   1.000  O
  O113     1.0000 0.95690  0.07290  0.81050  Biso   1.000  O
  O114     1.0000 0.07860  0.05370  0.58700  Biso   1.000  O
  O115     1.0000 0.83700  0.95120  0.69470  Biso   1.000  O
  O116     1.0000 0.83920  0.32800  0.40170  Biso   1.000  O
  O117     1.0000 0.02170  0.26590  0.41570  Biso   1.000  O
  O118     1.0000 0.95690  0.18950  0.26240  Biso   1.000  O
  O119     1.0000 0.07860  0.41300  0.46670  Biso   1.000  O
  O120     1.0000 0.83700  0.30530  0.25650  Biso   1.000  O
