data_image0
_cell_length_a       8.52
_cell_length_b       9.51
_cell_length_c       10.14
_cell_angle_alpha    62.11
_cell_angle_beta     76.15
_cell_angle_gamma    73.73

_symmetry_space_group_name_H-M    P 1
_symmetry_int_tables_number       1

loop_
  _symmetry_equiv_pos_as_xyz
  'x, y, z'

loop_
  _atom_site_label
  _atom_site_occupancy
  _atom_site_fract_x
  _atom_site_fract_y
  _atom_site_fract_z
  _atom_site_thermal_displace_type
  _atom_site_B_iso_or_equiv
  _atom_site_type_symbol
  Gd1      1.0000 0.66706  0.62803  0.15990  Biso   1.000  Gd
  Gd2      1.0000 0.33294  0.37197  0.84010  Biso   1.000  Gd
  C1       1.0000 0.01340  0.58730  0.95170  Biso   1.000  C
  C2       1.0000 0.57330  0.02310  0.01460  Biso   1.000  C
  C3       1.0000 0.44770  0.58680  0.48310  Biso   1.000  C
  C4       1.0000 0.44210  0.46230  0.07500  Biso   1.000  C
  C5       1.0000 0.98660  0.41270  0.04830  Biso   1.000  C
  C6       1.0000 0.42670  0.97690  0.98540  Biso   1.000  C
  C7       1.0000 0.55230  0.41320  0.51690  Biso   1.000  C
  C8       1.0000 0.55790  0.53770  0.92500  Biso   1.000  C
  O1       1.0000 0.91890  0.69580  0.98440  Biso   1.000  O
  O2       1.0000 0.68270  0.90800  0.07820  Biso   1.000  O
  O3       1.0000 0.47230  0.69340  0.35020  Biso   1.000  O
  O4       1.0000 0.46260  0.48010  0.18500  Biso   1.000  O
  O5       1.0000 0.56720  0.17100  0.96810  Biso   1.000  O
  O6       1.0000 0.13310  0.60790  0.84730  Biso   1.000  O
  O7       1.0000 0.34090  0.39100  0.07350  Biso   1.000  O
  O8       1.0000 0.34820  0.60380  0.58880  Biso   1.000  O
  O9       1.0000 0.86570  0.62100  0.30370  Biso   1.000  O
  O10      1.0000 0.08110  0.30420  0.01560  Biso   1.000  O
  O11      1.0000 0.31730  0.09200  0.92180  Biso   1.000  O
  O12      1.0000 0.52770  0.30660  0.64980  Biso   1.000  O
  O13      1.0000 0.53740  0.51990  0.81500  Biso   1.000  O
  O14      1.0000 0.43280  0.82900  0.03190  Biso   1.000  O
  O15      1.0000 0.86690  0.39210  0.15270  Biso   1.000  O
  O16      1.0000 0.65910  0.60900  0.92650  Biso   1.000  O
  O17      1.0000 0.65180  0.39620  0.41120  Biso   1.000  O
  O18      1.0000 0.13430  0.37900  0.69630  Biso   1.000  O
