data_image0
_cell_length_a       8.507
_cell_length_b       9.762
_cell_length_c       10.249
_cell_angle_alpha    62.378
_cell_angle_beta     76.681
_cell_angle_gamma    73.858

_symmetry_space_group_name_H-M    P 1
_symmetry_int_tables_number       1

loop_
  _symmetry_equiv_pos_as_xyz
  'x, y, z'

loop_
  _atom_site_label
  _atom_site_occupancy
  _atom_site_fract_x
  _atom_site_fract_y
  _atom_site_fract_z
  _atom_site_thermal_displace_type
  _atom_site_B_iso_or_equiv
  _atom_site_type_symbol
  Nd1      1.0000 0.66614  0.63076  0.16070  Biso   1.000  Nd
  Nd2      1.0000 0.33386  0.36924  0.83930  Biso   1.000  Nd
  C1       1.0000 0.01580  0.58460  0.95280  Biso   1.000  C
  C2       1.0000 0.57450  0.02160  0.01090  Biso   1.000  C
  C3       1.0000 0.44690  0.58290  0.48420  Biso   1.000  C
  C4       1.0000 0.44290  0.46250  0.07340  Biso   1.000  C
  C5       1.0000 0.98420  0.41540  0.04720  Biso   1.000  C
  C6       1.0000 0.42550  0.97840  0.98910  Biso   1.000  C
  C7       1.0000 0.55310  0.41710  0.51580  Biso   1.000  C
  C8       1.0000 0.55710  0.53750  0.92660  Biso   1.000  C
  O1       1.0000 0.92430  0.68950  0.98890  Biso   1.000  O
  O2       1.0000 0.68580  0.90910  0.07540  Biso   1.000  O
  O3       1.0000 0.46870  0.68890  0.35530  Biso   1.000  O
  O4       1.0000 0.45830  0.48450  0.18000  Biso   1.000  O
  O5       1.0000 0.57350  0.16560  0.96260  Biso   1.000  O
  O6       1.0000 0.13020  0.60370  0.84810  Biso   1.000  O
  O7       1.0000 0.34660  0.38940  0.07190  Biso   1.000  O
  O8       1.0000 0.34750  0.59850  0.58920  Biso   1.000  O
  O9       1.0000 0.86780  0.62830  0.30700  Biso   1.000  O
  O10      1.0000 0.07570  0.31050  0.01110  Biso   1.000  O
  O11      1.0000 0.31420  0.09090  0.92460  Biso   1.000  O
  O12      1.0000 0.53130  0.31110  0.64470  Biso   1.000  O
  O13      1.0000 0.54170  0.51550  0.82000  Biso   1.000  O
  O14      1.0000 0.42650  0.83440  0.03740  Biso   1.000  O
  O15      1.0000 0.86980  0.39630  0.15190  Biso   1.000  O
  O16      1.0000 0.65340  0.61060  0.92810  Biso   1.000  O
  O17      1.0000 0.65250  0.40150  0.41080  Biso   1.000  O
  O18      1.0000 0.13220  0.37170  0.69300  Biso   1.000  O
