data_image0
_cell_length_a       11.479
_cell_length_b       24.451
_cell_length_c       16.299
_cell_angle_alpha    90
_cell_angle_beta     90
_cell_angle_gamma    90

_symmetry_space_group_name_H-M    P 1
_symmetry_int_tables_number       1

loop_
  _symmetry_equiv_pos_as_xyz
  'x, y, z'

loop_
  _atom_site_label
  _atom_site_occupancy
  _atom_site_fract_x
  _atom_site_fract_y
  _atom_site_fract_z
  _atom_site_thermal_displace_type
  _atom_site_B_iso_or_equiv
  _atom_site_type_symbol
  Fe1      1.0000 0.64456  0.45428  0.34645  Biso   1.000  Fe
  Fe2      1.0000 0.64456  0.54572  0.15355  Biso   1.000  Fe
  Fe3      1.0000 0.64456  0.95428  0.65355  Biso   1.000  Fe
  Fe4      1.0000 0.64456  0.04572  0.84645  Biso   1.000  Fe
  H1       1.0000 0.43730  0.51360  0.43080  Biso   1.000  H
  H2       1.0000 0.23500  0.51410  0.43170  Biso   1.000  H
  H3       1.0000 0.23370  0.39940  0.25480  Biso   1.000  H
  H4       1.0000 0.43490  0.39920  0.25390  Biso   1.000  H
  H5       1.0000 0.05720  0.52390  0.41110  Biso   1.000  H
  H6       1.0000 0.85580  0.52410  0.40960  Biso   1.000  H
  H7       1.0000 0.85540  0.38610  0.27610  Biso   1.000  H
  H8       1.0000 0.05720  0.38500  0.27910  Biso   1.000  H
  H9       1.0000 0.64740  0.61380  0.50540  Biso   1.000  H
  H10      1.0000 0.63890  0.65510  0.26860  Biso   1.000  H
  H11      1.0000 0.64420  0.74700  0.30160  Biso   1.000  H
  H12      1.0000 0.65550  0.68460  0.60910  Biso   1.000  H
  H13      1.0000 0.65800  0.77590  0.64460  Biso   1.000  H
  H14      1.0000 0.65270  0.81770  0.40690  Biso   1.000  H
  H15      1.0000 0.43730  0.48640  0.06920  Biso   1.000  H
  H16      1.0000 0.23500  0.48590  0.06830  Biso   1.000  H
  H17      1.0000 0.23370  0.60060  0.24520  Biso   1.000  H
  H18      1.0000 0.43490  0.60080  0.24610  Biso   1.000  H
  H19      1.0000 0.05720  0.47610  0.08890  Biso   1.000  H
  H20      1.0000 0.85580  0.47590  0.09040  Biso   1.000  H
  H21      1.0000 0.85540  0.61390  0.22390  Biso   1.000  H
  H22      1.0000 0.05720  0.61500  0.22090  Biso   1.000  H
  H23      1.0000 0.64740  0.38620  0.99460  Biso   1.000  H
  H24      1.0000 0.63890  0.34490  0.23140  Biso   1.000  H
  H25      1.0000 0.64420  0.25300  0.19840  Biso   1.000  H
  H26      1.0000 0.65550  0.31540  0.89090  Biso   1.000  H
  H27      1.0000 0.65800  0.22410  0.85540  Biso   1.000  H
  H28      1.0000 0.65270  0.18230  0.09310  Biso   1.000  H
  H29      1.0000 0.43730  0.01360  0.56920  Biso   1.000  H
  H30      1.0000 0.23500  0.01410  0.56830  Biso   1.000  H
  H31      1.0000 0.23370  0.89940  0.74520  Biso   1.000  H
  H32      1.0000 0.43490  0.89920  0.74610  Biso   1.000  H
  H33      1.0000 0.05720  0.02390  0.58890  Biso   1.000  H
  H34      1.0000 0.85580  0.02410  0.59040  Biso   1.000  H
  H35      1.0000 0.85540  0.88610  0.72390  Biso   1.000  H
  H36      1.0000 0.05720  0.88500  0.72090  Biso   1.000  H
  H37      1.0000 0.64740  0.11380  0.49460  Biso   1.000  H
  H38      1.0000 0.63890  0.15510  0.73140  Biso   1.000  H
  H39      1.0000 0.64420  0.24700  0.69840  Biso   1.000  H
  H40      1.0000 0.65550  0.18460  0.39090  Biso   1.000  H
  H41      1.0000 0.65800  0.27590  0.35540  Biso   1.000  H
  H42      1.0000 0.65270  0.31770  0.59310  Biso   1.000  H
  H43      1.0000 0.43730  0.98640  0.93080  Biso   1.000  H
  H44      1.0000 0.23500  0.98590  0.93170  Biso   1.000  H
  H45      1.0000 0.23370  0.10060  0.75480  Biso   1.000  H
  H46      1.0000 0.43490  0.10080  0.75390  Biso   1.000  H
  H47      1.0000 0.05720  0.97610  0.91110  Biso   1.000  H
  H48      1.0000 0.85580  0.97590  0.90960  Biso   1.000  H
  H49      1.0000 0.85540  0.11390  0.77610  Biso   1.000  H
  H50      1.0000 0.05720  0.11500  0.77910  Biso   1.000  H
  H51      1.0000 0.64740  0.88620  0.00540  Biso   1.000  H
  H52      1.0000 0.63890  0.84490  0.76860  Biso   1.000  H
  H53      1.0000 0.64420  0.75300  0.80160  Biso   1.000  H
  H54      1.0000 0.65550  0.81540  0.10910  Biso   1.000  H
  H55      1.0000 0.65800  0.72410  0.14460  Biso   1.000  H
  H56      1.0000 0.65270  0.68230  0.90690  Biso   1.000  H
  C1       1.0000 0.39620  0.49080  0.39540  Biso   1.000  C
  C2       1.0000 0.27490  0.49120  0.39590  Biso   1.000  C
  C3       1.0000 0.21350  0.45710  0.34280  Biso   1.000  C
  C4       1.0000 0.27440  0.42240  0.28990  Biso   1.000  C
  C5       1.0000 0.39490  0.42220  0.28940  Biso   1.000  C
  C6       1.0000 0.07820  0.45440  0.34460  Biso   1.000  C
  C7       1.0000 0.01700  0.49620  0.38420  Biso   1.000  C
  C8       1.0000 0.89630  0.49620  0.38340  Biso   1.000  C
  C9       1.0000 0.89580  0.41350  0.30380  Biso   1.000  C
  C10      1.0000 0.01690  0.41310  0.30500  Biso   1.000  C
  C11      1.0000 0.64380  0.56820  0.35250  Biso   1.000  C
  C12      1.0000 0.64690  0.64050  0.46480  Biso   1.000  C
  C13      1.0000 0.64290  0.62560  0.38280  Biso   1.000  C
  C14      1.0000 0.64180  0.66550  0.32340  Biso   1.000  C
  C15      1.0000 0.64500  0.72060  0.34260  Biso   1.000  C
  C16      1.0000 0.64930  0.73520  0.42450  Biso   1.000  C
  C17      1.0000 0.65020  0.69540  0.48620  Biso   1.000  C
  C18      1.0000 0.65420  0.71120  0.56830  Biso   1.000  C
  C19      1.0000 0.65630  0.76580  0.58950  Biso   1.000  C
  C20      1.0000 0.65590  0.80600  0.52890  Biso   1.000  C
  C21      1.0000 0.65270  0.79090  0.44730  Biso   1.000  C
  C22      1.0000 0.65290  0.86800  0.55220  Biso   1.000  C
  C23      1.0000 0.39620  0.50920  0.10460  Biso   1.000  C
  C24      1.0000 0.27490  0.50880  0.10410  Biso   1.000  C
  C25      1.0000 0.21350  0.54290  0.15720  Biso   1.000  C
  C26      1.0000 0.27440  0.57760  0.21010  Biso   1.000  C
  C27      1.0000 0.39490  0.57780  0.21060  Biso   1.000  C
  C28      1.0000 0.07820  0.54560  0.15540  Biso   1.000  C
  C29      1.0000 0.01700  0.50380  0.11580  Biso   1.000  C
  C30      1.0000 0.89630  0.50380  0.11660  Biso   1.000  C
  C31      1.0000 0.89580  0.58650  0.19620  Biso   1.000  C
  C32      1.0000 0.01690  0.58690  0.19500  Biso   1.000  C
  C33      1.0000 0.64380  0.43180  0.14750  Biso   1.000  C
  C34      1.0000 0.64690  0.35950  0.03520  Biso   1.000  C
  C35      1.0000 0.64290  0.37440  0.11720  Biso   1.000  C
  C36      1.0000 0.64180  0.33450  0.17660  Biso   1.000  C
  C37      1.0000 0.64500  0.27940  0.15740  Biso   1.000  C
  C38      1.0000 0.64930  0.26480  0.07550  Biso   1.000  C
  C39      1.0000 0.65020  0.30460  0.01380  Biso   1.000  C
  C40      1.0000 0.65420  0.28880  0.93170  Biso   1.000  C
  C41      1.0000 0.65630  0.23420  0.91050  Biso   1.000  C
  C42      1.0000 0.65590  0.19400  0.97110  Biso   1.000  C
  C43      1.0000 0.65270  0.20910  0.05270  Biso   1.000  C
  C44      1.0000 0.65290  0.13200  0.94780  Biso   1.000  C
  C45      1.0000 0.39620  0.99080  0.60460  Biso   1.000  C
  C46      1.0000 0.27490  0.99120  0.60410  Biso   1.000  C
  C47      1.0000 0.21350  0.95710  0.65720  Biso   1.000  C
  C48      1.0000 0.27440  0.92240  0.71010  Biso   1.000  C
  C49      1.0000 0.39490  0.92220  0.71060  Biso   1.000  C
  C50      1.0000 0.07820  0.95440  0.65540  Biso   1.000  C
  C51      1.0000 0.01700  0.99620  0.61580  Biso   1.000  C
  C52      1.0000 0.89630  0.99620  0.61660  Biso   1.000  C
  C53      1.0000 0.89580  0.91350  0.69620  Biso   1.000  C
  C54      1.0000 0.01690  0.91310  0.69500  Biso   1.000  C
  C55      1.0000 0.64380  0.06820  0.64750  Biso   1.000  C
  C56      1.0000 0.64690  0.14050  0.53520  Biso   1.000  C
  C57      1.0000 0.64290  0.12560  0.61720  Biso   1.000  C
  C58      1.0000 0.64180  0.16550  0.67660  Biso   1.000  C
  C59      1.0000 0.64500  0.22060  0.65740  Biso   1.000  C
  C60      1.0000 0.64930  0.23520  0.57550  Biso   1.000  C
  C61      1.0000 0.65020  0.19540  0.51380  Biso   1.000  C
  C62      1.0000 0.65420  0.21120  0.43170  Biso   1.000  C
  C63      1.0000 0.65630  0.26580  0.41050  Biso   1.000  C
  C64      1.0000 0.65590  0.30600  0.47110  Biso   1.000  C
  C65      1.0000 0.65270  0.29090  0.55270  Biso   1.000  C
  C66      1.0000 0.65290  0.36800  0.44780  Biso   1.000  C
  C67      1.0000 0.39620  0.00920  0.89540  Biso   1.000  C
  C68      1.0000 0.27490  0.00880  0.89590  Biso   1.000  C
  C69      1.0000 0.21350  0.04290  0.84280  Biso   1.000  C
  C70      1.0000 0.27440  0.07760  0.78990  Biso   1.000  C
  C71      1.0000 0.39490  0.07780  0.78940  Biso   1.000  C
  C72      1.0000 0.07820  0.04560  0.84460  Biso   1.000  C
  C73      1.0000 0.01700  0.00380  0.88420  Biso   1.000  C
  C74      1.0000 0.89630  0.00380  0.88340  Biso   1.000  C
  C75      1.0000 0.89580  0.08650  0.80380  Biso   1.000  C
  C76      1.0000 0.01690  0.08690  0.80500  Biso   1.000  C
  C77      1.0000 0.64380  0.93180  0.85250  Biso   1.000  C
  C78      1.0000 0.64690  0.85950  0.96480  Biso   1.000  C
  C79      1.0000 0.64290  0.87440  0.88280  Biso   1.000  C
  C80      1.0000 0.64180  0.83450  0.82340  Biso   1.000  C
  C81      1.0000 0.64500  0.77940  0.84260  Biso   1.000  C
  C82      1.0000 0.64930  0.76480  0.92450  Biso   1.000  C
  C83      1.0000 0.65020  0.80460  0.98620  Biso   1.000  C
  C84      1.0000 0.65420  0.78880  0.06830  Biso   1.000  C
  C85      1.0000 0.65630  0.73420  0.08950  Biso   1.000  C
  C86      1.0000 0.65590  0.69400  0.02890  Biso   1.000  C
  C87      1.0000 0.65270  0.70910  0.94730  Biso   1.000  C
  C88      1.0000 0.65290  0.63200  0.05220  Biso   1.000  C
  N1       1.0000 0.45610  0.45656  0.34210  Biso   1.000  N
  N2       1.0000 0.83520  0.45485  0.34390  Biso   1.000  N
  N3       1.0000 0.45610  0.54344  0.15790  Biso   1.000  N
  N4       1.0000 0.83520  0.54515  0.15610  Biso   1.000  N
  N5       1.0000 0.45610  0.95656  0.65790  Biso   1.000  N
  N6       1.0000 0.83520  0.95485  0.65610  Biso   1.000  N
  N7       1.0000 0.45610  0.04344  0.84210  Biso   1.000  N
  N8       1.0000 0.83520  0.04515  0.84390  Biso   1.000  N
  O1       1.0000 0.64410  0.52950  0.40170  Biso   1.000  O
  O2       1.0000 0.64420  0.55998  0.27599  Biso   1.000  O
  O3       1.0000 0.67090  0.90476  0.50790  Biso   1.000  O
  O4       1.0000 0.64200  0.87120  0.63000  Biso   1.000  O
  O5       1.0000 0.64410  0.47050  0.09830  Biso   1.000  O
  O6       1.0000 0.64420  0.44002  0.22401  Biso   1.000  O
  O7       1.0000 0.67090  0.09524  0.99210  Biso   1.000  O
  O8       1.0000 0.64200  0.12880  0.87000  Biso   1.000  O
  O9       1.0000 0.64410  0.02950  0.59830  Biso   1.000  O
  O10      1.0000 0.64420  0.05998  0.72401  Biso   1.000  O
  O11      1.0000 0.67090  0.40476  0.49210  Biso   1.000  O
  O12      1.0000 0.64200  0.37120  0.37000  Biso   1.000  O
  O13      1.0000 0.64410  0.97050  0.90170  Biso   1.000  O
  O14      1.0000 0.64420  0.94002  0.77599  Biso   1.000  O
  O15      1.0000 0.67090  0.59524  0.00790  Biso   1.000  O
  O16      1.0000 0.64200  0.62880  0.13000  Biso   1.000  O
  Fe5      1.0000 0.35544  0.04572  0.34645  Biso   1.000  Fe
  Fe6      1.0000 0.35544  0.95428  0.15355  Biso   1.000  Fe
  Fe7      1.0000 0.35544  0.54572  0.65355  Biso   1.000  Fe
  Fe8      1.0000 0.35544  0.45428  0.84645  Biso   1.000  Fe
  H57      1.0000 0.56270  0.98640  0.43080  Biso   1.000  H
  H58      1.0000 0.76500  0.98590  0.43170  Biso   1.000  H
  H59      1.0000 0.76630  0.10060  0.25480  Biso   1.000  H
  H60      1.0000 0.56510  0.10080  0.25390  Biso   1.000  H
  H61      1.0000 0.94280  0.97610  0.41110  Biso   1.000  H
  H62      1.0000 0.14420  0.97590  0.40960  Biso   1.000  H
  H63      1.0000 0.14460  0.11390  0.27610  Biso   1.000  H
  H64      1.0000 0.94280  0.11500  0.27910  Biso   1.000  H
  H65      1.0000 0.35260  0.88620  0.50540  Biso   1.000  H
  H66      1.0000 0.36110  0.84490  0.26860  Biso   1.000  H
  H67      1.0000 0.35580  0.75300  0.30160  Biso   1.000  H
  H68      1.0000 0.34450  0.81540  0.60910  Biso   1.000  H
  H69      1.0000 0.34200  0.72410  0.64460  Biso   1.000  H
  H70      1.0000 0.34730  0.68230  0.40690  Biso   1.000  H
  H71      1.0000 0.56270  0.01360  0.06920  Biso   1.000  H
  H72      1.0000 0.76500  0.01410  0.06830  Biso   1.000  H
  H73      1.0000 0.76630  0.89940  0.24520  Biso   1.000  H
  H74      1.0000 0.56510  0.89920  0.24610  Biso   1.000  H
  H75      1.0000 0.94280  0.02390  0.08890  Biso   1.000  H
  H76      1.0000 0.14420  0.02410  0.09040  Biso   1.000  H
  H77      1.0000 0.14460  0.88610  0.22390  Biso   1.000  H
  H78      1.0000 0.94280  0.88500  0.22090  Biso   1.000  H
  H79      1.0000 0.35260  0.11380  0.99460  Biso   1.000  H
  H80      1.0000 0.36110  0.15510  0.23140  Biso   1.000  H
  H81      1.0000 0.35580  0.24700  0.19840  Biso   1.000  H
  H82      1.0000 0.34450  0.18460  0.89090  Biso   1.000  H
  H83      1.0000 0.34200  0.27590  0.85540  Biso   1.000  H
  H84      1.0000 0.34730  0.31770  0.09310  Biso   1.000  H
  H85      1.0000 0.56270  0.48640  0.56920  Biso   1.000  H
  H86      1.0000 0.76500  0.48590  0.56830  Biso   1.000  H
  H87      1.0000 0.76630  0.60060  0.74520  Biso   1.000  H
  H88      1.0000 0.56510  0.60080  0.74610  Biso   1.000  H
  H89      1.0000 0.94280  0.47610  0.58890  Biso   1.000  H
  H90      1.0000 0.14420  0.47590  0.59040  Biso   1.000  H
  H91      1.0000 0.14460  0.61390  0.72390  Biso   1.000  H
  H92      1.0000 0.94280  0.61500  0.72090  Biso   1.000  H
  H93      1.0000 0.35260  0.38620  0.49460  Biso   1.000  H
  H94      1.0000 0.36110  0.34490  0.73140  Biso   1.000  H
  H95      1.0000 0.35580  0.25300  0.69840  Biso   1.000  H
  H96      1.0000 0.34450  0.31540  0.39090  Biso   1.000  H
  H97      1.0000 0.34200  0.22410  0.35540  Biso   1.000  H
  H98      1.0000 0.34730  0.18230  0.59310  Biso   1.000  H
  H99      1.0000 0.56270  0.51360  0.93080  Biso   1.000  H
  H100     1.0000 0.76500  0.51410  0.93170  Biso   1.000  H
  H101     1.0000 0.76630  0.39940  0.75480  Biso   1.000  H
  H102     1.0000 0.56510  0.39920  0.75390  Biso   1.000  H
  H103     1.0000 0.94280  0.52390  0.91110  Biso   1.000  H
  H104     1.0000 0.14420  0.52410  0.90960  Biso   1.000  H
  H105     1.0000 0.14460  0.38610  0.77610  Biso   1.000  H
  H106     1.0000 0.94280  0.38500  0.77910  Biso   1.000  H
  H107     1.0000 0.35260  0.61380  0.00540  Biso   1.000  H
  H108     1.0000 0.36110  0.65510  0.76860  Biso   1.000  H
  H109     1.0000 0.35580  0.74700  0.80160  Biso   1.000  H
  H110     1.0000 0.34450  0.68460  0.10910  Biso   1.000  H
  H111     1.0000 0.34200  0.77590  0.14460  Biso   1.000  H
  H112     1.0000 0.34730  0.81770  0.90690  Biso   1.000  H
  C89      1.0000 0.60380  0.00920  0.39540  Biso   1.000  C
  C90      1.0000 0.72510  0.00880  0.39590  Biso   1.000  C
  C91      1.0000 0.78650  0.04290  0.34280  Biso   1.000  C
  C92      1.0000 0.72560  0.07760  0.28990  Biso   1.000  C
  C93      1.0000 0.60510  0.07780  0.28940  Biso   1.000  C
  C94      1.0000 0.92180  0.04560  0.34460  Biso   1.000  C
  C95      1.0000 0.98300  0.00380  0.38420  Biso   1.000  C
  C96      1.0000 0.10370  0.00380  0.38340  Biso   1.000  C
  C97      1.0000 0.10420  0.08650  0.30380  Biso   1.000  C
  C98      1.0000 0.98310  0.08690  0.30500  Biso   1.000  C
  C99      1.0000 0.35620  0.93180  0.35250  Biso   1.000  C
  C100     1.0000 0.35310  0.85950  0.46480  Biso   1.000  C
  C101     1.0000 0.35710  0.87440  0.38280  Biso   1.000  C
  C102     1.0000 0.35820  0.83450  0.32340  Biso   1.000  C
  C103     1.0000 0.35500  0.77940  0.34260  Biso   1.000  C
  C104     1.0000 0.35070  0.76480  0.42450  Biso   1.000  C
  C105     1.0000 0.34980  0.80460  0.48620  Biso   1.000  C
  C106     1.0000 0.34580  0.78880  0.56830  Biso   1.000  C
  C107     1.0000 0.34370  0.73420  0.58950  Biso   1.000  C
  C108     1.0000 0.34410  0.69400  0.52890  Biso   1.000  C
  C109     1.0000 0.34730  0.70910  0.44730  Biso   1.000  C
  C110     1.0000 0.34710  0.63200  0.55220  Biso   1.000  C
  C111     1.0000 0.60380  0.99080  0.10460  Biso   1.000  C
  C112     1.0000 0.72510  0.99120  0.10410  Biso   1.000  C
  C113     1.0000 0.78650  0.95710  0.15720  Biso   1.000  C
  C114     1.0000 0.72560  0.92240  0.21010  Biso   1.000  C
  C115     1.0000 0.60510  0.92220  0.21060  Biso   1.000  C
  C116     1.0000 0.92180  0.95440  0.15540  Biso   1.000  C
  C117     1.0000 0.98300  0.99620  0.11580  Biso   1.000  C
  C118     1.0000 0.10370  0.99620  0.11660  Biso   1.000  C
  C119     1.0000 0.10420  0.91350  0.19620  Biso   1.000  C
  C120     1.0000 0.98310  0.91310  0.19500  Biso   1.000  C
  C121     1.0000 0.35620  0.06820  0.14750  Biso   1.000  C
  C122     1.0000 0.35310  0.14050  0.03520  Biso   1.000  C
  C123     1.0000 0.35710  0.12560  0.11720  Biso   1.000  C
  C124     1.0000 0.35820  0.16550  0.17660  Biso   1.000  C
  C125     1.0000 0.35500  0.22060  0.15740  Biso   1.000  C
  C126     1.0000 0.35070  0.23520  0.07550  Biso   1.000  C
  C127     1.0000 0.34980  0.19540  0.01380  Biso   1.000  C
  C128     1.0000 0.34580  0.21120  0.93170  Biso   1.000  C
  C129     1.0000 0.34370  0.26580  0.91050  Biso   1.000  C
  C130     1.0000 0.34410  0.30600  0.97110  Biso   1.000  C
  C131     1.0000 0.34730  0.29090  0.05270  Biso   1.000  C
  C132     1.0000 0.34710  0.36800  0.94780  Biso   1.000  C
  C133     1.0000 0.60380  0.50920  0.60460  Biso   1.000  C
  C134     1.0000 0.72510  0.50880  0.60410  Biso   1.000  C
  C135     1.0000 0.78650  0.54290  0.65720  Biso   1.000  C
  C136     1.0000 0.72560  0.57760  0.71010  Biso   1.000  C
  C137     1.0000 0.60510  0.57780  0.71060  Biso   1.000  C
  C138     1.0000 0.92180  0.54560  0.65540  Biso   1.000  C
  C139     1.0000 0.98300  0.50380  0.61580  Biso   1.000  C
  C140     1.0000 0.10370  0.50380  0.61660  Biso   1.000  C
  C141     1.0000 0.10420  0.58650  0.69620  Biso   1.000  C
  C142     1.0000 0.98310  0.58690  0.69500  Biso   1.000  C
  C143     1.0000 0.35620  0.43180  0.64750  Biso   1.000  C
  C144     1.0000 0.35310  0.35950  0.53520  Biso   1.000  C
  C145     1.0000 0.35710  0.37440  0.61720  Biso   1.000  C
  C146     1.0000 0.35820  0.33450  0.67660  Biso   1.000  C
  C147     1.0000 0.35500  0.27940  0.65740  Biso   1.000  C
  C148     1.0000 0.35070  0.26480  0.57550  Biso   1.000  C
  C149     1.0000 0.34980  0.30460  0.51380  Biso   1.000  C
  C150     1.0000 0.34580  0.28880  0.43170  Biso   1.000  C
  C151     1.0000 0.34370  0.23420  0.41050  Biso   1.000  C
  C152     1.0000 0.34410  0.19400  0.47110  Biso   1.000  C
  C153     1.0000 0.34730  0.20910  0.55270  Biso   1.000  C
  C154     1.0000 0.34710  0.13200  0.44780  Biso   1.000  C
  C155     1.0000 0.60380  0.49080  0.89540  Biso   1.000  C
  C156     1.0000 0.72510  0.49120  0.89590  Biso   1.000  C
  C157     1.0000 0.78650  0.45710  0.84280  Biso   1.000  C
  C158     1.0000 0.72560  0.42240  0.78990  Biso   1.000  C
  C159     1.0000 0.60510  0.42220  0.78940  Biso   1.000  C
  C160     1.0000 0.92180  0.45440  0.84460  Biso   1.000  C
  C161     1.0000 0.98300  0.49620  0.88420  Biso   1.000  C
  C162     1.0000 0.10370  0.49620  0.88340  Biso   1.000  C
  C163     1.0000 0.10420  0.41350  0.80380  Biso   1.000  C
  C164     1.0000 0.98310  0.41310  0.80500  Biso   1.000  C
  C165     1.0000 0.35620  0.56820  0.85250  Biso   1.000  C
  C166     1.0000 0.35310  0.64050  0.96480  Biso   1.000  C
  C167     1.0000 0.35710  0.62560  0.88280  Biso   1.000  C
  C168     1.0000 0.35820  0.66550  0.82340  Biso   1.000  C
  C169     1.0000 0.35500  0.72060  0.84260  Biso   1.000  C
  C170     1.0000 0.35070  0.73520  0.92450  Biso   1.000  C
  C171     1.0000 0.34980  0.69540  0.98620  Biso   1.000  C
  C172     1.0000 0.34580  0.71120  0.06830  Biso   1.000  C
  C173     1.0000 0.34370  0.76580  0.08950  Biso   1.000  C
  C174     1.0000 0.34410  0.80600  0.02890  Biso   1.000  C
  C175     1.0000 0.34730  0.79090  0.94730  Biso   1.000  C
  C176     1.0000 0.34710  0.86800  0.05220  Biso   1.000  C
  N9       1.0000 0.54390  0.04344  0.34210  Biso   1.000  N
  N10      1.0000 0.16480  0.04515  0.34390  Biso   1.000  N
  N11      1.0000 0.54390  0.95656  0.15790  Biso   1.000  N
  N12      1.0000 0.16480  0.95485  0.15610  Biso   1.000  N
  N13      1.0000 0.54390  0.54344  0.65790  Biso   1.000  N
  N14      1.0000 0.16480  0.54515  0.65610  Biso   1.000  N
  N15      1.0000 0.54390  0.45656  0.84210  Biso   1.000  N
  N16      1.0000 0.16480  0.45485  0.84390  Biso   1.000  N
  O17      1.0000 0.35590  0.97050  0.40170  Biso   1.000  O
  O18      1.0000 0.35580  0.94002  0.27599  Biso   1.000  O
  O19      1.0000 0.32910  0.59524  0.50790  Biso   1.000  O
  O20      1.0000 0.35800  0.62880  0.63000  Biso   1.000  O
  O21      1.0000 0.35590  0.02950  0.09830  Biso   1.000  O
  O22      1.0000 0.35580  0.05998  0.22401  Biso   1.000  O
  O23      1.0000 0.32910  0.40476  0.99210  Biso   1.000  O
  O24      1.0000 0.35800  0.37120  0.87000  Biso   1.000  O
  O25      1.0000 0.35590  0.47050  0.59830  Biso   1.000  O
  O26      1.0000 0.35580  0.44002  0.72401  Biso   1.000  O
  O27      1.0000 0.32910  0.09524  0.49210  Biso   1.000  O
  O28      1.0000 0.35800  0.12880  0.37000  Biso   1.000  O
  O29      1.0000 0.35590  0.52950  0.90170  Biso   1.000  O
  O30      1.0000 0.35580  0.55998  0.77599  Biso   1.000  O
  O31      1.0000 0.32910  0.90476  0.00790  Biso   1.000  O
  O32      1.0000 0.35800  0.87120  0.13000  Biso   1.000  O
