data_image0
_cell_length_a       11.4398
_cell_length_b       13.2955
_cell_length_c       26.2483
_cell_angle_alpha    90
_cell_angle_beta     90
_cell_angle_gamma    90

_symmetry_space_group_name_H-M    P 1
_symmetry_int_tables_number       1

loop_
  _symmetry_equiv_pos_as_xyz
  'x, y, z'

loop_
  _atom_site_label
  _atom_site_occupancy
  _atom_site_fract_x
  _atom_site_fract_y
  _atom_site_fract_z
  _atom_site_thermal_displace_type
  _atom_site_B_iso_or_equiv
  _atom_site_type_symbol
  Co1      1.0000 0.57416  0.44224  0.13705  Biso   1.000  Co
  Co2      1.0000 0.31797  0.56246  0.08000  Biso   1.000  Co
  Co3      1.0000 0.92584  0.55776  0.63705  Biso   1.000  Co
  Co4      1.0000 0.18203  0.43754  0.58000  Biso   1.000  Co
  Co5      1.0000 0.42584  0.94224  0.36295  Biso   1.000  Co
  Co6      1.0000 0.68203  0.06246  0.42000  Biso   1.000  Co
  Co7      1.0000 0.07416  0.05776  0.86295  Biso   1.000  Co
  Co8      1.0000 0.81797  0.93754  0.92000  Biso   1.000  Co
  H1       1.0000 0.34420  0.40890  0.14410  Biso   1.000  H
  H2       1.0000 0.38370  0.37150  0.09010  Biso   1.000  H
  H3       1.0000 0.76520  0.60500  0.14980  Biso   1.000  H
  H4       1.0000 0.96550  0.62090  0.14630  Biso   1.000  H
  H5       1.0000 0.99010  0.32470  0.16850  Biso   1.000  H
  H6       1.0000 0.78860  0.31590  0.16600  Biso   1.000  H
  H7       1.0000 0.86820  0.08360  0.01040  Biso   1.000  H
  H8       1.0000 0.78250  0.20610  0.05930  Biso   1.000  H
  H9       1.0000 0.47500  0.13140  0.99860  Biso   1.000  H
  H10      1.0000 0.56750  0.00680  0.95380  Biso   1.000  H
  H11      1.0000 0.36520  0.81800  0.18270  Biso   1.000  H
  H12      1.0000 0.36680  0.92750  0.24980  Biso   1.000  H
  H13      1.0000 0.53100  0.73490  0.33460  Biso   1.000  H
  H14      1.0000 0.54230  0.62180  0.26950  Biso   1.000  H
  H15      1.0000 0.75660  0.68260  0.06030  Biso   1.000  H
  H16      1.0000 0.84140  0.81180  0.01650  Biso   1.000  H
  H17      1.0000 0.62610  0.77530  0.90370  Biso   1.000  H
  H18      1.0000 0.52620  0.65490  0.94740  Biso   1.000  H
  H19      1.0000 0.15580  0.59110  0.64410  Biso   1.000  H
  H20      1.0000 0.11630  0.62850  0.59010  Biso   1.000  H
  H21      1.0000 0.73480  0.39500  0.64980  Biso   1.000  H
  H22      1.0000 0.53450  0.37910  0.64630  Biso   1.000  H
  H23      1.0000 0.50990  0.67530  0.66850  Biso   1.000  H
  H24      1.0000 0.71140  0.68410  0.66600  Biso   1.000  H
  H25      1.0000 0.63180  0.91640  0.51040  Biso   1.000  H
  H26      1.0000 0.71750  0.79390  0.55930  Biso   1.000  H
  H27      1.0000 0.02500  0.86860  0.49860  Biso   1.000  H
  H28      1.0000 0.93250  0.99320  0.45380  Biso   1.000  H
  H29      1.0000 0.13480  0.18200  0.68270  Biso   1.000  H
  H30      1.0000 0.13320  0.07250  0.74980  Biso   1.000  H
  H31      1.0000 0.96900  0.26510  0.83460  Biso   1.000  H
  H32      1.0000 0.95770  0.37820  0.76950  Biso   1.000  H
  H33      1.0000 0.74340  0.31740  0.56030  Biso   1.000  H
  H34      1.0000 0.65860  0.18820  0.51650  Biso   1.000  H
  H35      1.0000 0.87390  0.22470  0.40370  Biso   1.000  H
  H36      1.0000 0.97380  0.34510  0.44740  Biso   1.000  H
  H37      1.0000 0.65580  0.90890  0.35590  Biso   1.000  H
  H38      1.0000 0.61630  0.87150  0.40990  Biso   1.000  H
  H39      1.0000 0.23480  0.10500  0.35020  Biso   1.000  H
  H40      1.0000 0.03450  0.12090  0.35370  Biso   1.000  H
  H41      1.0000 0.00990  0.82470  0.33150  Biso   1.000  H
  H42      1.0000 0.21140  0.81590  0.33400  Biso   1.000  H
  H43      1.0000 0.13180  0.58360  0.48960  Biso   1.000  H
  H44      1.0000 0.21750  0.70610  0.44070  Biso   1.000  H
  H45      1.0000 0.52500  0.63140  0.50140  Biso   1.000  H
  H46      1.0000 0.43250  0.50680  0.54620  Biso   1.000  H
  H47      1.0000 0.63480  0.31800  0.31730  Biso   1.000  H
  H48      1.0000 0.63320  0.42750  0.25020  Biso   1.000  H
  H49      1.0000 0.46900  0.23490  0.16540  Biso   1.000  H
  H50      1.0000 0.45770  0.12180  0.23050  Biso   1.000  H
  H51      1.0000 0.24340  0.18260  0.43970  Biso   1.000  H
  H52      1.0000 0.15860  0.31180  0.48350  Biso   1.000  H
  H53      1.0000 0.37390  0.27530  0.59630  Biso   1.000  H
  H54      1.0000 0.47380  0.15490  0.55260  Biso   1.000  H
  H55      1.0000 0.84420  0.09110  0.85590  Biso   1.000  H
  H56      1.0000 0.88370  0.12850  0.90990  Biso   1.000  H
  H57      1.0000 0.26520  0.89500  0.85020  Biso   1.000  H
  H58      1.0000 0.46550  0.87910  0.85370  Biso   1.000  H
  H59      1.0000 0.49010  0.17530  0.83150  Biso   1.000  H
  H60      1.0000 0.28860  0.18410  0.83400  Biso   1.000  H
  H61      1.0000 0.36820  0.41640  0.98960  Biso   1.000  H
  H62      1.0000 0.28250  0.29390  0.94070  Biso   1.000  H
  H63      1.0000 0.97500  0.36860  0.00140  Biso   1.000  H
  H64      1.0000 0.06750  0.49320  0.04620  Biso   1.000  H
  H65      1.0000 0.86520  0.68200  0.81730  Biso   1.000  H
  H66      1.0000 0.86680  0.57250  0.75020  Biso   1.000  H
  H67      1.0000 0.03100  0.76510  0.66540  Biso   1.000  H
  H68      1.0000 0.04230  0.87820  0.73050  Biso   1.000  H
  H69      1.0000 0.25660  0.81740  0.93970  Biso   1.000  H
  H70      1.0000 0.34140  0.68820  0.98350  Biso   1.000  H
  H71      1.0000 0.12610  0.72470  0.09630  Biso   1.000  H
  H72      1.0000 0.02620  0.84510  0.05260  Biso   1.000  H
  C1       1.0000 0.81110  0.54730  0.15184  Biso   1.000  C
  C2       1.0000 0.93160  0.55780  0.15035  Biso   1.000  C
  C3       1.0000 0.00020  0.47340  0.15491  Biso   1.000  C
  C4       1.0000 0.94620  0.38240  0.16281  Biso   1.000  C
  C5       1.0000 0.82460  0.37810  0.16209  Biso   1.000  C
  C6       1.0000 0.13340  0.47730  0.14878  Biso   1.000  C
  C7       1.0000 0.78790  0.09330  0.00786  Biso   1.000  C
  C8       1.0000 0.73680  0.16740  0.03747  Biso   1.000  C
  C9       1.0000 0.61800  0.18370  0.03443  Biso   1.000  C
  C10      1.0000 0.55530  0.12280  0.00195  Biso   1.000  C
  C11      1.0000 0.61190  0.04900  0.97443  Biso   1.000  C
  C12      1.0000 0.55720  0.26470  0.06474  Biso   1.000  C
  C13      1.0000 0.46070  0.63290  0.17420  Biso   1.000  C
  C14      1.0000 0.45440  0.70690  0.21780  Biso   1.000  C
  C15      1.0000 0.40090  0.79970  0.21312  Biso   1.000  C
  C16      1.0000 0.40110  0.86460  0.25392  Biso   1.000  C
  C17      1.0000 0.49820  0.75220  0.30339  Biso   1.000  C
  C18      1.0000 0.50480  0.68320  0.26462  Biso   1.000  C
  C19      1.0000 0.56200  0.58060  0.04197  Biso   1.000  C
  C20      1.0000 0.62770  0.65630  0.00987  Biso   1.000  C
  C21      1.0000 0.72580  0.70270  0.02910  Biso   1.000  C
  C22      1.0000 0.77790  0.77880  0.00198  Biso   1.000  C
  C23      1.0000 0.65080  0.75880  0.93640  Biso   1.000  C
  C24      1.0000 0.59120  0.68520  0.96216  Biso   1.000  C
  C25      1.0000 0.68890  0.45270  0.65184  Biso   1.000  C
  C26      1.0000 0.56840  0.44220  0.65035  Biso   1.000  C
  C27      1.0000 0.49980  0.52660  0.65491  Biso   1.000  C
  C28      1.0000 0.55380  0.61760  0.66281  Biso   1.000  C
  C29      1.0000 0.67540  0.62190  0.66209  Biso   1.000  C
  C30      1.0000 0.36660  0.52270  0.64878  Biso   1.000  C
  C31      1.0000 0.71210  0.90670  0.50786  Biso   1.000  C
  C32      1.0000 0.76320  0.83260  0.53747  Biso   1.000  C
  C33      1.0000 0.88200  0.81630  0.53443  Biso   1.000  C
  C34      1.0000 0.94470  0.87720  0.50195  Biso   1.000  C
  C35      1.0000 0.88810  0.95100  0.47443  Biso   1.000  C
  C36      1.0000 0.94280  0.73530  0.56474  Biso   1.000  C
  C37      1.0000 0.03930  0.36710  0.67420  Biso   1.000  C
  C38      1.0000 0.04560  0.29310  0.71780  Biso   1.000  C
  C39      1.0000 0.09910  0.20030  0.71312  Biso   1.000  C
  C40      1.0000 0.09890  0.13540  0.75392  Biso   1.000  C
  C41      1.0000 0.00180  0.24780  0.80339  Biso   1.000  C
  C42      1.0000 0.99520  0.31680  0.76462  Biso   1.000  C
  C43      1.0000 0.93800  0.41940  0.54197  Biso   1.000  C
  C44      1.0000 0.87230  0.34370  0.50987  Biso   1.000  C
  C45      1.0000 0.77420  0.29730  0.52910  Biso   1.000  C
  C46      1.0000 0.72210  0.22120  0.50198  Biso   1.000  C
  C47      1.0000 0.84920  0.24120  0.43640  Biso   1.000  C
  C48      1.0000 0.90880  0.31480  0.46216  Biso   1.000  C
  C49      1.0000 0.18890  0.04730  0.34816  Biso   1.000  C
  C50      1.0000 0.06840  0.05780  0.34965  Biso   1.000  C
  C51      1.0000 0.99980  0.97340  0.34509  Biso   1.000  C
  C52      1.0000 0.05380  0.88240  0.33719  Biso   1.000  C
  C53      1.0000 0.17540  0.87810  0.33791  Biso   1.000  C
  C54      1.0000 0.86660  0.97730  0.35122  Biso   1.000  C
  C55      1.0000 0.21210  0.59330  0.49214  Biso   1.000  C
  C56      1.0000 0.26320  0.66740  0.46253  Biso   1.000  C
  C57      1.0000 0.38200  0.68370  0.46557  Biso   1.000  C
  C58      1.0000 0.44470  0.62280  0.49805  Biso   1.000  C
  C59      1.0000 0.38810  0.54900  0.52557  Biso   1.000  C
  C60      1.0000 0.44280  0.76470  0.43526  Biso   1.000  C
  C61      1.0000 0.53930  0.13290  0.32580  Biso   1.000  C
  C62      1.0000 0.54560  0.20690  0.28220  Biso   1.000  C
  C63      1.0000 0.59910  0.29970  0.28688  Biso   1.000  C
  C64      1.0000 0.59890  0.36460  0.24608  Biso   1.000  C
  C65      1.0000 0.50180  0.25220  0.19661  Biso   1.000  C
  C66      1.0000 0.49520  0.18320  0.23538  Biso   1.000  C
  C67      1.0000 0.43800  0.08060  0.45803  Biso   1.000  C
  C68      1.0000 0.37230  0.15630  0.49013  Biso   1.000  C
  C69      1.0000 0.27420  0.20270  0.47090  Biso   1.000  C
  C70      1.0000 0.22210  0.27880  0.49802  Biso   1.000  C
  C71      1.0000 0.34920  0.25880  0.56360  Biso   1.000  C
  C72      1.0000 0.40880  0.18520  0.53784  Biso   1.000  C
  C73      1.0000 0.31110  0.95270  0.84816  Biso   1.000  C
  C74      1.0000 0.43160  0.94220  0.84965  Biso   1.000  C
  C75      1.0000 0.50020  0.02660  0.84509  Biso   1.000  C
  C76      1.0000 0.44620  0.11760  0.83719  Biso   1.000  C
  C77      1.0000 0.32460  0.12190  0.83791  Biso   1.000  C
  C78      1.0000 0.63340  0.02270  0.85122  Biso   1.000  C
  C79      1.0000 0.28790  0.40670  0.99214  Biso   1.000  C
  C80      1.0000 0.23680  0.33260  0.96253  Biso   1.000  C
  C81      1.0000 0.11800  0.31630  0.96557  Biso   1.000  C
  C82      1.0000 0.05530  0.37720  0.99805  Biso   1.000  C
  C83      1.0000 0.11190  0.45100  0.02557  Biso   1.000  C
  C84      1.0000 0.05720  0.23530  0.93526  Biso   1.000  C
  C85      1.0000 0.96070  0.86710  0.82580  Biso   1.000  C
  C86      1.0000 0.95440  0.79310  0.78220  Biso   1.000  C
  C87      1.0000 0.90090  0.70030  0.78688  Biso   1.000  C
  C88      1.0000 0.90110  0.63540  0.74608  Biso   1.000  C
  C89      1.0000 0.99820  0.74780  0.69661  Biso   1.000  C
  C90      1.0000 0.00480  0.81680  0.73538  Biso   1.000  C
  C91      1.0000 0.06200  0.91940  0.95803  Biso   1.000  C
  C92      1.0000 0.12770  0.84370  0.99013  Biso   1.000  C
  C93      1.0000 0.22580  0.79730  0.97090  Biso   1.000  C
  C94      1.0000 0.27790  0.72120  0.99802  Biso   1.000  C
  C95      1.0000 0.15080  0.74120  0.06360  Biso   1.000  C
  C96      1.0000 0.09120  0.81480  0.03784  Biso   1.000  C
  N1       1.0000 0.75790  0.45880  0.15609  Biso   1.000  N
  N2       1.0000 0.72760  0.03540  0.97599  Biso   1.000  N
  N3       1.0000 0.74190  0.80800  0.95557  Biso   1.000  N
  N4       1.0000 0.44800  0.84221  0.29945  Biso   1.000  N
  N5       1.0000 0.74210  0.54120  0.65609  Biso   1.000  N
  N6       1.0000 0.77240  0.96460  0.47599  Biso   1.000  N
  N7       1.0000 0.75810  0.19200  0.45557  Biso   1.000  N
  N8       1.0000 0.05200  0.15779  0.79945  Biso   1.000  N
  N9       1.0000 0.24210  0.95880  0.34391  Biso   1.000  N
  N10      1.0000 0.27240  0.53540  0.52401  Biso   1.000  N
  N11      1.0000 0.25810  0.30800  0.54443  Biso   1.000  N
  N12      1.0000 0.55200  0.34221  0.20055  Biso   1.000  N
  N13      1.0000 0.25790  0.04120  0.84391  Biso   1.000  N
  N14      1.0000 0.22760  0.46460  0.02401  Biso   1.000  N
  N15      1.0000 0.24190  0.69200  0.04443  Biso   1.000  N
  N16      1.0000 0.94800  0.65779  0.70055  Biso   1.000  N
  O1       1.0000 0.39027  0.42634  0.11431  Biso   1.000  O
  O2       1.0000 0.52783  0.56002  0.18141  Biso   1.000  O
  O3       1.0000 0.39872  0.65115  0.13597  Biso   1.000  O
  O4       1.0000 0.61573  0.53964  0.07700  Biso   1.000  O
  O5       1.0000 0.45588  0.56801  0.03007  Biso   1.000  O
  O6       1.0000 0.17176  0.55341  0.12642  Biso   1.000  O
  O7       1.0000 0.19090  0.40420  0.16372  Biso   1.000  O
  O8       1.0000 0.45000  0.27180  0.05967  Biso   1.000  O
  O9       1.0000 0.62060  0.31858  0.09261  Biso   1.000  O
  O10      1.0000 0.10973  0.57366  0.61431  Biso   1.000  O
  O11      1.0000 0.97217  0.43998  0.68141  Biso   1.000  O
  O12      1.0000 0.10128  0.34885  0.63597  Biso   1.000  O
  O13      1.0000 0.88427  0.46036  0.57700  Biso   1.000  O
  O14      1.0000 0.04412  0.43199  0.53007  Biso   1.000  O
  O15      1.0000 0.32824  0.44659  0.62642  Biso   1.000  O
  O16      1.0000 0.30910  0.59580  0.66372  Biso   1.000  O
  O17      1.0000 0.05000  0.72820  0.55967  Biso   1.000  O
  O18      1.0000 0.87940  0.68142  0.59261  Biso   1.000  O
  O19      1.0000 0.60973  0.92634  0.38569  Biso   1.000  O
  O20      1.0000 0.47217  0.06002  0.31859  Biso   1.000  O
  O21      1.0000 0.60128  0.15115  0.36403  Biso   1.000  O
  O22      1.0000 0.38427  0.03964  0.42300  Biso   1.000  O
  O23      1.0000 0.54412  0.06801  0.46993  Biso   1.000  O
  O24      1.0000 0.82824  0.05341  0.37358  Biso   1.000  O
  O25      1.0000 0.80910  0.90420  0.33628  Biso   1.000  O
  O26      1.0000 0.55000  0.77180  0.44033  Biso   1.000  O
  O27      1.0000 0.37940  0.81858  0.40739  Biso   1.000  O
  O28      1.0000 0.89027  0.07366  0.88569  Biso   1.000  O
  O29      1.0000 0.02783  0.93998  0.81859  Biso   1.000  O
  O30      1.0000 0.89872  0.84885  0.86403  Biso   1.000  O
  O31      1.0000 0.11573  0.96036  0.92300  Biso   1.000  O
  O32      1.0000 0.95588  0.93199  0.96993  Biso   1.000  O
  O33      1.0000 0.67176  0.94659  0.87358  Biso   1.000  O
  O34      1.0000 0.69090  0.09580  0.83628  Biso   1.000  O
  O35      1.0000 0.95000  0.22820  0.94033  Biso   1.000  O
  O36      1.0000 0.12060  0.18142  0.90739  Biso   1.000  O
