data_image0
_cell_length_a       7.085
_cell_length_b       16.404
_cell_length_c       31.766
_cell_angle_alpha    90
_cell_angle_beta     90
_cell_angle_gamma    99.78

_symmetry_space_group_name_H-M    P 1
_symmetry_int_tables_number       1

loop_
  _symmetry_equiv_pos_as_xyz
  'x, y, z'

loop_
  _atom_site_label
  _atom_site_occupancy
  _atom_site_fract_x
  _atom_site_fract_y
  _atom_site_fract_z
  _atom_site_thermal_displace_type
  _atom_site_B_iso_or_equiv
  _atom_site_type_symbol
  Ni1      1.0000 0.25237  0.39854  0.92932  Biso   1.000  Ni
  Ni2      1.0000 0.27354  0.62514  0.07365  Biso   1.000  Ni
  Ni3      1.0000 0.74763  0.10146  0.42932  Biso   1.000  Ni
  Ni4      1.0000 0.72646  0.87486  0.57365  Biso   1.000  Ni
  Ni5      1.0000 0.74763  0.60146  0.07068  Biso   1.000  Ni
  Ni6      1.0000 0.72646  0.37486  0.92635  Biso   1.000  Ni
  Ni7      1.0000 0.25237  0.89854  0.57068  Biso   1.000  Ni
  Ni8      1.0000 0.27354  0.12514  0.42635  Biso   1.000  Ni
  Ni9      1.0000 0.00000  0.50000  0.00000  Biso   1.000  Ni
  Ni10     1.0000 0.00000  0.00000  0.50000  Biso   1.000  Ni
  Ni11     1.0000 0.50000  0.50000  0.00000  Biso   1.000  Ni
  Ni12     1.0000 0.50000  0.00000  0.50000  Biso   1.000  Ni
  H1       1.0000 0.15010  0.76790  0.00300  Biso   1.000  H
  H2       1.0000 0.05810  0.87510  0.96670  Biso   1.000  H
  H3       1.0000 0.20560  0.78150  0.85810  Biso   1.000  H
  H4       1.0000 0.32720  0.68120  0.89500  Biso   1.000  H
  H5       1.0000 0.56100  0.49600  0.92250  Biso   1.000  H
  H6       1.0000 0.79000  0.61400  0.99720  Biso   1.000  H
  H7       1.0000 0.89480  0.04730  0.90820  Biso   1.000  H
  H8       1.0000 0.04500  0.17490  0.93130  Biso   1.000  H
  H9       1.0000 0.53420  0.09470  0.92790  Biso   1.000  H
  H10      1.0000 0.38290  0.96550  0.90730  Biso   1.000  H
  H11      1.0000 0.22600  0.38970  0.09890  Biso   1.000  H
  H12      1.0000 0.39800  0.34240  0.15180  Biso   1.000  H
  H13      1.0000 0.10410  0.44480  0.23790  Biso   1.000  H
  H14      1.0000 0.92610  0.48810  0.18510  Biso   1.000  H
  H15      1.0000 0.06230  0.26820  0.23620  Biso   1.000  H
  H16      1.0000 0.87810  0.19900  0.28910  Biso   1.000  H
  H17      1.0000 0.26030  0.29720  0.37450  Biso   1.000  H
  H18      1.0000 0.43600  0.37040  0.32210  Biso   1.000  H
  H19      1.0000 0.84990  0.73210  0.50300  Biso   1.000  H
  H20      1.0000 0.94190  0.62490  0.46670  Biso   1.000  H
  H21      1.0000 0.79440  0.71850  0.35810  Biso   1.000  H
  H22      1.0000 0.67280  0.81880  0.39500  Biso   1.000  H
  H23      1.0000 0.43900  0.00400  0.42250  Biso   1.000  H
  H24      1.0000 0.21000  0.88600  0.49720  Biso   1.000  H
  H25      1.0000 0.10520  0.45270  0.40820  Biso   1.000  H
  H26      1.0000 0.95500  0.32510  0.43130  Biso   1.000  H
  H27      1.0000 0.46580  0.40530  0.42790  Biso   1.000  H
  H28      1.0000 0.61710  0.53450  0.40730  Biso   1.000  H
  H29      1.0000 0.77400  0.11030  0.59890  Biso   1.000  H
  H30      1.0000 0.60200  0.15760  0.65180  Biso   1.000  H
  H31      1.0000 0.89590  0.05520  0.73790  Biso   1.000  H
  H32      1.0000 0.07390  0.01190  0.68510  Biso   1.000  H
  H33      1.0000 0.93770  0.23180  0.73620  Biso   1.000  H
  H34      1.0000 0.12190  0.30100  0.78910  Biso   1.000  H
  H35      1.0000 0.73970  0.20280  0.87450  Biso   1.000  H
  H36      1.0000 0.56400  0.12960  0.82210  Biso   1.000  H
  H37      1.0000 0.84990  0.23210  0.99700  Biso   1.000  H
  H38      1.0000 0.94190  0.12490  0.03330  Biso   1.000  H
  H39      1.0000 0.79440  0.21850  0.14190  Biso   1.000  H
  H40      1.0000 0.67280  0.31880  0.10500  Biso   1.000  H
  H41      1.0000 0.43900  0.50400  0.07750  Biso   1.000  H
  H42      1.0000 0.21000  0.38600  0.00280  Biso   1.000  H
  H43      1.0000 0.10520  0.95270  0.09180  Biso   1.000  H
  H44      1.0000 0.95500  0.82510  0.06870  Biso   1.000  H
  H45      1.0000 0.46580  0.90530  0.07210  Biso   1.000  H
  H46      1.0000 0.61710  0.03450  0.09270  Biso   1.000  H
  H47      1.0000 0.77400  0.61030  0.90110  Biso   1.000  H
  H48      1.0000 0.60200  0.65760  0.84820  Biso   1.000  H
  H49      1.0000 0.89590  0.55520  0.76210  Biso   1.000  H
  H50      1.0000 0.07390  0.51190  0.81490  Biso   1.000  H
  H51      1.0000 0.93770  0.73180  0.76380  Biso   1.000  H
  H52      1.0000 0.12190  0.80100  0.71090  Biso   1.000  H
  H53      1.0000 0.73970  0.70280  0.62550  Biso   1.000  H
  H54      1.0000 0.56400  0.62960  0.67790  Biso   1.000  H
  H55      1.0000 0.15010  0.26790  0.49700  Biso   1.000  H
  H56      1.0000 0.05810  0.37510  0.53330  Biso   1.000  H
  H57      1.0000 0.20560  0.28150  0.64190  Biso   1.000  H
  H58      1.0000 0.32720  0.18120  0.60500  Biso   1.000  H
  H59      1.0000 0.56100  0.99600  0.57750  Biso   1.000  H
  H60      1.0000 0.79000  0.11400  0.50280  Biso   1.000  H
  H61      1.0000 0.89480  0.54730  0.59180  Biso   1.000  H
  H62      1.0000 0.04500  0.67490  0.56870  Biso   1.000  H
  H63      1.0000 0.53420  0.59470  0.57210  Biso   1.000  H
  H64      1.0000 0.38290  0.46550  0.59270  Biso   1.000  H
  H65      1.0000 0.22600  0.88970  0.40110  Biso   1.000  H
  H66      1.0000 0.39800  0.84240  0.34820  Biso   1.000  H
  H67      1.0000 0.10410  0.94480  0.26210  Biso   1.000  H
  H68      1.0000 0.92610  0.98810  0.31490  Biso   1.000  H
  H69      1.0000 0.06230  0.76820  0.26380  Biso   1.000  H
  H70      1.0000 0.87810  0.69900  0.21090  Biso   1.000  H
  H71      1.0000 0.26030  0.79720  0.12550  Biso   1.000  H
  H72      1.0000 0.43600  0.87040  0.17790  Biso   1.000  H
  C1       1.0000 0.30630  0.64320  0.97616  Biso   1.000  C
  C2       1.0000 0.24900  0.71360  0.95270  Biso   1.000  C
  C3       1.0000 0.16570  0.77160  0.97404  Biso   1.000  C
  C4       1.0000 0.10640  0.83460  0.95210  Biso   1.000  C
  C5       1.0000 0.11750  0.83870  0.90830  Biso   1.000  C
  C6       1.0000 0.19810  0.78000  0.88726  Biso   1.000  C
  C7       1.0000 0.26800  0.71870  0.90929  Biso   1.000  C
  C8       1.0000 0.03420  0.90800  0.88679  Biso   1.000  C
  C9       1.0000 0.07100  0.91330  0.83883  Biso   1.000  C
  C10      1.0000 0.81920  0.88820  0.89312  Biso   1.000  C
  C11      1.0000 0.12200  0.99330  0.90482  Biso   1.000  C
  C12      1.0000 0.02330  0.05650  0.91225  Biso   1.000  C
  C13      1.0000 0.11350  0.13340  0.92571  Biso   1.000  C
  C14      1.0000 0.30680  0.14860  0.93082  Biso   1.000  C
  C15      1.0000 0.40560  0.08530  0.92400  Biso   1.000  C
  C16      1.0000 0.31510  0.00790  0.91139  Biso   1.000  C
  C17      1.0000 0.40150  0.23540  0.94126  Biso   1.000  C
  C18      1.0000 0.96030  0.48250  0.10266  Biso   1.000  C
  C19      1.0000 0.06160  0.44570  0.13645  Biso   1.000  C
  C20      1.0000 0.20180  0.40080  0.12677  Biso   1.000  C
  C21      1.0000 0.30520  0.37260  0.15847  Biso   1.000  C
  C22      1.0000 0.27090  0.38940  0.20034  Biso   1.000  C
  C23      1.0000 0.12830  0.43340  0.20998  Biso   1.000  C
  C24      1.0000 0.02300  0.46030  0.17833  Biso   1.000  C
  C25      1.0000 0.39120  0.36590  0.23679  Biso   1.000  C
  C26      1.0000 0.51110  0.30080  0.22390  Biso   1.000  C
  C27      1.0000 0.52440  0.44620  0.25010  Biso   1.000  C
  C28      1.0000 0.26910  0.32690  0.27358  Biso   1.000  C
  C29      1.0000 0.10130  0.27460  0.26404  Biso   1.000  C
  C30      1.0000 0.99170  0.23200  0.29565  Biso   1.000  C
  C31      1.0000 0.05350  0.23920  0.33702  Biso   1.000  C
  C32      1.0000 0.22000  0.29150  0.34677  Biso   1.000  C
  C33      1.0000 0.32580  0.33520  0.31530  Biso   1.000  C
  C34      1.0000 0.94350  0.18940  0.37060  Biso   1.000  C
  C35      1.0000 0.69370  0.85680  0.47616  Biso   1.000  C
  C36      1.0000 0.75100  0.78640  0.45270  Biso   1.000  C
  C37      1.0000 0.83430  0.72840  0.47404  Biso   1.000  C
  C38      1.0000 0.89360  0.66540  0.45210  Biso   1.000  C
  C39      1.0000 0.88250  0.66130  0.40830  Biso   1.000  C
  C40      1.0000 0.80190  0.72000  0.38726  Biso   1.000  C
  C41      1.0000 0.73200  0.78130  0.40929  Biso   1.000  C
  C42      1.0000 0.96580  0.59200  0.38679  Biso   1.000  C
  C43      1.0000 0.92900  0.58670  0.33883  Biso   1.000  C
  C44      1.0000 0.18080  0.61180  0.39312  Biso   1.000  C
  C45      1.0000 0.87800  0.50670  0.40482  Biso   1.000  C
  C46      1.0000 0.97670  0.44350  0.41225  Biso   1.000  C
  C47      1.0000 0.88650  0.36660  0.42571  Biso   1.000  C
  C48      1.0000 0.69320  0.35140  0.43082  Biso   1.000  C
  C49      1.0000 0.59440  0.41470  0.42400  Biso   1.000  C
  C50      1.0000 0.68490  0.49210  0.41139  Biso   1.000  C
  C51      1.0000 0.59850  0.26460  0.44126  Biso   1.000  C
  C52      1.0000 0.03970  0.01750  0.60266  Biso   1.000  C
  C53      1.0000 0.93840  0.05430  0.63645  Biso   1.000  C
  C54      1.0000 0.79820  0.09920  0.62677  Biso   1.000  C
  C55      1.0000 0.69480  0.12740  0.65847  Biso   1.000  C
  C56      1.0000 0.72910  0.11060  0.70034  Biso   1.000  C
  C57      1.0000 0.87170  0.06660  0.70998  Biso   1.000  C
  C58      1.0000 0.97700  0.03970  0.67833  Biso   1.000  C
  C59      1.0000 0.60880  0.13410  0.73679  Biso   1.000  C
  C60      1.0000 0.48890  0.19920  0.72390  Biso   1.000  C
  C61      1.0000 0.47560  0.05380  0.75010  Biso   1.000  C
  C62      1.0000 0.73090  0.17310  0.77358  Biso   1.000  C
  C63      1.0000 0.89870  0.22540  0.76404  Biso   1.000  C
  C64      1.0000 0.00830  0.26800  0.79565  Biso   1.000  C
  C65      1.0000 0.94650  0.26080  0.83702  Biso   1.000  C
  C66      1.0000 0.78000  0.20850  0.84677  Biso   1.000  C
  C67      1.0000 0.67420  0.16480  0.81530  Biso   1.000  C
  C68      1.0000 0.05650  0.31060  0.87060  Biso   1.000  C
  C69      1.0000 0.69370  0.35680  0.02384  Biso   1.000  C
  C70      1.0000 0.75100  0.28640  0.04730  Biso   1.000  C
  C71      1.0000 0.83430  0.22840  0.02596  Biso   1.000  C
  C72      1.0000 0.89360  0.16540  0.04790  Biso   1.000  C
  C73      1.0000 0.88250  0.16130  0.09170  Biso   1.000  C
  C74      1.0000 0.80190  0.22000  0.11274  Biso   1.000  C
  C75      1.0000 0.73200  0.28130  0.09071  Biso   1.000  C
  C76      1.0000 0.96580  0.09200  0.11321  Biso   1.000  C
  C77      1.0000 0.92900  0.08670  0.16117  Biso   1.000  C
  C78      1.0000 0.18080  0.11180  0.10688  Biso   1.000  C
  C79      1.0000 0.87800  0.00670  0.09518  Biso   1.000  C
  C80      1.0000 0.97670  0.94350  0.08775  Biso   1.000  C
  C81      1.0000 0.88650  0.86660  0.07429  Biso   1.000  C
  C82      1.0000 0.69320  0.85140  0.06918  Biso   1.000  C
  C83      1.0000 0.59440  0.91470  0.07600  Biso   1.000  C
  C84      1.0000 0.68490  0.99210  0.08861  Biso   1.000  C
  C85      1.0000 0.59850  0.76460  0.05874  Biso   1.000  C
  C86      1.0000 0.03970  0.51750  0.89734  Biso   1.000  C
  C87      1.0000 0.93840  0.55430  0.86355  Biso   1.000  C
  C88      1.0000 0.79820  0.59920  0.87323  Biso   1.000  C
  C89      1.0000 0.69480  0.62740  0.84153  Biso   1.000  C
  C90      1.0000 0.72910  0.61060  0.79966  Biso   1.000  C
  C91      1.0000 0.87170  0.56660  0.79002  Biso   1.000  C
  C92      1.0000 0.97700  0.53970  0.82167  Biso   1.000  C
  C93      1.0000 0.60880  0.63410  0.76321  Biso   1.000  C
  C94      1.0000 0.48890  0.69920  0.77610  Biso   1.000  C
  C95      1.0000 0.47560  0.55380  0.74990  Biso   1.000  C
  C96      1.0000 0.73090  0.67310  0.72642  Biso   1.000  C
  C97      1.0000 0.89870  0.72540  0.73596  Biso   1.000  C
  C98      1.0000 0.00830  0.76800  0.70435  Biso   1.000  C
  C99      1.0000 0.94650  0.76080  0.66298  Biso   1.000  C
  C100     1.0000 0.78000  0.70850  0.65323  Biso   1.000  C
  C101     1.0000 0.67420  0.66480  0.68470  Biso   1.000  C
  C102     1.0000 0.05650  0.81060  0.62940  Biso   1.000  C
  C103     1.0000 0.30630  0.14320  0.52384  Biso   1.000  C
  C104     1.0000 0.24900  0.21360  0.54730  Biso   1.000  C
  C105     1.0000 0.16570  0.27160  0.52596  Biso   1.000  C
  C106     1.0000 0.10640  0.33460  0.54790  Biso   1.000  C
  C107     1.0000 0.11750  0.33870  0.59170  Biso   1.000  C
  C108     1.0000 0.19810  0.28000  0.61274  Biso   1.000  C
  C109     1.0000 0.26800  0.21870  0.59071  Biso   1.000  C
  C110     1.0000 0.03420  0.40800  0.61321  Biso   1.000  C
  C111     1.0000 0.07100  0.41330  0.66117  Biso   1.000  C
  C112     1.0000 0.81920  0.38820  0.60688  Biso   1.000  C
  C113     1.0000 0.12200  0.49330  0.59518  Biso   1.000  C
  C114     1.0000 0.02330  0.55650  0.58775  Biso   1.000  C
  C115     1.0000 0.11350  0.63340  0.57429  Biso   1.000  C
  C116     1.0000 0.30680  0.64860  0.56918  Biso   1.000  C
  C117     1.0000 0.40560  0.58530  0.57600  Biso   1.000  C
  C118     1.0000 0.31510  0.50790  0.58861  Biso   1.000  C
  C119     1.0000 0.40150  0.73540  0.55874  Biso   1.000  C
  C120     1.0000 0.96030  0.98250  0.39734  Biso   1.000  C
  C121     1.0000 0.06160  0.94570  0.36355  Biso   1.000  C
  C122     1.0000 0.20180  0.90080  0.37323  Biso   1.000  C
  C123     1.0000 0.30520  0.87260  0.34153  Biso   1.000  C
  C124     1.0000 0.27090  0.88940  0.29966  Biso   1.000  C
  C125     1.0000 0.12830  0.93340  0.29002  Biso   1.000  C
  C126     1.0000 0.02300  0.96030  0.32167  Biso   1.000  C
  C127     1.0000 0.39120  0.86590  0.26321  Biso   1.000  C
  C128     1.0000 0.51110  0.80080  0.27610  Biso   1.000  C
  C129     1.0000 0.52440  0.94620  0.24990  Biso   1.000  C
  C130     1.0000 0.26910  0.82690  0.22642  Biso   1.000  C
  C131     1.0000 0.10130  0.77460  0.23596  Biso   1.000  C
  C132     1.0000 0.99170  0.73200  0.20435  Biso   1.000  C
  C133     1.0000 0.05350  0.73920  0.16298  Biso   1.000  C
  C134     1.0000 0.22000  0.79150  0.15323  Biso   1.000  C
  C135     1.0000 0.32580  0.83520  0.18470  Biso   1.000  C
  C136     1.0000 0.94350  0.68940  0.12940  Biso   1.000  C
  O1       1.0000 0.43960  0.61139  0.96465  Biso   1.000  O
  O2       1.0000 0.20050  0.61656  0.00760  Biso   1.000  O
  O3       1.0000 0.30240  0.28464  0.95466  Biso   1.000  O
  O4       1.0000 0.57630  0.25272  0.93457  Biso   1.000  O
  O5       1.0000 0.05240  0.50276  0.06866  Biso   1.000  O
  O6       1.0000 0.79960  0.49643  0.10888  Biso   1.000  O
  O7       1.0000 0.77050  0.16780  0.36616  Biso   1.000  O
  O8       1.0000 0.02630  0.16913  0.40313  Biso   1.000  O
  O9       1.0000 0.53280  0.45348  0.93587  Biso   1.000  O
  O10      1.0000 0.78080  0.56560  0.00767  Biso   1.000  O
  O11      1.0000 0.56040  0.88861  0.46465  Biso   1.000  O
  O12      1.0000 0.79950  0.88344  0.50760  Biso   1.000  O
  O13      1.0000 0.69760  0.21536  0.45466  Biso   1.000  O
  O14      1.0000 0.42370  0.24728  0.43457  Biso   1.000  O
  O15      1.0000 0.94760  0.99724  0.56866  Biso   1.000  O
  O16      1.0000 0.20040  0.00357  0.60888  Biso   1.000  O
  O17      1.0000 0.22950  0.33220  0.86616  Biso   1.000  O
  O18      1.0000 0.97370  0.33087  0.90313  Biso   1.000  O
  O19      1.0000 0.46720  0.04652  0.43587  Biso   1.000  O
  O20      1.0000 0.21920  0.93440  0.50767  Biso   1.000  O
  O21      1.0000 0.56040  0.38861  0.03535  Biso   1.000  O
  O22      1.0000 0.79950  0.38344  0.99240  Biso   1.000  O
  O23      1.0000 0.69760  0.71536  0.04534  Biso   1.000  O
  O24      1.0000 0.42370  0.74728  0.06543  Biso   1.000  O
  O25      1.0000 0.94760  0.49724  0.93134  Biso   1.000  O
  O26      1.0000 0.20040  0.50357  0.89112  Biso   1.000  O
  O27      1.0000 0.22950  0.83220  0.63384  Biso   1.000  O
  O28      1.0000 0.97370  0.83087  0.59687  Biso   1.000  O
  O29      1.0000 0.46720  0.54652  0.06413  Biso   1.000  O
  O30      1.0000 0.21920  0.43440  0.99233  Biso   1.000  O
  O31      1.0000 0.43960  0.11139  0.53535  Biso   1.000  O
  O32      1.0000 0.20050  0.11656  0.49240  Biso   1.000  O
  O33      1.0000 0.30240  0.78464  0.54534  Biso   1.000  O
  O34      1.0000 0.57630  0.75272  0.56543  Biso   1.000  O
  O35      1.0000 0.05240  0.00276  0.43134  Biso   1.000  O
  O36      1.0000 0.79960  0.99643  0.39112  Biso   1.000  O
  O37      1.0000 0.77050  0.66780  0.13384  Biso   1.000  O
  O38      1.0000 0.02630  0.66913  0.09687  Biso   1.000  O
  O39      1.0000 0.53280  0.95348  0.56413  Biso   1.000  O
  O40      1.0000 0.78080  0.06560  0.49233  Biso   1.000  O
  F1       1.0000 0.98220  0.84614  0.81848  Biso   1.000  F
  F2       1.0000 0.25370  0.91898  0.83067  Biso   1.000  F
  F3       1.0000 0.01680  0.97878  0.82181  Biso   1.000  F
  F4       1.0000 0.75360  0.80833  0.88484  Biso   1.000  F
  F5       1.0000 0.72510  0.93238  0.86844  Biso   1.000  F
  F6       1.0000 0.77090  0.90163  0.93257  Biso   1.000  F
  F7       1.0000 0.64950  0.33134  0.19708  Biso   1.000  F
  F8       1.0000 0.40830  0.23605  0.20534  Biso   1.000  F
  F9       1.0000 0.59360  0.27209  0.25698  Biso   1.000  F
  F10      1.0000 0.66660  0.43203  0.27355  Biso   1.000  F
  F11      1.0000 0.43170  0.49570  0.27166  Biso   1.000  F
  F12      1.0000 0.59720  0.48886  0.21648  Biso   1.000  F
  F13      1.0000 0.01780  0.65386  0.31848  Biso   1.000  F
  F14      1.0000 0.74630  0.58102  0.33067  Biso   1.000  F
  F15      1.0000 0.98320  0.52122  0.32181  Biso   1.000  F
  F16      1.0000 0.24640  0.69167  0.38484  Biso   1.000  F
  F17      1.0000 0.27490  0.56762  0.36844  Biso   1.000  F
  F18      1.0000 0.22910  0.59837  0.43257  Biso   1.000  F
  F19      1.0000 0.35050  0.16866  0.69708  Biso   1.000  F
  F20      1.0000 0.59170  0.26395  0.70534  Biso   1.000  F
  F21      1.0000 0.40640  0.22791  0.75698  Biso   1.000  F
  F22      1.0000 0.33340  0.06797  0.77355  Biso   1.000  F
  F23      1.0000 0.56830  0.00430  0.77166  Biso   1.000  F
  F24      1.0000 0.40280  0.01114  0.71648  Biso   1.000  F
  F25      1.0000 0.01780  0.15386  0.18152  Biso   1.000  F
  F26      1.0000 0.74630  0.08102  0.16933  Biso   1.000  F
  F27      1.0000 0.98320  0.02122  0.17819  Biso   1.000  F
  F28      1.0000 0.24640  0.19167  0.11516  Biso   1.000  F
  F29      1.0000 0.27490  0.06762  0.13156  Biso   1.000  F
  F30      1.0000 0.22910  0.09837  0.06743  Biso   1.000  F
  F31      1.0000 0.35050  0.66866  0.80292  Biso   1.000  F
  F32      1.0000 0.59170  0.76395  0.79466  Biso   1.000  F
  F33      1.0000 0.40640  0.72791  0.74302  Biso   1.000  F
  F34      1.0000 0.33340  0.56797  0.72645  Biso   1.000  F
  F35      1.0000 0.56830  0.50430  0.72834  Biso   1.000  F
  F36      1.0000 0.40280  0.51114  0.78352  Biso   1.000  F
  F37      1.0000 0.98220  0.34614  0.68152  Biso   1.000  F
  F38      1.0000 0.25370  0.41898  0.66933  Biso   1.000  F
  F39      1.0000 0.01680  0.47878  0.67819  Biso   1.000  F
  F40      1.0000 0.75360  0.30833  0.61516  Biso   1.000  F
  F41      1.0000 0.72510  0.43238  0.63156  Biso   1.000  F
  F42      1.0000 0.77090  0.40163  0.56743  Biso   1.000  F
  F43      1.0000 0.64950  0.83134  0.30292  Biso   1.000  F
  F44      1.0000 0.40830  0.73605  0.29466  Biso   1.000  F
  F45      1.0000 0.59360  0.77209  0.24302  Biso   1.000  F
  F46      1.0000 0.66660  0.93203  0.22645  Biso   1.000  F
  F47      1.0000 0.43170  0.99570  0.22834  Biso   1.000  F
  F48      1.0000 0.59720  0.98886  0.28352  Biso   1.000  F
