data_image0
_cell_length_a       20.573
_cell_length_b       20.573
_cell_length_c       20.573
_cell_angle_alpha    90
_cell_angle_beta     90
_cell_angle_gamma    90

_symmetry_space_group_name_H-M    P 1
_symmetry_int_tables_number       1

loop_
  _symmetry_equiv_pos_as_xyz
  'x, y, z'

loop_
  _atom_site_label
  _atom_site_occupancy
  _atom_site_fract_x
  _atom_site_fract_y
  _atom_site_fract_z
  _atom_site_thermal_displace_type
  _atom_site_B_iso_or_equiv
  _atom_site_type_symbol
  Zn1      1.0000 0.50000  0.92757  0.50000  Biso   1.000  Zn
  Zn2      1.0000 0.50000  0.07243  0.50000  Biso   1.000  Zn
  Zn3      1.0000 0.50000  0.50000  0.92757  Biso   1.000  Zn
  Zn4      1.0000 0.50000  0.50000  0.07243  Biso   1.000  Zn
  Zn5      1.0000 0.92757  0.50000  0.50000  Biso   1.000  Zn
  Zn6      1.0000 0.07243  0.50000  0.50000  Biso   1.000  Zn
  Zn7      1.0000 0.73681  0.26319  0.73681  Biso   1.000  Zn
  Zn8      1.0000 0.83476  0.16524  0.83476  Biso   1.000  Zn
  Zn9      1.0000 0.26319  0.73681  0.73681  Biso   1.000  Zn
  Zn10     1.0000 0.16524  0.83476  0.83476  Biso   1.000  Zn
  Zn11     1.0000 0.26319  0.26319  0.26319  Biso   1.000  Zn
  Zn12     1.0000 0.16524  0.16524  0.16524  Biso   1.000  Zn
  Zn13     1.0000 0.73681  0.73681  0.26319  Biso   1.000  Zn
  Zn14     1.0000 0.83476  0.83476  0.16524  Biso   1.000  Zn
  Zn15     1.0000 0.26319  0.73681  0.26319  Biso   1.000  Zn
  Zn16     1.0000 0.16524  0.83476  0.16524  Biso   1.000  Zn
  Zn17     1.0000 0.73681  0.26319  0.26319  Biso   1.000  Zn
  Zn18     1.0000 0.83476  0.16524  0.16524  Biso   1.000  Zn
  Zn19     1.0000 0.26319  0.26319  0.73681  Biso   1.000  Zn
  Zn20     1.0000 0.16524  0.16524  0.83476  Biso   1.000  Zn
  Zn21     1.0000 0.73681  0.73681  0.73681  Biso   1.000  Zn
  Zn22     1.0000 0.83476  0.83476  0.83476  Biso   1.000  Zn
  H1       1.0000 0.76690  0.00000  0.76690  Biso   1.000  H
  H2       1.0000 0.23310  0.00000  0.76690  Biso   1.000  H
  H3       1.0000 0.23310  0.00000  0.23310  Biso   1.000  H
  H4       1.0000 0.76690  0.00000  0.23310  Biso   1.000  H
  H5       1.0000 0.76690  0.76690  0.00000  Biso   1.000  H
  H6       1.0000 0.76690  0.23310  0.00000  Biso   1.000  H
  H7       1.0000 0.23310  0.23310  0.00000  Biso   1.000  H
  H8       1.0000 0.23310  0.76690  0.00000  Biso   1.000  H
  H9       1.0000 0.00000  0.76690  0.76690  Biso   1.000  H
  H10      1.0000 0.00000  0.76690  0.23310  Biso   1.000  H
  H11      1.0000 0.00000  0.23310  0.23310  Biso   1.000  H
  H12      1.0000 0.00000  0.23310  0.76690  Biso   1.000  H
  H13      1.0000 0.65090  0.09890  0.65090  Biso   1.000  H
  H14      1.0000 0.34910  0.90110  0.65090  Biso   1.000  H
  H15      1.0000 0.34910  0.09890  0.34910  Biso   1.000  H
  H16      1.0000 0.65090  0.90110  0.34910  Biso   1.000  H
  H17      1.0000 0.65090  0.65090  0.09890  Biso   1.000  H
  H18      1.0000 0.65090  0.34910  0.90110  Biso   1.000  H
  H19      1.0000 0.34910  0.34910  0.09890  Biso   1.000  H
  H20      1.0000 0.34910  0.65090  0.90110  Biso   1.000  H
  H21      1.0000 0.09890  0.65090  0.65090  Biso   1.000  H
  H22      1.0000 0.90110  0.65090  0.34910  Biso   1.000  H
  H23      1.0000 0.09890  0.34910  0.34910  Biso   1.000  H
  H24      1.0000 0.90110  0.34910  0.65090  Biso   1.000  H
  H25      1.0000 0.09890  0.65090  0.34910  Biso   1.000  H
  H26      1.0000 0.90110  0.34910  0.34910  Biso   1.000  H
  H27      1.0000 0.09890  0.34910  0.65090  Biso   1.000  H
  H28      1.0000 0.90110  0.65090  0.65090  Biso   1.000  H
  H29      1.0000 0.65090  0.65090  0.90110  Biso   1.000  H
  H30      1.0000 0.34910  0.65090  0.09890  Biso   1.000  H
  H31      1.0000 0.34910  0.34910  0.90110  Biso   1.000  H
  H32      1.0000 0.65090  0.34910  0.09890  Biso   1.000  H
  H33      1.0000 0.65090  0.09890  0.34910  Biso   1.000  H
  H34      1.0000 0.65090  0.90110  0.65090  Biso   1.000  H
  H35      1.0000 0.34910  0.09890  0.65090  Biso   1.000  H
  H36      1.0000 0.34910  0.90110  0.34910  Biso   1.000  H
  C1       1.0000 0.64000  0.00000  0.64000  Biso   1.000  C
  C2       1.0000 0.73490  0.00000  0.73490  Biso   1.000  C
  C3       1.0000 0.58670  0.00000  0.58670  Biso   1.000  C
  C4       1.0000 0.36000  0.00000  0.64000  Biso   1.000  C
  C5       1.0000 0.26510  0.00000  0.73490  Biso   1.000  C
  C6       1.0000 0.41330  0.00000  0.58670  Biso   1.000  C
  C7       1.0000 0.36000  0.00000  0.36000  Biso   1.000  C
  C8       1.0000 0.26510  0.00000  0.26510  Biso   1.000  C
  C9       1.0000 0.41330  0.00000  0.41330  Biso   1.000  C
  C10      1.0000 0.64000  0.00000  0.36000  Biso   1.000  C
  C11      1.0000 0.73490  0.00000  0.26510  Biso   1.000  C
  C12      1.0000 0.58670  0.00000  0.41330  Biso   1.000  C
  C13      1.0000 0.64000  0.64000  0.00000  Biso   1.000  C
  C14      1.0000 0.73490  0.73490  0.00000  Biso   1.000  C
  C15      1.0000 0.58670  0.58670  0.00000  Biso   1.000  C
  C16      1.0000 0.64000  0.36000  0.00000  Biso   1.000  C
  C17      1.0000 0.73490  0.26510  0.00000  Biso   1.000  C
  C18      1.0000 0.58670  0.41330  0.00000  Biso   1.000  C
  C19      1.0000 0.36000  0.36000  0.00000  Biso   1.000  C
  C20      1.0000 0.26510  0.26510  0.00000  Biso   1.000  C
  C21      1.0000 0.41330  0.41330  0.00000  Biso   1.000  C
  C22      1.0000 0.36000  0.64000  0.00000  Biso   1.000  C
  C23      1.0000 0.26510  0.73490  0.00000  Biso   1.000  C
  C24      1.0000 0.41330  0.58670  0.00000  Biso   1.000  C
  C25      1.0000 0.00000  0.64000  0.64000  Biso   1.000  C
  C26      1.0000 0.00000  0.73490  0.73490  Biso   1.000  C
  C27      1.0000 0.00000  0.58670  0.58670  Biso   1.000  C
  C28      1.0000 0.00000  0.64000  0.36000  Biso   1.000  C
  C29      1.0000 0.00000  0.73490  0.26510  Biso   1.000  C
  C30      1.0000 0.00000  0.58670  0.41330  Biso   1.000  C
  C31      1.0000 0.00000  0.36000  0.36000  Biso   1.000  C
  C32      1.0000 0.00000  0.26510  0.26510  Biso   1.000  C
  C33      1.0000 0.00000  0.41330  0.41330  Biso   1.000  C
  C34      1.0000 0.00000  0.36000  0.64000  Biso   1.000  C
  C35      1.0000 0.00000  0.26510  0.73490  Biso   1.000  C
  C36      1.0000 0.00000  0.41330  0.58670  Biso   1.000  C
  C37      1.0000 0.66590  0.05900  0.66590  Biso   1.000  C
  C38      1.0000 0.71180  0.05700  0.71180  Biso   1.000  C
  C39      1.0000 0.73900  0.11880  0.73900  Biso   1.000  C
  C40      1.0000 0.33410  0.94100  0.66590  Biso   1.000  C
  C41      1.0000 0.28820  0.94300  0.71180  Biso   1.000  C
  C42      1.0000 0.26100  0.88120  0.73900  Biso   1.000  C
  C43      1.0000 0.33410  0.05900  0.33410  Biso   1.000  C
  C44      1.0000 0.28820  0.05700  0.28820  Biso   1.000  C
  C45      1.0000 0.26100  0.11880  0.26100  Biso   1.000  C
  C46      1.0000 0.66590  0.94100  0.33410  Biso   1.000  C
  C47      1.0000 0.71180  0.94300  0.28820  Biso   1.000  C
  C48      1.0000 0.73900  0.88120  0.26100  Biso   1.000  C
  C49      1.0000 0.66590  0.66590  0.05900  Biso   1.000  C
  C50      1.0000 0.71180  0.71180  0.05700  Biso   1.000  C
  C51      1.0000 0.73900  0.73900  0.11880  Biso   1.000  C
  C52      1.0000 0.66590  0.33410  0.94100  Biso   1.000  C
  C53      1.0000 0.71180  0.28820  0.94300  Biso   1.000  C
  C54      1.0000 0.73900  0.26100  0.88120  Biso   1.000  C
  C55      1.0000 0.33410  0.33410  0.05900  Biso   1.000  C
  C56      1.0000 0.28820  0.28820  0.05700  Biso   1.000  C
  C57      1.0000 0.26100  0.26100  0.11880  Biso   1.000  C
  C58      1.0000 0.33410  0.66590  0.94100  Biso   1.000  C
  C59      1.0000 0.28820  0.71180  0.94300  Biso   1.000  C
  C60      1.0000 0.26100  0.73900  0.88120  Biso   1.000  C
  C61      1.0000 0.05900  0.66590  0.66590  Biso   1.000  C
  C62      1.0000 0.05700  0.71180  0.71180  Biso   1.000  C
  C63      1.0000 0.11880  0.73900  0.73900  Biso   1.000  C
  C64      1.0000 0.94100  0.66590  0.33410  Biso   1.000  C
  C65      1.0000 0.94300  0.71180  0.28820  Biso   1.000  C
  C66      1.0000 0.88120  0.73900  0.26100  Biso   1.000  C
  C67      1.0000 0.05900  0.33410  0.33410  Biso   1.000  C
  C68      1.0000 0.05700  0.28820  0.28820  Biso   1.000  C
  C69      1.0000 0.11880  0.26100  0.26100  Biso   1.000  C
  C70      1.0000 0.94100  0.33410  0.66590  Biso   1.000  C
  C71      1.0000 0.94300  0.28820  0.71180  Biso   1.000  C
  C72      1.0000 0.88120  0.26100  0.73900  Biso   1.000  C
  C73      1.0000 0.05900  0.66590  0.33410  Biso   1.000  C
  C74      1.0000 0.05700  0.71180  0.28820  Biso   1.000  C
  C75      1.0000 0.11880  0.73900  0.26100  Biso   1.000  C
  C76      1.0000 0.94100  0.33410  0.33410  Biso   1.000  C
  C77      1.0000 0.94300  0.28820  0.28820  Biso   1.000  C
  C78      1.0000 0.88120  0.26100  0.26100  Biso   1.000  C
  C79      1.0000 0.05900  0.33410  0.66590  Biso   1.000  C
  C80      1.0000 0.05700  0.28820  0.71180  Biso   1.000  C
  C81      1.0000 0.11880  0.26100  0.73900  Biso   1.000  C
  C82      1.0000 0.94100  0.66590  0.66590  Biso   1.000  C
  C83      1.0000 0.94300  0.71180  0.71180  Biso   1.000  C
  C84      1.0000 0.88120  0.73900  0.73900  Biso   1.000  C
  C85      1.0000 0.66590  0.66590  0.94100  Biso   1.000  C
  C86      1.0000 0.71180  0.71180  0.94300  Biso   1.000  C
  C87      1.0000 0.73900  0.73900  0.88120  Biso   1.000  C
  C88      1.0000 0.33410  0.66590  0.05900  Biso   1.000  C
  C89      1.0000 0.28820  0.71180  0.05700  Biso   1.000  C
  C90      1.0000 0.26100  0.73900  0.11880  Biso   1.000  C
  C91      1.0000 0.33410  0.33410  0.94100  Biso   1.000  C
  C92      1.0000 0.28820  0.28820  0.94300  Biso   1.000  C
  C93      1.0000 0.26100  0.26100  0.88120  Biso   1.000  C
  C94      1.0000 0.66590  0.33410  0.05900  Biso   1.000  C
  C95      1.0000 0.71180  0.28820  0.05700  Biso   1.000  C
  C96      1.0000 0.73900  0.26100  0.11880  Biso   1.000  C
  C97      1.0000 0.66590  0.05900  0.33410  Biso   1.000  C
  C98      1.0000 0.71180  0.05700  0.28820  Biso   1.000  C
  C99      1.0000 0.73900  0.11880  0.26100  Biso   1.000  C
  C100     1.0000 0.66590  0.94100  0.66590  Biso   1.000  C
  C101     1.0000 0.71180  0.94300  0.71180  Biso   1.000  C
  C102     1.0000 0.73900  0.88120  0.73900  Biso   1.000  C
  C103     1.0000 0.33410  0.05900  0.66590  Biso   1.000  C
  C104     1.0000 0.28820  0.05700  0.71180  Biso   1.000  C
  C105     1.0000 0.26100  0.11880  0.73900  Biso   1.000  C
  C106     1.0000 0.33410  0.94100  0.33410  Biso   1.000  C
  C107     1.0000 0.28820  0.94300  0.28820  Biso   1.000  C
  C108     1.0000 0.26100  0.88120  0.26100  Biso   1.000  C
  O1       1.0000 0.56820  0.94610  0.56820  Biso   1.000  O
  O2       1.0000 0.71690  0.17170  0.71690  Biso   1.000  O
  O3       1.0000 0.78140  0.11230  0.78140  Biso   1.000  O
  O4       1.0000 0.43180  0.05390  0.56820  Biso   1.000  O
  O5       1.0000 0.28310  0.82830  0.71690  Biso   1.000  O
  O6       1.0000 0.21860  0.88770  0.78140  Biso   1.000  O
  O7       1.0000 0.43180  0.94610  0.43180  Biso   1.000  O
  O8       1.0000 0.28310  0.17170  0.28310  Biso   1.000  O
  O9       1.0000 0.21860  0.11230  0.21860  Biso   1.000  O
  O10      1.0000 0.56820  0.05390  0.43180  Biso   1.000  O
  O11      1.0000 0.71690  0.82830  0.28310  Biso   1.000  O
  O12      1.0000 0.78140  0.88770  0.21860  Biso   1.000  O
  O13      1.0000 0.56820  0.56820  0.94610  Biso   1.000  O
  O14      1.0000 0.71690  0.71690  0.17170  Biso   1.000  O
  O15      1.0000 0.78140  0.78140  0.11230  Biso   1.000  O
  O16      1.0000 0.56820  0.43180  0.05390  Biso   1.000  O
  O17      1.0000 0.71690  0.28310  0.82830  Biso   1.000  O
  O18      1.0000 0.78140  0.21860  0.88770  Biso   1.000  O
  O19      1.0000 0.43180  0.43180  0.94610  Biso   1.000  O
  O20      1.0000 0.28310  0.28310  0.17170  Biso   1.000  O
  O21      1.0000 0.21860  0.21860  0.11230  Biso   1.000  O
  O22      1.0000 0.43180  0.56820  0.05390  Biso   1.000  O
  O23      1.0000 0.28310  0.71690  0.82830  Biso   1.000  O
  O24      1.0000 0.21860  0.78140  0.88770  Biso   1.000  O
  O25      1.0000 0.94610  0.56820  0.56820  Biso   1.000  O
  O26      1.0000 0.17170  0.71690  0.71690  Biso   1.000  O
  O27      1.0000 0.11230  0.78140  0.78140  Biso   1.000  O
  O28      1.0000 0.05390  0.56820  0.43180  Biso   1.000  O
  O29      1.0000 0.82830  0.71690  0.28310  Biso   1.000  O
  O30      1.0000 0.88770  0.78140  0.21860  Biso   1.000  O
  O31      1.0000 0.94610  0.43180  0.43180  Biso   1.000  O
  O32      1.0000 0.17170  0.28310  0.28310  Biso   1.000  O
  O33      1.0000 0.11230  0.21860  0.21860  Biso   1.000  O
  O34      1.0000 0.05390  0.43180  0.56820  Biso   1.000  O
  O35      1.0000 0.82830  0.28310  0.71690  Biso   1.000  O
  O36      1.0000 0.88770  0.21860  0.78140  Biso   1.000  O
  O37      1.0000 0.94610  0.56820  0.43180  Biso   1.000  O
  O38      1.0000 0.17170  0.71690  0.28310  Biso   1.000  O
  O39      1.0000 0.11230  0.78140  0.21860  Biso   1.000  O
  O40      1.0000 0.05390  0.43180  0.43180  Biso   1.000  O
  O41      1.0000 0.82830  0.28310  0.28310  Biso   1.000  O
  O42      1.0000 0.88770  0.21860  0.21860  Biso   1.000  O
  O43      1.0000 0.94610  0.43180  0.56820  Biso   1.000  O
  O44      1.0000 0.17170  0.28310  0.71690  Biso   1.000  O
  O45      1.0000 0.11230  0.21860  0.78140  Biso   1.000  O
  O46      1.0000 0.05390  0.56820  0.56820  Biso   1.000  O
  O47      1.0000 0.82830  0.71690  0.71690  Biso   1.000  O
  O48      1.0000 0.88770  0.78140  0.78140  Biso   1.000  O
  O49      1.0000 0.56820  0.56820  0.05390  Biso   1.000  O
  O50      1.0000 0.71690  0.71690  0.82830  Biso   1.000  O
  O51      1.0000 0.78140  0.78140  0.88770  Biso   1.000  O
  O52      1.0000 0.43180  0.56820  0.94610  Biso   1.000  O
  O53      1.0000 0.28310  0.71690  0.17170  Biso   1.000  O
  O54      1.0000 0.21860  0.78140  0.11230  Biso   1.000  O
  O55      1.0000 0.43180  0.43180  0.05390  Biso   1.000  O
  O56      1.0000 0.28310  0.28310  0.82830  Biso   1.000  O
  O57      1.0000 0.21860  0.21860  0.88770  Biso   1.000  O
  O58      1.0000 0.56820  0.43180  0.94610  Biso   1.000  O
  O59      1.0000 0.71690  0.28310  0.17170  Biso   1.000  O
  O60      1.0000 0.78140  0.21860  0.11230  Biso   1.000  O
  O61      1.0000 0.56820  0.94610  0.43180  Biso   1.000  O
  O62      1.0000 0.71690  0.17170  0.28310  Biso   1.000  O
  O63      1.0000 0.78140  0.11230  0.21860  Biso   1.000  O
  O64      1.0000 0.56820  0.05390  0.56820  Biso   1.000  O
  O65      1.0000 0.71690  0.82830  0.71690  Biso   1.000  O
  O66      1.0000 0.78140  0.88770  0.78140  Biso   1.000  O
  O67      1.0000 0.43180  0.94610  0.56820  Biso   1.000  O
  O68      1.0000 0.28310  0.17170  0.71690  Biso   1.000  O
  O69      1.0000 0.21860  0.11230  0.78140  Biso   1.000  O
  O70      1.0000 0.43180  0.05390  0.43180  Biso   1.000  O
  O71      1.0000 0.28310  0.82830  0.28310  Biso   1.000  O
  O72      1.0000 0.21860  0.88770  0.21860  Biso   1.000  O
  O73      1.0000 0.50000  0.82880  0.50000  Biso   1.000  O
  O74      1.0000 0.50000  0.17120  0.50000  Biso   1.000  O
  O75      1.0000 0.50000  0.50000  0.82880  Biso   1.000  O
  O76      1.0000 0.50000  0.50000  0.17120  Biso   1.000  O
  O77      1.0000 0.82880  0.50000  0.50000  Biso   1.000  O
  O78      1.0000 0.17120  0.50000  0.50000  Biso   1.000  O
