data_image0
_cell_length_a       20.6155
_cell_length_b       20.6155
_cell_length_c       20.6155
_cell_angle_alpha    90
_cell_angle_beta     90
_cell_angle_gamma    90

_symmetry_space_group_name_H-M    P 1
_symmetry_int_tables_number       1

loop_
  _symmetry_equiv_pos_as_xyz
  'x, y, z'

loop_
  _atom_site_label
  _atom_site_occupancy
  _atom_site_fract_x
  _atom_site_fract_y
  _atom_site_fract_z
  _atom_site_thermal_displace_type
  _atom_site_B_iso_or_equiv
  _atom_site_type_symbol
  Zn1      1.0000 0.00000  0.57224  0.00000  Biso   1.000  Zn
  Zn2      1.0000 0.00000  0.42776  0.00000  Biso   1.000  Zn
  Zn3      1.0000 0.00000  0.00000  0.57224  Biso   1.000  Zn
  Zn4      1.0000 0.00000  0.00000  0.42776  Biso   1.000  Zn
  Zn5      1.0000 0.57224  0.00000  0.00000  Biso   1.000  Zn
  Zn6      1.0000 0.42776  0.00000  0.00000  Biso   1.000  Zn
  Zn7      1.0000 0.76112  0.76112  0.76112  Biso   1.000  Zn
  Zn8      1.0000 0.66451  0.66451  0.66451  Biso   1.000  Zn
  Zn9      1.0000 0.23888  0.23888  0.76112  Biso   1.000  Zn
  Zn10     1.0000 0.33549  0.33549  0.66451  Biso   1.000  Zn
  Zn11     1.0000 0.23888  0.76112  0.23888  Biso   1.000  Zn
  Zn12     1.0000 0.33549  0.66451  0.33549  Biso   1.000  Zn
  Zn13     1.0000 0.76112  0.23888  0.23888  Biso   1.000  Zn
  Zn14     1.0000 0.66451  0.33549  0.33549  Biso   1.000  Zn
  Zn15     1.0000 0.76112  0.76112  0.23888  Biso   1.000  Zn
  Zn16     1.0000 0.66451  0.66451  0.33549  Biso   1.000  Zn
  Zn17     1.0000 0.23888  0.23888  0.23888  Biso   1.000  Zn
  Zn18     1.0000 0.33549  0.33549  0.33549  Biso   1.000  Zn
  Zn19     1.0000 0.76112  0.23888  0.76112  Biso   1.000  Zn
  Zn20     1.0000 0.66451  0.33549  0.66451  Biso   1.000  Zn
  Zn21     1.0000 0.23888  0.76112  0.76112  Biso   1.000  Zn
  Zn22     1.0000 0.33549  0.66451  0.66451  Biso   1.000  Zn
  H1       1.0000 0.85190  0.59780  0.85190  Biso   1.000  H
  H2       1.0000 0.14810  0.40220  0.85190  Biso   1.000  H
  H3       1.0000 0.14810  0.59780  0.14810  Biso   1.000  H
  H4       1.0000 0.85190  0.40220  0.14810  Biso   1.000  H
  H5       1.0000 0.85190  0.85190  0.59780  Biso   1.000  H
  H6       1.0000 0.85190  0.14810  0.40220  Biso   1.000  H
  H7       1.0000 0.14810  0.14810  0.59780  Biso   1.000  H
  H8       1.0000 0.14810  0.85190  0.40220  Biso   1.000  H
  H9       1.0000 0.59780  0.85190  0.85190  Biso   1.000  H
  H10      1.0000 0.40220  0.85190  0.14810  Biso   1.000  H
  H11      1.0000 0.59780  0.14810  0.14810  Biso   1.000  H
  H12      1.0000 0.40220  0.14810  0.85190  Biso   1.000  H
  H13      1.0000 0.59780  0.85190  0.14810  Biso   1.000  H
  H14      1.0000 0.40220  0.14810  0.14810  Biso   1.000  H
  H15      1.0000 0.59780  0.14810  0.85190  Biso   1.000  H
  H16      1.0000 0.40220  0.85190  0.85190  Biso   1.000  H
  H17      1.0000 0.85190  0.85190  0.40220  Biso   1.000  H
  H18      1.0000 0.14810  0.85190  0.59780  Biso   1.000  H
  H19      1.0000 0.14810  0.14810  0.40220  Biso   1.000  H
  H20      1.0000 0.85190  0.14810  0.59780  Biso   1.000  H
  H21      1.0000 0.85190  0.59780  0.14810  Biso   1.000  H
  H22      1.0000 0.85190  0.40220  0.85190  Biso   1.000  H
  H23      1.0000 0.14810  0.59780  0.85190  Biso   1.000  H
  H24      1.0000 0.14810  0.40220  0.14810  Biso   1.000  H
  H25      1.0000 0.73420  0.50000  0.73420  Biso   1.000  H
  H26      1.0000 0.26580  0.50000  0.73420  Biso   1.000  H
  H27      1.0000 0.26580  0.50000  0.26580  Biso   1.000  H
  H28      1.0000 0.73420  0.50000  0.26580  Biso   1.000  H
  H29      1.0000 0.73420  0.73420  0.50000  Biso   1.000  H
  H30      1.0000 0.73420  0.26580  0.50000  Biso   1.000  H
  H31      1.0000 0.26580  0.26580  0.50000  Biso   1.000  H
  H32      1.0000 0.26580  0.73420  0.50000  Biso   1.000  H
  H33      1.0000 0.50000  0.73420  0.73420  Biso   1.000  H
  H34      1.0000 0.50000  0.73420  0.26580  Biso   1.000  H
  H35      1.0000 0.50000  0.26580  0.26580  Biso   1.000  H
  H36      1.0000 0.50000  0.26580  0.73420  Biso   1.000  H
  C1       1.0000 0.83620  0.55850  0.83620  Biso   1.000  C
  C2       1.0000 0.78970  0.55730  0.78970  Biso   1.000  C
  C3       1.0000 0.76060  0.61990  0.76060  Biso   1.000  C
  C4       1.0000 0.16380  0.44150  0.83620  Biso   1.000  C
  C5       1.0000 0.21030  0.44270  0.78970  Biso   1.000  C
  C6       1.0000 0.23940  0.38010  0.76060  Biso   1.000  C
  C7       1.0000 0.16380  0.55850  0.16380  Biso   1.000  C
  C8       1.0000 0.21030  0.55730  0.21030  Biso   1.000  C
  C9       1.0000 0.23940  0.61990  0.23940  Biso   1.000  C
  C10      1.0000 0.83620  0.44150  0.16380  Biso   1.000  C
  C11      1.0000 0.78970  0.44270  0.21030  Biso   1.000  C
  C12      1.0000 0.76060  0.38010  0.23940  Biso   1.000  C
  C13      1.0000 0.83620  0.83620  0.55850  Biso   1.000  C
  C14      1.0000 0.78970  0.78970  0.55730  Biso   1.000  C
  C15      1.0000 0.76060  0.76060  0.61990  Biso   1.000  C
  C16      1.0000 0.83620  0.16380  0.44150  Biso   1.000  C
  C17      1.0000 0.78970  0.21030  0.44270  Biso   1.000  C
  C18      1.0000 0.76060  0.23940  0.38010  Biso   1.000  C
  C19      1.0000 0.16380  0.16380  0.55850  Biso   1.000  C
  C20      1.0000 0.21030  0.21030  0.55730  Biso   1.000  C
  C21      1.0000 0.23940  0.23940  0.61990  Biso   1.000  C
  C22      1.0000 0.16380  0.83620  0.44150  Biso   1.000  C
  C23      1.0000 0.21030  0.78970  0.44270  Biso   1.000  C
  C24      1.0000 0.23940  0.76060  0.38010  Biso   1.000  C
  C25      1.0000 0.55850  0.83620  0.83620  Biso   1.000  C
  C26      1.0000 0.55730  0.78970  0.78970  Biso   1.000  C
  C27      1.0000 0.61990  0.76060  0.76060  Biso   1.000  C
  C28      1.0000 0.44150  0.83620  0.16380  Biso   1.000  C
  C29      1.0000 0.44270  0.78970  0.21030  Biso   1.000  C
  C30      1.0000 0.38010  0.76060  0.23940  Biso   1.000  C
  C31      1.0000 0.55850  0.16380  0.16380  Biso   1.000  C
  C32      1.0000 0.55730  0.21030  0.21030  Biso   1.000  C
  C33      1.0000 0.61990  0.23940  0.23940  Biso   1.000  C
  C34      1.0000 0.44150  0.16380  0.83620  Biso   1.000  C
  C35      1.0000 0.44270  0.21030  0.78970  Biso   1.000  C
  C36      1.0000 0.38010  0.23940  0.76060  Biso   1.000  C
  C37      1.0000 0.55850  0.83620  0.16380  Biso   1.000  C
  C38      1.0000 0.55730  0.78970  0.21030  Biso   1.000  C
  C39      1.0000 0.61990  0.76060  0.23940  Biso   1.000  C
  C40      1.0000 0.44150  0.16380  0.16380  Biso   1.000  C
  C41      1.0000 0.44270  0.21030  0.21030  Biso   1.000  C
  C42      1.0000 0.38010  0.23940  0.23940  Biso   1.000  C
  C43      1.0000 0.55850  0.16380  0.83620  Biso   1.000  C
  C44      1.0000 0.55730  0.21030  0.78970  Biso   1.000  C
  C45      1.0000 0.61990  0.23940  0.76060  Biso   1.000  C
  C46      1.0000 0.44150  0.83620  0.83620  Biso   1.000  C
  C47      1.0000 0.44270  0.78970  0.78970  Biso   1.000  C
  C48      1.0000 0.38010  0.76060  0.76060  Biso   1.000  C
  C49      1.0000 0.83620  0.83620  0.44150  Biso   1.000  C
  C50      1.0000 0.78970  0.78970  0.44270  Biso   1.000  C
  C51      1.0000 0.76060  0.76060  0.38010  Biso   1.000  C
  C52      1.0000 0.16380  0.83620  0.55850  Biso   1.000  C
  C53      1.0000 0.21030  0.78970  0.55730  Biso   1.000  C
  C54      1.0000 0.23940  0.76060  0.61990  Biso   1.000  C
  C55      1.0000 0.16380  0.16380  0.44150  Biso   1.000  C
  C56      1.0000 0.21030  0.21030  0.44270  Biso   1.000  C
  C57      1.0000 0.23940  0.23940  0.38010  Biso   1.000  C
  C58      1.0000 0.83620  0.16380  0.55850  Biso   1.000  C
  C59      1.0000 0.78970  0.21030  0.55730  Biso   1.000  C
  C60      1.0000 0.76060  0.23940  0.61990  Biso   1.000  C
  C61      1.0000 0.83620  0.55850  0.16380  Biso   1.000  C
  C62      1.0000 0.78970  0.55730  0.21030  Biso   1.000  C
  C63      1.0000 0.76060  0.61990  0.23940  Biso   1.000  C
  C64      1.0000 0.83620  0.44150  0.83620  Biso   1.000  C
  C65      1.0000 0.78970  0.44270  0.78970  Biso   1.000  C
  C66      1.0000 0.76060  0.38010  0.76060  Biso   1.000  C
  C67      1.0000 0.16380  0.55850  0.83620  Biso   1.000  C
  C68      1.0000 0.21030  0.55730  0.78970  Biso   1.000  C
  C69      1.0000 0.23940  0.61990  0.76060  Biso   1.000  C
  C70      1.0000 0.16380  0.44150  0.16380  Biso   1.000  C
  C71      1.0000 0.21030  0.44270  0.21030  Biso   1.000  C
  C72      1.0000 0.23940  0.38010  0.23940  Biso   1.000  C
  C73      1.0000 0.91060  0.50000  0.91060  Biso   1.000  C
  C74      1.0000 0.86000  0.50000  0.86000  Biso   1.000  C
  C75      1.0000 0.76610  0.50000  0.76610  Biso   1.000  C
  C76      1.0000 0.08940  0.50000  0.91060  Biso   1.000  C
  C77      1.0000 0.14000  0.50000  0.86000  Biso   1.000  C
  C78      1.0000 0.23390  0.50000  0.76610  Biso   1.000  C
  C79      1.0000 0.08940  0.50000  0.08940  Biso   1.000  C
  C80      1.0000 0.14000  0.50000  0.14000  Biso   1.000  C
  C81      1.0000 0.23390  0.50000  0.23390  Biso   1.000  C
  C82      1.0000 0.91060  0.50000  0.08940  Biso   1.000  C
  C83      1.0000 0.86000  0.50000  0.14000  Biso   1.000  C
  C84      1.0000 0.76610  0.50000  0.23390  Biso   1.000  C
  C85      1.0000 0.91060  0.91060  0.50000  Biso   1.000  C
  C86      1.0000 0.86000  0.86000  0.50000  Biso   1.000  C
  C87      1.0000 0.76610  0.76610  0.50000  Biso   1.000  C
  C88      1.0000 0.91060  0.08940  0.50000  Biso   1.000  C
  C89      1.0000 0.86000  0.14000  0.50000  Biso   1.000  C
  C90      1.0000 0.76610  0.23390  0.50000  Biso   1.000  C
  C91      1.0000 0.08940  0.08940  0.50000  Biso   1.000  C
  C92      1.0000 0.14000  0.14000  0.50000  Biso   1.000  C
  C93      1.0000 0.23390  0.23390  0.50000  Biso   1.000  C
  C94      1.0000 0.08940  0.91060  0.50000  Biso   1.000  C
  C95      1.0000 0.14000  0.86000  0.50000  Biso   1.000  C
  C96      1.0000 0.23390  0.76610  0.50000  Biso   1.000  C
  C97      1.0000 0.50000  0.91060  0.91060  Biso   1.000  C
  C98      1.0000 0.50000  0.86000  0.86000  Biso   1.000  C
  C99      1.0000 0.50000  0.76610  0.76610  Biso   1.000  C
  C100     1.0000 0.50000  0.91060  0.08940  Biso   1.000  C
  C101     1.0000 0.50000  0.86000  0.14000  Biso   1.000  C
  C102     1.0000 0.50000  0.76610  0.23390  Biso   1.000  C
  C103     1.0000 0.50000  0.08940  0.08940  Biso   1.000  C
  C104     1.0000 0.50000  0.14000  0.14000  Biso   1.000  C
  C105     1.0000 0.50000  0.23390  0.23390  Biso   1.000  C
  C106     1.0000 0.50000  0.08940  0.91060  Biso   1.000  C
  C107     1.0000 0.50000  0.14000  0.86000  Biso   1.000  C
  C108     1.0000 0.50000  0.23390  0.76610  Biso   1.000  C
  O1       1.0000 0.00000  0.66710  0.00000  Biso   1.000  O
  O2       1.0000 0.00000  0.33290  0.00000  Biso   1.000  O
  O3       1.0000 0.00000  0.00000  0.66710  Biso   1.000  O
  O4       1.0000 0.00000  0.00000  0.33290  Biso   1.000  O
  O5       1.0000 0.66710  0.00000  0.00000  Biso   1.000  O
  O6       1.0000 0.33290  0.00000  0.00000  Biso   1.000  O
  O7       1.0000 0.93110  0.55420  0.93110  Biso   1.000  O
  O8       1.0000 0.78430  0.67210  0.78430  Biso   1.000  O
  O9       1.0000 0.71680  0.61320  0.71680  Biso   1.000  O
  O10      1.0000 0.06890  0.44580  0.93110  Biso   1.000  O
  O11      1.0000 0.21570  0.32790  0.78430  Biso   1.000  O
  O12      1.0000 0.28320  0.38680  0.71680  Biso   1.000  O
  O13      1.0000 0.06890  0.55420  0.06890  Biso   1.000  O
  O14      1.0000 0.21570  0.67210  0.21570  Biso   1.000  O
  O15      1.0000 0.28320  0.61320  0.28320  Biso   1.000  O
  O16      1.0000 0.93110  0.44580  0.06890  Biso   1.000  O
  O17      1.0000 0.78430  0.32790  0.21570  Biso   1.000  O
  O18      1.0000 0.71680  0.38680  0.28320  Biso   1.000  O
  O19      1.0000 0.93110  0.93110  0.55420  Biso   1.000  O
  O20      1.0000 0.78430  0.78430  0.67210  Biso   1.000  O
  O21      1.0000 0.71680  0.71680  0.61320  Biso   1.000  O
  O22      1.0000 0.93110  0.06890  0.44580  Biso   1.000  O
  O23      1.0000 0.78430  0.21570  0.32790  Biso   1.000  O
  O24      1.0000 0.71680  0.28320  0.38680  Biso   1.000  O
  O25      1.0000 0.06890  0.06890  0.55420  Biso   1.000  O
  O26      1.0000 0.21570  0.21570  0.67210  Biso   1.000  O
  O27      1.0000 0.28320  0.28320  0.61320  Biso   1.000  O
  O28      1.0000 0.06890  0.93110  0.44580  Biso   1.000  O
  O29      1.0000 0.21570  0.78430  0.32790  Biso   1.000  O
  O30      1.0000 0.28320  0.71680  0.38680  Biso   1.000  O
  O31      1.0000 0.55420  0.93110  0.93110  Biso   1.000  O
  O32      1.0000 0.67210  0.78430  0.78430  Biso   1.000  O
  O33      1.0000 0.61320  0.71680  0.71680  Biso   1.000  O
  O34      1.0000 0.44580  0.93110  0.06890  Biso   1.000  O
  O35      1.0000 0.32790  0.78430  0.21570  Biso   1.000  O
  O36      1.0000 0.38680  0.71680  0.28320  Biso   1.000  O
  O37      1.0000 0.55420  0.06890  0.06890  Biso   1.000  O
  O38      1.0000 0.67210  0.21570  0.21570  Biso   1.000  O
  O39      1.0000 0.61320  0.28320  0.28320  Biso   1.000  O
  O40      1.0000 0.44580  0.06890  0.93110  Biso   1.000  O
  O41      1.0000 0.32790  0.21570  0.78430  Biso   1.000  O
  O42      1.0000 0.38680  0.28320  0.71680  Biso   1.000  O
  O43      1.0000 0.55420  0.93110  0.06890  Biso   1.000  O
  O44      1.0000 0.67210  0.78430  0.21570  Biso   1.000  O
  O45      1.0000 0.61320  0.71680  0.28320  Biso   1.000  O
  O46      1.0000 0.44580  0.06890  0.06890  Biso   1.000  O
  O47      1.0000 0.32790  0.21570  0.21570  Biso   1.000  O
  O48      1.0000 0.38680  0.28320  0.28320  Biso   1.000  O
  O49      1.0000 0.55420  0.06890  0.93110  Biso   1.000  O
  O50      1.0000 0.67210  0.21570  0.78430  Biso   1.000  O
  O51      1.0000 0.61320  0.28320  0.71680  Biso   1.000  O
  O52      1.0000 0.44580  0.93110  0.93110  Biso   1.000  O
  O53      1.0000 0.32790  0.78430  0.78430  Biso   1.000  O
  O54      1.0000 0.38680  0.71680  0.71680  Biso   1.000  O
  O55      1.0000 0.93110  0.93110  0.44580  Biso   1.000  O
  O56      1.0000 0.78430  0.78430  0.32790  Biso   1.000  O
  O57      1.0000 0.71680  0.71680  0.38680  Biso   1.000  O
  O58      1.0000 0.06890  0.93110  0.55420  Biso   1.000  O
  O59      1.0000 0.21570  0.78430  0.67210  Biso   1.000  O
  O60      1.0000 0.28320  0.71680  0.61320  Biso   1.000  O
  O61      1.0000 0.06890  0.06890  0.44580  Biso   1.000  O
  O62      1.0000 0.21570  0.21570  0.32790  Biso   1.000  O
  O63      1.0000 0.28320  0.28320  0.38680  Biso   1.000  O
  O64      1.0000 0.93110  0.06890  0.55420  Biso   1.000  O
  O65      1.0000 0.78430  0.21570  0.67210  Biso   1.000  O
  O66      1.0000 0.71680  0.28320  0.61320  Biso   1.000  O
  O67      1.0000 0.93110  0.55420  0.06890  Biso   1.000  O
  O68      1.0000 0.78430  0.67210  0.21570  Biso   1.000  O
  O69      1.0000 0.71680  0.61320  0.28320  Biso   1.000  O
  O70      1.0000 0.93110  0.44580  0.93110  Biso   1.000  O
  O71      1.0000 0.78430  0.32790  0.78430  Biso   1.000  O
  O72      1.0000 0.71680  0.38680  0.71680  Biso   1.000  O
  O73      1.0000 0.06890  0.55420  0.93110  Biso   1.000  O
  O74      1.0000 0.21570  0.67210  0.78430  Biso   1.000  O
  O75      1.0000 0.28320  0.61320  0.71680  Biso   1.000  O
  O76      1.0000 0.06890  0.44580  0.06890  Biso   1.000  O
  O77      1.0000 0.21570  0.32790  0.21570  Biso   1.000  O
  O78      1.0000 0.28320  0.38680  0.28320  Biso   1.000  O
