data_VEHKIE_clean
_audit_creation_date              2015-05-20
_audit_creation_method            'Materials Studio'
_symmetry_space_group_name_H-M    'P1'
_symmetry_Int_Tables_number       1
_symmetry_cell_setting            triclinic
loop_
_symmetry_equiv_pos_as_xyz
  x,y,z
_cell_length_a                    20.3179
_cell_length_b                    20.3179
_cell_length_c                    20.3179
_cell_angle_alpha                 109.4712
_cell_angle_beta                  109.4712
_cell_angle_gamma                 109.4712
loop_
_atom_site_label
_atom_site_type_symbol
_atom_site_fract_x
_atom_site_fract_y
_atom_site_fract_z
_atom_site_U_iso_or_equiv
_atom_site_adp_type
_atom_site_occupancy
Zn1    Zn    0.52079   0.05620   0.94613   0.01267  Uiso   1.00
H2     H     0.78980   0.27580   0.24540   0.01267  Uiso   1.00
H3     H     0.74740   0.25830   0.03230   0.01267  Uiso   1.00
H4     H     0.93510   0.45890   0.23760   0.01267  Uiso   1.00
C5     C     0.80402   0.29839   0.21583   0.01267  Uiso   1.00
C6     C     0.75741   0.25489   0.13194   0.01267  Uiso   1.00
C7     C     0.77809   0.28754   0.08829   0.01267  Uiso   1.00
C8     C     0.84471   0.36434   0.12635   0.01267  Uiso   1.00
C9     C     0.89078   0.40750   0.21124   0.01267  Uiso   1.00
C10    C     0.87065   0.37403   0.25602   0.01267  Uiso   1.00
C11    C     0.68127   0.17488   0.09151   0.01267  Uiso   1.00
C12    C     0.92014   0.42114   0.34508   0.01267  Uiso   1.00
C13    C     0.86460   0.40120   0.07740   0.01267  Uiso   1.00
O14    O     0.63616   0.14366   0.01804   0.01267  Uiso   1.00
O15    O     0.67116   0.14507   0.13509   0.01267  Uiso   1.00
O16    O     0.97936   0.48877   0.37721   0.01267  Uiso   1.00
O17    O     0.89602   0.38737   0.38107   0.01267  Uiso   1.00
O18    O     0.92421   0.47168   0.11759   0.01267  Uiso   1.00
O19    O     0.82646   0.36352   0.00504   0.01267  Uiso   1.00
Zn20   Zn    0.11007   0.57466   0.05387   0.01267  Uiso   1.00
H21    H     0.03040   0.54440   0.75460   0.01267  Uiso   1.00
H22    H     0.22600   0.71510   0.96770   0.01267  Uiso   1.00
H23    H     0.22130   0.69750   0.76240   0.01267  Uiso   1.00
C24    C     0.08256   0.58819   0.78417   0.01267  Uiso   1.00
C25    C     0.12295   0.62547   0.86806   0.01267  Uiso   1.00
C26    C     0.19925   0.68980   0.91171   0.01267  Uiso   1.00
C27    C     0.23799   0.71836   0.87365   0.01267  Uiso   1.00
C28    C     0.19626   0.67954   0.78876   0.01267  Uiso   1.00
C29    C     0.11801   0.61463   0.74398   0.01267  Uiso   1.00
C30    C     0.08337   0.58976   0.90849   0.01267  Uiso   1.00
C31    C     0.07606   0.57506   0.65492   0.01267  Uiso   1.00
C32    C     0.32380   0.78720   0.92260   0.01267  Uiso   1.00
O33    O     0.12562   0.61812   0.98196   0.01267  Uiso   1.00
O34    O     0.00998   0.53607   0.86491   0.01267  Uiso   1.00
O35    O     0.11156   0.60215   0.62279   0.01267  Uiso   1.00
O36    O     0.00630   0.51495   0.61893   0.01267  Uiso   1.00
O37    O     0.35409   0.80662   0.88241   0.01267  Uiso   1.00
O38    O     0.35848   0.82142   0.99496   0.01267  Uiso   1.00
Zn39   Zn    0.88993   0.94380   0.46459   0.01267  Uiso   1.00
H40    H     0.96960   0.72420   0.51400   0.01267  Uiso   1.00
H41    H     0.77400   0.74170   0.48910   0.01267  Uiso   1.00
H42    H     0.77870   0.54110   0.47620   0.01267  Uiso   1.00
C43    C     0.91744   0.70161   0.50563   0.01267  Uiso   1.00
C44    C     0.87705   0.74511   0.50252   0.01267  Uiso   1.00
C45    C     0.80075   0.71246   0.49055   0.01267  Uiso   1.00
C46    C     0.76201   0.63566   0.48037   0.01267  Uiso   1.00
C47    C     0.80374   0.59250   0.48328   0.01267  Uiso   1.00
C48    C     0.88199   0.62597   0.49662   0.01267  Uiso   1.00
C49    C     0.91663   0.82512   0.50639   0.01267  Uiso   1.00
C50    C     0.92394   0.57886   0.49900   0.01267  Uiso   1.00
C51    C     0.67620   0.59880   0.46340   0.01267  Uiso   1.00
O52    O     0.87438   0.85634   0.49250   0.01267  Uiso   1.00
O53    O     0.99002   0.85493   0.52609   0.01267  Uiso   1.00
O54    O     0.88844   0.51123   0.49059   0.01267  Uiso   1.00
O55    O     0.99370   0.61263   0.50865   0.01267  Uiso   1.00
O56    O     0.64591   0.52832   0.45253   0.01267  Uiso   1.00
O57    O     0.64152   0.63648   0.46294   0.01267  Uiso   1.00
Zn58   Zn    0.47921   0.42534   0.53541   0.01267  Uiso   1.00
H59    H     0.21020   0.45560   0.48600   0.01267  Uiso   1.00
H60    H     0.25260   0.28490   0.51090   0.01267  Uiso   1.00
H61    H     0.06490   0.30250   0.52380   0.01267  Uiso   1.00
C62    C     0.19598   0.41181   0.49437   0.01267  Uiso   1.00
C63    C     0.24259   0.37453   0.49748   0.01267  Uiso   1.00
C64    C     0.22191   0.31020   0.50945   0.01267  Uiso   1.00
C65    C     0.15529   0.28164   0.51963   0.01267  Uiso   1.00
C66    C     0.10922   0.32046   0.51672   0.01267  Uiso   1.00
C67    C     0.12935   0.38537   0.50338   0.01267  Uiso   1.00
C68    C     0.31873   0.41024   0.49361   0.01267  Uiso   1.00
C69    C     0.07986   0.42494   0.50100   0.01267  Uiso   1.00
C70    C     0.13540   0.21280   0.53660   0.01267  Uiso   1.00
O71    O     0.36384   0.38188   0.50750   0.01267  Uiso   1.00
O72    O     0.32884   0.46393   0.47391   0.01267  Uiso   1.00
O73    O     0.02064   0.39785   0.50941   0.01267  Uiso   1.00
O74    O     0.10398   0.48505   0.49135   0.01267  Uiso   1.00
O75    O     0.07579   0.19338   0.54747   0.01267  Uiso   1.00
O76    O     0.17354   0.17858   0.53706   0.01267  Uiso   1.00
Zn77   Zn    0.94613   0.52079   0.05620   0.01267  Uiso   1.00
H78    H     0.24540   0.78980   0.27580   0.01267  Uiso   1.00
H79    H     0.03230   0.74740   0.25830   0.01267  Uiso   1.00
H80    H     0.23760   0.93510   0.45890   0.01267  Uiso   1.00
C81    C     0.21583   0.80402   0.29839   0.01267  Uiso   1.00
C82    C     0.13194   0.75741   0.25489   0.01267  Uiso   1.00
C83    C     0.08829   0.77809   0.28754   0.01267  Uiso   1.00
C84    C     0.12635   0.84471   0.36434   0.01267  Uiso   1.00
C85    C     0.21124   0.89078   0.40750   0.01267  Uiso   1.00
C86    C     0.25602   0.87065   0.37403   0.01267  Uiso   1.00
C87    C     0.09151   0.68127   0.17488   0.01267  Uiso   1.00
C88    C     0.34508   0.92014   0.42114   0.01267  Uiso   1.00
C89    C     0.07740   0.86460   0.40120   0.01267  Uiso   1.00
O90    O     0.01804   0.63616   0.14366   0.01267  Uiso   1.00
O91    O     0.13509   0.67116   0.14507   0.01267  Uiso   1.00
O92    O     0.37721   0.97936   0.48877   0.01267  Uiso   1.00
O93    O     0.38107   0.89602   0.38737   0.01267  Uiso   1.00
O94    O     0.11759   0.92421   0.47168   0.01267  Uiso   1.00
O95    O     0.00504   0.82646   0.36352   0.01267  Uiso   1.00
Zn96   Zn    0.05387   0.11007   0.57466   0.01267  Uiso   1.00
H97    H     0.75460   0.03040   0.54440   0.01267  Uiso   1.00
H98    H     0.96770   0.22600   0.71510   0.01267  Uiso   1.00
H99    H     0.76240   0.22130   0.69750   0.01267  Uiso   1.00
C100   C     0.78417   0.08256   0.58819   0.01267  Uiso   1.00
C101   C     0.86806   0.12295   0.62547   0.01267  Uiso   1.00
C102   C     0.91171   0.19925   0.68980   0.01267  Uiso   1.00
C103   C     0.87365   0.23799   0.71836   0.01267  Uiso   1.00
C104   C     0.78876   0.19626   0.67954   0.01267  Uiso   1.00
C105   C     0.74398   0.11801   0.61463   0.01267  Uiso   1.00
C106   C     0.90849   0.08337   0.58976   0.01267  Uiso   1.00
C107   C     0.65492   0.07606   0.57506   0.01267  Uiso   1.00
C108   C     0.92260   0.32380   0.78720   0.01267  Uiso   1.00
O109   O     0.98196   0.12562   0.61812   0.01267  Uiso   1.00
O110   O     0.86491   0.00998   0.53607   0.01267  Uiso   1.00
O111   O     0.62279   0.11156   0.60215   0.01267  Uiso   1.00
O112   O     0.61893   0.00630   0.51495   0.01267  Uiso   1.00
O113   O     0.88241   0.35409   0.80662   0.01267  Uiso   1.00
O114   O     0.99496   0.35848   0.82142   0.01267  Uiso   1.00
Zn115  Zn    0.46459   0.88993   0.94380   0.01267  Uiso   1.00
H116   H     0.51400   0.96960   0.72420   0.01267  Uiso   1.00
H117   H     0.48910   0.77400   0.74170   0.01267  Uiso   1.00
H118   H     0.47620   0.77870   0.54110   0.01267  Uiso   1.00
C119   C     0.50563   0.91744   0.70161   0.01267  Uiso   1.00
C120   C     0.50252   0.87705   0.74511   0.01267  Uiso   1.00
C121   C     0.49055   0.80075   0.71246   0.01267  Uiso   1.00
C122   C     0.48037   0.76201   0.63566   0.01267  Uiso   1.00
C123   C     0.48328   0.80374   0.59250   0.01267  Uiso   1.00
C124   C     0.49662   0.88199   0.62597   0.01267  Uiso   1.00
C125   C     0.50639   0.91663   0.82512   0.01267  Uiso   1.00
C126   C     0.49900   0.92394   0.57886   0.01267  Uiso   1.00
C127   C     0.46340   0.67620   0.59880   0.01267  Uiso   1.00
O128   O     0.49250   0.87438   0.85634   0.01267  Uiso   1.00
O129   O     0.52609   0.99002   0.85493   0.01267  Uiso   1.00
O130   O     0.49059   0.88844   0.51123   0.01267  Uiso   1.00
O131   O     0.50865   0.99370   0.61263   0.01267  Uiso   1.00
O132   O     0.45253   0.64591   0.52832   0.01267  Uiso   1.00
O133   O     0.46294   0.64152   0.63648   0.01267  Uiso   1.00
Zn134  Zn    0.53541   0.47921   0.42534   0.01267  Uiso   1.00
H135   H     0.48600   0.21020   0.45560   0.01267  Uiso   1.00
H136   H     0.51090   0.25260   0.28490   0.01267  Uiso   1.00
H137   H     0.52380   0.06490   0.30250   0.01267  Uiso   1.00
C138   C     0.49437   0.19598   0.41181   0.01267  Uiso   1.00
C139   C     0.49748   0.24259   0.37453   0.01267  Uiso   1.00
C140   C     0.50945   0.22191   0.31020   0.01267  Uiso   1.00
C141   C     0.51963   0.15529   0.28164   0.01267  Uiso   1.00
C142   C     0.51672   0.10922   0.32046   0.01267  Uiso   1.00
C143   C     0.50338   0.12935   0.38537   0.01267  Uiso   1.00
C144   C     0.49361   0.31873   0.41024   0.01267  Uiso   1.00
C145   C     0.50100   0.07986   0.42494   0.01267  Uiso   1.00
C146   C     0.53660   0.13540   0.21280   0.01267  Uiso   1.00
O147   O     0.50750   0.36384   0.38188   0.01267  Uiso   1.00
O148   O     0.47391   0.32884   0.46393   0.01267  Uiso   1.00
O149   O     0.50941   0.02064   0.39785   0.01267  Uiso   1.00
O150   O     0.49135   0.10398   0.48505   0.01267  Uiso   1.00
O151   O     0.54747   0.07579   0.19338   0.01267  Uiso   1.00
O152   O     0.53706   0.17354   0.17858   0.01267  Uiso   1.00
Zn153  Zn    0.05620   0.94613   0.52079   0.01267  Uiso   1.00
H154   H     0.27580   0.24540   0.78980   0.01267  Uiso   1.00
H155   H     0.25830   0.03230   0.74740   0.01267  Uiso   1.00
H156   H     0.45890   0.23760   0.93510   0.01267  Uiso   1.00
C157   C     0.29839   0.21583   0.80402   0.01267  Uiso   1.00
C158   C     0.25489   0.13194   0.75741   0.01267  Uiso   1.00
C159   C     0.28754   0.08829   0.77809   0.01267  Uiso   1.00
C160   C     0.36434   0.12635   0.84471   0.01267  Uiso   1.00
C161   C     0.40750   0.21124   0.89078   0.01267  Uiso   1.00
C162   C     0.37403   0.25602   0.87065   0.01267  Uiso   1.00
C163   C     0.17488   0.09151   0.68127   0.01267  Uiso   1.00
C164   C     0.42114   0.34508   0.92014   0.01267  Uiso   1.00
C165   C     0.40120   0.07740   0.86460   0.01267  Uiso   1.00
O166   O     0.14366   0.01804   0.63616   0.01267  Uiso   1.00
O167   O     0.14507   0.13509   0.67116   0.01267  Uiso   1.00
O168   O     0.48877   0.37721   0.97936   0.01267  Uiso   1.00
O169   O     0.38737   0.38107   0.89602   0.01267  Uiso   1.00
O170   O     0.47168   0.11759   0.92421   0.01267  Uiso   1.00
O171   O     0.36352   0.00504   0.82646   0.01267  Uiso   1.00
Zn172  Zn    0.57466   0.05387   0.11007   0.01267  Uiso   1.00
H173   H     0.54440   0.75460   0.03040   0.01267  Uiso   1.00
H174   H     0.71510   0.96770   0.22600   0.01267  Uiso   1.00
H175   H     0.69750   0.76240   0.22130   0.01267  Uiso   1.00
C176   C     0.58819   0.78417   0.08256   0.01267  Uiso   1.00
C177   C     0.62547   0.86806   0.12295   0.01267  Uiso   1.00
C178   C     0.68980   0.91171   0.19925   0.01267  Uiso   1.00
C179   C     0.71836   0.87365   0.23799   0.01267  Uiso   1.00
C180   C     0.67954   0.78876   0.19626   0.01267  Uiso   1.00
C181   C     0.61463   0.74398   0.11801   0.01267  Uiso   1.00
C182   C     0.58976   0.90849   0.08337   0.01267  Uiso   1.00
C183   C     0.57506   0.65492   0.07606   0.01267  Uiso   1.00
C184   C     0.78720   0.92260   0.32380   0.01267  Uiso   1.00
O185   O     0.61812   0.98196   0.12562   0.01267  Uiso   1.00
O186   O     0.53607   0.86491   0.00998   0.01267  Uiso   1.00
O187   O     0.60215   0.62279   0.11156   0.01267  Uiso   1.00
O188   O     0.51495   0.61893   0.00630   0.01267  Uiso   1.00
O189   O     0.80662   0.88241   0.35409   0.01267  Uiso   1.00
O190   O     0.82142   0.99496   0.35848   0.01267  Uiso   1.00
Zn191  Zn    0.94380   0.46459   0.88993   0.01267  Uiso   1.00
H192   H     0.72420   0.51400   0.96960   0.01267  Uiso   1.00
H193   H     0.74170   0.48910   0.77400   0.01267  Uiso   1.00
H194   H     0.54110   0.47620   0.77870   0.01267  Uiso   1.00
C195   C     0.70161   0.50563   0.91744   0.01267  Uiso   1.00
C196   C     0.74511   0.50252   0.87705   0.01267  Uiso   1.00
C197   C     0.71246   0.49055   0.80075   0.01267  Uiso   1.00
C198   C     0.63566   0.48037   0.76201   0.01267  Uiso   1.00
C199   C     0.59250   0.48328   0.80374   0.01267  Uiso   1.00
C200   C     0.62597   0.49662   0.88199   0.01267  Uiso   1.00
C201   C     0.82512   0.50639   0.91663   0.01267  Uiso   1.00
C202   C     0.57886   0.49900   0.92394   0.01267  Uiso   1.00
C203   C     0.59880   0.46340   0.67620   0.01267  Uiso   1.00
O204   O     0.85634   0.49250   0.87438   0.01267  Uiso   1.00
O205   O     0.85493   0.52609   0.99002   0.01267  Uiso   1.00
O206   O     0.51123   0.49059   0.88844   0.01267  Uiso   1.00
O207   O     0.61263   0.50865   0.99370   0.01267  Uiso   1.00
O208   O     0.52832   0.45253   0.64591   0.01267  Uiso   1.00
O209   O     0.63648   0.46294   0.64152   0.01267  Uiso   1.00
Zn210  Zn    0.42534   0.53541   0.47921   0.01267  Uiso   1.00
H211   H     0.45560   0.48600   0.21020   0.01267  Uiso   1.00
H212   H     0.28490   0.51090   0.25260   0.01267  Uiso   1.00
H213   H     0.30250   0.52380   0.06490   0.01267  Uiso   1.00
C214   C     0.41181   0.49437   0.19598   0.01267  Uiso   1.00
C215   C     0.37453   0.49748   0.24259   0.01267  Uiso   1.00
C216   C     0.31020   0.50945   0.22191   0.01267  Uiso   1.00
C217   C     0.28164   0.51963   0.15529   0.01267  Uiso   1.00
C218   C     0.32046   0.51672   0.10922   0.01267  Uiso   1.00
C219   C     0.38537   0.50338   0.12935   0.01267  Uiso   1.00
C220   C     0.41024   0.49361   0.31873   0.01267  Uiso   1.00
C221   C     0.42494   0.50100   0.07986   0.01267  Uiso   1.00
C222   C     0.21280   0.53660   0.13540   0.01267  Uiso   1.00
O223   O     0.38188   0.50750   0.36384   0.01267  Uiso   1.00
O224   O     0.46393   0.47391   0.32884   0.01267  Uiso   1.00
O225   O     0.39785   0.50941   0.02064   0.01267  Uiso   1.00
O226   O     0.48505   0.49135   0.10398   0.01267  Uiso   1.00
O227   O     0.19338   0.54747   0.07579   0.01267  Uiso   1.00
O228   O     0.17858   0.53706   0.17354   0.01267  Uiso   1.00
H229   H     0.44088   0.00000  -0.00000   0.01267  Uiso   1.00
O232   O     0.48908   0.00000   0.00000   0.01267  Uiso   1.00
H233   H    -0.00000   0.44088  -0.00000   0.01267  Uiso   1.00
O236   O    -0.00000   0.48908  -0.00000   0.01267  Uiso   1.00
H237   H    -0.00000   0.00000   0.44088   0.01267  Uiso   1.00
O240   O    -0.00000   0.00000   0.48908   0.01267  Uiso   1.00
H241   H     0.55912   0.55912   0.55912   0.01267  Uiso   1.00
O244   O     0.51092   0.51092   0.51092   0.01267  Uiso   1.00
Zn245  Zn    0.93658   0.43658   0.50000   0.01267  Uiso   1.00
Zn246  Zn    0.06342   0.56342   0.50000   0.01267  Uiso   1.00
Zn247  Zn    0.50000   0.93658   0.43658   0.01267  Uiso   1.00
Zn248  Zn    0.50000   0.06342   0.56342   0.01267  Uiso   1.00
Zn249  Zn    0.43658   0.50000   0.93658   0.01267  Uiso   1.00
Zn250  Zn    0.56342   0.50000   0.06342   0.01267  Uiso   1.00
