data_image0
_cell_length_a       4.7109
_cell_length_b       11.002
_cell_length_c       31.858
_cell_angle_alpha    90
_cell_angle_beta     90
_cell_angle_gamma    96.008

_symmetry_space_group_name_H-M    P 1
_symmetry_int_tables_number       1

loop_
  _symmetry_equiv_pos_as_xyz
  'x, y, z'

loop_
  _atom_site_label
  _atom_site_occupancy
  _atom_site_fract_x
  _atom_site_fract_y
  _atom_site_fract_z
  _atom_site_thermal_displace_type
  _atom_site_B_iso_or_equiv
  _atom_site_type_symbol
  Cu1      1.0000 0.50100  0.41100  0.80420  Biso   1.000  Cu
  Cu2      1.0000 0.49900  0.08900  0.30420  Biso   1.000  Cu
  Cu3      1.0000 0.49900  0.58900  0.19580  Biso   1.000  Cu
  Cu4      1.0000 0.50100  0.91100  0.69580  Biso   1.000  Cu
  H1       1.0000 0.63130  0.46100  0.70810  Biso   1.000  H
  H2       1.0000 0.44890  0.36410  0.64680  Biso   1.000  H
  H3       1.0000 0.73330  0.46060  0.01300  Biso   1.000  H
  H4       1.0000 0.45210  0.59090  0.87140  Biso   1.000  H
  H5       1.0000 0.61630  0.62380  0.94040  Biso   1.000  H
  H6       1.0000 0.78250  0.26440  0.86940  Biso   1.000  H
  H7       1.0000 0.94680  0.29730  0.93840  Biso   1.000  H
  H8       1.0000 0.36870  0.03900  0.20810  Biso   1.000  H
  H9       1.0000 0.55110  0.13590  0.14680  Biso   1.000  H
  H10      1.0000 0.26670  0.03940  0.51300  Biso   1.000  H
  H11      1.0000 0.54790  0.90910  0.37140  Biso   1.000  H
  H12      1.0000 0.38370  0.87620  0.44040  Biso   1.000  H
  H13      1.0000 0.21750  0.23560  0.36940  Biso   1.000  H
  H14      1.0000 0.05320  0.20270  0.43840  Biso   1.000  H
  H15      1.0000 0.36870  0.53900  0.29190  Biso   1.000  H
  H16      1.0000 0.55110  0.63590  0.35320  Biso   1.000  H
  H17      1.0000 0.26670  0.53940  0.98700  Biso   1.000  H
  H18      1.0000 0.54790  0.40910  0.12860  Biso   1.000  H
  H19      1.0000 0.38370  0.37620  0.05960  Biso   1.000  H
  H20      1.0000 0.21750  0.73560  0.13060  Biso   1.000  H
  H21      1.0000 0.05320  0.70270  0.06160  Biso   1.000  H
  H22      1.0000 0.63130  0.96100  0.79190  Biso   1.000  H
  H23      1.0000 0.44890  0.86410  0.85320  Biso   1.000  H
  H24      1.0000 0.73330  0.96060  0.48700  Biso   1.000  H
  H25      1.0000 0.45210  0.09090  0.62860  Biso   1.000  H
  H26      1.0000 0.61630  0.12380  0.55960  Biso   1.000  H
  H27      1.0000 0.78250  0.76440  0.63060  Biso   1.000  H
  H28      1.0000 0.94680  0.79730  0.56160  Biso   1.000  H
  C1       1.0000 0.88268  0.48055  0.99341  Biso   1.000  C
  C2       1.0000 0.21650  0.17700  0.79470  Biso   1.000  C
  C3       1.0000 0.26740  0.22940  0.74930  Biso   1.000  C
  C4       1.0000 0.50950  0.38670  0.70980  Biso   1.000  C
  C5       1.0000 0.39750  0.32860  0.67330  Biso   1.000  C
  C6       1.0000 0.15520  0.17530  0.71210  Biso   1.000  C
  C7       1.0000 0.96830  0.05720  0.70840  Biso   1.000  C
  C8       1.0000 0.74890  0.33720  0.88380  Biso   1.000  C
  C9       1.0000 0.55230  0.53150  0.88500  Biso   1.000  C
  C10      1.0000 0.65000  0.55100  0.92600  Biso   1.000  C
  C11      1.0000 0.84660  0.35680  0.92480  Biso   1.000  C
  C12      1.0000 0.79710  0.46370  0.94590  Biso   1.000  C
  C13      1.0000 0.11732  0.01945  0.49341  Biso   1.000  C
  C14      1.0000 0.78350  0.32300  0.29470  Biso   1.000  C
  C15      1.0000 0.73260  0.27060  0.24930  Biso   1.000  C
  C16      1.0000 0.49050  0.11330  0.20980  Biso   1.000  C
  C17      1.0000 0.60250  0.17140  0.17330  Biso   1.000  C
  C18      1.0000 0.84480  0.32470  0.21210  Biso   1.000  C
  C19      1.0000 0.03170  0.44280  0.20840  Biso   1.000  C
  C20      1.0000 0.25110  0.16280  0.38380  Biso   1.000  C
  C21      1.0000 0.44770  0.96850  0.38500  Biso   1.000  C
  C22      1.0000 0.35000  0.94900  0.42600  Biso   1.000  C
  C23      1.0000 0.15340  0.14320  0.42480  Biso   1.000  C
  C24      1.0000 0.20290  0.03630  0.44590  Biso   1.000  C
  C25      1.0000 0.11732  0.51945  0.00659  Biso   1.000  C
  C26      1.0000 0.78350  0.82300  0.20530  Biso   1.000  C
  C27      1.0000 0.73260  0.77060  0.25070  Biso   1.000  C
  C28      1.0000 0.49050  0.61330  0.29020  Biso   1.000  C
  C29      1.0000 0.60250  0.67140  0.32670  Biso   1.000  C
  C30      1.0000 0.84480  0.82470  0.28790  Biso   1.000  C
  C31      1.0000 0.03170  0.94280  0.29160  Biso   1.000  C
  C32      1.0000 0.25110  0.66280  0.11620  Biso   1.000  C
  C33      1.0000 0.44770  0.46850  0.11500  Biso   1.000  C
  C34      1.0000 0.35000  0.44900  0.07400  Biso   1.000  C
  C35      1.0000 0.15340  0.64320  0.07520  Biso   1.000  C
  C36      1.0000 0.20290  0.53630  0.05410  Biso   1.000  C
  C37      1.0000 0.88268  0.98055  0.50659  Biso   1.000  C
  C38      1.0000 0.21650  0.67700  0.70530  Biso   1.000  C
  C39      1.0000 0.26740  0.72940  0.75070  Biso   1.000  C
  C40      1.0000 0.50950  0.88670  0.79020  Biso   1.000  C
  C41      1.0000 0.39750  0.82860  0.82670  Biso   1.000  C
  C42      1.0000 0.15520  0.67530  0.78790  Biso   1.000  C
  C43      1.0000 0.96830  0.55720  0.79160  Biso   1.000  C
  C44      1.0000 0.74890  0.83720  0.61620  Biso   1.000  C
  C45      1.0000 0.55230  0.03150  0.61500  Biso   1.000  C
  C46      1.0000 0.65000  0.05100  0.57400  Biso   1.000  C
  C47      1.0000 0.84660  0.85680  0.57520  Biso   1.000  C
  C48      1.0000 0.79710  0.96370  0.55410  Biso   1.000  C
  N1       1.0000 0.43950  0.33400  0.74810  Biso   1.000  N
  N2       1.0000 0.22330  0.22640  0.67430  Biso   1.000  N
  N3       1.0000 0.60170  0.42460  0.86390  Biso   1.000  N
  N4       1.0000 0.56050  0.16600  0.24810  Biso   1.000  N
  N5       1.0000 0.77670  0.27360  0.17430  Biso   1.000  N
  N6       1.0000 0.39830  0.07540  0.36390  Biso   1.000  N
  N7       1.0000 0.56050  0.66600  0.25190  Biso   1.000  N
  N8       1.0000 0.77670  0.77360  0.32570  Biso   1.000  N
  N9       1.0000 0.39830  0.57540  0.13610  Biso   1.000  N
  N10      1.0000 0.43950  0.83400  0.75190  Biso   1.000  N
  N11      1.0000 0.22330  0.72640  0.82570  Biso   1.000  N
  N12      1.0000 0.60170  0.92460  0.63610  Biso   1.000  N
  O1       1.0000 0.31485  0.24416  0.82296  Biso   1.000  O
  O2       1.0000 0.01927  0.06993  0.80030  Biso   1.000  O
  O3       1.0000 0.70819  0.00789  0.71735  Biso   1.000  O
  O4       1.0000 0.10582  0.98899  0.69724  Biso   1.000  O
  O5       1.0000 0.68515  0.25584  0.32296  Biso   1.000  O
  O6       1.0000 0.98073  0.43007  0.30030  Biso   1.000  O
  O7       1.0000 0.29181  0.49211  0.21735  Biso   1.000  O
  O8       1.0000 0.89418  0.51101  0.19724  Biso   1.000  O
  O9       1.0000 0.68515  0.75584  0.17704  Biso   1.000  O
  O10      1.0000 0.98073  0.93007  0.19970  Biso   1.000  O
  O11      1.0000 0.29181  0.99211  0.28265  Biso   1.000  O
  O12      1.0000 0.89418  0.01101  0.30276  Biso   1.000  O
  O13      1.0000 0.31485  0.74416  0.67704  Biso   1.000  O
  O14      1.0000 0.01927  0.56993  0.69970  Biso   1.000  O
  O15      1.0000 0.70819  0.50789  0.78265  Biso   1.000  O
  O16      1.0000 0.10582  0.48899  0.80276  Biso   1.000  O
