data_image0
_cell_length_a       16.473
_cell_length_b       17.068
_cell_length_c       17.384
_cell_angle_alpha    77.35
_cell_angle_beta     62.91
_cell_angle_gamma    62.4

_symmetry_space_group_name_H-M    P 1
_symmetry_int_tables_number       1

loop_
  _symmetry_equiv_pos_as_xyz
  'x, y, z'

loop_
  _atom_site_label
  _atom_site_occupancy
  _atom_site_fract_x
  _atom_site_fract_y
  _atom_site_fract_z
  _atom_site_thermal_displace_type
  _atom_site_B_iso_or_equiv
  _atom_site_type_symbol
  Sm1      1.0000 0.95948  0.80676  0.04268  Biso   1.000  Sm
  Sm2      1.0000 0.01736  0.02417  0.67806  Biso   1.000  Sm
  Sm3      1.0000 0.68391  0.31549  0.55462  Biso   1.000  Sm
  Sm4      1.0000 0.22368  0.48160  0.80207  Biso   1.000  Sm
  Sm5      1.0000 0.04052  0.19324  0.95732  Biso   1.000  Sm
  Sm6      1.0000 0.98264  0.97583  0.32194  Biso   1.000  Sm
  Sm7      1.0000 0.31609  0.68451  0.44538  Biso   1.000  Sm
  Sm8      1.0000 0.77632  0.51840  0.19793  Biso   1.000  Sm
  H1       1.0000 0.05300  0.99130  0.50150  Biso   1.000  H
  H2       1.0000 0.01550  0.08080  0.50420  Biso   1.000  H
  H3       1.0000 0.10220  0.83560  0.87620  Biso   1.000  H
  H4       1.0000 0.07640  0.90210  0.92650  Biso   1.000  H
  H5       1.0000 0.59180  0.43030  0.70070  Biso   1.000  H
  H6       1.0000 0.67700  0.44100  0.65010  Biso   1.000  H
  H7       1.0000 0.12640  0.14080  0.59650  Biso   1.000  H
  H8       1.0000 0.07220  0.16100  0.55130  Biso   1.000  H
  H9       1.0000 0.02970  0.58660  0.93680  Biso   1.000  H
  H10      1.0000 0.99370  0.54570  0.90970  Biso   1.000  H
  H11      1.0000 0.87150  0.22410  0.56280  Biso   1.000  H
  H12      1.0000 0.90130  0.28730  0.51510  Biso   1.000  H
  H13      1.0000 0.41850  0.47860  0.71340  Biso   1.000  H
  H14      1.0000 0.40400  0.50950  0.78740  Biso   1.000  H
  H15      1.0000 0.55530  0.43160  0.45600  Biso   1.000  H
  H16      1.0000 0.59580  0.34220  0.44500  Biso   1.000  H
  H17      1.0000 0.14630  0.66050  0.82890  Biso   1.000  H
  H18      1.0000 0.13720  0.69810  0.75480  Biso   1.000  H
  H19      1.0000 0.10320  0.06070  0.76030  Biso   1.000  H
  H20      1.0000 0.19580  0.00630  0.70570  Biso   1.000  H
  H21      1.0000 0.07440  0.87020  0.60590  Biso   1.000  H
  H22      1.0000 0.99210  0.85810  0.66850  Biso   1.000  H
  H23      1.0000 0.78980  0.77530  0.04340  Biso   1.000  H
  H24      1.0000 0.86660  0.70910  0.05720  Biso   1.000  H
  H25      1.0000 0.86800  0.02700  0.03270  Biso   1.000  H
  H26      1.0000 0.91600  0.96900  0.08060  Biso   1.000  H
  H27      1.0000 0.23400  0.37040  0.90420  Biso   1.000  H
  H28      1.0000 0.30320  0.40590  0.86470  Biso   1.000  H
  H29      1.0000 0.78110  0.94160  0.16590  Biso   1.000  H
  H30      1.0000 0.72960  0.89520  0.17620  Biso   1.000  H
  H31      1.0000 0.04110  0.34700  0.70360  Biso   1.000  H
  H32      1.0000 0.23790  0.72110  0.16750  Biso   1.000  H
  H33      1.0000 0.64390  0.04080  0.49210  Biso   1.000  H
  H34      1.0000 0.35800  0.58590  0.09470  Biso   1.000  H
  H35      1.0000 0.32220  0.53790  0.00030  Biso   1.000  H
  H36      1.0000 0.38540  0.20640  0.66860  Biso   1.000  H
  H37      1.0000 0.47810  0.07370  0.59270  Biso   1.000  H
  H38      1.0000 0.15610  0.50320  0.51790  Biso   1.000  H
  H39      1.0000 0.57720  0.09190  0.94640  Biso   1.000  H
  H40      1.0000 0.61030  0.16140  0.80680  Biso   1.000  H
  H41      1.0000 0.72010  0.97990  0.97250  Biso   1.000  H
  H42      1.0000 0.06150  0.41500  0.57010  Biso   1.000  H
  H43      1.0000 0.94700  0.00870  0.49850  Biso   1.000  H
  H44      1.0000 0.98450  0.91920  0.49580  Biso   1.000  H
  H45      1.0000 0.89780  0.16440  0.12380  Biso   1.000  H
  H46      1.0000 0.92360  0.09790  0.07350  Biso   1.000  H
  H47      1.0000 0.40820  0.56970  0.29930  Biso   1.000  H
  H48      1.0000 0.32300  0.55900  0.34990  Biso   1.000  H
  H49      1.0000 0.87360  0.85920  0.40350  Biso   1.000  H
  H50      1.0000 0.92780  0.83900  0.44870  Biso   1.000  H
  H51      1.0000 0.97030  0.41340  0.06320  Biso   1.000  H
  H52      1.0000 0.00630  0.45430  0.09030  Biso   1.000  H
  H53      1.0000 0.12850  0.77590  0.43720  Biso   1.000  H
  H54      1.0000 0.09870  0.71270  0.48490  Biso   1.000  H
  H55      1.0000 0.58150  0.52140  0.28660  Biso   1.000  H
  H56      1.0000 0.59600  0.49050  0.21260  Biso   1.000  H
  H57      1.0000 0.44470  0.56840  0.54400  Biso   1.000  H
  H58      1.0000 0.40420  0.65780  0.55500  Biso   1.000  H
  H59      1.0000 0.85370  0.33950  0.17110  Biso   1.000  H
  H60      1.0000 0.86280  0.30190  0.24520  Biso   1.000  H
  H61      1.0000 0.89680  0.93930  0.23970  Biso   1.000  H
  H62      1.0000 0.80420  0.99370  0.29430  Biso   1.000  H
  H63      1.0000 0.92560  0.12980  0.39410  Biso   1.000  H
  H64      1.0000 0.00790  0.14190  0.33150  Biso   1.000  H
  H65      1.0000 0.21020  0.22470  0.95660  Biso   1.000  H
  H66      1.0000 0.13340  0.29090  0.94280  Biso   1.000  H
  H67      1.0000 0.13200  0.97300  0.96730  Biso   1.000  H
  H68      1.0000 0.08400  0.03100  0.91940  Biso   1.000  H
  H69      1.0000 0.76600  0.62960  0.09580  Biso   1.000  H
  H70      1.0000 0.69680  0.59410  0.13530  Biso   1.000  H
  H71      1.0000 0.21890  0.05840  0.83410  Biso   1.000  H
  H72      1.0000 0.27040  0.10480  0.82380  Biso   1.000  H
  H73      1.0000 0.95890  0.65300  0.29640  Biso   1.000  H
  H74      1.0000 0.76210  0.27890  0.83250  Biso   1.000  H
  H75      1.0000 0.35610  0.95920  0.50790  Biso   1.000  H
  H76      1.0000 0.64200  0.41410  0.90530  Biso   1.000  H
  H77      1.0000 0.67780  0.46210  0.99970  Biso   1.000  H
  H78      1.0000 0.61460  0.79360  0.33140  Biso   1.000  H
  H79      1.0000 0.52190  0.92630  0.40730  Biso   1.000  H
  H80      1.0000 0.84390  0.49680  0.48210  Biso   1.000  H
  H81      1.0000 0.42280  0.90810  0.05360  Biso   1.000  H
  H82      1.0000 0.38970  0.83860  0.19320  Biso   1.000  H
  H83      1.0000 0.27990  0.02010  0.02750  Biso   1.000  H
  H84      1.0000 0.93850  0.58500  0.42990  Biso   1.000  H
  C1       1.0000 0.78720  0.14690  0.67960  Biso   1.000  C
  C2       1.0000 0.64420  0.07740  0.90310  Biso   1.000  C
  C3       1.0000 0.66390  0.11970  0.82070  Biso   1.000  C
  C4       1.0000 0.72890  0.01230  0.91880  Biso   1.000  C
  C5       1.0000 0.76020  0.09940  0.76400  Biso   1.000  C
  C6       1.0000 0.82400  0.99650  0.85520  Biso   1.000  C
  C7       1.0000 0.75410  0.13520  0.45690  Biso   1.000  C
  C8       1.0000 0.15690  0.61770  0.96530  Biso   1.000  C
  C9       1.0000 0.11490  0.39790  0.73200  Biso   1.000  C
  C10      1.0000 0.17660  0.48730  0.62710  Biso   1.000  C
  C11      1.0000 0.24230  0.53670  0.60000  Biso   1.000  C
  C12      1.0000 0.10740  0.35430  0.81900  Biso   1.000  C
  C13      1.0000 0.18480  0.64200  0.02440  Biso   1.000  C
  C14      1.0000 0.14050  0.74240  0.11920  Biso   1.000  C
  C15      1.0000 0.08880  0.42320  0.60330  Biso   1.000  C
  C16      1.0000 0.05680  0.82820  0.16520  Biso   1.000  C
  C17      1.0000 0.22580  0.69910  0.13000  Biso   1.000  C
  C18      1.0000 0.07620  0.38430  0.68180  Biso   1.000  C
  C19      1.0000 0.60590  0.09230  0.52650  Biso   1.000  C
  C20      1.0000 0.50210  0.24260  0.62050  Biso   1.000  C
  C21      1.0000 0.29750  0.61950  0.08650  Biso   1.000  C
  C22      1.0000 0.27570  0.59110  0.03140  Biso   1.000  C
  C23      1.0000 0.45390  0.18890  0.63140  Biso   1.000  C
  C24      1.0000 0.50780  0.11260  0.58500  Biso   1.000  C
  C25      1.0000 0.14340  0.47670  0.57280  Biso   1.000  C
  C26      1.0000 0.45210  0.32600  0.66990  Biso   1.000  C
  C27      1.0000 0.64860  0.14990  0.51700  Biso   1.000  C
  C28      1.0000 0.91570  0.93140  0.86580  Biso   1.000  C
  C29      1.0000 0.21280  0.85310  0.32040  Biso   1.000  C
  C30      1.0000 0.35580  0.92260  0.09690  Biso   1.000  C
  C31      1.0000 0.33610  0.88030  0.17930  Biso   1.000  C
  C32      1.0000 0.27110  0.98770  0.08120  Biso   1.000  C
  C33      1.0000 0.23980  0.90060  0.23600  Biso   1.000  C
  C34      1.0000 0.17600  0.00350  0.14480  Biso   1.000  C
  C35      1.0000 0.24590  0.86480  0.54310  Biso   1.000  C
  C36      1.0000 0.84310  0.38230  0.03470  Biso   1.000  C
  C37      1.0000 0.88510  0.60210  0.26800  Biso   1.000  C
  C38      1.0000 0.82340  0.51270  0.37290  Biso   1.000  C
  C39      1.0000 0.75770  0.46330  0.40000  Biso   1.000  C
  C40      1.0000 0.89260  0.64570  0.18100  Biso   1.000  C
  C41      1.0000 0.81520  0.35800  0.97560  Biso   1.000  C
  C42      1.0000 0.85950  0.25760  0.88080  Biso   1.000  C
  C43      1.0000 0.91120  0.57680  0.39670  Biso   1.000  C
  C44      1.0000 0.94320  0.17180  0.83480  Biso   1.000  C
  C45      1.0000 0.77420  0.30090  0.87000  Biso   1.000  C
  C46      1.0000 0.92380  0.61570  0.31820  Biso   1.000  C
  C47      1.0000 0.39410  0.90770  0.47350  Biso   1.000  C
  C48      1.0000 0.49790  0.75740  0.37950  Biso   1.000  C
  C49      1.0000 0.70250  0.38050  0.91350  Biso   1.000  C
  C50      1.0000 0.72430  0.40890  0.96860  Biso   1.000  C
  C51      1.0000 0.54610  0.81110  0.36860  Biso   1.000  C
  C52      1.0000 0.49220  0.88740  0.41500  Biso   1.000  C
  C53      1.0000 0.85660  0.52330  0.42720  Biso   1.000  C
  C54      1.0000 0.54790  0.67400  0.33010  Biso   1.000  C
  C55      1.0000 0.35140  0.85010  0.48300  Biso   1.000  C
  C56      1.0000 0.08430  0.06860  0.13420  Biso   1.000  C
  N1       1.0000 0.84270  0.03780  0.77800  Biso   1.000  N
  N2       1.0000 0.59660  0.22240  0.56550  Biso   1.000  N
  N3       1.0000 0.12060  0.71720  0.06540  Biso   1.000  N
  N4       1.0000 0.16080  0.45070  0.70600  Biso   1.000  N
  N5       1.0000 0.15730  0.96220  0.22200  Biso   1.000  N
  N6       1.0000 0.40340  0.77760  0.43450  Biso   1.000  N
  N7       1.0000 0.87940  0.28280  0.93460  Biso   1.000  N
  N8       1.0000 0.83920  0.54930  0.29400  Biso   1.000  N
  O1       1.0000 0.36160  0.35200  0.72130  Biso   1.000  O
  O2       1.0000 0.71860  0.20300  0.65670  Biso   1.000  O
  O3       1.0000 0.88090  0.12850  0.63510  Biso   1.000  O
  O4       1.0000 0.90840  0.88170  0.92980  Biso   1.000  O
  O5       1.0000 0.07430  0.67270  0.96190  Biso   1.000  O
  O6       1.0000 0.50810  0.36420  0.65570  Biso   1.000  O
  O7       1.0000 0.07190  0.29900  0.84490  Biso   1.000  O
  O8       1.0000 0.14490  0.37550  0.85610  Biso   1.000  O
  O9       1.0000 0.06900  0.85850  0.21580  Biso   1.000  O
  O10      1.0000 0.80750  0.06850  0.40870  Biso   1.000  O
  O11      1.0000 0.21270  0.54940  0.92280  Biso   1.000  O
  O12      1.0000 0.00080  0.92960  0.80880  Biso   1.000  O
  O13      1.0000 0.27930  0.53220  0.64970  Biso   1.000  O
  O14      1.0000 0.25380  0.57820  0.52930  Biso   1.000  O
  O15      1.0000 0.27970  0.37780  0.90860  Biso   1.000  O
  O16      1.0000 0.98080  0.86280  0.14700  Biso   1.000  O
  O17      1.0000 0.04500  0.55520  0.89600  Biso   1.000  O
  O18      1.0000 0.85390  0.27110  0.53400  Biso   1.000  O
  O19      1.0000 0.37420  0.50590  0.75970  Biso   1.000  O
  O20      1.0000 0.60590  0.38330  0.45420  Biso   1.000  O
  O21      1.0000 0.15570  0.64840  0.77940  Biso   1.000  O
  O22      1.0000 0.13540  0.01240  0.73260  Biso   1.000  O
  O23      1.0000 0.05610  0.03300  0.51770  Biso   1.000  O
  O24      1.0000 0.01270  0.89670  0.63780  Biso   1.000  O
  O25      1.0000 0.85350  0.75320  0.02360  Biso   1.000  O
  O26      1.0000 0.09240  0.84710  0.92560  Biso   1.000  O
  O27      1.0000 0.65370  0.40210  0.66930  Biso   1.000  O
  O28      1.0000 0.06890  0.14900  0.60250  Biso   1.000  O
  O29      1.0000 0.78670  0.89630  0.14680  Biso   1.000  O
  O30      1.0000 0.91700  0.97620  0.02900  Biso   1.000  O
  O31      1.0000 0.78290  0.19120  0.45790  Biso   1.000  O
  O32      1.0000 0.63840  0.64800  0.27870  Biso   1.000  O
  O33      1.0000 0.28140  0.79700  0.34330  Biso   1.000  O
  O34      1.0000 0.11910  0.87150  0.36490  Biso   1.000  O
  O35      1.0000 0.09160  0.11830  0.07020  Biso   1.000  O
  O36      1.0000 0.92570  0.32730  0.03810  Biso   1.000  O
  O37      1.0000 0.49190  0.63580  0.34430  Biso   1.000  O
  O38      1.0000 0.92810  0.70100  0.15510  Biso   1.000  O
  O39      1.0000 0.85510  0.62450  0.14390  Biso   1.000  O
  O40      1.0000 0.93100  0.14150  0.78420  Biso   1.000  O
  O41      1.0000 0.19250  0.93150  0.59130  Biso   1.000  O
  O42      1.0000 0.78730  0.45060  0.07720  Biso   1.000  O
  O43      1.0000 0.99920  0.07040  0.19120  Biso   1.000  O
  O44      1.0000 0.72070  0.46780  0.35030  Biso   1.000  O
  O45      1.0000 0.74620  0.42180  0.47070  Biso   1.000  O
  O46      1.0000 0.72030  0.62220  0.09140  Biso   1.000  O
  O47      1.0000 0.01920  0.13720  0.85300  Biso   1.000  O
  O48      1.0000 0.95500  0.44480  0.10400  Biso   1.000  O
  O49      1.0000 0.14610  0.72890  0.46600  Biso   1.000  O
  O50      1.0000 0.62580  0.49410  0.24030  Biso   1.000  O
  O51      1.0000 0.39410  0.61670  0.54580  Biso   1.000  O
  O52      1.0000 0.84430  0.35160  0.22060  Biso   1.000  O
  O53      1.0000 0.86460  0.98760  0.26740  Biso   1.000  O
  O54      1.0000 0.94390  0.96700  0.48230  Biso   1.000  O
  O55      1.0000 0.98730  0.10330  0.36220  Biso   1.000  O
  O56      1.0000 0.14650  0.24680  0.97640  Biso   1.000  O
  O57      1.0000 0.90760  0.15290  0.07440  Biso   1.000  O
  O58      1.0000 0.34630  0.59790  0.33070  Biso   1.000  O
  O59      1.0000 0.93110  0.85100  0.39750  Biso   1.000  O
  O60      1.0000 0.21330  0.10370  0.85320  Biso   1.000  O
  O61      1.0000 0.08300  0.02380  0.97100  Biso   1.000  O
  O62      1.0000 0.21710  0.80880  0.54210  Biso   1.000  O
