data_image0
_cell_length_a       9.679
_cell_length_b       24.114
_cell_length_c       24.45
_cell_angle_alpha    90
_cell_angle_beta     90
_cell_angle_gamma    90

_symmetry_space_group_name_H-M    P 1
_symmetry_int_tables_number       1

loop_
  _symmetry_equiv_pos_as_xyz
  'x, y, z'

loop_
  _atom_site_label
  _atom_site_occupancy
  _atom_site_fract_x
  _atom_site_fract_y
  _atom_site_fract_z
  _atom_site_thermal_displace_type
  _atom_site_B_iso_or_equiv
  _atom_site_type_symbol
  Zn1      1.0000 0.01511  0.82535  0.49878  Biso   1.000  Zn
  Zn2      1.0000 0.00204  0.99821  0.67613  Biso   1.000  Zn
  Zn3      1.0000 0.48489  0.17465  0.99878  Biso   1.000  Zn
  Zn4      1.0000 0.49796  0.00179  0.17613  Biso   1.000  Zn
  Zn5      1.0000 0.98489  0.32535  0.00122  Biso   1.000  Zn
  Zn6      1.0000 0.99796  0.49821  0.82387  Biso   1.000  Zn
  Zn7      1.0000 0.51511  0.67465  0.50122  Biso   1.000  Zn
  Zn8      1.0000 0.50204  0.50179  0.32387  Biso   1.000  Zn
  Zn9      1.0000 0.98489  0.17465  0.50122  Biso   1.000  Zn
  Zn10     1.0000 0.99796  0.00179  0.32387  Biso   1.000  Zn
  Zn11     1.0000 0.51511  0.82535  0.00122  Biso   1.000  Zn
  Zn12     1.0000 0.50204  0.99821  0.82387  Biso   1.000  Zn
  Zn13     1.0000 0.01511  0.67465  0.99878  Biso   1.000  Zn
  Zn14     1.0000 0.00204  0.50179  0.17613  Biso   1.000  Zn
  Zn15     1.0000 0.48489  0.32535  0.49878  Biso   1.000  Zn
  Zn16     1.0000 0.49796  0.49821  0.67613  Biso   1.000  Zn
  H1       1.0000 0.97800  0.94550  0.55770  Biso   1.000  H
  H2       1.0000 0.30280  0.96520  0.72560  Biso   1.000  H
  H3       1.0000 0.97390  0.72560  0.58360  Biso   1.000  H
  H4       1.0000 0.00610  0.05170  0.79560  Biso   1.000  H
  H5       1.0000 0.71850  0.77380  0.46710  Biso   1.000  H
  H6       1.0000 0.20540  0.05140  0.85700  Biso   1.000  H
  H7       1.0000 0.07390  0.93890  0.43840  Biso   1.000  H
  H8       1.0000 0.77000  0.66480  0.58680  Biso   1.000  H
  H9       1.0000 0.13610  0.80830  0.61560  Biso   1.000  H
  H10      1.0000 0.80820  0.89410  0.32350  Biso   1.000  H
  H11      1.0000 0.13130  0.87690  0.69060  Biso   1.000  H
  H12      1.0000 0.81150  0.82120  0.39370  Biso   1.000  H
  H13      1.0000 0.52200  0.05450  0.05770  Biso   1.000  H
  H14      1.0000 0.19720  0.03480  0.22560  Biso   1.000  H
  H15      1.0000 0.52610  0.27440  0.08360  Biso   1.000  H
  H16      1.0000 0.49390  0.94830  0.29560  Biso   1.000  H
  H17      1.0000 0.78150  0.22620  0.96710  Biso   1.000  H
  H18      1.0000 0.29460  0.94860  0.35700  Biso   1.000  H
  H19      1.0000 0.42610  0.06110  0.93840  Biso   1.000  H
  H20      1.0000 0.73000  0.33520  0.08680  Biso   1.000  H
  H21      1.0000 0.36390  0.19170  0.11560  Biso   1.000  H
  H22      1.0000 0.69180  0.10590  0.82350  Biso   1.000  H
  H23      1.0000 0.36870  0.12310  0.19060  Biso   1.000  H
  H24      1.0000 0.68850  0.17880  0.89370  Biso   1.000  H
  H25      1.0000 0.02200  0.44550  0.94230  Biso   1.000  H
  H26      1.0000 0.69720  0.46520  0.77440  Biso   1.000  H
  H27      1.0000 0.02610  0.22560  0.91640  Biso   1.000  H
  H28      1.0000 0.99390  0.55170  0.70440  Biso   1.000  H
  H29      1.0000 0.28150  0.27380  0.03290  Biso   1.000  H
  H30      1.0000 0.79460  0.55140  0.64300  Biso   1.000  H
  H31      1.0000 0.92610  0.43890  0.06160  Biso   1.000  H
  H32      1.0000 0.23000  0.16480  0.91320  Biso   1.000  H
  H33      1.0000 0.86390  0.30830  0.88440  Biso   1.000  H
  H34      1.0000 0.19180  0.39410  0.17650  Biso   1.000  H
  H35      1.0000 0.86870  0.37690  0.80940  Biso   1.000  H
  H36      1.0000 0.18850  0.32120  0.10630  Biso   1.000  H
  H37      1.0000 0.47800  0.55450  0.44230  Biso   1.000  H
  H38      1.0000 0.80280  0.53480  0.27440  Biso   1.000  H
  H39      1.0000 0.47390  0.77440  0.41640  Biso   1.000  H
  H40      1.0000 0.50610  0.44830  0.20440  Biso   1.000  H
  H41      1.0000 0.21850  0.72620  0.53290  Biso   1.000  H
  H42      1.0000 0.70540  0.44860  0.14300  Biso   1.000  H
  H43      1.0000 0.57390  0.56110  0.56160  Biso   1.000  H
  H44      1.0000 0.27000  0.83520  0.41320  Biso   1.000  H
  H45      1.0000 0.63610  0.69170  0.38440  Biso   1.000  H
  H46      1.0000 0.30820  0.60590  0.67650  Biso   1.000  H
  H47      1.0000 0.63130  0.62310  0.30940  Biso   1.000  H
  H48      1.0000 0.31150  0.67880  0.60630  Biso   1.000  H
  H49      1.0000 0.02200  0.05450  0.44230  Biso   1.000  H
  H50      1.0000 0.69720  0.03480  0.27440  Biso   1.000  H
  H51      1.0000 0.02610  0.27440  0.41640  Biso   1.000  H
  H52      1.0000 0.99390  0.94830  0.20440  Biso   1.000  H
  H53      1.0000 0.28150  0.22620  0.53290  Biso   1.000  H
  H54      1.0000 0.79460  0.94860  0.14300  Biso   1.000  H
  H55      1.0000 0.92610  0.06110  0.56160  Biso   1.000  H
  H56      1.0000 0.23000  0.33520  0.41320  Biso   1.000  H
  H57      1.0000 0.86390  0.19170  0.38440  Biso   1.000  H
  H58      1.0000 0.19180  0.10590  0.67650  Biso   1.000  H
  H59      1.0000 0.86870  0.12310  0.30940  Biso   1.000  H
  H60      1.0000 0.18850  0.17880  0.60630  Biso   1.000  H
  H61      1.0000 0.47800  0.94550  0.94230  Biso   1.000  H
  H62      1.0000 0.80280  0.96520  0.77440  Biso   1.000  H
  H63      1.0000 0.47390  0.72560  0.91640  Biso   1.000  H
  H64      1.0000 0.50610  0.05170  0.70440  Biso   1.000  H
  H65      1.0000 0.21850  0.77380  0.03290  Biso   1.000  H
  H66      1.0000 0.70540  0.05140  0.64300  Biso   1.000  H
  H67      1.0000 0.57390  0.93890  0.06160  Biso   1.000  H
  H68      1.0000 0.27000  0.66480  0.91320  Biso   1.000  H
  H69      1.0000 0.63610  0.80830  0.88440  Biso   1.000  H
  H70      1.0000 0.30820  0.89410  0.17650  Biso   1.000  H
  H71      1.0000 0.63130  0.87690  0.80940  Biso   1.000  H
  H72      1.0000 0.31150  0.82120  0.10630  Biso   1.000  H
  H73      1.0000 0.97800  0.55450  0.05770  Biso   1.000  H
  H74      1.0000 0.30280  0.53480  0.22560  Biso   1.000  H
  H75      1.0000 0.97390  0.77440  0.08360  Biso   1.000  H
  H76      1.0000 0.00610  0.44830  0.29560  Biso   1.000  H
  H77      1.0000 0.71850  0.72620  0.96710  Biso   1.000  H
  H78      1.0000 0.20540  0.44860  0.35700  Biso   1.000  H
  H79      1.0000 0.07390  0.56110  0.93840  Biso   1.000  H
  H80      1.0000 0.77000  0.83520  0.08680  Biso   1.000  H
  H81      1.0000 0.13610  0.69170  0.11560  Biso   1.000  H
  H82      1.0000 0.80820  0.60590  0.82350  Biso   1.000  H
  H83      1.0000 0.13130  0.62310  0.19060  Biso   1.000  H
  H84      1.0000 0.81150  0.67880  0.89370  Biso   1.000  H
  H85      1.0000 0.52200  0.44550  0.55770  Biso   1.000  H
  H86      1.0000 0.19720  0.46520  0.72560  Biso   1.000  H
  H87      1.0000 0.52610  0.22560  0.58360  Biso   1.000  H
  H88      1.0000 0.49390  0.55170  0.79560  Biso   1.000  H
  H89      1.0000 0.78150  0.27380  0.46710  Biso   1.000  H
  H90      1.0000 0.29460  0.55140  0.85700  Biso   1.000  H
  H91      1.0000 0.42610  0.43890  0.43840  Biso   1.000  H
  H92      1.0000 0.73000  0.16480  0.58680  Biso   1.000  H
  H93      1.0000 0.36390  0.30830  0.61560  Biso   1.000  H
  H94      1.0000 0.69180  0.39410  0.32350  Biso   1.000  H
  H95      1.0000 0.36870  0.37690  0.69060  Biso   1.000  H
  H96      1.0000 0.68850  0.32120  0.39370  Biso   1.000  H
  C1       1.0000 0.01720  0.91900  0.58190  Biso   1.000  C
  C2       1.0000 0.25340  0.98760  0.75080  Biso   1.000  C
  C3       1.0000 0.89660  0.72780  0.55980  Biso   1.000  C
  C4       1.0000 0.09190  0.03400  0.78840  Biso   1.000  C
  C5       1.0000 0.75840  0.75370  0.49670  Biso   1.000  C
  C6       1.0000 0.20160  0.03410  0.82210  Biso   1.000  C
  C7       1.0000 0.00780  0.91820  0.41820  Biso   1.000  C
  C8       1.0000 0.78470  0.69430  0.56180  Biso   1.000  C
  C9       1.0000 0.10260  0.84520  0.61270  Biso   1.000  C
  C10      1.0000 0.86420  0.89420  0.35550  Biso   1.000  C
  C11      1.0000 0.09950  0.88280  0.65430  Biso   1.000  C
  C12      1.0000 0.86490  0.85430  0.39450  Biso   1.000  C
  C13      1.0000 0.48280  0.08100  0.08190  Biso   1.000  C
  C14      1.0000 0.24660  0.01240  0.25080  Biso   1.000  C
  C15      1.0000 0.60340  0.27220  0.05980  Biso   1.000  C
  C16      1.0000 0.40810  0.96600  0.28840  Biso   1.000  C
  C17      1.0000 0.74160  0.24630  0.99670  Biso   1.000  C
  C18      1.0000 0.29840  0.96590  0.32210  Biso   1.000  C
  C19      1.0000 0.49220  0.08180  0.91820  Biso   1.000  C
  C20      1.0000 0.71530  0.30570  0.06180  Biso   1.000  C
  C21      1.0000 0.39740  0.15480  0.11270  Biso   1.000  C
  C22      1.0000 0.63580  0.10580  0.85550  Biso   1.000  C
  C23      1.0000 0.40050  0.11720  0.15430  Biso   1.000  C
  C24      1.0000 0.63510  0.14570  0.89450  Biso   1.000  C
  C25      1.0000 0.98280  0.41900  0.91810  Biso   1.000  C
  C26      1.0000 0.74660  0.48760  0.74920  Biso   1.000  C
  C27      1.0000 0.10340  0.22780  0.94020  Biso   1.000  C
  C28      1.0000 0.90810  0.53400  0.71160  Biso   1.000  C
  C29      1.0000 0.24160  0.25370  0.00330  Biso   1.000  C
  C30      1.0000 0.79840  0.53410  0.67790  Biso   1.000  C
  C31      1.0000 0.99220  0.41820  0.08180  Biso   1.000  C
  C32      1.0000 0.21530  0.19430  0.93820  Biso   1.000  C
  C33      1.0000 0.89740  0.34520  0.88730  Biso   1.000  C
  C34      1.0000 0.13580  0.39420  0.14450  Biso   1.000  C
  C35      1.0000 0.90050  0.38280  0.84570  Biso   1.000  C
  C36      1.0000 0.13510  0.35430  0.10550  Biso   1.000  C
  C37      1.0000 0.51720  0.58100  0.41810  Biso   1.000  C
  C38      1.0000 0.75340  0.51240  0.24920  Biso   1.000  C
  C39      1.0000 0.39660  0.77220  0.44020  Biso   1.000  C
  C40      1.0000 0.59190  0.46600  0.21160  Biso   1.000  C
  C41      1.0000 0.25840  0.74630  0.50330  Biso   1.000  C
  C42      1.0000 0.70160  0.46590  0.17790  Biso   1.000  C
  C43      1.0000 0.50780  0.58180  0.58180  Biso   1.000  C
  C44      1.0000 0.28470  0.80570  0.43820  Biso   1.000  C
  C45      1.0000 0.60260  0.65480  0.38730  Biso   1.000  C
  C46      1.0000 0.36420  0.60580  0.64450  Biso   1.000  C
  C47      1.0000 0.59950  0.61720  0.34570  Biso   1.000  C
  C48      1.0000 0.36490  0.64570  0.60550  Biso   1.000  C
  C49      1.0000 0.98280  0.08100  0.41810  Biso   1.000  C
  C50      1.0000 0.74660  0.01240  0.24920  Biso   1.000  C
  C51      1.0000 0.10340  0.27220  0.44020  Biso   1.000  C
  C52      1.0000 0.90810  0.96600  0.21160  Biso   1.000  C
  C53      1.0000 0.24160  0.24630  0.50330  Biso   1.000  C
  C54      1.0000 0.79840  0.96590  0.17790  Biso   1.000  C
  C55      1.0000 0.99220  0.08180  0.58180  Biso   1.000  C
  C56      1.0000 0.21530  0.30570  0.43820  Biso   1.000  C
  C57      1.0000 0.89740  0.15480  0.38730  Biso   1.000  C
  C58      1.0000 0.13580  0.10580  0.64450  Biso   1.000  C
  C59      1.0000 0.90050  0.11720  0.34570  Biso   1.000  C
  C60      1.0000 0.13510  0.14570  0.60550  Biso   1.000  C
  C61      1.0000 0.51720  0.91900  0.91810  Biso   1.000  C
  C62      1.0000 0.75340  0.98760  0.74920  Biso   1.000  C
  C63      1.0000 0.39660  0.72780  0.94020  Biso   1.000  C
  C64      1.0000 0.59190  0.03400  0.71160  Biso   1.000  C
  C65      1.0000 0.25840  0.75370  0.00330  Biso   1.000  C
  C66      1.0000 0.70160  0.03410  0.67790  Biso   1.000  C
  C67      1.0000 0.50780  0.91820  0.08180  Biso   1.000  C
  C68      1.0000 0.28470  0.69430  0.93820  Biso   1.000  C
  C69      1.0000 0.60260  0.84520  0.88730  Biso   1.000  C
  C70      1.0000 0.36420  0.89420  0.14450  Biso   1.000  C
  C71      1.0000 0.59950  0.88280  0.84570  Biso   1.000  C
  C72      1.0000 0.36490  0.85430  0.10550  Biso   1.000  C
  C73      1.0000 0.01720  0.58100  0.08190  Biso   1.000  C
  C74      1.0000 0.25340  0.51240  0.25080  Biso   1.000  C
  C75      1.0000 0.89660  0.77220  0.05980  Biso   1.000  C
  C76      1.0000 0.09190  0.46600  0.28840  Biso   1.000  C
  C77      1.0000 0.75840  0.74630  0.99670  Biso   1.000  C
  C78      1.0000 0.20160  0.46590  0.32210  Biso   1.000  C
  C79      1.0000 0.00780  0.58180  0.91820  Biso   1.000  C
  C80      1.0000 0.78470  0.80570  0.06180  Biso   1.000  C
  C81      1.0000 0.10260  0.65480  0.11270  Biso   1.000  C
  C82      1.0000 0.86420  0.60580  0.85550  Biso   1.000  C
  C83      1.0000 0.09950  0.61720  0.15430  Biso   1.000  C
  C84      1.0000 0.86490  0.64570  0.89450  Biso   1.000  C
  C85      1.0000 0.48280  0.41900  0.58190  Biso   1.000  C
  C86      1.0000 0.24660  0.48760  0.75080  Biso   1.000  C
  C87      1.0000 0.60340  0.22780  0.55980  Biso   1.000  C
  C88      1.0000 0.40810  0.53400  0.78840  Biso   1.000  C
  C89      1.0000 0.74160  0.25370  0.49670  Biso   1.000  C
  C90      1.0000 0.29840  0.53410  0.82210  Biso   1.000  C
  C91      1.0000 0.49220  0.41820  0.41820  Biso   1.000  C
  C92      1.0000 0.71530  0.19430  0.56180  Biso   1.000  C
  C93      1.0000 0.39740  0.34520  0.61270  Biso   1.000  C
  C94      1.0000 0.63580  0.39420  0.35550  Biso   1.000  C
  C95      1.0000 0.40050  0.38280  0.65430  Biso   1.000  C
  C96      1.0000 0.63510  0.35430  0.39450  Biso   1.000  C
  N1       1.0000 0.88160  0.76540  0.51810  Biso   1.000  N
  N2       1.0000 0.69680  0.71060  0.52130  Biso   1.000  N
  N3       1.0000 0.12150  0.00510  0.74280  Biso   1.000  N
  N4       1.0000 0.30590  0.00550  0.79820  Biso   1.000  N
  N5       1.0000 0.05000  0.86870  0.56640  Biso   1.000  N
  N6       1.0000 0.04330  0.92980  0.63460  Biso   1.000  N
  N7       1.0000 0.95490  0.86910  0.43540  Biso   1.000  N
  N8       1.0000 0.95680  0.93490  0.36930  Biso   1.000  N
  N9       1.0000 0.61840  0.23460  0.01810  Biso   1.000  N
  N10      1.0000 0.80320  0.28940  0.02130  Biso   1.000  N
  N11      1.0000 0.37850  0.99490  0.24280  Biso   1.000  N
  N12      1.0000 0.19410  0.99450  0.29820  Biso   1.000  N
  N13      1.0000 0.45000  0.13130  0.06640  Biso   1.000  N
  N14      1.0000 0.45670  0.07020  0.13460  Biso   1.000  N
  N15      1.0000 0.54510  0.13090  0.93540  Biso   1.000  N
  N16      1.0000 0.54320  0.06510  0.86930  Biso   1.000  N
  N17      1.0000 0.11840  0.26540  0.98190  Biso   1.000  N
  N18      1.0000 0.30320  0.21060  0.97870  Biso   1.000  N
  N19      1.0000 0.87850  0.50510  0.75720  Biso   1.000  N
  N20      1.0000 0.69410  0.50550  0.70180  Biso   1.000  N
  N21      1.0000 0.95000  0.36870  0.93360  Biso   1.000  N
  N22      1.0000 0.95670  0.42980  0.86540  Biso   1.000  N
  N23      1.0000 0.04510  0.36910  0.06460  Biso   1.000  N
  N24      1.0000 0.04320  0.43490  0.13070  Biso   1.000  N
  N25      1.0000 0.38160  0.73460  0.48190  Biso   1.000  N
  N26      1.0000 0.19680  0.78940  0.47870  Biso   1.000  N
  N27      1.0000 0.62150  0.49490  0.25720  Biso   1.000  N
  N28      1.0000 0.80590  0.49450  0.20180  Biso   1.000  N
  N29      1.0000 0.55000  0.63130  0.43360  Biso   1.000  N
  N30      1.0000 0.54330  0.57020  0.36540  Biso   1.000  N
  N31      1.0000 0.45490  0.63090  0.56460  Biso   1.000  N
  N32      1.0000 0.45680  0.56510  0.63070  Biso   1.000  N
  N33      1.0000 0.11840  0.23460  0.48190  Biso   1.000  N
  N34      1.0000 0.30320  0.28940  0.47870  Biso   1.000  N
  N35      1.0000 0.87850  0.99490  0.25720  Biso   1.000  N
  N36      1.0000 0.69410  0.99450  0.20180  Biso   1.000  N
  N37      1.0000 0.95000  0.13130  0.43360  Biso   1.000  N
  N38      1.0000 0.95670  0.07020  0.36540  Biso   1.000  N
  N39      1.0000 0.04510  0.13090  0.56460  Biso   1.000  N
  N40      1.0000 0.04320  0.06510  0.63070  Biso   1.000  N
  N41      1.0000 0.38160  0.76540  0.98190  Biso   1.000  N
  N42      1.0000 0.19680  0.71060  0.97870  Biso   1.000  N
  N43      1.0000 0.62150  0.00510  0.75720  Biso   1.000  N
  N44      1.0000 0.80590  0.00550  0.70180  Biso   1.000  N
  N45      1.0000 0.55000  0.86870  0.93360  Biso   1.000  N
  N46      1.0000 0.54330  0.92980  0.86540  Biso   1.000  N
  N47      1.0000 0.45490  0.86910  0.06460  Biso   1.000  N
  N48      1.0000 0.45680  0.93490  0.13070  Biso   1.000  N
  N49      1.0000 0.88160  0.73460  0.01810  Biso   1.000  N
  N50      1.0000 0.69680  0.78940  0.02130  Biso   1.000  N
  N51      1.0000 0.12150  0.49490  0.24280  Biso   1.000  N
  N52      1.0000 0.30590  0.49450  0.29820  Biso   1.000  N
  N53      1.0000 0.05000  0.63130  0.06640  Biso   1.000  N
  N54      1.0000 0.04330  0.57020  0.13460  Biso   1.000  N
  N55      1.0000 0.95490  0.63090  0.93540  Biso   1.000  N
  N56      1.0000 0.95680  0.56510  0.86930  Biso   1.000  N
  N57      1.0000 0.61840  0.26540  0.51810  Biso   1.000  N
  N58      1.0000 0.80320  0.21060  0.52130  Biso   1.000  N
  N59      1.0000 0.37850  0.50510  0.74280  Biso   1.000  N
  N60      1.0000 0.19410  0.50550  0.79820  Biso   1.000  N
  N61      1.0000 0.45000  0.36870  0.56640  Biso   1.000  N
  N62      1.0000 0.45670  0.42980  0.63460  Biso   1.000  N
  N63      1.0000 0.54510  0.36910  0.43540  Biso   1.000  N
  N64      1.0000 0.54320  0.43490  0.36930  Biso   1.000  N
