data_image0
_cell_length_a       9.801
_cell_length_b       24.104
_cell_length_c       24.356
_cell_angle_alpha    90
_cell_angle_beta     90
_cell_angle_gamma    90

_symmetry_space_group_name_H-M    P 1
_symmetry_int_tables_number       1

loop_
  _symmetry_equiv_pos_as_xyz
  'x, y, z'

loop_
  _atom_site_label
  _atom_site_occupancy
  _atom_site_fract_x
  _atom_site_fract_y
  _atom_site_fract_z
  _atom_site_thermal_displace_type
  _atom_site_B_iso_or_equiv
  _atom_site_type_symbol
  Zn1      1.0000 0.02466  0.82422  0.49944  Biso   1.000  Zn
  Zn2      1.0000 0.00040  0.00059  0.32337  Biso   1.000  Zn
  Zn3      1.0000 0.47534  0.17578  0.99944  Biso   1.000  Zn
  Zn4      1.0000 0.49960  0.99941  0.82337  Biso   1.000  Zn
  Zn5      1.0000 0.97534  0.32422  0.00056  Biso   1.000  Zn
  Zn6      1.0000 0.99960  0.50059  0.17663  Biso   1.000  Zn
  Zn7      1.0000 0.52466  0.67578  0.50056  Biso   1.000  Zn
  Zn8      1.0000 0.50040  0.49941  0.67663  Biso   1.000  Zn
  Zn9      1.0000 0.97534  0.17578  0.50056  Biso   1.000  Zn
  Zn10     1.0000 0.99960  0.99941  0.67663  Biso   1.000  Zn
  Zn11     1.0000 0.52466  0.82422  0.00056  Biso   1.000  Zn
  Zn12     1.0000 0.50040  0.00059  0.17663  Biso   1.000  Zn
  Zn13     1.0000 0.02466  0.67578  0.99944  Biso   1.000  Zn
  Zn14     1.0000 0.00040  0.49941  0.82337  Biso   1.000  Zn
  Zn15     1.0000 0.47534  0.32422  0.49944  Biso   1.000  Zn
  Zn16     1.0000 0.49960  0.50059  0.32337  Biso   1.000  Zn
  H1       1.0000 0.73150  0.77630  0.53090  Biso   1.000  H
  H2       1.0000 0.78700  0.65670  0.42620  Biso   1.000  H
  H3       1.0000 0.98820  0.71560  0.42550  Biso   1.000  H
  H4       1.0000 0.97880  0.94560  0.44250  Biso   1.000  H
  H5       1.0000 0.06710  0.93960  0.55970  Biso   1.000  H
  H6       1.0000 0.84840  0.81440  0.60930  Biso   1.000  H
  H7       1.0000 0.84240  0.88500  0.67990  Biso   1.000  H
  H8       1.0000 0.30100  0.96900  0.27690  Biso   1.000  H
  H9       1.0000 0.01480  0.05550  0.20500  Biso   1.000  H
  H10      1.0000 0.21330  0.05280  0.14480  Biso   1.000  H
  H11      1.0000 0.11270  0.87820  0.30710  Biso   1.000  H
  H12      1.0000 0.12400  0.80980  0.38000  Biso   1.000  H
  H13      1.0000 0.76850  0.22370  0.03090  Biso   1.000  H
  H14      1.0000 0.71300  0.34330  0.92620  Biso   1.000  H
  H15      1.0000 0.51180  0.28440  0.92550  Biso   1.000  H
  H16      1.0000 0.52120  0.05440  0.94250  Biso   1.000  H
  H17      1.0000 0.43290  0.06040  0.05970  Biso   1.000  H
  H18      1.0000 0.65160  0.18560  0.10930  Biso   1.000  H
  H19      1.0000 0.65760  0.11500  0.17990  Biso   1.000  H
  H20      1.0000 0.19900  0.03100  0.77690  Biso   1.000  H
  H21      1.0000 0.48520  0.94450  0.70500  Biso   1.000  H
  H22      1.0000 0.28670  0.94720  0.64480  Biso   1.000  H
  H23      1.0000 0.38730  0.12180  0.80710  Biso   1.000  H
  H24      1.0000 0.37600  0.19020  0.88000  Biso   1.000  H
  H25      1.0000 0.26850  0.27630  0.96910  Biso   1.000  H
  H26      1.0000 0.21300  0.15670  0.07380  Biso   1.000  H
  H27      1.0000 0.01180  0.21560  0.07450  Biso   1.000  H
  H28      1.0000 0.02120  0.44560  0.05750  Biso   1.000  H
  H29      1.0000 0.93290  0.43960  0.94030  Biso   1.000  H
  H30      1.0000 0.15160  0.31440  0.89070  Biso   1.000  H
  H31      1.0000 0.15760  0.38500  0.82010  Biso   1.000  H
  H32      1.0000 0.69900  0.46900  0.22310  Biso   1.000  H
  H33      1.0000 0.98520  0.55550  0.29500  Biso   1.000  H
  H34      1.0000 0.78670  0.55280  0.35520  Biso   1.000  H
  H35      1.0000 0.88730  0.37820  0.19290  Biso   1.000  H
  H36      1.0000 0.87600  0.30980  0.12000  Biso   1.000  H
  H37      1.0000 0.23150  0.72370  0.46910  Biso   1.000  H
  H38      1.0000 0.28700  0.84330  0.57380  Biso   1.000  H
  H39      1.0000 0.48820  0.78440  0.57450  Biso   1.000  H
  H40      1.0000 0.47880  0.55440  0.55750  Biso   1.000  H
  H41      1.0000 0.56710  0.56040  0.44030  Biso   1.000  H
  H42      1.0000 0.34840  0.68560  0.39070  Biso   1.000  H
  H43      1.0000 0.34240  0.61500  0.32010  Biso   1.000  H
  H44      1.0000 0.80100  0.53100  0.72310  Biso   1.000  H
  H45      1.0000 0.51480  0.44450  0.79500  Biso   1.000  H
  H46      1.0000 0.71330  0.44720  0.85520  Biso   1.000  H
  H47      1.0000 0.61270  0.62180  0.69290  Biso   1.000  H
  H48      1.0000 0.62400  0.69020  0.62000  Biso   1.000  H
  H49      1.0000 0.26850  0.22370  0.46910  Biso   1.000  H
  H50      1.0000 0.21300  0.34330  0.57380  Biso   1.000  H
  H51      1.0000 0.01180  0.28440  0.57450  Biso   1.000  H
  H52      1.0000 0.02120  0.05440  0.55750  Biso   1.000  H
  H53      1.0000 0.93290  0.06040  0.44030  Biso   1.000  H
  H54      1.0000 0.15160  0.18560  0.39070  Biso   1.000  H
  H55      1.0000 0.15760  0.11500  0.32010  Biso   1.000  H
  H56      1.0000 0.69900  0.03100  0.72310  Biso   1.000  H
  H57      1.0000 0.98520  0.94450  0.79500  Biso   1.000  H
  H58      1.0000 0.78670  0.94720  0.85520  Biso   1.000  H
  H59      1.0000 0.88730  0.12180  0.69290  Biso   1.000  H
  H60      1.0000 0.87600  0.19020  0.62000  Biso   1.000  H
  H61      1.0000 0.23150  0.77630  0.96910  Biso   1.000  H
  H62      1.0000 0.28700  0.65670  0.07380  Biso   1.000  H
  H63      1.0000 0.48820  0.71560  0.07450  Biso   1.000  H
  H64      1.0000 0.47880  0.94560  0.05750  Biso   1.000  H
  H65      1.0000 0.56710  0.93960  0.94030  Biso   1.000  H
  H66      1.0000 0.34840  0.81440  0.89070  Biso   1.000  H
  H67      1.0000 0.34240  0.88500  0.82010  Biso   1.000  H
  H68      1.0000 0.80100  0.96900  0.22310  Biso   1.000  H
  H69      1.0000 0.51480  0.05550  0.29500  Biso   1.000  H
  H70      1.0000 0.71330  0.05280  0.35520  Biso   1.000  H
  H71      1.0000 0.61270  0.87820  0.19290  Biso   1.000  H
  H72      1.0000 0.62400  0.80980  0.12000  Biso   1.000  H
  H73      1.0000 0.73150  0.72370  0.03090  Biso   1.000  H
  H74      1.0000 0.78700  0.84330  0.92620  Biso   1.000  H
  H75      1.0000 0.98820  0.78440  0.92550  Biso   1.000  H
  H76      1.0000 0.97880  0.55440  0.94250  Biso   1.000  H
  H77      1.0000 0.06710  0.56040  0.05970  Biso   1.000  H
  H78      1.0000 0.84840  0.68560  0.10930  Biso   1.000  H
  H79      1.0000 0.84240  0.61500  0.17990  Biso   1.000  H
  H80      1.0000 0.30100  0.53100  0.77690  Biso   1.000  H
  H81      1.0000 0.01480  0.44450  0.70500  Biso   1.000  H
  H82      1.0000 0.21330  0.44720  0.64480  Biso   1.000  H
  H83      1.0000 0.11270  0.62180  0.80710  Biso   1.000  H
  H84      1.0000 0.12400  0.69020  0.88000  Biso   1.000  H
  H85      1.0000 0.76850  0.27630  0.53090  Biso   1.000  H
  H86      1.0000 0.71300  0.15670  0.42620  Biso   1.000  H
  H87      1.0000 0.51180  0.21560  0.42550  Biso   1.000  H
  H88      1.0000 0.52120  0.44560  0.44250  Biso   1.000  H
  H89      1.0000 0.43290  0.43960  0.55970  Biso   1.000  H
  H90      1.0000 0.65160  0.31440  0.60930  Biso   1.000  H
  H91      1.0000 0.65760  0.38500  0.67990  Biso   1.000  H
  H92      1.0000 0.19900  0.46900  0.27690  Biso   1.000  H
  H93      1.0000 0.48520  0.55550  0.20500  Biso   1.000  H
  H94      1.0000 0.28670  0.55280  0.14480  Biso   1.000  H
  H95      1.0000 0.38730  0.37820  0.30710  Biso   1.000  H
  H96      1.0000 0.37600  0.30980  0.38000  Biso   1.000  H
  C1       1.0000 0.77120  0.75330  0.50480  Biso   1.000  C
  C2       1.0000 0.79960  0.68810  0.44780  Biso   1.000  C
  C3       1.0000 0.91150  0.72070  0.44740  Biso   1.000  C
  C4       1.0000 0.01270  0.91990  0.41750  Biso   1.000  C
  C5       1.0000 0.01060  0.91730  0.58100  Biso   1.000  C
  C6       1.0000 0.89190  0.84870  0.60760  Biso   1.000  C
  C7       1.0000 0.88860  0.88780  0.64670  Biso   1.000  C
  C8       1.0000 0.25410  0.99070  0.25160  Biso   1.000  C
  C9       1.0000 0.09660  0.03750  0.21240  Biso   1.000  C
  C10      1.0000 0.20760  0.03650  0.17940  Biso   1.000  C
  C11      1.0000 0.08610  0.88380  0.34330  Biso   1.000  C
  C12      1.0000 0.09170  0.84590  0.38380  Biso   1.000  C
  C13      1.0000 0.72880  0.24670  0.00480  Biso   1.000  C
  C14      1.0000 0.70040  0.31190  0.94780  Biso   1.000  C
  C15      1.0000 0.58850  0.27930  0.94740  Biso   1.000  C
  C16      1.0000 0.48730  0.08010  0.91750  Biso   1.000  C
  C17      1.0000 0.48940  0.08270  0.08100  Biso   1.000  C
  C18      1.0000 0.60810  0.15130  0.10760  Biso   1.000  C
  C19      1.0000 0.61140  0.11220  0.14670  Biso   1.000  C
  C20      1.0000 0.24590  0.00930  0.75160  Biso   1.000  C
  C21      1.0000 0.40340  0.96250  0.71240  Biso   1.000  C
  C22      1.0000 0.29240  0.96350  0.67940  Biso   1.000  C
  C23      1.0000 0.41390  0.11620  0.84330  Biso   1.000  C
  C24      1.0000 0.40830  0.15410  0.88380  Biso   1.000  C
  C25      1.0000 0.22880  0.25330  0.99520  Biso   1.000  C
  C26      1.0000 0.20040  0.18810  0.05220  Biso   1.000  C
  C27      1.0000 0.08850  0.22070  0.05260  Biso   1.000  C
  C28      1.0000 0.98730  0.41990  0.08250  Biso   1.000  C
  C29      1.0000 0.98940  0.41730  0.91900  Biso   1.000  C
  C30      1.0000 0.10810  0.34870  0.89240  Biso   1.000  C
  C31      1.0000 0.11140  0.38780  0.85330  Biso   1.000  C
  C32      1.0000 0.74590  0.49070  0.24840  Biso   1.000  C
  C33      1.0000 0.90340  0.53750  0.28760  Biso   1.000  C
  C34      1.0000 0.79240  0.53650  0.32060  Biso   1.000  C
  C35      1.0000 0.91390  0.38380  0.15670  Biso   1.000  C
  C36      1.0000 0.90830  0.34590  0.11620  Biso   1.000  C
  C37      1.0000 0.27120  0.74670  0.49520  Biso   1.000  C
  C38      1.0000 0.29960  0.81190  0.55220  Biso   1.000  C
  C39      1.0000 0.41150  0.77930  0.55260  Biso   1.000  C
  C40      1.0000 0.51270  0.58010  0.58250  Biso   1.000  C
  C41      1.0000 0.51060  0.58270  0.41900  Biso   1.000  C
  C42      1.0000 0.39190  0.65130  0.39240  Biso   1.000  C
  C43      1.0000 0.38860  0.61220  0.35330  Biso   1.000  C
  C44      1.0000 0.75410  0.50930  0.74840  Biso   1.000  C
  C45      1.0000 0.59660  0.46250  0.78760  Biso   1.000  C
  C46      1.0000 0.70760  0.46350  0.82060  Biso   1.000  C
  C47      1.0000 0.58610  0.61620  0.65670  Biso   1.000  C
  C48      1.0000 0.59170  0.65410  0.61620  Biso   1.000  C
  C49      1.0000 0.22880  0.24670  0.49520  Biso   1.000  C
  C50      1.0000 0.20040  0.31190  0.55220  Biso   1.000  C
  C51      1.0000 0.08850  0.27930  0.55260  Biso   1.000  C
  C52      1.0000 0.98730  0.08010  0.58250  Biso   1.000  C
  C53      1.0000 0.98940  0.08270  0.41900  Biso   1.000  C
  C54      1.0000 0.10810  0.15130  0.39240  Biso   1.000  C
  C55      1.0000 0.11140  0.11220  0.35330  Biso   1.000  C
  C56      1.0000 0.74590  0.00930  0.74840  Biso   1.000  C
  C57      1.0000 0.90340  0.96250  0.78760  Biso   1.000  C
  C58      1.0000 0.79240  0.96350  0.82060  Biso   1.000  C
  C59      1.0000 0.91390  0.11620  0.65670  Biso   1.000  C
  C60      1.0000 0.90830  0.15410  0.61620  Biso   1.000  C
  C61      1.0000 0.27120  0.75330  0.99520  Biso   1.000  C
  C62      1.0000 0.29960  0.68810  0.05220  Biso   1.000  C
  C63      1.0000 0.41150  0.72070  0.05260  Biso   1.000  C
  C64      1.0000 0.51270  0.91990  0.08250  Biso   1.000  C
  C65      1.0000 0.51060  0.91730  0.91900  Biso   1.000  C
  C66      1.0000 0.39190  0.84870  0.89240  Biso   1.000  C
  C67      1.0000 0.38860  0.88780  0.85330  Biso   1.000  C
  C68      1.0000 0.75410  0.99070  0.24840  Biso   1.000  C
  C69      1.0000 0.59660  0.03750  0.28760  Biso   1.000  C
  C70      1.0000 0.70760  0.03650  0.32060  Biso   1.000  C
  C71      1.0000 0.58610  0.88380  0.15670  Biso   1.000  C
  C72      1.0000 0.59170  0.84590  0.11620  Biso   1.000  C
  C73      1.0000 0.77120  0.74670  0.00480  Biso   1.000  C
  C74      1.0000 0.79960  0.81190  0.94780  Biso   1.000  C
  C75      1.0000 0.91150  0.77930  0.94740  Biso   1.000  C
  C76      1.0000 0.01270  0.58010  0.91750  Biso   1.000  C
  C77      1.0000 0.01060  0.58270  0.08100  Biso   1.000  C
  C78      1.0000 0.89190  0.65130  0.10760  Biso   1.000  C
  C79      1.0000 0.88860  0.61220  0.14670  Biso   1.000  C
  C80      1.0000 0.25410  0.50930  0.75160  Biso   1.000  C
  C81      1.0000 0.09660  0.46250  0.71240  Biso   1.000  C
  C82      1.0000 0.20760  0.46350  0.67940  Biso   1.000  C
  C83      1.0000 0.08610  0.61620  0.84330  Biso   1.000  C
  C84      1.0000 0.09170  0.65410  0.88380  Biso   1.000  C
  C85      1.0000 0.72880  0.25330  0.50480  Biso   1.000  C
  C86      1.0000 0.70040  0.18810  0.44780  Biso   1.000  C
  C87      1.0000 0.58850  0.22070  0.44740  Biso   1.000  C
  C88      1.0000 0.48730  0.41990  0.41750  Biso   1.000  C
  C89      1.0000 0.48940  0.41730  0.58100  Biso   1.000  C
  C90      1.0000 0.60810  0.34870  0.60760  Biso   1.000  C
  C91      1.0000 0.61140  0.38780  0.64670  Biso   1.000  C
  C92      1.0000 0.24590  0.49070  0.25160  Biso   1.000  C
  C93      1.0000 0.40340  0.53750  0.21240  Biso   1.000  C
  C94      1.0000 0.29240  0.53650  0.17940  Biso   1.000  C
  C95      1.0000 0.41390  0.38380  0.34330  Biso   1.000  C
  C96      1.0000 0.40830  0.34590  0.38380  Biso   1.000  C
  N1       1.0000 0.89320  0.76190  0.48420  Biso   1.000  N
  N2       1.0000 0.70910  0.70810  0.48440  Biso   1.000  N
  N3       1.0000 0.04360  0.86820  0.43070  Biso   1.000  N
  N4       1.0000 0.03510  0.93160  0.36430  Biso   1.000  N
  N5       1.0000 0.96380  0.93250  0.63010  Biso   1.000  N
  N6       1.0000 0.96910  0.86730  0.56520  Biso   1.000  N
  N7       1.0000 0.12520  0.00720  0.25890  Biso   1.000  N
  N8       1.0000 0.30910  0.00820  0.20460  Biso   1.000  N
  N9       1.0000 0.60680  0.23810  0.98420  Biso   1.000  N
  N10      1.0000 0.79090  0.29190  0.98440  Biso   1.000  N
  N11      1.0000 0.45640  0.13180  0.93070  Biso   1.000  N
  N12      1.0000 0.46490  0.06840  0.86430  Biso   1.000  N
  N13      1.0000 0.53620  0.06750  0.13010  Biso   1.000  N
  N14      1.0000 0.53090  0.13270  0.06520  Biso   1.000  N
  N15      1.0000 0.37480  0.99280  0.75890  Biso   1.000  N
  N16      1.0000 0.19090  0.99180  0.70460  Biso   1.000  N
  N17      1.0000 0.10680  0.26190  0.01580  Biso   1.000  N
  N18      1.0000 0.29090  0.20810  0.01560  Biso   1.000  N
  N19      1.0000 0.95640  0.36820  0.06930  Biso   1.000  N
  N20      1.0000 0.96490  0.43160  0.13570  Biso   1.000  N
  N21      1.0000 0.03620  0.43250  0.86990  Biso   1.000  N
  N22      1.0000 0.03090  0.36730  0.93480  Biso   1.000  N
  N23      1.0000 0.87480  0.50720  0.24110  Biso   1.000  N
  N24      1.0000 0.69090  0.50820  0.29540  Biso   1.000  N
  N25      1.0000 0.39320  0.73810  0.51580  Biso   1.000  N
  N26      1.0000 0.20910  0.79190  0.51560  Biso   1.000  N
  N27      1.0000 0.54360  0.63180  0.56930  Biso   1.000  N
  N28      1.0000 0.53510  0.56840  0.63570  Biso   1.000  N
  N29      1.0000 0.46380  0.56750  0.36990  Biso   1.000  N
  N30      1.0000 0.46910  0.63270  0.43480  Biso   1.000  N
  N31      1.0000 0.62520  0.49280  0.74110  Biso   1.000  N
  N32      1.0000 0.80910  0.49180  0.79540  Biso   1.000  N
  N33      1.0000 0.10680  0.23810  0.51580  Biso   1.000  N
  N34      1.0000 0.29090  0.29190  0.51560  Biso   1.000  N
  N35      1.0000 0.95640  0.13180  0.56930  Biso   1.000  N
  N36      1.0000 0.96490  0.06840  0.63570  Biso   1.000  N
  N37      1.0000 0.03620  0.06750  0.36990  Biso   1.000  N
  N38      1.0000 0.03090  0.13270  0.43480  Biso   1.000  N
  N39      1.0000 0.87480  0.99280  0.74110  Biso   1.000  N
  N40      1.0000 0.69090  0.99180  0.79540  Biso   1.000  N
  N41      1.0000 0.39320  0.76190  0.01580  Biso   1.000  N
  N42      1.0000 0.20910  0.70810  0.01560  Biso   1.000  N
  N43      1.0000 0.54360  0.86820  0.06930  Biso   1.000  N
  N44      1.0000 0.53510  0.93160  0.13570  Biso   1.000  N
  N45      1.0000 0.46380  0.93250  0.86990  Biso   1.000  N
  N46      1.0000 0.46910  0.86730  0.93480  Biso   1.000  N
  N47      1.0000 0.62520  0.00720  0.24110  Biso   1.000  N
  N48      1.0000 0.80910  0.00820  0.29540  Biso   1.000  N
  N49      1.0000 0.89320  0.73810  0.98420  Biso   1.000  N
  N50      1.0000 0.70910  0.79190  0.98440  Biso   1.000  N
  N51      1.0000 0.04360  0.63180  0.93070  Biso   1.000  N
  N52      1.0000 0.03510  0.56840  0.86430  Biso   1.000  N
  N53      1.0000 0.96380  0.56750  0.13010  Biso   1.000  N
  N54      1.0000 0.96910  0.63270  0.06520  Biso   1.000  N
  N55      1.0000 0.12520  0.49280  0.75890  Biso   1.000  N
  N56      1.0000 0.30910  0.49180  0.70460  Biso   1.000  N
  N57      1.0000 0.60680  0.26190  0.48420  Biso   1.000  N
  N58      1.0000 0.79090  0.20810  0.48440  Biso   1.000  N
  N59      1.0000 0.45640  0.36820  0.43070  Biso   1.000  N
  N60      1.0000 0.46490  0.43160  0.36430  Biso   1.000  N
  N61      1.0000 0.53620  0.43250  0.63010  Biso   1.000  N
  N62      1.0000 0.53090  0.36730  0.56520  Biso   1.000  N
  N63      1.0000 0.37480  0.50720  0.25890  Biso   1.000  N
  N64      1.0000 0.19090  0.50820  0.20460  Biso   1.000  N
