data_image0
_cell_length_a       15.1069
_cell_length_b       15.3486
_cell_length_c       18.343
_cell_angle_alpha    90
_cell_angle_beta     90
_cell_angle_gamma    90

_symmetry_space_group_name_H-M    P 1
_symmetry_int_tables_number       1

loop_
  _symmetry_equiv_pos_as_xyz
  'x, y, z'

loop_
  _atom_site_label
  _atom_site_occupancy
  _atom_site_fract_x
  _atom_site_fract_y
  _atom_site_fract_z
  _atom_site_thermal_displace_type
  _atom_site_B_iso_or_equiv
  _atom_site_type_symbol
  Zn1      1.0000 0.86152  0.79435  0.59156  Biso   1.000  Zn
  Zn2      1.0000 0.66294  0.48732  0.68670  Biso   1.000  Zn
  Zn3      1.0000 0.13848  0.70565  0.09156  Biso   1.000  Zn
  Zn4      1.0000 0.33706  0.01268  0.18670  Biso   1.000  Zn
  Zn5      1.0000 0.36152  0.20565  0.90844  Biso   1.000  Zn
  Zn6      1.0000 0.16294  0.51268  0.81330  Biso   1.000  Zn
  Zn7      1.0000 0.63848  0.29435  0.40844  Biso   1.000  Zn
  Zn8      1.0000 0.83706  0.98732  0.31330  Biso   1.000  Zn
  Zn9      1.0000 0.13848  0.20565  0.40844  Biso   1.000  Zn
  Zn10     1.0000 0.33706  0.51268  0.31330  Biso   1.000  Zn
  Zn11     1.0000 0.86152  0.29435  0.90844  Biso   1.000  Zn
  Zn12     1.0000 0.66294  0.98732  0.81330  Biso   1.000  Zn
  Zn13     1.0000 0.63848  0.79435  0.09156  Biso   1.000  Zn
  Zn14     1.0000 0.83706  0.48732  0.18670  Biso   1.000  Zn
  Zn15     1.0000 0.36152  0.70565  0.59156  Biso   1.000  Zn
  Zn16     1.0000 0.16294  0.01268  0.68670  Biso   1.000  Zn
  H1       1.0000 0.71890  0.67390  0.65310  Biso   1.000  H
  H2       1.0000 0.94180  0.59930  0.57290  Biso   1.000  H
  H3       1.0000 0.86060  0.47090  0.61340  Biso   1.000  H
  H4       1.0000 0.81450  0.93320  0.47560  Biso   1.000  H
  H5       1.0000 0.94770  0.72480  0.44270  Biso   1.000  H
  H6       1.0000 0.93570  0.80270  0.32770  Biso   1.000  H
  H7       1.0000 0.01680  0.93380  0.59550  Biso   1.000  H
  H8       1.0000 0.96240  0.76160  0.74020  Biso   1.000  H
  H9       1.0000 0.07190  0.86090  0.79000  Biso   1.000  H
  H10      1.0000 0.81100  0.89460  0.72900  Biso   1.000  H
  H11      1.0000 0.57460  0.93670  0.66040  Biso   1.000  H
  H12      1.0000 0.65720  0.86420  0.56420  Biso   1.000  H
  H13      1.0000 0.28110  0.82610  0.15310  Biso   1.000  H
  H14      1.0000 0.05820  0.90070  0.07290  Biso   1.000  H
  H15      1.0000 0.13940  0.02910  0.11340  Biso   1.000  H
  H16      1.0000 0.18550  0.56680  0.97560  Biso   1.000  H
  H17      1.0000 0.05230  0.77520  0.94270  Biso   1.000  H
  H18      1.0000 0.06430  0.69730  0.82770  Biso   1.000  H
  H19      1.0000 0.98320  0.56620  0.09550  Biso   1.000  H
  H20      1.0000 0.03760  0.73840  0.24020  Biso   1.000  H
  H21      1.0000 0.92810  0.63910  0.29000  Biso   1.000  H
  H22      1.0000 0.18900  0.60540  0.22900  Biso   1.000  H
  H23      1.0000 0.42540  0.56330  0.16040  Biso   1.000  H
  H24      1.0000 0.34280  0.63580  0.06420  Biso   1.000  H
  H25      1.0000 0.21890  0.32610  0.84690  Biso   1.000  H
  H26      1.0000 0.44180  0.40070  0.92710  Biso   1.000  H
  H27      1.0000 0.36060  0.52910  0.88660  Biso   1.000  H
  H28      1.0000 0.31450  0.06680  0.02440  Biso   1.000  H
  H29      1.0000 0.44770  0.27520  0.05730  Biso   1.000  H
  H30      1.0000 0.43570  0.19730  0.17230  Biso   1.000  H
  H31      1.0000 0.51680  0.06620  0.90450  Biso   1.000  H
  H32      1.0000 0.46240  0.23840  0.75980  Biso   1.000  H
  H33      1.0000 0.57190  0.13910  0.71000  Biso   1.000  H
  H34      1.0000 0.31100  0.10540  0.77100  Biso   1.000  H
  H35      1.0000 0.07460  0.06330  0.83960  Biso   1.000  H
  H36      1.0000 0.15720  0.13580  0.93580  Biso   1.000  H
  H37      1.0000 0.78110  0.17390  0.34690  Biso   1.000  H
  H38      1.0000 0.55820  0.09930  0.42710  Biso   1.000  H
  H39      1.0000 0.63940  0.97090  0.38660  Biso   1.000  H
  H40      1.0000 0.68550  0.43320  0.52440  Biso   1.000  H
  H41      1.0000 0.55230  0.22480  0.55730  Biso   1.000  H
  H42      1.0000 0.56430  0.30270  0.67230  Biso   1.000  H
  H43      1.0000 0.48320  0.43380  0.40450  Biso   1.000  H
  H44      1.0000 0.53760  0.26160  0.25980  Biso   1.000  H
  H45      1.0000 0.42810  0.36090  0.21000  Biso   1.000  H
  H46      1.0000 0.68900  0.39460  0.27100  Biso   1.000  H
  H47      1.0000 0.92540  0.43670  0.33960  Biso   1.000  H
  H48      1.0000 0.84280  0.36420  0.43580  Biso   1.000  H
  H49      1.0000 0.28110  0.32610  0.34690  Biso   1.000  H
  H50      1.0000 0.05820  0.40070  0.42710  Biso   1.000  H
  H51      1.0000 0.13940  0.52910  0.38660  Biso   1.000  H
  H52      1.0000 0.18550  0.06680  0.52440  Biso   1.000  H
  H53      1.0000 0.05230  0.27520  0.55730  Biso   1.000  H
  H54      1.0000 0.06430  0.19730  0.67230  Biso   1.000  H
  H55      1.0000 0.98320  0.06620  0.40450  Biso   1.000  H
  H56      1.0000 0.03760  0.23840  0.25980  Biso   1.000  H
  H57      1.0000 0.92810  0.13910  0.21000  Biso   1.000  H
  H58      1.0000 0.18900  0.10540  0.27100  Biso   1.000  H
  H59      1.0000 0.42540  0.06330  0.33960  Biso   1.000  H
  H60      1.0000 0.34280  0.13580  0.43580  Biso   1.000  H
  H61      1.0000 0.71890  0.17390  0.84690  Biso   1.000  H
  H62      1.0000 0.94180  0.09930  0.92710  Biso   1.000  H
  H63      1.0000 0.86060  0.97090  0.88660  Biso   1.000  H
  H64      1.0000 0.81450  0.43320  0.02440  Biso   1.000  H
  H65      1.0000 0.94770  0.22480  0.05730  Biso   1.000  H
  H66      1.0000 0.93570  0.30270  0.17230  Biso   1.000  H
  H67      1.0000 0.01680  0.43380  0.90450  Biso   1.000  H
  H68      1.0000 0.96240  0.26160  0.75980  Biso   1.000  H
  H69      1.0000 0.07190  0.36090  0.71000  Biso   1.000  H
  H70      1.0000 0.81100  0.39460  0.77100  Biso   1.000  H
  H71      1.0000 0.57460  0.43670  0.83960  Biso   1.000  H
  H72      1.0000 0.65720  0.36420  0.93580  Biso   1.000  H
  H73      1.0000 0.78110  0.67390  0.15310  Biso   1.000  H
  H74      1.0000 0.55820  0.59930  0.07290  Biso   1.000  H
  H75      1.0000 0.63940  0.47090  0.11340  Biso   1.000  H
  H76      1.0000 0.68550  0.93320  0.97560  Biso   1.000  H
  H77      1.0000 0.55230  0.72480  0.94270  Biso   1.000  H
  H78      1.0000 0.56430  0.80270  0.82770  Biso   1.000  H
  H79      1.0000 0.48320  0.93380  0.09550  Biso   1.000  H
  H80      1.0000 0.53760  0.76160  0.24020  Biso   1.000  H
  H81      1.0000 0.42810  0.86090  0.29000  Biso   1.000  H
  H82      1.0000 0.68900  0.89460  0.22900  Biso   1.000  H
  H83      1.0000 0.92540  0.93670  0.16040  Biso   1.000  H
  H84      1.0000 0.84280  0.86420  0.06420  Biso   1.000  H
  H85      1.0000 0.21890  0.82610  0.65310  Biso   1.000  H
  H86      1.0000 0.44180  0.90070  0.57290  Biso   1.000  H
  H87      1.0000 0.36060  0.02910  0.61340  Biso   1.000  H
  H88      1.0000 0.31450  0.56680  0.47560  Biso   1.000  H
  H89      1.0000 0.44770  0.77520  0.44270  Biso   1.000  H
  H90      1.0000 0.43570  0.69730  0.32770  Biso   1.000  H
  H91      1.0000 0.51680  0.56620  0.59550  Biso   1.000  H
  H92      1.0000 0.46240  0.73840  0.74020  Biso   1.000  H
  H93      1.0000 0.57190  0.63910  0.79000  Biso   1.000  H
  H94      1.0000 0.31100  0.60540  0.72900  Biso   1.000  H
  H95      1.0000 0.07460  0.56330  0.66040  Biso   1.000  H
  H96      1.0000 0.15720  0.63580  0.56420  Biso   1.000  H
  C1       1.0000 0.76590  0.63860  0.63890  Biso   1.000  C
  C2       1.0000 0.88650  0.59960  0.59520  Biso   1.000  C
  C3       1.0000 0.84140  0.52820  0.61740  Biso   1.000  C
  C4       1.0000 0.84800  0.89040  0.45260  Biso   1.000  C
  C5       1.0000 0.91880  0.77770  0.43610  Biso   1.000  C
  C6       1.0000 0.91260  0.82100  0.37220  Biso   1.000  C
  C7       1.0000 0.01570  0.90340  0.63940  Biso   1.000  C
  C8       1.0000 0.98540  0.81020  0.71660  Biso   1.000  C
  C9       1.0000 0.04730  0.86470  0.74360  Biso   1.000  C
  C10      1.0000 0.76150  0.89670  0.69890  Biso   1.000  C
  C11      1.0000 0.63390  0.92090  0.66260  Biso   1.000  C
  C12      1.0000 0.67920  0.87830  0.61010  Biso   1.000  C
  C13      1.0000 0.23410  0.86140  0.13890  Biso   1.000  C
  C14      1.0000 0.11350  0.90040  0.09520  Biso   1.000  C
  C15      1.0000 0.15860  0.97180  0.11740  Biso   1.000  C
  C16      1.0000 0.15200  0.60960  0.95260  Biso   1.000  C
  C17      1.0000 0.08120  0.72230  0.93610  Biso   1.000  C
  C18      1.0000 0.08740  0.67900  0.87220  Biso   1.000  C
  C19      1.0000 0.98430  0.59660  0.13940  Biso   1.000  C
  C20      1.0000 0.01460  0.68980  0.21660  Biso   1.000  C
  C21      1.0000 0.95270  0.63530  0.24360  Biso   1.000  C
  C22      1.0000 0.23850  0.60330  0.19890  Biso   1.000  C
  C23      1.0000 0.36610  0.57910  0.16260  Biso   1.000  C
  C24      1.0000 0.32080  0.62170  0.11010  Biso   1.000  C
  C25      1.0000 0.26590  0.36140  0.86110  Biso   1.000  C
  C26      1.0000 0.38650  0.40040  0.90480  Biso   1.000  C
  C27      1.0000 0.34140  0.47180  0.88260  Biso   1.000  C
  C28      1.0000 0.34800  0.10960  0.04740  Biso   1.000  C
  C29      1.0000 0.41880  0.22230  0.06390  Biso   1.000  C
  C30      1.0000 0.41260  0.17900  0.12780  Biso   1.000  C
  C31      1.0000 0.51570  0.09660  0.86060  Biso   1.000  C
  C32      1.0000 0.48540  0.18980  0.78340  Biso   1.000  C
  C33      1.0000 0.54730  0.13530  0.75640  Biso   1.000  C
  C34      1.0000 0.26150  0.10330  0.80110  Biso   1.000  C
  C35      1.0000 0.13390  0.07910  0.83740  Biso   1.000  C
  C36      1.0000 0.17920  0.12170  0.88990  Biso   1.000  C
  C37      1.0000 0.73410  0.13860  0.36110  Biso   1.000  C
  C38      1.0000 0.61350  0.09960  0.40480  Biso   1.000  C
  C39      1.0000 0.65860  0.02820  0.38260  Biso   1.000  C
  C40      1.0000 0.65200  0.39040  0.54740  Biso   1.000  C
  C41      1.0000 0.58120  0.27770  0.56390  Biso   1.000  C
  C42      1.0000 0.58740  0.32100  0.62780  Biso   1.000  C
  C43      1.0000 0.48430  0.40340  0.36060  Biso   1.000  C
  C44      1.0000 0.51460  0.31020  0.28340  Biso   1.000  C
  C45      1.0000 0.45270  0.36470  0.25640  Biso   1.000  C
  C46      1.0000 0.73850  0.39670  0.30110  Biso   1.000  C
  C47      1.0000 0.86610  0.42090  0.33740  Biso   1.000  C
  C48      1.0000 0.82080  0.37830  0.38990  Biso   1.000  C
  C49      1.0000 0.23410  0.36140  0.36110  Biso   1.000  C
  C50      1.0000 0.11350  0.40040  0.40480  Biso   1.000  C
  C51      1.0000 0.15860  0.47180  0.38260  Biso   1.000  C
  C52      1.0000 0.15200  0.10960  0.54740  Biso   1.000  C
  C53      1.0000 0.08120  0.22230  0.56390  Biso   1.000  C
  C54      1.0000 0.08740  0.17900  0.62780  Biso   1.000  C
  C55      1.0000 0.98430  0.09660  0.36060  Biso   1.000  C
  C56      1.0000 0.01460  0.18980  0.28340  Biso   1.000  C
  C57      1.0000 0.95270  0.13530  0.25640  Biso   1.000  C
  C58      1.0000 0.23850  0.10330  0.30110  Biso   1.000  C
  C59      1.0000 0.36610  0.07910  0.33740  Biso   1.000  C
  C60      1.0000 0.32080  0.12170  0.38990  Biso   1.000  C
  C61      1.0000 0.76590  0.13860  0.86110  Biso   1.000  C
  C62      1.0000 0.88650  0.09960  0.90480  Biso   1.000  C
  C63      1.0000 0.84140  0.02820  0.88260  Biso   1.000  C
  C64      1.0000 0.84800  0.39040  0.04740  Biso   1.000  C
  C65      1.0000 0.91880  0.27770  0.06390  Biso   1.000  C
  C66      1.0000 0.91260  0.32100  0.12780  Biso   1.000  C
  C67      1.0000 0.01570  0.40340  0.86060  Biso   1.000  C
  C68      1.0000 0.98540  0.31020  0.78340  Biso   1.000  C
  C69      1.0000 0.04730  0.36470  0.75640  Biso   1.000  C
  C70      1.0000 0.76150  0.39670  0.80110  Biso   1.000  C
  C71      1.0000 0.63390  0.42090  0.83740  Biso   1.000  C
  C72      1.0000 0.67920  0.37830  0.88990  Biso   1.000  C
  C73      1.0000 0.73410  0.63860  0.13890  Biso   1.000  C
  C74      1.0000 0.61350  0.59960  0.09520  Biso   1.000  C
  C75      1.0000 0.65860  0.52820  0.11740  Biso   1.000  C
  C76      1.0000 0.65200  0.89040  0.95260  Biso   1.000  C
  C77      1.0000 0.58120  0.77770  0.93610  Biso   1.000  C
  C78      1.0000 0.58740  0.82100  0.87220  Biso   1.000  C
  C79      1.0000 0.48430  0.90340  0.13940  Biso   1.000  C
  C80      1.0000 0.51460  0.81020  0.21660  Biso   1.000  C
  C81      1.0000 0.45270  0.86470  0.24360  Biso   1.000  C
  C82      1.0000 0.73850  0.89670  0.19890  Biso   1.000  C
  C83      1.0000 0.86610  0.92090  0.16260  Biso   1.000  C
  C84      1.0000 0.82080  0.87830  0.11010  Biso   1.000  C
  C85      1.0000 0.26590  0.86140  0.63890  Biso   1.000  C
  C86      1.0000 0.38650  0.90040  0.59520  Biso   1.000  C
  C87      1.0000 0.34140  0.97180  0.61740  Biso   1.000  C
  C88      1.0000 0.34800  0.60960  0.45260  Biso   1.000  C
  C89      1.0000 0.41880  0.72230  0.43610  Biso   1.000  C
  C90      1.0000 0.41260  0.67900  0.37220  Biso   1.000  C
  C91      1.0000 0.51570  0.59660  0.63940  Biso   1.000  C
  C92      1.0000 0.48540  0.68980  0.71660  Biso   1.000  C
  C93      1.0000 0.54730  0.63530  0.74360  Biso   1.000  C
  C94      1.0000 0.26150  0.60330  0.69890  Biso   1.000  C
  C95      1.0000 0.13390  0.57910  0.66260  Biso   1.000  C
  C96      1.0000 0.17920  0.62170  0.61010  Biso   1.000  C
  N1       1.0000 0.76560  0.55390  0.64620  Biso   1.000  N
  N2       1.0000 0.83920  0.66940  0.60990  Biso   1.000  N
  N3       1.0000 0.86900  0.89420  0.38350  Biso   1.000  N
  N4       1.0000 0.87750  0.82100  0.48730  Biso   1.000  N
  N5       1.0000 0.06690  0.92410  0.69470  Biso   1.000  N
  N6       1.0000 0.96310  0.83700  0.65080  Biso   1.000  N
  N7       1.0000 0.68730  0.93560  0.71760  Biso   1.000  N
  N8       1.0000 0.75940  0.86050  0.63400  Biso   1.000  N
  N9       1.0000 0.23440  0.94610  0.14620  Biso   1.000  N
  N10      1.0000 0.16080  0.83060  0.10990  Biso   1.000  N
  N11      1.0000 0.13100  0.60580  0.88350  Biso   1.000  N
  N12      1.0000 0.12250  0.67900  0.98730  Biso   1.000  N
  N13      1.0000 0.93310  0.57590  0.19470  Biso   1.000  N
  N14      1.0000 0.03690  0.66300  0.15080  Biso   1.000  N
  N15      1.0000 0.31270  0.56440  0.21760  Biso   1.000  N
  N16      1.0000 0.24060  0.63950  0.13400  Biso   1.000  N
  N17      1.0000 0.26560  0.44610  0.85380  Biso   1.000  N
  N18      1.0000 0.33920  0.33060  0.89010  Biso   1.000  N
  N19      1.0000 0.36900  0.10580  0.11650  Biso   1.000  N
  N20      1.0000 0.37750  0.17900  0.01270  Biso   1.000  N
  N21      1.0000 0.56690  0.07590  0.80530  Biso   1.000  N
  N22      1.0000 0.46310  0.16300  0.84920  Biso   1.000  N
  N23      1.0000 0.18730  0.06440  0.78240  Biso   1.000  N
  N24      1.0000 0.25940  0.13950  0.86600  Biso   1.000  N
  N25      1.0000 0.73440  0.05390  0.35380  Biso   1.000  N
  N26      1.0000 0.66080  0.16940  0.39010  Biso   1.000  N
  N27      1.0000 0.63100  0.39420  0.61650  Biso   1.000  N
  N28      1.0000 0.62250  0.32100  0.51270  Biso   1.000  N
  N29      1.0000 0.43310  0.42410  0.30530  Biso   1.000  N
  N30      1.0000 0.53690  0.33700  0.34920  Biso   1.000  N
  N31      1.0000 0.81270  0.43560  0.28240  Biso   1.000  N
  N32      1.0000 0.74060  0.36050  0.36600  Biso   1.000  N
  N33      1.0000 0.23440  0.44610  0.35380  Biso   1.000  N
  N34      1.0000 0.16080  0.33060  0.39010  Biso   1.000  N
  N35      1.0000 0.13100  0.10580  0.61650  Biso   1.000  N
  N36      1.0000 0.12250  0.17900  0.51270  Biso   1.000  N
  N37      1.0000 0.93310  0.07590  0.30530  Biso   1.000  N
  N38      1.0000 0.03690  0.16300  0.34920  Biso   1.000  N
  N39      1.0000 0.31270  0.06440  0.28240  Biso   1.000  N
  N40      1.0000 0.24060  0.13950  0.36600  Biso   1.000  N
  N41      1.0000 0.76560  0.05390  0.85380  Biso   1.000  N
  N42      1.0000 0.83920  0.16940  0.89010  Biso   1.000  N
  N43      1.0000 0.86900  0.39420  0.11650  Biso   1.000  N
  N44      1.0000 0.87750  0.32100  0.01270  Biso   1.000  N
  N45      1.0000 0.06690  0.42410  0.80530  Biso   1.000  N
  N46      1.0000 0.96310  0.33700  0.84920  Biso   1.000  N
  N47      1.0000 0.68730  0.43560  0.78240  Biso   1.000  N
  N48      1.0000 0.75940  0.36050  0.86600  Biso   1.000  N
  N49      1.0000 0.73440  0.55390  0.14620  Biso   1.000  N
  N50      1.0000 0.66080  0.66940  0.10990  Biso   1.000  N
  N51      1.0000 0.63100  0.89420  0.88350  Biso   1.000  N
  N52      1.0000 0.62250  0.82100  0.98730  Biso   1.000  N
  N53      1.0000 0.43310  0.92410  0.19470  Biso   1.000  N
  N54      1.0000 0.53690  0.83700  0.15080  Biso   1.000  N
  N55      1.0000 0.81270  0.93560  0.21760  Biso   1.000  N
  N56      1.0000 0.74060  0.86050  0.13400  Biso   1.000  N
  N57      1.0000 0.26560  0.94610  0.64620  Biso   1.000  N
  N58      1.0000 0.33920  0.83060  0.60990  Biso   1.000  N
  N59      1.0000 0.36900  0.60580  0.38350  Biso   1.000  N
  N60      1.0000 0.37750  0.67900  0.48730  Biso   1.000  N
  N61      1.0000 0.56690  0.57590  0.69470  Biso   1.000  N
  N62      1.0000 0.46310  0.66300  0.65080  Biso   1.000  N
  N63      1.0000 0.18730  0.56440  0.71760  Biso   1.000  N
  N64      1.0000 0.25940  0.63950  0.63400  Biso   1.000  N
