data_image0
_cell_length_a       11.5713
_cell_length_b       11.736
_cell_length_c       13.619
_cell_angle_alpha    92.869
_cell_angle_beta     114.443
_cell_angle_gamma    107.988

_symmetry_space_group_name_H-M    P 1
_symmetry_int_tables_number       1

loop_
  _symmetry_equiv_pos_as_xyz
  'x, y, z'

loop_
  _atom_site_label
  _atom_site_occupancy
  _atom_site_fract_x
  _atom_site_fract_y
  _atom_site_fract_z
  _atom_site_thermal_displace_type
  _atom_site_B_iso_or_equiv
  _atom_site_type_symbol
  Zn1      1.0000 0.10439  0.23392  0.95361  Biso   1.000  Zn
  Zn2      1.0000 0.89561  0.76608  0.04639  Biso   1.000  Zn
  Zn3      1.0000 0.00000  0.50000  0.00000  Biso   1.000  Zn
  H1       1.0000 0.99240  0.89190  0.77350  Biso   1.000  H
  H2       1.0000 0.85520  0.77980  0.71010  Biso   1.000  H
  H3       1.0000 0.93330  0.84610  0.64630  Biso   1.000  H
  H4       1.0000 0.70190  0.87410  0.52720  Biso   1.000  H
  H5       1.0000 0.63670  0.84960  0.60830  Biso   1.000  H
  H6       1.0000 0.68330  0.98140  0.58500  Biso   1.000  H
  H7       1.0000 0.67230  0.92930  0.02500  Biso   1.000  H
  H8       1.0000 0.11950  0.37540  0.57500  Biso   1.000  H
  H9       1.0000 0.35120  0.60230  0.43720  Biso   1.000  H
  H10      1.0000 0.90770  0.57910  0.59440  Biso   1.000  H
  H11      1.0000 0.51300  0.36830  0.37770  Biso   1.000  H
  H12      1.0000 0.51980  0.18980  0.96140  Biso   1.000  H
  H13      1.0000 0.85650  0.09840  0.75210  Biso   1.000  H
  H14      1.0000 0.00760  0.10810  0.22650  Biso   1.000  H
  H15      1.0000 0.14480  0.22020  0.28990  Biso   1.000  H
  H16      1.0000 0.06670  0.15390  0.35370  Biso   1.000  H
  H17      1.0000 0.29810  0.12590  0.47280  Biso   1.000  H
  H18      1.0000 0.36330  0.15040  0.39170  Biso   1.000  H
  H19      1.0000 0.31670  0.01860  0.41500  Biso   1.000  H
  H20      1.0000 0.32770  0.07070  0.97500  Biso   1.000  H
  H21      1.0000 0.88050  0.62460  0.42500  Biso   1.000  H
  H22      1.0000 0.64880  0.39770  0.56280  Biso   1.000  H
  H23      1.0000 0.09230  0.42090  0.40560  Biso   1.000  H
  H24      1.0000 0.48700  0.63170  0.62230  Biso   1.000  H
  H25      1.0000 0.48020  0.81020  0.03860  Biso   1.000  H
  H26      1.0000 0.14350  0.90160  0.24790  Biso   1.000  H
  C1       1.0000 0.51900  0.41360  0.91720  Biso   1.000  C
  C2       1.0000 0.65600  0.42200  0.13300  Biso   1.000  C
  C3       1.0000 0.41110  0.31540  0.03330  Biso   1.000  C
  C4       1.0000 0.73700  0.15080  0.98420  Biso   1.000  C
  C5       1.0000 0.91040  0.85740  0.70540  Biso   1.000  C
  C6       1.0000 0.70350  0.90800  0.59360  Biso   1.000  C
  C7       1.0000 0.02720  0.44220  0.70810  Biso   1.000  C
  C8       1.0000 0.32910  0.46130  0.26790  Biso   1.000  C
  C9       1.0000 0.01370  0.47130  0.60140  Biso   1.000  C
  C10      1.0000 0.41850  0.48300  0.38720  Biso   1.000  C
  C11      1.0000 0.60320  0.95910  0.01460  Biso   1.000  C
  C12      1.0000 0.07080  0.42530  0.54500  Biso   1.000  C
  C13      1.0000 0.41140  0.56100  0.46220  Biso   1.000  C
  C14      1.0000 0.94480  0.54640  0.55640  Biso   1.000  C
  C15      1.0000 0.61460  0.07250  0.99120  Biso   1.000  C
  C16      1.0000 0.50770  0.42190  0.42700  Biso   1.000  C
  C17      1.0000 0.51290  0.11250  0.97710  Biso   1.000  C
  C18      1.0000 0.90440  0.04600  0.76030  Biso   1.000  C
  C19      1.0000 0.48100  0.58640  0.08280  Biso   1.000  C
  C20      1.0000 0.34400  0.57800  0.86700  Biso   1.000  C
  C21      1.0000 0.58890  0.68460  0.96670  Biso   1.000  C
  C22      1.0000 0.26300  0.84920  0.01580  Biso   1.000  C
  C23      1.0000 0.08960  0.14260  0.29460  Biso   1.000  C
  C24      1.0000 0.29650  0.09200  0.40640  Biso   1.000  C
  C25      1.0000 0.97280  0.55780  0.29190  Biso   1.000  C
  C26      1.0000 0.67090  0.53870  0.73210  Biso   1.000  C
  C27      1.0000 0.98630  0.52870  0.39860  Biso   1.000  C
  C28      1.0000 0.58150  0.51700  0.61280  Biso   1.000  C
  C29      1.0000 0.39680  0.04090  0.98540  Biso   1.000  C
  C30      1.0000 0.92920  0.57470  0.45500  Biso   1.000  C
  C31      1.0000 0.58860  0.43900  0.53780  Biso   1.000  C
  C32      1.0000 0.05520  0.45360  0.44360  Biso   1.000  C
  C33      1.0000 0.38540  0.92750  0.00880  Biso   1.000  C
  C34      1.0000 0.49230  0.57810  0.57300  Biso   1.000  C
  C35      1.0000 0.48710  0.88750  0.02290  Biso   1.000  C
  C36      1.0000 0.09560  0.95400  0.23970  Biso   1.000  C
  N1       1.0000 0.52140  0.38680  0.02260  Biso   1.000  N
  N2       1.0000 0.30160  0.36370  0.19550  Biso   1.000  N
  N3       1.0000 0.82970  0.11270  0.97220  Biso   1.000  N
  N4       1.0000 0.05580  0.35320  0.84240  Biso   1.000  N
  N5       1.0000 0.01410  0.51050  0.78100  Biso   1.000  N
  N6       1.0000 0.21000  0.37420  0.09980  Biso   1.000  N
  N7       1.0000 0.03260  0.45270  0.86450  Biso   1.000  N
  N8       1.0000 0.92050  0.21290  0.97050  Biso   1.000  N
  N9       1.0000 0.88470  0.30730  0.98070  Biso   1.000  N
  N10      1.0000 0.18510  0.47480  0.11420  Biso   1.000  N
  N11      1.0000 0.76910  0.27180  0.98930  Biso   1.000  N
  N12      1.0000 0.05340  0.34400  0.74330  Biso   1.000  N
  N13      1.0000 0.83810  0.93670  0.68520  Biso   1.000  N
  N14      1.0000 0.26010  0.53230  0.22020  Biso   1.000  N
  N15      1.0000 0.47860  0.61320  0.97740  Biso   1.000  N
  N16      1.0000 0.69840  0.63630  0.80450  Biso   1.000  N
  N17      1.0000 0.17030  0.88730  0.02780  Biso   1.000  N
  N18      1.0000 0.94420  0.64680  0.15760  Biso   1.000  N
  N19      1.0000 0.98590  0.48950  0.21900  Biso   1.000  N
  N20      1.0000 0.79000  0.62580  0.90020  Biso   1.000  N
  N21      1.0000 0.96740  0.54730  0.13550  Biso   1.000  N
  N22      1.0000 0.07950  0.78710  0.02950  Biso   1.000  N
  N23      1.0000 0.11530  0.69270  0.01930  Biso   1.000  N
  N24      1.0000 0.81490  0.52520  0.88580  Biso   1.000  N
  N25      1.0000 0.23090  0.72820  0.01070  Biso   1.000  N
  N26      1.0000 0.94660  0.65600  0.25670  Biso   1.000  N
  N27      1.0000 0.16190  0.06330  0.31480  Biso   1.000  N
  N28      1.0000 0.73990  0.46770  0.77980  Biso   1.000  N
  O1       1.0000 0.28400  0.27160  0.93170  Biso   1.000  O
  O2       1.0000 0.16050  0.11950  0.06400  Biso   1.000  O
  O3       1.0000 0.01300  0.07980  0.83240  Biso   1.000  O
  O4       1.0000 0.71600  0.72840  0.06830  Biso   1.000  O
  O5       1.0000 0.83950  0.88050  0.93600  Biso   1.000  O
  O6       1.0000 0.98700  0.92020  0.16760  Biso   1.000  O
