data_image0
_cell_length_a       8.60301
_cell_length_b       19.2774
_cell_length_c       19.2774
_cell_angle_alpha    62.1728
_cell_angle_beta     81.445
_cell_angle_gamma    98.555

_symmetry_space_group_name_H-M    P 1
_symmetry_int_tables_number       1

loop_
  _symmetry_equiv_pos_as_xyz
  'x, y, z'

loop_
  _atom_site_label
  _atom_site_occupancy
  _atom_site_fract_x
  _atom_site_fract_y
  _atom_site_fract_z
  _atom_site_thermal_displace_type
  _atom_site_B_iso_or_equiv
  _atom_site_type_symbol
  Mn1      1.0000 0.22110  0.30323  0.27957  Biso   1.000  Mn
  Mn2      1.0000 0.50067  0.27957  0.41720  Biso   1.000  Mn
  Mn3      1.0000 0.91787  0.41720  0.30323  Biso   1.000  Mn
  Mn4      1.0000 0.77890  0.69677  0.72043  Biso   1.000  Mn
  Mn5      1.0000 0.49933  0.72043  0.58280  Biso   1.000  Mn
  Mn6      1.0000 0.08213  0.58280  0.69677  Biso   1.000  Mn
  H1       1.0000 0.38850  0.36370  0.09500  Biso   1.000  H
  H2       1.0000 0.66530  0.58360  0.02930  Biso   1.000  H
  H3       1.0000 0.48350  0.09500  0.54130  Biso   1.000  H
  H4       1.0000 0.69460  0.02930  0.38710  Biso   1.000  H
  H5       1.0000 0.02480  0.54130  0.36370  Biso   1.000  H
  H6       1.0000 0.08170  0.38710  0.58360  Biso   1.000  H
  H7       1.0000 0.61150  0.63630  0.90500  Biso   1.000  H
  H8       1.0000 0.33470  0.41640  0.97070  Biso   1.000  H
  H9       1.0000 0.51650  0.90500  0.45870  Biso   1.000  H
  H10      1.0000 0.30540  0.97070  0.61290  Biso   1.000  H
  H11      1.0000 0.97520  0.45870  0.63630  Biso   1.000  H
  H12      1.0000 0.91830  0.61290  0.41640  Biso   1.000  H
  C1       1.0000 0.57990  0.43660  0.15350  Biso   1.000  C
  C2       1.0000 0.53780  0.46830  0.07780  Biso   1.000  C
  C3       1.0000 0.43350  0.41800  0.05720  Biso   1.000  C
  C4       1.0000 0.59910  0.54960  0.01780  Biso   1.000  C
  C5       1.0000 0.14830  0.17510  0.23520  Biso   1.000  C
  C6       1.0000 0.26380  0.19400  0.09960  Biso   1.000  C
  C7       1.0000 0.07150  0.05110  0.22460  Biso   1.000  C
  C8       1.0000 0.73340  0.15350  0.40990  Biso   1.000  C
  C9       1.0000 0.61560  0.07780  0.45390  Biso   1.000  C
  C10      1.0000 0.49070  0.05720  0.52480  Biso   1.000  C
  C11      1.0000 0.61690  0.01780  0.43260  Biso   1.000  C
  C12      1.0000 0.38350  0.23520  0.58970  Biso   1.000  C
  C13      1.0000 0.36340  0.09960  0.70640  Biso   1.000  C
  C14      1.0000 0.29610  0.22460  0.72430  Biso   1.000  C
  C15      1.0000 0.14330  0.40990  0.43660  Biso   1.000  C
  C16      1.0000 0.06950  0.45390  0.46830  Biso   1.000  C
  C17      1.0000 0.01550  0.52480  0.41800  Biso   1.000  C
  C18      1.0000 0.04950  0.43260  0.54960  Biso   1.000  C
  C19      1.0000 0.97320  0.58970  0.17510  Biso   1.000  C
  C20      1.0000 0.06980  0.70640  0.19400  Biso   1.000  C
  C21      1.0000 0.02040  0.72430  0.05110  Biso   1.000  C
  C22      1.0000 0.42010  0.56340  0.84650  Biso   1.000  C
  C23      1.0000 0.46220  0.53170  0.92220  Biso   1.000  C
  C24      1.0000 0.56650  0.58200  0.94280  Biso   1.000  C
  C25      1.0000 0.40090  0.45040  0.98220  Biso   1.000  C
  C26      1.0000 0.85170  0.82490  0.76480  Biso   1.000  C
  C27      1.0000 0.73620  0.80600  0.90040  Biso   1.000  C
  C28      1.0000 0.92850  0.94890  0.77540  Biso   1.000  C
  C29      1.0000 0.26660  0.84650  0.59010  Biso   1.000  C
  C30      1.0000 0.38440  0.92220  0.54610  Biso   1.000  C
  C31      1.0000 0.50930  0.94280  0.47520  Biso   1.000  C
  C32      1.0000 0.38310  0.98220  0.56740  Biso   1.000  C
  C33      1.0000 0.61650  0.76480  0.41030  Biso   1.000  C
  C34      1.0000 0.63660  0.90040  0.29360  Biso   1.000  C
  C35      1.0000 0.70390  0.77540  0.27570  Biso   1.000  C
  C36      1.0000 0.85670  0.59010  0.56340  Biso   1.000  C
  C37      1.0000 0.93050  0.54610  0.53170  Biso   1.000  C
  C38      1.0000 0.98450  0.47520  0.58200  Biso   1.000  C
  C39      1.0000 0.95050  0.56740  0.45040  Biso   1.000  C
  C40      1.0000 0.02680  0.41030  0.82490  Biso   1.000  C
  C41      1.0000 0.93020  0.29360  0.80600  Biso   1.000  C
  C42      1.0000 0.97960  0.27570  0.94890  Biso   1.000  C
  N1       1.0000 0.48700  0.37460  0.22380  Biso   1.000  N
  N2       1.0000 0.57640  0.36580  0.27830  Biso   1.000  N
  N3       1.0000 0.71470  0.41970  0.23920  Biso   1.000  N
  N4       1.0000 0.72250  0.46530  0.16210  Biso   1.000  N
  N5       1.0000 0.16360  0.14420  0.18540  Biso   1.000  N
  N6       1.0000 0.71080  0.22380  0.40160  Biso   1.000  N
  N7       1.0000 0.85470  0.27830  0.35590  Biso   1.000  N
  N8       1.0000 0.95390  0.23920  0.34110  Biso   1.000  N
  N9       1.0000 0.88460  0.16210  0.37260  Biso   1.000  N
  N10      1.0000 0.34900  0.18540  0.67040  Biso   1.000  N
  N11      1.0000 0.11240  0.40160  0.37460  Biso   1.000  N
  N12      1.0000 0.21060  0.35590  0.36580  Biso   1.000  N
  N13      1.0000 0.29500  0.34110  0.41970  Biso   1.000  N
  N14      1.0000 0.25720  0.37260  0.46530  Biso   1.000  N
  N15      1.0000 0.01940  0.67040  0.14420  Biso   1.000  N
  N16      1.0000 0.51300  0.62540  0.77620  Biso   1.000  N
  N17      1.0000 0.42360  0.63420  0.72170  Biso   1.000  N
  N18      1.0000 0.28530  0.58030  0.76080  Biso   1.000  N
  N19      1.0000 0.27750  0.53470  0.83790  Biso   1.000  N
  N20      1.0000 0.83640  0.85580  0.81460  Biso   1.000  N
  N21      1.0000 0.28920  0.77620  0.59840  Biso   1.000  N
  N22      1.0000 0.14530  0.72170  0.64410  Biso   1.000  N
  N23      1.0000 0.04610  0.76080  0.65890  Biso   1.000  N
  N24      1.0000 0.11540  0.83790  0.62740  Biso   1.000  N
  N25      1.0000 0.65100  0.81460  0.32960  Biso   1.000  N
  N26      1.0000 0.88760  0.59840  0.62540  Biso   1.000  N
  N27      1.0000 0.78940  0.64410  0.63420  Biso   1.000  N
  N28      1.0000 0.70500  0.65890  0.58030  Biso   1.000  N
  N29      1.0000 0.74280  0.62740  0.53470  Biso   1.000  N
  N30      1.0000 0.98060  0.32960  0.85580  Biso   1.000  N
  Cl1      1.0000 0.11994  0.42152  0.19110  Biso   1.000  Cl
  Cl2      1.0000 0.31104  0.19110  0.38738  Biso   1.000  Cl
  Cl3      1.0000 0.69842  0.38738  0.42152  Biso   1.000  Cl
  Cl4      1.0000 0.88006  0.57848  0.80890  Biso   1.000  Cl
  Cl5      1.0000 0.68896  0.80890  0.61262  Biso   1.000  Cl
  Cl6      1.0000 0.30158  0.61262  0.57848  Biso   1.000  Cl
  O1       1.0000 0.22550  0.24340  0.20960  Biso   1.000  O
  O2       1.0000 0.43510  0.20960  0.54700  Biso   1.000  O
  O3       1.0000 0.98210  0.54700  0.24340  Biso   1.000  O
  O4       1.0000 0.77450  0.75660  0.79040  Biso   1.000  O
  O5       1.0000 0.56490  0.79040  0.45300  Biso   1.000  O
  O6       1.0000 0.01790  0.45300  0.75660  Biso   1.000  O
