data_image0
_cell_length_a       11.693
_cell_length_b       11.994
_cell_length_c       13.753
_cell_angle_alpha    92.97
_cell_angle_beta     114.36
_cell_angle_gamma    108.354

_symmetry_space_group_name_H-M    P 1
_symmetry_int_tables_number       1

loop_
  _symmetry_equiv_pos_as_xyz
  'x, y, z'

loop_
  _atom_site_label
  _atom_site_occupancy
  _atom_site_fract_x
  _atom_site_fract_y
  _atom_site_fract_z
  _atom_site_thermal_displace_type
  _atom_site_B_iso_or_equiv
  _atom_site_type_symbol
  Mn1      1.0000 0.89260  0.27154  0.04643  Biso   1.000  Mn
  Mn2      1.0000 0.10740  0.72846  0.95357  Biso   1.000  Mn
  Mn3      1.0000 0.00000  0.00000  0.00000  Biso   1.000  Mn
  H1       1.0000 0.32320  0.56160  0.96250  Biso   1.000  H
  H2       1.0000 0.48980  0.31820  0.05140  Biso   1.000  H
  H3       1.0000 0.88640  0.12620  0.42980  Biso   1.000  H
  H4       1.0000 0.09780  0.92930  0.40790  Biso   1.000  H
  H5       1.0000 0.64100  0.89400  0.56320  Biso   1.000  H
  H6       1.0000 0.49090  0.13160  0.62200  Biso   1.000  H
  H7       1.0000 0.67680  0.43840  0.03750  Biso   1.000  H
  H8       1.0000 0.51020  0.68180  0.94860  Biso   1.000  H
  H9       1.0000 0.11360  0.87380  0.57020  Biso   1.000  H
  H10      1.0000 0.90220  0.07070  0.59210  Biso   1.000  H
  H11      1.0000 0.35900  0.10600  0.43680  Biso   1.000  H
  H12      1.0000 0.50910  0.86840  0.37800  Biso   1.000  H
  C1       1.0000 0.26650  0.35110  0.01850  Biso   1.000  C
  C2       1.0000 0.38650  0.42940  0.01000  Biso   1.000  C
  C3       1.0000 0.39520  0.53620  0.97840  Biso   1.000  C
  C4       1.0000 0.49320  0.39150  0.03110  Biso   1.000  C
  C5       1.0000 0.97430  0.06060  0.29620  Biso   1.000  C
  C6       1.0000 0.98860  0.03080  0.40100  Biso   1.000  C
  C7       1.0000 0.93160  0.07500  0.45760  Biso   1.000  C
  C8       1.0000 0.05770  0.95750  0.44450  Biso   1.000  C
  C9       1.0000 0.67130  0.03960  0.73010  Biso   1.000  C
  C10      1.0000 0.58130  0.01700  0.61280  Biso   1.000  C
  C11      1.0000 0.58480  0.93720  0.53850  Biso   1.000  C
  C12      1.0000 0.49530  0.07860  0.57320  Biso   1.000  C
  C13      1.0000 0.72540  0.26040  0.17490  Biso   1.000  C
  C14      1.0000 0.65300  0.23270  0.31810  Biso   1.000  C
  C15      1.0000 0.49700  0.11890  0.12240  Biso   1.000  C
  C16      1.0000 0.07970  0.48330  0.24180  Biso   1.000  C
  C17      1.0000 0.99900  0.68000  0.26300  Biso   1.000  C
  C18      1.0000 0.22500  0.66000  0.38800  Biso   1.000  C
  C19      1.0000 0.73350  0.64890  0.98150  Biso   1.000  C
  C20      1.0000 0.61350  0.57060  0.99000  Biso   1.000  C
  C21      1.0000 0.60480  0.46380  0.02160  Biso   1.000  C
  C22      1.0000 0.50680  0.60850  0.96890  Biso   1.000  C
  C23      1.0000 0.02570  0.93940  0.70380  Biso   1.000  C
  C24      1.0000 0.01140  0.96920  0.59900  Biso   1.000  C
  C25      1.0000 0.06840  0.92500  0.54240  Biso   1.000  C
  C26      1.0000 0.94230  0.04250  0.55550  Biso   1.000  C
  C27      1.0000 0.32870  0.96040  0.26990  Biso   1.000  C
  C28      1.0000 0.41870  0.98300  0.38720  Biso   1.000  C
  C29      1.0000 0.41520  0.06280  0.46150  Biso   1.000  C
  C30      1.0000 0.50470  0.92140  0.42680  Biso   1.000  C
  C31      1.0000 0.27460  0.73960  0.82510  Biso   1.000  C
  C32      1.0000 0.34700  0.76730  0.68190  Biso   1.000  C
  C33      1.0000 0.50300  0.88110  0.87760  Biso   1.000  C
  C34      1.0000 0.92030  0.51670  0.75820  Biso   1.000  C
  C35      1.0000 0.00100  0.32000  0.73700  Biso   1.000  C
  C36      1.0000 0.77500  0.34000  0.61200  Biso   1.000  C
  N1       1.0000 0.17520  0.38860  0.02900  Biso   1.000  N
  N2       1.0000 0.08310  0.28920  0.03070  Biso   1.000  N
  N3       1.0000 0.11910  0.19680  0.02120  Biso   1.000  N
  N4       1.0000 0.23410  0.23390  0.01340  Biso   1.000  N
  N5       1.0000 0.98560  0.99340  0.22250  Biso   1.000  N
  N6       1.0000 0.96560  0.05070  0.13960  Biso   1.000  N
  N7       1.0000 0.94550  0.14930  0.16300  Biso   1.000  N
  N8       1.0000 0.94910  0.15760  0.26120  Biso   1.000  N
  N9       1.0000 0.69730  0.13350  0.80170  Biso   1.000  N
  N10      1.0000 0.78750  0.12430  0.89620  Biso   1.000  N
  N11      1.0000 0.81270  0.02620  0.88090  Biso   1.000  N
  N12      1.0000 0.73890  0.96980  0.77650  Biso   1.000  N
  N13      1.0000 0.62950  0.20670  0.20090  Biso   1.000  N
  N14      1.0000 0.09220  0.60670  0.29110  Biso   1.000  N
  N15      1.0000 0.82480  0.61140  0.97100  Biso   1.000  N
  N16      1.0000 0.91690  0.71080  0.96930  Biso   1.000  N
  N17      1.0000 0.88090  0.80320  0.97880  Biso   1.000  N
  N18      1.0000 0.76590  0.76610  0.98660  Biso   1.000  N
  N19      1.0000 0.01440  0.00660  0.77750  Biso   1.000  N
  N20      1.0000 0.03440  0.94930  0.86040  Biso   1.000  N
  N21      1.0000 0.05450  0.85070  0.83700  Biso   1.000  N
  N22      1.0000 0.05090  0.84240  0.73880  Biso   1.000  N
  N23      1.0000 0.30270  0.86650  0.19830  Biso   1.000  N
  N24      1.0000 0.21250  0.87570  0.10380  Biso   1.000  N
  N25      1.0000 0.18730  0.97380  0.11910  Biso   1.000  N
  N26      1.0000 0.26110  0.03020  0.22350  Biso   1.000  N
  N27      1.0000 0.37050  0.79330  0.79910  Biso   1.000  N
  N28      1.0000 0.90780  0.39330  0.70890  Biso   1.000  N
  O1       1.0000 0.70950  0.22850  0.06850  Biso   1.000  O
  O2       1.0000 0.98430  0.42560  0.17090  Biso   1.000  O
  O3       1.0000 0.83150  0.38370  0.93110  Biso   1.000  O
  O4       1.0000 0.29050  0.77150  0.93150  Biso   1.000  O
  O5       1.0000 0.01570  0.57440  0.82910  Biso   1.000  O
  O6       1.0000 0.16850  0.61630  0.06890  Biso   1.000  O
