data_image0
_cell_length_a       11.706
_cell_length_b       18.186
_cell_length_c       18.186
_cell_angle_alpha    90
_cell_angle_beta     90
_cell_angle_gamma    90

_symmetry_space_group_name_H-M    P 1
_symmetry_int_tables_number       1

loop_
  _symmetry_equiv_pos_as_xyz
  'x, y, z'

loop_
  _atom_site_label
  _atom_site_occupancy
  _atom_site_fract_x
  _atom_site_fract_y
  _atom_site_fract_z
  _atom_site_thermal_displace_type
  _atom_site_B_iso_or_equiv
  _atom_site_type_symbol
  Ni1      1.0000 0.16090  0.54289  0.93940  Biso   1.000  Ni
  Ni2      1.0000 0.93600  0.59310  0.87576  Biso   1.000  Ni
  Ni3      1.0000 0.66090  0.45711  0.06060  Biso   1.000  Ni
  Ni4      1.0000 0.43600  0.40690  0.12424  Biso   1.000  Ni
  Ni5      1.0000 0.91090  0.56060  0.04289  Biso   1.000  Ni
  Ni6      1.0000 0.68600  0.62424  0.09310  Biso   1.000  Ni
  Ni7      1.0000 0.41090  0.43940  0.95711  Biso   1.000  Ni
  Ni8      1.0000 0.18600  0.37576  0.90690  Biso   1.000  Ni
  Ni9      1.0000 0.58910  0.95711  0.43940  Biso   1.000  Ni
  Ni10     1.0000 0.81400  0.90690  0.37576  Biso   1.000  Ni
  Ni11     1.0000 0.08910  0.04289  0.56060  Biso   1.000  Ni
  Ni12     1.0000 0.31400  0.09310  0.62424  Biso   1.000  Ni
  Ni13     1.0000 0.83910  0.93940  0.54289  Biso   1.000  Ni
  Ni14     1.0000 0.06400  0.87576  0.59310  Biso   1.000  Ni
  Ni15     1.0000 0.33910  0.06060  0.45711  Biso   1.000  Ni
  Ni16     1.0000 0.56400  0.12424  0.40690  Biso   1.000  Ni
  Ni17     1.0000 0.00000  0.74440  0.74440  Biso   1.000  Ni
  Ni18     1.0000 0.50000  0.25560  0.25560  Biso   1.000  Ni
  Ni19     1.0000 0.75000  0.75560  0.24440  Biso   1.000  Ni
  Ni20     1.0000 0.25000  0.24440  0.75560  Biso   1.000  Ni
  H1       1.0000 0.89110  0.55590  0.74590  Biso   1.000  H
  H2       1.0000 0.78780  0.54350  0.78910  Biso   1.000  H
  H3       1.0000 0.10900  0.82330  0.83330  Biso   1.000  H
  H4       1.0000 0.16280  0.83270  0.76090  Biso   1.000  H
  H5       1.0000 0.88920  0.43500  0.74680  Biso   1.000  H
  H6       1.0000 0.81710  0.37220  0.85100  Biso   1.000  H
  H7       1.0000 0.72830  0.43180  0.82660  Biso   1.000  H
  H8       1.0000 0.26400  0.75460  0.84880  Biso   1.000  H
  H9       1.0000 0.33390  0.76470  0.73670  Biso   1.000  H
  H10      1.0000 0.34660  0.68340  0.76460  Biso   1.000  H
  H11      1.0000 0.28490  0.47810  0.84460  Biso   1.000  H
  H12      1.0000 0.39110  0.44410  0.25410  Biso   1.000  H
  H13      1.0000 0.28780  0.45650  0.21090  Biso   1.000  H
  H14      1.0000 0.60900  0.17670  0.16670  Biso   1.000  H
  H15      1.0000 0.66280  0.16730  0.23910  Biso   1.000  H
  H16      1.0000 0.38920  0.56500  0.25320  Biso   1.000  H
  H17      1.0000 0.31710  0.62780  0.14900  Biso   1.000  H
  H18      1.0000 0.22830  0.56820  0.17340  Biso   1.000  H
  H19      1.0000 0.76400  0.24540  0.15120  Biso   1.000  H
  H20      1.0000 0.83390  0.23530  0.26330  Biso   1.000  H
  H21      1.0000 0.84660  0.31660  0.23540  Biso   1.000  H
  H22      1.0000 0.78490  0.52190  0.15540  Biso   1.000  H
  H23      1.0000 0.64110  0.75410  0.05590  Biso   1.000  H
  H24      1.0000 0.53780  0.71090  0.04350  Biso   1.000  H
  H25      1.0000 0.85900  0.66670  0.32330  Biso   1.000  H
  H26      1.0000 0.91280  0.73910  0.33270  Biso   1.000  H
  H27      1.0000 0.63920  0.75320  0.93500  Biso   1.000  H
  H28      1.0000 0.56710  0.64900  0.87220  Biso   1.000  H
  H29      1.0000 0.47830  0.67340  0.93180  Biso   1.000  H
  H30      1.0000 0.01400  0.65120  0.25460  Biso   1.000  H
  H31      1.0000 0.08390  0.76330  0.26470  Biso   1.000  H
  H32      1.0000 0.09660  0.73540  0.18340  Biso   1.000  H
  H33      1.0000 0.03490  0.65540  0.97810  Biso   1.000  H
  H34      1.0000 0.14110  0.24590  0.94410  Biso   1.000  H
  H35      1.0000 0.03780  0.28910  0.95650  Biso   1.000  H
  H36      1.0000 0.35900  0.33330  0.67670  Biso   1.000  H
  H37      1.0000 0.41280  0.26090  0.66730  Biso   1.000  H
  H38      1.0000 0.13920  0.24680  0.06500  Biso   1.000  H
  H39      1.0000 0.06710  0.35100  0.12780  Biso   1.000  H
  H40      1.0000 0.97830  0.32660  0.06820  Biso   1.000  H
  H41      1.0000 0.51400  0.34880  0.74540  Biso   1.000  H
  H42      1.0000 0.58390  0.23670  0.73530  Biso   1.000  H
  H43      1.0000 0.59660  0.26460  0.81660  Biso   1.000  H
  H44      1.0000 0.53490  0.34460  0.02190  Biso   1.000  H
  H45      1.0000 0.85890  0.94410  0.24590  Biso   1.000  H
  H46      1.0000 0.96220  0.95650  0.28910  Biso   1.000  H
  H47      1.0000 0.64100  0.67670  0.33330  Biso   1.000  H
  H48      1.0000 0.58720  0.66730  0.26090  Biso   1.000  H
  H49      1.0000 0.86080  0.06500  0.24680  Biso   1.000  H
  H50      1.0000 0.93290  0.12780  0.35100  Biso   1.000  H
  H51      1.0000 0.02170  0.06820  0.32660  Biso   1.000  H
  H52      1.0000 0.48600  0.74540  0.34880  Biso   1.000  H
  H53      1.0000 0.41610  0.73530  0.23670  Biso   1.000  H
  H54      1.0000 0.40340  0.81660  0.26460  Biso   1.000  H
  H55      1.0000 0.46510  0.02190  0.34460  Biso   1.000  H
  H56      1.0000 0.35890  0.05590  0.75410  Biso   1.000  H
  H57      1.0000 0.46220  0.04350  0.71090  Biso   1.000  H
  H58      1.0000 0.14100  0.32330  0.66670  Biso   1.000  H
  H59      1.0000 0.08720  0.33270  0.73910  Biso   1.000  H
  H60      1.0000 0.36080  0.93500  0.75320  Biso   1.000  H
  H61      1.0000 0.43290  0.87220  0.64900  Biso   1.000  H
  H62      1.0000 0.52170  0.93180  0.67340  Biso   1.000  H
  H63      1.0000 0.98600  0.25460  0.65120  Biso   1.000  H
  H64      1.0000 0.91610  0.26470  0.76330  Biso   1.000  H
  H65      1.0000 0.90340  0.18340  0.73540  Biso   1.000  H
  H66      1.0000 0.96510  0.97810  0.65540  Biso   1.000  H
  H67      1.0000 0.10890  0.74590  0.55590  Biso   1.000  H
  H68      1.0000 0.21220  0.78910  0.54350  Biso   1.000  H
  H69      1.0000 0.89100  0.83330  0.82330  Biso   1.000  H
  H70      1.0000 0.83720  0.76090  0.83270  Biso   1.000  H
  H71      1.0000 0.11080  0.74680  0.43500  Biso   1.000  H
  H72      1.0000 0.18290  0.85100  0.37220  Biso   1.000  H
  H73      1.0000 0.27170  0.82660  0.43180  Biso   1.000  H
  H74      1.0000 0.73600  0.84880  0.75460  Biso   1.000  H
  H75      1.0000 0.66610  0.73670  0.76470  Biso   1.000  H
  H76      1.0000 0.65340  0.76460  0.68340  Biso   1.000  H
  H77      1.0000 0.71510  0.84460  0.47810  Biso   1.000  H
  H78      1.0000 0.60890  0.25410  0.44410  Biso   1.000  H
  H79      1.0000 0.71220  0.21090  0.45650  Biso   1.000  H
  H80      1.0000 0.39100  0.16670  0.17670  Biso   1.000  H
  H81      1.0000 0.33720  0.23910  0.16730  Biso   1.000  H
  H82      1.0000 0.61080  0.25320  0.56500  Biso   1.000  H
  H83      1.0000 0.68290  0.14900  0.62780  Biso   1.000  H
  H84      1.0000 0.77170  0.17340  0.56820  Biso   1.000  H
  H85      1.0000 0.23600  0.15120  0.24540  Biso   1.000  H
  H86      1.0000 0.16610  0.26330  0.23530  Biso   1.000  H
  H87      1.0000 0.15340  0.23540  0.31660  Biso   1.000  H
  H88      1.0000 0.21510  0.15540  0.52190  Biso   1.000  H
  C1       1.0000 0.00900  0.44800  0.82700  Biso   1.000  C
  C2       1.0000 0.89400  0.45870  0.79510  Biso   1.000  C
  C3       1.0000 0.80400  0.42470  0.84770  Biso   1.000  C
  C4       1.0000 0.80500  0.45680  0.92430  Biso   1.000  C
  C5       1.0000 0.15000  0.67370  0.84060  Biso   1.000  C
  C6       1.0000 0.21400  0.73670  0.80900  Biso   1.000  C
  C7       1.0000 0.29200  0.71980  0.74520  Biso   1.000  C
  C8       1.0000 0.22900  0.69500  0.68500  Biso   1.000  C
  C9       1.0000 0.50900  0.55200  0.17300  Biso   1.000  C
  C10      1.0000 0.39400  0.54130  0.20490  Biso   1.000  C
  C11      1.0000 0.30400  0.57530  0.15230  Biso   1.000  C
  C12      1.0000 0.30500  0.54320  0.07570  Biso   1.000  C
  C13      1.0000 0.65000  0.32630  0.15940  Biso   1.000  C
  C14      1.0000 0.71400  0.26330  0.19100  Biso   1.000  C
  C15      1.0000 0.79200  0.28020  0.25480  Biso   1.000  C
  C16      1.0000 0.72900  0.30500  0.31500  Biso   1.000  C
  C17      1.0000 0.75900  0.67300  0.94800  Biso   1.000  C
  C18      1.0000 0.64400  0.70490  0.95870  Biso   1.000  C
  C19      1.0000 0.55400  0.65230  0.92470  Biso   1.000  C
  C20      1.0000 0.55500  0.57570  0.95680  Biso   1.000  C
  C21      1.0000 0.90000  0.65940  0.17370  Biso   1.000  C
  C22      1.0000 0.96400  0.69100  0.23670  Biso   1.000  C
  C23      1.0000 0.04200  0.75480  0.21980  Biso   1.000  C
  C24      1.0000 0.97900  0.81500  0.19500  Biso   1.000  C
  C25      1.0000 0.25900  0.32700  0.05200  Biso   1.000  C
  C26      1.0000 0.14400  0.29510  0.04130  Biso   1.000  C
  C27      1.0000 0.05400  0.34770  0.07530  Biso   1.000  C
  C28      1.0000 0.05500  0.42430  0.04320  Biso   1.000  C
  C29      1.0000 0.40000  0.34060  0.82630  Biso   1.000  C
  C30      1.0000 0.46400  0.30900  0.76330  Biso   1.000  C
  C31      1.0000 0.54200  0.24520  0.78020  Biso   1.000  C
  C32      1.0000 0.47900  0.18500  0.80500  Biso   1.000  C
  C33      1.0000 0.74100  0.05200  0.32700  Biso   1.000  C
  C34      1.0000 0.85600  0.04130  0.29510  Biso   1.000  C
  C35      1.0000 0.94600  0.07530  0.34770  Biso   1.000  C
  C36      1.0000 0.94500  0.04320  0.42430  Biso   1.000  C
  C37      1.0000 0.60000  0.82630  0.34060  Biso   1.000  C
  C38      1.0000 0.53600  0.76330  0.30900  Biso   1.000  C
  C39      1.0000 0.45800  0.78020  0.24520  Biso   1.000  C
  C40      1.0000 0.52100  0.80500  0.18500  Biso   1.000  C
  C41      1.0000 0.24100  0.94800  0.67300  Biso   1.000  C
  C42      1.0000 0.35600  0.95870  0.70490  Biso   1.000  C
  C43      1.0000 0.44600  0.92470  0.65230  Biso   1.000  C
  C44      1.0000 0.44500  0.95680  0.57570  Biso   1.000  C
  C45      1.0000 0.10000  0.17370  0.65940  Biso   1.000  C
  C46      1.0000 0.03600  0.23670  0.69100  Biso   1.000  C
  C47      1.0000 0.95800  0.21980  0.75480  Biso   1.000  C
  C48      1.0000 0.02100  0.19500  0.81500  Biso   1.000  C
  C49      1.0000 0.99100  0.82700  0.44800  Biso   1.000  C
  C50      1.0000 0.10600  0.79510  0.45870  Biso   1.000  C
  C51      1.0000 0.19600  0.84770  0.42470  Biso   1.000  C
  C52      1.0000 0.19500  0.92430  0.45680  Biso   1.000  C
  C53      1.0000 0.85000  0.84060  0.67370  Biso   1.000  C
  C54      1.0000 0.78600  0.80900  0.73670  Biso   1.000  C
  C55      1.0000 0.70800  0.74520  0.71980  Biso   1.000  C
  C56      1.0000 0.77100  0.68500  0.69500  Biso   1.000  C
  C57      1.0000 0.49100  0.17300  0.55200  Biso   1.000  C
  C58      1.0000 0.60600  0.20490  0.54130  Biso   1.000  C
  C59      1.0000 0.69600  0.15230  0.57530  Biso   1.000  C
  C60      1.0000 0.69500  0.07570  0.54320  Biso   1.000  C
  C61      1.0000 0.35000  0.15940  0.32630  Biso   1.000  C
  C62      1.0000 0.28600  0.19100  0.26330  Biso   1.000  C
  C63      1.0000 0.20800  0.25480  0.28020  Biso   1.000  C
  C64      1.0000 0.27100  0.31500  0.30500  Biso   1.000  C
  N1       1.0000 0.86410  0.53780  0.78860  Biso   1.000  N
  N2       1.0000 0.13100  0.80000  0.79210  Biso   1.000  N
  N3       1.0000 0.36410  0.46220  0.21140  Biso   1.000  N
  N4       1.0000 0.63100  0.20000  0.20790  Biso   1.000  N
  N5       1.0000 0.61410  0.71140  0.03780  Biso   1.000  N
  N6       1.0000 0.88100  0.70790  0.30000  Biso   1.000  N
  N7       1.0000 0.11410  0.28860  0.96220  Biso   1.000  N
  N8       1.0000 0.38100  0.29210  0.70000  Biso   1.000  N
  N9       1.0000 0.88590  0.96220  0.28860  Biso   1.000  N
  N10      1.0000 0.61900  0.70000  0.29210  Biso   1.000  N
  N11      1.0000 0.38590  0.03780  0.71140  Biso   1.000  N
  N12      1.0000 0.11900  0.30000  0.70790  Biso   1.000  N
  N13      1.0000 0.13590  0.78860  0.53780  Biso   1.000  N
  N14      1.0000 0.86900  0.79210  0.80000  Biso   1.000  N
  N15      1.0000 0.63590  0.21140  0.46220  Biso   1.000  N
  N16      1.0000 0.36900  0.20790  0.20000  Biso   1.000  N
  O1       1.0000 0.05460  0.51390  0.85140  Biso   1.000  O
  O2       1.0000 0.05830  0.39120  0.83550  Biso   1.000  O
  O3       1.0000 0.74830  0.41870  0.97210  Biso   1.000  O
  O4       1.0000 0.85310  0.51500  0.94320  Biso   1.000  O
  O5       1.0000 0.04390  0.67170  0.82450  Biso   1.000  O
  O6       1.0000 0.20940  0.63110  0.87910  Biso   1.000  O
  O7       1.0000 0.11860  0.69590  0.68010  Biso   1.000  O
  O8       1.0000 0.28200  0.65500  0.63400  Biso   1.000  O
  O9       1.0000 0.27320  0.47070  0.89770  Biso   1.000  O
  O10      1.0000 0.55460  0.48610  0.14860  Biso   1.000  O
  O11      1.0000 0.55830  0.60880  0.16450  Biso   1.000  O
  O12      1.0000 0.24830  0.58130  0.02790  Biso   1.000  O
  O13      1.0000 0.35310  0.48500  0.05680  Biso   1.000  O
  O14      1.0000 0.54390  0.32830  0.17550  Biso   1.000  O
  O15      1.0000 0.70940  0.36890  0.12090  Biso   1.000  O
  O16      1.0000 0.61860  0.30410  0.31990  Biso   1.000  O
  O17      1.0000 0.78200  0.34500  0.36600  Biso   1.000  O
  O18      1.0000 0.77320  0.52930  0.10230  Biso   1.000  O
  O19      1.0000 0.80460  0.64860  0.01390  Biso   1.000  O
  O20      1.0000 0.80830  0.66450  0.89120  Biso   1.000  O
  O21      1.0000 0.49830  0.52790  0.91870  Biso   1.000  O
  O22      1.0000 0.60310  0.55680  0.01500  Biso   1.000  O
  O23      1.0000 0.79390  0.67550  0.17170  Biso   1.000  O
  O24      1.0000 0.95940  0.62090  0.13110  Biso   1.000  O
  O25      1.0000 0.86860  0.81990  0.19590  Biso   1.000  O
  O26      1.0000 0.03200  0.86600  0.15500  Biso   1.000  O
  O27      1.0000 0.02320  0.60230  0.97070  Biso   1.000  O
  O28      1.0000 0.30460  0.35140  0.98610  Biso   1.000  O
  O29      1.0000 0.30830  0.33550  0.10880  Biso   1.000  O
  O30      1.0000 0.99830  0.47210  0.08130  Biso   1.000  O
  O31      1.0000 0.10310  0.44320  0.98500  Biso   1.000  O
  O32      1.0000 0.29390  0.32450  0.82830  Biso   1.000  O
  O33      1.0000 0.45940  0.37910  0.86890  Biso   1.000  O
  O34      1.0000 0.36860  0.18010  0.80410  Biso   1.000  O
  O35      1.0000 0.53200  0.13400  0.84500  Biso   1.000  O
  O36      1.0000 0.52320  0.39770  0.02930  Biso   1.000  O
  O37      1.0000 0.69540  0.98610  0.35140  Biso   1.000  O
  O38      1.0000 0.69170  0.10880  0.33550  Biso   1.000  O
  O39      1.0000 0.00170  0.08130  0.47210  Biso   1.000  O
  O40      1.0000 0.89690  0.98500  0.44320  Biso   1.000  O
  O41      1.0000 0.70610  0.82830  0.32450  Biso   1.000  O
  O42      1.0000 0.54060  0.86890  0.37910  Biso   1.000  O
  O43      1.0000 0.63140  0.80410  0.18010  Biso   1.000  O
  O44      1.0000 0.46800  0.84500  0.13400  Biso   1.000  O
  O45      1.0000 0.47680  0.02930  0.39770  Biso   1.000  O
  O46      1.0000 0.19540  0.01390  0.64860  Biso   1.000  O
  O47      1.0000 0.19170  0.89120  0.66450  Biso   1.000  O
  O48      1.0000 0.50170  0.91870  0.52790  Biso   1.000  O
  O49      1.0000 0.39690  0.01500  0.55680  Biso   1.000  O
  O50      1.0000 0.20610  0.17170  0.67550  Biso   1.000  O
  O51      1.0000 0.04060  0.13110  0.62090  Biso   1.000  O
  O52      1.0000 0.13140  0.19590  0.81990  Biso   1.000  O
  O53      1.0000 0.96800  0.15500  0.86600  Biso   1.000  O
  O54      1.0000 0.97680  0.97070  0.60230  Biso   1.000  O
  O55      1.0000 0.94540  0.85140  0.51390  Biso   1.000  O
  O56      1.0000 0.94170  0.83550  0.39120  Biso   1.000  O
  O57      1.0000 0.25170  0.97210  0.41870  Biso   1.000  O
  O58      1.0000 0.14690  0.94320  0.51500  Biso   1.000  O
  O59      1.0000 0.95610  0.82450  0.67170  Biso   1.000  O
  O60      1.0000 0.79060  0.87910  0.63110  Biso   1.000  O
  O61      1.0000 0.88140  0.68010  0.69590  Biso   1.000  O
  O62      1.0000 0.71800  0.63400  0.65500  Biso   1.000  O
  O63      1.0000 0.72680  0.89770  0.47070  Biso   1.000  O
  O64      1.0000 0.44540  0.14860  0.48610  Biso   1.000  O
  O65      1.0000 0.44170  0.16450  0.60880  Biso   1.000  O
  O66      1.0000 0.75170  0.02790  0.58130  Biso   1.000  O
  O67      1.0000 0.64690  0.05680  0.48500  Biso   1.000  O
  O68      1.0000 0.45610  0.17550  0.32830  Biso   1.000  O
  O69      1.0000 0.29060  0.12090  0.36890  Biso   1.000  O
  O70      1.0000 0.38140  0.31990  0.30410  Biso   1.000  O
  O71      1.0000 0.21800  0.36600  0.34500  Biso   1.000  O
  O72      1.0000 0.22680  0.10230  0.52930  Biso   1.000  O
