data_image0
_cell_length_a       20.6536
_cell_length_b       20.7926
_cell_length_c       33.4974
_cell_angle_alpha    90
_cell_angle_beta     90
_cell_angle_gamma    118.619

_symmetry_space_group_name_H-M    P 1
_symmetry_int_tables_number       1

loop_
  _symmetry_equiv_pos_as_xyz
  'x, y, z'

loop_
  _atom_site_label
  _atom_site_occupancy
  _atom_site_fract_x
  _atom_site_fract_y
  _atom_site_fract_z
  _atom_site_thermal_displace_type
  _atom_site_B_iso_or_equiv
  _atom_site_type_symbol
  Zn1      1.0000 0.65136  0.80815  0.00194  Biso   1.000  Zn
  Zn2      1.0000 0.84797  0.19625  0.93903  Biso   1.000  Zn
  Zn3      1.0000 0.74727  0.00521  0.97003  Biso   1.000  Zn
  Zn4      1.0000 0.34864  0.19185  0.50194  Biso   1.000  Zn
  Zn5      1.0000 0.15203  0.80375  0.43903  Biso   1.000  Zn
  Zn6      1.0000 0.25273  0.99479  0.47003  Biso   1.000  Zn
  C1       1.0000 0.79040  0.14410  0.01350  Biso   1.000  C
  C2       1.0000 0.79120  0.14440  0.05910  Biso   1.000  C
  C3       1.0000 0.85050  0.20040  0.08000  Biso   1.000  C
  C4       1.0000 0.85450  0.19900  0.11910  Biso   1.000  C
  C5       1.0000 0.79850  0.14450  0.14220  Biso   1.000  C
  C6       1.0000 0.74300  0.08980  0.12260  Biso   1.000  C
  C7       1.0000 0.73830  0.09010  0.08010  Biso   1.000  C
  C8       1.0000 0.28490  0.91100  0.40830  Biso   1.000  C
  C9       1.0000 0.36040  0.94170  0.39250  Biso   1.000  C
  C10      1.0000 0.38750  0.89380  0.38670  Biso   1.000  C
  C11      1.0000 0.46810  0.92810  0.37480  Biso   1.000  C
  C12      1.0000 0.50530  0.00020  0.36470  Biso   1.000  C
  C13      1.0000 0.47350  0.04330  0.36930  Biso   1.000  C
  C14      1.0000 0.40140  0.01450  0.38350  Biso   1.000  C
  C15      1.0000 0.29940  0.14080  0.42460  Biso   1.000  C
  C16      1.0000 0.30520  0.14170  0.38280  Biso   1.000  C
  C17      1.0000 0.24460  0.08720  0.35860  Biso   1.000  C
  C18      1.0000 0.24630  0.08650  0.31850  Biso   1.000  C
  C19      1.0000 0.31090  0.14320  0.29800  Biso   1.000  C
  C20      1.0000 0.36790  0.19280  0.32030  Biso   1.000  C
  C21      1.0000 0.36300  0.19350  0.36350  Biso   1.000  C
  C22      1.0000 0.78010  0.91940  0.03540  Biso   1.000  C
  C23      1.0000 0.85550  0.94960  0.05140  Biso   1.000  C
  C24      1.0000 0.89160  0.90540  0.05740  Biso   1.000  C
  C25      1.0000 0.96050  0.93210  0.07180  Biso   1.000  C
  C26      1.0000 0.00320  0.00960  0.07840  Biso   1.000  C
  C27      1.0000 0.96830  0.05330  0.07510  Biso   1.000  C
  C28      1.0000 0.89490  0.02510  0.06160  Biso   1.000  C
  C29      1.0000 0.07970  0.04310  0.09040  Biso   1.000  C
  C30      1.0000 0.12490  0.01570  0.07420  Biso   1.000  C
  C31      1.0000 0.20140  0.04980  0.08520  Biso   1.000  C
  C32      1.0000 0.23110  0.11030  0.11059  Biso   1.000  C
  C33      1.0000 0.18630  0.13360  0.12880  Biso   1.000  C
  C34      1.0000 0.11200  0.09870  0.11860  Biso   1.000  C
  C35      1.0000 0.80460  0.14550  0.18610  Biso   1.000  C
  C36      1.0000 0.83530  0.21030  0.20990  Biso   1.000  C
  C37      1.0000 0.84430  0.21140  0.24780  Biso   1.000  C
  C38      1.0000 0.81490  0.14570  0.27100  Biso   1.000  C
  C39      1.0000 0.77910  0.07930  0.24940  Biso   1.000  C
  C40      1.0000 0.77690  0.07890  0.20770  Biso   1.000  C
  C41      1.0000 0.85340  0.22170  0.33340  Biso   1.000  C
  C42      1.0000 0.92340  0.26190  0.33100  Biso   1.000  C
  C43      1.0000 0.96290  0.33750  0.34580  Biso   1.000  C
  C44      1.0000 0.92110  0.36510  0.36460  Biso   1.000  C
  C45      1.0000 0.84730  0.32130  0.36960  Biso   1.000  C
  C46      1.0000 0.81130  0.24950  0.35490  Biso   1.000  C
  C47      1.0000 0.73450  0.09940  0.33070  Biso   1.000  C
  C48      1.0000 0.68460  0.12330  0.31300  Biso   1.000  C
  C49      1.0000 0.70700  0.04290  0.35410  Biso   1.000  C
  C50      1.0000 0.31310  0.14940  0.12280  Biso   1.000  C
  C51      1.0000 0.35240  0.10920  0.10580  Biso   1.000  C
  C52      1.0000 0.36740  0.11220  0.06390  Biso   1.000  C
  C53      1.0000 0.40290  0.07590  0.04780  Biso   1.000  C
  C54      1.0000 0.42480  0.03650  0.06930  Biso   1.000  C
  C55      1.0000 0.41280  0.02980  0.11220  Biso   1.000  C
  C56      1.0000 0.37470  0.06380  0.12810  Biso   1.000  C
  C57      1.0000 0.35400  0.22700  0.10460  Biso   1.000  C
  C58      1.0000 0.32240  0.26100  0.08790  Biso   1.000  C
  C59      1.0000 0.36250  0.33300  0.07340  Biso   1.000  C
  C60      1.0000 0.43950  0.37190  0.07620  Biso   1.000  C
  C61      1.0000 0.47440  0.33600  0.09430  Biso   1.000  C
  C62      1.0000 0.43340  0.26640  0.11060  Biso   1.000  C
  C63      1.0000 0.48410  0.44390  0.05930  Biso   1.000  C
  C64      1.0000 0.45270  0.49460  0.05970  Biso   1.000  C
  C65      1.0000 0.49870  0.56680  0.04420  Biso   1.000  C
  C66      1.0000 0.56760  0.58490  0.03080  Biso   1.000  C
  C67      1.0000 0.59550  0.53840  0.02970  Biso   1.000  C
  C68      1.0000 0.55170  0.46690  0.04490  Biso   1.000  C
  C69      1.0000 0.31300  0.14360  0.25350  Biso   1.000  C
  C70      1.0000 0.27060  0.08060  0.22760  Biso   1.000  C
  C71      1.0000 0.35430  0.20940  0.23310  Biso   1.000  C
  C72      1.0000 0.58200  0.02980  0.35020  Biso   1.000  C
  C73      1.0000 0.60870  0.08860  0.32290  Biso   1.000  C
  C74      1.0000 0.63270  0.00710  0.36640  Biso   1.000  C
  C75      1.0000 0.81680  0.14440  0.31700  Biso   1.000  C
  C76      1.0000 0.85800  0.10520  0.33420  Biso   1.000  C
  C77      1.0000 0.87040  0.10840  0.37420  Biso   1.000  C
  C78      1.0000 0.90730  0.07480  0.39220  Biso   1.000  C
  C79      1.0000 0.93750  0.04080  0.36830  Biso   1.000  C
  C80      1.0000 0.92830  0.04110  0.32870  Biso   1.000  C
  C81      1.0000 0.89190  0.07590  0.30960  Biso   1.000  C
  C82      1.0000 0.97580  0.00210  0.38580  Biso   1.000  C
  C83      1.0000 0.97620  0.94300  0.36800  Biso   1.000  C
  C84      1.0000 0.46680  0.00060  0.05110  Biso   1.000  C
  C85      1.0000 0.45860  0.93370  0.06480  Biso   1.000  C
  C86      1.0000 0.31580  0.14850  0.16830  Biso   1.000  C
  C87      1.0000 0.35450  0.21090  0.19070  Biso   1.000  C
  C88      1.0000 0.27420  0.08180  0.19110  Biso   1.000  C
  C89      1.0000 0.59200  0.90500  0.00250  Biso   1.000  C
  C90      1.0000 0.49600  0.90270  0.05040  Biso   1.000  C
  C91      1.0000 0.54580  0.93650  0.01780  Biso   1.000  C
  C92      1.0000 0.55510  0.00300  0.00280  Biso   1.000  C
  C93      1.0000 0.51410  0.03260  0.02030  Biso   1.000  C
  C94      1.0000 0.10000  0.90440  0.43870  Biso   1.000  C
  C95      1.0000 0.01740  0.91100  0.38350  Biso   1.000  C
  C96      1.0000 0.05760  0.93740  0.41860  Biso   1.000  C
  C97      1.0000 0.05820  0.99990  0.43810  Biso   1.000  C
  C98      1.0000 0.01610  0.02940  0.42220  Biso   1.000  C
  C99      1.0000 0.95370  0.43660  0.38450  Biso   1.000  C
  C100     1.0000 0.92070  0.44770  0.41810  Biso   1.000  C
  C101     1.0000 0.94900  0.51730  0.43460  Biso   1.000  C
  C102     1.0000 0.01040  0.57580  0.41760  Biso   1.000  C
  C103     1.0000 0.04330  0.56470  0.38410  Biso   1.000  C
  C104     1.0000 0.01500  0.49510  0.36750  Biso   1.000  C
  C105     1.0000 0.61680  0.66960  0.01710  Biso   1.000  C
  C106     1.0000 0.04860  0.65650  0.43300  Biso   1.000  C
  C107     1.0000 0.20960  0.85590  0.51350  Biso   1.000  C
  C108     1.0000 0.20880  0.85560  0.55910  Biso   1.000  C
  C109     1.0000 0.14950  0.79960  0.58000  Biso   1.000  C
  C110     1.0000 0.14550  0.80100  0.61910  Biso   1.000  C
  C111     1.0000 0.20150  0.85550  0.64220  Biso   1.000  C
  C112     1.0000 0.25700  0.91020  0.62260  Biso   1.000  C
  C113     1.0000 0.26170  0.90990  0.58010  Biso   1.000  C
  C114     1.0000 0.71510  0.08900  0.90830  Biso   1.000  C
  C115     1.0000 0.63960  0.05830  0.89250  Biso   1.000  C
  C116     1.0000 0.61250  0.10620  0.88670  Biso   1.000  C
  C117     1.0000 0.53190  0.07190  0.87480  Biso   1.000  C
  C118     1.0000 0.49470  0.99980  0.86470  Biso   1.000  C
  C119     1.0000 0.52650  0.95670  0.86930  Biso   1.000  C
  C120     1.0000 0.59860  0.98550  0.88350  Biso   1.000  C
  C121     1.0000 0.70060  0.85920  0.92460  Biso   1.000  C
  C122     1.0000 0.69480  0.85830  0.88280  Biso   1.000  C
  C123     1.0000 0.75540  0.91280  0.85860  Biso   1.000  C
  C124     1.0000 0.75370  0.91350  0.81850  Biso   1.000  C
  C125     1.0000 0.68910  0.85680  0.79800  Biso   1.000  C
  C126     1.0000 0.63210  0.80720  0.82030  Biso   1.000  C
  C127     1.0000 0.63700  0.80650  0.86350  Biso   1.000  C
  C128     1.0000 0.21990  0.08060  0.53540  Biso   1.000  C
  C129     1.0000 0.14450  0.05040  0.55140  Biso   1.000  C
  C130     1.0000 0.10840  0.09460  0.55740  Biso   1.000  C
  C131     1.0000 0.03950  0.06790  0.57180  Biso   1.000  C
  C132     1.0000 0.99680  0.99040  0.57840  Biso   1.000  C
  C133     1.0000 0.03170  0.94670  0.57510  Biso   1.000  C
  C134     1.0000 0.10510  0.97490  0.56160  Biso   1.000  C
  C135     1.0000 0.92030  0.95690  0.59040  Biso   1.000  C
  C136     1.0000 0.87510  0.98430  0.57420  Biso   1.000  C
  C137     1.0000 0.79860  0.95020  0.58520  Biso   1.000  C
  C138     1.0000 0.76890  0.88970  0.61059  Biso   1.000  C
  C139     1.0000 0.81370  0.86640  0.62880  Biso   1.000  C
  C140     1.0000 0.88800  0.90130  0.61860  Biso   1.000  C
  C141     1.0000 0.19540  0.85450  0.68610  Biso   1.000  C
  C142     1.0000 0.16470  0.78970  0.70990  Biso   1.000  C
  C143     1.0000 0.15570  0.78860  0.74780  Biso   1.000  C
  C144     1.0000 0.18510  0.85430  0.77100  Biso   1.000  C
  C145     1.0000 0.22090  0.92070  0.74940  Biso   1.000  C
  C146     1.0000 0.22310  0.92110  0.70770  Biso   1.000  C
  C147     1.0000 0.14660  0.77830  0.83340  Biso   1.000  C
  C148     1.0000 0.07660  0.73810  0.83100  Biso   1.000  C
  C149     1.0000 0.03710  0.66250  0.84580  Biso   1.000  C
  C150     1.0000 0.07890  0.63490  0.86460  Biso   1.000  C
  C151     1.0000 0.15270  0.67870  0.86960  Biso   1.000  C
  C152     1.0000 0.18870  0.75050  0.85490  Biso   1.000  C
  C153     1.0000 0.26550  0.90060  0.83070  Biso   1.000  C
  C154     1.0000 0.31540  0.87670  0.81300  Biso   1.000  C
  C155     1.0000 0.29300  0.95710  0.85410  Biso   1.000  C
  C156     1.0000 0.68690  0.85060  0.62280  Biso   1.000  C
  C157     1.0000 0.64760  0.89080  0.60580  Biso   1.000  C
  C158     1.0000 0.63260  0.88780  0.56390  Biso   1.000  C
  C159     1.0000 0.59710  0.92410  0.54780  Biso   1.000  C
  C160     1.0000 0.57520  0.96350  0.56930  Biso   1.000  C
  C161     1.0000 0.58720  0.97020  0.61220  Biso   1.000  C
  C162     1.0000 0.62530  0.93620  0.62810  Biso   1.000  C
  C163     1.0000 0.64600  0.77300  0.60460  Biso   1.000  C
  C164     1.0000 0.67760  0.73900  0.58790  Biso   1.000  C
  C165     1.0000 0.63750  0.66700  0.57340  Biso   1.000  C
  C166     1.0000 0.56050  0.62810  0.57620  Biso   1.000  C
  C167     1.0000 0.52560  0.66400  0.59430  Biso   1.000  C
  C168     1.0000 0.56660  0.73360  0.61060  Biso   1.000  C
  C169     1.0000 0.51590  0.55610  0.55930  Biso   1.000  C
  C170     1.0000 0.54730  0.50540  0.55970  Biso   1.000  C
  C171     1.0000 0.50130  0.43320  0.54420  Biso   1.000  C
  C172     1.0000 0.43240  0.41510  0.53080  Biso   1.000  C
  C173     1.0000 0.40450  0.46160  0.52970  Biso   1.000  C
  C174     1.0000 0.44830  0.53310  0.54490  Biso   1.000  C
  C175     1.0000 0.68700  0.85640  0.75350  Biso   1.000  C
  C176     1.0000 0.72940  0.91940  0.72760  Biso   1.000  C
  C177     1.0000 0.64570  0.79060  0.73310  Biso   1.000  C
  C178     1.0000 0.41800  0.97020  0.85020  Biso   1.000  C
  C179     1.0000 0.39130  0.91140  0.82290  Biso   1.000  C
  C180     1.0000 0.36730  0.99290  0.86640  Biso   1.000  C
  C181     1.0000 0.18320  0.85560  0.81700  Biso   1.000  C
  C182     1.0000 0.14200  0.89480  0.83420  Biso   1.000  C
  C183     1.0000 0.12960  0.89160  0.87420  Biso   1.000  C
  C184     1.0000 0.09270  0.92520  0.89220  Biso   1.000  C
  C185     1.0000 0.06250  0.95920  0.86830  Biso   1.000  C
  C186     1.0000 0.07170  0.95890  0.82870  Biso   1.000  C
  C187     1.0000 0.10810  0.92410  0.80960  Biso   1.000  C
  C188     1.0000 0.02420  0.99790  0.88580  Biso   1.000  C
  C189     1.0000 0.02380  0.05700  0.86800  Biso   1.000  C
  C190     1.0000 0.53320  0.99940  0.55110  Biso   1.000  C
  C191     1.0000 0.54140  0.06630  0.56480  Biso   1.000  C
  C192     1.0000 0.68420  0.85150  0.66830  Biso   1.000  C
  C193     1.0000 0.64550  0.78910  0.69070  Biso   1.000  C
  C194     1.0000 0.72580  0.91820  0.69110  Biso   1.000  C
  C195     1.0000 0.40800  0.09500  0.50250  Biso   1.000  C
  C196     1.0000 0.50400  0.09730  0.55040  Biso   1.000  C
  C197     1.0000 0.45420  0.06350  0.51780  Biso   1.000  C
  C198     1.0000 0.44490  0.99700  0.50280  Biso   1.000  C
  C199     1.0000 0.48590  0.96740  0.52030  Biso   1.000  C
  C200     1.0000 0.90000  0.09560  0.93870  Biso   1.000  C
  C201     1.0000 0.98260  0.08900  0.88350  Biso   1.000  C
  C202     1.0000 0.94240  0.06260  0.91860  Biso   1.000  C
  C203     1.0000 0.94180  0.00010  0.93810  Biso   1.000  C
  C204     1.0000 0.98390  0.97060  0.92220  Biso   1.000  C
  C205     1.0000 0.04630  0.56340  0.88450  Biso   1.000  C
  C206     1.0000 0.07930  0.55230  0.91810  Biso   1.000  C
  C207     1.0000 0.05100  0.48270  0.93460  Biso   1.000  C
  C208     1.0000 0.98960  0.42420  0.91760  Biso   1.000  C
  C209     1.0000 0.95670  0.43530  0.88410  Biso   1.000  C
  C210     1.0000 0.98500  0.50490  0.86750  Biso   1.000  C
  C211     1.0000 0.38320  0.33040  0.51710  Biso   1.000  C
  C212     1.0000 0.95140  0.34350  0.93300  Biso   1.000  C
  O1       1.0000 0.34910  0.19840  0.44547  Biso   1.000  O
  O2       1.0000 0.24890  0.08550  0.44310  Biso   1.000  O
  O3       1.0000 0.24540  0.84170  0.41080  Biso   1.000  O
  O4       1.0000 0.26060  0.95610  0.41646  Biso   1.000  O
  O5       1.0000 0.14060  0.93650  0.46606  Biso   1.000  O
  O6       1.0000 0.09210  0.84530  0.42038  Biso   1.000  O
  O7       1.0000 0.58720  0.84870  0.01788  Biso   1.000  O
  O8       1.0000 0.63610  0.93970  0.97509  Biso   1.000  O
  O9       1.0000 0.74230  0.08790  0.99757  Biso   1.000  O
  O10      1.0000 0.83760  0.20080  0.99609  Biso   1.000  O
  O11      1.0000 0.74290  0.84950  0.03201  Biso   1.000  O
  O12      1.0000 0.75740  0.96430  0.02565  Biso   1.000  O
  O13      1.0000 0.10470  0.70540  0.41906  Biso   1.000  O
  O14      1.0000 0.59160  0.70880  0.02244  Biso   1.000  O
  O15      1.0000 0.67310  0.68150  0.99853  Biso   1.000  O
  O16      1.0000 0.01350  0.66810  0.46460  Biso   1.000  O
  O17      1.0000 0.65090  0.80160  0.94547  Biso   1.000  O
  O18      1.0000 0.75110  0.91450  0.94310  Biso   1.000  O
  O19      1.0000 0.75460  0.15830  0.91080  Biso   1.000  O
  O20      1.0000 0.73940  0.04390  0.91646  Biso   1.000  O
  O21      1.0000 0.85940  0.06350  0.96606  Biso   1.000  O
  O22      1.0000 0.90790  0.15470  0.92038  Biso   1.000  O
  O23      1.0000 0.41280  0.15130  0.51788  Biso   1.000  O
  O24      1.0000 0.36390  0.06030  0.47509  Biso   1.000  O
  O25      1.0000 0.25770  0.91210  0.49757  Biso   1.000  O
  O26      1.0000 0.16240  0.79920  0.49609  Biso   1.000  O
  O27      1.0000 0.25710  0.15050  0.53201  Biso   1.000  O
  O28      1.0000 0.24260  0.03570  0.52565  Biso   1.000  O
  O29      1.0000 0.89530  0.29460  0.91906  Biso   1.000  O
  O30      1.0000 0.40840  0.29120  0.52244  Biso   1.000  O
  O31      1.0000 0.32690  0.31850  0.49853  Biso   1.000  O
  O32      1.0000 0.98650  0.33190  0.96460  Biso   1.000  O
