data_image0
_cell_length_a       17.125
_cell_length_b       22.1015
_cell_length_c       24.938
_cell_angle_alpha    90
_cell_angle_beta     90
_cell_angle_gamma    112.794

_symmetry_space_group_name_H-M    P 1
_symmetry_int_tables_number       1

loop_
  _symmetry_equiv_pos_as_xyz
  'x, y, z'

loop_
  _atom_site_label
  _atom_site_occupancy
  _atom_site_fract_x
  _atom_site_fract_y
  _atom_site_fract_z
  _atom_site_thermal_displace_type
  _atom_site_B_iso_or_equiv
  _atom_site_type_symbol
  Cd1      1.0000 0.75000  0.50000  0.93226  Biso   1.000  Cd
  Cd2      1.0000 0.25000  0.50000  0.43226  Biso   1.000  Cd
  Cd3      1.0000 0.75000  1.00000  0.43929  Biso   1.000  Cd
  Cd4      1.0000 0.75000  1.00000  0.93929  Biso   1.000  Cd
  H1       1.0000 0.77530  0.87720  0.49450  Biso   1.000  H
  H2       1.0000 0.72580  0.80040  0.56170  Biso   1.000  H
  H3       1.0000 0.56290  0.88020  0.59980  Biso   1.000  H
  H4       1.0000 0.61480  0.95220  0.53090  Biso   1.000  H
  H5       1.0000 0.64990  0.72140  0.61450  Biso   1.000  H
  H6       1.0000 0.70410  0.77000  0.65910  Biso   1.000  H
  H7       1.0000 0.47620  0.68980  0.65400  Biso   1.000  H
  H8       1.0000 0.46940  0.63240  0.69370  Biso   1.000  H
  H9       1.0000 0.36090  0.61840  0.61630  Biso   1.000  H
  H10      1.0000 0.27020  0.57620  0.54570  Biso   1.000  H
  H11      1.0000 0.44140  0.53860  0.46730  Biso   1.000  H
  H12      1.0000 0.53630  0.57600  0.53740  Biso   1.000  H
  H13      1.0000 0.54150  0.71520  0.76350  Biso   1.000  H
  H14      1.0000 0.54960  0.77240  0.72300  Biso   1.000  H
  H15      1.0000 0.55760  0.82100  0.80320  Biso   1.000  H
  H16      1.0000 0.59090  0.89580  0.87330  Biso   1.000  H
  H17      1.0000 0.82420  0.92960  0.86040  Biso   1.000  H
  H18      1.0000 0.79790  0.85280  0.79270  Biso   1.000  H
  H19      1.0000 0.68930  0.68740  0.72500  Biso   1.000  H
  H20      1.0000 0.64920  0.63800  0.67780  Biso   1.000  H
  H21      1.0000 0.74140  0.63320  0.76370  Biso   1.000  H
  H22      1.0000 0.79040  0.58520  0.82930  Biso   1.000  H
  H23      1.0000 0.56370  0.48040  0.87670  Biso   1.000  H
  H24      1.0000 0.50830  0.52400  0.81100  Biso   1.000  H
  H25      1.0000 0.72470  0.12280  0.49450  Biso   1.000  H
  H26      1.0000 0.77420  0.19960  0.56170  Biso   1.000  H
  H27      1.0000 0.93710  0.11980  0.59980  Biso   1.000  H
  H28      1.0000 0.88520  0.04780  0.53090  Biso   1.000  H
  H29      1.0000 0.85010  0.27860  0.61450  Biso   1.000  H
  H30      1.0000 0.79590  0.23000  0.65910  Biso   1.000  H
  H31      1.0000 0.02380  0.31020  0.65400  Biso   1.000  H
  H32      1.0000 0.03060  0.36760  0.69370  Biso   1.000  H
  H33      1.0000 0.13910  0.38160  0.61630  Biso   1.000  H
  H34      1.0000 0.22980  0.42380  0.54570  Biso   1.000  H
  H35      1.0000 0.05860  0.46140  0.46730  Biso   1.000  H
  H36      1.0000 0.96370  0.42400  0.53740  Biso   1.000  H
  H37      1.0000 0.95850  0.28480  0.76350  Biso   1.000  H
  H38      1.0000 0.95040  0.22760  0.72300  Biso   1.000  H
  H39      1.0000 0.94240  0.17900  0.80320  Biso   1.000  H
  H40      1.0000 0.90910  0.10420  0.87330  Biso   1.000  H
  H41      1.0000 0.67580  0.07040  0.86040  Biso   1.000  H
  H42      1.0000 0.70210  0.14720  0.79270  Biso   1.000  H
  H43      1.0000 0.81070  0.31260  0.72500  Biso   1.000  H
  H44      1.0000 0.85080  0.36200  0.67780  Biso   1.000  H
  H45      1.0000 0.75860  0.36680  0.76370  Biso   1.000  H
  H46      1.0000 0.70960  0.41480  0.82930  Biso   1.000  H
  H47      1.0000 0.93630  0.51960  0.87670  Biso   1.000  H
  H48      1.0000 0.99170  0.47600  0.81100  Biso   1.000  H
  H49      1.0000 0.89810  0.12280  0.99450  Biso   1.000  H
  H50      1.0000 0.92540  0.19960  0.06170  Biso   1.000  H
  H51      1.0000 0.68270  0.11980  0.09980  Biso   1.000  H
  H52      1.0000 0.66260  0.04780  0.03090  Biso   1.000  H
  H53      1.0000 0.92850  0.27860  0.11450  Biso   1.000  H
  H54      1.0000 0.93410  0.23000  0.15910  Biso   1.000  H
  H55      1.0000 0.78640  0.31020  0.15400  Biso   1.000  H
  H56      1.0000 0.83700  0.36760  0.19370  Biso   1.000  H
  H57      1.0000 0.74250  0.38160  0.11630  Biso   1.000  H
  H58      1.0000 0.69400  0.42380  0.04570  Biso   1.000  H
  H59      1.0000 0.90280  0.46140  0.96730  Biso   1.000  H
  H60      1.0000 0.96030  0.42400  0.03740  Biso   1.000  H
  H61      1.0000 0.82630  0.28480  0.26350  Biso   1.000  H
  H62      1.0000 0.77720  0.22760  0.22300  Biso   1.000  H
  H63      1.0000 0.73660  0.17900  0.30320  Biso   1.000  H
  H64      1.0000 0.69510  0.10420  0.37330  Biso   1.000  H
  H65      1.0000 0.89460  0.07040  0.36040  Biso   1.000  H
  H66      1.0000 0.94510  0.14720  0.29270  Biso   1.000  H
  H67      1.0000 0.00190  0.31260  0.22500  Biso   1.000  H
  H68      1.0000 0.01120  0.36200  0.17780  Biso   1.000  H
  H69      1.0000 0.10820  0.36680  0.26370  Biso   1.000  H
  H70      1.0000 0.20520  0.41480  0.32930  Biso   1.000  H
  H71      1.0000 0.08330  0.51960  0.37670  Biso   1.000  H
  H72      1.0000 0.98430  0.47600  0.31100  Biso   1.000  H
  H73      1.0000 0.60190  0.87720  0.99450  Biso   1.000  H
  H74      1.0000 0.57460  0.80040  0.06170  Biso   1.000  H
  H75      1.0000 0.81730  0.88020  0.09980  Biso   1.000  H
  H76      1.0000 0.83740  0.95220  0.03090  Biso   1.000  H
  H77      1.0000 0.57150  0.72140  0.11450  Biso   1.000  H
  H78      1.0000 0.56590  0.77000  0.15910  Biso   1.000  H
  H79      1.0000 0.71360  0.68980  0.15400  Biso   1.000  H
  H80      1.0000 0.66300  0.63240  0.19370  Biso   1.000  H
  H81      1.0000 0.75750  0.61840  0.11630  Biso   1.000  H
  H82      1.0000 0.80600  0.57620  0.04570  Biso   1.000  H
  H83      1.0000 0.59720  0.53860  0.96730  Biso   1.000  H
  H84      1.0000 0.53970  0.57600  0.03740  Biso   1.000  H
  H85      1.0000 0.67370  0.71520  0.26350  Biso   1.000  H
  H86      1.0000 0.72280  0.77240  0.22300  Biso   1.000  H
  H87      1.0000 0.76340  0.82100  0.30320  Biso   1.000  H
  H88      1.0000 0.80490  0.89580  0.37330  Biso   1.000  H
  H89      1.0000 0.60540  0.92960  0.36040  Biso   1.000  H
  H90      1.0000 0.55490  0.85280  0.29270  Biso   1.000  H
  H91      1.0000 0.49810  0.68740  0.22500  Biso   1.000  H
  H92      1.0000 0.48880  0.63800  0.17780  Biso   1.000  H
  H93      1.0000 0.39180  0.63320  0.26370  Biso   1.000  H
  H94      1.0000 0.29480  0.58520  0.32930  Biso   1.000  H
  H95      1.0000 0.41670  0.48040  0.37670  Biso   1.000  H
  H96      1.0000 0.51570  0.52400  0.31100  Biso   1.000  H
  C1       1.0000 0.73120  0.87780  0.51606  Biso   1.000  C
  C2       1.0000 0.70231  0.83162  0.55691  Biso   1.000  C
  C3       1.0000 0.63990  0.83240  0.58964  Biso   1.000  C
  C4       1.0000 0.60681  0.87822  0.57894  Biso   1.000  C
  C5       1.0000 0.63852  0.92144  0.53728  Biso   1.000  C
  C6       1.0000 0.64721  0.74682  0.64559  Biso   1.000  C
  C7       1.0000 0.59165  0.70256  0.68845  Biso   1.000  C
  C8       1.0000 0.50424  0.66168  0.66636  Biso   1.000  C
  C9       1.0000 0.45811  0.60182  0.58416  Biso   1.000  C
  C10      1.0000 0.37846  0.60172  0.58645  Biso   1.000  C
  C11      1.0000 0.32469  0.57658  0.54378  Biso   1.000  C
  C12      1.0000 0.42454  0.55408  0.49807  Biso   1.000  C
  C13      1.0000 0.48267  0.57714  0.53966  Biso   1.000  C
  C14      1.0000 0.57621  0.74342  0.73559  Biso   1.000  C
  C15      1.0000 0.67238  0.82536  0.79342  Biso   1.000  C
  C16      1.0000 0.61328  0.84076  0.81510  Biso   1.000  C
  C17      1.0000 0.63437  0.88754  0.85671  Biso   1.000  C
  C18      1.0000 0.76826  0.90672  0.84990  Biso   1.000  C
  C19      1.0000 0.75323  0.85986  0.80884  Biso   1.000  C
  C20      1.0000 0.63639  0.66038  0.70786  Biso   1.000  C
  C21      1.0000 0.61889  0.58698  0.78185  Biso   1.000  C
  C22      1.0000 0.70344  0.60308  0.78697  Biso   1.000  C
  C23      1.0000 0.73235  0.57430  0.82696  Biso   1.000  C
  C24      1.0000 0.60034  0.51288  0.85450  Biso   1.000  C
  C25      1.0000 0.56679  0.53898  0.81513  Biso   1.000  C
  C26      1.0000 0.76880  0.12220  0.51606  Biso   1.000  C
  C27      1.0000 0.79769  0.16838  0.55691  Biso   1.000  C
  C28      1.0000 0.86010  0.16760  0.58964  Biso   1.000  C
  C29      1.0000 0.89319  0.12178  0.57894  Biso   1.000  C
  C30      1.0000 0.86148  0.07856  0.53728  Biso   1.000  C
  C31      1.0000 0.85279  0.25318  0.64559  Biso   1.000  C
  C32      1.0000 0.90835  0.29744  0.68845  Biso   1.000  C
  C33      1.0000 0.99576  0.33832  0.66636  Biso   1.000  C
  C34      1.0000 0.04189  0.39818  0.58416  Biso   1.000  C
  C35      1.0000 0.12154  0.39828  0.58645  Biso   1.000  C
  C36      1.0000 0.17531  0.42342  0.54378  Biso   1.000  C
  C37      1.0000 0.07546  0.44592  0.49807  Biso   1.000  C
  C38      1.0000 0.01733  0.42286  0.53966  Biso   1.000  C
  C39      1.0000 0.92379  0.25658  0.73559  Biso   1.000  C
  C40      1.0000 0.82762  0.17464  0.79342  Biso   1.000  C
  C41      1.0000 0.88672  0.15924  0.81510  Biso   1.000  C
  C42      1.0000 0.86563  0.11246  0.85671  Biso   1.000  C
  C43      1.0000 0.73174  0.09328  0.84990  Biso   1.000  C
  C44      1.0000 0.74677  0.14014  0.80884  Biso   1.000  C
  C45      1.0000 0.86361  0.33962  0.70786  Biso   1.000  C
  C46      1.0000 0.88111  0.41302  0.78185  Biso   1.000  C
  C47      1.0000 0.79656  0.39692  0.78697  Biso   1.000  C
  C48      1.0000 0.76765  0.42570  0.82696  Biso   1.000  C
  C49      1.0000 0.89966  0.48712  0.85450  Biso   1.000  C
  C50      1.0000 0.93321  0.46102  0.81513  Biso   1.000  C
  C51      1.0000 0.85340  0.12220  0.01606  Biso   1.000  C
  C52      1.0000 0.87069  0.16838  0.05691  Biso   1.000  C
  C53      1.0000 0.80750  0.16760  0.08964  Biso   1.000  C
  C54      1.0000 0.72859  0.12178  0.07894  Biso   1.000  C
  C55      1.0000 0.71708  0.07856  0.03728  Biso   1.000  C
  C56      1.0000 0.90039  0.25318  0.14559  Biso   1.000  C
  C57      1.0000 0.88909  0.29744  0.18845  Biso   1.000  C
  C58      1.0000 0.84256  0.33832  0.16636  Biso   1.000  C
  C59      1.0000 0.85629  0.39818  0.08416  Biso   1.000  C
  C60      1.0000 0.77674  0.39828  0.08645  Biso   1.000  C
  C61      1.0000 0.74811  0.42342  0.04378  Biso   1.000  C
  C62      1.0000 0.87046  0.44592  0.99807  Biso   1.000  C
  C63      1.0000 0.90553  0.42286  0.03966  Biso   1.000  C
  C64      1.0000 0.83279  0.25658  0.23559  Biso   1.000  C
  C65      1.0000 0.84702  0.17464  0.29342  Biso   1.000  C
  C66      1.0000 0.77252  0.15924  0.31510  Biso   1.000  C
  C67      1.0000 0.74683  0.11246  0.35671  Biso   1.000  C
  C68      1.0000 0.86154  0.09328  0.34990  Biso   1.000  C
  C69      1.0000 0.89337  0.14014  0.30884  Biso   1.000  C
  C70      1.0000 0.97601  0.33962  0.20786  Biso   1.000  C
  C71      1.0000 0.03191  0.41302  0.28185  Biso   1.000  C
  C72      1.0000 0.10036  0.39692  0.28697  Biso   1.000  C
  C73      1.0000 0.15805  0.42570  0.32696  Biso   1.000  C
  C74      1.0000 0.08746  0.48712  0.35450  Biso   1.000  C
  C75      1.0000 0.02781  0.46102  0.31513  Biso   1.000  C
  C76      1.0000 0.64660  0.87780  0.01606  Biso   1.000  C
  C77      1.0000 0.62931  0.83162  0.05691  Biso   1.000  C
  C78      1.0000 0.69250  0.83240  0.08964  Biso   1.000  C
  C79      1.0000 0.77141  0.87822  0.07894  Biso   1.000  C
  C80      1.0000 0.78292  0.92144  0.03728  Biso   1.000  C
  C81      1.0000 0.59961  0.74682  0.14559  Biso   1.000  C
  C82      1.0000 0.61091  0.70256  0.18845  Biso   1.000  C
  C83      1.0000 0.65744  0.66168  0.16636  Biso   1.000  C
  C84      1.0000 0.64371  0.60182  0.08416  Biso   1.000  C
  C85      1.0000 0.72326  0.60172  0.08645  Biso   1.000  C
  C86      1.0000 0.75189  0.57658  0.04378  Biso   1.000  C
  C87      1.0000 0.62954  0.55408  0.99807  Biso   1.000  C
  C88      1.0000 0.59447  0.57714  0.03966  Biso   1.000  C
  C89      1.0000 0.66721  0.74342  0.23559  Biso   1.000  C
  C90      1.0000 0.65298  0.82536  0.29342  Biso   1.000  C
  C91      1.0000 0.72748  0.84076  0.31510  Biso   1.000  C
  C92      1.0000 0.75317  0.88754  0.35671  Biso   1.000  C
  C93      1.0000 0.63846  0.90672  0.34990  Biso   1.000  C
  C94      1.0000 0.60663  0.85986  0.30884  Biso   1.000  C
  C95      1.0000 0.52399  0.66038  0.20786  Biso   1.000  C
  C96      1.0000 0.46809  0.58698  0.28185  Biso   1.000  C
  C97      1.0000 0.39964  0.60308  0.28697  Biso   1.000  C
  C98      1.0000 0.34195  0.57430  0.32696  Biso   1.000  C
  C99      1.0000 0.41254  0.51288  0.35450  Biso   1.000  C
  C100     1.0000 0.47219  0.53898  0.31513  Biso   1.000  C
  N1       1.0000 0.69966  0.92198  0.50635  Biso   1.000  N
  N2       1.0000 0.34722  0.55264  0.49950  Biso   1.000  N
  N3       1.0000 0.68352  0.53246  0.86210  Biso   1.000  N
  N4       1.0000 0.71262  0.92006  0.87329  Biso   1.000  N
  N5       1.0000 0.80034  0.07802  0.50635  Biso   1.000  N
  N6       1.0000 0.15278  0.44736  0.49950  Biso   1.000  N
  N7       1.0000 0.81648  0.46754  0.86210  Biso   1.000  N
  N8       1.0000 0.78738  0.07994  0.87329  Biso   1.000  N
  N9       1.0000 0.77768  0.07802  0.00635  Biso   1.000  N
  N10      1.0000 0.79458  0.44736  0.99950  Biso   1.000  N
  N11      1.0000 0.15106  0.46754  0.36210  Biso   1.000  N
  N12      1.0000 0.79256  0.07994  0.37329  Biso   1.000  N
  N13      1.0000 0.72232  0.92198  0.00635  Biso   1.000  N
  N14      1.0000 0.70542  0.55264  0.99950  Biso   1.000  N
  N15      1.0000 0.34894  0.53246  0.36210  Biso   1.000  N
  N16      1.0000 0.70744  0.92006  0.37329  Biso   1.000  N
  O1       1.0000 0.60865  0.79276  0.63149  Biso   1.000  O
  O2       1.0000 0.51813  0.62516  0.62271  Biso   1.000  O
  O3       1.0000 0.66483  0.78144  0.75480  Biso   1.000  O
  O4       1.0000 0.58203  0.61246  0.74607  Biso   1.000  O
  O5       1.0000 0.89135  0.20724  0.63149  Biso   1.000  O
  O6       1.0000 0.98187  0.37484  0.62271  Biso   1.000  O
  O7       1.0000 0.83517  0.21856  0.75480  Biso   1.000  O
  O8       1.0000 0.91797  0.38754  0.74607  Biso   1.000  O
  O9       1.0000 0.81589  0.20724  0.13149  Biso   1.000  O
  O10      1.0000 0.89297  0.37484  0.12271  Biso   1.000  O
  O11      1.0000 0.88339  0.21856  0.25480  Biso   1.000  O
  O12      1.0000 0.96957  0.38754  0.24607  Biso   1.000  O
  O13      1.0000 0.68411  0.79276  0.13149  Biso   1.000  O
  O14      1.0000 0.60703  0.62516  0.12271  Biso   1.000  O
  O15      1.0000 0.61661  0.78144  0.25480  Biso   1.000  O
  O16      1.0000 0.53043  0.61246  0.24607  Biso   1.000  O
  Cd5      1.0000 0.75000  0.50000  0.56774  Biso   1.000  Cd
  Cd6      1.0000 0.25000  0.50000  0.06774  Biso   1.000  Cd
  Cd7      1.0000 0.25000  0.00000  0.06071  Biso   1.000  Cd
  Cd8      1.0000 0.25000  0.00000  0.56071  Biso   1.000  Cd
  H97      1.0000 0.10190  0.87720  0.00550  Biso   1.000  H
  H98      1.0000 0.07460  0.80040  0.93830  Biso   1.000  H
  H99      1.0000 0.31730  0.88020  0.90020  Biso   1.000  H
  H100     1.0000 0.33740  0.95220  0.96910  Biso   1.000  H
  H101     1.0000 0.07150  0.72140  0.88550  Biso   1.000  H
  H102     1.0000 0.06590  0.77000  0.84090  Biso   1.000  H
  H103     1.0000 0.21360  0.68980  0.84600  Biso   1.000  H
  H104     1.0000 0.16300  0.63240  0.80630  Biso   1.000  H
  H105     1.0000 0.25750  0.61840  0.88370  Biso   1.000  H
  H106     1.0000 0.30600  0.57620  0.95430  Biso   1.000  H
  H107     1.0000 0.09720  0.53860  0.03270  Biso   1.000  H
  H108     1.0000 0.03970  0.57600  0.96260  Biso   1.000  H
  H109     1.0000 0.17370  0.71520  0.73650  Biso   1.000  H
  H110     1.0000 0.22280  0.77240  0.77700  Biso   1.000  H
  H111     1.0000 0.26340  0.82100  0.69680  Biso   1.000  H
  H112     1.0000 0.30490  0.89580  0.62670  Biso   1.000  H
  H113     1.0000 0.10540  0.92960  0.63960  Biso   1.000  H
  H114     1.0000 0.05490  0.85280  0.70730  Biso   1.000  H
  H115     1.0000 0.99810  0.68740  0.77500  Biso   1.000  H
  H116     1.0000 0.98880  0.63800  0.82220  Biso   1.000  H
  H117     1.0000 0.89180  0.63320  0.73630  Biso   1.000  H
  H118     1.0000 0.79480  0.58520  0.67070  Biso   1.000  H
  H119     1.0000 0.91670  0.48040  0.62330  Biso   1.000  H
  H120     1.0000 0.01570  0.52400  0.68900  Biso   1.000  H
  H121     1.0000 0.39810  0.12280  0.00550  Biso   1.000  H
  H122     1.0000 0.42540  0.19960  0.93830  Biso   1.000  H
  H123     1.0000 0.18270  0.11980  0.90020  Biso   1.000  H
  H124     1.0000 0.16260  0.04780  0.96910  Biso   1.000  H
  H125     1.0000 0.42850  0.27860  0.88550  Biso   1.000  H
  H126     1.0000 0.43410  0.23000  0.84090  Biso   1.000  H
  H127     1.0000 0.28640  0.31020  0.84600  Biso   1.000  H
  H128     1.0000 0.33700  0.36760  0.80630  Biso   1.000  H
  H129     1.0000 0.24250  0.38160  0.88370  Biso   1.000  H
  H130     1.0000 0.19400  0.42380  0.95430  Biso   1.000  H
  H131     1.0000 0.40280  0.46140  0.03270  Biso   1.000  H
  H132     1.0000 0.46030  0.42400  0.96260  Biso   1.000  H
  H133     1.0000 0.32630  0.28480  0.73650  Biso   1.000  H
  H134     1.0000 0.27720  0.22760  0.77700  Biso   1.000  H
  H135     1.0000 0.23660  0.17900  0.69680  Biso   1.000  H
  H136     1.0000 0.19510  0.10420  0.62670  Biso   1.000  H
  H137     1.0000 0.39460  0.07040  0.63960  Biso   1.000  H
  H138     1.0000 0.44510  0.14720  0.70730  Biso   1.000  H
  H139     1.0000 0.50190  0.31260  0.77500  Biso   1.000  H
  H140     1.0000 0.51120  0.36200  0.82220  Biso   1.000  H
  H141     1.0000 0.60820  0.36680  0.73630  Biso   1.000  H
  H142     1.0000 0.70520  0.41480  0.67070  Biso   1.000  H
  H143     1.0000 0.58330  0.51960  0.62330  Biso   1.000  H
  H144     1.0000 0.48430  0.47600  0.68900  Biso   1.000  H
  H145     1.0000 0.22470  0.12280  0.50550  Biso   1.000  H
  H146     1.0000 0.27420  0.19960  0.43830  Biso   1.000  H
  H147     1.0000 0.43710  0.11980  0.40020  Biso   1.000  H
  H148     1.0000 0.38520  0.04780  0.46910  Biso   1.000  H
  H149     1.0000 0.35010  0.27860  0.38550  Biso   1.000  H
  H150     1.0000 0.29590  0.23000  0.34090  Biso   1.000  H
  H151     1.0000 0.52380  0.31020  0.34600  Biso   1.000  H
  H152     1.0000 0.53060  0.36760  0.30630  Biso   1.000  H
  H153     1.0000 0.63910  0.38160  0.38370  Biso   1.000  H
  H154     1.0000 0.72980  0.42380  0.45430  Biso   1.000  H
  H155     1.0000 0.55860  0.46140  0.53270  Biso   1.000  H
  H156     1.0000 0.46370  0.42400  0.46260  Biso   1.000  H
  H157     1.0000 0.45850  0.28480  0.23650  Biso   1.000  H
  H158     1.0000 0.45040  0.22760  0.27700  Biso   1.000  H
  H159     1.0000 0.44240  0.17900  0.19680  Biso   1.000  H
  H160     1.0000 0.40910  0.10420  0.12670  Biso   1.000  H
  H161     1.0000 0.17580  0.07040  0.13960  Biso   1.000  H
  H162     1.0000 0.20210  0.14720  0.20730  Biso   1.000  H
  H163     1.0000 0.31070  0.31260  0.27500  Biso   1.000  H
  H164     1.0000 0.35080  0.36200  0.32220  Biso   1.000  H
  H165     1.0000 0.25860  0.36680  0.23630  Biso   1.000  H
  H166     1.0000 0.20960  0.41480  0.17070  Biso   1.000  H
  H167     1.0000 0.43630  0.51960  0.12330  Biso   1.000  H
  H168     1.0000 0.49170  0.47600  0.18900  Biso   1.000  H
  H169     1.0000 0.27530  0.87720  0.50550  Biso   1.000  H
  H170     1.0000 0.22580  0.80040  0.43830  Biso   1.000  H
  H171     1.0000 0.06290  0.88020  0.40020  Biso   1.000  H
  H172     1.0000 0.11480  0.95220  0.46910  Biso   1.000  H
  H173     1.0000 0.14990  0.72140  0.38550  Biso   1.000  H
  H174     1.0000 0.20410  0.77000  0.34090  Biso   1.000  H
  H175     1.0000 0.97620  0.68980  0.34600  Biso   1.000  H
  H176     1.0000 0.96940  0.63240  0.30630  Biso   1.000  H
  H177     1.0000 0.86090  0.61840  0.38370  Biso   1.000  H
  H178     1.0000 0.77020  0.57620  0.45430  Biso   1.000  H
  H179     1.0000 0.94140  0.53860  0.53270  Biso   1.000  H
  H180     1.0000 0.03630  0.57600  0.46260  Biso   1.000  H
  H181     1.0000 0.04150  0.71520  0.23650  Biso   1.000  H
  H182     1.0000 0.04960  0.77240  0.27700  Biso   1.000  H
  H183     1.0000 0.05760  0.82100  0.19680  Biso   1.000  H
  H184     1.0000 0.09090  0.89580  0.12670  Biso   1.000  H
  H185     1.0000 0.32420  0.92960  0.13960  Biso   1.000  H
  H186     1.0000 0.29790  0.85280  0.20730  Biso   1.000  H
  H187     1.0000 0.18930  0.68740  0.27500  Biso   1.000  H
  H188     1.0000 0.14920  0.63800  0.32220  Biso   1.000  H
  H189     1.0000 0.24140  0.63320  0.23630  Biso   1.000  H
  H190     1.0000 0.29040  0.58520  0.17070  Biso   1.000  H
  H191     1.0000 0.06370  0.48040  0.12330  Biso   1.000  H
  H192     1.0000 0.00830  0.52400  0.18900  Biso   1.000  H
  C101     1.0000 0.14660  0.87780  0.98394  Biso   1.000  C
  C102     1.0000 0.12931  0.83162  0.94309  Biso   1.000  C
  C103     1.0000 0.19250  0.83240  0.91036  Biso   1.000  C
  C104     1.0000 0.27141  0.87822  0.92106  Biso   1.000  C
  C105     1.0000 0.28292  0.92144  0.96272  Biso   1.000  C
  C106     1.0000 0.09961  0.74682  0.85441  Biso   1.000  C
  C107     1.0000 0.11091  0.70256  0.81155  Biso   1.000  C
  C108     1.0000 0.15744  0.66168  0.83364  Biso   1.000  C
  C109     1.0000 0.14371  0.60182  0.91584  Biso   1.000  C
  C110     1.0000 0.22326  0.60172  0.91355  Biso   1.000  C
  C111     1.0000 0.25189  0.57658  0.95622  Biso   1.000  C
  C112     1.0000 0.12954  0.55408  0.00193  Biso   1.000  C
  C113     1.0000 0.09447  0.57714  0.96034  Biso   1.000  C
  C114     1.0000 0.16721  0.74342  0.76441  Biso   1.000  C
  C115     1.0000 0.15298  0.82536  0.70658  Biso   1.000  C
  C116     1.0000 0.22748  0.84076  0.68490  Biso   1.000  C
  C117     1.0000 0.25317  0.88754  0.64329  Biso   1.000  C
  C118     1.0000 0.13846  0.90672  0.65010  Biso   1.000  C
  C119     1.0000 0.10663  0.85986  0.69116  Biso   1.000  C
  C120     1.0000 0.02399  0.66038  0.79214  Biso   1.000  C
  C121     1.0000 0.96809  0.58698  0.71815  Biso   1.000  C
  C122     1.0000 0.89964  0.60308  0.71303  Biso   1.000  C
  C123     1.0000 0.84195  0.57430  0.67304  Biso   1.000  C
  C124     1.0000 0.91254  0.51288  0.64550  Biso   1.000  C
  C125     1.0000 0.97219  0.53898  0.68487  Biso   1.000  C
  C126     1.0000 0.35340  0.12220  0.98394  Biso   1.000  C
  C127     1.0000 0.37069  0.16838  0.94309  Biso   1.000  C
  C128     1.0000 0.30750  0.16760  0.91036  Biso   1.000  C
  C129     1.0000 0.22859  0.12178  0.92106  Biso   1.000  C
  C130     1.0000 0.21708  0.07856  0.96272  Biso   1.000  C
  C131     1.0000 0.40039  0.25318  0.85441  Biso   1.000  C
  C132     1.0000 0.38909  0.29744  0.81155  Biso   1.000  C
  C133     1.0000 0.34256  0.33832  0.83364  Biso   1.000  C
  C134     1.0000 0.35629  0.39818  0.91584  Biso   1.000  C
  C135     1.0000 0.27674  0.39828  0.91355  Biso   1.000  C
  C136     1.0000 0.24811  0.42342  0.95622  Biso   1.000  C
  C137     1.0000 0.37046  0.44592  0.00193  Biso   1.000  C
  C138     1.0000 0.40553  0.42286  0.96034  Biso   1.000  C
  C139     1.0000 0.33279  0.25658  0.76441  Biso   1.000  C
  C140     1.0000 0.34702  0.17464  0.70658  Biso   1.000  C
  C141     1.0000 0.27252  0.15924  0.68490  Biso   1.000  C
  C142     1.0000 0.24683  0.11246  0.64329  Biso   1.000  C
  C143     1.0000 0.36154  0.09328  0.65010  Biso   1.000  C
  C144     1.0000 0.39337  0.14014  0.69116  Biso   1.000  C
  C145     1.0000 0.47601  0.33962  0.79214  Biso   1.000  C
  C146     1.0000 0.53191  0.41302  0.71815  Biso   1.000  C
  C147     1.0000 0.60036  0.39692  0.71303  Biso   1.000  C
  C148     1.0000 0.65805  0.42570  0.67304  Biso   1.000  C
  C149     1.0000 0.58746  0.48712  0.64550  Biso   1.000  C
  C150     1.0000 0.52781  0.46102  0.68487  Biso   1.000  C
  C151     1.0000 0.26880  0.12220  0.48394  Biso   1.000  C
  C152     1.0000 0.29769  0.16838  0.44309  Biso   1.000  C
  C153     1.0000 0.36010  0.16760  0.41036  Biso   1.000  C
  C154     1.0000 0.39319  0.12178  0.42106  Biso   1.000  C
  C155     1.0000 0.36148  0.07856  0.46272  Biso   1.000  C
  C156     1.0000 0.35279  0.25318  0.35441  Biso   1.000  C
  C157     1.0000 0.40835  0.29744  0.31155  Biso   1.000  C
  C158     1.0000 0.49576  0.33832  0.33364  Biso   1.000  C
  C159     1.0000 0.54189  0.39818  0.41584  Biso   1.000  C
  C160     1.0000 0.62154  0.39828  0.41355  Biso   1.000  C
  C161     1.0000 0.67531  0.42342  0.45622  Biso   1.000  C
  C162     1.0000 0.57546  0.44592  0.50193  Biso   1.000  C
  C163     1.0000 0.51733  0.42286  0.46034  Biso   1.000  C
  C164     1.0000 0.42379  0.25658  0.26441  Biso   1.000  C
  C165     1.0000 0.32762  0.17464  0.20658  Biso   1.000  C
  C166     1.0000 0.38672  0.15924  0.18490  Biso   1.000  C
  C167     1.0000 0.36563  0.11246  0.14329  Biso   1.000  C
  C168     1.0000 0.23174  0.09328  0.15010  Biso   1.000  C
  C169     1.0000 0.24677  0.14014  0.19116  Biso   1.000  C
  C170     1.0000 0.36361  0.33962  0.29214  Biso   1.000  C
  C171     1.0000 0.38111  0.41302  0.21815  Biso   1.000  C
  C172     1.0000 0.29656  0.39692  0.21303  Biso   1.000  C
  C173     1.0000 0.26765  0.42570  0.17304  Biso   1.000  C
  C174     1.0000 0.39966  0.48712  0.14550  Biso   1.000  C
  C175     1.0000 0.43321  0.46102  0.18487  Biso   1.000  C
  C176     1.0000 0.23120  0.87780  0.48394  Biso   1.000  C
  C177     1.0000 0.20231  0.83162  0.44309  Biso   1.000  C
  C178     1.0000 0.13990  0.83240  0.41036  Biso   1.000  C
  C179     1.0000 0.10681  0.87822  0.42106  Biso   1.000  C
  C180     1.0000 0.13852  0.92144  0.46272  Biso   1.000  C
  C181     1.0000 0.14721  0.74682  0.35441  Biso   1.000  C
  C182     1.0000 0.09165  0.70256  0.31155  Biso   1.000  C
  C183     1.0000 0.00424  0.66168  0.33364  Biso   1.000  C
  C184     1.0000 0.95811  0.60182  0.41584  Biso   1.000  C
  C185     1.0000 0.87846  0.60172  0.41355  Biso   1.000  C
  C186     1.0000 0.82469  0.57658  0.45622  Biso   1.000  C
  C187     1.0000 0.92454  0.55408  0.50193  Biso   1.000  C
  C188     1.0000 0.98267  0.57714  0.46034  Biso   1.000  C
  C189     1.0000 0.07621  0.74342  0.26441  Biso   1.000  C
  C190     1.0000 0.17238  0.82536  0.20658  Biso   1.000  C
  C191     1.0000 0.11328  0.84076  0.18490  Biso   1.000  C
  C192     1.0000 0.13437  0.88754  0.14329  Biso   1.000  C
  C193     1.0000 0.26826  0.90672  0.15010  Biso   1.000  C
  C194     1.0000 0.25323  0.85986  0.19116  Biso   1.000  C
  C195     1.0000 0.13639  0.66038  0.29214  Biso   1.000  C
  C196     1.0000 0.11889  0.58698  0.21815  Biso   1.000  C
  C197     1.0000 0.20344  0.60308  0.21303  Biso   1.000  C
  C198     1.0000 0.23235  0.57430  0.17304  Biso   1.000  C
  C199     1.0000 0.10034  0.51288  0.14550  Biso   1.000  C
  C200     1.0000 0.06679  0.53898  0.18487  Biso   1.000  C
  N17      1.0000 0.22232  0.92198  0.99365  Biso   1.000  N
  N18      1.0000 0.20542  0.55264  0.00050  Biso   1.000  N
  N19      1.0000 0.84894  0.53246  0.63790  Biso   1.000  N
  N20      1.0000 0.20744  0.92006  0.62671  Biso   1.000  N
  N21      1.0000 0.27768  0.07802  0.99365  Biso   1.000  N
  N22      1.0000 0.29458  0.44736  0.00050  Biso   1.000  N
  N23      1.0000 0.65106  0.46754  0.63790  Biso   1.000  N
  N24      1.0000 0.29256  0.07994  0.62671  Biso   1.000  N
  N25      1.0000 0.30034  0.07802  0.49365  Biso   1.000  N
  N26      1.0000 0.65278  0.44736  0.50050  Biso   1.000  N
  N27      1.0000 0.31648  0.46754  0.13790  Biso   1.000  N
  N28      1.0000 0.28738  0.07994  0.12671  Biso   1.000  N
  N29      1.0000 0.19966  0.92198  0.49365  Biso   1.000  N
  N30      1.0000 0.84722  0.55264  0.50050  Biso   1.000  N
  N31      1.0000 0.18352  0.53246  0.13790  Biso   1.000  N
  N32      1.0000 0.21262  0.92006  0.12671  Biso   1.000  N
  O17      1.0000 0.18411  0.79276  0.86851  Biso   1.000  O
  O18      1.0000 0.10703  0.62516  0.87729  Biso   1.000  O
  O19      1.0000 0.11661  0.78144  0.74520  Biso   1.000  O
  O20      1.0000 0.03043  0.61246  0.75393  Biso   1.000  O
  O21      1.0000 0.31589  0.20724  0.86851  Biso   1.000  O
  O22      1.0000 0.39297  0.37484  0.87729  Biso   1.000  O
  O23      1.0000 0.38339  0.21856  0.74520  Biso   1.000  O
  O24      1.0000 0.46957  0.38754  0.75393  Biso   1.000  O
  O25      1.0000 0.39135  0.20724  0.36851  Biso   1.000  O
  O26      1.0000 0.48187  0.37484  0.37729  Biso   1.000  O
  O27      1.0000 0.33517  0.21856  0.24520  Biso   1.000  O
  O28      1.0000 0.41797  0.38754  0.25393  Biso   1.000  O
  O29      1.0000 0.10865  0.79276  0.36851  Biso   1.000  O
  O30      1.0000 0.01813  0.62516  0.37729  Biso   1.000  O
  O31      1.0000 0.16483  0.78144  0.24520  Biso   1.000  O
  O32      1.0000 0.08203  0.61246  0.25393  Biso   1.000  O
