data_image0
_cell_length_a       18.8313
_cell_length_b       18.8313
_cell_length_c       18.8313
_cell_angle_alpha    61.456
_cell_angle_beta     61.456
_cell_angle_gamma    61.456

_symmetry_space_group_name_H-M    P 1
_symmetry_int_tables_number       1

loop_
  _symmetry_equiv_pos_as_xyz
  'x, y, z'

loop_
  _atom_site_label
  _atom_site_occupancy
  _atom_site_fract_x
  _atom_site_fract_y
  _atom_site_fract_z
  _atom_site_thermal_displace_type
  _atom_site_B_iso_or_equiv
  _atom_site_type_symbol
  Fe1      1.0000 0.34882  0.15118  0.25000  Biso   1.000  Fe
  Fe2      1.0000 0.25000  0.34882  0.15118  Biso   1.000  Fe
  Fe3      1.0000 0.15118  0.25000  0.34882  Biso   1.000  Fe
  Fe4      1.0000 0.65118  0.84882  0.75000  Biso   1.000  Fe
  Fe5      1.0000 0.75000  0.65118  0.84882  Biso   1.000  Fe
  Fe6      1.0000 0.84882  0.75000  0.65118  Biso   1.000  Fe
  H1       1.0000 0.48110  0.03110  0.34800  Biso   1.000  H
  H2       1.0000 0.49640  0.91800  0.47490  Biso   1.000  H
  H3       1.0000 0.55090  0.88590  0.57820  Biso   1.000  H
  H4       1.0000 0.79200  0.82510  0.41530  Biso   1.000  H
  H5       1.0000 0.73770  0.85890  0.31010  Biso   1.000  H
  H6       1.0000 0.34800  0.48110  0.03110  Biso   1.000  H
  H7       1.0000 0.47490  0.49640  0.91800  Biso   1.000  H
  H8       1.0000 0.57820  0.55090  0.88590  Biso   1.000  H
  H9       1.0000 0.41530  0.79200  0.82510  Biso   1.000  H
  H10      1.0000 0.31010  0.73770  0.85890  Biso   1.000  H
  H11      1.0000 0.03110  0.34800  0.48110  Biso   1.000  H
  H12      1.0000 0.91800  0.47490  0.49640  Biso   1.000  H
  H13      1.0000 0.88590  0.57820  0.55090  Biso   1.000  H
  H14      1.0000 0.82510  0.41530  0.79200  Biso   1.000  H
  H15      1.0000 0.85890  0.31010  0.73770  Biso   1.000  H
  H16      1.0000 0.46890  0.01890  0.15200  Biso   1.000  H
  H17      1.0000 0.58200  0.00360  0.02510  Biso   1.000  H
  H18      1.0000 0.61410  0.94910  0.92180  Biso   1.000  H
  H19      1.0000 0.67490  0.70800  0.08470  Biso   1.000  H
  H20      1.0000 0.64110  0.76230  0.18990  Biso   1.000  H
  H21      1.0000 0.01890  0.15200  0.46890  Biso   1.000  H
  H22      1.0000 0.00360  0.02510  0.58200  Biso   1.000  H
  H23      1.0000 0.94910  0.92180  0.61410  Biso   1.000  H
  H24      1.0000 0.70800  0.08470  0.67490  Biso   1.000  H
  H25      1.0000 0.76230  0.18990  0.64110  Biso   1.000  H
  H26      1.0000 0.15200  0.46890  0.01890  Biso   1.000  H
  H27      1.0000 0.02510  0.58200  0.00360  Biso   1.000  H
  H28      1.0000 0.92180  0.61410  0.94910  Biso   1.000  H
  H29      1.0000 0.08470  0.67490  0.70800  Biso   1.000  H
  H30      1.0000 0.18990  0.64110  0.76230  Biso   1.000  H
  H31      1.0000 0.51890  0.96890  0.65200  Biso   1.000  H
  H32      1.0000 0.50360  0.08200  0.52510  Biso   1.000  H
  H33      1.0000 0.44910  0.11410  0.42180  Biso   1.000  H
  H34      1.0000 0.20800  0.17490  0.58470  Biso   1.000  H
  H35      1.0000 0.26230  0.14110  0.68990  Biso   1.000  H
  H36      1.0000 0.65200  0.51890  0.96890  Biso   1.000  H
  H37      1.0000 0.52510  0.50360  0.08200  Biso   1.000  H
  H38      1.0000 0.42180  0.44910  0.11410  Biso   1.000  H
  H39      1.0000 0.58470  0.20800  0.17490  Biso   1.000  H
  H40      1.0000 0.68990  0.26230  0.14110  Biso   1.000  H
  H41      1.0000 0.96890  0.65200  0.51890  Biso   1.000  H
  H42      1.0000 0.08200  0.52510  0.50360  Biso   1.000  H
  H43      1.0000 0.11410  0.42180  0.44910  Biso   1.000  H
  H44      1.0000 0.17490  0.58470  0.20800  Biso   1.000  H
  H45      1.0000 0.14110  0.68990  0.26230  Biso   1.000  H
  H46      1.0000 0.53110  0.98110  0.84800  Biso   1.000  H
  H47      1.0000 0.41800  0.99640  0.97490  Biso   1.000  H
  H48      1.0000 0.38590  0.05090  0.07820  Biso   1.000  H
  H49      1.0000 0.32510  0.29200  0.91530  Biso   1.000  H
  H50      1.0000 0.35890  0.23770  0.81010  Biso   1.000  H
  H51      1.0000 0.98110  0.84800  0.53110  Biso   1.000  H
  H52      1.0000 0.99640  0.97490  0.41800  Biso   1.000  H
  H53      1.0000 0.05090  0.07820  0.38590  Biso   1.000  H
  H54      1.0000 0.29200  0.91530  0.32510  Biso   1.000  H
  H55      1.0000 0.23770  0.81010  0.35890  Biso   1.000  H
  H56      1.0000 0.84800  0.53110  0.98110  Biso   1.000  H
  H57      1.0000 0.97490  0.41800  0.99640  Biso   1.000  H
  H58      1.0000 0.07820  0.38590  0.05090  Biso   1.000  H
  H59      1.0000 0.91530  0.32510  0.29200  Biso   1.000  H
  H60      1.0000 0.81010  0.35890  0.23770  Biso   1.000  H
  H61      1.0000 0.65805  0.84195  0.25000  Biso   1.000  H
  H62      1.0000 0.25000  0.65805  0.84195  Biso   1.000  H
  H63      1.0000 0.84195  0.25000  0.65805  Biso   1.000  H
  H64      1.0000 0.34195  0.15805  0.75000  Biso   1.000  H
  H65      1.0000 0.75000  0.34195  0.15805  Biso   1.000  H
  H66      1.0000 0.15805  0.75000  0.34195  Biso   1.000  H
  C1       1.0000 0.50371  0.00371  0.30691  Biso   1.000  C
  C2       1.0000 0.57694  0.93154  0.30924  Biso   1.000  C
  C3       1.0000 0.71257  0.83835  0.57091  Biso   1.000  C
  C4       1.0000 0.61039  0.89459  0.38189  Biso   1.000  C
  C5       1.0000 0.55650  0.90010  0.46210  Biso   1.000  C
  C6       1.0000 0.58894  0.88004  0.52394  Biso   1.000  C
  C7       1.0000 0.67602  0.85162  0.50752  Biso   1.000  C
  C8       1.0000 0.73209  0.84419  0.42699  Biso   1.000  C
  C9       1.0000 0.69987  0.86487  0.36437  Biso   1.000  C
  C10      1.0000 0.30691  0.50371  0.00371  Biso   1.000  C
  C11      1.0000 0.30924  0.57694  0.93154  Biso   1.000  C
  C12      1.0000 0.57091  0.71257  0.83835  Biso   1.000  C
  C13      1.0000 0.38189  0.61039  0.89459  Biso   1.000  C
  C14      1.0000 0.46210  0.55650  0.90010  Biso   1.000  C
  C15      1.0000 0.52394  0.58894  0.88004  Biso   1.000  C
  C16      1.0000 0.50752  0.67602  0.85162  Biso   1.000  C
  C17      1.0000 0.42699  0.73209  0.84419  Biso   1.000  C
  C18      1.0000 0.36437  0.69987  0.86487  Biso   1.000  C
  C19      1.0000 0.00371  0.30691  0.50371  Biso   1.000  C
  C20      1.0000 0.93154  0.30924  0.57694  Biso   1.000  C
  C21      1.0000 0.83835  0.57091  0.71257  Biso   1.000  C
  C22      1.0000 0.89459  0.38189  0.61039  Biso   1.000  C
  C23      1.0000 0.90010  0.46210  0.55650  Biso   1.000  C
  C24      1.0000 0.88004  0.52394  0.58894  Biso   1.000  C
  C25      1.0000 0.85162  0.50752  0.67602  Biso   1.000  C
  C26      1.0000 0.84419  0.42699  0.73209  Biso   1.000  C
  C27      1.0000 0.86487  0.36437  0.69987  Biso   1.000  C
  C28      1.0000 0.49629  0.99629  0.19309  Biso   1.000  C
  C29      1.0000 0.56846  0.92306  0.19076  Biso   1.000  C
  C30      1.0000 0.66165  0.78743  0.92909  Biso   1.000  C
  C31      1.0000 0.60541  0.88961  0.11811  Biso   1.000  C
  C32      1.0000 0.59990  0.94350  0.03790  Biso   1.000  C
  C33      1.0000 0.61996  0.91106  0.97606  Biso   1.000  C
  C34      1.0000 0.64838  0.82398  0.99248  Biso   1.000  C
  C35      1.0000 0.65581  0.76791  0.07301  Biso   1.000  C
  C36      1.0000 0.63513  0.80013  0.13563  Biso   1.000  C
  C37      1.0000 0.99629  0.19309  0.49629  Biso   1.000  C
  C38      1.0000 0.92306  0.19076  0.56846  Biso   1.000  C
  C39      1.0000 0.78743  0.92909  0.66165  Biso   1.000  C
  C40      1.0000 0.88961  0.11811  0.60541  Biso   1.000  C
  C41      1.0000 0.94350  0.03790  0.59990  Biso   1.000  C
  C42      1.0000 0.91106  0.97606  0.61996  Biso   1.000  C
  C43      1.0000 0.82398  0.99248  0.64838  Biso   1.000  C
  C44      1.0000 0.76791  0.07301  0.65581  Biso   1.000  C
  C45      1.0000 0.80013  0.13563  0.63513  Biso   1.000  C
  C46      1.0000 0.19309  0.49629  0.99629  Biso   1.000  C
  C47      1.0000 0.19076  0.56846  0.92306  Biso   1.000  C
  C48      1.0000 0.92909  0.66165  0.78743  Biso   1.000  C
  C49      1.0000 0.11811  0.60541  0.88961  Biso   1.000  C
  C50      1.0000 0.03790  0.59990  0.94350  Biso   1.000  C
  C51      1.0000 0.97606  0.61996  0.91106  Biso   1.000  C
  C52      1.0000 0.99248  0.64838  0.82398  Biso   1.000  C
  C53      1.0000 0.07301  0.65581  0.76791  Biso   1.000  C
  C54      1.0000 0.13563  0.63513  0.80013  Biso   1.000  C
  C55      1.0000 0.49629  0.99629  0.69309  Biso   1.000  C
  C56      1.0000 0.42306  0.06846  0.69076  Biso   1.000  C
  C57      1.0000 0.28743  0.16165  0.42909  Biso   1.000  C
  C58      1.0000 0.38961  0.10541  0.61811  Biso   1.000  C
  C59      1.0000 0.44350  0.09990  0.53790  Biso   1.000  C
  C60      1.0000 0.41106  0.11996  0.47606  Biso   1.000  C
  C61      1.0000 0.32398  0.14838  0.49248  Biso   1.000  C
  C62      1.0000 0.26791  0.15581  0.57301  Biso   1.000  C
  C63      1.0000 0.30013  0.13513  0.63563  Biso   1.000  C
  C64      1.0000 0.69309  0.49629  0.99629  Biso   1.000  C
  C65      1.0000 0.69076  0.42306  0.06846  Biso   1.000  C
  C66      1.0000 0.42909  0.28743  0.16165  Biso   1.000  C
  C67      1.0000 0.61811  0.38961  0.10541  Biso   1.000  C
  C68      1.0000 0.53790  0.44350  0.09990  Biso   1.000  C
  C69      1.0000 0.47606  0.41106  0.11996  Biso   1.000  C
  C70      1.0000 0.49248  0.32398  0.14838  Biso   1.000  C
  C71      1.0000 0.57301  0.26791  0.15581  Biso   1.000  C
  C72      1.0000 0.63563  0.30013  0.13513  Biso   1.000  C
  C73      1.0000 0.99629  0.69309  0.49629  Biso   1.000  C
  C74      1.0000 0.06846  0.69076  0.42306  Biso   1.000  C
  C75      1.0000 0.16165  0.42909  0.28743  Biso   1.000  C
  C76      1.0000 0.10541  0.61811  0.38961  Biso   1.000  C
  C77      1.0000 0.09990  0.53790  0.44350  Biso   1.000  C
  C78      1.0000 0.11996  0.47606  0.41106  Biso   1.000  C
  C79      1.0000 0.14838  0.49248  0.32398  Biso   1.000  C
  C80      1.0000 0.15581  0.57301  0.26791  Biso   1.000  C
  C81      1.0000 0.13513  0.63563  0.30013  Biso   1.000  C
  C82      1.0000 0.50371  0.00371  0.80691  Biso   1.000  C
  C83      1.0000 0.43154  0.07694  0.80924  Biso   1.000  C
  C84      1.0000 0.33835  0.21257  0.07091  Biso   1.000  C
  C85      1.0000 0.39459  0.11039  0.88189  Biso   1.000  C
  C86      1.0000 0.40010  0.05650  0.96210  Biso   1.000  C
  C87      1.0000 0.38004  0.08894  0.02394  Biso   1.000  C
  C88      1.0000 0.35162  0.17602  0.00752  Biso   1.000  C
  C89      1.0000 0.34419  0.23209  0.92699  Biso   1.000  C
  C90      1.0000 0.36487  0.19987  0.86437  Biso   1.000  C
  C91      1.0000 0.00371  0.80691  0.50371  Biso   1.000  C
  C92      1.0000 0.07694  0.80924  0.43154  Biso   1.000  C
  C93      1.0000 0.21257  0.07091  0.33835  Biso   1.000  C
  C94      1.0000 0.11039  0.88189  0.39459  Biso   1.000  C
  C95      1.0000 0.05650  0.96210  0.40010  Biso   1.000  C
  C96      1.0000 0.08894  0.02394  0.38004  Biso   1.000  C
  C97      1.0000 0.17602  0.00752  0.35162  Biso   1.000  C
  C98      1.0000 0.23209  0.92699  0.34419  Biso   1.000  C
  C99      1.0000 0.19987  0.86437  0.36487  Biso   1.000  C
  C100     1.0000 0.80691  0.50371  0.00371  Biso   1.000  C
  C101     1.0000 0.80924  0.43154  0.07694  Biso   1.000  C
  C102     1.0000 0.07091  0.33835  0.21257  Biso   1.000  C
  C103     1.0000 0.88189  0.39459  0.11039  Biso   1.000  C
  C104     1.0000 0.96210  0.40010  0.05650  Biso   1.000  C
  C105     1.0000 0.02394  0.38004  0.08894  Biso   1.000  C
  C106     1.0000 0.00752  0.35162  0.17602  Biso   1.000  C
  C107     1.0000 0.92699  0.34419  0.23209  Biso   1.000  C
  C108     1.0000 0.86437  0.36487  0.19987  Biso   1.000  C
  C109     1.0000 0.60875  0.89125  0.25000  Biso   1.000  C
  C110     1.0000 0.25000  0.60875  0.89125  Biso   1.000  C
  C111     1.0000 0.89125  0.25000  0.60875  Biso   1.000  C
  C112     1.0000 0.39125  0.10875  0.75000  Biso   1.000  C
  C113     1.0000 0.75000  0.39125  0.10875  Biso   1.000  C
  C114     1.0000 0.10875  0.75000  0.39125  Biso   1.000  C
  N1       1.0000 0.46375  0.03625  0.25000  Biso   1.000  N
  N2       1.0000 0.25000  0.46375  0.03625  Biso   1.000  N
  N3       1.0000 0.03625  0.25000  0.46375  Biso   1.000  N
  N4       1.0000 0.53625  0.96375  0.75000  Biso   1.000  N
  N5       1.0000 0.75000  0.53625  0.96375  Biso   1.000  N
  N6       1.0000 0.96375  0.75000  0.53625  Biso   1.000  N
  O1       1.0000 0.66204  0.87496  0.62677  Biso   1.000  O
  O2       1.0000 0.78693  0.78697  0.56848  Biso   1.000  O
  O3       1.0000 0.62677  0.66204  0.87496  Biso   1.000  O
  O4       1.0000 0.56848  0.78693  0.78697  Biso   1.000  O
  O5       1.0000 0.87496  0.62677  0.66204  Biso   1.000  O
  O6       1.0000 0.78697  0.56848  0.78693  Biso   1.000  O
  O7       1.0000 0.62504  0.83796  0.87323  Biso   1.000  O
  O8       1.0000 0.71303  0.71307  0.93152  Biso   1.000  O
  O9       1.0000 0.83796  0.87323  0.62504  Biso   1.000  O
  O10      1.0000 0.71307  0.93152  0.71303  Biso   1.000  O
  O11      1.0000 0.87323  0.62504  0.83796  Biso   1.000  O
  O12      1.0000 0.93152  0.71303  0.71307  Biso   1.000  O
  O13      1.0000 0.33796  0.12504  0.37323  Biso   1.000  O
  O14      1.0000 0.21307  0.21303  0.43152  Biso   1.000  O
  O15      1.0000 0.37323  0.33796  0.12504  Biso   1.000  O
  O16      1.0000 0.43152  0.21307  0.21303  Biso   1.000  O
  O17      1.0000 0.12504  0.37323  0.33796  Biso   1.000  O
  O18      1.0000 0.21303  0.43152  0.21307  Biso   1.000  O
  O19      1.0000 0.37496  0.16204  0.12677  Biso   1.000  O
  O20      1.0000 0.28697  0.28693  0.06848  Biso   1.000  O
  O21      1.0000 0.16204  0.12677  0.37496  Biso   1.000  O
  O22      1.0000 0.28693  0.06848  0.28697  Biso   1.000  O
  O23      1.0000 0.12677  0.37496  0.16204  Biso   1.000  O
  O24      1.0000 0.06848  0.28697  0.28693  Biso   1.000  O
  O25      1.0000 0.25000  0.25000  0.25000  Biso   1.000  O
  O26      1.0000 0.75000  0.75000  0.75000  Biso   1.000  O
