data_image0
_cell_length_a       11.3816
_cell_length_b       15.2214
_cell_length_c       17.8069
_cell_angle_alpha    115.303
_cell_angle_beta     90
_cell_angle_gamma    90

_symmetry_space_group_name_H-M    P 1
_symmetry_int_tables_number       1

loop_
  _symmetry_equiv_pos_as_xyz
  'x, y, z'

loop_
  _atom_site_label
  _atom_site_occupancy
  _atom_site_fract_x
  _atom_site_fract_y
  _atom_site_fract_z
  _atom_site_thermal_displace_type
  _atom_site_B_iso_or_equiv
  _atom_site_type_symbol
  Co1      1.0000 0.79320  0.63899  0.00000  Biso   1.000  Co
  Co2      1.0000 0.20680  0.36101  0.00000  Biso   1.000  Co
  Co3      1.0000 0.50000  0.38095  0.76190  Biso   1.000  Co
  Co4      1.0000 0.50000  0.61905  0.23810  Biso   1.000  Co
  H1       1.0000 0.74770  0.58970  0.74620  Biso   1.000  H
  H2       1.0000 0.47400  0.28450  0.84900  Biso   1.000  H
  H3       1.0000 0.55900  0.34100  0.87200  Biso   1.000  H
  H4       1.0000 0.63180  0.18990  0.70300  Biso   1.000  H
  H5       1.0000 0.63900  0.03620  0.59680  Biso   1.000  H
  H6       1.0000 0.34930  0.09740  0.50380  Biso   1.000  H
  H7       1.0000 0.34830  0.24850  0.61320  Biso   1.000  H
  H8       1.0000 0.59500  0.59790  0.03980  Biso   1.000  H
  H9       1.0000 0.73900  0.81780  0.03960  Biso   1.000  H
  H10      1.0000 0.99200  0.68160  0.95920  Biso   1.000  H
  H11      1.0000 0.84100  0.50020  0.03440  Biso   1.000  H
  H12      1.0000 0.25230  0.15650  0.74620  Biso   1.000  H
  H13      1.0000 0.52600  0.56450  0.84900  Biso   1.000  H
  H14      1.0000 0.44100  0.53100  0.87200  Biso   1.000  H
  H15      1.0000 0.36820  0.51310  0.70300  Biso   1.000  H
  H16      1.0000 0.36100  0.56060  0.59680  Biso   1.000  H
  H17      1.0000 0.65070  0.40640  0.50380  Biso   1.000  H
  H18      1.0000 0.65170  0.36470  0.61320  Biso   1.000  H
  H19      1.0000 0.40500  0.44190  0.03980  Biso   1.000  H
  H20      1.0000 0.26100  0.22180  0.03960  Biso   1.000  H
  H21      1.0000 0.00800  0.27760  0.95920  Biso   1.000  H
  H22      1.0000 0.15900  0.53420  0.03440  Biso   1.000  H
  H23      1.0000 0.25230  0.41030  0.25380  Biso   1.000  H
  H24      1.0000 0.52600  0.71550  0.15100  Biso   1.000  H
  H25      1.0000 0.44100  0.65900  0.12800  Biso   1.000  H
  H26      1.0000 0.36820  0.81010  0.29700  Biso   1.000  H
  H27      1.0000 0.36100  0.96380  0.40320  Biso   1.000  H
  H28      1.0000 0.65070  0.90260  0.49620  Biso   1.000  H
  H29      1.0000 0.65170  0.75150  0.38680  Biso   1.000  H
  H30      1.0000 0.40500  0.40210  0.96020  Biso   1.000  H
  H31      1.0000 0.26100  0.18220  0.96040  Biso   1.000  H
  H32      1.0000 0.00800  0.31840  0.04080  Biso   1.000  H
  H33      1.0000 0.15900  0.49980  0.96560  Biso   1.000  H
  H34      1.0000 0.74770  0.84350  0.25380  Biso   1.000  H
  H35      1.0000 0.47400  0.43550  0.15100  Biso   1.000  H
  H36      1.0000 0.55900  0.46900  0.12800  Biso   1.000  H
  H37      1.0000 0.63180  0.48690  0.29700  Biso   1.000  H
  H38      1.0000 0.63900  0.43940  0.40320  Biso   1.000  H
  H39      1.0000 0.34930  0.59360  0.49620  Biso   1.000  H
  H40      1.0000 0.34830  0.63530  0.38680  Biso   1.000  H
  H41      1.0000 0.59500  0.55810  0.96020  Biso   1.000  H
  H42      1.0000 0.73900  0.77820  0.96040  Biso   1.000  H
  H43      1.0000 0.99200  0.72240  0.04080  Biso   1.000  H
  H44      1.0000 0.84100  0.46580  0.96560  Biso   1.000  H
  C1       1.0000 0.82340  0.54030  0.80492  Biso   1.000  C
  C2       1.0000 0.75270  0.36453  0.81238  Biso   1.000  C
  C3       1.0000 0.07760  0.57963  0.79436  Biso   1.000  C
  C4       1.0000 0.91650  0.46668  0.79904  Biso   1.000  C
  C5       1.0000 0.88090  0.37978  0.80016  Biso   1.000  C
  C6       1.0000 0.03630  0.48658  0.79724  Biso   1.000  C
  C7       1.0000 0.57320  0.17176  0.66112  Biso   1.000  C
  C8       1.0000 0.57840  0.07928  0.59716  Biso   1.000  C
  C9       1.0000 0.49820  0.04925  0.53490  Biso   1.000  C
  C10      1.0000 0.41080  0.11477  0.54374  Biso   1.000  C
  C11      1.0000 0.41070  0.20542  0.60944  Biso   1.000  C
  C12      1.0000 0.17660  0.26462  0.80492  Biso   1.000  C
  C13      1.0000 0.24730  0.44785  0.81238  Biso   1.000  C
  C14      1.0000 0.92240  0.21473  0.79436  Biso   1.000  C
  C15      1.0000 0.08350  0.33236  0.79904  Biso   1.000  C
  C16      1.0000 0.11910  0.42038  0.80016  Biso   1.000  C
  C17      1.0000 0.96370  0.31066  0.79724  Biso   1.000  C
  C18      1.0000 0.42680  0.48936  0.66112  Biso   1.000  C
  C19      1.0000 0.42160  0.51788  0.59716  Biso   1.000  C
  C20      1.0000 0.50180  0.48565  0.53490  Biso   1.000  C
  C21      1.0000 0.58920  0.42897  0.54374  Biso   1.000  C
  C22      1.0000 0.58930  0.40402  0.60944  Biso   1.000  C
  C23      1.0000 0.17660  0.45970  0.19508  Biso   1.000  C
  C24      1.0000 0.24730  0.63547  0.18762  Biso   1.000  C
  C25      1.0000 0.92240  0.42037  0.20564  Biso   1.000  C
  C26      1.0000 0.08350  0.53332  0.20096  Biso   1.000  C
  C27      1.0000 0.11910  0.62022  0.19984  Biso   1.000  C
  C28      1.0000 0.96370  0.51342  0.20276  Biso   1.000  C
  C29      1.0000 0.42680  0.82824  0.33888  Biso   1.000  C
  C30      1.0000 0.42160  0.92072  0.40284  Biso   1.000  C
  C31      1.0000 0.50180  0.95075  0.46510  Biso   1.000  C
  C32      1.0000 0.58920  0.88523  0.45626  Biso   1.000  C
  C33      1.0000 0.58930  0.79458  0.39056  Biso   1.000  C
  C34      1.0000 0.82340  0.73538  0.19508  Biso   1.000  C
  C35      1.0000 0.75270  0.55215  0.18762  Biso   1.000  C
  C36      1.0000 0.07760  0.78527  0.20564  Biso   1.000  C
  C37      1.0000 0.91650  0.66764  0.20096  Biso   1.000  C
  C38      1.0000 0.88090  0.57962  0.19984  Biso   1.000  C
  C39      1.0000 0.03630  0.68934  0.20276  Biso   1.000  C
  C40      1.0000 0.57320  0.51064  0.33888  Biso   1.000  C
  C41      1.0000 0.57840  0.48212  0.40284  Biso   1.000  C
  C42      1.0000 0.49820  0.51435  0.46510  Biso   1.000  C
  C43      1.0000 0.41080  0.57103  0.45626  Biso   1.000  C
  C44      1.0000 0.41070  0.59598  0.39056  Biso   1.000  C
  N1       1.0000 0.49250  0.23555  0.66734  Biso   1.000  N
  N2       1.0000 0.50750  0.43179  0.66734  Biso   1.000  N
  N3       1.0000 0.50750  0.76445  0.33266  Biso   1.000  N
  N4       1.0000 0.49250  0.56821  0.33266  Biso   1.000  N
  O1       1.0000 0.77399  0.58829  0.87172  Biso   1.000  O
  O2       1.0000 0.79867  0.54637  0.73704  Biso   1.000  O
  O3       1.0000 0.68155  0.37468  0.76280  Biso   1.000  O
  O4       1.0000 0.72744  0.34693  0.87338  Biso   1.000  O
  O5       1.0000 0.15541  0.56976  0.74076  Biso   1.000  O
  O6       1.0000 0.03169  0.65713  0.84402  Biso   1.000  O
  O7       1.0000 0.49557  0.33693  0.86066  Biso   1.000  O
  O8       1.0000 0.22601  0.28343  0.87172  Biso   1.000  O
  O9       1.0000 0.20133  0.19067  0.73704  Biso   1.000  O
  O10      1.0000 0.31845  0.38812  0.76280  Biso   1.000  O
  O11      1.0000 0.27256  0.52645  0.87338  Biso   1.000  O
  O12      1.0000 0.84459  0.17100  0.74076  Biso   1.000  O
  O13      1.0000 0.96831  0.18689  0.84402  Biso   1.000  O
  O14      1.0000 0.50443  0.52373  0.86066  Biso   1.000  O
  O15      1.0000 0.22601  0.41171  0.12828  Biso   1.000  O
  O16      1.0000 0.20133  0.45363  0.26296  Biso   1.000  O
  O17      1.0000 0.31845  0.62532  0.23720  Biso   1.000  O
  O18      1.0000 0.27256  0.65307  0.12662  Biso   1.000  O
  O19      1.0000 0.84459  0.43024  0.25924  Biso   1.000  O
  O20      1.0000 0.96831  0.34287  0.15598  Biso   1.000  O
  O21      1.0000 0.50443  0.66307  0.13934  Biso   1.000  O
  O22      1.0000 0.77399  0.71657  0.12828  Biso   1.000  O
  O23      1.0000 0.79867  0.80933  0.26296  Biso   1.000  O
  O24      1.0000 0.68155  0.61188  0.23720  Biso   1.000  O
  O25      1.0000 0.72744  0.47355  0.12662  Biso   1.000  O
  O26      1.0000 0.15541  0.82900  0.25924  Biso   1.000  O
  O27      1.0000 0.03169  0.81311  0.15598  Biso   1.000  O
  O28      1.0000 0.49557  0.47627  0.13934  Biso   1.000  O
  O29      1.0000 0.63630  0.57650  0.00000  Biso   1.000  O
  O30      1.0000 0.72990  0.77053  0.00000  Biso   1.000  O
  O31      1.0000 0.96190  0.68060  0.00000  Biso   1.000  O
  O32      1.0000 0.86760  0.50920  0.00000  Biso   1.000  O
  O33      1.0000 0.36370  0.42350  0.00000  Biso   1.000  O
  O34      1.0000 0.27010  0.22947  0.00000  Biso   1.000  O
  O35      1.0000 0.03810  0.31940  0.00000  Biso   1.000  O
  O36      1.0000 0.13240  0.49080  0.00000  Biso   1.000  O
  Co5      1.0000 0.29320  0.86101  0.00000  Biso   1.000  Co
  Co6      1.0000 0.70680  0.13899  0.00000  Biso   1.000  Co
  Co7      1.0000 0.00000  0.11905  0.23810  Biso   1.000  Co
  Co8      1.0000 0.00000  0.88095  0.76190  Biso   1.000  Co
  H45      1.0000 0.24770  0.91030  0.25380  Biso   1.000  H
  H46      1.0000 0.97400  0.21550  0.15100  Biso   1.000  H
  H47      1.0000 0.05900  0.15900  0.12800  Biso   1.000  H
  H48      1.0000 0.13180  0.31010  0.29700  Biso   1.000  H
  H49      1.0000 0.13900  0.46380  0.40320  Biso   1.000  H
  H50      1.0000 0.84930  0.40260  0.49620  Biso   1.000  H
  H51      1.0000 0.84830  0.25150  0.38680  Biso   1.000  H
  H52      1.0000 0.09500  0.90210  0.96020  Biso   1.000  H
  H53      1.0000 0.23900  0.68220  0.96040  Biso   1.000  H
  H54      1.0000 0.49200  0.81840  0.04080  Biso   1.000  H
  H55      1.0000 0.34100  0.99980  0.96560  Biso   1.000  H
  H56      1.0000 0.75230  0.34350  0.25380  Biso   1.000  H
  H57      1.0000 0.02600  0.93550  0.15100  Biso   1.000  H
  H58      1.0000 0.94100  0.96900  0.12800  Biso   1.000  H
  H59      1.0000 0.86820  0.98690  0.29700  Biso   1.000  H
  H60      1.0000 0.86100  0.93940  0.40320  Biso   1.000  H
  H61      1.0000 0.15070  0.09360  0.49620  Biso   1.000  H
  H62      1.0000 0.15170  0.13530  0.38680  Biso   1.000  H
  H63      1.0000 0.90500  0.05810  0.96020  Biso   1.000  H
  H64      1.0000 0.76100  0.27820  0.96040  Biso   1.000  H
  H65      1.0000 0.50800  0.22240  0.04080  Biso   1.000  H
  H66      1.0000 0.65900  0.96580  0.96560  Biso   1.000  H
  H67      1.0000 0.75230  0.08970  0.74620  Biso   1.000  H
  H68      1.0000 0.02600  0.78450  0.84900  Biso   1.000  H
  H69      1.0000 0.94100  0.84100  0.87200  Biso   1.000  H
  H70      1.0000 0.86820  0.68990  0.70300  Biso   1.000  H
  H71      1.0000 0.86100  0.53620  0.59680  Biso   1.000  H
  H72      1.0000 0.15070  0.59740  0.50380  Biso   1.000  H
  H73      1.0000 0.15170  0.74850  0.61320  Biso   1.000  H
  H74      1.0000 0.90500  0.09790  0.03980  Biso   1.000  H
  H75      1.0000 0.76100  0.31780  0.03960  Biso   1.000  H
  H76      1.0000 0.50800  0.18160  0.95920  Biso   1.000  H
  H77      1.0000 0.65900  0.00020  0.03440  Biso   1.000  H
  H78      1.0000 0.24770  0.65650  0.74620  Biso   1.000  H
  H79      1.0000 0.97400  0.06450  0.84900  Biso   1.000  H
  H80      1.0000 0.05900  0.03100  0.87200  Biso   1.000  H
  H81      1.0000 0.13180  0.01310  0.70300  Biso   1.000  H
  H82      1.0000 0.13900  0.06060  0.59680  Biso   1.000  H
  H83      1.0000 0.84930  0.90640  0.50380  Biso   1.000  H
  H84      1.0000 0.84830  0.86470  0.61320  Biso   1.000  H
  H85      1.0000 0.09500  0.94190  0.03980  Biso   1.000  H
  H86      1.0000 0.23900  0.72180  0.03960  Biso   1.000  H
  H87      1.0000 0.49200  0.77760  0.95920  Biso   1.000  H
  H88      1.0000 0.34100  0.03420  0.03440  Biso   1.000  H
  C45      1.0000 0.32340  0.95970  0.19508  Biso   1.000  C
  C46      1.0000 0.25270  0.13547  0.18762  Biso   1.000  C
  C47      1.0000 0.57760  0.92037  0.20564  Biso   1.000  C
  C48      1.0000 0.41650  0.03332  0.20096  Biso   1.000  C
  C49      1.0000 0.38090  0.12022  0.19984  Biso   1.000  C
  C50      1.0000 0.53630  0.01342  0.20276  Biso   1.000  C
  C51      1.0000 0.07320  0.32824  0.33888  Biso   1.000  C
  C52      1.0000 0.07840  0.42072  0.40284  Biso   1.000  C
  C53      1.0000 0.99820  0.45075  0.46510  Biso   1.000  C
  C54      1.0000 0.91080  0.38523  0.45626  Biso   1.000  C
  C55      1.0000 0.91070  0.29458  0.39056  Biso   1.000  C
  C56      1.0000 0.67660  0.23538  0.19508  Biso   1.000  C
  C57      1.0000 0.74730  0.05215  0.18762  Biso   1.000  C
  C58      1.0000 0.42240  0.28527  0.20564  Biso   1.000  C
  C59      1.0000 0.58350  0.16764  0.20096  Biso   1.000  C
  C60      1.0000 0.61910  0.07962  0.19984  Biso   1.000  C
  C61      1.0000 0.46370  0.18934  0.20276  Biso   1.000  C
  C62      1.0000 0.92680  0.01064  0.33888  Biso   1.000  C
  C63      1.0000 0.92160  0.98212  0.40284  Biso   1.000  C
  C64      1.0000 0.00180  0.01435  0.46510  Biso   1.000  C
  C65      1.0000 0.08920  0.07103  0.45626  Biso   1.000  C
  C66      1.0000 0.08930  0.09598  0.39056  Biso   1.000  C
  C67      1.0000 0.67660  0.04030  0.80492  Biso   1.000  C
  C68      1.0000 0.74730  0.86453  0.81238  Biso   1.000  C
  C69      1.0000 0.42240  0.07963  0.79436  Biso   1.000  C
  C70      1.0000 0.58350  0.96668  0.79904  Biso   1.000  C
  C71      1.0000 0.61910  0.87978  0.80016  Biso   1.000  C
  C72      1.0000 0.46370  0.98658  0.79724  Biso   1.000  C
  C73      1.0000 0.92680  0.67176  0.66112  Biso   1.000  C
  C74      1.0000 0.92160  0.57928  0.59716  Biso   1.000  C
  C75      1.0000 0.00180  0.54925  0.53490  Biso   1.000  C
  C76      1.0000 0.08920  0.61477  0.54374  Biso   1.000  C
  C77      1.0000 0.08930  0.70542  0.60944  Biso   1.000  C
  C78      1.0000 0.32340  0.76462  0.80492  Biso   1.000  C
  C79      1.0000 0.25270  0.94785  0.81238  Biso   1.000  C
  C80      1.0000 0.57760  0.71473  0.79436  Biso   1.000  C
  C81      1.0000 0.41650  0.83236  0.79904  Biso   1.000  C
  C82      1.0000 0.38090  0.92038  0.80016  Biso   1.000  C
  C83      1.0000 0.53630  0.81066  0.79724  Biso   1.000  C
  C84      1.0000 0.07320  0.98936  0.66112  Biso   1.000  C
  C85      1.0000 0.07840  0.01788  0.59716  Biso   1.000  C
  C86      1.0000 0.99820  0.98565  0.53490  Biso   1.000  C
  C87      1.0000 0.91080  0.92897  0.54374  Biso   1.000  C
  C88      1.0000 0.91070  0.90402  0.60944  Biso   1.000  C
  N5       1.0000 0.99250  0.26445  0.33266  Biso   1.000  N
  N6       1.0000 0.00750  0.06821  0.33266  Biso   1.000  N
  N7       1.0000 0.00750  0.73555  0.66734  Biso   1.000  N
  N8       1.0000 0.99250  0.93179  0.66734  Biso   1.000  N
  O37      1.0000 0.27399  0.91171  0.12828  Biso   1.000  O
  O38      1.0000 0.29867  0.95363  0.26296  Biso   1.000  O
  O39      1.0000 0.18155  0.12532  0.23720  Biso   1.000  O
  O40      1.0000 0.22744  0.15307  0.12662  Biso   1.000  O
  O41      1.0000 0.65541  0.93024  0.25924  Biso   1.000  O
  O42      1.0000 0.53169  0.84287  0.15598  Biso   1.000  O
  O43      1.0000 0.99557  0.16307  0.13934  Biso   1.000  O
  O44      1.0000 0.72601  0.21657  0.12828  Biso   1.000  O
  O45      1.0000 0.70133  0.30933  0.26296  Biso   1.000  O
  O46      1.0000 0.81845  0.11188  0.23720  Biso   1.000  O
  O47      1.0000 0.77256  0.97355  0.12662  Biso   1.000  O
  O48      1.0000 0.34459  0.32900  0.25924  Biso   1.000  O
  O49      1.0000 0.46831  0.31311  0.15598  Biso   1.000  O
  O50      1.0000 0.00443  0.97627  0.13934  Biso   1.000  O
  O51      1.0000 0.72601  0.08829  0.87172  Biso   1.000  O
  O52      1.0000 0.70133  0.04637  0.73704  Biso   1.000  O
  O53      1.0000 0.81845  0.87468  0.76280  Biso   1.000  O
  O54      1.0000 0.77256  0.84693  0.87338  Biso   1.000  O
  O55      1.0000 0.34459  0.06976  0.74076  Biso   1.000  O
  O56      1.0000 0.46831  0.15713  0.84402  Biso   1.000  O
  O57      1.0000 0.00443  0.83693  0.86066  Biso   1.000  O
  O58      1.0000 0.27399  0.78343  0.87172  Biso   1.000  O
  O59      1.0000 0.29867  0.69067  0.73704  Biso   1.000  O
  O60      1.0000 0.18155  0.88812  0.76280  Biso   1.000  O
  O61      1.0000 0.22744  0.02645  0.87338  Biso   1.000  O
  O62      1.0000 0.65541  0.67100  0.74076  Biso   1.000  O
  O63      1.0000 0.53169  0.68689  0.84402  Biso   1.000  O
  O64      1.0000 0.99557  0.02373  0.86066  Biso   1.000  O
  O65      1.0000 0.13630  0.92350  0.00000  Biso   1.000  O
  O66      1.0000 0.22990  0.72947  0.00000  Biso   1.000  O
  O67      1.0000 0.46190  0.81940  0.00000  Biso   1.000  O
  O68      1.0000 0.36760  0.99080  0.00000  Biso   1.000  O
  O69      1.0000 0.86370  0.07650  0.00000  Biso   1.000  O
  O70      1.0000 0.77010  0.27053  0.00000  Biso   1.000  O
  O71      1.0000 0.53810  0.18060  0.00000  Biso   1.000  O
  O72      1.0000 0.63240  0.00920  0.00000  Biso   1.000  O
