data_image0
_cell_length_a       7.10461
_cell_length_b       13.7152
_cell_length_c       22.951
_cell_angle_alpha    87.7027
_cell_angle_beta     81.0965
_cell_angle_gamma    74.9891

_symmetry_space_group_name_H-M    P 1
_symmetry_int_tables_number       1

loop_
  _symmetry_equiv_pos_as_xyz
  'x, y, z'

loop_
  _atom_site_label
  _atom_site_occupancy
  _atom_site_fract_x
  _atom_site_fract_y
  _atom_site_fract_z
  _atom_site_thermal_displace_type
  _atom_site_B_iso_or_equiv
  _atom_site_type_symbol
  Fe1      1.0000 0.63004  0.25000  0.23992  Biso   1.000  Fe
  Fe2      1.0000 0.11996  0.25000  0.26008  Biso   1.000  Fe
  Fe3      1.0000 0.36996  0.75000  0.76008  Biso   1.000  Fe
  Fe4      1.0000 0.88004  0.75000  0.73992  Biso   1.000  Fe
  H1       1.0000 0.24528  0.99322  0.07678  Biso   1.000  H
  H2       1.0000 0.17880  0.11676  0.13958  Biso   1.000  H
  H3       1.0000 0.73547  0.12438  0.10274  Biso   1.000  H
  H4       1.0000 0.72362  0.09424  0.01112  Biso   1.000  H
  H5       1.0000 0.79560  0.83832  0.25000  Biso   1.000  H
  H6       1.0000 0.72583  0.99350  0.25000  Biso   1.000  H
  H7       1.0000 0.17794  0.50678  0.07678  Biso   1.000  H
  H8       1.0000 0.18162  0.38324  0.13958  Biso   1.000  H
  H9       1.0000 0.66179  0.37562  0.10274  Biso   1.000  H
  H10      1.0000 0.76526  0.40576  0.01112  Biso   1.000  H
  H11      1.0000 0.45440  0.66168  0.25000  Biso   1.000  H
  H12      1.0000 0.52417  0.50650  0.25000  Biso   1.000  H
  H13      1.0000 0.76150  0.99322  0.42322  Biso   1.000  H
  H14      1.0000 0.70444  0.11676  0.36042  Biso   1.000  H
  H15      1.0000 0.14015  0.12438  0.39726  Biso   1.000  H
  H16      1.0000 0.18214  0.09424  0.48888  Biso   1.000  H
  H17      1.0000 0.36608  0.83832  0.25000  Biso   1.000  H
  H18      1.0000 0.28067  0.99350  0.25000  Biso   1.000  H
  H19      1.0000 0.31528  0.50678  0.42322  Biso   1.000  H
  H20      1.0000 0.43514  0.38324  0.36042  Biso   1.000  H
  H21      1.0000 0.96259  0.37562  0.39726  Biso   1.000  H
  H22      1.0000 0.82898  0.40576  0.48888  Biso   1.000  H
  H23      1.0000 0.88392  0.66168  0.25000  Biso   1.000  H
  H24      1.0000 0.96933  0.50650  0.25000  Biso   1.000  H
  H25      1.0000 0.75472  0.00678  0.92322  Biso   1.000  H
  H26      1.0000 0.82120  0.88324  0.86042  Biso   1.000  H
  H27      1.0000 0.26453  0.87562  0.89726  Biso   1.000  H
  H28      1.0000 0.27638  0.90576  0.98888  Biso   1.000  H
  H29      1.0000 0.20440  0.16168  0.75000  Biso   1.000  H
  H30      1.0000 0.27417  0.00650  0.75000  Biso   1.000  H
  H31      1.0000 0.82206  0.49322  0.92322  Biso   1.000  H
  H32      1.0000 0.81838  0.61676  0.86042  Biso   1.000  H
  H33      1.0000 0.33821  0.62438  0.89726  Biso   1.000  H
  H34      1.0000 0.23474  0.59424  0.98888  Biso   1.000  H
  H35      1.0000 0.54560  0.33832  0.75000  Biso   1.000  H
  H36      1.0000 0.47583  0.49350  0.75000  Biso   1.000  H
  H37      1.0000 0.23850  0.00678  0.57678  Biso   1.000  H
  H38      1.0000 0.29556  0.88324  0.63958  Biso   1.000  H
  H39      1.0000 0.85985  0.87562  0.60274  Biso   1.000  H
  H40      1.0000 0.81786  0.90576  0.51112  Biso   1.000  H
  H41      1.0000 0.63392  0.16168  0.75000  Biso   1.000  H
  H42      1.0000 0.71933  0.00650  0.75000  Biso   1.000  H
  H43      1.0000 0.68472  0.49322  0.57678  Biso   1.000  H
  H44      1.0000 0.56486  0.61676  0.63958  Biso   1.000  H
  H45      1.0000 0.03741  0.62438  0.60274  Biso   1.000  H
  H46      1.0000 0.17102  0.59424  0.51112  Biso   1.000  H
  H47      1.0000 0.11608  0.33832  0.75000  Biso   1.000  H
  H48      1.0000 0.03067  0.49350  0.75000  Biso   1.000  H
  C1       1.0000 0.34869  0.99598  0.04560  Biso   1.000  C
  C2       1.0000 0.48152  0.05196  0.05222  Biso   1.000  C
  C3       1.0000 0.46226  0.10614  0.10668  Biso   1.000  C
  C4       1.0000 0.29261  0.13450  0.14788  Biso   1.000  C
  C5       1.0000 0.61021  0.13886  0.12684  Biso   1.000  C
  C6       1.0000 0.63284  0.05598  0.00660  Biso   1.000  C
  C7       1.0000 0.92933  0.80246  0.25000  Biso   1.000  C
  C8       1.0000 0.82869  0.02606  0.25000  Biso   1.000  C
  C9       1.0000 0.10571  0.50402  0.04560  Biso   1.000  C
  C10      1.0000 0.96626  0.44804  0.05222  Biso   1.000  C
  C11      1.0000 0.93106  0.39386  0.10668  Biso   1.000  C
  C12      1.0000 0.05951  0.36550  0.14788  Biso   1.000  C
  C13      1.0000 0.76295  0.36114  0.12684  Biso   1.000  C
  C14      1.0000 0.86056  0.44402  0.00660  Biso   1.000  C
  C15      1.0000 0.32067  0.69754  0.25000  Biso   1.000  C
  C16      1.0000 0.42131  0.47394  0.25000  Biso   1.000  C
  C17      1.0000 0.65533  0.99598  0.45440  Biso   1.000  C
  C18      1.0000 0.46652  0.05196  0.44778  Biso   1.000  C
  C19      1.0000 0.43160  0.10614  0.39332  Biso   1.000  C
  C20      1.0000 0.57289  0.13450  0.35212  Biso   1.000  C
  C21      1.0000 0.25093  0.13886  0.37316  Biso   1.000  C
  C22      1.0000 0.31118  0.05598  0.49340  Biso   1.000  C
  C23      1.0000 0.26821  0.80246  0.25000  Biso   1.000  C
  C24      1.0000 0.14525  0.02606  0.25000  Biso   1.000  C
  C25      1.0000 0.39027  0.50402  0.45440  Biso   1.000  C
  C26      1.0000 0.58570  0.44804  0.44778  Biso   1.000  C
  C27      1.0000 0.67508  0.39386  0.39332  Biso   1.000  C
  C28      1.0000 0.57499  0.36550  0.35212  Biso   1.000  C
  C29      1.0000 0.87591  0.36114  0.37316  Biso   1.000  C
  C30      1.0000 0.69542  0.44402  0.49340  Biso   1.000  C
  C31      1.0000 0.98179  0.69754  0.25000  Biso   1.000  C
  C32      1.0000 0.10475  0.47394  0.25000  Biso   1.000  C
  C33      1.0000 0.65131  0.00402  0.95440  Biso   1.000  C
  C34      1.0000 0.51848  0.94804  0.94778  Biso   1.000  C
  C35      1.0000 0.53774  0.89386  0.89332  Biso   1.000  C
  C36      1.0000 0.70739  0.86550  0.85212  Biso   1.000  C
  C37      1.0000 0.38979  0.86114  0.87316  Biso   1.000  C
  C38      1.0000 0.36716  0.94402  0.99340  Biso   1.000  C
  C39      1.0000 0.07067  0.19754  0.75000  Biso   1.000  C
  C40      1.0000 0.17131  0.97394  0.75000  Biso   1.000  C
  C41      1.0000 0.89429  0.49598  0.95440  Biso   1.000  C
  C42      1.0000 0.03374  0.55196  0.94778  Biso   1.000  C
  C43      1.0000 0.06894  0.60614  0.89332  Biso   1.000  C
  C44      1.0000 0.94049  0.63450  0.85212  Biso   1.000  C
  C45      1.0000 0.23705  0.63886  0.87316  Biso   1.000  C
  C46      1.0000 0.13944  0.55598  0.99340  Biso   1.000  C
  C47      1.0000 0.67933  0.30246  0.75000  Biso   1.000  C
  C48      1.0000 0.57869  0.52606  0.75000  Biso   1.000  C
  C49      1.0000 0.34467  0.00402  0.54560  Biso   1.000  C
  C50      1.0000 0.53348  0.94804  0.55222  Biso   1.000  C
  C51      1.0000 0.56840  0.89386  0.60668  Biso   1.000  C
  C52      1.0000 0.42711  0.86550  0.64788  Biso   1.000  C
  C53      1.0000 0.74907  0.86114  0.62684  Biso   1.000  C
  C54      1.0000 0.68882  0.94402  0.50660  Biso   1.000  C
  C55      1.0000 0.73179  0.19754  0.75000  Biso   1.000  C
  C56      1.0000 0.85475  0.97394  0.75000  Biso   1.000  C
  C57      1.0000 0.60973  0.49598  0.54560  Biso   1.000  C
  C58      1.0000 0.41430  0.55196  0.55222  Biso   1.000  C
  C59      1.0000 0.32492  0.60614  0.60668  Biso   1.000  C
  C60      1.0000 0.42501  0.63450  0.64788  Biso   1.000  C
  C61      1.0000 0.12409  0.63886  0.62684  Biso   1.000  C
  C62      1.0000 0.30458  0.55598  0.50660  Biso   1.000  C
  C63      1.0000 0.01821  0.30246  0.75000  Biso   1.000  C
  C64      1.0000 0.89525  0.52606  0.75000  Biso   1.000  C
  C65      1.0000 0.07254  0.85492  0.25000  Biso   1.000  C
  C66      1.0000 0.01781  0.96438  0.25000  Biso   1.000  C
  C67      1.0000 0.17746  0.64508  0.25000  Biso   1.000  C
  C68      1.0000 0.23219  0.53562  0.25000  Biso   1.000  C
  C69      1.0000 0.92746  0.14508  0.75000  Biso   1.000  C
  C70      1.0000 0.98219  0.03562  0.75000  Biso   1.000  C
  C71      1.0000 0.82254  0.35492  0.75000  Biso   1.000  C
  C72      1.0000 0.76781  0.46438  0.75000  Biso   1.000  C
  N1       1.0000 0.33569  0.18476  0.19352  Biso   1.000  N
  N2       1.0000 0.53198  0.18744  0.18052  Biso   1.000  N
  N3       1.0000 0.83925  0.12586  0.25000  Biso   1.000  N
  N4       1.0000 0.97079  0.31524  0.19352  Biso   1.000  N
  N5       1.0000 0.78750  0.31256  0.18052  Biso   1.000  N
  N6       1.0000 0.41075  0.37414  0.25000  Biso   1.000  N
  N7       1.0000 0.47955  0.18476  0.30648  Biso   1.000  N
  N8       1.0000 0.28058  0.18744  0.31948  Biso   1.000  N
  N9       1.0000 0.03489  0.12586  0.25000  Biso   1.000  N
  N10      1.0000 0.71397  0.31524  0.30648  Biso   1.000  N
  N11      1.0000 0.89994  0.31256  0.31948  Biso   1.000  N
  N12      1.0000 0.21511  0.37414  0.25000  Biso   1.000  N
  N13      1.0000 0.66431  0.81524  0.80648  Biso   1.000  N
  N14      1.0000 0.46802  0.81256  0.81948  Biso   1.000  N
  N15      1.0000 0.16075  0.87414  0.75000  Biso   1.000  N
  N16      1.0000 0.02921  0.68476  0.80648  Biso   1.000  N
  N17      1.0000 0.21250  0.68744  0.81948  Biso   1.000  N
  N18      1.0000 0.58925  0.62586  0.75000  Biso   1.000  N
  N19      1.0000 0.52045  0.81524  0.69352  Biso   1.000  N
  N20      1.0000 0.71942  0.81256  0.68052  Biso   1.000  N
  N21      1.0000 0.96511  0.87414  0.75000  Biso   1.000  N
  N22      1.0000 0.28603  0.68476  0.69352  Biso   1.000  N
  N23      1.0000 0.10006  0.68744  0.68052  Biso   1.000  N
  N24      1.0000 0.78489  0.62586  0.75000  Biso   1.000  N
