data_image0
_cell_length_a       10.4135
_cell_length_b       10.5541
_cell_length_c       14.0372
_cell_angle_alpha    99.595
_cell_angle_beta     99.62
_cell_angle_gamma    108.843

_symmetry_space_group_name_H-M    P 1
_symmetry_int_tables_number       1

loop_
  _symmetry_equiv_pos_as_xyz
  'x, y, z'

loop_
  _atom_site_label
  _atom_site_occupancy
  _atom_site_fract_x
  _atom_site_fract_y
  _atom_site_fract_z
  _atom_site_thermal_displace_type
  _atom_site_B_iso_or_equiv
  _atom_site_type_symbol
  Er1      1.0000 0.96416  0.46417  0.82145  Biso   1.000  Er
  Er2      1.0000 0.54178  0.06538  0.18199  Biso   1.000  Er
  Er3      1.0000 0.03584  0.53583  0.17855  Biso   1.000  Er
  Er4      1.0000 0.45822  0.93462  0.81801  Biso   1.000  Er
  H1       1.0000 0.79210  0.81830  0.92170  Biso   1.000  H
  H2       1.0000 0.30150  0.33450  0.89150  Biso   1.000  H
  H3       1.0000 0.08570  0.73730  0.55130  Biso   1.000  H
  H4       1.0000 0.20790  0.18170  0.07830  Biso   1.000  H
  H5       1.0000 0.69850  0.66550  0.10850  Biso   1.000  H
  H6       1.0000 0.91430  0.26270  0.44870  Biso   1.000  H
  C1       1.0000 0.00170  0.87920  0.94430  Biso   1.000  C
  C2       1.0000 0.12770  0.98800  0.99050  Biso   1.000  C
  C3       1.0000 0.87520  0.89110  0.95320  Biso   1.000  C
  C4       1.0000 0.00090  0.74140  0.89440  Biso   1.000  C
  C5       1.0000 0.26500  0.98230  0.97300  Biso   1.000  C
  C6       1.0000 0.48810  0.60180  0.07190  Biso   1.000  C
  C7       1.0000 0.36840  0.50160  0.00680  Biso   1.000  C
  C8       1.0000 0.38120  0.40070  0.93510  Biso   1.000  C
  C9       1.0000 0.48490  0.72050  0.14700  Biso   1.000  C
  C10      1.0000 0.22520  0.49860  0.01180  Biso   1.000  C
  C11      1.0000 0.03020  0.41990  0.56510  Biso   1.000  C
  C12      1.0000 0.08290  0.56480  0.59610  Biso   1.000  C
  C13      1.0000 0.05110  0.64170  0.53030  Biso   1.000  C
  C14      1.0000 0.05620  0.32600  0.63030  Biso   1.000  C
  C15      1.0000 0.17690  0.64230  0.69670  Biso   1.000  C
  C16      1.0000 0.99830  0.12080  0.05570  Biso   1.000  C
  C17      1.0000 0.87230  0.01200  0.00950  Biso   1.000  C
  C18      1.0000 0.12480  0.10890  0.04680  Biso   1.000  C
  C19      1.0000 0.99910  0.25860  0.10560  Biso   1.000  C
  C20      1.0000 0.73500  0.01770  0.02700  Biso   1.000  C
  C21      1.0000 0.51190  0.39820  0.92810  Biso   1.000  C
  C22      1.0000 0.63160  0.49840  0.99320  Biso   1.000  C
  C23      1.0000 0.61880  0.59930  0.06490  Biso   1.000  C
  C24      1.0000 0.51510  0.27950  0.85300  Biso   1.000  C
  C25      1.0000 0.77480  0.50140  0.98820  Biso   1.000  C
  C26      1.0000 0.96980  0.58010  0.43490  Biso   1.000  C
  C27      1.0000 0.91710  0.43520  0.40390  Biso   1.000  C
  C28      1.0000 0.94890  0.35830  0.46970  Biso   1.000  C
  C29      1.0000 0.94380  0.67400  0.36970  Biso   1.000  C
  C30      1.0000 0.82310  0.35770  0.30330  Biso   1.000  C
  O1       1.0000 0.59990  0.24050  0.09550  Biso   1.000  O
  O2       1.0000 0.75360  0.38360  0.69890  Biso   1.000  O
  O3       1.0000 0.36170  0.95950  0.25670  Biso   1.000  O
  O4       1.0000 0.64240  0.98470  0.31040  Biso   1.000  O
  O5       1.0000 0.44770  0.22450  0.25080  Biso   1.000  O
  O6       1.0000 0.88120  0.23560  0.85380  Biso   1.000  O
  O7       1.0000 0.36240  0.00690  0.04690  Biso   1.000  O
  O8       1.0000 0.27300  0.95800  0.88360  Biso   1.000  O
  O9       1.0000 0.07620  0.68990  0.94260  Biso   1.000  O
  O10      1.0000 0.91980  0.67510  0.81100  Biso   1.000  O
  O11      1.0000 0.13120  0.44250  0.93230  Biso   1.000  O
  O12      1.0000 0.20680  0.54940  0.09320  Biso   1.000  O
  O13      1.0000 0.47440  0.82170  0.11440  Biso   1.000  O
  O14      1.0000 0.50270  0.71510  0.23630  Biso   1.000  O
  O15      1.0000 0.15430  0.59300  0.77060  Biso   1.000  O
  O16      1.0000 0.27380  0.75230  0.70090  Biso   1.000  O
  O17      1.0000 0.00020  0.31580  0.70110  Biso   1.000  O
  O18      1.0000 0.12470  0.25490  0.60580  Biso   1.000  O
  O19      1.0000 0.40010  0.75950  0.90450  Biso   1.000  O
  O20      1.0000 0.24640  0.61640  0.30110  Biso   1.000  O
  O21      1.0000 0.63830  0.04050  0.74330  Biso   1.000  O
  O22      1.0000 0.35760  0.01530  0.68960  Biso   1.000  O
  O23      1.0000 0.55230  0.77550  0.74920  Biso   1.000  O
  O24      1.0000 0.11880  0.76440  0.14620  Biso   1.000  O
  O25      1.0000 0.63760  0.99310  0.95310  Biso   1.000  O
  O26      1.0000 0.72700  0.04200  0.11640  Biso   1.000  O
  O27      1.0000 0.92380  0.31010  0.05740  Biso   1.000  O
  O28      1.0000 0.08020  0.32490  0.18900  Biso   1.000  O
  O29      1.0000 0.86880  0.55750  0.06770  Biso   1.000  O
  O30      1.0000 0.79320  0.45060  0.90680  Biso   1.000  O
  O31      1.0000 0.52560  0.17830  0.88560  Biso   1.000  O
  O32      1.0000 0.49730  0.28490  0.76370  Biso   1.000  O
  O33      1.0000 0.84570  0.40700  0.22940  Biso   1.000  O
  O34      1.0000 0.72620  0.24770  0.29910  Biso   1.000  O
  O35      1.0000 0.99980  0.68420  0.29890  Biso   1.000  O
  O36      1.0000 0.87530  0.74510  0.39420  Biso   1.000  O
