data_image0
_cell_length_a       10.285
_cell_length_b       11.5717
_cell_length_c       13.5114
_cell_angle_alpha    85.581
_cell_angle_beta     69.209
_cell_angle_gamma    63.755

_symmetry_space_group_name_H-M    P 1
_symmetry_int_tables_number       1

loop_
  _symmetry_equiv_pos_as_xyz
  'x, y, z'

loop_
  _atom_site_label
  _atom_site_occupancy
  _atom_site_fract_x
  _atom_site_fract_y
  _atom_site_fract_z
  _atom_site_thermal_displace_type
  _atom_site_B_iso_or_equiv
  _atom_site_type_symbol
  Tm1      1.0000 0.44461  0.72456  0.67969  Biso   1.000  Tm
  Tm2      1.0000 0.46882  0.20302  0.69070  Biso   1.000  Tm
  Tm3      1.0000 0.55539  0.27544  0.32031  Biso   1.000  Tm
  Tm4      1.0000 0.53118  0.79698  0.30930  Biso   1.000  Tm
  H1       1.0000 0.98950  0.88940  0.60220  Biso   1.000  H
  H2       1.0000 0.63460  0.79610  0.90870  Biso   1.000  H
  H3       1.0000 0.00700  0.58330  0.38980  Biso   1.000  H
  H4       1.0000 0.01050  0.11060  0.39780  Biso   1.000  H
  H5       1.0000 0.36540  0.20390  0.09130  Biso   1.000  H
  H6       1.0000 0.99300  0.41670  0.61020  Biso   1.000  H
  C1       1.0000 0.86180  0.75280  0.48130  Biso   1.000  C
  C2       1.0000 0.13450  0.72240  0.50790  Biso   1.000  C
  C3       1.0000 0.44330  0.95130  0.81600  Biso   1.000  C
  C4       1.0000 0.85720  0.84370  0.54780  Biso   1.000  C
  C5       1.0000 0.13970  0.62810  0.44570  Biso   1.000  C
  C6       1.0000 0.99330  0.82800  0.55930  Biso   1.000  C
  C7       1.0000 0.72220  0.76580  0.46110  Biso   1.000  C
  C8       1.0000 0.47200  0.97860  0.91080  Biso   1.000  C
  C9       1.0000 0.58000  0.87770  0.94600  Biso   1.000  C
  C10      1.0000 0.00310  0.64520  0.43230  Biso   1.000  C
  C11      1.0000 0.26560  0.21660  0.93980  Biso   1.000  C
  C12      1.0000 0.39320  0.10280  0.96500  Biso   1.000  C
  C13      1.0000 0.27370  0.72170  0.52200  Biso   1.000  C
  C14      1.0000 0.28730  0.50810  0.39660  Biso   1.000  C
  C15      1.0000 0.71190  0.96230  0.60460  Biso   1.000  C
  C16      1.0000 0.13820  0.24720  0.51870  Biso   1.000  C
  C17      1.0000 0.86550  0.27760  0.49210  Biso   1.000  C
  C18      1.0000 0.55670  0.04870  0.18400  Biso   1.000  C
  C19      1.0000 0.14280  0.15630  0.45220  Biso   1.000  C
  C20      1.0000 0.86030  0.37190  0.55430  Biso   1.000  C
  C21      1.0000 0.00670  0.17200  0.44070  Biso   1.000  C
  C22      1.0000 0.27780  0.23420  0.53890  Biso   1.000  C
  C23      1.0000 0.52800  0.02140  0.08920  Biso   1.000  C
  C24      1.0000 0.42000  0.12230  0.05400  Biso   1.000  C
  C25      1.0000 0.99690  0.35480  0.56770  Biso   1.000  C
  C26      1.0000 0.73440  0.78340  0.06020  Biso   1.000  C
  C27      1.0000 0.60680  0.89720  0.03500  Biso   1.000  C
  C28      1.0000 0.72630  0.27830  0.47800  Biso   1.000  C
  C29      1.0000 0.71270  0.49190  0.60340  Biso   1.000  C
  C30      1.0000 0.28810  0.03770  0.39540  Biso   1.000  C
  O1       1.0000 0.60710  0.01510  0.56473  Biso   1.000  O
  O2       1.0000 0.38040  0.04620  0.76827  Biso   1.000  O
  O3       1.0000 0.40070  0.48140  0.42600  Biso   1.000  O
  O4       1.0000 0.28480  0.69760  0.61150  Biso   1.000  O
  O5       1.0000 0.29970  0.27970  0.86117  Biso   1.000  O
  O6       1.0000 0.29670  0.43320  0.32800  Biso   1.000  O
  O7       1.0000 0.30050  0.93780  0.64230  Biso   1.000  O
  O8       1.0000 0.72840  0.77470  0.36550  Biso   1.000  O
  O9       1.0000 0.48560  0.83500  0.78800  Biso   1.000  O
  O10      1.0000 0.41940  0.57770  0.80600  Biso   1.000  O
  O11      1.0000 0.13180  0.24630  0.00300  Biso   1.000  O
  O12      1.0000 0.34710  0.42220  0.67440  Biso   1.000  O
  O13      1.0000 0.20080  0.82240  0.81990  Biso   1.000  O
  O14      1.0000 0.69950  0.01240  0.68970  Biso   1.000  O
  O15      1.0000 0.36170  0.75460  0.44840  Biso   1.000  O
  O16      1.0000 0.60870  0.76440  0.53630  Biso   1.000  O
  O17      1.0000 0.59720  0.27260  0.77250  Biso   1.000  O
  O18      1.0000 0.39290  0.98490  0.43527  Biso   1.000  O
  O19      1.0000 0.61960  0.95380  0.23173  Biso   1.000  O
  O20      1.0000 0.59930  0.51860  0.57400  Biso   1.000  O
  O21      1.0000 0.71520  0.30240  0.38850  Biso   1.000  O
  O22      1.0000 0.70030  0.72030  0.13883  Biso   1.000  O
  O23      1.0000 0.70330  0.56680  0.67200  Biso   1.000  O
  O24      1.0000 0.69950  0.06220  0.35770  Biso   1.000  O
  O25      1.0000 0.27160  0.22530  0.63450  Biso   1.000  O
  O26      1.0000 0.51440  0.16500  0.21200  Biso   1.000  O
  O27      1.0000 0.58060  0.42230  0.19400  Biso   1.000  O
  O28      1.0000 0.86820  0.75370  0.99700  Biso   1.000  O
  O29      1.0000 0.65290  0.57780  0.32560  Biso   1.000  O
  O30      1.0000 0.79920  0.17760  0.18010  Biso   1.000  O
  O31      1.0000 0.30050  0.98760  0.31030  Biso   1.000  O
  O32      1.0000 0.63830  0.24540  0.55160  Biso   1.000  O
  O33      1.0000 0.39130  0.23560  0.46370  Biso   1.000  O
  O34      1.0000 0.40280  0.72740  0.22750  Biso   1.000  O
