data_image0
_cell_length_a       12.004
_cell_length_b       13.943
_cell_length_c       22.746
_cell_angle_alpha    95.776
_cell_angle_beta     105.206
_cell_angle_gamma    104.265

_symmetry_space_group_name_H-M    P 1
_symmetry_int_tables_number       1

loop_
  _symmetry_equiv_pos_as_xyz
  'x, y, z'

loop_
  _atom_site_label
  _atom_site_occupancy
  _atom_site_fract_x
  _atom_site_fract_y
  _atom_site_fract_z
  _atom_site_thermal_displace_type
  _atom_site_B_iso_or_equiv
  _atom_site_type_symbol
  Na1      1.0000 0.70950  0.30190  0.15680  Biso   1.000  Na
  Na2      1.0000 0.29050  0.69810  0.84320  Biso   1.000  Na
  Ag1      1.0000 0.51577  0.43971  0.08261  Biso   1.000  Ag
  Ag2      1.0000 0.85482  0.48531  0.14588  Biso   1.000  Ag
  Ag3      1.0000 0.97386  0.65029  0.30352  Biso   1.000  Ag
  Ag4      1.0000 0.39794  0.61872  0.17420  Biso   1.000  Ag
  Ag5      1.0000 0.18636  0.92569  0.55895  Biso   1.000  Ag
  Ag6      1.0000 0.31660  0.32941  0.93402  Biso   1.000  Ag
  Ag7      1.0000 0.15134  0.16354  0.99843  Biso   1.000  Ag
  Ag8      1.0000 0.48423  0.56029  0.91739  Biso   1.000  Ag
  Ag9      1.0000 0.14518  0.51469  0.85412  Biso   1.000  Ag
  Ag10     1.0000 0.02614  0.34971  0.69648  Biso   1.000  Ag
  Ag11     1.0000 0.60206  0.38128  0.82580  Biso   1.000  Ag
  Ag12     1.0000 0.81364  0.07431  0.44105  Biso   1.000  Ag
  Ag13     1.0000 0.68340  0.67059  0.06598  Biso   1.000  Ag
  Ag14     1.0000 0.84866  0.83646  0.00157  Biso   1.000  Ag
  H1       1.0000 0.21500  0.79290  0.34280  Biso   1.000  H
  H2       1.0000 0.35280  0.87110  0.43260  Biso   1.000  H
  H3       1.0000 0.57270  0.72820  0.39690  Biso   1.000  H
  H4       1.0000 0.43330  0.64680  0.30470  Biso   1.000  H
  H5       1.0000 0.83710  0.59090  0.51750  Biso   1.000  H
  H6       1.0000 0.69860  0.44510  0.50950  Biso   1.000  H
  H7       1.0000 0.93410  0.46870  0.38130  Biso   1.000  H
  H8       1.0000 0.78480  0.32790  0.37040  Biso   1.000  H
  H9       1.0000 0.81690  0.72470  0.36310  Biso   1.000  H
  H10      1.0000 0.84680  0.86870  0.43100  Biso   1.000  H
  H11      1.0000 0.57620  0.82400  0.24140  Biso   1.000  H
  H12      1.0000 0.65820  0.97450  0.30650  Biso   1.000  H
  H13      1.0000 0.75880  0.25200  0.91780  Biso   1.000  H
  H14      1.0000 0.90230  0.16520  0.91970  Biso   1.000  H
  H15      1.0000 0.12970  0.36020  0.05830  Biso   1.000  H
  H16      1.0000 0.99800  0.45290  0.05890  Biso   1.000  H
  H17      1.0000 0.54390  0.02450  0.91180  Biso   1.000  H
  H18      1.0000 0.63550  0.89230  0.91400  Biso   1.000  H
  H19      1.0000 0.74600  0.13310  0.08460  Biso   1.000  H
  H20      1.0000 0.81850  0.00330  0.08920  Biso   1.000  H
  H21      1.0000 0.78500  0.20710  0.65720  Biso   1.000  H
  H22      1.0000 0.64720  0.12890  0.56740  Biso   1.000  H
  H23      1.0000 0.42730  0.27180  0.60310  Biso   1.000  H
  H24      1.0000 0.56670  0.35320  0.69530  Biso   1.000  H
  H25      1.0000 0.16290  0.40910  0.48250  Biso   1.000  H
  H26      1.0000 0.30140  0.55490  0.49050  Biso   1.000  H
  H27      1.0000 0.06590  0.53130  0.61870  Biso   1.000  H
  H28      1.0000 0.21520  0.67210  0.62960  Biso   1.000  H
  H29      1.0000 0.18310  0.27530  0.63690  Biso   1.000  H
  H30      1.0000 0.15320  0.13130  0.56900  Biso   1.000  H
  H31      1.0000 0.42380  0.17600  0.75860  Biso   1.000  H
  H32      1.0000 0.34180  0.02550  0.69350  Biso   1.000  H
  H33      1.0000 0.24120  0.74800  0.08220  Biso   1.000  H
  H34      1.0000 0.09770  0.83480  0.08030  Biso   1.000  H
  H35      1.0000 0.87030  0.63980  0.94170  Biso   1.000  H
  H36      1.0000 0.00200  0.54710  0.94110  Biso   1.000  H
  H37      1.0000 0.45610  0.97550  0.08820  Biso   1.000  H
  H38      1.0000 0.36450  0.10770  0.08600  Biso   1.000  H
  H39      1.0000 0.25400  0.86690  0.91540  Biso   1.000  H
  H40      1.0000 0.18150  0.99670  0.91080  Biso   1.000  H
  C1       1.0000 0.21490  0.65910  0.25750  Biso   1.000  C
  C2       1.0000 0.30480  0.71300  0.31520  Biso   1.000  C
  C3       1.0000 0.28800  0.77760  0.35290  Biso   1.000  C
  C4       1.0000 0.37200  0.82500  0.40720  Biso   1.000  C
  C5       1.0000 0.49900  0.74180  0.38620  Biso   1.000  C
  C6       1.0000 0.41590  0.69270  0.33100  Biso   1.000  C
  C7       1.0000 0.98570  0.64740  0.45110  Biso   1.000  C
  C8       1.0000 0.90000  0.54750  0.44530  Biso   1.000  C
  C9       1.0000 0.82700  0.53650  0.48740  Biso   1.000  C
  C10      1.0000 0.74800  0.45200  0.48370  Biso   1.000  C
  C11      1.0000 0.88460  0.46700  0.40670  Biso   1.000  C
  C12      1.0000 0.79900  0.38080  0.40230  Biso   1.000  C
  C13      1.0000 0.68750  0.67470  0.24550  Biso   1.000  C
  C14      1.0000 0.70630  0.76020  0.29150  Biso   1.000  C
  C15      1.0000 0.78000  0.77350  0.35020  Biso   1.000  C
  C16      1.0000 0.79890  0.86130  0.39040  Biso   1.000  C
  C17      1.0000 0.64100  0.83470  0.27680  Biso   1.000  C
  C18      1.0000 0.68300  0.91930  0.31840  Biso   1.000  C
  C19      1.0000 0.77890  0.42380  0.99010  Biso   1.000  C
  C20      1.0000 0.86480  0.35950  0.98530  Biso   1.000  C
  C21      1.0000 0.83500  0.27630  0.94630  Biso   1.000  C
  C22      1.0000 0.92200  0.22380  0.94840  Biso   1.000  C
  C23      1.0000 0.05450  0.33750  0.02870  Biso   1.000  C
  C24      1.0000 0.97710  0.39440  0.03000  Biso   1.000  C
  C25      1.0000 0.57600  0.17580  0.00300  Biso   1.000  C
  C26      1.0000 0.63700  0.09120  0.99820  Biso   1.000  C
  C27      1.0000 0.60200  0.02150  0.94700  Biso   1.000  C
  C28      1.0000 0.65800  0.94280  0.94840  Biso   1.000  C
  C29      1.0000 0.72100  0.08320  0.04970  Biso   1.000  C
  C30      1.0000 0.76800  0.01000  0.05180  Biso   1.000  C
  C31      1.0000 0.78510  0.34090  0.74250  Biso   1.000  C
  C32      1.0000 0.69520  0.28700  0.68480  Biso   1.000  C
  C33      1.0000 0.71200  0.22240  0.64710  Biso   1.000  C
  C34      1.0000 0.62800  0.17500  0.59280  Biso   1.000  C
  C35      1.0000 0.50100  0.25820  0.61380  Biso   1.000  C
  C36      1.0000 0.58410  0.30730  0.66900  Biso   1.000  C
  C37      1.0000 0.01430  0.35260  0.54890  Biso   1.000  C
  C38      1.0000 0.10000  0.45250  0.55470  Biso   1.000  C
  C39      1.0000 0.17300  0.46350  0.51260  Biso   1.000  C
  C40      1.0000 0.25200  0.54800  0.51630  Biso   1.000  C
  C41      1.0000 0.11540  0.53300  0.59330  Biso   1.000  C
  C42      1.0000 0.20100  0.61920  0.59770  Biso   1.000  C
  C43      1.0000 0.31250  0.32530  0.75450  Biso   1.000  C
  C44      1.0000 0.29370  0.23980  0.70850  Biso   1.000  C
  C45      1.0000 0.22000  0.22650  0.64980  Biso   1.000  C
  C46      1.0000 0.20110  0.13870  0.60960  Biso   1.000  C
  C47      1.0000 0.35900  0.16530  0.72320  Biso   1.000  C
  C48      1.0000 0.31700  0.08070  0.68160  Biso   1.000  C
  C49      1.0000 0.22110  0.57620  0.00990  Biso   1.000  C
  C50      1.0000 0.13520  0.64050  0.01470  Biso   1.000  C
  C51      1.0000 0.16500  0.72370  0.05370  Biso   1.000  C
  C52      1.0000 0.07800  0.77620  0.05160  Biso   1.000  C
  C53      1.0000 0.94550  0.66250  0.97130  Biso   1.000  C
  C54      1.0000 0.02290  0.60560  0.97000  Biso   1.000  C
  C55      1.0000 0.42400  0.82420  0.99700  Biso   1.000  C
  C56      1.0000 0.36300  0.90880  0.00180  Biso   1.000  C
  C57      1.0000 0.39800  0.97850  0.05300  Biso   1.000  C
  C58      1.0000 0.34200  0.05720  0.05160  Biso   1.000  C
  C59      1.0000 0.27900  0.91680  0.95030  Biso   1.000  C
  C60      1.0000 0.23200  0.99000  0.94820  Biso   1.000  C
  N1       1.0000 0.24240  0.61960  0.20670  Biso   1.000  N
  N2       1.0000 0.13370  0.57200  0.16400  Biso   1.000  N
  N3       1.0000 0.04810  0.58300  0.18960  Biso   1.000  N
  N4       1.0000 0.47720  0.81040  0.42630  Biso   1.000  N
  N5       1.0000 0.02590  0.68560  0.40620  Biso   1.000  N
  N6       1.0000 0.10050  0.77650  0.43390  Biso   1.000  N
  N7       1.0000 0.09710  0.79290  0.49110  Biso   1.000  N
  N8       1.0000 0.02220  0.71350  0.50430  Biso   1.000  N
  N9       1.0000 0.73890  0.36920  0.43850  Biso   1.000  N
  N10      1.0000 0.77740  0.63150  0.24280  Biso   1.000  N
  N11      1.0000 0.73400  0.56140  0.19270  Biso   1.000  N
  N12      1.0000 0.62100  0.55950  0.16610  Biso   1.000  N
  N13      1.0000 0.58990  0.63090  0.19760  Biso   1.000  N
  N14      1.0000 0.75530  0.93190  0.37540  Biso   1.000  N
  N15      1.0000 0.78260  0.48140  0.03910  Biso   1.000  N
  N16      1.0000 0.69800  0.52150  0.02150  Biso   1.000  N
  N17      1.0000 0.63860  0.49010  0.96570  Biso   1.000  N
  N18      1.0000 0.68820  0.42270  0.94060  Biso   1.000  N
  N19      1.0000 0.03390  0.25430  0.99000  Biso   1.000  N
  N20      1.0000 0.60080  0.24820  0.05160  Biso   1.000  N
  N21      1.0000 0.52940  0.30270  0.03060  Biso   1.000  N
  N22      1.0000 0.46030  0.26610  0.97420  Biso   1.000  N
  N23      1.0000 0.49200  0.18590  0.95280  Biso   1.000  N
  N24      1.0000 0.74600  0.94180  0.00100  Biso   1.000  N
  N25      1.0000 0.09850  0.63390  0.24590  Biso   1.000  N
  N26      1.0000 0.75760  0.38040  0.79330  Biso   1.000  N
  N27      1.0000 0.86630  0.42800  0.83600  Biso   1.000  N
  N28      1.0000 0.95190  0.41700  0.81040  Biso   1.000  N
  N29      1.0000 0.52280  0.18960  0.57370  Biso   1.000  N
  N30      1.0000 0.97410  0.31440  0.59380  Biso   1.000  N
  N31      1.0000 0.89950  0.22350  0.56610  Biso   1.000  N
  N32      1.0000 0.90290  0.20710  0.50890  Biso   1.000  N
  N33      1.0000 0.97780  0.28650  0.49570  Biso   1.000  N
  N34      1.0000 0.26110  0.63080  0.56150  Biso   1.000  N
  N35      1.0000 0.22260  0.36850  0.75720  Biso   1.000  N
  N36      1.0000 0.26600  0.43860  0.80730  Biso   1.000  N
  N37      1.0000 0.37900  0.44050  0.83390  Biso   1.000  N
  N38      1.0000 0.41010  0.36910  0.80240  Biso   1.000  N
  N39      1.0000 0.24470  0.06810  0.62460  Biso   1.000  N
  N40      1.0000 0.21740  0.51860  0.96090  Biso   1.000  N
  N41      1.0000 0.30200  0.47850  0.97850  Biso   1.000  N
  N42      1.0000 0.36140  0.50990  0.03430  Biso   1.000  N
  N43      1.0000 0.31180  0.57730  0.05940  Biso   1.000  N
  N44      1.0000 0.96610  0.74570  0.01000  Biso   1.000  N
  N45      1.0000 0.39920  0.75180  0.94840  Biso   1.000  N
  N46      1.0000 0.47060  0.69730  0.96940  Biso   1.000  N
  N47      1.0000 0.53970  0.73390  0.02580  Biso   1.000  N
  N48      1.0000 0.50800  0.81410  0.04720  Biso   1.000  N
  N49      1.0000 0.25400  0.05820  0.99900  Biso   1.000  N
  N50      1.0000 0.90150  0.36610  0.75410  Biso   1.000  N
  O1       1.0000 0.12200  0.25500  0.86270  Biso   1.000  O
  O2       1.0000 0.87800  0.74500  0.13730  Biso   1.000  O
