data_image0
_cell_length_a       8.60273
_cell_length_b       13.2648
_cell_length_c       14.942
_cell_angle_alpha    83.5649
_cell_angle_beta     73.2695
_cell_angle_gamma    71.0787

_symmetry_space_group_name_H-M    P 1
_symmetry_int_tables_number       1

loop_
  _symmetry_equiv_pos_as_xyz
  'x, y, z'

loop_
  _atom_site_label
  _atom_site_occupancy
  _atom_site_fract_x
  _atom_site_fract_y
  _atom_site_fract_z
  _atom_site_thermal_displace_type
  _atom_site_B_iso_or_equiv
  _atom_site_type_symbol
  Zn1      1.0000 0.83851  0.80234  0.94570  Biso   1.000  Zn
  Zn2      1.0000 0.58655  0.69766  0.55430  Biso   1.000  Zn
  Zn3      1.0000 0.16149  0.19766  0.05430  Biso   1.000  Zn
  Zn4      1.0000 0.41345  0.30234  0.44570  Biso   1.000  Zn
  Zn5      1.0000 0.00000  0.00000  0.00000  Biso   1.000  Zn
  Zn6      1.0000 0.00000  0.50000  0.50000  Biso   1.000  Zn
  H1       1.0000 0.72840  0.09730  0.72590  Biso   1.000  H
  H2       1.0000 0.80830  0.23040  0.62880  Biso   1.000  H
  H3       1.0000 0.27040  0.12240  0.67560  Biso   1.000  H
  H4       1.0000 0.86330  0.59110  0.02730  Biso   1.000  H
  H5       1.0000 0.72520  0.46560  0.05860  Biso   1.000  H
  H6       1.0000 0.41790  0.63870  0.90370  Biso   1.000  H
  H7       1.0000 0.56480  0.75920  0.87720  Biso   1.000  H
  H8       1.0000 0.15100  0.74000  0.84600  Biso   1.000  H
  H9       1.0000 0.08800  0.65900  0.83700  Biso   1.000  H
  H10      1.0000 0.55160  0.40270  0.77410  Biso   1.000  H
  H11      1.0000 0.66750  0.26960  0.87120  Biso   1.000  H
  H12      1.0000 0.06840  0.37760  0.82440  Biso   1.000  H
  H13      1.0000 0.48170  0.90890  0.47270  Biso   1.000  H
  H14      1.0000 0.24940  0.03440  0.44140  Biso   1.000  H
  H15      1.0000 0.96030  0.86130  0.59630  Biso   1.000  H
  H16      1.0000 0.20120  0.74080  0.62280  Biso   1.000  H
  H17      1.0000 0.73700  0.76000  0.65400  Biso   1.000  H
  H18      1.0000 0.58400  0.84100  0.66300  Biso   1.000  H
  H19      1.0000 0.27160  0.90270  0.27410  Biso   1.000  H
  H20      1.0000 0.19170  0.76960  0.37120  Biso   1.000  H
  H21      1.0000 0.72960  0.87760  0.32440  Biso   1.000  H
  H22      1.0000 0.13670  0.40890  0.97270  Biso   1.000  H
  H23      1.0000 0.27480  0.53440  0.94140  Biso   1.000  H
  H24      1.0000 0.58210  0.36130  0.09630  Biso   1.000  H
  H25      1.0000 0.43520  0.24080  0.12280  Biso   1.000  H
  H26      1.0000 0.84900  0.26000  0.15400  Biso   1.000  H
  H27      1.0000 0.91200  0.34100  0.16300  Biso   1.000  H
  H28      1.0000 0.44840  0.59730  0.22590  Biso   1.000  H
  H29      1.0000 0.33250  0.73040  0.12880  Biso   1.000  H
  H30      1.0000 0.93160  0.62240  0.17560  Biso   1.000  H
  H31      1.0000 0.51830  0.09110  0.52730  Biso   1.000  H
  H32      1.0000 0.75060  0.96560  0.55860  Biso   1.000  H
  H33      1.0000 0.03970  0.13870  0.40370  Biso   1.000  H
  H34      1.0000 0.79880  0.25920  0.37720  Biso   1.000  H
  H35      1.0000 0.26300  0.24000  0.34600  Biso   1.000  H
  H36      1.0000 0.41600  0.15900  0.33700  Biso   1.000  H
  C1       1.0000 0.88471  0.95128  0.82850  Biso   1.000  C
  C2       1.0000 0.94770  0.03242  0.76358  Biso   1.000  C
  C3       1.0000 0.83656  0.10318  0.71730  Biso   1.000  C
  C4       1.0000 0.88471  0.18259  0.65839  Biso   1.000  C
  C5       1.0000 0.04587  0.19067  0.64359  Biso   1.000  C
  C6       1.0000 0.10341  0.27638  0.58040  Biso   1.000  C
  C7       1.0000 0.16049  0.11816  0.68706  Biso   1.000  C
  C8       1.0000 0.11222  0.03972  0.74724  Biso   1.000  C
  C9       1.0000 0.77094  0.60142  0.00310  Biso   1.000  C
  C10      1.0000 0.68805  0.52560  0.02250  Biso   1.000  C
  C11      1.0000 0.54910  0.53860  0.98820  Biso   1.000  C
  C12      1.0000 0.50665  0.62790  0.93100  Biso   1.000  C
  C13      1.0000 0.59620  0.69990  0.91510  Biso   1.000  C
  C14      1.0000 0.66449  0.54872  0.67150  Biso   1.000  C
  C15      1.0000 0.74370  0.46758  0.73642  Biso   1.000  C
  C16      1.0000 0.65704  0.39682  0.78270  Biso   1.000  C
  C17      1.0000 0.72569  0.31741  0.84161  Biso   1.000  C
  C18      1.0000 0.88013  0.30933  0.85641  Biso   1.000  C
  C19      1.0000 0.96019  0.22362  0.91960  Biso   1.000  C
  C20      1.0000 0.96571  0.38184  0.81294  Biso   1.000  C
  C21      1.0000 0.89918  0.46028  0.75276  Biso   1.000  C
  C22      1.0000 0.37546  0.89858  0.49690  Biso   1.000  C
  C23      1.0000 0.23615  0.97440  0.47750  Biso   1.000  C
  C24      1.0000 0.07590  0.96140  0.51180  Biso   1.000  C
  C25      1.0000 0.06555  0.87210  0.56900  Biso   1.000  C
  C26      1.0000 0.21120  0.80010  0.58490  Biso   1.000  C
  C27      1.0000 0.11529  0.04872  0.17150  Biso   1.000  C
  C28      1.0000 0.05230  0.96758  0.23642  Biso   1.000  C
  C29      1.0000 0.16344  0.89682  0.28270  Biso   1.000  C
  C30      1.0000 0.11529  0.81741  0.34161  Biso   1.000  C
  C31      1.0000 0.95413  0.80933  0.35641  Biso   1.000  C
  C32      1.0000 0.89659  0.72362  0.41960  Biso   1.000  C
  C33      1.0000 0.83951  0.88184  0.31294  Biso   1.000  C
  C34      1.0000 0.88778  0.96028  0.25276  Biso   1.000  C
  C35      1.0000 0.22906  0.39858  0.99690  Biso   1.000  C
  C36      1.0000 0.31195  0.47440  0.97750  Biso   1.000  C
  C37      1.0000 0.45090  0.46140  0.01180  Biso   1.000  C
  C38      1.0000 0.49335  0.37210  0.06900  Biso   1.000  C
  C39      1.0000 0.40380  0.30010  0.08490  Biso   1.000  C
  C40      1.0000 0.33551  0.45128  0.32850  Biso   1.000  C
  C41      1.0000 0.25630  0.53242  0.26358  Biso   1.000  C
  C42      1.0000 0.34296  0.60318  0.21730  Biso   1.000  C
  C43      1.0000 0.27431  0.68259  0.15839  Biso   1.000  C
  C44      1.0000 0.11987  0.69067  0.14359  Biso   1.000  C
  C45      1.0000 0.03981  0.77638  0.08040  Biso   1.000  C
  C46      1.0000 0.03429  0.61816  0.18706  Biso   1.000  C
  C47      1.0000 0.10082  0.53972  0.24724  Biso   1.000  C
  C48      1.0000 0.62454  0.10142  0.50310  Biso   1.000  C
  C49      1.0000 0.76385  0.02560  0.52250  Biso   1.000  C
  C50      1.0000 0.92410  0.03860  0.48820  Biso   1.000  C
  C51      1.0000 0.93445  0.12790  0.43100  Biso   1.000  C
  C52      1.0000 0.78880  0.19990  0.41510  Biso   1.000  C
  S1       1.0000 0.27238  0.94884  0.79630  Biso   1.000  S
  S2       1.0000 0.01752  0.55116  0.70370  Biso   1.000  S
  S3       1.0000 0.72762  0.05116  0.20370  Biso   1.000  S
  S4       1.0000 0.98248  0.44884  0.29630  Biso   1.000  S
  N1       1.0000 0.72568  0.68936  0.95108  Biso   1.000  N
  N2       1.0000 0.36612  0.81064  0.54892  Biso   1.000  N
  N3       1.0000 0.27432  0.31064  0.04892  Biso   1.000  N
  N4       1.0000 0.63388  0.18936  0.45108  Biso   1.000  N
  O1       1.0000 0.91035  0.93723  0.91047  Biso   1.000  O
  O2       1.0000 0.81131  0.89745  0.80493  Biso   1.000  O
  O3       1.0000 0.99651  0.34768  0.54910  Biso   1.000  O
  O4       1.0000 0.25984  0.26813  0.56519  Biso   1.000  O
  O5       1.0000 0.43228  0.96300  0.74244  Biso   1.000  O
  O6       1.0000 0.23237  0.98116  0.89350  Biso   1.000  O
  O7       1.0000 0.26365  0.84360  0.78890  Biso   1.000  O
  O8       1.0000 0.08460  0.70585  0.87195  Biso   1.000  O
  O9       1.0000 0.75805  0.56277  0.58953  Biso   1.000  O
  O10      1.0000 0.51369  0.60255  0.69507  Biso   1.000  O
  O11      1.0000 0.89329  0.15232  0.95090  Biso   1.000  O
  O12      1.0000 0.09316  0.23187  0.93481  Biso   1.000  O
  O13      1.0000 0.13772  0.53700  0.75756  Biso   1.000  O
  O14      1.0000 0.10703  0.51884  0.60650  Biso   1.000  O
  O15      1.0000 0.89615  0.65640  0.71110  Biso   1.000  O
  O16      1.0000 0.66240  0.79415  0.62805  Biso   1.000  O
  O17      1.0000 0.08965  0.06277  0.08953  Biso   1.000  O
  O18      1.0000 0.18869  0.10255  0.19507  Biso   1.000  O
  O19      1.0000 0.00349  0.65232  0.45090  Biso   1.000  O
  O20      1.0000 0.74016  0.73187  0.43481  Biso   1.000  O
  O21      1.0000 0.56772  0.03700  0.25756  Biso   1.000  O
  O22      1.0000 0.76763  0.01884  0.10650  Biso   1.000  O
  O23      1.0000 0.73635  0.15640  0.21110  Biso   1.000  O
  O24      1.0000 0.91540  0.29415  0.12805  Biso   1.000  O
  O25      1.0000 0.24195  0.43723  0.41047  Biso   1.000  O
  O26      1.0000 0.48631  0.39745  0.30493  Biso   1.000  O
  O27      1.0000 0.10671  0.84768  0.04910  Biso   1.000  O
  O28      1.0000 0.90684  0.76813  0.06519  Biso   1.000  O
  O29      1.0000 0.86228  0.46300  0.24244  Biso   1.000  O
  O30      1.0000 0.89297  0.48116  0.39350  Biso   1.000  O
  O31      1.0000 0.10385  0.34360  0.28890  Biso   1.000  O
  O32      1.0000 0.33760  0.20585  0.37195  Biso   1.000  O
