data_image0
_cell_length_a       8.6864
_cell_length_b       14.2414
_cell_length_c       16.885
_cell_angle_alpha    90
_cell_angle_beta     100.046
_cell_angle_gamma    90

_symmetry_space_group_name_H-M    P 1
_symmetry_int_tables_number       1

loop_
  _symmetry_equiv_pos_as_xyz
  'x, y, z'

loop_
  _atom_site_label
  _atom_site_occupancy
  _atom_site_fract_x
  _atom_site_fract_y
  _atom_site_fract_z
  _atom_site_thermal_displace_type
  _atom_site_B_iso_or_equiv
  _atom_site_type_symbol
  Co1      1.0000 0.71365  0.24031  0.76685  Biso   1.000  Co
  Co2      1.0000 0.78635  0.74031  0.73315  Biso   1.000  Co
  Co3      1.0000 0.28635  0.75969  0.23315  Biso   1.000  Co
  Co4      1.0000 0.21365  0.25969  0.26685  Biso   1.000  Co
  H1       1.0000 0.44620  0.14350  0.55070  Biso   1.000  H
  H2       1.0000 0.90950  0.57700  0.51710  Biso   1.000  H
  H3       1.0000 0.74150  0.45220  0.48050  Biso   1.000  H
  H4       1.0000 0.81630  0.43150  0.40420  Biso   1.000  H
  H5       1.0000 0.17370  0.56930  0.26380  Biso   1.000  H
  H6       1.0000 0.06920  0.48140  0.35300  Biso   1.000  H
  H7       1.0000 0.95630  0.72050  0.45370  Biso   1.000  H
  H8       1.0000 0.06510  0.80090  0.35960  Biso   1.000  H
  H9       1.0000 0.59140  0.60630  0.48190  Biso   1.000  H
  H10      1.0000 0.42460  0.70770  0.40540  Biso   1.000  H
  H11      1.0000 0.53840  0.61160  0.20660  Biso   1.000  H
  H12      1.0000 0.71000  0.50710  0.28040  Biso   1.000  H
  H13      1.0000 0.60440  0.21150  0.89630  Biso   1.000  H
  H14      1.0000 0.47600  0.23320  0.83790  Biso   1.000  H
  H15      1.0000 0.96310  0.14590  0.79070  Biso   1.000  H
  H16      1.0000 0.84810  0.08730  0.81060  Biso   1.000  H
  H17      1.0000 0.05380  0.64350  0.94930  Biso   1.000  H
  H18      1.0000 0.59050  0.07700  0.98290  Biso   1.000  H
  H19      1.0000 0.75850  0.95220  0.01950  Biso   1.000  H
  H20      1.0000 0.68370  0.93150  0.09580  Biso   1.000  H
  H21      1.0000 0.32630  0.06930  0.23620  Biso   1.000  H
  H22      1.0000 0.43080  0.98140  0.14700  Biso   1.000  H
  H23      1.0000 0.54370  0.22050  0.04630  Biso   1.000  H
  H24      1.0000 0.43490  0.30090  0.14040  Biso   1.000  H
  H25      1.0000 0.90860  0.10630  0.01810  Biso   1.000  H
  H26      1.0000 0.07540  0.20770  0.09460  Biso   1.000  H
  H27      1.0000 0.96160  0.11160  0.29340  Biso   1.000  H
  H28      1.0000 0.79000  0.00710  0.21960  Biso   1.000  H
  H29      1.0000 0.89560  0.71150  0.60370  Biso   1.000  H
  H30      1.0000 0.02400  0.73320  0.66210  Biso   1.000  H
  H31      1.0000 0.53690  0.64590  0.70930  Biso   1.000  H
  H32      1.0000 0.65190  0.58730  0.68940  Biso   1.000  H
  H33      1.0000 0.55380  0.85650  0.44930  Biso   1.000  H
  H34      1.0000 0.09050  0.42300  0.48290  Biso   1.000  H
  H35      1.0000 0.25850  0.54780  0.51950  Biso   1.000  H
  H36      1.0000 0.18370  0.56850  0.59580  Biso   1.000  H
  H37      1.0000 0.82630  0.43070  0.73620  Biso   1.000  H
  H38      1.0000 0.93080  0.51860  0.64700  Biso   1.000  H
  H39      1.0000 0.04370  0.27950  0.54630  Biso   1.000  H
  H40      1.0000 0.93490  0.19910  0.64040  Biso   1.000  H
  H41      1.0000 0.40860  0.39370  0.51810  Biso   1.000  H
  H42      1.0000 0.57540  0.29230  0.59460  Biso   1.000  H
  H43      1.0000 0.46160  0.38840  0.79340  Biso   1.000  H
  H44      1.0000 0.29000  0.49290  0.71960  Biso   1.000  H
  H45      1.0000 0.39560  0.78850  0.10370  Biso   1.000  H
  H46      1.0000 0.52400  0.76680  0.16210  Biso   1.000  H
  H47      1.0000 0.03690  0.85410  0.20930  Biso   1.000  H
  H48      1.0000 0.15190  0.91270  0.18940  Biso   1.000  H
  H49      1.0000 0.94620  0.35650  0.05070  Biso   1.000  H
  H50      1.0000 0.40950  0.92300  0.01710  Biso   1.000  H
  H51      1.0000 0.24150  0.04780  0.98050  Biso   1.000  H
  H52      1.0000 0.31630  0.06850  0.90420  Biso   1.000  H
  H53      1.0000 0.67370  0.93070  0.76380  Biso   1.000  H
  H54      1.0000 0.56920  0.01860  0.85300  Biso   1.000  H
  H55      1.0000 0.45630  0.77950  0.95370  Biso   1.000  H
  H56      1.0000 0.56510  0.69910  0.85960  Biso   1.000  H
  H57      1.0000 0.09140  0.89370  0.98190  Biso   1.000  H
  H58      1.0000 0.92460  0.79230  0.90540  Biso   1.000  H
  H59      1.0000 0.03840  0.88840  0.70660  Biso   1.000  H
  H60      1.0000 0.21000  0.99290  0.78040  Biso   1.000  H
  H61      1.0000 0.10440  0.28850  0.39630  Biso   1.000  H
  H62      1.0000 0.97600  0.26680  0.33790  Biso   1.000  H
  H63      1.0000 0.46310  0.35410  0.29070  Biso   1.000  H
  H64      1.0000 0.34810  0.41270  0.31060  Biso   1.000  H
  C1       1.0000 0.26380  0.12490  0.41388  Biso   1.000  C
  C2       1.0000 0.37990  0.05560  0.45798  Biso   1.000  C
  C3       1.0000 0.58990  0.03200  0.57238  Biso   1.000  C
  C4       1.0000 0.68560  0.07300  0.64812  Biso   1.000  C
  C5       1.0000 0.46860  0.08560  0.52999  Biso   1.000  C
  C6       1.0000 0.93870  0.53320  0.47750  Biso   1.000  C
  C7       1.0000 0.78890  0.48110  0.43862  Biso   1.000  C
  C8       1.0000 0.13110  0.60030  0.30344  Biso   1.000  C
  C9       1.0000 0.06840  0.54660  0.35671  Biso   1.000  C
  C10      1.0000 0.00370  0.59050  0.41635  Biso   1.000  C
  C11      1.0000 0.00170  0.68770  0.41608  Biso   1.000  C
  C12      1.0000 0.06800  0.73560  0.35917  Biso   1.000  C
  C13      1.0000 0.67240  0.54540  0.38985  Biso   1.000  C
  C14      1.0000 0.58340  0.60605  0.42622  Biso   1.000  C
  C15      1.0000 0.48230  0.66648  0.37945  Biso   1.000  C
  C16      1.0000 0.54830  0.61060  0.26230  Biso   1.000  C
  C17      1.0000 0.65260  0.54793  0.30695  Biso   1.000  C
  C18      1.0000 0.23620  0.62490  0.08612  Biso   1.000  C
  C19      1.0000 0.12010  0.55560  0.04202  Biso   1.000  C
  C20      1.0000 0.91010  0.53200  0.92762  Biso   1.000  C
  C21      1.0000 0.81440  0.57300  0.85188  Biso   1.000  C
  C22      1.0000 0.03140  0.58560  0.97001  Biso   1.000  C
  C23      1.0000 0.56130  0.03320  0.02250  Biso   1.000  C
  C24      1.0000 0.71110  0.98110  0.06138  Biso   1.000  C
  C25      1.0000 0.36890  0.10030  0.19656  Biso   1.000  C
  C26      1.0000 0.43160  0.04660  0.14329  Biso   1.000  C
  C27      1.0000 0.49630  0.09050  0.08365  Biso   1.000  C
  C28      1.0000 0.49830  0.18770  0.08392  Biso   1.000  C
  C29      1.0000 0.43200  0.23560  0.14083  Biso   1.000  C
  C30      1.0000 0.82760  0.04540  0.11015  Biso   1.000  C
  C31      1.0000 0.91660  0.10605  0.07378  Biso   1.000  C
  C32      1.0000 0.01770  0.16648  0.12055  Biso   1.000  C
  C33      1.0000 0.95170  0.11060  0.23770  Biso   1.000  C
  C34      1.0000 0.84740  0.04793  0.19305  Biso   1.000  C
  C35      1.0000 0.73620  0.87510  0.58612  Biso   1.000  C
  C36      1.0000 0.62010  0.94440  0.54202  Biso   1.000  C
  C37      1.0000 0.41010  0.96800  0.42762  Biso   1.000  C
  C38      1.0000 0.31440  0.92700  0.35188  Biso   1.000  C
  C39      1.0000 0.53140  0.91440  0.47001  Biso   1.000  C
  C40      1.0000 0.06130  0.46680  0.52250  Biso   1.000  C
  C41      1.0000 0.21110  0.51890  0.56138  Biso   1.000  C
  C42      1.0000 0.86890  0.39970  0.69656  Biso   1.000  C
  C43      1.0000 0.93160  0.45340  0.64329  Biso   1.000  C
  C44      1.0000 0.99630  0.40950  0.58365  Biso   1.000  C
  C45      1.0000 0.99830  0.31230  0.58392  Biso   1.000  C
  C46      1.0000 0.93200  0.26440  0.64083  Biso   1.000  C
  C47      1.0000 0.32760  0.45460  0.61015  Biso   1.000  C
  C48      1.0000 0.41660  0.39395  0.57378  Biso   1.000  C
  C49      1.0000 0.51770  0.33352  0.62055  Biso   1.000  C
  C50      1.0000 0.45170  0.38940  0.73770  Biso   1.000  C
  C51      1.0000 0.34740  0.45207  0.69305  Biso   1.000  C
  C52      1.0000 0.76380  0.37510  0.91388  Biso   1.000  C
  C53      1.0000 0.87990  0.44440  0.95798  Biso   1.000  C
  C54      1.0000 0.08990  0.46800  0.07238  Biso   1.000  C
  C55      1.0000 0.18560  0.42700  0.14812  Biso   1.000  C
  C56      1.0000 0.96860  0.41440  0.02999  Biso   1.000  C
  C57      1.0000 0.43870  0.96680  0.97750  Biso   1.000  C
  C58      1.0000 0.28890  0.01890  0.93862  Biso   1.000  C
  C59      1.0000 0.63110  0.89970  0.80344  Biso   1.000  C
  C60      1.0000 0.56840  0.95340  0.85671  Biso   1.000  C
  C61      1.0000 0.50370  0.90950  0.91635  Biso   1.000  C
  C62      1.0000 0.50170  0.81230  0.91608  Biso   1.000  C
  C63      1.0000 0.56800  0.76440  0.85917  Biso   1.000  C
  C64      1.0000 0.17240  0.95460  0.88985  Biso   1.000  C
  C65      1.0000 0.08340  0.89395  0.92622  Biso   1.000  C
  C66      1.0000 0.98230  0.83352  0.87945  Biso   1.000  C
  C67      1.0000 0.04830  0.88940  0.76230  Biso   1.000  C
  C68      1.0000 0.15260  0.95207  0.80695  Biso   1.000  C
  N1       1.0000 0.13580  0.69335  0.30382  Biso   1.000  N
  N2       1.0000 0.46160  0.66973  0.29886  Biso   1.000  N
  N3       1.0000 0.36420  0.19335  0.19618  Biso   1.000  N
  N4       1.0000 0.03840  0.16973  0.20114  Biso   1.000  N
  N5       1.0000 0.86420  0.30665  0.69618  Biso   1.000  N
  N6       1.0000 0.53840  0.33027  0.70114  Biso   1.000  N
  N7       1.0000 0.63580  0.80665  0.80382  Biso   1.000  N
  N8       1.0000 0.96160  0.83027  0.79886  Biso   1.000  N
  O1       1.0000 0.30590  0.16228  0.35402  Biso   1.000  O
  O2       1.0000 0.14310  0.14588  0.44206  Biso   1.000  O
  O3       1.0000 0.82060  0.04230  0.66926  Biso   1.000  O
  O4       1.0000 0.62160  0.13614  0.68266  Biso   1.000  O
  O5       1.0000 0.55960  0.20108  0.84817  Biso   1.000  O
  O6       1.0000 0.88620  0.14234  0.81555  Biso   1.000  O
  O7       1.0000 0.19410  0.66228  0.14598  Biso   1.000  O
  O8       1.0000 0.35690  0.64588  0.05794  Biso   1.000  O
  O9       1.0000 0.67940  0.54230  0.83074  Biso   1.000  O
  O10      1.0000 0.87840  0.63614  0.81734  Biso   1.000  O
  O11      1.0000 0.94040  0.70108  0.65183  Biso   1.000  O
  O12      1.0000 0.61380  0.64234  0.68445  Biso   1.000  O
  O13      1.0000 0.69410  0.83772  0.64598  Biso   1.000  O
  O14      1.0000 0.85690  0.85412  0.55794  Biso   1.000  O
  O15      1.0000 0.17940  0.95770  0.33074  Biso   1.000  O
  O16      1.0000 0.37840  0.86386  0.31734  Biso   1.000  O
  O17      1.0000 0.44040  0.79892  0.15183  Biso   1.000  O
  O18      1.0000 0.11380  0.85766  0.18445  Biso   1.000  O
  O19      1.0000 0.80590  0.33772  0.85402  Biso   1.000  O
  O20      1.0000 0.64310  0.35412  0.94206  Biso   1.000  O
  O21      1.0000 0.32060  0.45770  0.16926  Biso   1.000  O
  O22      1.0000 0.12160  0.36386  0.18266  Biso   1.000  O
  O23      1.0000 0.05960  0.29892  0.34817  Biso   1.000  O
  O24      1.0000 0.38620  0.35766  0.31555  Biso   1.000  O
