data_image0
_cell_length_a       8.1939
_cell_length_b       12.857
_cell_length_c       17.789
_cell_angle_alpha    99.86
_cell_angle_beta     90
_cell_angle_gamma    90

_symmetry_space_group_name_H-M    P 1
_symmetry_int_tables_number       1

loop_
  _symmetry_equiv_pos_as_xyz
  'x, y, z'

loop_
  _atom_site_label
  _atom_site_occupancy
  _atom_site_fract_x
  _atom_site_fract_y
  _atom_site_fract_z
  _atom_site_thermal_displace_type
  _atom_site_B_iso_or_equiv
  _atom_site_type_symbol
  Mn1      1.0000 0.08493  0.38411  0.06467  Biso   1.000  Mn
  Mn2      1.0000 0.14347  0.58374  0.28870  Biso   1.000  Mn
  Mn3      1.0000 0.58493  0.11589  0.43533  Biso   1.000  Mn
  Mn4      1.0000 0.64347  0.91626  0.21130  Biso   1.000  Mn
  Mn5      1.0000 0.91507  0.61589  0.93533  Biso   1.000  Mn
  Mn6      1.0000 0.85653  0.41626  0.71130  Biso   1.000  Mn
  Mn7      1.0000 0.41507  0.88411  0.56467  Biso   1.000  Mn
  Mn8      1.0000 0.35653  0.08374  0.78870  Biso   1.000  Mn
  H1       1.0000 0.18450  0.00690  0.36390  Biso   1.000  H
  H2       1.0000 0.06810  0.99270  0.24500  Biso   1.000  H
  H3       1.0000 0.06520  0.13920  0.18270  Biso   1.000  H
  H4       1.0000 0.28430  0.30770  0.36540  Biso   1.000  H
  H5       1.0000 0.95280  0.47010  0.36170  Biso   1.000  H
  H6       1.0000 0.90050  0.58270  0.37940  Biso   1.000  H
  H7       1.0000 0.40750  0.40550  0.03250  Biso   1.000  H
  H8       1.0000 0.37520  0.48980  0.05370  Biso   1.000  H
  H9       1.0000 0.68450  0.49310  0.13610  Biso   1.000  H
  H10      1.0000 0.56810  0.50730  0.25500  Biso   1.000  H
  H11      1.0000 0.56520  0.36080  0.31730  Biso   1.000  H
  H12      1.0000 0.78430  0.19230  0.13460  Biso   1.000  H
  H13      1.0000 0.45280  0.02990  0.13830  Biso   1.000  H
  H14      1.0000 0.40050  0.91730  0.12060  Biso   1.000  H
  H15      1.0000 0.90750  0.09450  0.46750  Biso   1.000  H
  H16      1.0000 0.87520  0.01020  0.44630  Biso   1.000  H
  H17      1.0000 0.81550  0.99310  0.63610  Biso   1.000  H
  H18      1.0000 0.93190  0.00730  0.75500  Biso   1.000  H
  H19      1.0000 0.93480  0.86080  0.81730  Biso   1.000  H
  H20      1.0000 0.71570  0.69230  0.63460  Biso   1.000  H
  H21      1.0000 0.04720  0.52990  0.63830  Biso   1.000  H
  H22      1.0000 0.09950  0.41730  0.62060  Biso   1.000  H
  H23      1.0000 0.59250  0.59450  0.96750  Biso   1.000  H
  H24      1.0000 0.62480  0.51020  0.94630  Biso   1.000  H
  H25      1.0000 0.31550  0.50690  0.86390  Biso   1.000  H
  H26      1.0000 0.43190  0.49270  0.74500  Biso   1.000  H
  H27      1.0000 0.43480  0.63920  0.68270  Biso   1.000  H
  H28      1.0000 0.21570  0.80770  0.86540  Biso   1.000  H
  H29      1.0000 0.54720  0.97010  0.86170  Biso   1.000  H
  H30      1.0000 0.59950  0.08270  0.87940  Biso   1.000  H
  H31      1.0000 0.09250  0.90550  0.53250  Biso   1.000  H
  H32      1.0000 0.12480  0.98980  0.55370  Biso   1.000  H
  C1       1.0000 0.93090  0.77140  0.25790  Biso   1.000  C
  C2       1.0000 0.94070  0.69890  0.18160  Biso   1.000  C
  C3       1.0000 0.89820  0.70690  0.10710  Biso   1.000  C
  C4       1.0000 0.82600  0.79100  0.06720  Biso   1.000  C
  C5       1.0000 0.18200  0.06520  0.33930  Biso   1.000  C
  C6       1.0000 0.11260  0.05670  0.26850  Biso   1.000  C
  C7       1.0000 0.10880  0.14460  0.23150  Biso   1.000  C
  C8       1.0000 0.17130  0.23980  0.26910  Biso   1.000  C
  C9       1.0000 0.24090  0.24440  0.34020  Biso   1.000  C
  C10      1.0000 0.16150  0.34000  0.23400  Biso   1.000  C
  C11      1.0000 0.43090  0.72860  0.24210  Biso   1.000  C
  C12      1.0000 0.44070  0.80110  0.31840  Biso   1.000  C
  C13      1.0000 0.39820  0.79310  0.39290  Biso   1.000  C
  C14      1.0000 0.32600  0.70900  0.43280  Biso   1.000  C
  C15      1.0000 0.68200  0.43480  0.16070  Biso   1.000  C
  C16      1.0000 0.61260  0.44330  0.23150  Biso   1.000  C
  C17      1.0000 0.60880  0.35540  0.26850  Biso   1.000  C
  C18      1.0000 0.67130  0.26020  0.23090  Biso   1.000  C
  C19      1.0000 0.74090  0.25560  0.15980  Biso   1.000  C
  C20      1.0000 0.66150  0.16000  0.26600  Biso   1.000  C
  C21      1.0000 0.06910  0.22860  0.74210  Biso   1.000  C
  C22      1.0000 0.05930  0.30110  0.81840  Biso   1.000  C
  C23      1.0000 0.10180  0.29310  0.89290  Biso   1.000  C
  C24      1.0000 0.17400  0.20900  0.93280  Biso   1.000  C
  C25      1.0000 0.81800  0.93480  0.66070  Biso   1.000  C
  C26      1.0000 0.88740  0.94330  0.73150  Biso   1.000  C
  C27      1.0000 0.89120  0.85540  0.76850  Biso   1.000  C
  C28      1.0000 0.82870  0.76020  0.73090  Biso   1.000  C
  C29      1.0000 0.75910  0.75560  0.65980  Biso   1.000  C
  C30      1.0000 0.83850  0.66000  0.76600  Biso   1.000  C
  C31      1.0000 0.56910  0.27140  0.75790  Biso   1.000  C
  C32      1.0000 0.55930  0.19890  0.68160  Biso   1.000  C
  C33      1.0000 0.60180  0.20690  0.60710  Biso   1.000  C
  C34      1.0000 0.67400  0.29100  0.56720  Biso   1.000  C
  C35      1.0000 0.31800  0.56520  0.83930  Biso   1.000  C
  C36      1.0000 0.38740  0.55670  0.76850  Biso   1.000  C
  C37      1.0000 0.39120  0.64460  0.73150  Biso   1.000  C
  C38      1.0000 0.32870  0.73980  0.76910  Biso   1.000  C
  C39      1.0000 0.25910  0.74440  0.84020  Biso   1.000  C
  C40      1.0000 0.33850  0.84000  0.73400  Biso   1.000  C
  N1       1.0000 0.01010  0.60190  0.17989  Biso   1.000  N
  N2       1.0000 0.01120  0.55310  0.10714  Biso   1.000  N
  N3       1.0000 0.94480  0.61530  0.06222  Biso   1.000  N
  N4       1.0000 0.24660  0.15780  0.37360  Biso   1.000  N
  N5       1.0000 0.51010  0.89810  0.32011  Biso   1.000  N
  N6       1.0000 0.51120  0.94690  0.39286  Biso   1.000  N
  N7       1.0000 0.44480  0.88470  0.43778  Biso   1.000  N
  N8       1.0000 0.74660  0.34220  0.12640  Biso   1.000  N
  N9       1.0000 0.98990  0.39810  0.82011  Biso   1.000  N
  N10      1.0000 0.98880  0.44690  0.89286  Biso   1.000  N
  N11      1.0000 0.05520  0.38470  0.93778  Biso   1.000  N
  N12      1.0000 0.75340  0.84220  0.62640  Biso   1.000  N
  N13      1.0000 0.48990  0.10190  0.67989  Biso   1.000  N
  N14      1.0000 0.48880  0.05310  0.60714  Biso   1.000  N
  N15      1.0000 0.55520  0.11530  0.56222  Biso   1.000  N
  N16      1.0000 0.25340  0.65780  0.87360  Biso   1.000  N
  O1       1.0000 0.01170  0.74010  0.31163  Biso   1.000  O
  O2       1.0000 0.85300  0.85500  0.26548  Biso   1.000  O
  O3       1.0000 0.77000  0.87440  0.10488  Biso   1.000  O
  O4       1.0000 0.82910  0.77120  0.99508  Biso   1.000  O
  O5       1.0000 0.32150  0.16330  0.44279  Biso   1.000  O
  O6       1.0000 0.21830  0.42270  0.27277  Biso   1.000  O
  O7       1.0000 0.09200  0.33160  0.17028  Biso   1.000  O
  O8       1.0000 0.93050  0.52870  0.34800  Biso   1.000  O
  O9       1.0000 0.33920  0.43300  0.06610  Biso   1.000  O
  O10      1.0000 0.51170  0.75990  0.18837  Biso   1.000  O
  O11      1.0000 0.35300  0.64500  0.23452  Biso   1.000  O
  O12      1.0000 0.27000  0.62560  0.39512  Biso   1.000  O
  O13      1.0000 0.32910  0.72880  0.50492  Biso   1.000  O
  O14      1.0000 0.82150  0.33670  0.05721  Biso   1.000  O
  O15      1.0000 0.71830  0.07730  0.22723  Biso   1.000  O
  O16      1.0000 0.59200  0.16840  0.32972  Biso   1.000  O
  O17      1.0000 0.43050  0.97130  0.15200  Biso   1.000  O
  O18      1.0000 0.83920  0.06700  0.43390  Biso   1.000  O
  O19      1.0000 0.98830  0.25990  0.68837  Biso   1.000  O
  O20      1.0000 0.14700  0.14500  0.73452  Biso   1.000  O
  O21      1.0000 0.23000  0.12560  0.89512  Biso   1.000  O
  O22      1.0000 0.17090  0.22880  0.00492  Biso   1.000  O
  O23      1.0000 0.67850  0.83670  0.55721  Biso   1.000  O
  O24      1.0000 0.78170  0.57730  0.72723  Biso   1.000  O
  O25      1.0000 0.90800  0.66840  0.82972  Biso   1.000  O
  O26      1.0000 0.06950  0.47130  0.65200  Biso   1.000  O
  O27      1.0000 0.66080  0.56700  0.93390  Biso   1.000  O
  O28      1.0000 0.48830  0.24010  0.81163  Biso   1.000  O
  O29      1.0000 0.64700  0.35500  0.76548  Biso   1.000  O
  O30      1.0000 0.73000  0.37440  0.60488  Biso   1.000  O
  O31      1.0000 0.67090  0.27120  0.49508  Biso   1.000  O
  O32      1.0000 0.17850  0.66330  0.94279  Biso   1.000  O
  O33      1.0000 0.28170  0.92270  0.77277  Biso   1.000  O
  O34      1.0000 0.40800  0.83160  0.67028  Biso   1.000  O
  O35      1.0000 0.56950  0.02870  0.84800  Biso   1.000  O
  O36      1.0000 0.16080  0.93300  0.56610  Biso   1.000  O
