data_image0
_cell_length_a       12.766
_cell_length_b       23.34
_cell_length_c       14.903
_cell_angle_alpha    90
_cell_angle_beta     90
_cell_angle_gamma    90

_symmetry_space_group_name_H-M    P 1
_symmetry_int_tables_number       1

loop_
  _symmetry_equiv_pos_as_xyz
  'x, y, z'

loop_
  _atom_site_label
  _atom_site_occupancy
  _atom_site_fract_x
  _atom_site_fract_y
  _atom_site_fract_z
  _atom_site_thermal_displace_type
  _atom_site_B_iso_or_equiv
  _atom_site_type_symbol
  Zn1      1.0000 0.84944  0.09863  0.48828  Biso   1.000  Zn
  Zn2      1.0000 0.74746  0.98468  0.60580  Biso   1.000  Zn
  Zn3      1.0000 0.15056  0.90137  0.98828  Biso   1.000  Zn
  Zn4      1.0000 0.25254  0.01532  0.10580  Biso   1.000  Zn
  Zn5      1.0000 0.65056  0.59863  0.48828  Biso   1.000  Zn
  Zn6      1.0000 0.75254  0.48468  0.60580  Biso   1.000  Zn
  Zn7      1.0000 0.34944  0.40137  0.98828  Biso   1.000  Zn
  Zn8      1.0000 0.24746  0.51532  0.10580  Biso   1.000  Zn
  H1       1.0000 0.93210  0.16940  0.73360  Biso   1.000  H
  H2       1.0000 0.97840  0.01180  0.83120  Biso   1.000  H
  H3       1.0000 0.10140  0.15090  0.95160  Biso   1.000  H
  H4       1.0000 0.12300  0.35490  0.95600  Biso   1.000  H
  H5       1.0000 0.00280  0.50060  0.86040  Biso   1.000  H
  H6       1.0000 0.92170  0.34970  0.75610  Biso   1.000  H
  H7       1.0000 0.86760  0.22570  0.43610  Biso   1.000  H
  H8       1.0000 0.71170  0.24960  0.61750  Biso   1.000  H
  H9       1.0000 0.71780  0.31610  0.61220  Biso   1.000  H
  H10      1.0000 0.80590  0.28170  0.66170  Biso   1.000  H
  H11      1.0000 0.90230  0.32190  0.43930  Biso   1.000  H
  H12      1.0000 0.81850  0.35990  0.48760  Biso   1.000  H
  H13      1.0000 0.91980  0.34210  0.53870  Biso   1.000  H
  H14      1.0000 0.04270  0.17810  0.53290  Biso   1.000  H
  H15      1.0000 0.28520  0.21890  0.45220  Biso   1.000  H
  H16      1.0000 0.23240  0.20880  0.54620  Biso   1.000  H
  H17      1.0000 0.18790  0.25580  0.48060  Biso   1.000  H
  H18      1.0000 0.12470  0.14060  0.32540  Biso   1.000  H
  H19      1.0000 0.22840  0.12050  0.37420  Biso   1.000  H
  H20      1.0000 0.22240  0.18170  0.32980  Biso   1.000  H
  H21      1.0000 0.92240  0.07480  0.30690  Biso   1.000  H
  H22      1.0000 0.93910  0.13280  0.09670  Biso   1.000  H
  H23      1.0000 0.95190  0.07160  0.13950  Biso   1.000  H
  H24      1.0000 0.02450  0.12210  0.17210  Biso   1.000  H
  H25      1.0000 0.83570  0.19230  0.14260  Biso   1.000  H
  H26      1.0000 0.74040  0.16080  0.18740  Biso   1.000  H
  H27      1.0000 0.81150  0.20150  0.24580  Biso   1.000  H
  H28      1.0000 0.06790  0.83060  0.23360  Biso   1.000  H
  H29      1.0000 0.02160  0.98820  0.33120  Biso   1.000  H
  H30      1.0000 0.89860  0.84910  0.45160  Biso   1.000  H
  H31      1.0000 0.87700  0.64510  0.45600  Biso   1.000  H
  H32      1.0000 0.99720  0.49940  0.36040  Biso   1.000  H
  H33      1.0000 0.07830  0.65030  0.25610  Biso   1.000  H
  H34      1.0000 0.13240  0.77430  0.93610  Biso   1.000  H
  H35      1.0000 0.28830  0.75040  0.11750  Biso   1.000  H
  H36      1.0000 0.28220  0.68390  0.11220  Biso   1.000  H
  H37      1.0000 0.19410  0.71830  0.16170  Biso   1.000  H
  H38      1.0000 0.09770  0.67810  0.93930  Biso   1.000  H
  H39      1.0000 0.18150  0.64010  0.98760  Biso   1.000  H
  H40      1.0000 0.08020  0.65790  0.03870  Biso   1.000  H
  H41      1.0000 0.95730  0.82190  0.03290  Biso   1.000  H
  H42      1.0000 0.71480  0.78110  0.95220  Biso   1.000  H
  H43      1.0000 0.76760  0.79120  0.04620  Biso   1.000  H
  H44      1.0000 0.81210  0.74420  0.98060  Biso   1.000  H
  H45      1.0000 0.87530  0.85940  0.82540  Biso   1.000  H
  H46      1.0000 0.77160  0.87950  0.87420  Biso   1.000  H
  H47      1.0000 0.77760  0.81830  0.82980  Biso   1.000  H
  H48      1.0000 0.07760  0.92520  0.80690  Biso   1.000  H
  H49      1.0000 0.06090  0.86720  0.59670  Biso   1.000  H
  H50      1.0000 0.04810  0.92840  0.63950  Biso   1.000  H
  H51      1.0000 0.97550  0.87790  0.67210  Biso   1.000  H
  H52      1.0000 0.16430  0.80770  0.64260  Biso   1.000  H
  H53      1.0000 0.25960  0.83920  0.68740  Biso   1.000  H
  H54      1.0000 0.18850  0.79850  0.74580  Biso   1.000  H
  H55      1.0000 0.56790  0.66940  0.73360  Biso   1.000  H
  H56      1.0000 0.52160  0.51180  0.83120  Biso   1.000  H
  H57      1.0000 0.39860  0.65090  0.95160  Biso   1.000  H
  H58      1.0000 0.37700  0.85490  0.95600  Biso   1.000  H
  H59      1.0000 0.49720  0.00060  0.86040  Biso   1.000  H
  H60      1.0000 0.57830  0.84970  0.75610  Biso   1.000  H
  H61      1.0000 0.63240  0.72570  0.43610  Biso   1.000  H
  H62      1.0000 0.78830  0.74960  0.61750  Biso   1.000  H
  H63      1.0000 0.78220  0.81610  0.61220  Biso   1.000  H
  H64      1.0000 0.69410  0.78170  0.66170  Biso   1.000  H
  H65      1.0000 0.59770  0.82190  0.43930  Biso   1.000  H
  H66      1.0000 0.68150  0.85990  0.48760  Biso   1.000  H
  H67      1.0000 0.58020  0.84210  0.53870  Biso   1.000  H
  H68      1.0000 0.45730  0.67810  0.53290  Biso   1.000  H
  H69      1.0000 0.21480  0.71890  0.45220  Biso   1.000  H
  H70      1.0000 0.26760  0.70880  0.54620  Biso   1.000  H
  H71      1.0000 0.31210  0.75580  0.48060  Biso   1.000  H
  H72      1.0000 0.37530  0.64060  0.32540  Biso   1.000  H
  H73      1.0000 0.27160  0.62050  0.37420  Biso   1.000  H
  H74      1.0000 0.27760  0.68170  0.32980  Biso   1.000  H
  H75      1.0000 0.57760  0.57480  0.30690  Biso   1.000  H
  H76      1.0000 0.56090  0.63280  0.09670  Biso   1.000  H
  H77      1.0000 0.54810  0.57160  0.13950  Biso   1.000  H
  H78      1.0000 0.47550  0.62210  0.17210  Biso   1.000  H
  H79      1.0000 0.66430  0.69230  0.14260  Biso   1.000  H
  H80      1.0000 0.75960  0.66080  0.18740  Biso   1.000  H
  H81      1.0000 0.68850  0.70150  0.24580  Biso   1.000  H
  H82      1.0000 0.43210  0.33060  0.23360  Biso   1.000  H
  H83      1.0000 0.47840  0.48820  0.33120  Biso   1.000  H
  H84      1.0000 0.60140  0.34910  0.45160  Biso   1.000  H
  H85      1.0000 0.62300  0.14510  0.45600  Biso   1.000  H
  H86      1.0000 0.50280  0.99940  0.36040  Biso   1.000  H
  H87      1.0000 0.42170  0.15030  0.25610  Biso   1.000  H
  H88      1.0000 0.36760  0.27430  0.93610  Biso   1.000  H
  H89      1.0000 0.21170  0.25040  0.11750  Biso   1.000  H
  H90      1.0000 0.21780  0.18390  0.11220  Biso   1.000  H
  H91      1.0000 0.30590  0.21830  0.16170  Biso   1.000  H
  H92      1.0000 0.40230  0.17810  0.93930  Biso   1.000  H
  H93      1.0000 0.31850  0.14010  0.98760  Biso   1.000  H
  H94      1.0000 0.41980  0.15790  0.03870  Biso   1.000  H
  H95      1.0000 0.54270  0.32190  0.03290  Biso   1.000  H
  H96      1.0000 0.78520  0.28110  0.95220  Biso   1.000  H
  H97      1.0000 0.73240  0.29120  0.04620  Biso   1.000  H
  H98      1.0000 0.68790  0.24420  0.98060  Biso   1.000  H
  H99      1.0000 0.62470  0.35940  0.82540  Biso   1.000  H
  H100     1.0000 0.72840  0.37950  0.87420  Biso   1.000  H
  H101     1.0000 0.72240  0.31830  0.82980  Biso   1.000  H
  H102     1.0000 0.42240  0.42520  0.80690  Biso   1.000  H
  H103     1.0000 0.43910  0.36720  0.59670  Biso   1.000  H
  H104     1.0000 0.45190  0.42840  0.63950  Biso   1.000  H
  H105     1.0000 0.52450  0.37790  0.67210  Biso   1.000  H
  H106     1.0000 0.33570  0.30770  0.64260  Biso   1.000  H
  H107     1.0000 0.24040  0.33920  0.68740  Biso   1.000  H
  H108     1.0000 0.31150  0.29850  0.74580  Biso   1.000  H
  Pt1      1.0000 0.02666  0.25589  0.85073  Biso   1.000  Pt
  Pt2      1.0000 0.97334  0.74411  0.35073  Biso   1.000  Pt
  Pt3      1.0000 0.47334  0.75589  0.85073  Biso   1.000  Pt
  Pt4      1.0000 0.52666  0.24411  0.35073  Biso   1.000  Pt
  C1       1.0000 0.96310  0.14540  0.77600  Biso   1.000  C
  C2       1.0000 0.94890  0.08700  0.76780  Biso   1.000  C
  C3       1.0000 0.99040  0.05100  0.83310  Biso   1.000  C
  C4       1.0000 0.05010  0.07520  0.90130  Biso   1.000  C
  C5       1.0000 0.06260  0.13440  0.90570  Biso   1.000  C
  C6       1.0000 0.89400  0.06500  0.68520  Biso   1.000  C
  C7       1.0000 0.10540  0.03680  0.96800  Biso   1.000  C
  C8       1.0000 0.08050  0.37400  0.91510  Biso   1.000  C
  C9       1.0000 0.07430  0.43310  0.91770  Biso   1.000  C
  C10      1.0000 0.00930  0.46110  0.85860  Biso   1.000  C
  C11      1.0000 0.95420  0.42890  0.79620  Biso   1.000  C
  C12      1.0000 0.96130  0.37060  0.79640  Biso   1.000  C
  C13      1.0000 0.13390  0.46720  0.98480  Biso   1.000  C
  C14      1.0000 0.88390  0.45800  0.72730  Biso   1.000  C
  C15      1.0000 0.82830  0.22670  0.48900  Biso   1.000  C
  C16      1.0000 0.75820  0.28160  0.61200  Biso   1.000  C
  C17      1.0000 0.86840  0.32980  0.49580  Biso   1.000  C
  C18      1.0000 0.05990  0.16050  0.47840  Biso   1.000  C
  C19      1.0000 0.21960  0.21840  0.48420  Biso   1.000  C
  C20      1.0000 0.18340  0.15270  0.36180  Biso   1.000  C
  C21      1.0000 0.87040  0.10200  0.29520  Biso   1.000  C
  C22      1.0000 0.95540  0.11200  0.15070  Biso   1.000  C
  C23      1.0000 0.81070  0.17450  0.19690  Biso   1.000  C
  C24      1.0000 0.03690  0.85460  0.27600  Biso   1.000  C
  C25      1.0000 0.05110  0.91300  0.26780  Biso   1.000  C
  C26      1.0000 0.00960  0.94900  0.33310  Biso   1.000  C
  C27      1.0000 0.94990  0.92480  0.40130  Biso   1.000  C
  C28      1.0000 0.93740  0.86560  0.40570  Biso   1.000  C
  C29      1.0000 0.10600  0.93500  0.18520  Biso   1.000  C
  C30      1.0000 0.89460  0.96320  0.46800  Biso   1.000  C
  C31      1.0000 0.91950  0.62600  0.41510  Biso   1.000  C
  C32      1.0000 0.92570  0.56690  0.41770  Biso   1.000  C
  C33      1.0000 0.99070  0.53890  0.35860  Biso   1.000  C
  C34      1.0000 0.04580  0.57110  0.29620  Biso   1.000  C
  C35      1.0000 0.03870  0.62940  0.29640  Biso   1.000  C
  C36      1.0000 0.86610  0.53280  0.48480  Biso   1.000  C
  C37      1.0000 0.11610  0.54200  0.22730  Biso   1.000  C
  C38      1.0000 0.17170  0.77330  0.98900  Biso   1.000  C
  C39      1.0000 0.24180  0.71840  0.11200  Biso   1.000  C
  C40      1.0000 0.13160  0.67020  0.99580  Biso   1.000  C
  C41      1.0000 0.94010  0.83950  0.97840  Biso   1.000  C
  C42      1.0000 0.78040  0.78160  0.98420  Biso   1.000  C
  C43      1.0000 0.81660  0.84730  0.86180  Biso   1.000  C
  C44      1.0000 0.12960  0.89800  0.79520  Biso   1.000  C
  C45      1.0000 0.04460  0.88800  0.65070  Biso   1.000  C
  C46      1.0000 0.18930  0.82550  0.69690  Biso   1.000  C
  C47      1.0000 0.53690  0.64540  0.77600  Biso   1.000  C
  C48      1.0000 0.55110  0.58700  0.76780  Biso   1.000  C
  C49      1.0000 0.50960  0.55100  0.83310  Biso   1.000  C
  C50      1.0000 0.44990  0.57520  0.90130  Biso   1.000  C
  C51      1.0000 0.43740  0.63440  0.90570  Biso   1.000  C
  C52      1.0000 0.60600  0.56500  0.68520  Biso   1.000  C
  C53      1.0000 0.39460  0.53680  0.96800  Biso   1.000  C
  C54      1.0000 0.41950  0.87400  0.91510  Biso   1.000  C
  C55      1.0000 0.42570  0.93310  0.91770  Biso   1.000  C
  C56      1.0000 0.49070  0.96110  0.85860  Biso   1.000  C
  C57      1.0000 0.54580  0.92890  0.79620  Biso   1.000  C
  C58      1.0000 0.53870  0.87060  0.79640  Biso   1.000  C
  C59      1.0000 0.36610  0.96720  0.98480  Biso   1.000  C
  C60      1.0000 0.61610  0.95800  0.72730  Biso   1.000  C
  C61      1.0000 0.67170  0.72670  0.48900  Biso   1.000  C
  C62      1.0000 0.74180  0.78160  0.61200  Biso   1.000  C
  C63      1.0000 0.63160  0.82980  0.49580  Biso   1.000  C
  C64      1.0000 0.44010  0.66050  0.47840  Biso   1.000  C
  C65      1.0000 0.28040  0.71840  0.48420  Biso   1.000  C
  C66      1.0000 0.31660  0.65270  0.36180  Biso   1.000  C
  C67      1.0000 0.62960  0.60200  0.29520  Biso   1.000  C
  C68      1.0000 0.54460  0.61200  0.15070  Biso   1.000  C
  C69      1.0000 0.68930  0.67450  0.19690  Biso   1.000  C
  C70      1.0000 0.46310  0.35460  0.27600  Biso   1.000  C
  C71      1.0000 0.44890  0.41300  0.26780  Biso   1.000  C
  C72      1.0000 0.49040  0.44900  0.33310  Biso   1.000  C
  C73      1.0000 0.55010  0.42480  0.40130  Biso   1.000  C
  C74      1.0000 0.56260  0.36560  0.40570  Biso   1.000  C
  C75      1.0000 0.39400  0.43500  0.18520  Biso   1.000  C
  C76      1.0000 0.60540  0.46320  0.46800  Biso   1.000  C
  C77      1.0000 0.58050  0.12600  0.41510  Biso   1.000  C
  C78      1.0000 0.57430  0.06690  0.41770  Biso   1.000  C
  C79      1.0000 0.50930  0.03890  0.35860  Biso   1.000  C
  C80      1.0000 0.45420  0.07110  0.29620  Biso   1.000  C
  C81      1.0000 0.46130  0.12940  0.29640  Biso   1.000  C
  C82      1.0000 0.63390  0.03280  0.48480  Biso   1.000  C
  C83      1.0000 0.38390  0.04200  0.22730  Biso   1.000  C
  C84      1.0000 0.32830  0.27330  0.98900  Biso   1.000  C
  C85      1.0000 0.25820  0.21840  0.11200  Biso   1.000  C
  C86      1.0000 0.36840  0.17020  0.99580  Biso   1.000  C
  C87      1.0000 0.55990  0.33950  0.97840  Biso   1.000  C
  C88      1.0000 0.71960  0.28160  0.98420  Biso   1.000  C
  C89      1.0000 0.68340  0.34730  0.86180  Biso   1.000  C
  C90      1.0000 0.37040  0.39800  0.79520  Biso   1.000  C
  C91      1.0000 0.45540  0.38800  0.65070  Biso   1.000  C
  C92      1.0000 0.31070  0.32550  0.69690  Biso   1.000  C
  N1       1.0000 0.01930  0.16872  0.84290  Biso   1.000  N
  N2       1.0000 0.02430  0.34225  0.85370  Biso   1.000  N
  N3       1.0000 0.81600  0.27730  0.52860  Biso   1.000  N
  N4       1.0000 0.14830  0.17480  0.44280  Biso   1.000  N
  N5       1.0000 0.87800  0.12620  0.21850  Biso   1.000  N
  N6       1.0000 0.98070  0.83128  0.34290  Biso   1.000  N
  N7       1.0000 0.97570  0.65775  0.35370  Biso   1.000  N
  N8       1.0000 0.18400  0.72270  0.02860  Biso   1.000  N
  N9       1.0000 0.85170  0.82520  0.94280  Biso   1.000  N
  N10      1.0000 0.12200  0.87380  0.71850  Biso   1.000  N
  N11      1.0000 0.48070  0.66872  0.84290  Biso   1.000  N
  N12      1.0000 0.47570  0.84225  0.85370  Biso   1.000  N
  N13      1.0000 0.68400  0.77730  0.52860  Biso   1.000  N
  N14      1.0000 0.35170  0.67480  0.44280  Biso   1.000  N
  N15      1.0000 0.62200  0.62620  0.21850  Biso   1.000  N
  N16      1.0000 0.51930  0.33128  0.34290  Biso   1.000  N
  N17      1.0000 0.52430  0.15775  0.35370  Biso   1.000  N
  N18      1.0000 0.31600  0.22270  0.02860  Biso   1.000  N
  N19      1.0000 0.64830  0.32520  0.94280  Biso   1.000  N
  N20      1.0000 0.37800  0.37380  0.71850  Biso   1.000  N
  Cl1      1.0000 0.05780  0.26113  0.69838  Biso   1.000  Cl
  Cl2      1.0000 0.99403  0.25120  0.00227  Biso   1.000  Cl
  Cl3      1.0000 0.94220  0.73887  0.19838  Biso   1.000  Cl
  Cl4      1.0000 0.00597  0.74880  0.50227  Biso   1.000  Cl
  Cl5      1.0000 0.44220  0.76113  0.69838  Biso   1.000  Cl
  Cl6      1.0000 0.50597  0.75120  0.00227  Biso   1.000  Cl
  Cl7      1.0000 0.55780  0.23887  0.19838  Biso   1.000  Cl
  Cl8      1.0000 0.49403  0.24880  0.50227  Biso   1.000  Cl
  O1       1.0000 0.89370  0.09793  0.61850  Biso   1.000  O
  O2       1.0000 0.85090  0.01622  0.69190  Biso   1.000  O
  O3       1.0000 0.09280  0.98390  0.95780  Biso   1.000  O
  O4       1.0000 0.16090  0.06181  0.02540  Biso   1.000  O
  O5       1.0000 0.20770  0.44230  0.02990  Biso   1.000  O
  O6       1.0000 0.11220  0.51790  0.99760  Biso   1.000  O
  O7       1.0000 0.89130  0.51040  0.71520  Biso   1.000  O
  O8       1.0000 0.82290  0.42530  0.68290  Biso   1.000  O
  O9       1.0000 0.79270  0.18210  0.51640  Biso   1.000  O
  O10      1.0000 0.99740  0.12710  0.44850  Biso   1.000  O
  O11      1.0000 0.80550  0.10930  0.35430  Biso   1.000  O
  O12      1.0000 0.10630  0.90207  0.11850  Biso   1.000  O
  O13      1.0000 0.14910  0.98378  0.19190  Biso   1.000  O
  O14      1.0000 0.90720  0.01610  0.45780  Biso   1.000  O
  O15      1.0000 0.83910  0.93819  0.52540  Biso   1.000  O
  O16      1.0000 0.79230  0.55770  0.52990  Biso   1.000  O
  O17      1.0000 0.88780  0.48210  0.49760  Biso   1.000  O
  O18      1.0000 0.10870  0.48960  0.21520  Biso   1.000  O
  O19      1.0000 0.17710  0.57470  0.18290  Biso   1.000  O
  O20      1.0000 0.20730  0.81790  0.01640  Biso   1.000  O
  O21      1.0000 0.00260  0.87290  0.94850  Biso   1.000  O
  O22      1.0000 0.19450  0.89070  0.85430  Biso   1.000  O
  O23      1.0000 0.60630  0.59793  0.61850  Biso   1.000  O
  O24      1.0000 0.64910  0.51622  0.69190  Biso   1.000  O
  O25      1.0000 0.40720  0.48390  0.95780  Biso   1.000  O
  O26      1.0000 0.33910  0.56181  0.02540  Biso   1.000  O
  O27      1.0000 0.29230  0.94230  0.02990  Biso   1.000  O
  O28      1.0000 0.38780  0.01790  0.99760  Biso   1.000  O
  O29      1.0000 0.60870  0.01040  0.71520  Biso   1.000  O
  O30      1.0000 0.67710  0.92530  0.68290  Biso   1.000  O
  O31      1.0000 0.70730  0.68210  0.51640  Biso   1.000  O
  O32      1.0000 0.50260  0.62710  0.44850  Biso   1.000  O
  O33      1.0000 0.69450  0.60930  0.35430  Biso   1.000  O
  O34      1.0000 0.39370  0.40207  0.11850  Biso   1.000  O
  O35      1.0000 0.35090  0.48378  0.19190  Biso   1.000  O
  O36      1.0000 0.59280  0.51610  0.45780  Biso   1.000  O
  O37      1.0000 0.66090  0.43819  0.52540  Biso   1.000  O
  O38      1.0000 0.70770  0.05770  0.52990  Biso   1.000  O
  O39      1.0000 0.61220  0.98210  0.49760  Biso   1.000  O
  O40      1.0000 0.39130  0.98960  0.21520  Biso   1.000  O
  O41      1.0000 0.32290  0.07470  0.18290  Biso   1.000  O
  O42      1.0000 0.29270  0.31790  0.01640  Biso   1.000  O
  O43      1.0000 0.49740  0.37290  0.94850  Biso   1.000  O
  O44      1.0000 0.30550  0.39070  0.85430  Biso   1.000  O
