data_image0
_cell_length_a       11.6525
_cell_length_b       18.3554
_cell_length_c       18.3554
_cell_angle_alpha    84.2176
_cell_angle_beta     71.4934
_cell_angle_gamma    71.4935

_symmetry_space_group_name_H-M    P 1
_symmetry_int_tables_number       1

loop_
  _symmetry_equiv_pos_as_xyz
  'x, y, z'

loop_
  _atom_site_label
  _atom_site_occupancy
  _atom_site_fract_x
  _atom_site_fract_y
  _atom_site_fract_z
  _atom_site_thermal_displace_type
  _atom_site_B_iso_or_equiv
  _atom_site_type_symbol
  Cu1      1.0000 0.41496  0.59523  0.25743  Biso   1.000  Cu
  Cu2      1.0000 0.76762  0.90477  0.24257  Biso   1.000  Cu
  Cu3      1.0000 0.67239  0.74257  0.09523  Biso   1.000  Cu
  Cu4      1.0000 0.01019  0.75743  0.40477  Biso   1.000  Cu
  Cu5      1.0000 0.58504  0.40477  0.74257  Biso   1.000  Cu
  Cu6      1.0000 0.23238  0.09523  0.75743  Biso   1.000  Cu
  Cu7      1.0000 0.32761  0.25743  0.90477  Biso   1.000  Cu
  Cu8      1.0000 0.98981  0.24257  0.59523  Biso   1.000  Cu
  Cu9      1.0000 0.50000  0.50000  0.50000  Biso   1.000  Cu
  Cu10     1.0000 0.00000  0.00000  0.00000  Biso   1.000  Cu
  Cu11     1.0000 0.00000  0.50000  0.00000  Biso   1.000  Cu
  Cu12     1.0000 0.00000  0.00000  0.50000  Biso   1.000  Cu
  H1       1.0000 0.97260  0.75600  0.56980  Biso   1.000  H
  H2       1.0000 0.96620  0.72730  0.69610  Biso   1.000  H
  H3       1.0000 0.12980  0.63100  0.72780  Biso   1.000  H
  H4       1.0000 0.31100  0.56750  0.63050  Biso   1.000  H
  H5       1.0000 0.18440  0.63230  0.22810  Biso   1.000  H
  H6       1.0000 0.33710  0.67540  0.04560  Biso   1.000  H
  H7       1.0000 0.24320  0.64980  0.01340  Biso   1.000  H
  H8       1.0000 0.21170  0.73770  0.03490  Biso   1.000  H
  H9       1.0000 0.00320  0.67710  0.19710  Biso   1.000  H
  H10      1.0000 0.00610  0.74590  0.13630  Biso   1.000  H
  H11      1.0000 0.02020  0.66230  0.10930  Biso   1.000  H
  H12      1.0000 0.79840  0.74400  0.93020  Biso   1.000  H
  H13      1.0000 0.88960  0.77270  0.80390  Biso   1.000  H
  H14      1.0000 0.98860  0.86900  0.77220  Biso   1.000  H
  H15      1.0000 0.00900  0.93250  0.86950  Biso   1.000  H
  H16      1.0000 0.54480  0.86770  0.27190  Biso   1.000  H
  H17      1.0000 0.55810  0.82460  0.45440  Biso   1.000  H
  H18      1.0000 0.40640  0.85020  0.48660  Biso   1.000  H
  H19      1.0000 0.48430  0.76230  0.46510  Biso   1.000  H
  H20      1.0000 0.37740  0.82290  0.30290  Biso   1.000  H
  H21      1.0000 0.38830  0.75410  0.36370  Biso   1.000  H
  H22      1.0000 0.29180  0.83770  0.39070  Biso   1.000  H
  H23      1.0000 0.54240  0.43020  0.25600  Biso   1.000  H
  H24      1.0000 0.66230  0.30390  0.22730  Biso   1.000  H
  H25      1.0000 0.85760  0.27220  0.13100  Biso   1.000  H
  H26      1.0000 0.94150  0.36950  0.06750  Biso   1.000  H
  H27      1.0000 0.41250  0.77190  0.13230  Biso   1.000  H
  H28      1.0000 0.38270  0.95440  0.17540  Biso   1.000  H
  H29      1.0000 0.25660  0.98660  0.14980  Biso   1.000  H
  H30      1.0000 0.24660  0.96510  0.23770  Biso   1.000  H
  H31      1.0000 0.20030  0.80290  0.17710  Biso   1.000  H
  H32      1.0000 0.14240  0.86370  0.24590  Biso   1.000  H
  H33      1.0000 0.12950  0.89070  0.16230  Biso   1.000  H
  H34      1.0000 0.72860  0.06980  0.24400  Biso   1.000  H
  H35      1.0000 0.69350  0.19610  0.27270  Biso   1.000  H
  H36      1.0000 0.76080  0.22780  0.36900  Biso   1.000  H
  H37      1.0000 0.87850  0.13050  0.43250  Biso   1.000  H
  H38      1.0000 0.81670  0.72810  0.36770  Biso   1.000  H
  H39      1.0000 0.01250  0.54560  0.32460  Biso   1.000  H
  H40      1.0000 0.89300  0.51340  0.35020  Biso   1.000  H
  H41      1.0000 0.94940  0.53490  0.26230  Biso   1.000  H
  H42      1.0000 0.68030  0.69710  0.32290  Biso   1.000  H
  H43      1.0000 0.75200  0.63630  0.25410  Biso   1.000  H
  H44      1.0000 0.68250  0.60930  0.33770  Biso   1.000  H
  H45      1.0000 0.02740  0.24400  0.43020  Biso   1.000  H
  H46      1.0000 0.03380  0.27270  0.30390  Biso   1.000  H
  H47      1.0000 0.87020  0.36900  0.27220  Biso   1.000  H
  H48      1.0000 0.68900  0.43250  0.36950  Biso   1.000  H
  H49      1.0000 0.81560  0.36770  0.77190  Biso   1.000  H
  H50      1.0000 0.66290  0.32460  0.95440  Biso   1.000  H
  H51      1.0000 0.75680  0.35020  0.98660  Biso   1.000  H
  H52      1.0000 0.78830  0.26230  0.96510  Biso   1.000  H
  H53      1.0000 0.99680  0.32290  0.80290  Biso   1.000  H
  H54      1.0000 0.99390  0.25410  0.86370  Biso   1.000  H
  H55      1.0000 0.97980  0.33770  0.89070  Biso   1.000  H
  H56      1.0000 0.20160  0.25600  0.06980  Biso   1.000  H
  H57      1.0000 0.11040  0.22730  0.19610  Biso   1.000  H
  H58      1.0000 0.01140  0.13100  0.22780  Biso   1.000  H
  H59      1.0000 0.99100  0.06750  0.13050  Biso   1.000  H
  H60      1.0000 0.45520  0.13230  0.72810  Biso   1.000  H
  H61      1.0000 0.44190  0.17540  0.54560  Biso   1.000  H
  H62      1.0000 0.59360  0.14980  0.51340  Biso   1.000  H
  H63      1.0000 0.51570  0.23770  0.53490  Biso   1.000  H
  H64      1.0000 0.62260  0.17710  0.69710  Biso   1.000  H
  H65      1.0000 0.61170  0.24590  0.63630  Biso   1.000  H
  H66      1.0000 0.70820  0.16230  0.60930  Biso   1.000  H
  H67      1.0000 0.45760  0.56980  0.74400  Biso   1.000  H
  H68      1.0000 0.33770  0.69610  0.77270  Biso   1.000  H
  H69      1.0000 0.14240  0.72780  0.86900  Biso   1.000  H
  H70      1.0000 0.05850  0.63050  0.93250  Biso   1.000  H
  H71      1.0000 0.58750  0.22810  0.86770  Biso   1.000  H
  H72      1.0000 0.61730  0.04560  0.82460  Biso   1.000  H
  H73      1.0000 0.74340  0.01340  0.85020  Biso   1.000  H
  H74      1.0000 0.75340  0.03490  0.76230  Biso   1.000  H
  H75      1.0000 0.79970  0.19710  0.82290  Biso   1.000  H
  H76      1.0000 0.85760  0.13630  0.75410  Biso   1.000  H
  H77      1.0000 0.87050  0.10930  0.83770  Biso   1.000  H
  H78      1.0000 0.27140  0.93020  0.75600  Biso   1.000  H
  H79      1.0000 0.30650  0.80390  0.72730  Biso   1.000  H
  H80      1.0000 0.23920  0.77220  0.63100  Biso   1.000  H
  H81      1.0000 0.12150  0.86950  0.56750  Biso   1.000  H
  H82      1.0000 0.18330  0.27190  0.63230  Biso   1.000  H
  H83      1.0000 0.98750  0.45440  0.67540  Biso   1.000  H
  H84      1.0000 0.10700  0.48660  0.64980  Biso   1.000  H
  H85      1.0000 0.05060  0.46510  0.73770  Biso   1.000  H
  H86      1.0000 0.31970  0.30290  0.67710  Biso   1.000  H
  H87      1.0000 0.24800  0.36370  0.74590  Biso   1.000  H
  H88      1.0000 0.31750  0.39070  0.66230  Biso   1.000  H
  C1       1.0000 0.36044  0.60145  0.41087  Biso   1.000  C
  C2       1.0000 0.25047  0.65764  0.39182  Biso   1.000  C
  C3       1.0000 0.14563  0.67712  0.52222  Biso   1.000  C
  C4       1.0000 0.04081  0.71714  0.58144  Biso   1.000  C
  C5       1.0000 0.03748  0.69992  0.65612  Biso   1.000  C
  C6       1.0000 0.13589  0.64316  0.67546  Biso   1.000  C
  C7       1.0000 0.24227  0.60489  0.61797  Biso   1.000  C
  C8       1.0000 0.24803  0.62170  0.54064  Biso   1.000  C
  C9       1.0000 0.23517  0.64114  0.17812  Biso   1.000  C
  C10      1.0000 0.24810  0.68436  0.04884  Biso   1.000  C
  C11      1.0000 0.04060  0.69052  0.14368  Biso   1.000  C
  C12      1.0000 0.87276  0.89855  0.08913  Biso   1.000  C
  C13      1.0000 0.79993  0.84236  0.10818  Biso   1.000  C
  C14      1.0000 0.84497  0.82288  0.97778  Biso   1.000  C
  C15      1.0000 0.83939  0.78286  0.91856  Biso   1.000  C
  C16      1.0000 0.89352  0.80008  0.84388  Biso   1.000  C
  C17      1.0000 0.95451  0.85684  0.82454  Biso   1.000  C
  C18      1.0000 0.96513  0.89511  0.88203  Biso   1.000  C
  C19      1.0000 0.91037  0.87830  0.95936  Biso   1.000  C
  C20      1.0000 0.55443  0.85886  0.32188  Biso   1.000  C
  C21      1.0000 0.48130  0.81564  0.45116  Biso   1.000  C
  C22      1.0000 0.37480  0.80948  0.35632  Biso   1.000  C
  C23      1.0000 0.77131  0.58913  0.10145  Biso   1.000  C
  C24      1.0000 0.64229  0.60818  0.15764  Biso   1.000  C
  C25      1.0000 0.66785  0.47778  0.17712  Biso   1.000  C
  C26      1.0000 0.62225  0.41856  0.21714  Biso   1.000  C
  C27      1.0000 0.69360  0.34388  0.19992  Biso   1.000  C
  C28      1.0000 0.81135  0.32454  0.14316  Biso   1.000  C
  C29      1.0000 0.86024  0.38203  0.10489  Biso   1.000  C
  C30      1.0000 0.78867  0.45936  0.12170  Biso   1.000  C
  C31      1.0000 0.41329  0.82188  0.14114  Biso   1.000  C
  C32      1.0000 0.29694  0.95116  0.18436  Biso   1.000  C
  C33      1.0000 0.18428  0.85632  0.19052  Biso   1.000  C
  C34      1.0000 0.96189  0.91087  0.39855  Biso   1.000  C
  C35      1.0000 0.90811  0.89182  0.34236  Biso   1.000  C
  C36      1.0000 0.82275  0.02222  0.32288  Biso   1.000  C
  C37      1.0000 0.75795  0.08144  0.28286  Biso   1.000  C
  C38      1.0000 0.73740  0.15612  0.30008  Biso   1.000  C
  C39      1.0000 0.77905  0.17546  0.35684  Biso   1.000  C
  C40      1.0000 0.84716  0.11797  0.39511  Biso   1.000  C
  C41      1.0000 0.86973  0.04064  0.37830  Biso   1.000  C
  C42      1.0000 0.87631  0.67812  0.35886  Biso   1.000  C
  C43      1.0000 0.93246  0.54884  0.31564  Biso   1.000  C
  C44      1.0000 0.73112  0.64368  0.30948  Biso   1.000  C
  C45      1.0000 0.63956  0.39855  0.58913  Biso   1.000  C
  C46      1.0000 0.74953  0.34236  0.60818  Biso   1.000  C
  C47      1.0000 0.85437  0.32288  0.47778  Biso   1.000  C
  C48      1.0000 0.95919  0.28286  0.41856  Biso   1.000  C
  C49      1.0000 0.96252  0.30008  0.34388  Biso   1.000  C
  C50      1.0000 0.86411  0.35684  0.32454  Biso   1.000  C
  C51      1.0000 0.75773  0.39511  0.38203  Biso   1.000  C
  C52      1.0000 0.75197  0.37830  0.45936  Biso   1.000  C
  C53      1.0000 0.76483  0.35886  0.82188  Biso   1.000  C
  C54      1.0000 0.75190  0.31564  0.95116  Biso   1.000  C
  C55      1.0000 0.95940  0.30948  0.85632  Biso   1.000  C
  C56      1.0000 0.12724  0.10145  0.91087  Biso   1.000  C
  C57      1.0000 0.20007  0.15764  0.89182  Biso   1.000  C
  C58      1.0000 0.15503  0.17712  0.02222  Biso   1.000  C
  C59      1.0000 0.16061  0.21714  0.08144  Biso   1.000  C
  C60      1.0000 0.10648  0.19992  0.15612  Biso   1.000  C
  C61      1.0000 0.04549  0.14316  0.17546  Biso   1.000  C
  C62      1.0000 0.03487  0.10489  0.11797  Biso   1.000  C
  C63      1.0000 0.08963  0.12170  0.04064  Biso   1.000  C
  C64      1.0000 0.44557  0.14114  0.67812  Biso   1.000  C
  C65      1.0000 0.51870  0.18436  0.54884  Biso   1.000  C
  C66      1.0000 0.62520  0.19052  0.64368  Biso   1.000  C
  C67      1.0000 0.22869  0.41087  0.89855  Biso   1.000  C
  C68      1.0000 0.35771  0.39182  0.84236  Biso   1.000  C
  C69      1.0000 0.33215  0.52222  0.82288  Biso   1.000  C
  C70      1.0000 0.37775  0.58144  0.78286  Biso   1.000  C
  C71      1.0000 0.30640  0.65612  0.80008  Biso   1.000  C
  C72      1.0000 0.18865  0.67546  0.85684  Biso   1.000  C
  C73      1.0000 0.13976  0.61797  0.89511  Biso   1.000  C
  C74      1.0000 0.21133  0.54064  0.87830  Biso   1.000  C
  C75      1.0000 0.58671  0.17812  0.85886  Biso   1.000  C
  C76      1.0000 0.70306  0.04884  0.81564  Biso   1.000  C
  C77      1.0000 0.81572  0.14368  0.80948  Biso   1.000  C
  C78      1.0000 0.03811  0.08913  0.60145  Biso   1.000  C
  C79      1.0000 0.09189  0.10818  0.65764  Biso   1.000  C
  C80      1.0000 0.17725  0.97778  0.67712  Biso   1.000  C
  C81      1.0000 0.24205  0.91856  0.71714  Biso   1.000  C
  C82      1.0000 0.26260  0.84388  0.69992  Biso   1.000  C
  C83      1.0000 0.22095  0.82454  0.64316  Biso   1.000  C
  C84      1.0000 0.15284  0.88203  0.60489  Biso   1.000  C
  C85      1.0000 0.13027  0.95936  0.62170  Biso   1.000  C
  C86      1.0000 0.12369  0.32188  0.64114  Biso   1.000  C
  C87      1.0000 0.06754  0.45116  0.68436  Biso   1.000  C
  C88      1.0000 0.26888  0.35632  0.69052  Biso   1.000  C
  N1       1.0000 0.35549  0.58373  0.48283  Biso   1.000  N
  N2       1.0000 0.14730  0.69241  0.44657  Biso   1.000  N
  N3       1.0000 0.17780  0.66996  0.12644  Biso   1.000  N
  N4       1.0000 0.92205  0.91627  0.01717  Biso   1.000  N
  N5       1.0000 0.78628  0.80759  0.05343  Biso   1.000  N
  N6       1.0000 0.47420  0.83004  0.37356  Biso   1.000  N
  N7       1.0000 0.83832  0.51717  0.08373  Biso   1.000  N
  N8       1.0000 0.59387  0.55343  0.19241  Biso   1.000  N
  N9       1.0000 0.30424  0.87356  0.16996  Biso   1.000  N
  N10      1.0000 0.93922  0.98283  0.41627  Biso   1.000  N
  N11      1.0000 0.83971  0.94657  0.30759  Biso   1.000  N
  N12      1.0000 0.84776  0.62644  0.33004  Biso   1.000  N
  N13      1.0000 0.64451  0.41627  0.51717  Biso   1.000  N
  N14      1.0000 0.85270  0.30759  0.55343  Biso   1.000  N
  N15      1.0000 0.82220  0.33004  0.87356  Biso   1.000  N
  N16      1.0000 0.07795  0.08373  0.98283  Biso   1.000  N
  N17      1.0000 0.21372  0.19241  0.94657  Biso   1.000  N
  N18      1.0000 0.52580  0.16996  0.62644  Biso   1.000  N
  N19      1.0000 0.16168  0.48283  0.91627  Biso   1.000  N
  N20      1.0000 0.40613  0.44657  0.80759  Biso   1.000  N
  N21      1.0000 0.69576  0.12644  0.83004  Biso   1.000  N
  N22      1.0000 0.06078  0.01717  0.58373  Biso   1.000  N
  N23      1.0000 0.16029  0.05343  0.69241  Biso   1.000  N
  N24      1.0000 0.15224  0.37356  0.66996  Biso   1.000  N
  Cl1      1.0000 0.59644  0.58800  0.50752  Biso   1.000  Cl
  Cl2      1.0000 0.19196  0.91200  0.99248  Biso   1.000  Cl
  Cl3      1.0000 0.10396  0.49248  0.08800  Biso   1.000  Cl
  Cl4      1.0000 0.18444  0.00752  0.41200  Biso   1.000  Cl
  Cl5      1.0000 0.40356  0.41200  0.49248  Biso   1.000  Cl
  Cl6      1.0000 0.80804  0.08800  0.00752  Biso   1.000  Cl
  Cl7      1.0000 0.89604  0.50752  0.91200  Biso   1.000  Cl
  Cl8      1.0000 0.81556  0.99248  0.58800  Biso   1.000  Cl
  O1       1.0000 0.45737  0.57013  0.35423  Biso   1.000  O
  O2       1.0000 0.25987  0.66930  0.32064  Biso   1.000  O
  O3       1.0000 0.35246  0.62437  0.16643  Biso   1.000  O
  O4       1.0000 0.88173  0.92987  0.14577  Biso   1.000  O
  O5       1.0000 0.74981  0.83070  0.17936  Biso   1.000  O
  O6       1.0000 0.64326  0.87563  0.33357  Biso   1.000  O
  O7       1.0000 0.81160  0.64577  0.07013  Biso   1.000  O
  O8       1.0000 0.58051  0.67936  0.16930  Biso   1.000  O
  O9       1.0000 0.51889  0.83357  0.12437  Biso   1.000  O
  O10      1.0000 0.02750  0.85423  0.42987  Biso   1.000  O
  O11      1.0000 0.92917  0.82064  0.33070  Biso   1.000  O
  O12      1.0000 0.97683  0.66643  0.37563  Biso   1.000  O
  O13      1.0000 0.54263  0.42987  0.64577  Biso   1.000  O
  O14      1.0000 0.74013  0.33070  0.67936  Biso   1.000  O
  O15      1.0000 0.64754  0.37563  0.83357  Biso   1.000  O
  O16      1.0000 0.11827  0.07013  0.85423  Biso   1.000  O
  O17      1.0000 0.25019  0.16930  0.82064  Biso   1.000  O
  O18      1.0000 0.35674  0.12437  0.66643  Biso   1.000  O
  O19      1.0000 0.18840  0.35423  0.92987  Biso   1.000  O
  O20      1.0000 0.41949  0.32064  0.83070  Biso   1.000  O
  O21      1.0000 0.48111  0.16643  0.87563  Biso   1.000  O
  O22      1.0000 0.97250  0.14577  0.57013  Biso   1.000  O
  O23      1.0000 0.07083  0.17936  0.66930  Biso   1.000  O
  O24      1.0000 0.02317  0.33357  0.62437  Biso   1.000  O
