data_VIXTUT_freeONLY
_audit_creation_date              2015-10-16
_audit_creation_method            'Materials Studio'
_symmetry_space_group_name_H-M    'P1'
_symmetry_Int_Tables_number       1
_symmetry_cell_setting            triclinic
loop_
_symmetry_equiv_pos_as_xyz
  x,y,z
_cell_length_a                    10.8950
_cell_length_b                    13.0520
_cell_length_c                    13.5360
_cell_angle_alpha                 90.0000
_cell_angle_beta                  95.7400
_cell_angle_gamma                 90.0000
loop_
_atom_site_label
_atom_site_type_symbol
_atom_site_fract_x
_atom_site_fract_y
_atom_site_fract_z
_atom_site_U_iso_or_equiv
_atom_site_adp_type
_atom_site_occupancy
Zn1    Zn    0.70101   0.11975   0.17266   0.01267  Uiso   1.00
Zn2    Zn    0.20101   0.38025   0.67266   0.01267  Uiso   1.00
H1     H     0.92200   0.79710   0.11630   0.01267  Uiso   1.00
H2     H     0.92340   0.18060   0.51180   0.01267  Uiso   1.00
H3     H     0.73550   0.01440   0.37470   0.01267  Uiso   1.00
H4     H     0.03060   0.26850   0.34670   0.01267  Uiso   1.00
H5     H     0.42200   0.70290   0.61630   0.01267  Uiso   1.00
H6     H     0.53060   0.23150   0.84670   0.01267  Uiso   1.00
H7     H     0.45140   0.02670   0.17250   0.01267  Uiso   1.00
H8     H     0.92260   0.65790   0.00890   0.01267  Uiso   1.00
H9     H     0.81820   0.67200   0.91780   0.01267  Uiso   1.00
H10    H     0.34060   0.91750   0.26310   0.01267  Uiso   1.00
H11    H     0.74860   0.08050   0.95720   0.01267  Uiso   1.00
H12    H     0.03180   0.12460   0.46040   0.01267  Uiso   1.00
H13    H     0.84060   0.58250   0.76310   0.01267  Uiso   1.00
H14    H     0.33980   0.54170   0.36630   0.01267  Uiso   1.00
H15    H     0.42340   0.31940   0.01180   0.01267  Uiso   1.00
H16    H     0.83980   0.95830   0.86630   0.01267  Uiso   1.00
H17    H     0.23550   0.48560   0.87470   0.01267  Uiso   1.00
H18    H     0.95140   0.47330   0.67250   0.01267  Uiso   1.00
H19    H     0.41010   0.19020   0.89240   0.01267  Uiso   1.00
H20    H     0.54250   0.71360   0.44140   0.01267  Uiso   1.00
H21    H     0.32860   0.57790   0.70140   0.01267  Uiso   1.00
H22    H     0.04250   0.78640   0.94140   0.01267  Uiso   1.00
H23    H     0.91010   0.30980   0.39240   0.01267  Uiso   1.00
H24    H     0.12900   0.59200   0.97160   0.01267  Uiso   1.00
H25    H     0.93800   0.80060   0.85090   0.01267  Uiso   1.00
H26    H     0.31820   0.82800   0.41780   0.01267  Uiso   1.00
H27    H     0.53180   0.37540   0.96040   0.01267  Uiso   1.00
H28    H     0.62900   0.90800   0.47160   0.01267  Uiso   1.00
H29    H     0.43800   0.69940   0.35090   0.01267  Uiso   1.00
H30    H     0.82860   0.92210   0.20140   0.01267  Uiso   1.00
H31    H     0.24860   0.41950   0.45720   0.01267  Uiso   1.00
H32    H     0.42260   0.84210   0.50890   0.01267  Uiso   1.00
C1     C     0.33080   0.57013   0.63185   0.01267  Uiso   1.00
C2     C     0.90810   0.67586   0.93770   0.01267  Uiso   1.00
C3     C     0.95250   0.78358   0.92235   0.01267  Uiso   1.00
C4     C     0.78420   0.02183   0.99037   0.01267  Uiso   1.00
C5     C     0.38640   0.64511   0.58163   0.01267  Uiso   1.00
C6     C     0.39080   0.63674   0.48053   0.01267  Uiso   1.00
C7     C     0.37660   0.31755   0.80520   0.01267  Uiso   1.00
C8     C     0.97350   0.60065   0.87807   0.01267  Uiso   1.00
C9     C     0.88640   0.85489   0.08163   0.01267  Uiso   1.00
C10    C     0.48900   0.00106   0.23393   0.01267  Uiso   1.00
C11    C     0.58970   0.24413   0.03526   0.01267  Uiso   1.00
C12    C     0.08970   0.25587   0.53526   0.01267  Uiso   1.00
C13    C     0.40810   0.82414   0.43770   0.01267  Uiso   1.00
C14    C     0.83850   0.94909   0.93577   0.01267  Uiso   1.00
C15    C     0.89080   0.86326   0.98053   0.01267  Uiso   1.00
C16    C     0.59080   0.93060   0.40928   0.01267  Uiso   1.00
C17    C     0.92210   0.56344   0.78777   0.01267  Uiso   1.00
C18    C     0.65380   0.99447   0.35139   0.01267  Uiso   1.00
C19    C     0.98900   0.49894   0.73393   0.01267  Uiso   1.00
C20    C     0.33850   0.55091   0.43577   0.01267  Uiso   1.00
C21    C     0.49590   0.30787   0.97447   0.01267  Uiso   1.00
C22    C     0.09080   0.56940   0.90928   0.01267  Uiso   1.00
C23    C     0.45250   0.71642   0.42235   0.01267  Uiso   1.00
C24    C     0.83080   0.92987   0.13185   0.01267  Uiso   1.00
C25    C     0.45610   0.25288   0.87773   0.01267  Uiso   1.00
C26    C     0.28420   0.47817   0.49037   0.01267  Uiso   1.00
C27    C     0.42210   0.93656   0.28777   0.01267  Uiso   1.00
C28    C     0.99590   0.19213   0.47447   0.01267  Uiso   1.00
C29    C     0.47350   0.89935   0.37807   0.01267  Uiso   1.00
C30    C     0.95610   0.24712   0.37773   0.01267  Uiso   1.00
C31    C     0.87660   0.18245   0.30520   0.01267  Uiso   1.00
C32    C     0.15380   0.50553   0.85139   0.01267  Uiso   1.00
N1     N     0.60439   0.02958   0.26353   0.01267  Uiso   1.00
N2     N     0.27946   0.48666   0.58858   0.01267  Uiso   1.00
N3     N     0.77946   0.01334   0.08858   0.01267  Uiso   1.00
N4     N     0.10439   0.47042   0.76353   0.01267  Uiso   1.00
O1     O     0.28733   0.27399   0.75484   0.01267  Uiso   1.00
O2     O     0.89965   0.08986   0.29600   0.01267  Uiso   1.00
O3     O     0.69802   0.24314   0.01614   0.01267  Uiso   1.00
O4     O     0.39965   0.41014   0.79600   0.01267  Uiso   1.00
O5     O     0.55348   0.18921   0.10485   0.01267  Uiso   1.00
O6     O     0.78733   0.22601   0.25484   0.01267  Uiso   1.00
O7     O     0.19802   0.25686   0.51614   0.01267  Uiso   1.00
O8     O     0.05348   0.31079   0.60485   0.01267  Uiso   1.00
Zn3    Zn    0.29899   0.88025   0.82734   0.01267  Uiso   1.00
Zn4    Zn    0.79899   0.61975   0.32734   0.01267  Uiso   1.00
H33    H     0.07800   0.20290   0.88370   0.01267  Uiso   1.00
H34    H     0.07740   0.34210   0.99110   0.01267  Uiso   1.00
H35    H     0.76450   0.51440   0.12530   0.01267  Uiso   1.00
H36    H     0.96940   0.73150   0.65330   0.01267  Uiso   1.00
H37    H     0.17140   0.07790   0.79860   0.01267  Uiso   1.00
H38    H     0.04860   0.52670   0.32750   0.01267  Uiso   1.00
H39    H     0.16020   0.04170   0.13370   0.01267  Uiso   1.00
H40    H     0.57740   0.15790   0.49110   0.01267  Uiso   1.00
H41    H     0.46820   0.62460   0.03960   0.01267  Uiso   1.00
H42    H     0.54860   0.97330   0.82750   0.01267  Uiso   1.00
H43    H     0.95750   0.21360   0.05860   0.01267  Uiso   1.00
H44    H     0.65940   0.08250   0.73690   0.01267  Uiso   1.00
H45    H     0.15940   0.41750   0.23690   0.01267  Uiso   1.00
H46    H     0.06200   0.19940   0.14910   0.01267  Uiso   1.00
H47    H     0.25140   0.91950   0.04280   0.01267  Uiso   1.00
H48    H     0.68180   0.17200   0.58220   0.01267  Uiso   1.00
H49    H     0.26450   0.98560   0.62530   0.01267  Uiso   1.00
H50    H     0.87100   0.40800   0.02840   0.01267  Uiso   1.00
H51    H     0.96820   0.87540   0.53960   0.01267  Uiso   1.00
H52    H     0.45750   0.28640   0.55860   0.01267  Uiso   1.00
H53    H     0.58990   0.80980   0.10760   0.01267  Uiso   1.00
H54    H     0.56200   0.30060   0.64910   0.01267  Uiso   1.00
H55    H     0.67140   0.42210   0.29860   0.01267  Uiso   1.00
H56    H     0.37100   0.09200   0.52840   0.01267  Uiso   1.00
H57    H     0.66020   0.45830   0.63370   0.01267  Uiso   1.00
H58    H     0.18180   0.32800   0.08220   0.01267  Uiso   1.00
H59    H     0.75140   0.58050   0.54280   0.01267  Uiso   1.00
H60    H     0.08990   0.69020   0.60760   0.01267  Uiso   1.00
H61    H     0.57660   0.68060   0.98820   0.01267  Uiso   1.00
H62    H     0.57800   0.29710   0.38370   0.01267  Uiso   1.00
H63    H     0.07660   0.81940   0.48820   0.01267  Uiso   1.00
H64    H     0.46940   0.76850   0.15330   0.01267  Uiso   1.00
C33    C     0.04750   0.21642   0.07765   0.01267  Uiso   1.00
C34    C     0.11360   0.14511   0.91837   0.01267  Uiso   1.00
C35    C     0.62340   0.68245   0.19480   0.01267  Uiso   1.00
C36    C     0.12340   0.81755   0.69480   0.01267  Uiso   1.00
C37    C     0.54750   0.28358   0.57765   0.01267  Uiso   1.00
C38    C     0.00410   0.80787   0.52553   0.01267  Uiso   1.00
C39    C     0.09190   0.32414   0.06230   0.01267  Uiso   1.00
C40    C     0.07790   0.43656   0.21223   0.01267  Uiso   1.00
C41    C     0.52650   0.10065   0.62193   0.01267  Uiso   1.00
C42    C     0.21580   0.97817   0.00963   0.01267  Uiso   1.00
C43    C     0.66920   0.42987   0.36815   0.01267  Uiso   1.00
C44    C     0.34620   0.00553   0.64861   0.01267  Uiso   1.00
C45    C     0.50410   0.69213   0.02553   0.01267  Uiso   1.00
C46    C     0.54390   0.74712   0.12227   0.01267  Uiso   1.00
C47    C     0.01100   0.50106   0.26607   0.01267  Uiso   1.00
C48    C     0.90920   0.43060   0.09072   0.01267  Uiso   1.00
C49    C     0.10920   0.13674   0.01947   0.01267  Uiso   1.00
C50    C     0.16920   0.07013   0.86815   0.01267  Uiso   1.00
C51    C     0.02650   0.39935   0.12193   0.01267  Uiso   1.00
C52    C     0.84620   0.49447   0.14861   0.01267  Uiso   1.00
C53    C     0.40920   0.06940   0.59072   0.01267  Uiso   1.00
C54    C     0.04390   0.75288   0.62227   0.01267  Uiso   1.00
C55    C     0.71580   0.52183   0.50963   0.01267  Uiso   1.00
C56    C     0.60920   0.36326   0.51947   0.01267  Uiso   1.00
C57    C     0.61360   0.35489   0.41837   0.01267  Uiso   1.00
C58    C     0.51100   0.99894   0.76607   0.01267  Uiso   1.00
C59    C     0.66150   0.44909   0.56423   0.01267  Uiso   1.00
C60    C     0.41030   0.75587   0.96474   0.01267  Uiso   1.00
C61    C     0.59190   0.17586   0.56230   0.01267  Uiso   1.00
C62    C     0.91030   0.74413   0.46474   0.01267  Uiso   1.00
C63    C     0.57790   0.06344   0.71223   0.01267  Uiso   1.00
C64    C     0.16150   0.05091   0.06423   0.01267  Uiso   1.00
N5     N     0.72054   0.51334   0.41142   0.01267  Uiso   1.00
N6     N     0.89561   0.52958   0.23647   0.01267  Uiso   1.00
N7     N     0.22054   0.98666   0.91142   0.01267  Uiso   1.00
N8     N     0.39561   0.97042   0.73647   0.01267  Uiso   1.00
O9     O     0.80198   0.74314   0.48386   0.01267  Uiso   1.00
O10    O     0.10035   0.91014   0.70400   0.01267  Uiso   1.00
O11    O     0.21267   0.77399   0.74516   0.01267  Uiso   1.00
O12    O     0.44652   0.81079   0.89515   0.01267  Uiso   1.00
O13    O     0.71267   0.72601   0.24516   0.01267  Uiso   1.00
O14    O     0.94652   0.68921   0.39515   0.01267  Uiso   1.00
O15    O     0.60035   0.58986   0.20400   0.01267  Uiso   1.00
O16    O     0.30198   0.75686   0.98386   0.01267  Uiso   1.00
