data_VIXVUV_freeONLY
_audit_creation_date              2015-10-16
_audit_creation_method            'Materials Studio'
_symmetry_space_group_name_H-M    'P1'
_symmetry_Int_Tables_number       1
_symmetry_cell_setting            triclinic
loop_
_symmetry_equiv_pos_as_xyz
  x,y,z
_cell_length_a                    10.5081
_cell_length_b                    12.2960
_cell_length_c                    16.6714
_cell_angle_alpha                 90.0000
_cell_angle_beta                  90.0000
_cell_angle_gamma                 90.0000
loop_
_atom_site_label
_atom_site_type_symbol
_atom_site_fract_x
_atom_site_fract_y
_atom_site_fract_z
_atom_site_U_iso_or_equiv
_atom_site_adp_type
_atom_site_occupancy
Zn1    Zn    0.40095   0.25000   0.75000   0.01267  Uiso   1.00
Zn2    Zn    0.59905   0.75000   0.25000   0.01267  Uiso   1.00
H1     H     0.56780   0.97290   0.63250   0.01267  Uiso   1.00
H2     H     0.43220   0.47290   0.13250   0.01267  Uiso   1.00
H3     H     0.09590   0.55430   0.45500   0.01267  Uiso   1.00
H4     H     0.12640   0.94110   0.83700   0.01267  Uiso   1.00
H5     H     0.39010   0.94360   0.51940   0.01267  Uiso   1.00
H6     H     0.07710   0.21080   0.96640   0.01267  Uiso   1.00
H7     H     0.04000   0.44030   0.43140   0.01267  Uiso   1.00
H8     H     0.31660   0.54310   0.10490   0.01267  Uiso   1.00
H9     H     0.76100   0.71010   0.10450   0.01267  Uiso   1.00
H10    H     0.56780   0.52710   0.86750   0.01267  Uiso   1.00
H11    H     0.60990   0.05640   0.48060   0.01267  Uiso   1.00
H12    H     0.09590   0.94570   0.04500   0.01267  Uiso   1.00
H13    H     0.23900   0.28990   0.89550   0.01267  Uiso   1.00
H14    H     0.90410   0.05430   0.95500   0.01267  Uiso   1.00
H15    H     0.28080   0.46970   0.73490   0.01267  Uiso   1.00
H16    H     0.76100   0.78990   0.39550   0.01267  Uiso   1.00
H17    H     0.68340   0.45690   0.89510   0.01267  Uiso   1.00
H18    H     0.71920   0.96970   0.23490   0.01267  Uiso   1.00
H19    H     0.68340   0.04310   0.60490   0.01267  Uiso   1.00
H20    H     0.43220   0.02710   0.36750   0.01267  Uiso   1.00
H21    H     0.71920   0.53030   0.26510   0.01267  Uiso   1.00
H22    H     0.04000   0.05970   0.06860   0.01267  Uiso   1.00
H23    H     0.23900   0.21010   0.60450   0.01267  Uiso   1.00
H24    H     0.60650   0.93390   0.50480   0.01267  Uiso   1.00
H25    H     0.60650   0.56610   0.99520   0.01267  Uiso   1.00
H26    H     0.96000   0.55970   0.56860   0.01267  Uiso   1.00
H27    H     0.39010   0.55640   0.98060   0.01267  Uiso   1.00
H28    H     0.87360   0.05890   0.16300   0.01267  Uiso   1.00
H29    H     0.28080   0.03030   0.76510   0.01267  Uiso   1.00
H30    H     0.60990   0.44360   0.01940   0.01267  Uiso   1.00
H31    H     0.90410   0.44570   0.54500   0.01267  Uiso   1.00
H32    H     0.39350   0.43390   0.00480   0.01267  Uiso   1.00
H33    H     0.96000   0.94030   0.93140   0.01267  Uiso   1.00
H34    H     0.07710   0.28920   0.53360   0.01267  Uiso   1.00
H35    H     0.92290   0.78920   0.03360   0.01267  Uiso   1.00
H36    H     0.87360   0.44110   0.33700   0.01267  Uiso   1.00
H37    H     0.31660   0.95690   0.39510   0.01267  Uiso   1.00
H38    H     0.12640   0.55890   0.66300   0.01267  Uiso   1.00
H39    H     0.92290   0.71080   0.46640   0.01267  Uiso   1.00
H40    H     0.39350   0.06610   0.49520   0.01267  Uiso   1.00
C1     C     0.01990   0.50960   0.45620   0.01267  Uiso   1.00
C2     C     0.78590   0.71950   0.38260   0.01267  Uiso   1.00
C3     C     0.21410   0.21950   0.88260   0.01267  Uiso   1.00
C4     C     0.98010   0.49040   0.54380   0.01267  Uiso   1.00
C5     C     0.11830   0.32800   0.57390   0.01267  Uiso   1.00
C6     C     0.59220   0.03410   0.59920   0.01267  Uiso   1.00
C7     C     0.76020   0.56690   0.30650   0.01267  Uiso   1.00
C8     C     0.88170   0.82800   0.07390   0.01267  Uiso   1.00
C9     C     0.23980   0.43310   0.69350   0.01267  Uiso   1.00
C10    C     0.98010   0.00960   0.95620   0.01267  Uiso   1.00
C11    C     0.11830   0.17200   0.92610   0.01267  Uiso   1.00
C12    C     0.76020   0.93310   0.19350   0.01267  Uiso   1.00
C13    C     0.47000   0.63310   0.13290   0.01267  Uiso   1.00
C14    C     0.14610   0.48710   0.65060   0.01267  Uiso   1.00
C15    C     0.23980   0.06690   0.80650   0.01267  Uiso   1.00
C16    C     0.88170   0.67200   0.42610   0.01267  Uiso   1.00
C17    C     0.56650   0.49620   0.98570   0.01267  Uiso   1.00
C18    C     0.40780   0.53410   0.09920   0.01267  Uiso   1.00
C19    C     0.53000   0.36690   0.86710   0.01267  Uiso   1.00
C20    C     0.21410   0.28050   0.61740   0.01267  Uiso   1.00
C21    C     0.08310   0.06430   0.90940   0.01267  Uiso   1.00
C22    C     0.85390   0.51290   0.34940   0.01267  Uiso   1.00
C23    C     0.56650   0.00380   0.51430   0.01267  Uiso   1.00
C24    C     0.40780   0.96590   0.40080   0.01267  Uiso   1.00
C25    C     0.91690   0.93570   0.09060   0.01267  Uiso   1.00
C26    C     0.14610   0.01290   0.84940   0.01267  Uiso   1.00
C27    C     0.85390   0.98710   0.15060   0.01267  Uiso   1.00
C28    C     0.91690   0.56430   0.40940   0.01267  Uiso   1.00
C29    C     0.59220   0.46590   0.90080   0.01267  Uiso   1.00
C30    C     0.01990   0.99040   0.04380   0.01267  Uiso   1.00
C31    C     0.78590   0.78050   0.11740   0.01267  Uiso   1.00
C32    C     0.08310   0.43570   0.59060   0.01267  Uiso   1.00
C33    C     0.43350   0.99620   0.48570   0.01267  Uiso   1.00
C34    C     0.43350   0.50380   0.01430   0.01267  Uiso   1.00
C35    C     0.47000   0.86690   0.36710   0.01267  Uiso   1.00
C36    C     0.53000   0.13310   0.63290   0.01267  Uiso   1.00
N1     N     0.72680   0.83130   0.17779   0.01267  Uiso   1.00
N2     N     0.27320   0.33130   0.67779   0.01267  Uiso   1.00
N3     N     0.27320   0.16870   0.82221   0.01267  Uiso   1.00
N4     N     0.72680   0.66870   0.32221   0.01267  Uiso   1.00
O1     O     0.45610   0.77820   0.40280   0.01267  Uiso   1.00
O2     O     0.52330   0.87290   0.30045   0.01267  Uiso   1.00
O3     O     0.54390   0.27820   0.90280   0.01267  Uiso   1.00
O4     O     0.47670   0.37290   0.80045   0.01267  Uiso   1.00
O5     O     0.47670   0.12710   0.69955   0.01267  Uiso   1.00
O6     O     0.45610   0.72180   0.09720   0.01267  Uiso   1.00
O7     O     0.54390   0.22180   0.59720   0.01267  Uiso   1.00
O8     O     0.52330   0.62710   0.19955   0.01267  Uiso   1.00
Zn3    Zn    0.90095   0.75000   0.75000   0.01267  Uiso   1.00
Zn4    Zn    0.09905   0.25000   0.25000   0.01267  Uiso   1.00
H41    H     0.26100   0.28990   0.10450   0.01267  Uiso   1.00
H42    H     0.78080   0.53030   0.73490   0.01267  Uiso   1.00
H43    H     0.57710   0.71080   0.53360   0.01267  Uiso   1.00
H44    H     0.93220   0.97290   0.36750   0.01267  Uiso   1.00
H45    H     0.93220   0.52710   0.13250   0.01267  Uiso   1.00
H46    H     0.89350   0.93390   0.49520   0.01267  Uiso   1.00
H47    H     0.40410   0.94570   0.95500   0.01267  Uiso   1.00
H48    H     0.06780   0.47290   0.86750   0.01267  Uiso   1.00
H49    H     0.37360   0.94110   0.16300   0.01267  Uiso   1.00
H50    H     0.42290   0.28920   0.46640   0.01267  Uiso   1.00
H51    H     0.73900   0.71010   0.89550   0.01267  Uiso   1.00
H52    H     0.10990   0.55640   0.01940   0.01267  Uiso   1.00
H53    H     0.06780   0.02710   0.63250   0.01267  Uiso   1.00
H54    H     0.89350   0.56610   0.00480   0.01267  Uiso   1.00
H55    H     0.10990   0.94360   0.48060   0.01267  Uiso   1.00
H56    H     0.46000   0.44030   0.56860   0.01267  Uiso   1.00
H57    H     0.26100   0.21010   0.39550   0.01267  Uiso   1.00
H58    H     0.78080   0.96970   0.76510   0.01267  Uiso   1.00
H59    H     0.59590   0.44570   0.45500   0.01267  Uiso   1.00
H60    H     0.10650   0.06610   0.50480   0.01267  Uiso   1.00
H61    H     0.89010   0.44360   0.98060   0.01267  Uiso   1.00
H62    H     0.62640   0.44110   0.66300   0.01267  Uiso   1.00
H63    H     0.54000   0.94030   0.06860   0.01267  Uiso   1.00
H64    H     0.21920   0.03030   0.23490   0.01267  Uiso   1.00
H65    H     0.10650   0.43390   0.99520   0.01267  Uiso   1.00
H66    H     0.37360   0.55890   0.33700   0.01267  Uiso   1.00
H67    H     0.81660   0.04310   0.39510   0.01267  Uiso   1.00
H68    H     0.42290   0.21080   0.03360   0.01267  Uiso   1.00
H69    H     0.62640   0.05890   0.83700   0.01267  Uiso   1.00
H70    H     0.21920   0.46970   0.26510   0.01267  Uiso   1.00
H71    H     0.59590   0.05430   0.04500   0.01267  Uiso   1.00
H72    H     0.46000   0.05970   0.93140   0.01267  Uiso   1.00
H73    H     0.40410   0.55430   0.54500   0.01267  Uiso   1.00
H74    H     0.81660   0.45690   0.10490   0.01267  Uiso   1.00
H75    H     0.54000   0.55970   0.43140   0.01267  Uiso   1.00
H76    H     0.18340   0.95690   0.60490   0.01267  Uiso   1.00
H77    H     0.73900   0.78990   0.60450   0.01267  Uiso   1.00
H78    H     0.18340   0.54310   0.89510   0.01267  Uiso   1.00
H79    H     0.89010   0.05640   0.51940   0.01267  Uiso   1.00
H80    H     0.57710   0.78920   0.96640   0.01267  Uiso   1.00
C37    C     0.73980   0.56690   0.69350   0.01267  Uiso   1.00
C38    C     0.06650   0.99620   0.51430   0.01267  Uiso   1.00
C39    C     0.64610   0.51290   0.65060   0.01267  Uiso   1.00
C40    C     0.06650   0.50380   0.98570   0.01267  Uiso   1.00
C41    C     0.38170   0.17200   0.07390   0.01267  Uiso   1.00
C42    C     0.09220   0.53410   0.90080   0.01267  Uiso   1.00
C43    C     0.28590   0.28050   0.38260   0.01267  Uiso   1.00
C44    C     0.41690   0.06430   0.09060   0.01267  Uiso   1.00
C45    C     0.90780   0.03410   0.40080   0.01267  Uiso   1.00
C46    C     0.03000   0.63310   0.86710   0.01267  Uiso   1.00
C47    C     0.61830   0.82800   0.92610   0.01267  Uiso   1.00
C48    C     0.61830   0.67200   0.57390   0.01267  Uiso   1.00
C49    C     0.38170   0.32800   0.42610   0.01267  Uiso   1.00
C50    C     0.71410   0.78050   0.88260   0.01267  Uiso   1.00
C51    C     0.64610   0.98710   0.84940   0.01267  Uiso   1.00
C52    C     0.97000   0.36690   0.13290   0.01267  Uiso   1.00
C53    C     0.35390   0.01290   0.15060   0.01267  Uiso   1.00
C54    C     0.48010   0.99040   0.95620   0.01267  Uiso   1.00
C55    C     0.58310   0.56430   0.59060   0.01267  Uiso   1.00
C56    C     0.51990   0.49040   0.45620   0.01267  Uiso   1.00
C57    C     0.09220   0.96590   0.59920   0.01267  Uiso   1.00
C58    C     0.41690   0.43570   0.40940   0.01267  Uiso   1.00
C59    C     0.93350   0.49620   0.01430   0.01267  Uiso   1.00
C60    C     0.51990   0.00960   0.04380   0.01267  Uiso   1.00
C61    C     0.71410   0.71950   0.61740   0.01267  Uiso   1.00
C62    C     0.35390   0.48710   0.34940   0.01267  Uiso   1.00
C63    C     0.48010   0.50960   0.54380   0.01267  Uiso   1.00
C64    C     0.28590   0.21950   0.11740   0.01267  Uiso   1.00
C65    C     0.90780   0.46590   0.09920   0.01267  Uiso   1.00
C66    C     0.58310   0.93570   0.90940   0.01267  Uiso   1.00
C67    C     0.73980   0.93310   0.80650   0.01267  Uiso   1.00
C68    C     0.93350   0.00380   0.48570   0.01267  Uiso   1.00
C69    C     0.03000   0.86690   0.63290   0.01267  Uiso   1.00
C70    C     0.97000   0.13310   0.36710   0.01267  Uiso   1.00
C71    C     0.26020   0.06690   0.19350   0.01267  Uiso   1.00
C72    C     0.26020   0.43310   0.30650   0.01267  Uiso   1.00
N5     N     0.77320   0.83130   0.82221   0.01267  Uiso   1.00
N6     N     0.22680   0.33130   0.32221   0.01267  Uiso   1.00
N7     N     0.22680   0.16870   0.17779   0.01267  Uiso   1.00
N8     N     0.77320   0.66870   0.67779   0.01267  Uiso   1.00
O9     O     0.97670   0.87290   0.69955   0.01267  Uiso   1.00
O10    O     0.97670   0.62710   0.80045   0.01267  Uiso   1.00
O11    O     0.02330   0.37290   0.19955   0.01267  Uiso   1.00
O12    O     0.04390   0.77820   0.59720   0.01267  Uiso   1.00
O13    O     0.95610   0.27820   0.09720   0.01267  Uiso   1.00
O14    O     0.04390   0.72180   0.90280   0.01267  Uiso   1.00
O15    O     0.95610   0.22180   0.40280   0.01267  Uiso   1.00
O16    O     0.02330   0.12710   0.30045   0.01267  Uiso   1.00
