data_VIYZIO_freeONLY
_audit_creation_date              2015-10-16
_audit_creation_method            'Materials Studio'
_symmetry_space_group_name_H-M    'P1'
_symmetry_Int_Tables_number       1
_symmetry_cell_setting            triclinic
loop_
_symmetry_equiv_pos_as_xyz
  x,y,z
_cell_length_a                    10.2390
_cell_length_b                    12.1910
_cell_length_c                    13.9100
_cell_angle_alpha                 94.6000
_cell_angle_beta                  93.7500
_cell_angle_gamma                 99.8700
loop_
_atom_site_label
_atom_site_type_symbol
_atom_site_fract_x
_atom_site_fract_y
_atom_site_fract_z
_atom_site_U_iso_or_equiv
_atom_site_adp_type
_atom_site_occupancy
Zn1    Zn    0.26108   0.69619   0.46048   0.01267  Uiso   1.00
Zn2    Zn    0.22202   0.51909   0.22825   0.01267  Uiso   1.00
H1     H     0.09440   0.69450   0.93320   0.01267  Uiso   1.00
H2     H     0.33810   0.85640   0.07240   0.01267  Uiso   1.00
H3     H     0.07660   0.70120   0.61220   0.01267  Uiso   1.00
H4     H     0.37990   0.51380   0.89670   0.01267  Uiso   1.00
H5     H     0.86650   0.56940   0.47220   0.01267  Uiso   1.00
H6     H     0.52720   0.73130   0.19770   0.01267  Uiso   1.00
H7     H     0.35800   0.46300   0.05070   0.01267  Uiso   1.00
H8     H     0.64080   0.80410   0.07440   0.01267  Uiso   1.00
H9     H     0.13750   0.06920   0.46330   0.01267  Uiso   1.00
H10    H     0.86800   0.80890   0.07440   0.01267  Uiso   1.00
H11    H     0.97950   0.73460   0.19180   0.01267  Uiso   1.00
H12    H     0.32010   0.18080   0.09870   0.01267  Uiso   1.00
H13    H     0.06130   0.66610   0.77030   0.01267  Uiso   1.00
H14    H     0.45220   0.67640   0.62860   0.01267  Uiso   1.00
H15    H     0.16130   0.24200   0.40240   0.01267  Uiso   1.00
H16    H     0.64270   0.57800   0.47950   0.01267  Uiso   1.00
H17    H     0.44560   0.63840   0.78610   0.01267  Uiso   1.00
H18    H     0.36380   0.02850   0.01150   0.01267  Uiso   1.00
H19    H     0.08160   0.63940   0.08530   0.01267  Uiso   1.00
H20    H     0.27110   0.83630   0.22490   0.01267  Uiso   1.00
C1     C     0.23280   0.19870   0.27690   0.01267  Uiso   1.00
C2     C     0.37220   0.67300   0.65730   0.01267  Uiso   1.00
C3     C     0.68220   0.68050   0.27070   0.01267  Uiso   1.00
C4     C     0.36870   0.64940   0.75170   0.01267  Uiso   1.00
C5     C     0.14120   0.66550   0.74230   0.01267  Uiso   1.00
C6     C     0.68550   0.77460   0.12380   0.01267  Uiso   1.00
C7     C     0.88670   0.62870   0.34280   0.01267  Uiso   1.00
C8     C     0.19560   0.88210   0.40300   0.01267  Uiso   1.00
C9     C     0.88820   0.73110   0.19300   0.01267  Uiso   1.00
C10    C     0.82180   0.77620   0.12330   0.01267  Uiso   1.00
C11    C     0.14410   0.61480   0.04730   0.01267  Uiso   1.00
C12    C     0.25220   0.99990   0.25930   0.01267  Uiso   1.00
C13    C     0.24120   0.61130   0.89630   0.01267  Uiso   1.00
C14    C     0.33530   0.02160   0.07320   0.01267  Uiso   1.00
C15    C     0.82120   0.67850   0.26800   0.01267  Uiso   1.00
C16    C     0.82080   0.59530   0.42120   0.01267  Uiso   1.00
C17    C     0.30930   0.11250   0.12520   0.01267  Uiso   1.00
C18    C     0.17130   0.07770   0.40330   0.01267  Uiso   1.00
C19    C     0.68530   0.59980   0.42530   0.01267  Uiso   1.00
C20    C     0.31850   0.54150   0.93400   0.01267  Uiso   1.00
C21    C     0.46710   0.62500   0.35510   0.01267  Uiso   1.00
C22    C     0.20680   0.98840   0.35280   0.01267  Uiso   1.00
C23    C     0.26540   0.10540   0.22050   0.01267  Uiso   1.00
C24    C     0.61760   0.72960   0.19670   0.01267  Uiso   1.00
C25    C     0.32050   0.91800   0.10990   0.01267  Uiso   1.00
C26    C     0.28030   0.90600   0.20090   0.01267  Uiso   1.00
C27    C     0.25060   0.64190   0.79620   0.01267  Uiso   1.00
C28    C     0.02680   0.60620   0.33790   0.01267  Uiso   1.00
C29    C     0.15040   0.64790   0.95550   0.01267  Uiso   1.00
C30    C     0.24470   0.31290   0.24450   0.01267  Uiso   1.00
C31    C     0.61510   0.63570   0.35050   0.01267  Uiso   1.00
C32    C     0.18500   0.18210   0.36600   0.01267  Uiso   1.00
C33    C     0.30550   0.51180   0.02750   0.01267  Uiso   1.00
C34    C     0.15160   0.68790   0.64760   0.01267  Uiso   1.00
N1     N     0.22220   0.54940   0.08540   0.01267  Uiso   1.00
N2     N     0.26510   0.69140   0.60420   0.01267  Uiso   1.00
O1     O     0.09130   0.59800   0.41620   0.01267  Uiso   1.00
O2     O     0.32370   0.34840   0.18430   0.01267  Uiso   1.00
O3     O     0.29260   0.82810   0.39310   0.01267  Uiso   1.00
O4     O     0.39540   0.60410   0.27690   0.01267  Uiso   1.00
O5     O     0.10540   0.85340   0.45240   0.01267  Uiso   1.00
O6     O     0.42360   0.63300   0.43710   0.01267  Uiso   1.00
O7     O     0.06940   0.59380   0.25600   0.01267  Uiso   1.00
O8     O     0.17530   0.37840   0.28350   0.01267  Uiso   1.00
Zn3    Zn    0.77798   0.48091   0.77175   0.01267  Uiso   1.00
Zn4    Zn    0.73892   0.30381   0.53952   0.01267  Uiso   1.00
H21    H     0.90560   0.30550   0.06680   0.01267  Uiso   1.00
H22    H     0.67990   0.81920   0.90130   0.01267  Uiso   1.00
H23    H     0.86250   0.93080   0.53670   0.01267  Uiso   1.00
H24    H     0.35920   0.19590   0.92560   0.01267  Uiso   1.00
H25    H     0.62010   0.48620   0.10330   0.01267  Uiso   1.00
H26    H     0.02050   0.26540   0.80820   0.01267  Uiso   1.00
H27    H     0.64200   0.53700   0.94930   0.01267  Uiso   1.00
H28    H     0.13200   0.19110   0.92560   0.01267  Uiso   1.00
H29    H     0.35730   0.42200   0.52050   0.01267  Uiso   1.00
H30    H     0.72890   0.16370   0.77510   0.01267  Uiso   1.00
H31    H     0.93870   0.33390   0.22970   0.01267  Uiso   1.00
H32    H     0.63620   0.97150   0.98850   0.01267  Uiso   1.00
H33    H     0.91840   0.36060   0.91470   0.01267  Uiso   1.00
H34    H     0.55440   0.36160   0.21390   0.01267  Uiso   1.00
H35    H     0.47280   0.26870   0.80230   0.01267  Uiso   1.00
H36    H     0.83870   0.75800   0.59760   0.01267  Uiso   1.00
H37    H     0.13350   0.43060   0.52780   0.01267  Uiso   1.00
H38    H     0.54780   0.32360   0.37140   0.01267  Uiso   1.00
H39    H     0.92340   0.29880   0.38780   0.01267  Uiso   1.00
H40    H     0.66190   0.14360   0.92760   0.01267  Uiso   1.00
C35    C     0.17920   0.40470   0.57880   0.01267  Uiso   1.00
C36    C     0.79320   0.01160   0.64720   0.01267  Uiso   1.00
C37    C     0.53290   0.37500   0.64490   0.01267  Uiso   1.00
C38    C     0.85880   0.33450   0.25770   0.01267  Uiso   1.00
C39    C     0.74780   0.00010   0.74070   0.01267  Uiso   1.00
C40    C     0.63130   0.35060   0.24830   0.01267  Uiso   1.00
C41    C     0.82870   0.92230   0.59670   0.01267  Uiso   1.00
C42    C     0.62780   0.32700   0.34270   0.01267  Uiso   1.00
C43    C     0.38490   0.36430   0.64950   0.01267  Uiso   1.00
C44    C     0.11330   0.37130   0.65720   0.01267  Uiso   1.00
C45    C     0.81500   0.81790   0.63400   0.01267  Uiso   1.00
C46    C     0.31780   0.31950   0.72930   0.01267  Uiso   1.00
C47    C     0.75880   0.38870   0.10370   0.01267  Uiso   1.00
C48    C     0.31450   0.22540   0.87620   0.01267  Uiso   1.00
C49    C     0.75530   0.68710   0.75550   0.01267  Uiso   1.00
C50    C     0.84960   0.35210   0.04450   0.01267  Uiso   1.00
C51    C     0.76720   0.80130   0.72310   0.01267  Uiso   1.00
C52    C     0.11180   0.26890   0.80700   0.01267  Uiso   1.00
C53    C     0.73460   0.89460   0.77950   0.01267  Uiso   1.00
C54    C     0.38240   0.27040   0.80330   0.01267  Uiso   1.00
C55    C     0.71970   0.09400   0.79910   0.01267  Uiso   1.00
C56    C     0.84840   0.31210   0.35240   0.01267  Uiso   1.00
C57    C     0.80440   0.11790   0.59700   0.01267  Uiso   1.00
C58    C     0.17880   0.32150   0.73200   0.01267  Uiso   1.00
C59    C     0.67950   0.08200   0.89010   0.01267  Uiso   1.00
C60    C     0.69450   0.48820   0.97250   0.01267  Uiso   1.00
C61    C     0.66470   0.97840   0.92680   0.01267  Uiso   1.00
C62    C     0.69070   0.88750   0.87480   0.01267  Uiso   1.00
C63    C     0.85590   0.38520   0.95270   0.01267  Uiso   1.00
C64    C     0.31470   0.40020   0.57470   0.01267  Uiso   1.00
C65    C     0.17820   0.22380   0.87670   0.01267  Uiso   1.00
C66    C     0.97320   0.39380   0.66210   0.01267  Uiso   1.00
C67    C     0.68150   0.45850   0.06600   0.01267  Uiso   1.00
C68    C     0.74940   0.35810   0.20380   0.01267  Uiso   1.00
N3     N     0.77780   0.45060   0.91460   0.01267  Uiso   1.00
N4     N     0.73490   0.30860   0.39580   0.01267  Uiso   1.00
O9     O     0.93060   0.40620   0.74400   0.01267  Uiso   1.00
O10    O     0.70740   0.17190   0.60690   0.01267  Uiso   1.00
O11    O     0.60460   0.39590   0.72310   0.01267  Uiso   1.00
O12    O     0.67630   0.65160   0.81570   0.01267  Uiso   1.00
O13    O     0.90870   0.40200   0.58380   0.01267  Uiso   1.00
O14    O     0.82470   0.62160   0.71650   0.01267  Uiso   1.00
O15    O     0.57640   0.36700   0.56290   0.01267  Uiso   1.00
O16    O     0.89460   0.14660   0.54760   0.01267  Uiso   1.00
