data_VIYZIO01_freeONLY
_audit_creation_date              2015-10-16
_audit_creation_method            'Materials Studio'
_symmetry_space_group_name_H-M    'P1'
_symmetry_Int_Tables_number       1
_symmetry_cell_setting            triclinic
loop_
_symmetry_equiv_pos_as_xyz
  x,y,z
_cell_length_a                    10.2390
_cell_length_b                    12.1910
_cell_length_c                    13.9100
_cell_angle_alpha                 94.6000
_cell_angle_beta                  93.7500
_cell_angle_gamma                 99.8700
loop_
_atom_site_label
_atom_site_type_symbol
_atom_site_fract_x
_atom_site_fract_y
_atom_site_fract_z
_atom_site_U_iso_or_equiv
_atom_site_adp_type
_atom_site_occupancy
Zn1    Zn    0.27797   0.98093   0.77177   0.01267  Uiso   1.00
Zn2    Zn    0.23890   0.80378   0.53952   0.01267  Uiso   1.00
H1     H     0.22960   0.66340   0.77450   0.01267  Uiso   1.00
H2     H     0.33900   0.25770   0.59790   0.01267  Uiso   1.00
H3     H     0.13660   0.47110   0.98860   0.01267  Uiso   1.00
H4     H     0.04780   0.82230   0.37120   0.01267  Uiso   1.00
H5     H     0.14240   0.03780   0.94990   0.01267  Uiso   1.00
H6     H     0.63360   0.93160   0.52870   0.01267  Uiso   1.00
H7     H     0.52070   0.76570   0.80830   0.01267  Uiso   1.00
H8     H     0.41670   0.85880   0.91370   0.01267  Uiso   1.00
H9     H     0.36170   0.42980   0.53600   0.01267  Uiso   1.00
H10    H     0.05510   0.86320   0.21430   0.01267  Uiso   1.00
H11    H     0.11880   0.98450   0.10280   0.01267  Uiso   1.00
H12    H     0.40640   0.80680   0.06740   0.01267  Uiso   1.00
H13    H     0.97300   0.76970   0.80260   0.01267  Uiso   1.00
H14    H     0.43870   0.83450   0.22960   0.01267  Uiso   1.00
H15    H     0.85970   0.69500   0.92480   0.01267  Uiso   1.00
H16    H     0.42330   0.79760   0.38710   0.01267  Uiso   1.00
H17    H     0.16220   0.64430   0.92790   0.01267  Uiso   1.00
H18    H     0.18070   0.31830   0.90080   0.01267  Uiso   1.00
H19    H     0.63210   0.69090   0.92550   0.01267  Uiso   1.00
H20    H     0.85700   0.92130   0.52050   0.01267  Uiso   1.00
C1     C     0.88490   0.86400   0.64930   0.01267  Uiso   1.00
C2     C     0.31490   0.31760   0.63400   0.01267  Uiso   1.00
C3     C     0.18120   0.95790   0.06580   0.01267  Uiso   1.00
C4     C     0.81490   0.72510   0.87590   0.01267  Uiso   1.00
C5     C     0.13170   0.85110   0.24840   0.01267  Uiso   1.00
C6     C     0.67880   0.82100   0.73160   0.01267  Uiso   1.00
C7     C     0.61320   0.87110   0.65700   0.01267  Uiso   1.00
C8     C     0.23430   0.39420   0.77920   0.01267  Uiso   1.00
C9     C     0.34970   0.85270   0.04470   0.01267  Uiso   1.00
C10    C     0.32850   0.42160   0.59610   0.01267  Uiso   1.00
C11    C     0.30350   0.61810   0.59740   0.01267  Uiso   1.00
C12    C     0.29310   0.51110   0.64700   0.01267  Uiso   1.00
C13    C     0.24800   0.50020   0.74070   0.01267  Uiso   1.00
C14    C     0.61200   0.76880   0.80690   0.01267  Uiso   1.00
C15    C     0.25560   0.18690   0.75540   0.01267  Uiso   1.00
C16    C     0.35860   0.83460   0.25760   0.01267  Uiso   1.00
C17    C     0.16500   0.47820   0.92690   0.01267  Uiso   1.00
C18    C     0.88250   0.77090   0.80350   0.01267  Uiso   1.00
C19    C     0.17970   0.58260   0.89040   0.01267  Uiso   1.00
C20    C     0.26720   0.30100   0.72260   0.01267  Uiso   1.00
C21    C     0.12800   0.82660   0.34280   0.01267  Uiso   1.00
C22    C     0.47330   0.89400   0.66210   0.01267  Uiso   1.00
C23    C     0.03290   0.87510   0.64510   0.01267  Uiso   1.00
C24    C     0.34840   0.81170   0.35200   0.01267  Uiso   1.00
C25    C     0.22020   0.59380   0.79880   0.01267  Uiso   1.00
C26    C     0.25920   0.88910   0.10390   0.01267  Uiso   1.00
C27    C     0.81800   0.82000   0.72960   0.01267  Uiso   1.00
C28    C     0.19440   0.98850   0.97280   0.01267  Uiso   1.00
C29    C     0.35540   0.88460   0.95220   0.01267  Uiso   1.00
C30    C     0.19110   0.38670   0.87440   0.01267  Uiso   1.00
C31    C     0.81460   0.89990   0.57490   0.01267  Uiso   1.00
C32    C     0.67810   0.72350   0.87660   0.01267  Uiso   1.00
C33    C     0.67900   0.90490   0.57930   0.01267  Uiso   1.00
C34    C     0.24960   0.85790   0.20390   0.01267  Uiso   1.00
N1     N     0.27780   0.95070   0.91460   0.01267  Uiso   1.00
N2     N     0.23490   0.80870   0.39600   0.01267  Uiso   1.00
O1     O     0.17660   0.15180   0.81590   0.01267  Uiso   1.00
O2     O     0.07660   0.86660   0.56280   0.01267  Uiso   1.00
O3     O     0.39450   0.64630   0.54760   0.01267  Uiso   1.00
O4     O     0.10460   0.89580   0.72310   0.01267  Uiso   1.00
O5     O     0.20730   0.67230   0.60710   0.01267  Uiso   1.00
O6     O     0.43050   0.90660   0.74410   0.01267  Uiso   1.00
O7     O     0.32460   0.12140   0.71610   0.01267  Uiso   1.00
O8     O     0.40870   0.90200   0.58390   0.01267  Uiso   1.00
Zn3    Zn    0.72203   0.01907   0.22823   0.01267  Uiso   1.00
Zn4    Zn    0.76110   0.19622   0.46048   0.01267  Uiso   1.00
H21    H     0.88120   0.01550   0.89720   0.01267  Uiso   1.00
H22    H     0.95220   0.17770   0.62880   0.01267  Uiso   1.00
H23    H     0.77040   0.33660   0.22550   0.01267  Uiso   1.00
H24    H     0.66100   0.74230   0.40210   0.01267  Uiso   1.00
H25    H     0.14030   0.30500   0.07520   0.01267  Uiso   1.00
H26    H     0.57670   0.20240   0.61290   0.01267  Uiso   1.00
H27    H     0.94490   0.13680   0.78570   0.01267  Uiso   1.00
H28    H     0.14300   0.07870   0.47950   0.01267  Uiso   1.00
H29    H     0.36640   0.06840   0.47130   0.01267  Uiso   1.00
H30    H     0.63830   0.57020   0.46400   0.01267  Uiso   1.00
H31    H     0.56130   0.16550   0.77040   0.01267  Uiso   1.00
H32    H     0.47930   0.23430   0.19170   0.01267  Uiso   1.00
H33    H     0.58330   0.14120   0.08630   0.01267  Uiso   1.00
H34    H     0.86340   0.52890   0.01140   0.01267  Uiso   1.00
H35    H     0.83780   0.35570   0.07210   0.01267  Uiso   1.00
H36    H     0.81930   0.68170   0.09920   0.01267  Uiso   1.00
H37    H     0.59360   0.19320   0.93260   0.01267  Uiso   1.00
H38    H     0.02700   0.23030   0.19740   0.01267  Uiso   1.00
H39    H     0.36790   0.30910   0.07450   0.01267  Uiso   1.00
H40    H     0.85760   0.96220   0.05010   0.01267  Uiso   1.00
C35    C     0.38800   0.23120   0.19310   0.01267  Uiso   1.00
C36    C     0.18540   0.10010   0.42510   0.01267  Uiso   1.00
C37    C     0.11510   0.13600   0.35070   0.01267  Uiso   1.00
C38    C     0.32190   0.27650   0.12340   0.01267  Uiso   1.00
C39    C     0.38680   0.12890   0.34300   0.01267  Uiso   1.00
C40    C     0.96710   0.12490   0.35490   0.01267  Uiso   1.00
C41    C     0.76570   0.60580   0.22080   0.01267  Uiso   1.00
C42    C     0.81880   0.04210   0.93420   0.01267  Uiso   1.00
C43    C     0.69650   0.38190   0.40260   0.01267  Uiso   1.00
C44    C     0.67150   0.57840   0.40390   0.01267  Uiso   1.00
C45    C     0.11750   0.22910   0.19650   0.01267  Uiso   1.00
C46    C     0.75200   0.49980   0.25930   0.01267  Uiso   1.00
C47    C     0.70690   0.48890   0.35300   0.01267  Uiso   1.00
C48    C     0.87200   0.17340   0.65720   0.01267  Uiso   1.00
C49    C     0.64460   0.11540   0.04780   0.01267  Uiso   1.00
C50    C     0.83500   0.52180   0.07310   0.01267  Uiso   1.00
C51    C     0.65160   0.18830   0.64800   0.01267  Uiso   1.00
C52    C     0.65030   0.14730   0.95530   0.01267  Uiso   1.00
C53    C     0.86830   0.14890   0.75160   0.01267  Uiso   1.00
C54    C     0.75040   0.14210   0.79610   0.01267  Uiso   1.00
C55    C     0.77980   0.40620   0.20120   0.01267  Uiso   1.00
C56    C     0.74080   0.11090   0.89610   0.01267  Uiso   1.00
C57    C     0.52670   0.10600   0.33790   0.01267  Uiso   1.00
C58    C     0.74440   0.81310   0.24460   0.01267  Uiso   1.00
C59    C     0.18200   0.18000   0.27040   0.01267  Uiso   1.00
C60    C     0.80890   0.61330   0.12560   0.01267  Uiso   1.00
C61    C     0.32120   0.17900   0.26840   0.01267  Uiso   1.00
C62    C     0.68510   0.68240   0.36600   0.01267  Uiso   1.00
C63    C     0.32100   0.09510   0.42070   0.01267  Uiso   1.00
C64    C     0.18510   0.27490   0.12410   0.01267  Uiso   1.00
C65    C     0.82030   0.41740   0.10960   0.01267  Uiso   1.00
C66    C     0.73280   0.69900   0.27740   0.01267  Uiso   1.00
C67    C     0.64140   0.16540   0.74240   0.01267  Uiso   1.00
C68    C     0.80560   0.01150   0.02720   0.01267  Uiso   1.00
N3     N     0.72220   0.04930   0.08540   0.01267  Uiso   1.00
N4     N     0.76510   0.19130   0.60400   0.01267  Uiso   1.00
O9     O     0.60550   0.35370   0.45240   0.01267  Uiso   1.00
O10    O     0.67540   0.87860   0.28390   0.01267  Uiso   1.00
O11    O     0.89540   0.10420   0.27690   0.01267  Uiso   1.00
O12    O     0.92340   0.13340   0.43720   0.01267  Uiso   1.00
O13    O     0.59130   0.09800   0.41610   0.01267  Uiso   1.00
O14    O     0.56950   0.09340   0.25590   0.01267  Uiso   1.00
O15    O     0.82340   0.84820   0.18410   0.01267  Uiso   1.00
O16    O     0.79270   0.32770   0.39290   0.01267  Uiso   1.00
