data_image0
_cell_length_a       10.5344
_cell_length_b       11.9073
_cell_length_c       14.0461
_cell_angle_alpha    106.645
_cell_angle_beta     101.977
_cell_angle_gamma    112.078

_symmetry_space_group_name_H-M    P 1
_symmetry_int_tables_number       1

loop_
  _symmetry_equiv_pos_as_xyz
  'x, y, z'

loop_
  _atom_site_label
  _atom_site_occupancy
  _atom_site_fract_x
  _atom_site_fract_y
  _atom_site_fract_z
  _atom_site_thermal_displace_type
  _atom_site_B_iso_or_equiv
  _atom_site_type_symbol
  Co1      1.0000 0.80851  0.00864  0.78720  Biso   1.000  Co
  Co2      1.0000 0.44871  0.72920  0.68837  Biso   1.000  Co
  Co3      1.0000 0.19149  0.99136  0.21280  Biso   1.000  Co
  Co4      1.0000 0.55129  0.27080  0.31163  Biso   1.000  Co
  H1       1.0000 0.56400  0.97500  0.79000  Biso   1.000  H
  H2       1.0000 0.52400  0.95500  0.68900  Biso   1.000  H
  H3       1.0000 0.84580  0.85060  0.46990  Biso   1.000  H
  H4       1.0000 0.86120  0.72310  0.31510  Biso   1.000  H
  H5       1.0000 0.74490  0.49600  0.25360  Biso   1.000  H
  H6       1.0000 0.61420  0.51230  0.49640  Biso   1.000  H
  H7       1.0000 0.86180  0.43040  0.63880  Biso   1.000  H
  H8       1.0000 0.00630  0.48160  0.81170  Biso   1.000  H
  H9       1.0000 0.98270  0.31250  0.86680  Biso   1.000  H
  H10      1.0000 0.69440  0.04430  0.58560  Biso   1.000  H
  H11      1.0000 0.56040  0.81940  0.03890  Biso   1.000  H
  H12      1.0000 0.67680  0.89410  0.22390  Biso   1.000  H
  H13      1.0000 0.92320  0.95620  0.29250  Biso   1.000  H
  H14      1.0000 0.95270  0.89280  0.01020  Biso   1.000  H
  H15      1.0000 0.00670  0.22620  0.13840  Biso   1.000  H
  H16      1.0000 0.05940  0.30740  0.32320  Biso   1.000  H
  H17      1.0000 0.88210  0.32540  0.38930  Biso   1.000  H
  H18      1.0000 0.59290  0.16580  0.10040  Biso   1.000  H
  H19      1.0000 0.43600  0.02500  0.21000  Biso   1.000  H
  H20      1.0000 0.47600  0.04500  0.31100  Biso   1.000  H
  H21      1.0000 0.15420  0.14940  0.53010  Biso   1.000  H
  H22      1.0000 0.13880  0.27690  0.68490  Biso   1.000  H
  H23      1.0000 0.25510  0.50400  0.74640  Biso   1.000  H
  H24      1.0000 0.38580  0.48770  0.50360  Biso   1.000  H
  H25      1.0000 0.13820  0.56960  0.36120  Biso   1.000  H
  H26      1.0000 0.99370  0.51840  0.18830  Biso   1.000  H
  H27      1.0000 0.01730  0.68750  0.13320  Biso   1.000  H
  H28      1.0000 0.30560  0.95570  0.41440  Biso   1.000  H
  H29      1.0000 0.43960  0.18060  0.96110  Biso   1.000  H
  H30      1.0000 0.32320  0.10590  0.77610  Biso   1.000  H
  H31      1.0000 0.07680  0.04380  0.70750  Biso   1.000  H
  H32      1.0000 0.04730  0.10720  0.98980  Biso   1.000  H
  H33      1.0000 0.99330  0.77380  0.86160  Biso   1.000  H
  H34      1.0000 0.94060  0.69260  0.67680  Biso   1.000  H
  H35      1.0000 0.11790  0.67460  0.61070  Biso   1.000  H
  H36      1.0000 0.40710  0.83420  0.89960  Biso   1.000  H
  C1       1.0000 0.70040  0.76670  0.59390  Biso   1.000  C
  C2       1.0000 0.72420  0.69240  0.49810  Biso   1.000  C
  C3       1.0000 0.80040  0.75680  0.44440  Biso   1.000  C
  C4       1.0000 0.80890  0.68160  0.35320  Biso   1.000  C
  C5       1.0000 0.74110  0.54640  0.31800  Biso   1.000  C
  C6       1.0000 0.66380  0.55640  0.45840  Biso   1.000  C
  C7       1.0000 0.66690  0.19060  0.48130  Biso   1.000  C
  C8       1.0000 0.76290  0.23000  0.59390  Biso   1.000  C
  C9       1.0000 0.85610  0.36190  0.66220  Biso   1.000  C
  C10      1.0000 0.94020  0.39240  0.76440  Biso   1.000  C
  C11      1.0000 0.92600  0.29100  0.79600  Biso   1.000  C
  C12      1.0000 0.75720  0.13450  0.63210  Biso   1.000  C
  C13      1.0000 0.69080  0.81700  0.88820  Biso   1.000  C
  C14      1.0000 0.74740  0.85030  0.00560  Biso   1.000  C
  C15      1.0000 0.66250  0.84870  0.06890  Biso   1.000  C
  C16      1.0000 0.73120  0.89120  0.17790  Biso   1.000  C
  C17      1.0000 0.87820  0.92880  0.21820  Biso   1.000  C
  C18      1.0000 0.89460  0.89110  0.05370  Biso   1.000  C
  C19      1.0000 0.74310  0.13070  0.98040  Biso   1.000  C
  C20      1.0000 0.79240  0.18920  0.10010  Biso   1.000  C
  C21      1.0000 0.93350  0.23100  0.16670  Biso   1.000  C
  C22      1.0000 0.96460  0.28010  0.27570  Biso   1.000  C
  C23      1.0000 0.85800  0.28910  0.31450  Biso   1.000  C
  C24      1.0000 0.69030  0.19780  0.14600  Biso   1.000  C
  C25      1.0000 0.29960  0.23330  0.40610  Biso   1.000  C
  C26      1.0000 0.27580  0.30760  0.50190  Biso   1.000  C
  C27      1.0000 0.19960  0.24320  0.55560  Biso   1.000  C
  C28      1.0000 0.19110  0.31840  0.64680  Biso   1.000  C
  C29      1.0000 0.25890  0.45360  0.68200  Biso   1.000  C
  C30      1.0000 0.33620  0.44360  0.54160  Biso   1.000  C
  C31      1.0000 0.33310  0.80940  0.51870  Biso   1.000  C
  C32      1.0000 0.23710  0.77000  0.40610  Biso   1.000  C
  C33      1.0000 0.14390  0.63810  0.33780  Biso   1.000  C
  C34      1.0000 0.05980  0.60760  0.23560  Biso   1.000  C
  C35      1.0000 0.07400  0.70900  0.20400  Biso   1.000  C
  C36      1.0000 0.24280  0.86550  0.36790  Biso   1.000  C
  C37      1.0000 0.30920  0.18300  0.11180  Biso   1.000  C
  C38      1.0000 0.25260  0.14970  0.99440  Biso   1.000  C
  C39      1.0000 0.33750  0.15130  0.93110  Biso   1.000  C
  C40      1.0000 0.26880  0.10880  0.82210  Biso   1.000  C
  C41      1.0000 0.12180  0.07120  0.78180  Biso   1.000  C
  C42      1.0000 0.10540  0.10890  0.94630  Biso   1.000  C
  C43      1.0000 0.25690  0.86930  0.01960  Biso   1.000  C
  C44      1.0000 0.20760  0.81080  0.89990  Biso   1.000  C
  C45      1.0000 0.06650  0.76900  0.83330  Biso   1.000  C
  C46      1.0000 0.03540  0.71990  0.72430  Biso   1.000  C
  C47      1.0000 0.14200  0.71090  0.68550  Biso   1.000  C
  C48      1.0000 0.30970  0.80220  0.85400  Biso   1.000  C
  N1       1.0000 0.67070  0.48230  0.36900  Biso   1.000  N
  N2       1.0000 0.83600  0.16240  0.73210  Biso   1.000  N
  N3       1.0000 0.96050  0.92860  0.15810  Biso   1.000  N
  N4       1.0000 0.72140  0.24890  0.25160  Biso   1.000  N
  N5       1.0000 0.32930  0.51770  0.63100  Biso   1.000  N
  N6       1.0000 0.16400  0.83760  0.26790  Biso   1.000  N
  N7       1.0000 0.03950  0.07140  0.84190  Biso   1.000  N
  N8       1.0000 0.27860  0.75110  0.74840  Biso   1.000  N
  O1       1.0000 0.59880  0.69950  0.61820  Biso   1.000  O
  O2       1.0000 0.78480  0.88880  0.63980  Biso   1.000  O
  O3       1.0000 0.59730  0.07050  0.42370  Biso   1.000  O
  O4       1.0000 0.66650  0.28430  0.45650  Biso   1.000  O
  O5       1.0000 0.78410  0.86420  0.84920  Biso   1.000  O
  O6       1.0000 0.55340  0.74590  0.83770  Biso   1.000  O
  O7       1.0000 0.83900  0.13360  0.94020  Biso   1.000  O
  O8       1.0000 0.60820  0.08050  0.93080  Biso   1.000  O
  O9       1.0000 0.57480  0.93980  0.74160  Biso   1.000  O
  O10      1.0000 0.40120  0.30050  0.38180  Biso   1.000  O
  O11      1.0000 0.21520  0.11120  0.36020  Biso   1.000  O
  O12      1.0000 0.40270  0.92950  0.57630  Biso   1.000  O
  O13      1.0000 0.33350  0.71570  0.54350  Biso   1.000  O
  O14      1.0000 0.21590  0.13580  0.15080  Biso   1.000  O
  O15      1.0000 0.44660  0.25410  0.16230  Biso   1.000  O
  O16      1.0000 0.16100  0.86640  0.05980  Biso   1.000  O
  O17      1.0000 0.39180  0.91950  0.06920  Biso   1.000  O
  O18      1.0000 0.42520  0.06020  0.25840  Biso   1.000  O
