data_image0
_cell_length_a       14.0156
_cell_length_b       20.089
_cell_length_c       20.089
_cell_angle_alpha    90
_cell_angle_beta     90
_cell_angle_gamma    90

_symmetry_space_group_name_H-M    P 1
_symmetry_int_tables_number       1

loop_
  _symmetry_equiv_pos_as_xyz
  'x, y, z'

loop_
  _atom_site_label
  _atom_site_occupancy
  _atom_site_fract_x
  _atom_site_fract_y
  _atom_site_fract_z
  _atom_site_thermal_displace_type
  _atom_site_B_iso_or_equiv
  _atom_site_type_symbol
  Ni1      1.0000 0.84138  0.38171  0.96651  Biso   1.000  Ni
  Ni2      1.0000 0.84138  0.11829  0.53349  Biso   1.000  Ni
  Ni3      1.0000 0.84138  0.53349  0.38171  Biso   1.000  Ni
  Ni4      1.0000 0.84138  0.96651  0.11829  Biso   1.000  Ni
  Ni5      1.0000 0.65862  0.61829  0.46651  Biso   1.000  Ni
  Ni6      1.0000 0.65862  0.88171  0.03349  Biso   1.000  Ni
  Ni7      1.0000 0.65862  0.46651  0.88171  Biso   1.000  Ni
  Ni8      1.0000 0.65862  0.03349  0.61829  Biso   1.000  Ni
  Ni9      1.0000 0.15862  0.61829  0.03349  Biso   1.000  Ni
  Ni10     1.0000 0.15862  0.88171  0.46651  Biso   1.000  Ni
  Ni11     1.0000 0.15862  0.46651  0.61829  Biso   1.000  Ni
  Ni12     1.0000 0.15862  0.03349  0.88171  Biso   1.000  Ni
  Ni13     1.0000 0.34138  0.38171  0.53349  Biso   1.000  Ni
  Ni14     1.0000 0.34138  0.11829  0.96651  Biso   1.000  Ni
  Ni15     1.0000 0.34138  0.53349  0.11829  Biso   1.000  Ni
  Ni16     1.0000 0.34138  0.96651  0.38171  Biso   1.000  Ni
  H1       1.0000 0.12300  0.45190  0.90670  Biso   1.000  H
  H2       1.0000 0.26240  0.49170  0.85950  Biso   1.000  H
  H3       1.0000 0.27650  0.49860  0.74460  Biso   1.000  H
  H4       1.0000 0.01920  0.42600  0.72250  Biso   1.000  H
  H5       1.0000 0.88470  0.61160  0.81710  Biso   1.000  H
  H6       1.0000 0.02180  0.67780  0.80740  Biso   1.000  H
  H7       1.0000 0.13590  0.67710  0.89020  Biso   1.000  H
  H8       1.0000 0.98120  0.55340  0.99610  Biso   1.000  H
  H9       1.0000 0.12300  0.04810  0.59330  Biso   1.000  H
  H10      1.0000 0.26240  0.00830  0.64050  Biso   1.000  H
  H11      1.0000 0.27650  0.00140  0.75540  Biso   1.000  H
  H12      1.0000 0.01920  0.07400  0.77750  Biso   1.000  H
  H13      1.0000 0.88470  0.88840  0.68290  Biso   1.000  H
  H14      1.0000 0.02180  0.82220  0.69260  Biso   1.000  H
  H15      1.0000 0.13590  0.82290  0.60980  Biso   1.000  H
  H16      1.0000 0.98120  0.94660  0.50390  Biso   1.000  H
  H17      1.0000 0.12300  0.59330  0.45190  Biso   1.000  H
  H18      1.0000 0.26240  0.64050  0.49170  Biso   1.000  H
  H19      1.0000 0.27650  0.75540  0.49860  Biso   1.000  H
  H20      1.0000 0.01920  0.77750  0.42600  Biso   1.000  H
  H21      1.0000 0.88470  0.68290  0.61160  Biso   1.000  H
  H22      1.0000 0.02180  0.69260  0.67780  Biso   1.000  H
  H23      1.0000 0.13590  0.60980  0.67710  Biso   1.000  H
  H24      1.0000 0.98120  0.50390  0.55340  Biso   1.000  H
  H25      1.0000 0.12300  0.90670  0.04810  Biso   1.000  H
  H26      1.0000 0.26240  0.85950  0.00830  Biso   1.000  H
  H27      1.0000 0.27650  0.74460  0.00140  Biso   1.000  H
  H28      1.0000 0.01920  0.72250  0.07400  Biso   1.000  H
  H29      1.0000 0.88470  0.81710  0.88840  Biso   1.000  H
  H30      1.0000 0.02180  0.80740  0.82220  Biso   1.000  H
  H31      1.0000 0.13590  0.89020  0.82290  Biso   1.000  H
  H32      1.0000 0.98120  0.99610  0.94660  Biso   1.000  H
  H33      1.0000 0.37700  0.54810  0.40670  Biso   1.000  H
  H34      1.0000 0.23760  0.50830  0.35950  Biso   1.000  H
  H35      1.0000 0.22350  0.50140  0.24460  Biso   1.000  H
  H36      1.0000 0.48080  0.57400  0.22250  Biso   1.000  H
  H37      1.0000 0.61530  0.38840  0.31710  Biso   1.000  H
  H38      1.0000 0.47820  0.32220  0.30740  Biso   1.000  H
  H39      1.0000 0.36410  0.32290  0.39020  Biso   1.000  H
  H40      1.0000 0.51880  0.44660  0.49610  Biso   1.000  H
  H41      1.0000 0.37700  0.95190  0.09330  Biso   1.000  H
  H42      1.0000 0.23760  0.99170  0.14050  Biso   1.000  H
  H43      1.0000 0.22350  0.99860  0.25540  Biso   1.000  H
  H44      1.0000 0.48080  0.92600  0.27750  Biso   1.000  H
  H45      1.0000 0.61530  0.11160  0.18290  Biso   1.000  H
  H46      1.0000 0.47820  0.17780  0.19260  Biso   1.000  H
  H47      1.0000 0.36410  0.17710  0.10980  Biso   1.000  H
  H48      1.0000 0.51880  0.05340  0.00390  Biso   1.000  H
  H49      1.0000 0.37700  0.40670  0.95190  Biso   1.000  H
  H50      1.0000 0.23760  0.35950  0.99170  Biso   1.000  H
  H51      1.0000 0.22350  0.24460  0.99860  Biso   1.000  H
  H52      1.0000 0.48080  0.22250  0.92600  Biso   1.000  H
  H53      1.0000 0.61530  0.31710  0.11160  Biso   1.000  H
  H54      1.0000 0.47820  0.30740  0.17780  Biso   1.000  H
  H55      1.0000 0.36410  0.39020  0.17710  Biso   1.000  H
  H56      1.0000 0.51880  0.49610  0.05340  Biso   1.000  H
  H57      1.0000 0.37700  0.09330  0.54810  Biso   1.000  H
  H58      1.0000 0.23760  0.14050  0.50830  Biso   1.000  H
  H59      1.0000 0.22350  0.25540  0.50140  Biso   1.000  H
  H60      1.0000 0.48080  0.27750  0.57400  Biso   1.000  H
  H61      1.0000 0.61530  0.18290  0.38840  Biso   1.000  H
  H62      1.0000 0.47820  0.19260  0.32220  Biso   1.000  H
  H63      1.0000 0.36410  0.10980  0.32290  Biso   1.000  H
  H64      1.0000 0.51880  0.00390  0.44660  Biso   1.000  H
  H65      1.0000 0.87700  0.54810  0.09330  Biso   1.000  H
  H66      1.0000 0.73760  0.50830  0.14050  Biso   1.000  H
  H67      1.0000 0.72350  0.50140  0.25540  Biso   1.000  H
  H68      1.0000 0.98080  0.57400  0.27750  Biso   1.000  H
  H69      1.0000 0.11530  0.38840  0.18290  Biso   1.000  H
  H70      1.0000 0.97820  0.32220  0.19260  Biso   1.000  H
  H71      1.0000 0.86410  0.32290  0.10980  Biso   1.000  H
  H72      1.0000 0.01880  0.44660  0.00390  Biso   1.000  H
  H73      1.0000 0.87700  0.95190  0.40670  Biso   1.000  H
  H74      1.0000 0.73760  0.99170  0.35950  Biso   1.000  H
  H75      1.0000 0.72350  0.99860  0.24460  Biso   1.000  H
  H76      1.0000 0.98080  0.92600  0.22250  Biso   1.000  H
  H77      1.0000 0.11530  0.11160  0.31710  Biso   1.000  H
  H78      1.0000 0.97820  0.17780  0.30740  Biso   1.000  H
  H79      1.0000 0.86410  0.17710  0.39020  Biso   1.000  H
  H80      1.0000 0.01880  0.05340  0.49610  Biso   1.000  H
  H81      1.0000 0.87700  0.40670  0.54810  Biso   1.000  H
  H82      1.0000 0.73760  0.35950  0.50830  Biso   1.000  H
  H83      1.0000 0.72350  0.24460  0.50140  Biso   1.000  H
  H84      1.0000 0.98080  0.22250  0.57400  Biso   1.000  H
  H85      1.0000 0.11530  0.31710  0.38840  Biso   1.000  H
  H86      1.0000 0.97820  0.30740  0.32220  Biso   1.000  H
  H87      1.0000 0.86410  0.39020  0.32290  Biso   1.000  H
  H88      1.0000 0.01880  0.49610  0.44660  Biso   1.000  H
  H89      1.0000 0.87700  0.09330  0.95190  Biso   1.000  H
  H90      1.0000 0.73760  0.14050  0.99170  Biso   1.000  H
  H91      1.0000 0.72350  0.25540  0.99860  Biso   1.000  H
  H92      1.0000 0.98080  0.27750  0.92600  Biso   1.000  H
  H93      1.0000 0.11530  0.18290  0.11160  Biso   1.000  H
  H94      1.0000 0.97820  0.19260  0.17780  Biso   1.000  H
  H95      1.0000 0.86410  0.10980  0.17710  Biso   1.000  H
  H96      1.0000 0.01880  0.00390  0.05340  Biso   1.000  H
  H97      1.0000 0.62300  0.45190  0.59330  Biso   1.000  H
  H98      1.0000 0.76240  0.49170  0.64050  Biso   1.000  H
  H99      1.0000 0.77650  0.49860  0.75540  Biso   1.000  H
  H100     1.0000 0.51920  0.42600  0.77750  Biso   1.000  H
  H101     1.0000 0.38470  0.61160  0.68290  Biso   1.000  H
  H102     1.0000 0.52180  0.67780  0.69260  Biso   1.000  H
  H103     1.0000 0.63590  0.67710  0.60980  Biso   1.000  H
  H104     1.0000 0.48120  0.55340  0.50390  Biso   1.000  H
  H105     1.0000 0.62300  0.04810  0.90670  Biso   1.000  H
  H106     1.0000 0.76240  0.00830  0.85950  Biso   1.000  H
  H107     1.0000 0.77650  0.00140  0.74460  Biso   1.000  H
  H108     1.0000 0.51920  0.07400  0.72250  Biso   1.000  H
  H109     1.0000 0.38470  0.88840  0.81710  Biso   1.000  H
  H110     1.0000 0.52180  0.82220  0.80740  Biso   1.000  H
  H111     1.0000 0.63590  0.82290  0.89020  Biso   1.000  H
  H112     1.0000 0.48120  0.94660  0.99610  Biso   1.000  H
  H113     1.0000 0.62300  0.59330  0.04810  Biso   1.000  H
  H114     1.0000 0.76240  0.64050  0.00830  Biso   1.000  H
  H115     1.0000 0.77650  0.75540  0.00140  Biso   1.000  H
  H116     1.0000 0.51920  0.77750  0.07400  Biso   1.000  H
  H117     1.0000 0.38470  0.68290  0.88840  Biso   1.000  H
  H118     1.0000 0.52180  0.69260  0.82220  Biso   1.000  H
  H119     1.0000 0.63590  0.60980  0.82290  Biso   1.000  H
  H120     1.0000 0.48120  0.50390  0.94660  Biso   1.000  H
  H121     1.0000 0.62300  0.90670  0.45190  Biso   1.000  H
  H122     1.0000 0.76240  0.85950  0.49170  Biso   1.000  H
  H123     1.0000 0.77650  0.74460  0.49860  Biso   1.000  H
  H124     1.0000 0.51920  0.72250  0.42600  Biso   1.000  H
  H125     1.0000 0.38470  0.81710  0.61160  Biso   1.000  H
  H126     1.0000 0.52180  0.80740  0.67780  Biso   1.000  H
  H127     1.0000 0.63590  0.89020  0.67710  Biso   1.000  H
  H128     1.0000 0.48120  0.99610  0.55340  Biso   1.000  H
  C1       1.0000 0.96490  0.40380  0.84570  Biso   1.000  C
  C2       1.0000 0.05770  0.43210  0.81830  Biso   1.000  C
  C3       1.0000 0.13000  0.45370  0.85970  Biso   1.000  C
  C4       1.0000 0.21120  0.47760  0.83200  Biso   1.000  C
  C5       1.0000 0.21930  0.48150  0.76320  Biso   1.000  C
  C6       1.0000 0.07020  0.43870  0.75090  Biso   1.000  C
  C7       1.0000 0.84050  0.52519  0.91794  Biso   1.000  C
  C8       1.0000 0.92070  0.57441  0.90800  Biso   1.000  C
  C9       1.0000 0.93140  0.61220  0.85140  Biso   1.000  C
  C10      1.0000 0.01240  0.65120  0.84600  Biso   1.000  C
  C11      1.0000 0.07920  0.65180  0.89590  Biso   1.000  C
  C12      1.0000 0.98940  0.57915  0.95689  Biso   1.000  C
  C13      1.0000 0.96490  0.09620  0.65430  Biso   1.000  C
  C14      1.0000 0.05770  0.06790  0.68170  Biso   1.000  C
  C15      1.0000 0.13000  0.04630  0.64030  Biso   1.000  C
  C16      1.0000 0.21120  0.02240  0.66800  Biso   1.000  C
  C17      1.0000 0.21930  0.01850  0.73680  Biso   1.000  C
  C18      1.0000 0.07020  0.06130  0.74910  Biso   1.000  C
  C19      1.0000 0.84050  0.97481  0.58206  Biso   1.000  C
  C20      1.0000 0.92070  0.92559  0.59200  Biso   1.000  C
  C21      1.0000 0.93140  0.88780  0.64860  Biso   1.000  C
  C22      1.0000 0.01240  0.84880  0.65400  Biso   1.000  C
  C23      1.0000 0.07920  0.84820  0.60410  Biso   1.000  C
  C24      1.0000 0.98940  0.92085  0.54311  Biso   1.000  C
  C25      1.0000 0.96490  0.65430  0.40380  Biso   1.000  C
  C26      1.0000 0.05770  0.68170  0.43210  Biso   1.000  C
  C27      1.0000 0.13000  0.64030  0.45370  Biso   1.000  C
  C28      1.0000 0.21120  0.66800  0.47760  Biso   1.000  C
  C29      1.0000 0.21930  0.73680  0.48150  Biso   1.000  C
  C30      1.0000 0.07020  0.74910  0.43870  Biso   1.000  C
  C31      1.0000 0.84050  0.58206  0.52519  Biso   1.000  C
  C32      1.0000 0.92070  0.59200  0.57441  Biso   1.000  C
  C33      1.0000 0.93140  0.64860  0.61220  Biso   1.000  C
  C34      1.0000 0.01240  0.65400  0.65120  Biso   1.000  C
  C35      1.0000 0.07920  0.60410  0.65180  Biso   1.000  C
  C36      1.0000 0.98940  0.54311  0.57915  Biso   1.000  C
  C37      1.0000 0.96490  0.84570  0.09620  Biso   1.000  C
  C38      1.0000 0.05770  0.81830  0.06790  Biso   1.000  C
  C39      1.0000 0.13000  0.85970  0.04630  Biso   1.000  C
  C40      1.0000 0.21120  0.83200  0.02240  Biso   1.000  C
  C41      1.0000 0.21930  0.76320  0.01850  Biso   1.000  C
  C42      1.0000 0.07020  0.75090  0.06130  Biso   1.000  C
  C43      1.0000 0.84050  0.91794  0.97481  Biso   1.000  C
  C44      1.0000 0.92070  0.90800  0.92559  Biso   1.000  C
  C45      1.0000 0.93140  0.85140  0.88780  Biso   1.000  C
  C46      1.0000 0.01240  0.84600  0.84880  Biso   1.000  C
  C47      1.0000 0.07920  0.89590  0.84820  Biso   1.000  C
  C48      1.0000 0.98940  0.95689  0.92085  Biso   1.000  C
  C49      1.0000 0.53510  0.59620  0.34570  Biso   1.000  C
  C50      1.0000 0.44230  0.56790  0.31830  Biso   1.000  C
  C51      1.0000 0.37000  0.54630  0.35970  Biso   1.000  C
  C52      1.0000 0.28880  0.52240  0.33200  Biso   1.000  C
  C53      1.0000 0.28070  0.51850  0.26320  Biso   1.000  C
  C54      1.0000 0.42980  0.56130  0.25090  Biso   1.000  C
  C55      1.0000 0.65950  0.47481  0.41794  Biso   1.000  C
  C56      1.0000 0.57930  0.42559  0.40800  Biso   1.000  C
  C57      1.0000 0.56860  0.38780  0.35140  Biso   1.000  C
  C58      1.0000 0.48760  0.34880  0.34600  Biso   1.000  C
  C59      1.0000 0.42080  0.34820  0.39590  Biso   1.000  C
  C60      1.0000 0.51060  0.42085  0.45689  Biso   1.000  C
  C61      1.0000 0.53510  0.90380  0.15430  Biso   1.000  C
  C62      1.0000 0.44230  0.93210  0.18170  Biso   1.000  C
  C63      1.0000 0.37000  0.95370  0.14030  Biso   1.000  C
  C64      1.0000 0.28880  0.97760  0.16800  Biso   1.000  C
  C65      1.0000 0.28070  0.98150  0.23680  Biso   1.000  C
  C66      1.0000 0.42980  0.93870  0.24910  Biso   1.000  C
  C67      1.0000 0.65950  0.02519  0.08206  Biso   1.000  C
  C68      1.0000 0.57930  0.07441  0.09200  Biso   1.000  C
  C69      1.0000 0.56860  0.11220  0.14860  Biso   1.000  C
  C70      1.0000 0.48760  0.15120  0.15400  Biso   1.000  C
  C71      1.0000 0.42080  0.15180  0.10410  Biso   1.000  C
  C72      1.0000 0.51060  0.07915  0.04311  Biso   1.000  C
  C73      1.0000 0.53510  0.34570  0.90380  Biso   1.000  C
  C74      1.0000 0.44230  0.31830  0.93210  Biso   1.000  C
  C75      1.0000 0.37000  0.35970  0.95370  Biso   1.000  C
  C76      1.0000 0.28880  0.33200  0.97760  Biso   1.000  C
  C77      1.0000 0.28070  0.26320  0.98150  Biso   1.000  C
  C78      1.0000 0.42980  0.25090  0.93870  Biso   1.000  C
  C79      1.0000 0.65950  0.41794  0.02519  Biso   1.000  C
  C80      1.0000 0.57930  0.40800  0.07441  Biso   1.000  C
  C81      1.0000 0.56860  0.35140  0.11220  Biso   1.000  C
  C82      1.0000 0.48760  0.34600  0.15120  Biso   1.000  C
  C83      1.0000 0.42080  0.39590  0.15180  Biso   1.000  C
  C84      1.0000 0.51060  0.45689  0.07915  Biso   1.000  C
  C85      1.0000 0.53510  0.15430  0.59620  Biso   1.000  C
  C86      1.0000 0.44230  0.18170  0.56790  Biso   1.000  C
  C87      1.0000 0.37000  0.14030  0.54630  Biso   1.000  C
  C88      1.0000 0.28880  0.16800  0.52240  Biso   1.000  C
  C89      1.0000 0.28070  0.23680  0.51850  Biso   1.000  C
  C90      1.0000 0.42980  0.24910  0.56130  Biso   1.000  C
  C91      1.0000 0.65950  0.08206  0.47481  Biso   1.000  C
  C92      1.0000 0.57930  0.09200  0.42559  Biso   1.000  C
  C93      1.0000 0.56860  0.14860  0.38780  Biso   1.000  C
  C94      1.0000 0.48760  0.15400  0.34880  Biso   1.000  C
  C95      1.0000 0.42080  0.10410  0.34820  Biso   1.000  C
  C96      1.0000 0.51060  0.04311  0.42085  Biso   1.000  C
  C97      1.0000 0.03510  0.59620  0.15430  Biso   1.000  C
  C98      1.0000 0.94230  0.56790  0.18170  Biso   1.000  C
  C99      1.0000 0.87000  0.54630  0.14030  Biso   1.000  C
  C100     1.0000 0.78880  0.52240  0.16800  Biso   1.000  C
  C101     1.0000 0.78070  0.51850  0.23680  Biso   1.000  C
  C102     1.0000 0.92980  0.56130  0.24910  Biso   1.000  C
  C103     1.0000 0.15950  0.47481  0.08206  Biso   1.000  C
  C104     1.0000 0.07930  0.42559  0.09200  Biso   1.000  C
  C105     1.0000 0.06860  0.38780  0.14860  Biso   1.000  C
  C106     1.0000 0.98760  0.34880  0.15400  Biso   1.000  C
  C107     1.0000 0.92080  0.34820  0.10410  Biso   1.000  C
  C108     1.0000 0.01060  0.42085  0.04311  Biso   1.000  C
  C109     1.0000 0.03510  0.90380  0.34570  Biso   1.000  C
  C110     1.0000 0.94230  0.93210  0.31830  Biso   1.000  C
  C111     1.0000 0.87000  0.95370  0.35970  Biso   1.000  C
  C112     1.0000 0.78880  0.97760  0.33200  Biso   1.000  C
  C113     1.0000 0.78070  0.98150  0.26320  Biso   1.000  C
  C114     1.0000 0.92980  0.93870  0.25090  Biso   1.000  C
  C115     1.0000 0.15950  0.02519  0.41794  Biso   1.000  C
  C116     1.0000 0.07930  0.07441  0.40800  Biso   1.000  C
  C117     1.0000 0.06860  0.11220  0.35140  Biso   1.000  C
  C118     1.0000 0.98760  0.15120  0.34600  Biso   1.000  C
  C119     1.0000 0.92080  0.15180  0.39590  Biso   1.000  C
  C120     1.0000 0.01060  0.07915  0.45689  Biso   1.000  C
  C121     1.0000 0.03510  0.34570  0.59620  Biso   1.000  C
  C122     1.0000 0.94230  0.31830  0.56790  Biso   1.000  C
  C123     1.0000 0.87000  0.35970  0.54630  Biso   1.000  C
  C124     1.0000 0.78880  0.33200  0.52240  Biso   1.000  C
  C125     1.0000 0.78070  0.26320  0.51850  Biso   1.000  C
  C126     1.0000 0.92980  0.25090  0.56130  Biso   1.000  C
  C127     1.0000 0.15950  0.41794  0.47481  Biso   1.000  C
  C128     1.0000 0.07930  0.40800  0.42559  Biso   1.000  C
  C129     1.0000 0.06860  0.35140  0.38780  Biso   1.000  C
  C130     1.0000 0.98760  0.34600  0.34880  Biso   1.000  C
  C131     1.0000 0.92080  0.39590  0.34820  Biso   1.000  C
  C132     1.0000 0.01060  0.45689  0.42085  Biso   1.000  C
  C133     1.0000 0.03510  0.15430  0.90380  Biso   1.000  C
  C134     1.0000 0.94230  0.18170  0.93210  Biso   1.000  C
  C135     1.0000 0.87000  0.14030  0.95370  Biso   1.000  C
  C136     1.0000 0.78880  0.16800  0.97760  Biso   1.000  C
  C137     1.0000 0.78070  0.23680  0.98150  Biso   1.000  C
  C138     1.0000 0.92980  0.24910  0.93870  Biso   1.000  C
  C139     1.0000 0.15950  0.08206  0.02519  Biso   1.000  C
  C140     1.0000 0.07930  0.09200  0.07441  Biso   1.000  C
  C141     1.0000 0.06860  0.14860  0.11220  Biso   1.000  C
  C142     1.0000 0.98760  0.15400  0.15120  Biso   1.000  C
  C143     1.0000 0.92080  0.10410  0.15180  Biso   1.000  C
  C144     1.0000 0.01060  0.04311  0.07915  Biso   1.000  C
  C145     1.0000 0.46490  0.40380  0.65430  Biso   1.000  C
  C146     1.0000 0.55770  0.43210  0.68170  Biso   1.000  C
  C147     1.0000 0.63000  0.45370  0.64030  Biso   1.000  C
  C148     1.0000 0.71120  0.47760  0.66800  Biso   1.000  C
  C149     1.0000 0.71930  0.48150  0.73680  Biso   1.000  C
  C150     1.0000 0.57020  0.43870  0.74910  Biso   1.000  C
  C151     1.0000 0.34050  0.52519  0.58206  Biso   1.000  C
  C152     1.0000 0.42070  0.57441  0.59200  Biso   1.000  C
  C153     1.0000 0.43140  0.61220  0.64860  Biso   1.000  C
  C154     1.0000 0.51240  0.65120  0.65400  Biso   1.000  C
  C155     1.0000 0.57920  0.65180  0.60410  Biso   1.000  C
  C156     1.0000 0.48940  0.57915  0.54311  Biso   1.000  C
  C157     1.0000 0.46490  0.09620  0.84570  Biso   1.000  C
  C158     1.0000 0.55770  0.06790  0.81830  Biso   1.000  C
  C159     1.0000 0.63000  0.04630  0.85970  Biso   1.000  C
  C160     1.0000 0.71120  0.02240  0.83200  Biso   1.000  C
  C161     1.0000 0.71930  0.01850  0.76320  Biso   1.000  C
  C162     1.0000 0.57020  0.06130  0.75090  Biso   1.000  C
  C163     1.0000 0.34050  0.97481  0.91794  Biso   1.000  C
  C164     1.0000 0.42070  0.92559  0.90800  Biso   1.000  C
  C165     1.0000 0.43140  0.88780  0.85140  Biso   1.000  C
  C166     1.0000 0.51240  0.84880  0.84600  Biso   1.000  C
  C167     1.0000 0.57920  0.84820  0.89590  Biso   1.000  C
  C168     1.0000 0.48940  0.92085  0.95689  Biso   1.000  C
  C169     1.0000 0.46490  0.65430  0.09620  Biso   1.000  C
  C170     1.0000 0.55770  0.68170  0.06790  Biso   1.000  C
  C171     1.0000 0.63000  0.64030  0.04630  Biso   1.000  C
  C172     1.0000 0.71120  0.66800  0.02240  Biso   1.000  C
  C173     1.0000 0.71930  0.73680  0.01850  Biso   1.000  C
  C174     1.0000 0.57020  0.74910  0.06130  Biso   1.000  C
  C175     1.0000 0.34050  0.58206  0.97481  Biso   1.000  C
  C176     1.0000 0.42070  0.59200  0.92559  Biso   1.000  C
  C177     1.0000 0.43140  0.64860  0.88780  Biso   1.000  C
  C178     1.0000 0.51240  0.65400  0.84880  Biso   1.000  C
  C179     1.0000 0.57920  0.60410  0.84820  Biso   1.000  C
  C180     1.0000 0.48940  0.54311  0.92085  Biso   1.000  C
  C181     1.0000 0.46490  0.84570  0.40380  Biso   1.000  C
  C182     1.0000 0.55770  0.81830  0.43210  Biso   1.000  C
  C183     1.0000 0.63000  0.85970  0.45370  Biso   1.000  C
  C184     1.0000 0.71120  0.83200  0.47760  Biso   1.000  C
  C185     1.0000 0.71930  0.76320  0.48150  Biso   1.000  C
  C186     1.0000 0.57020  0.75090  0.43870  Biso   1.000  C
  C187     1.0000 0.34050  0.91794  0.52519  Biso   1.000  C
  C188     1.0000 0.42070  0.90800  0.57441  Biso   1.000  C
  C189     1.0000 0.43140  0.85140  0.61220  Biso   1.000  C
  C190     1.0000 0.51240  0.84600  0.65120  Biso   1.000  C
  C191     1.0000 0.57920  0.89590  0.65180  Biso   1.000  C
  C192     1.0000 0.48940  0.95689  0.57915  Biso   1.000  C
  N1       1.0000 0.15010  0.46205  0.72270  Biso   1.000  N
  N2       1.0000 0.06650  0.61753  0.95266  Biso   1.000  N
  N3       1.0000 0.15010  0.03795  0.77730  Biso   1.000  N
  N4       1.0000 0.06650  0.88247  0.54734  Biso   1.000  N
  N5       1.0000 0.15010  0.77730  0.46205  Biso   1.000  N
  N6       1.0000 0.06650  0.54734  0.61753  Biso   1.000  N
  N7       1.0000 0.15010  0.72270  0.03795  Biso   1.000  N
  N8       1.0000 0.06650  0.95266  0.88247  Biso   1.000  N
  N9       1.0000 0.34990  0.53795  0.22270  Biso   1.000  N
  N10      1.0000 0.43350  0.38247  0.45266  Biso   1.000  N
  N11      1.0000 0.34990  0.96205  0.27730  Biso   1.000  N
  N12      1.0000 0.43350  0.11753  0.04734  Biso   1.000  N
  N13      1.0000 0.34990  0.22270  0.96205  Biso   1.000  N
  N14      1.0000 0.43350  0.45266  0.11753  Biso   1.000  N
  N15      1.0000 0.34990  0.27730  0.53795  Biso   1.000  N
  N16      1.0000 0.43350  0.04734  0.38247  Biso   1.000  N
  N17      1.0000 0.84990  0.53795  0.27730  Biso   1.000  N
  N18      1.0000 0.93350  0.38247  0.04734  Biso   1.000  N
  N19      1.0000 0.84990  0.96205  0.22270  Biso   1.000  N
  N20      1.0000 0.93350  0.11753  0.45266  Biso   1.000  N
  N21      1.0000 0.84990  0.22270  0.53795  Biso   1.000  N
  N22      1.0000 0.93350  0.45266  0.38247  Biso   1.000  N
  N23      1.0000 0.84990  0.27730  0.96205  Biso   1.000  N
  N24      1.0000 0.93350  0.04734  0.11753  Biso   1.000  N
  N25      1.0000 0.65010  0.46205  0.77730  Biso   1.000  N
  N26      1.0000 0.56650  0.61753  0.54734  Biso   1.000  N
  N27      1.0000 0.65010  0.03795  0.72270  Biso   1.000  N
  N28      1.0000 0.56650  0.88247  0.95266  Biso   1.000  N
  N29      1.0000 0.65010  0.77730  0.03795  Biso   1.000  N
  N30      1.0000 0.56650  0.54734  0.88247  Biso   1.000  N
  N31      1.0000 0.65010  0.72270  0.46205  Biso   1.000  N
  N32      1.0000 0.56650  0.95266  0.61753  Biso   1.000  N
  O1       1.0000 0.96006  0.39260  0.90527  Biso   1.000  O
  O2       1.0000 0.89660  0.39490  0.80480  Biso   1.000  O
  O3       1.0000 0.84892  0.48540  0.96585  Biso   1.000  O
  O4       1.0000 0.77324  0.52708  0.87601  Biso   1.000  O
  O5       1.0000 0.96006  0.10740  0.59473  Biso   1.000  O
  O6       1.0000 0.89660  0.10510  0.69520  Biso   1.000  O
  O7       1.0000 0.84892  0.01460  0.53415  Biso   1.000  O
  O8       1.0000 0.77324  0.97292  0.62399  Biso   1.000  O
  O9       1.0000 0.96006  0.59473  0.39260  Biso   1.000  O
  O10      1.0000 0.89660  0.69520  0.39490  Biso   1.000  O
  O11      1.0000 0.84892  0.53415  0.48540  Biso   1.000  O
  O12      1.0000 0.77324  0.62399  0.52708  Biso   1.000  O
  O13      1.0000 0.96006  0.90527  0.10740  Biso   1.000  O
  O14      1.0000 0.89660  0.80480  0.10510  Biso   1.000  O
  O15      1.0000 0.84892  0.96585  0.01460  Biso   1.000  O
  O16      1.0000 0.77324  0.87601  0.97292  Biso   1.000  O
  O17      1.0000 0.53994  0.60740  0.40527  Biso   1.000  O
  O18      1.0000 0.60340  0.60510  0.30480  Biso   1.000  O
  O19      1.0000 0.65108  0.51460  0.46585  Biso   1.000  O
  O20      1.0000 0.72676  0.47292  0.37601  Biso   1.000  O
  O21      1.0000 0.53994  0.89260  0.09473  Biso   1.000  O
  O22      1.0000 0.60340  0.89490  0.19520  Biso   1.000  O
  O23      1.0000 0.65108  0.98540  0.03415  Biso   1.000  O
  O24      1.0000 0.72676  0.02708  0.12399  Biso   1.000  O
  O25      1.0000 0.53994  0.40527  0.89260  Biso   1.000  O
  O26      1.0000 0.60340  0.30480  0.89490  Biso   1.000  O
  O27      1.0000 0.65108  0.46585  0.98540  Biso   1.000  O
  O28      1.0000 0.72676  0.37601  0.02708  Biso   1.000  O
  O29      1.0000 0.53994  0.09473  0.60740  Biso   1.000  O
  O30      1.0000 0.60340  0.19520  0.60510  Biso   1.000  O
  O31      1.0000 0.65108  0.03415  0.51460  Biso   1.000  O
  O32      1.0000 0.72676  0.12399  0.47292  Biso   1.000  O
  O33      1.0000 0.03994  0.60740  0.09473  Biso   1.000  O
  O34      1.0000 0.10340  0.60510  0.19520  Biso   1.000  O
  O35      1.0000 0.15108  0.51460  0.03415  Biso   1.000  O
  O36      1.0000 0.22676  0.47292  0.12399  Biso   1.000  O
  O37      1.0000 0.03994  0.89260  0.40527  Biso   1.000  O
  O38      1.0000 0.10340  0.89490  0.30480  Biso   1.000  O
  O39      1.0000 0.15108  0.98540  0.46585  Biso   1.000  O
  O40      1.0000 0.22676  0.02708  0.37601  Biso   1.000  O
  O41      1.0000 0.03994  0.40527  0.60740  Biso   1.000  O
  O42      1.0000 0.10340  0.30480  0.60510  Biso   1.000  O
  O43      1.0000 0.15108  0.46585  0.51460  Biso   1.000  O
  O44      1.0000 0.22676  0.37601  0.47292  Biso   1.000  O
  O45      1.0000 0.03994  0.09473  0.89260  Biso   1.000  O
  O46      1.0000 0.10340  0.19520  0.89490  Biso   1.000  O
  O47      1.0000 0.15108  0.03415  0.98540  Biso   1.000  O
  O48      1.0000 0.22676  0.12399  0.02708  Biso   1.000  O
  O49      1.0000 0.46006  0.39260  0.59473  Biso   1.000  O
  O50      1.0000 0.39660  0.39490  0.69520  Biso   1.000  O
  O51      1.0000 0.34892  0.48540  0.53415  Biso   1.000  O
  O52      1.0000 0.27324  0.52708  0.62399  Biso   1.000  O
  O53      1.0000 0.46006  0.10740  0.90527  Biso   1.000  O
  O54      1.0000 0.39660  0.10510  0.80480  Biso   1.000  O
  O55      1.0000 0.34892  0.01460  0.96585  Biso   1.000  O
  O56      1.0000 0.27324  0.97292  0.87601  Biso   1.000  O
  O57      1.0000 0.46006  0.59473  0.10740  Biso   1.000  O
  O58      1.0000 0.39660  0.69520  0.10510  Biso   1.000  O
  O59      1.0000 0.34892  0.53415  0.01460  Biso   1.000  O
  O60      1.0000 0.27324  0.62399  0.97292  Biso   1.000  O
  O61      1.0000 0.46006  0.90527  0.39260  Biso   1.000  O
  O62      1.0000 0.39660  0.80480  0.39490  Biso   1.000  O
  O63      1.0000 0.34892  0.96585  0.48540  Biso   1.000  O
  O64      1.0000 0.27324  0.87601  0.52708  Biso   1.000  O
  O65      1.0000 0.75000  0.38260  0.88260  Biso   1.000  O
  O66      1.0000 0.75000  0.11740  0.61740  Biso   1.000  O
  O67      1.0000 0.75000  0.61740  0.38260  Biso   1.000  O
  O68      1.0000 0.75000  0.88260  0.11740  Biso   1.000  O
  O69      1.0000 0.25000  0.61740  0.11740  Biso   1.000  O
  O70      1.0000 0.25000  0.88260  0.38260  Biso   1.000  O
  O71      1.0000 0.25000  0.38260  0.61740  Biso   1.000  O
  O72      1.0000 0.25000  0.11740  0.88260  Biso   1.000  O
