data_image0
_cell_length_a       13.477
_cell_length_b       15.2396
_cell_length_c       26.22
_cell_angle_alpha    90
_cell_angle_beta     90
_cell_angle_gamma    90

_symmetry_space_group_name_H-M    P 1
_symmetry_int_tables_number       1

loop_
  _symmetry_equiv_pos_as_xyz
  'x, y, z'

loop_
  _atom_site_label
  _atom_site_occupancy
  _atom_site_fract_x
  _atom_site_fract_y
  _atom_site_fract_z
  _atom_site_thermal_displace_type
  _atom_site_B_iso_or_equiv
  _atom_site_type_symbol
  Mn1      1.0000 0.30367  0.95928  0.63982  Biso   1.000  Mn
  Mn2      1.0000 0.31094  0.25026  0.30743  Biso   1.000  Mn
  Mn3      1.0000 0.57820  0.46976  0.82576  Biso   1.000  Mn
  Mn4      1.0000 0.69633  0.54072  0.13982  Biso   1.000  Mn
  Mn5      1.0000 0.68906  0.24974  0.80743  Biso   1.000  Mn
  Mn6      1.0000 0.42180  0.03024  0.32576  Biso   1.000  Mn
  Mn7      1.0000 0.80367  0.04072  0.86018  Biso   1.000  Mn
  Mn8      1.0000 0.81094  0.74974  0.19257  Biso   1.000  Mn
  Mn9      1.0000 0.07820  0.53024  0.67424  Biso   1.000  Mn
  Mn10     1.0000 0.19633  0.45928  0.36018  Biso   1.000  Mn
  Mn11     1.0000 0.18906  0.75026  0.69257  Biso   1.000  Mn
  Mn12     1.0000 0.92180  0.96976  0.17424  Biso   1.000  Mn
  Mn13     1.0000 0.69633  0.04072  0.36018  Biso   1.000  Mn
  Mn14     1.0000 0.68906  0.74974  0.69257  Biso   1.000  Mn
  Mn15     1.0000 0.42180  0.53024  0.17424  Biso   1.000  Mn
  Mn16     1.0000 0.30367  0.45928  0.86018  Biso   1.000  Mn
  Mn17     1.0000 0.31094  0.75026  0.19257  Biso   1.000  Mn
  Mn18     1.0000 0.57820  0.96976  0.67424  Biso   1.000  Mn
  Mn19     1.0000 0.19633  0.95928  0.13982  Biso   1.000  Mn
  Mn20     1.0000 0.18906  0.25026  0.80743  Biso   1.000  Mn
  Mn21     1.0000 0.92180  0.46976  0.32576  Biso   1.000  Mn
  Mn22     1.0000 0.80367  0.54072  0.63982  Biso   1.000  Mn
  Mn23     1.0000 0.81094  0.24974  0.30743  Biso   1.000  Mn
  Mn24     1.0000 0.07820  0.03024  0.82576  Biso   1.000  Mn
  H1       1.0000 0.36870  0.57870  0.63490  Biso   1.000  H
  H2       1.0000 0.48800  0.38740  0.71900  Biso   1.000  H
  H3       1.0000 0.51210  0.62890  0.76380  Biso   1.000  H
  H4       1.0000 0.31080  0.02940  0.53190  Biso   1.000  H
  H5       1.0000 0.39380  0.43060  0.64940  Biso   1.000  H
  H6       1.0000 0.12340  0.22290  0.50360  Biso   1.000  H
  H7       1.0000 0.08140  0.22330  0.58950  Biso   1.000  H
  H8       1.0000 0.13970  0.11420  0.64010  Biso   1.000  H
  H9       1.0000 0.63130  0.92130  0.13490  Biso   1.000  H
  H10      1.0000 0.51200  0.11260  0.21900  Biso   1.000  H
  H11      1.0000 0.48790  0.87110  0.26380  Biso   1.000  H
  H12      1.0000 0.68920  0.47060  0.03190  Biso   1.000  H
  H13      1.0000 0.60620  0.06940  0.14940  Biso   1.000  H
  H14      1.0000 0.87660  0.27710  0.00360  Biso   1.000  H
  H15      1.0000 0.91860  0.27670  0.08950  Biso   1.000  H
  H16      1.0000 0.86030  0.38580  0.14010  Biso   1.000  H
  H17      1.0000 0.86870  0.42130  0.86510  Biso   1.000  H
  H18      1.0000 0.98800  0.61260  0.78100  Biso   1.000  H
  H19      1.0000 0.01210  0.37110  0.73620  Biso   1.000  H
  H20      1.0000 0.81080  0.97060  0.96810  Biso   1.000  H
  H21      1.0000 0.89380  0.56940  0.85060  Biso   1.000  H
  H22      1.0000 0.62340  0.77710  0.99640  Biso   1.000  H
  H23      1.0000 0.58140  0.77670  0.91050  Biso   1.000  H
  H24      1.0000 0.63970  0.88580  0.85990  Biso   1.000  H
  H25      1.0000 0.13130  0.07870  0.36510  Biso   1.000  H
  H26      1.0000 0.01200  0.88740  0.28100  Biso   1.000  H
  H27      1.0000 0.98790  0.12890  0.23620  Biso   1.000  H
  H28      1.0000 0.18920  0.52940  0.46810  Biso   1.000  H
  H29      1.0000 0.10620  0.93060  0.35060  Biso   1.000  H
  H30      1.0000 0.37660  0.72290  0.49640  Biso   1.000  H
  H31      1.0000 0.41860  0.72330  0.41050  Biso   1.000  H
  H32      1.0000 0.36030  0.61420  0.35990  Biso   1.000  H
  H33      1.0000 0.63130  0.42130  0.36510  Biso   1.000  H
  H34      1.0000 0.51200  0.61260  0.28100  Biso   1.000  H
  H35      1.0000 0.48790  0.37110  0.23620  Biso   1.000  H
  H36      1.0000 0.68920  0.97060  0.46810  Biso   1.000  H
  H37      1.0000 0.60620  0.56940  0.35060  Biso   1.000  H
  H38      1.0000 0.87660  0.77710  0.49640  Biso   1.000  H
  H39      1.0000 0.91860  0.77670  0.41050  Biso   1.000  H
  H40      1.0000 0.86030  0.88580  0.35990  Biso   1.000  H
  H41      1.0000 0.36870  0.07870  0.86510  Biso   1.000  H
  H42      1.0000 0.48800  0.88740  0.78100  Biso   1.000  H
  H43      1.0000 0.51210  0.12890  0.73620  Biso   1.000  H
  H44      1.0000 0.31080  0.52940  0.96810  Biso   1.000  H
  H45      1.0000 0.39380  0.93060  0.85060  Biso   1.000  H
  H46      1.0000 0.12340  0.72290  0.99640  Biso   1.000  H
  H47      1.0000 0.08140  0.72330  0.91050  Biso   1.000  H
  H48      1.0000 0.13970  0.61420  0.85990  Biso   1.000  H
  H49      1.0000 0.13130  0.57870  0.13490  Biso   1.000  H
  H50      1.0000 0.01200  0.38740  0.21900  Biso   1.000  H
  H51      1.0000 0.98790  0.62890  0.26380  Biso   1.000  H
  H52      1.0000 0.18920  0.02940  0.03190  Biso   1.000  H
  H53      1.0000 0.10620  0.43060  0.14940  Biso   1.000  H
  H54      1.0000 0.37660  0.22290  0.00360  Biso   1.000  H
  H55      1.0000 0.41860  0.22330  0.08950  Biso   1.000  H
  H56      1.0000 0.36030  0.11420  0.14010  Biso   1.000  H
  H57      1.0000 0.86870  0.92130  0.63490  Biso   1.000  H
  H58      1.0000 0.98800  0.11260  0.71900  Biso   1.000  H
  H59      1.0000 0.01210  0.87110  0.76380  Biso   1.000  H
  H60      1.0000 0.81080  0.47060  0.53190  Biso   1.000  H
  H61      1.0000 0.89380  0.06940  0.64940  Biso   1.000  H
  H62      1.0000 0.62340  0.27710  0.50360  Biso   1.000  H
  H63      1.0000 0.58140  0.27670  0.58950  Biso   1.000  H
  H64      1.0000 0.63970  0.38580  0.64010  Biso   1.000  H
  C1       1.0000 0.40410  0.55970  0.66330  Biso   1.000  C
  C2       1.0000 0.47370  0.44660  0.71450  Biso   1.000  C
  C3       1.0000 0.48970  0.58830  0.73990  Biso   1.000  C
  C4       1.0000 0.44220  0.61920  0.69760  Biso   1.000  C
  C5       1.0000 0.32260  0.06890  0.43670  Biso   1.000  C
  C6       1.0000 0.26340  0.06920  0.54330  Biso   1.000  C
  C7       1.0000 0.43750  0.71640  0.69000  Biso   1.000  C
  C8       1.0000 0.41930  0.47230  0.67180  Biso   1.000  C
  C9       1.0000 0.22970  0.13140  0.50940  Biso   1.000  C
  C10      1.0000 0.15470  0.18490  0.52620  Biso   1.000  C
  C11      1.0000 0.12580  0.18220  0.57660  Biso   1.000  C
  C12      1.0000 0.16340  0.11870  0.60690  Biso   1.000  C
  C13      1.0000 0.59590  0.94030  0.16330  Biso   1.000  C
  C14      1.0000 0.52630  0.05340  0.21450  Biso   1.000  C
  C15      1.0000 0.51030  0.91170  0.23990  Biso   1.000  C
  C16      1.0000 0.55780  0.88080  0.19760  Biso   1.000  C
  C17      1.0000 0.67740  0.43110  0.93670  Biso   1.000  C
  C18      1.0000 0.73660  0.43080  0.04330  Biso   1.000  C
  C19      1.0000 0.56250  0.78360  0.19000  Biso   1.000  C
  C20      1.0000 0.58070  0.02770  0.17180  Biso   1.000  C
  C21      1.0000 0.77030  0.36860  0.00940  Biso   1.000  C
  C22      1.0000 0.84530  0.31510  0.02620  Biso   1.000  C
  C23      1.0000 0.87420  0.31780  0.07660  Biso   1.000  C
  C24      1.0000 0.83660  0.38130  0.10690  Biso   1.000  C
  C25      1.0000 0.90410  0.44030  0.83670  Biso   1.000  C
  C26      1.0000 0.97370  0.55340  0.78550  Biso   1.000  C
  C27      1.0000 0.98970  0.41170  0.76010  Biso   1.000  C
  C28      1.0000 0.94220  0.38080  0.80240  Biso   1.000  C
  C29      1.0000 0.82260  0.93110  0.06330  Biso   1.000  C
  C30      1.0000 0.76340  0.93080  0.95670  Biso   1.000  C
  C31      1.0000 0.93750  0.28360  0.81000  Biso   1.000  C
  C32      1.0000 0.91930  0.52770  0.82820  Biso   1.000  C
  C33      1.0000 0.72970  0.86860  0.99060  Biso   1.000  C
  C34      1.0000 0.65470  0.81510  0.97380  Biso   1.000  C
  C35      1.0000 0.62580  0.81780  0.92340  Biso   1.000  C
  C36      1.0000 0.66340  0.88130  0.89310  Biso   1.000  C
  C37      1.0000 0.09590  0.05970  0.33670  Biso   1.000  C
  C38      1.0000 0.02630  0.94660  0.28550  Biso   1.000  C
  C39      1.0000 0.01030  0.08830  0.26010  Biso   1.000  C
  C40      1.0000 0.05780  0.11920  0.30240  Biso   1.000  C
  C41      1.0000 0.17740  0.56890  0.56330  Biso   1.000  C
  C42      1.0000 0.23660  0.56920  0.45670  Biso   1.000  C
  C43      1.0000 0.06250  0.21640  0.31000  Biso   1.000  C
  C44      1.0000 0.08070  0.97230  0.32820  Biso   1.000  C
  C45      1.0000 0.27030  0.63140  0.49060  Biso   1.000  C
  C46      1.0000 0.34530  0.68490  0.47380  Biso   1.000  C
  C47      1.0000 0.37420  0.68220  0.42340  Biso   1.000  C
  C48      1.0000 0.33660  0.61870  0.39310  Biso   1.000  C
  C49      1.0000 0.59590  0.44030  0.33670  Biso   1.000  C
  C50      1.0000 0.52630  0.55340  0.28550  Biso   1.000  C
  C51      1.0000 0.51030  0.41170  0.26010  Biso   1.000  C
  C52      1.0000 0.55780  0.38080  0.30240  Biso   1.000  C
  C53      1.0000 0.67740  0.93110  0.56330  Biso   1.000  C
  C54      1.0000 0.73660  0.93080  0.45670  Biso   1.000  C
  C55      1.0000 0.56250  0.28360  0.31000  Biso   1.000  C
  C56      1.0000 0.58070  0.52770  0.32820  Biso   1.000  C
  C57      1.0000 0.77030  0.86860  0.49060  Biso   1.000  C
  C58      1.0000 0.84530  0.81510  0.47380  Biso   1.000  C
  C59      1.0000 0.87420  0.81780  0.42340  Biso   1.000  C
  C60      1.0000 0.83660  0.88130  0.39310  Biso   1.000  C
  C61      1.0000 0.40410  0.05970  0.83670  Biso   1.000  C
  C62      1.0000 0.47370  0.94660  0.78550  Biso   1.000  C
  C63      1.0000 0.48970  0.08830  0.76010  Biso   1.000  C
  C64      1.0000 0.44220  0.11920  0.80240  Biso   1.000  C
  C65      1.0000 0.32260  0.56890  0.06330  Biso   1.000  C
  C66      1.0000 0.26340  0.56920  0.95670  Biso   1.000  C
  C67      1.0000 0.43750  0.21640  0.81000  Biso   1.000  C
  C68      1.0000 0.41930  0.97230  0.82820  Biso   1.000  C
  C69      1.0000 0.22970  0.63140  0.99060  Biso   1.000  C
  C70      1.0000 0.15470  0.68490  0.97380  Biso   1.000  C
  C71      1.0000 0.12580  0.68220  0.92340  Biso   1.000  C
  C72      1.0000 0.16340  0.61870  0.89310  Biso   1.000  C
  C73      1.0000 0.09590  0.55970  0.16330  Biso   1.000  C
  C74      1.0000 0.02630  0.44660  0.21450  Biso   1.000  C
  C75      1.0000 0.01030  0.58830  0.23990  Biso   1.000  C
  C76      1.0000 0.05780  0.61920  0.19760  Biso   1.000  C
  C77      1.0000 0.17740  0.06890  0.93670  Biso   1.000  C
  C78      1.0000 0.23660  0.06920  0.04330  Biso   1.000  C
  C79      1.0000 0.06250  0.71640  0.19000  Biso   1.000  C
  C80      1.0000 0.08070  0.47230  0.17180  Biso   1.000  C
  C81      1.0000 0.27030  0.13140  0.00940  Biso   1.000  C
  C82      1.0000 0.34530  0.18490  0.02620  Biso   1.000  C
  C83      1.0000 0.37420  0.18220  0.07660  Biso   1.000  C
  C84      1.0000 0.33660  0.11870  0.10690  Biso   1.000  C
  C85      1.0000 0.90410  0.94030  0.66330  Biso   1.000  C
  C86      1.0000 0.97370  0.05340  0.71450  Biso   1.000  C
  C87      1.0000 0.98970  0.91170  0.73990  Biso   1.000  C
  C88      1.0000 0.94220  0.88080  0.69760  Biso   1.000  C
  C89      1.0000 0.82260  0.43110  0.43670  Biso   1.000  C
  C90      1.0000 0.76340  0.43080  0.54330  Biso   1.000  C
  C91      1.0000 0.93750  0.78360  0.69000  Biso   1.000  C
  C92      1.0000 0.91930  0.02770  0.67180  Biso   1.000  C
  C93      1.0000 0.72970  0.36860  0.50940  Biso   1.000  C
  C94      1.0000 0.65470  0.31510  0.52620  Biso   1.000  C
  C95      1.0000 0.62580  0.31780  0.57660  Biso   1.000  C
  C96      1.0000 0.66340  0.38130  0.60690  Biso   1.000  C
  N1       1.0000 0.30750  0.17730  0.38327  Biso   1.000  N
  N2       1.0000 0.05840  0.87050  0.58000  Biso   1.000  N
  N3       1.0000 0.17300  0.87460  0.65060  Biso   1.000  N
  N4       1.0000 0.25820  0.20190  0.42560  Biso   1.000  N
  N5       1.0000 0.50600  0.50370  0.74910  Biso   1.000  N
  N6       1.0000 0.22910  0.07400  0.74360  Biso   1.000  N
  N7       1.0000 0.34490  0.09790  0.39060  Biso   1.000  N
  N8       1.0000 0.11460  0.87330  0.61430  Biso   1.000  N
  N9       1.0000 0.44780  0.10170  0.62750  Biso   1.000  N
  N10      1.0000 0.29170  0.29870  0.23170  Biso   1.000  N
  N11      1.0000 0.31250  0.35860  0.20330  Biso   1.000  N
  N12      1.0000 0.26880  0.03500  0.71060  Biso   1.000  N
  N13      1.0000 0.35520  0.76320  0.68278  Biso   1.000  N
  N14      1.0000 0.33120  0.41670  0.17260  Biso   1.000  N
  N15      1.0000 0.51930  0.76510  0.68942  Biso   1.000  N
  N16      1.0000 0.48490  0.84750  0.68094  Biso   1.000  N
  N17      1.0000 0.18840  0.11190  0.77760  Biso   1.000  N
  N18      1.0000 0.45010  0.02420  0.63470  Biso   1.000  N
  N19      1.0000 0.27080  0.13220  0.45680  Biso   1.000  N
  N20      1.0000 0.44440  0.18030  0.62520  Biso   1.000  N
  N21      1.0000 0.23200  0.06260  0.59180  Biso   1.000  N
  N22      1.0000 0.38850  0.84590  0.67704  Biso   1.000  N
  N23      1.0000 0.69250  0.32270  0.88327  Biso   1.000  N
  N24      1.0000 0.94160  0.62950  0.08000  Biso   1.000  N
  N25      1.0000 0.82700  0.62540  0.15060  Biso   1.000  N
  N26      1.0000 0.74180  0.29810  0.92560  Biso   1.000  N
  N27      1.0000 0.49400  0.99630  0.24910  Biso   1.000  N
  N28      1.0000 0.77090  0.42600  0.24360  Biso   1.000  N
  N29      1.0000 0.65510  0.40210  0.89060  Biso   1.000  N
  N30      1.0000 0.88540  0.62670  0.11430  Biso   1.000  N
  N31      1.0000 0.55220  0.39830  0.12750  Biso   1.000  N
  N32      1.0000 0.70830  0.20130  0.73170  Biso   1.000  N
  N33      1.0000 0.68750  0.14140  0.70330  Biso   1.000  N
  N34      1.0000 0.73120  0.46500  0.21060  Biso   1.000  N
  N35      1.0000 0.64480  0.73680  0.18278  Biso   1.000  N
  N36      1.0000 0.66880  0.08330  0.67260  Biso   1.000  N
  N37      1.0000 0.48070  0.73490  0.18942  Biso   1.000  N
  N38      1.0000 0.51510  0.65250  0.18094  Biso   1.000  N
  N39      1.0000 0.81160  0.38810  0.27760  Biso   1.000  N
  N40      1.0000 0.54990  0.47580  0.13470  Biso   1.000  N
  N41      1.0000 0.72920  0.36780  0.95680  Biso   1.000  N
  N42      1.0000 0.55560  0.31970  0.12520  Biso   1.000  N
  N43      1.0000 0.76800  0.43740  0.09180  Biso   1.000  N
  N44      1.0000 0.61150  0.65410  0.17704  Biso   1.000  N
  N45      1.0000 0.80750  0.82270  0.11673  Biso   1.000  N
  N46      1.0000 0.55840  0.12950  0.92000  Biso   1.000  N
  N47      1.0000 0.67300  0.12540  0.84940  Biso   1.000  N
  N48      1.0000 0.75820  0.79810  0.07440  Biso   1.000  N
  N49      1.0000 0.00600  0.49630  0.75090  Biso   1.000  N
  N50      1.0000 0.72910  0.92600  0.75640  Biso   1.000  N
  N51      1.0000 0.84490  0.90210  0.10940  Biso   1.000  N
  N52      1.0000 0.61460  0.12670  0.88570  Biso   1.000  N
  N53      1.0000 0.94780  0.89830  0.87250  Biso   1.000  N
  N54      1.0000 0.79170  0.70130  0.26830  Biso   1.000  N
  N55      1.0000 0.81250  0.64140  0.29670  Biso   1.000  N
  N56      1.0000 0.76880  0.96500  0.78940  Biso   1.000  N
  N57      1.0000 0.85520  0.23680  0.81722  Biso   1.000  N
  N58      1.0000 0.83120  0.58330  0.32740  Biso   1.000  N
  N59      1.0000 0.01930  0.23490  0.81058  Biso   1.000  N
  N60      1.0000 0.98490  0.15250  0.81906  Biso   1.000  N
  N61      1.0000 0.68840  0.88810  0.72240  Biso   1.000  N
  N62      1.0000 0.95010  0.97580  0.86530  Biso   1.000  N
  N63      1.0000 0.77080  0.86780  0.04320  Biso   1.000  N
  N64      1.0000 0.94440  0.81970  0.87480  Biso   1.000  N
  N65      1.0000 0.73200  0.93740  0.90820  Biso   1.000  N
  N66      1.0000 0.88850  0.15410  0.82296  Biso   1.000  N
  N67      1.0000 0.19250  0.67730  0.61673  Biso   1.000  N
  N68      1.0000 0.44160  0.37050  0.42000  Biso   1.000  N
  N69      1.0000 0.32700  0.37460  0.34940  Biso   1.000  N
  N70      1.0000 0.24180  0.70190  0.57440  Biso   1.000  N
  N71      1.0000 0.99400  0.00370  0.25090  Biso   1.000  N
  N72      1.0000 0.27090  0.57400  0.25640  Biso   1.000  N
  N73      1.0000 0.15510  0.59790  0.60940  Biso   1.000  N
  N74      1.0000 0.38540  0.37330  0.38570  Biso   1.000  N
  N75      1.0000 0.05220  0.60170  0.37250  Biso   1.000  N
  N76      1.0000 0.20830  0.79870  0.76830  Biso   1.000  N
  N77      1.0000 0.18750  0.85860  0.79670  Biso   1.000  N
  N78      1.0000 0.23120  0.53500  0.28940  Biso   1.000  N
  N79      1.0000 0.14480  0.26320  0.31722  Biso   1.000  N
  N80      1.0000 0.16880  0.91670  0.82740  Biso   1.000  N
  N81      1.0000 0.98070  0.26510  0.31058  Biso   1.000  N
  N82      1.0000 0.01510  0.34750  0.31906  Biso   1.000  N
  N83      1.0000 0.31160  0.61190  0.22240  Biso   1.000  N
  N84      1.0000 0.04990  0.52420  0.36530  Biso   1.000  N
  N85      1.0000 0.22920  0.63220  0.54320  Biso   1.000  N
  N86      1.0000 0.05560  0.68030  0.37480  Biso   1.000  N
  N87      1.0000 0.26800  0.56260  0.40820  Biso   1.000  N
  N88      1.0000 0.11150  0.34590  0.32296  Biso   1.000  N
  N89      1.0000 0.69250  0.82270  0.61673  Biso   1.000  N
  N90      1.0000 0.94160  0.12950  0.42000  Biso   1.000  N
  N91      1.0000 0.82700  0.12540  0.34940  Biso   1.000  N
  N92      1.0000 0.74180  0.79810  0.57440  Biso   1.000  N
  N93      1.0000 0.49400  0.49630  0.25090  Biso   1.000  N
  N94      1.0000 0.77090  0.92600  0.25640  Biso   1.000  N
  N95      1.0000 0.65510  0.90210  0.60940  Biso   1.000  N
  N96      1.0000 0.88540  0.12670  0.38570  Biso   1.000  N
  N97      1.0000 0.55220  0.89830  0.37250  Biso   1.000  N
  N98      1.0000 0.70830  0.70130  0.76830  Biso   1.000  N
  N99      1.0000 0.68750  0.64140  0.79670  Biso   1.000  N
  N100     1.0000 0.73120  0.96500  0.28940  Biso   1.000  N
  N101     1.0000 0.64480  0.23680  0.31722  Biso   1.000  N
  N102     1.0000 0.66880  0.58330  0.82740  Biso   1.000  N
  N103     1.0000 0.48070  0.23490  0.31058  Biso   1.000  N
  N104     1.0000 0.51510  0.15250  0.31906  Biso   1.000  N
  N105     1.0000 0.81160  0.88810  0.22240  Biso   1.000  N
  N106     1.0000 0.54990  0.97580  0.36530  Biso   1.000  N
  N107     1.0000 0.72920  0.86780  0.54320  Biso   1.000  N
  N108     1.0000 0.55560  0.81970  0.37480  Biso   1.000  N
  N109     1.0000 0.76800  0.93740  0.40820  Biso   1.000  N
  N110     1.0000 0.61150  0.15410  0.32296  Biso   1.000  N
  N111     1.0000 0.30750  0.67730  0.11673  Biso   1.000  N
  N112     1.0000 0.05840  0.37050  0.92000  Biso   1.000  N
  N113     1.0000 0.17300  0.37460  0.84940  Biso   1.000  N
  N114     1.0000 0.25820  0.70190  0.07440  Biso   1.000  N
  N115     1.0000 0.50600  0.00370  0.75090  Biso   1.000  N
  N116     1.0000 0.22910  0.57400  0.75640  Biso   1.000  N
  N117     1.0000 0.34490  0.59790  0.10940  Biso   1.000  N
  N118     1.0000 0.11460  0.37330  0.88570  Biso   1.000  N
  N119     1.0000 0.44780  0.60170  0.87250  Biso   1.000  N
  N120     1.0000 0.29170  0.79870  0.26830  Biso   1.000  N
  N121     1.0000 0.31250  0.85860  0.29670  Biso   1.000  N
  N122     1.0000 0.26880  0.53500  0.78940  Biso   1.000  N
  N123     1.0000 0.35520  0.26320  0.81722  Biso   1.000  N
  N124     1.0000 0.33120  0.91670  0.32740  Biso   1.000  N
  N125     1.0000 0.51930  0.26510  0.81058  Biso   1.000  N
  N126     1.0000 0.48490  0.34750  0.81906  Biso   1.000  N
  N127     1.0000 0.18840  0.61190  0.72240  Biso   1.000  N
  N128     1.0000 0.45010  0.52420  0.86530  Biso   1.000  N
  N129     1.0000 0.27080  0.63220  0.04320  Biso   1.000  N
  N130     1.0000 0.44440  0.68030  0.87480  Biso   1.000  N
  N131     1.0000 0.23200  0.56260  0.90820  Biso   1.000  N
  N132     1.0000 0.38850  0.34590  0.82296  Biso   1.000  N
  N133     1.0000 0.19250  0.17730  0.88327  Biso   1.000  N
  N134     1.0000 0.44160  0.87050  0.08000  Biso   1.000  N
  N135     1.0000 0.32700  0.87460  0.15060  Biso   1.000  N
  N136     1.0000 0.24180  0.20190  0.92560  Biso   1.000  N
  N137     1.0000 0.99400  0.50370  0.24910  Biso   1.000  N
  N138     1.0000 0.27090  0.07400  0.24360  Biso   1.000  N
  N139     1.0000 0.15510  0.09790  0.89060  Biso   1.000  N
  N140     1.0000 0.38540  0.87330  0.11430  Biso   1.000  N
  N141     1.0000 0.05220  0.10170  0.12750  Biso   1.000  N
  N142     1.0000 0.20830  0.29870  0.73170  Biso   1.000  N
  N143     1.0000 0.18750  0.35860  0.70330  Biso   1.000  N
  N144     1.0000 0.23120  0.03500  0.21060  Biso   1.000  N
  N145     1.0000 0.14480  0.76320  0.18278  Biso   1.000  N
  N146     1.0000 0.16880  0.41670  0.67260  Biso   1.000  N
  N147     1.0000 0.98070  0.76510  0.18942  Biso   1.000  N
  N148     1.0000 0.01510  0.84750  0.18094  Biso   1.000  N
  N149     1.0000 0.31160  0.11190  0.27760  Biso   1.000  N
  N150     1.0000 0.04990  0.02420  0.13470  Biso   1.000  N
  N151     1.0000 0.22920  0.13220  0.95680  Biso   1.000  N
  N152     1.0000 0.05560  0.18030  0.12520  Biso   1.000  N
  N153     1.0000 0.26800  0.06260  0.09180  Biso   1.000  N
  N154     1.0000 0.11150  0.84590  0.17704  Biso   1.000  N
  N155     1.0000 0.80750  0.32270  0.38327  Biso   1.000  N
  N156     1.0000 0.55840  0.62950  0.58000  Biso   1.000  N
  N157     1.0000 0.67300  0.62540  0.65060  Biso   1.000  N
  N158     1.0000 0.75820  0.29810  0.42560  Biso   1.000  N
  N159     1.0000 0.00600  0.99630  0.74910  Biso   1.000  N
  N160     1.0000 0.72910  0.42600  0.74360  Biso   1.000  N
  N161     1.0000 0.84490  0.40210  0.39060  Biso   1.000  N
  N162     1.0000 0.61460  0.62670  0.61430  Biso   1.000  N
  N163     1.0000 0.94780  0.39830  0.62750  Biso   1.000  N
  N164     1.0000 0.79170  0.20130  0.23170  Biso   1.000  N
  N165     1.0000 0.81250  0.14140  0.20330  Biso   1.000  N
  N166     1.0000 0.76880  0.46500  0.71060  Biso   1.000  N
  N167     1.0000 0.85520  0.73680  0.68278  Biso   1.000  N
  N168     1.0000 0.83120  0.08330  0.17260  Biso   1.000  N
  N169     1.0000 0.01930  0.73490  0.68942  Biso   1.000  N
  N170     1.0000 0.98490  0.65250  0.68094  Biso   1.000  N
  N171     1.0000 0.68840  0.38810  0.77760  Biso   1.000  N
  N172     1.0000 0.95010  0.47580  0.63470  Biso   1.000  N
  N173     1.0000 0.77080  0.36780  0.45680  Biso   1.000  N
  N174     1.0000 0.94440  0.31970  0.62520  Biso   1.000  N
  N175     1.0000 0.73200  0.43740  0.59180  Biso   1.000  N
  N176     1.0000 0.88850  0.65410  0.67704  Biso   1.000  N
  O1       1.0000 0.33160  0.87590  0.57119  Biso   1.000  O
  O2       1.0000 0.66840  0.62410  0.07119  Biso   1.000  O
  O3       1.0000 0.83160  0.12410  0.92881  Biso   1.000  O
  O4       1.0000 0.16840  0.37590  0.42881  Biso   1.000  O
  O5       1.0000 0.66840  0.12410  0.42881  Biso   1.000  O
  O6       1.0000 0.33160  0.37590  0.92881  Biso   1.000  O
  O7       1.0000 0.16840  0.87590  0.07119  Biso   1.000  O
  O8       1.0000 0.83160  0.62410  0.57119  Biso   1.000  O
