data_image0
_cell_length_a       6.724
_cell_length_b       14.096
_cell_length_c       23.984
_cell_angle_alpha    90
_cell_angle_beta     90
_cell_angle_gamma    90

_symmetry_space_group_name_H-M    P 1
_symmetry_int_tables_number       1

loop_
  _symmetry_equiv_pos_as_xyz
  'x, y, z'

loop_
  _atom_site_label
  _atom_site_occupancy
  _atom_site_fract_x
  _atom_site_fract_y
  _atom_site_fract_z
  _atom_site_thermal_displace_type
  _atom_site_B_iso_or_equiv
  _atom_site_type_symbol
  La1      1.0000 0.88231  0.20589  0.63399  Biso   1.000  La
  La2      1.0000 0.38231  0.29411  0.86601  Biso   1.000  La
  La3      1.0000 0.61769  0.20589  0.36601  Biso   1.000  La
  La4      1.0000 0.11769  0.29411  0.13399  Biso   1.000  La
  La5      1.0000 0.11769  0.79411  0.36601  Biso   1.000  La
  La6      1.0000 0.61769  0.70589  0.13399  Biso   1.000  La
  La7      1.0000 0.38231  0.79411  0.63399  Biso   1.000  La
  La8      1.0000 0.88231  0.70589  0.86601  Biso   1.000  La
  C1       1.0000 0.02450  0.39110  0.73250  Biso   1.000  C
  C2       1.0000 0.05660  0.43360  0.78760  Biso   1.000  C
  C3       1.0000 0.01520  0.52690  0.76620  Biso   1.000  C
  C4       1.0000 0.98940  0.48710  0.70950  Biso   1.000  C
  C5       1.0000 0.85960  0.20350  0.49140  Biso   1.000  C
  C6       1.0000 0.52450  0.10890  0.76750  Biso   1.000  C
  C7       1.0000 0.55660  0.06640  0.71240  Biso   1.000  C
  C8       1.0000 0.51520  0.97310  0.73380  Biso   1.000  C
  C9       1.0000 0.48940  0.01290  0.79050  Biso   1.000  C
  C10      1.0000 0.35960  0.29650  0.00860  Biso   1.000  C
  C11      1.0000 0.47550  0.39110  0.26750  Biso   1.000  C
  C12      1.0000 0.44340  0.43360  0.21240  Biso   1.000  C
  C13      1.0000 0.48480  0.52690  0.23380  Biso   1.000  C
  C14      1.0000 0.51060  0.48710  0.29050  Biso   1.000  C
  C15      1.0000 0.64040  0.20350  0.50860  Biso   1.000  C
  C16      1.0000 0.97550  0.10890  0.23250  Biso   1.000  C
  C17      1.0000 0.94340  0.06640  0.28760  Biso   1.000  C
  C18      1.0000 0.98480  0.97310  0.26620  Biso   1.000  C
  C19      1.0000 0.01060  0.01290  0.20950  Biso   1.000  C
  C20      1.0000 0.14040  0.29650  0.99140  Biso   1.000  C
  C21      1.0000 0.97550  0.60890  0.26750  Biso   1.000  C
  C22      1.0000 0.94340  0.56640  0.21240  Biso   1.000  C
  C23      1.0000 0.98480  0.47310  0.23380  Biso   1.000  C
  C24      1.0000 0.01060  0.51290  0.29050  Biso   1.000  C
  C25      1.0000 0.14040  0.79650  0.50860  Biso   1.000  C
  C26      1.0000 0.47550  0.89110  0.23250  Biso   1.000  C
  C27      1.0000 0.44340  0.93360  0.28760  Biso   1.000  C
  C28      1.0000 0.48480  0.02690  0.26620  Biso   1.000  C
  C29      1.0000 0.51060  0.98710  0.20950  Biso   1.000  C
  C30      1.0000 0.64040  0.70350  0.99140  Biso   1.000  C
  C31      1.0000 0.52450  0.60890  0.73250  Biso   1.000  C
  C32      1.0000 0.55660  0.56640  0.78760  Biso   1.000  C
  C33      1.0000 0.51520  0.47310  0.76620  Biso   1.000  C
  C34      1.0000 0.48940  0.51290  0.70950  Biso   1.000  C
  C35      1.0000 0.35960  0.79650  0.49140  Biso   1.000  C
  C36      1.0000 0.02450  0.89110  0.76750  Biso   1.000  C
  C37      1.0000 0.05660  0.93360  0.71240  Biso   1.000  C
  C38      1.0000 0.01520  0.02690  0.73380  Biso   1.000  C
  C39      1.0000 0.98940  0.98710  0.79050  Biso   1.000  C
  C40      1.0000 0.85960  0.70350  0.00860  Biso   1.000  C
  O1       1.0000 0.02480  0.30860  0.71340  Biso   1.000  O
  O2       1.0000 0.10480  0.40350  0.83530  Biso   1.000  O
  O3       1.0000 0.00590  0.60940  0.78580  Biso   1.000  O
  O4       1.0000 0.95510  0.52060  0.66260  Biso   1.000  O
  O5       1.0000 0.98760  0.20590  0.52920  Biso   1.000  O
  O6       1.0000 0.89430  0.19940  0.43975  Biso   1.000  O
  O7       1.0000 0.58430  0.29730  0.68010  Biso   1.000  O
  O8       1.0000 0.88080  0.37370  0.59550  Biso   1.000  O
  O9       1.0000 0.25220  0.21900  0.62100  Biso   1.000  O
  O10      1.0000 0.96140  0.03870  0.59360  Biso   1.000  O
  O11      1.0000 0.52480  0.19140  0.78660  Biso   1.000  O
  O12      1.0000 0.60480  0.09650  0.66470  Biso   1.000  O
  O13      1.0000 0.50590  0.89060  0.71420  Biso   1.000  O
  O14      1.0000 0.45510  0.97940  0.83740  Biso   1.000  O
  O15      1.0000 0.48760  0.29410  0.97080  Biso   1.000  O
  O16      1.0000 0.39430  0.30060  0.06025  Biso   1.000  O
  O17      1.0000 0.08430  0.20270  0.81990  Biso   1.000  O
  O18      1.0000 0.38080  0.12630  0.90450  Biso   1.000  O
  O19      1.0000 0.75220  0.28100  0.87900  Biso   1.000  O
  O20      1.0000 0.46140  0.46130  0.90640  Biso   1.000  O
  O21      1.0000 0.47520  0.30860  0.28660  Biso   1.000  O
  O22      1.0000 0.39520  0.40350  0.16470  Biso   1.000  O
  O23      1.0000 0.49410  0.60940  0.21420  Biso   1.000  O
  O24      1.0000 0.54490  0.52060  0.33740  Biso   1.000  O
  O25      1.0000 0.51240  0.20590  0.47080  Biso   1.000  O
  O26      1.0000 0.60570  0.19940  0.56025  Biso   1.000  O
  O27      1.0000 0.91570  0.29730  0.31990  Biso   1.000  O
  O28      1.0000 0.61920  0.37370  0.40450  Biso   1.000  O
  O29      1.0000 0.24780  0.21900  0.37900  Biso   1.000  O
  O30      1.0000 0.53860  0.03870  0.40640  Biso   1.000  O
  O31      1.0000 0.97520  0.19140  0.21340  Biso   1.000  O
  O32      1.0000 0.89520  0.09650  0.33530  Biso   1.000  O
  O33      1.0000 0.99410  0.89060  0.28580  Biso   1.000  O
  O34      1.0000 0.04490  0.97940  0.16260  Biso   1.000  O
  O35      1.0000 0.01240  0.29410  0.02920  Biso   1.000  O
  O36      1.0000 0.10570  0.30060  0.93975  Biso   1.000  O
  O37      1.0000 0.41570  0.20270  0.18010  Biso   1.000  O
  O38      1.0000 0.11920  0.12630  0.09550  Biso   1.000  O
  O39      1.0000 0.74780  0.28100  0.12100  Biso   1.000  O
  O40      1.0000 0.03860  0.46130  0.09360  Biso   1.000  O
  O41      1.0000 0.97520  0.69140  0.28660  Biso   1.000  O
  O42      1.0000 0.89520  0.59650  0.16470  Biso   1.000  O
  O43      1.0000 0.99410  0.39060  0.21420  Biso   1.000  O
  O44      1.0000 0.04490  0.47940  0.33740  Biso   1.000  O
  O45      1.0000 0.01240  0.79410  0.47080  Biso   1.000  O
  O46      1.0000 0.10570  0.80060  0.56025  Biso   1.000  O
  O47      1.0000 0.41570  0.70270  0.31990  Biso   1.000  O
  O48      1.0000 0.11920  0.62630  0.40450  Biso   1.000  O
  O49      1.0000 0.74780  0.78100  0.37900  Biso   1.000  O
  O50      1.0000 0.03860  0.96130  0.40640  Biso   1.000  O
  O51      1.0000 0.47520  0.80860  0.21340  Biso   1.000  O
  O52      1.0000 0.39520  0.90350  0.33530  Biso   1.000  O
  O53      1.0000 0.49410  0.10940  0.28580  Biso   1.000  O
  O54      1.0000 0.54490  0.02060  0.16260  Biso   1.000  O
  O55      1.0000 0.51240  0.70590  0.02920  Biso   1.000  O
  O56      1.0000 0.60570  0.69940  0.93975  Biso   1.000  O
  O57      1.0000 0.91570  0.79730  0.18010  Biso   1.000  O
  O58      1.0000 0.61920  0.87370  0.09550  Biso   1.000  O
  O59      1.0000 0.24780  0.71900  0.12100  Biso   1.000  O
  O60      1.0000 0.53860  0.53870  0.09360  Biso   1.000  O
  O61      1.0000 0.52480  0.69140  0.71340  Biso   1.000  O
  O62      1.0000 0.60480  0.59650  0.83530  Biso   1.000  O
  O63      1.0000 0.50590  0.39060  0.78580  Biso   1.000  O
  O64      1.0000 0.45510  0.47940  0.66260  Biso   1.000  O
  O65      1.0000 0.48760  0.79410  0.52920  Biso   1.000  O
  O66      1.0000 0.39430  0.80060  0.43975  Biso   1.000  O
  O67      1.0000 0.08430  0.70270  0.68010  Biso   1.000  O
  O68      1.0000 0.38080  0.62630  0.59550  Biso   1.000  O
  O69      1.0000 0.75220  0.78100  0.62100  Biso   1.000  O
  O70      1.0000 0.46140  0.96130  0.59360  Biso   1.000  O
  O71      1.0000 0.02480  0.80860  0.78660  Biso   1.000  O
  O72      1.0000 0.10480  0.90350  0.66470  Biso   1.000  O
  O73      1.0000 0.00590  0.10940  0.71420  Biso   1.000  O
  O74      1.0000 0.95510  0.02060  0.83740  Biso   1.000  O
  O75      1.0000 0.98760  0.70590  0.97080  Biso   1.000  O
  O76      1.0000 0.89430  0.69940  0.06025  Biso   1.000  O
  O77      1.0000 0.58430  0.79730  0.81990  Biso   1.000  O
  O78      1.0000 0.88080  0.87370  0.90450  Biso   1.000  O
  O79      1.0000 0.25220  0.71900  0.87900  Biso   1.000  O
  O80      1.0000 0.96140  0.53870  0.90640  Biso   1.000  O
