data_image0
_cell_length_a       19.3776
_cell_length_b       19.3776
_cell_length_c       31.6139
_cell_angle_alpha    105.796
_cell_angle_beta     105.796
_cell_angle_gamma    94.1829

_symmetry_space_group_name_H-M    P 1
_symmetry_int_tables_number       1

loop_
  _symmetry_equiv_pos_as_xyz
  'x, y, z'

loop_
  _atom_site_label
  _atom_site_occupancy
  _atom_site_fract_x
  _atom_site_fract_y
  _atom_site_fract_z
  _atom_site_thermal_displace_type
  _atom_site_B_iso_or_equiv
  _atom_site_type_symbol
  Zn1      1.0000 0.75496  0.53136  0.65020  Biso   1.000  Zn
  Zn2      1.0000 0.60879  0.44621  0.57314  Biso   1.000  Zn
  Zn3      1.0000 0.68387  0.37943  0.65215  Biso   1.000  Zn
  Zn4      1.0000 0.75593  0.38811  0.57351  Biso   1.000  Zn
  Zn5      1.0000 0.53136  0.75496  0.15020  Biso   1.000  Zn
  Zn6      1.0000 0.44621  0.60879  0.07314  Biso   1.000  Zn
  Zn7      1.0000 0.37943  0.68387  0.15215  Biso   1.000  Zn
  Zn8      1.0000 0.38811  0.75593  0.07351  Biso   1.000  Zn
  H1       1.0000 0.50980  0.38320  0.70340  Biso   1.000  H
  H2       1.0000 0.42400  0.42500  0.74040  Biso   1.000  H
  H3       1.0000 0.32770  0.50150  0.63590  Biso   1.000  H
  H4       1.0000 0.41360  0.46180  0.59970  Biso   1.000  H
  H5       1.0000 0.38860  0.52340  0.78310  Biso   1.000  H
  H6       1.0000 0.18510  0.56130  0.78090  Biso   1.000  H
  H7       1.0000 0.22620  0.47540  0.65970  Biso   1.000  H
  H8       1.0000 0.37680  0.49380  0.85000  Biso   1.000  H
  H9       1.0000 0.40770  0.53090  0.92970  Biso   1.000  H
  H10      1.0000 0.29470  0.69750  0.92750  Biso   1.000  H
  H11      1.0000 0.26030  0.66010  0.84940  Biso   1.000  H
  H12      1.0000 0.10520  0.41900  0.63970  Biso   1.000  H
  H13      1.0000 0.98100  0.40840  0.60360  Biso   1.000  H
  H14      1.0000 0.97870  0.59690  0.69870  Biso   1.000  H
  H15      1.0000 0.10120  0.60700  0.73480  Biso   1.000  H
  H16      1.0000 0.55310  0.60970  0.52580  Biso   1.000  H
  H17      1.0000 0.54210  0.69730  0.48800  Biso   1.000  H
  H18      1.0000 0.73160  0.81580  0.58330  Biso   1.000  H
  H19      1.0000 0.73720  0.72940  0.62150  Biso   1.000  H
  H20      1.0000 0.58670  0.75210  0.44280  Biso   1.000  H
  H21      1.0000 0.62660  0.95900  0.44290  Biso   1.000  H
  H22      1.0000 0.67290  0.90910  0.56270  Biso   1.000  H
  H23      1.0000 0.73440  0.05260  0.49250  Biso   1.000  H
  H24      1.0000 0.75710  0.17650  0.52830  Biso   1.000  H
  H25      1.0000 0.65620  0.14660  0.61960  Biso   1.000  H
  H26      1.0000 0.63320  0.02560  0.58540  Biso   1.000  H
  H27      1.0000 0.47790  0.77430  0.37810  Biso   1.000  H
  H28      1.0000 0.43420  0.73660  0.29760  Biso   1.000  H
  H29      1.0000 0.61760  0.83660  0.29090  Biso   1.000  H
  H30      1.0000 0.66270  0.88010  0.37330  Biso   1.000  H
  H31      1.0000 0.38320  0.50980  0.20340  Biso   1.000  H
  H32      1.0000 0.42500  0.42400  0.24040  Biso   1.000  H
  H33      1.0000 0.50150  0.32770  0.13590  Biso   1.000  H
  H34      1.0000 0.46180  0.41360  0.09970  Biso   1.000  H
  H35      1.0000 0.52340  0.38860  0.28310  Biso   1.000  H
  H36      1.0000 0.56130  0.18510  0.28090  Biso   1.000  H
  H37      1.0000 0.47540  0.22620  0.15970  Biso   1.000  H
  H38      1.0000 0.49380  0.37680  0.35000  Biso   1.000  H
  H39      1.0000 0.53090  0.40770  0.42970  Biso   1.000  H
  H40      1.0000 0.69750  0.29470  0.42750  Biso   1.000  H
  H41      1.0000 0.66010  0.26030  0.34940  Biso   1.000  H
  H42      1.0000 0.41900  0.10520  0.13970  Biso   1.000  H
  H43      1.0000 0.40840  0.98100  0.10360  Biso   1.000  H
  H44      1.0000 0.59690  0.97870  0.19870  Biso   1.000  H
  H45      1.0000 0.60700  0.10120  0.23480  Biso   1.000  H
  H46      1.0000 0.60970  0.55310  0.02580  Biso   1.000  H
  H47      1.0000 0.69730  0.54210  0.98800  Biso   1.000  H
  H48      1.0000 0.81580  0.73160  0.08330  Biso   1.000  H
  H49      1.0000 0.72940  0.73720  0.12150  Biso   1.000  H
  H50      1.0000 0.75210  0.58670  0.94280  Biso   1.000  H
  H51      1.0000 0.95900  0.62660  0.94290  Biso   1.000  H
  H52      1.0000 0.90910  0.67290  0.06270  Biso   1.000  H
  H53      1.0000 0.05260  0.73440  0.99250  Biso   1.000  H
  H54      1.0000 0.17650  0.75710  0.02830  Biso   1.000  H
  H55      1.0000 0.14660  0.65620  0.11960  Biso   1.000  H
  H56      1.0000 0.02560  0.63320  0.08540  Biso   1.000  H
  H57      1.0000 0.77430  0.47790  0.87810  Biso   1.000  H
  H58      1.0000 0.73660  0.43420  0.79760  Biso   1.000  H
  H59      1.0000 0.83660  0.61760  0.79090  Biso   1.000  H
  H60      1.0000 0.88010  0.66270  0.87330  Biso   1.000  H
  C1       1.0000 0.53150  0.40210  0.63060  Biso   1.000  C
  C2       1.0000 0.47060  0.42100  0.64970  Biso   1.000  C
  C3       1.0000 0.47380  0.40840  0.69020  Biso   1.000  C
  C4       1.0000 0.42260  0.43320  0.71190  Biso   1.000  C
  C5       1.0000 0.36930  0.46970  0.69250  Biso   1.000  C
  C6       1.0000 0.36530  0.47890  0.65010  Biso   1.000  C
  C7       1.0000 0.41590  0.45510  0.62870  Biso   1.000  C
  C8       1.0000 0.31540  0.49600  0.71740  Biso   1.000  C
  C9       1.0000 0.33960  0.52260  0.76630  Biso   1.000  C
  C10      1.0000 0.28980  0.54720  0.78910  Biso   1.000  C
  C11      1.0000 0.21860  0.54480  0.76470  Biso   1.000  C
  C12      1.0000 0.19440  0.51860  0.71650  Biso   1.000  C
  C13      1.0000 0.24230  0.49370  0.69250  Biso   1.000  C
  C14      1.0000 0.31410  0.57370  0.84060  Biso   1.000  C
  C15      1.0000 0.35980  0.53500  0.86560  Biso   1.000  C
  C16      1.0000 0.37900  0.55820  0.91310  Biso   1.000  C
  C17      1.0000 0.35840  0.61880  0.93730  Biso   1.000  C
  C18      1.0000 0.31160  0.65640  0.91180  Biso   1.000  C
  C19      1.0000 0.29140  0.63400  0.86570  Biso   1.000  C
  C20      1.0000 0.11630  0.51430  0.69170  Biso   1.000  C
  C21      1.0000 0.07880  0.45480  0.65180  Biso   1.000  C
  C22      1.0000 0.00490  0.44790  0.63040  Biso   1.000  C
  C23      1.0000 0.96740  0.49820  0.64810  Biso   1.000  C
  C24      1.0000 0.00480  0.56020  0.68740  Biso   1.000  C
  C25      1.0000 0.07740  0.56660  0.70850  Biso   1.000  C
  C26      1.0000 0.65690  0.60310  0.60000  Biso   1.000  C
  C27      1.0000 0.64710  0.66170  0.57740  Biso   1.000  C
  C28      1.0000 0.58860  0.65220  0.53730  Biso   1.000  C
  C29      1.0000 0.58230  0.70410  0.51470  Biso   1.000  C
  C30      1.0000 0.63500  0.76720  0.53050  Biso   1.000  C
  C31      1.0000 0.69460  0.77440  0.57170  Biso   1.000  C
  C32      1.0000 0.69850  0.72270  0.59410  Biso   1.000  C
  C33      1.0000 0.63070  0.82230  0.50660  Biso   1.000  C
  C34      1.0000 0.60420  0.80200  0.45930  Biso   1.000  C
  C35      1.0000 0.60220  0.85240  0.43470  Biso   1.000  C
  C36      1.0000 0.62740  0.92400  0.45900  Biso   1.000  C
  C37      1.0000 0.65480  0.94660  0.50800  Biso   1.000  C
  C38      1.0000 0.65510  0.89450  0.52990  Biso   1.000  C
  C39      1.0000 0.67770  0.02550  0.53320  Biso   1.000  C
  C40      1.0000 0.71750  0.07230  0.51810  Biso   1.000  C
  C41      1.0000 0.73220  0.14480  0.53940  Biso   1.000  C
  C42      1.0000 0.70910  0.17210  0.57890  Biso   1.000  C
  C43      1.0000 0.67210  0.12690  0.59370  Biso   1.000  C
  C44      1.0000 0.65750  0.05610  0.57320  Biso   1.000  C
  C45      1.0000 0.57650  0.83070  0.38350  Biso   1.000  C
  C46      1.0000 0.50660  0.78760  0.36070  Biso   1.000  C
  C47      1.0000 0.48090  0.76510  0.31270  Biso   1.000  C
  C48      1.0000 0.52090  0.78310  0.28690  Biso   1.000  C
  C49      1.0000 0.58890  0.82470  0.30880  Biso   1.000  C
  C50      1.0000 0.61670  0.85010  0.35840  Biso   1.000  C
  C51      1.0000 0.49960  0.75920  0.23540  Biso   1.000  C
  C52      1.0000 0.72230  0.25150  0.59680  Biso   1.000  C
  C53      1.0000 0.88480  0.48440  0.62670  Biso   1.000  C
  C54      1.0000 0.37860  0.63940  0.98850  Biso   1.000  C
  C55      1.0000 0.40210  0.53150  0.13060  Biso   1.000  C
  C56      1.0000 0.42100  0.47060  0.14970  Biso   1.000  C
  C57      1.0000 0.40840  0.47380  0.19020  Biso   1.000  C
  C58      1.0000 0.43320  0.42260  0.21190  Biso   1.000  C
  C59      1.0000 0.46970  0.36930  0.19250  Biso   1.000  C
  C60      1.0000 0.47890  0.36530  0.15010  Biso   1.000  C
  C61      1.0000 0.45510  0.41590  0.12870  Biso   1.000  C
  C62      1.0000 0.49600  0.31540  0.21740  Biso   1.000  C
  C63      1.0000 0.52260  0.33960  0.26630  Biso   1.000  C
  C64      1.0000 0.54720  0.28980  0.28910  Biso   1.000  C
  C65      1.0000 0.54480  0.21860  0.26470  Biso   1.000  C
  C66      1.0000 0.51860  0.19440  0.21650  Biso   1.000  C
  C67      1.0000 0.49370  0.24230  0.19250  Biso   1.000  C
  C68      1.0000 0.57370  0.31410  0.34060  Biso   1.000  C
  C69      1.0000 0.53500  0.35980  0.36560  Biso   1.000  C
  C70      1.0000 0.55820  0.37900  0.41310  Biso   1.000  C
  C71      1.0000 0.61880  0.35840  0.43730  Biso   1.000  C
  C72      1.0000 0.65640  0.31160  0.41180  Biso   1.000  C
  C73      1.0000 0.63400  0.29140  0.36570  Biso   1.000  C
  C74      1.0000 0.51430  0.11630  0.19170  Biso   1.000  C
  C75      1.0000 0.45480  0.07880  0.15180  Biso   1.000  C
  C76      1.0000 0.44790  0.00490  0.13040  Biso   1.000  C
  C77      1.0000 0.49820  0.96740  0.14810  Biso   1.000  C
  C78      1.0000 0.56020  0.00480  0.18740  Biso   1.000  C
  C79      1.0000 0.56660  0.07740  0.20850  Biso   1.000  C
  C80      1.0000 0.60310  0.65690  0.10000  Biso   1.000  C
  C81      1.0000 0.66170  0.64710  0.07740  Biso   1.000  C
  C82      1.0000 0.65220  0.58860  0.03730  Biso   1.000  C
  C83      1.0000 0.70410  0.58230  0.01470  Biso   1.000  C
  C84      1.0000 0.76720  0.63500  0.03050  Biso   1.000  C
  C85      1.0000 0.77440  0.69460  0.07170  Biso   1.000  C
  C86      1.0000 0.72270  0.69850  0.09410  Biso   1.000  C
  C87      1.0000 0.82230  0.63070  0.00660  Biso   1.000  C
  C88      1.0000 0.80200  0.60420  0.95930  Biso   1.000  C
  C89      1.0000 0.85240  0.60220  0.93470  Biso   1.000  C
  C90      1.0000 0.92400  0.62740  0.95900  Biso   1.000  C
  C91      1.0000 0.94660  0.65480  0.00800  Biso   1.000  C
  C92      1.0000 0.89450  0.65510  0.02990  Biso   1.000  C
  C93      1.0000 0.02550  0.67770  0.03320  Biso   1.000  C
  C94      1.0000 0.07230  0.71750  0.01810  Biso   1.000  C
  C95      1.0000 0.14480  0.73220  0.03940  Biso   1.000  C
  C96      1.0000 0.17210  0.70910  0.07890  Biso   1.000  C
  C97      1.0000 0.12690  0.67210  0.09370  Biso   1.000  C
  C98      1.0000 0.05610  0.65750  0.07320  Biso   1.000  C
  C99      1.0000 0.83070  0.57650  0.88350  Biso   1.000  C
  C100     1.0000 0.78760  0.50660  0.86070  Biso   1.000  C
  C101     1.0000 0.76510  0.48090  0.81270  Biso   1.000  C
  C102     1.0000 0.78310  0.52090  0.78690  Biso   1.000  C
  C103     1.0000 0.82470  0.58890  0.80880  Biso   1.000  C
  C104     1.0000 0.85010  0.61670  0.85840  Biso   1.000  C
  C105     1.0000 0.75920  0.49960  0.73540  Biso   1.000  C
  C106     1.0000 0.25150  0.72230  0.09680  Biso   1.000  C
  C107     1.0000 0.48440  0.88480  0.12670  Biso   1.000  C
  C108     1.0000 0.63940  0.37860  0.48850  Biso   1.000  C
  O1       1.0000 0.70013  0.43595  0.61230  Biso   1.000  O
  O2       1.0000 0.71487  0.60993  0.63154  Biso   1.000  O
  O3       1.0000 0.60483  0.54917  0.58394  Biso   1.000  O
  O4       1.0000 0.52574  0.41280  0.59091  Biso   1.000  O
  O5       1.0000 0.58395  0.37925  0.65241  Biso   1.000  O
  O6       1.0000 0.43085  0.73335  0.21723  Biso   1.000  O
  O7       1.0000 0.54433  0.76587  0.21528  Biso   1.000  O
  O8       1.0000 0.69581  0.28061  0.63007  Biso   1.000  O
  O9       1.0000 0.75809  0.29011  0.58082  Biso   1.000  O
  O10      1.0000 0.85617  0.42983  0.59365  Biso   1.000  O
  O11      1.0000 0.85334  0.53454  0.64792  Biso   1.000  O
  O12      1.0000 0.40513  0.59657  0.00806  Biso   1.000  O
  O13      1.0000 0.36705  0.70395  0.00877  Biso   1.000  O
  O14      1.0000 0.43595  0.70013  0.11230  Biso   1.000  O
  O15      1.0000 0.60993  0.71487  0.13154  Biso   1.000  O
  O16      1.0000 0.54917  0.60483  0.08394  Biso   1.000  O
  O17      1.0000 0.41280  0.52574  0.09091  Biso   1.000  O
  O18      1.0000 0.37925  0.58395  0.15241  Biso   1.000  O
  O19      1.0000 0.73335  0.43085  0.71723  Biso   1.000  O
  O20      1.0000 0.76587  0.54433  0.71528  Biso   1.000  O
  O21      1.0000 0.28061  0.69581  0.13007  Biso   1.000  O
  O22      1.0000 0.29011  0.75809  0.08082  Biso   1.000  O
  O23      1.0000 0.42983  0.85617  0.09365  Biso   1.000  O
  O24      1.0000 0.53454  0.85334  0.14792  Biso   1.000  O
  O25      1.0000 0.59657  0.40513  0.50806  Biso   1.000  O
  O26      1.0000 0.70395  0.36705  0.50877  Biso   1.000  O
  Zn9      1.0000 0.46864  0.24504  0.84980  Biso   1.000  Zn
  Zn10     1.0000 0.55379  0.39121  0.92686  Biso   1.000  Zn
  Zn11     1.0000 0.62057  0.31613  0.84785  Biso   1.000  Zn
  Zn12     1.0000 0.61189  0.24407  0.92649  Biso   1.000  Zn
  Zn13     1.0000 0.24504  0.46864  0.34980  Biso   1.000  Zn
  Zn14     1.0000 0.39121  0.55379  0.42686  Biso   1.000  Zn
  Zn15     1.0000 0.31613  0.62057  0.34785  Biso   1.000  Zn
  Zn16     1.0000 0.24407  0.61189  0.42649  Biso   1.000  Zn
  H61      1.0000 0.61680  0.49020  0.79660  Biso   1.000  H
  H62      1.0000 0.57500  0.57600  0.75960  Biso   1.000  H
  H63      1.0000 0.49850  0.67230  0.86410  Biso   1.000  H
  H64      1.0000 0.53820  0.58640  0.90030  Biso   1.000  H
  H65      1.0000 0.47660  0.61140  0.71690  Biso   1.000  H
  H66      1.0000 0.43870  0.81490  0.71910  Biso   1.000  H
  H67      1.0000 0.52460  0.77380  0.84030  Biso   1.000  H
  H68      1.0000 0.50620  0.62320  0.65000  Biso   1.000  H
  H69      1.0000 0.46910  0.59230  0.57030  Biso   1.000  H
  H70      1.0000 0.30250  0.70530  0.57250  Biso   1.000  H
  H71      1.0000 0.33990  0.73970  0.65060  Biso   1.000  H
  H72      1.0000 0.58100  0.89480  0.86030  Biso   1.000  H
  H73      1.0000 0.59160  0.01900  0.89640  Biso   1.000  H
  H74      1.0000 0.40310  0.02130  0.80130  Biso   1.000  H
  H75      1.0000 0.39300  0.89880  0.76520  Biso   1.000  H
  H76      1.0000 0.39030  0.44690  0.97420  Biso   1.000  H
  H77      1.0000 0.30270  0.45790  0.01200  Biso   1.000  H
  H78      1.0000 0.18420  0.26840  0.91670  Biso   1.000  H
  H79      1.0000 0.27060  0.26280  0.87850  Biso   1.000  H
  H80      1.0000 0.24790  0.41330  0.05720  Biso   1.000  H
  H81      1.0000 0.04100  0.37340  0.05710  Biso   1.000  H
  H82      1.0000 0.09090  0.32710  0.93730  Biso   1.000  H
  H83      1.0000 0.94740  0.26560  0.00750  Biso   1.000  H
  H84      1.0000 0.82350  0.24290  0.97170  Biso   1.000  H
  H85      1.0000 0.85340  0.34380  0.88040  Biso   1.000  H
  H86      1.0000 0.97440  0.36680  0.91460  Biso   1.000  H
  H87      1.0000 0.22570  0.52210  0.12190  Biso   1.000  H
  H88      1.0000 0.26340  0.56580  0.20240  Biso   1.000  H
  H89      1.0000 0.16340  0.38240  0.20910  Biso   1.000  H
  H90      1.0000 0.11990  0.33730  0.12670  Biso   1.000  H
  H91      1.0000 0.49020  0.61680  0.29660  Biso   1.000  H
  H92      1.0000 0.57600  0.57500  0.25960  Biso   1.000  H
  H93      1.0000 0.67230  0.49850  0.36410  Biso   1.000  H
  H94      1.0000 0.58640  0.53820  0.40030  Biso   1.000  H
  H95      1.0000 0.61140  0.47660  0.21690  Biso   1.000  H
  H96      1.0000 0.81490  0.43870  0.21910  Biso   1.000  H
  H97      1.0000 0.77380  0.52460  0.34030  Biso   1.000  H
  H98      1.0000 0.62320  0.50620  0.15000  Biso   1.000  H
  H99      1.0000 0.59230  0.46910  0.07030  Biso   1.000  H
  H100     1.0000 0.70530  0.30250  0.07250  Biso   1.000  H
  H101     1.0000 0.73970  0.33990  0.15060  Biso   1.000  H
  H102     1.0000 0.89480  0.58100  0.36030  Biso   1.000  H
  H103     1.0000 0.01900  0.59160  0.39640  Biso   1.000  H
  H104     1.0000 0.02130  0.40310  0.30130  Biso   1.000  H
  H105     1.0000 0.89880  0.39300  0.26520  Biso   1.000  H
  H106     1.0000 0.44690  0.39030  0.47420  Biso   1.000  H
  H107     1.0000 0.45790  0.30270  0.51200  Biso   1.000  H
  H108     1.0000 0.26840  0.18420  0.41670  Biso   1.000  H
  H109     1.0000 0.26280  0.27060  0.37850  Biso   1.000  H
  H110     1.0000 0.41330  0.24790  0.55720  Biso   1.000  H
  H111     1.0000 0.37340  0.04100  0.55710  Biso   1.000  H
  H112     1.0000 0.32710  0.09090  0.43730  Biso   1.000  H
  H113     1.0000 0.26560  0.94740  0.50750  Biso   1.000  H
  H114     1.0000 0.24290  0.82350  0.47170  Biso   1.000  H
  H115     1.0000 0.34380  0.85340  0.38040  Biso   1.000  H
  H116     1.0000 0.36680  0.97440  0.41460  Biso   1.000  H
  H117     1.0000 0.52210  0.22570  0.62190  Biso   1.000  H
  H118     1.0000 0.56580  0.26340  0.70240  Biso   1.000  H
  H119     1.0000 0.38240  0.16340  0.70910  Biso   1.000  H
  H120     1.0000 0.33730  0.11990  0.62670  Biso   1.000  H
  C109     1.0000 0.59790  0.46850  0.86940  Biso   1.000  C
  C110     1.0000 0.57900  0.52940  0.85030  Biso   1.000  C
  C111     1.0000 0.59160  0.52620  0.80980  Biso   1.000  C
  C112     1.0000 0.56680  0.57740  0.78810  Biso   1.000  C
  C113     1.0000 0.53030  0.63070  0.80750  Biso   1.000  C
  C114     1.0000 0.52110  0.63470  0.84990  Biso   1.000  C
  C115     1.0000 0.54490  0.58410  0.87130  Biso   1.000  C
  C116     1.0000 0.50400  0.68460  0.78260  Biso   1.000  C
  C117     1.0000 0.47740  0.66040  0.73370  Biso   1.000  C
  C118     1.0000 0.45280  0.71020  0.71090  Biso   1.000  C
  C119     1.0000 0.45520  0.78140  0.73530  Biso   1.000  C
  C120     1.0000 0.48140  0.80560  0.78350  Biso   1.000  C
  C121     1.0000 0.50630  0.75770  0.80750  Biso   1.000  C
  C122     1.0000 0.42630  0.68590  0.65940  Biso   1.000  C
  C123     1.0000 0.46500  0.64020  0.63440  Biso   1.000  C
  C124     1.0000 0.44180  0.62100  0.58690  Biso   1.000  C
  C125     1.0000 0.38120  0.64160  0.56270  Biso   1.000  C
  C126     1.0000 0.34360  0.68840  0.58820  Biso   1.000  C
  C127     1.0000 0.36600  0.70860  0.63430  Biso   1.000  C
  C128     1.0000 0.48570  0.88370  0.80830  Biso   1.000  C
  C129     1.0000 0.54520  0.92120  0.84820  Biso   1.000  C
  C130     1.0000 0.55210  0.99510  0.86960  Biso   1.000  C
  C131     1.0000 0.50180  0.03260  0.85190  Biso   1.000  C
  C132     1.0000 0.43980  0.99520  0.81260  Biso   1.000  C
  C133     1.0000 0.43340  0.92260  0.79150  Biso   1.000  C
  C134     1.0000 0.39690  0.34310  0.90000  Biso   1.000  C
  C135     1.0000 0.33830  0.35290  0.92260  Biso   1.000  C
  C136     1.0000 0.34780  0.41140  0.96270  Biso   1.000  C
  C137     1.0000 0.29590  0.41770  0.98530  Biso   1.000  C
  C138     1.0000 0.23280  0.36500  0.96950  Biso   1.000  C
  C139     1.0000 0.22560  0.30540  0.92830  Biso   1.000  C
  C140     1.0000 0.27730  0.30150  0.90590  Biso   1.000  C
  C141     1.0000 0.17770  0.36930  0.99340  Biso   1.000  C
  C142     1.0000 0.19800  0.39580  0.04070  Biso   1.000  C
  C143     1.0000 0.14760  0.39780  0.06530  Biso   1.000  C
  C144     1.0000 0.07600  0.37260  0.04100  Biso   1.000  C
  C145     1.0000 0.05340  0.34520  0.99200  Biso   1.000  C
  C146     1.0000 0.10550  0.34490  0.97010  Biso   1.000  C
  C147     1.0000 0.97450  0.32230  0.96680  Biso   1.000  C
  C148     1.0000 0.92770  0.28250  0.98190  Biso   1.000  C
  C149     1.0000 0.85520  0.26780  0.96060  Biso   1.000  C
  C150     1.0000 0.82790  0.29090  0.92110  Biso   1.000  C
  C151     1.0000 0.87310  0.32790  0.90630  Biso   1.000  C
  C152     1.0000 0.94390  0.34250  0.92680  Biso   1.000  C
  C153     1.0000 0.16930  0.42350  0.11650  Biso   1.000  C
  C154     1.0000 0.21240  0.49340  0.13930  Biso   1.000  C
  C155     1.0000 0.23490  0.51910  0.18730  Biso   1.000  C
  C156     1.0000 0.21690  0.47910  0.21310  Biso   1.000  C
  C157     1.0000 0.17530  0.41110  0.19120  Biso   1.000  C
  C158     1.0000 0.14990  0.38330  0.14160  Biso   1.000  C
  C159     1.0000 0.24080  0.50040  0.26460  Biso   1.000  C
  C160     1.0000 0.74850  0.27770  0.90320  Biso   1.000  C
  C161     1.0000 0.51560  0.11520  0.87330  Biso   1.000  C
  C162     1.0000 0.36060  0.62140  0.51150  Biso   1.000  C
  C163     1.0000 0.46850  0.59790  0.36940  Biso   1.000  C
  C164     1.0000 0.52940  0.57900  0.35030  Biso   1.000  C
  C165     1.0000 0.52620  0.59160  0.30980  Biso   1.000  C
  C166     1.0000 0.57740  0.56680  0.28810  Biso   1.000  C
  C167     1.0000 0.63070  0.53030  0.30750  Biso   1.000  C
  C168     1.0000 0.63470  0.52110  0.34990  Biso   1.000  C
  C169     1.0000 0.58410  0.54490  0.37130  Biso   1.000  C
  C170     1.0000 0.68460  0.50400  0.28260  Biso   1.000  C
  C171     1.0000 0.66040  0.47740  0.23370  Biso   1.000  C
  C172     1.0000 0.71020  0.45280  0.21090  Biso   1.000  C
  C173     1.0000 0.78140  0.45520  0.23530  Biso   1.000  C
  C174     1.0000 0.80560  0.48140  0.28350  Biso   1.000  C
  C175     1.0000 0.75770  0.50630  0.30750  Biso   1.000  C
  C176     1.0000 0.68590  0.42630  0.15940  Biso   1.000  C
  C177     1.0000 0.64020  0.46500  0.13440  Biso   1.000  C
  C178     1.0000 0.62100  0.44180  0.08690  Biso   1.000  C
  C179     1.0000 0.64160  0.38120  0.06270  Biso   1.000  C
  C180     1.0000 0.68840  0.34360  0.08820  Biso   1.000  C
  C181     1.0000 0.70860  0.36600  0.13430  Biso   1.000  C
  C182     1.0000 0.88370  0.48570  0.30830  Biso   1.000  C
  C183     1.0000 0.92120  0.54520  0.34820  Biso   1.000  C
  C184     1.0000 0.99510  0.55210  0.36960  Biso   1.000  C
  C185     1.0000 0.03260  0.50180  0.35190  Biso   1.000  C
  C186     1.0000 0.99520  0.43980  0.31260  Biso   1.000  C
  C187     1.0000 0.92260  0.43340  0.29150  Biso   1.000  C
  C188     1.0000 0.34310  0.39690  0.40000  Biso   1.000  C
  C189     1.0000 0.35290  0.33830  0.42260  Biso   1.000  C
  C190     1.0000 0.41140  0.34780  0.46270  Biso   1.000  C
  C191     1.0000 0.41770  0.29590  0.48530  Biso   1.000  C
  C192     1.0000 0.36500  0.23280  0.46950  Biso   1.000  C
  C193     1.0000 0.30540  0.22560  0.42830  Biso   1.000  C
  C194     1.0000 0.30150  0.27730  0.40590  Biso   1.000  C
  C195     1.0000 0.36930  0.17770  0.49340  Biso   1.000  C
  C196     1.0000 0.39580  0.19800  0.54070  Biso   1.000  C
  C197     1.0000 0.39780  0.14760  0.56530  Biso   1.000  C
  C198     1.0000 0.37260  0.07600  0.54100  Biso   1.000  C
  C199     1.0000 0.34520  0.05340  0.49200  Biso   1.000  C
  C200     1.0000 0.34490  0.10550  0.47010  Biso   1.000  C
  C201     1.0000 0.32230  0.97450  0.46680  Biso   1.000  C
  C202     1.0000 0.28250  0.92770  0.48190  Biso   1.000  C
  C203     1.0000 0.26780  0.85520  0.46060  Biso   1.000  C
  C204     1.0000 0.29090  0.82790  0.42110  Biso   1.000  C
  C205     1.0000 0.32790  0.87310  0.40630  Biso   1.000  C
  C206     1.0000 0.34250  0.94390  0.42680  Biso   1.000  C
  C207     1.0000 0.42350  0.16930  0.61650  Biso   1.000  C
  C208     1.0000 0.49340  0.21240  0.63930  Biso   1.000  C
  C209     1.0000 0.51910  0.23490  0.68730  Biso   1.000  C
  C210     1.0000 0.47910  0.21690  0.71310  Biso   1.000  C
  C211     1.0000 0.41110  0.17530  0.69120  Biso   1.000  C
  C212     1.0000 0.38330  0.14990  0.64160  Biso   1.000  C
  C213     1.0000 0.50040  0.24080  0.76460  Biso   1.000  C
  C214     1.0000 0.27770  0.74850  0.40320  Biso   1.000  C
  C215     1.0000 0.11520  0.51560  0.37330  Biso   1.000  C
  C216     1.0000 0.62140  0.36060  0.01150  Biso   1.000  C
  O27      1.0000 0.56405  0.29987  0.88770  Biso   1.000  O
  O28      1.0000 0.39007  0.28513  0.86846  Biso   1.000  O
  O29      1.0000 0.45083  0.39517  0.91606  Biso   1.000  O
  O30      1.0000 0.58720  0.47426  0.90909  Biso   1.000  O
  O31      1.0000 0.62075  0.41605  0.84759  Biso   1.000  O
  O32      1.0000 0.26665  0.56915  0.28277  Biso   1.000  O
  O33      1.0000 0.23413  0.45567  0.28472  Biso   1.000  O
  O34      1.0000 0.71939  0.30419  0.86993  Biso   1.000  O
  O35      1.0000 0.70989  0.24191  0.91918  Biso   1.000  O
  O36      1.0000 0.57017  0.14383  0.90635  Biso   1.000  O
  O37      1.0000 0.46546  0.14666  0.85208  Biso   1.000  O
  O38      1.0000 0.40343  0.59487  0.49194  Biso   1.000  O
  O39      1.0000 0.29605  0.63295  0.49123  Biso   1.000  O
  O40      1.0000 0.29987  0.56405  0.38770  Biso   1.000  O
  O41      1.0000 0.28513  0.39007  0.36846  Biso   1.000  O
  O42      1.0000 0.39517  0.45083  0.41606  Biso   1.000  O
  O43      1.0000 0.47426  0.58720  0.40909  Biso   1.000  O
  O44      1.0000 0.41605  0.62075  0.34759  Biso   1.000  O
  O45      1.0000 0.56915  0.26665  0.78277  Biso   1.000  O
  O46      1.0000 0.45567  0.23413  0.78472  Biso   1.000  O
  O47      1.0000 0.30419  0.71939  0.36993  Biso   1.000  O
  O48      1.0000 0.24191  0.70989  0.41918  Biso   1.000  O
  O49      1.0000 0.14383  0.57017  0.40635  Biso   1.000  O
  O50      1.0000 0.14666  0.46546  0.35208  Biso   1.000  O
  O51      1.0000 0.59487  0.40343  0.99194  Biso   1.000  O
  O52      1.0000 0.63295  0.29605  0.99123  Biso   1.000  O
