data_image0
_cell_length_a       16.441
_cell_length_b       17.309
_cell_length_c       18.128
_cell_angle_alpha    92.439
_cell_angle_beta     90
_cell_angle_gamma    90

_symmetry_space_group_name_H-M    P 1
_symmetry_int_tables_number       1

loop_
  _symmetry_equiv_pos_as_xyz
  'x, y, z'

loop_
  _atom_site_label
  _atom_site_occupancy
  _atom_site_fract_x
  _atom_site_fract_y
  _atom_site_fract_z
  _atom_site_thermal_displace_type
  _atom_site_B_iso_or_equiv
  _atom_site_type_symbol
  Zn1      1.0000 0.49907  0.72403  0.22756  Biso   1.000  Zn
  Zn2      1.0000 0.00625  0.70831  0.79086  Biso   1.000  Zn
  Zn3      1.0000 0.00093  0.22403  0.72756  Biso   1.000  Zn
  Zn4      1.0000 0.49375  0.20831  0.29086  Biso   1.000  Zn
  H1       1.0000 0.82750  0.69360  0.52470  Biso   1.000  H
  H2       1.0000 0.82120  0.78350  0.53860  Biso   1.000  H
  H3       1.0000 0.69890  0.75570  0.61070  Biso   1.000  H
  H4       1.0000 0.73120  0.67040  0.61000  Biso   1.000  H
  H5       1.0000 0.77150  0.84770  0.30420  Biso   1.000  H
  H6       1.0000 0.81900  0.75520  0.39610  Biso   1.000  H
  H7       1.0000 0.78270  0.67130  0.39140  Biso   1.000  H
  H8       1.0000 0.82360  0.58650  0.60250  Biso   1.000  H
  H9       1.0000 0.24870  0.02180  0.75420  Biso   1.000  H
  H10      1.0000 0.52190  0.14500  0.53890  Biso   1.000  H
  H11      1.0000 0.68680  0.70170  0.47880  Biso   1.000  H
  H12      1.0000 0.70370  0.79060  0.47420  Biso   1.000  H
  H13      1.0000 0.86310  0.85870  0.79450  Biso   1.000  H
  H14      1.0000 0.14740  0.93720  0.78490  Biso   1.000  H
  H15      1.0000 0.48430  0.08450  0.64500  Biso   1.000  H
  H16      1.0000 0.15680  0.44100  0.72040  Biso   1.000  H
  H17      1.0000 0.26400  0.52410  0.74410  Biso   1.000  H
  H18      1.0000 0.31740  0.50110  0.96270  Biso   1.000  H
  H19      1.0000 0.29620  0.98690  0.53650  Biso   1.000  H
  H20      1.0000 0.99830  0.44150  0.66200  Biso   1.000  H
  H21      1.0000 0.68360  0.59500  0.40090  Biso   1.000  H
  H22      1.0000 0.22590  0.78410  0.62900  Biso   1.000  H
  H23      1.0000 0.23620  0.30230  0.87560  Biso   1.000  H
  H24      1.0000 0.04560  0.53640  0.74460  Biso   1.000  H
  H25      1.0000 0.75060  0.85020  0.70530  Biso   1.000  H
  H26      1.0000 0.33100  0.86730  0.60070  Biso   1.000  H
  H27      1.0000 0.60900  0.48250  0.41480  Biso   1.000  H
  H28      1.0000 0.34750  0.38220  0.89700  Biso   1.000  H
  H29      1.0000 0.49450  0.60400  0.85310  Biso   1.000  H
  H30      1.0000 0.33470  0.04840  0.43120  Biso   1.000  H
  H31      1.0000 0.88670  0.46700  0.59030  Biso   1.000  H
  H32      1.0000 0.65400  0.86060  0.22120  Biso   1.000  H
  H33      1.0000 0.35960  0.56440  0.07100  Biso   1.000  H
  H34      1.0000 0.44520  0.56020  0.27500  Biso   1.000  H
  H35      1.0000 0.48830  0.46540  0.35000  Biso   1.000  H
  H36      1.0000 0.53460  0.66900  0.96020  Biso   1.000  H
  H37      1.0000 0.67250  0.19360  0.02470  Biso   1.000  H
  H38      1.0000 0.67880  0.28350  0.03860  Biso   1.000  H
  H39      1.0000 0.80110  0.25570  0.11070  Biso   1.000  H
  H40      1.0000 0.76880  0.17040  0.11000  Biso   1.000  H
  H41      1.0000 0.72850  0.34770  0.80420  Biso   1.000  H
  H42      1.0000 0.68100  0.25520  0.89610  Biso   1.000  H
  H43      1.0000 0.71730  0.17130  0.89140  Biso   1.000  H
  H44      1.0000 0.67640  0.08650  0.10250  Biso   1.000  H
  H45      1.0000 0.25130  0.52180  0.25420  Biso   1.000  H
  H46      1.0000 0.97810  0.64500  0.03890  Biso   1.000  H
  H47      1.0000 0.81320  0.20170  0.97880  Biso   1.000  H
  H48      1.0000 0.79630  0.29060  0.97420  Biso   1.000  H
  H49      1.0000 0.63690  0.35870  0.29450  Biso   1.000  H
  H50      1.0000 0.35260  0.43720  0.28490  Biso   1.000  H
  H51      1.0000 0.01570  0.58450  0.14500  Biso   1.000  H
  H52      1.0000 0.34320  0.94100  0.22040  Biso   1.000  H
  H53      1.0000 0.23600  0.02410  0.24410  Biso   1.000  H
  H54      1.0000 0.18260  0.00110  0.46270  Biso   1.000  H
  H55      1.0000 0.20380  0.48690  0.03650  Biso   1.000  H
  H56      1.0000 0.50170  0.94150  0.16200  Biso   1.000  H
  H57      1.0000 0.81640  0.09500  0.90090  Biso   1.000  H
  H58      1.0000 0.27410  0.28410  0.12900  Biso   1.000  H
  H59      1.0000 0.26380  0.80230  0.37560  Biso   1.000  H
  H60      1.0000 0.45440  0.03640  0.24460  Biso   1.000  H
  H61      1.0000 0.74940  0.35020  0.20530  Biso   1.000  H
  H62      1.0000 0.16900  0.36730  0.10070  Biso   1.000  H
  H63      1.0000 0.89100  0.98250  0.91480  Biso   1.000  H
  H64      1.0000 0.15250  0.88220  0.39700  Biso   1.000  H
  H65      1.0000 0.00550  0.10400  0.35310  Biso   1.000  H
  H66      1.0000 0.16530  0.54840  0.93120  Biso   1.000  H
  H67      1.0000 0.61330  0.96700  0.09030  Biso   1.000  H
  H68      1.0000 0.84600  0.36060  0.72120  Biso   1.000  H
  H69      1.0000 0.14040  0.06440  0.57100  Biso   1.000  H
  H70      1.0000 0.05480  0.06020  0.77500  Biso   1.000  H
  H71      1.0000 0.01170  0.96540  0.85000  Biso   1.000  H
  H72      1.0000 0.96540  0.16900  0.46020  Biso   1.000  H
  C1       1.0000 0.64490  0.71570  0.31244  Biso   1.000  C
  C2       1.0000 0.45300  0.14390  0.40560  Biso   1.000  C
  C3       1.0000 0.79000  0.73590  0.53510  Biso   1.000  C
  C4       1.0000 0.74770  0.72410  0.60801  Biso   1.000  C
  C5       1.0000 0.86550  0.70780  0.69926  Biso   1.000  C
  C6       1.0000 0.72760  0.81400  0.29920  Biso   1.000  C
  C7       1.0000 0.76890  0.72570  0.39779  Biso   1.000  C
  C8       1.0000 0.89920  0.63080  0.68102  Biso   1.000  C
  C9       1.0000 0.11250  0.79580  0.73430  Biso   1.000  C
  C10      1.0000 0.17590  0.85130  0.71050  Biso   1.000  C
  C11      1.0000 0.18500  0.36310  0.79520  Biso   1.000  C
  C12      1.0000 0.40270  0.54490  0.89800  Biso   1.000  C
  C13      1.0000 0.47360  0.66740  0.09730  Biso   1.000  C
  C14      1.0000 0.30000  0.95120  0.67580  Biso   1.000  C
  C15      1.0000 0.38590  0.03060  0.60120  Biso   1.000  C
  C16      1.0000 0.86890  0.57580  0.63100  Biso   1.000  C
  C17      1.0000 0.24480  0.97350  0.73000  Biso   1.000  C
  C18      1.0000 0.47600  0.11340  0.53830  Biso   1.000  C
  C19      1.0000 0.72910  0.74000  0.47241  Biso   1.000  C
  C20      1.0000 0.31520  0.46110  0.82340  Biso   1.000  C
  C21      1.0000 0.60500  0.64300  0.33119  Biso   1.000  C
  C22      1.0000 0.85320  0.81770  0.76090  Biso   1.000  C
  C23      1.0000 0.45070  0.62410  0.02730  Biso   1.000  C
  C24      1.0000 0.18390  0.92310  0.74750  Biso   1.000  C
  C25      1.0000 0.45370  0.07730  0.60210  Biso   1.000  C
  C26      1.0000 0.19460  0.42950  0.75650  Biso   1.000  C
  C27      1.0000 0.25870  0.47920  0.77020  Biso   1.000  C
  C28      1.0000 0.36180  0.53430  0.96220  Biso   1.000  C
  C29      1.0000 0.34150  0.01910  0.53740  Biso   1.000  C
  C30      1.0000 0.97260  0.48940  0.66610  Biso   1.000  C
  C31      1.0000 0.63450  0.58750  0.37610  Biso   1.000  C
  C32      1.0000 0.43140  0.10340  0.47390  Biso   1.000  C
  C33      1.0000 0.23110  0.83140  0.65490  Biso   1.000  C
  C34      1.0000 0.24230  0.34650  0.84860  Biso   1.000  C
  C35      1.0000 0.00090  0.54680  0.71520  Biso   1.000  C
  C36      1.0000 0.79100  0.81350  0.71140  Biso   1.000  C
  C37      1.0000 0.29380  0.88110  0.63750  Biso   1.000  C
  C38      1.0000 0.59040  0.52030  0.38400  Biso   1.000  C
  C39      1.0000 0.30840  0.39450  0.86230  Biso   1.000  C
  C40      1.0000 0.46720  0.59600  0.89710  Biso   1.000  C
  C41      1.0000 0.36490  0.05600  0.47430  Biso   1.000  C
  C42      1.0000 0.90650  0.50460  0.62390  Biso   1.000  C
  C43      1.0000 0.66240  0.82070  0.25310  Biso   1.000  C
  C44      1.0000 0.38670  0.57310  0.02710  Biso   1.000  C
  C45      1.0000 0.49320  0.56750  0.30160  Biso   1.000  C
  C46      1.0000 0.51880  0.51030  0.34580  Biso   1.000  C
  C47      1.0000 0.49090  0.63490  0.96120  Biso   1.000  C
  C48      1.0000 0.11620  0.30870  0.77710  Biso   1.000  C
  C49      1.0000 0.85510  0.21570  0.81244  Biso   1.000  C
  C50      1.0000 0.04700  0.64390  0.90560  Biso   1.000  C
  C51      1.0000 0.71000  0.23590  0.03510  Biso   1.000  C
  C52      1.0000 0.75230  0.22410  0.10801  Biso   1.000  C
  C53      1.0000 0.63450  0.20780  0.19926  Biso   1.000  C
  C54      1.0000 0.77240  0.31400  0.79920  Biso   1.000  C
  C55      1.0000 0.73110  0.22570  0.89779  Biso   1.000  C
  C56      1.0000 0.60080  0.13080  0.18102  Biso   1.000  C
  C57      1.0000 0.38750  0.29580  0.23430  Biso   1.000  C
  C58      1.0000 0.32410  0.35130  0.21050  Biso   1.000  C
  C59      1.0000 0.31500  0.86310  0.29520  Biso   1.000  C
  C60      1.0000 0.09730  0.04490  0.39800  Biso   1.000  C
  C61      1.0000 0.02640  0.16740  0.59730  Biso   1.000  C
  C62      1.0000 0.20000  0.45120  0.17580  Biso   1.000  C
  C63      1.0000 0.11410  0.53060  0.10120  Biso   1.000  C
  C64      1.0000 0.63110  0.07580  0.13100  Biso   1.000  C
  C65      1.0000 0.25520  0.47350  0.23000  Biso   1.000  C
  C66      1.0000 0.02400  0.61340  0.03830  Biso   1.000  C
  C67      1.0000 0.77090  0.24000  0.97241  Biso   1.000  C
  C68      1.0000 0.18480  0.96110  0.32340  Biso   1.000  C
  C69      1.0000 0.89500  0.14300  0.83119  Biso   1.000  C
  C70      1.0000 0.64680  0.31770  0.26090  Biso   1.000  C
  C71      1.0000 0.04930  0.12410  0.52730  Biso   1.000  C
  C72      1.0000 0.31610  0.42310  0.24750  Biso   1.000  C
  C73      1.0000 0.04630  0.57730  0.10210  Biso   1.000  C
  C74      1.0000 0.30540  0.92950  0.25650  Biso   1.000  C
  C75      1.0000 0.24130  0.97920  0.27020  Biso   1.000  C
  C76      1.0000 0.13820  0.03430  0.46220  Biso   1.000  C
  C77      1.0000 0.15850  0.51910  0.03740  Biso   1.000  C
  C78      1.0000 0.52740  0.98940  0.16610  Biso   1.000  C
  C79      1.0000 0.86550  0.08750  0.87610  Biso   1.000  C
  C80      1.0000 0.06860  0.60340  0.97390  Biso   1.000  C
  C81      1.0000 0.26890  0.33140  0.15490  Biso   1.000  C
  C82      1.0000 0.25770  0.84650  0.34860  Biso   1.000  C
  C83      1.0000 0.49910  0.04680  0.21520  Biso   1.000  C
  C84      1.0000 0.70900  0.31350  0.21140  Biso   1.000  C
  C85      1.0000 0.20620  0.38110  0.13750  Biso   1.000  C
  C86      1.0000 0.90960  0.02030  0.88400  Biso   1.000  C
  C87      1.0000 0.19160  0.89450  0.36230  Biso   1.000  C
  C88      1.0000 0.03280  0.09600  0.39710  Biso   1.000  C
  C89      1.0000 0.13510  0.55600  0.97430  Biso   1.000  C
  C90      1.0000 0.59350  0.00460  0.12390  Biso   1.000  C
  C91      1.0000 0.83760  0.32070  0.75310  Biso   1.000  C
  C92      1.0000 0.11330  0.07310  0.52710  Biso   1.000  C
  C93      1.0000 0.00680  0.06750  0.80160  Biso   1.000  C
  C94      1.0000 0.98120  0.01030  0.84580  Biso   1.000  C
  C95      1.0000 0.00910  0.13490  0.46120  Biso   1.000  C
  C96      1.0000 0.38380  0.80870  0.27710  Biso   1.000  C
  N1       1.0000 0.79982  0.74419  0.67217  Biso   1.000  N
  N2       1.0000 0.71538  0.74767  0.33674  Biso   1.000  N
  N3       1.0000 0.96636  0.61595  0.72173  Biso   1.000  N
  N4       1.0000 0.53370  0.63285  0.29487  Biso   1.000  N
  N5       1.0000 0.61170  0.75924  0.26147  Biso   1.000  N
  N6       1.0000 0.89869  0.75176  0.75318  Biso   1.000  N
  N7       1.0000 0.70018  0.24419  0.17217  Biso   1.000  N
  N8       1.0000 0.78462  0.24767  0.83674  Biso   1.000  N
  N9       1.0000 0.53364  0.11595  0.22173  Biso   1.000  N
  N10      1.0000 0.96630  0.13285  0.79487  Biso   1.000  N
  N11      1.0000 0.88830  0.25924  0.76147  Biso   1.000  N
  N12      1.0000 0.60131  0.25176  0.25318  Biso   1.000  N
  O1       1.0000 0.51630  0.18637  0.40457  Biso   1.000  O
  O2       1.0000 0.36644  0.00044  0.66821  Biso   1.000  O
  O3       1.0000 0.40861  0.13614  0.34937  Biso   1.000  O
  O4       1.0000 0.07397  0.81035  0.79354  Biso   1.000  O
  O5       1.0000 0.38245  0.50975  0.83038  Biso   1.000  O
  O6       1.0000 0.09910  0.73530  0.69737  Biso   1.000  O
  O7       1.0000 0.52720  0.71810  0.09891  Biso   1.000  O
  O8       1.0000 0.43500  0.65171  0.15544  Biso   1.000  O
  O9       1.0000 0.06827  0.32400  0.72590  Biso   1.000  O
  O10      1.0000 0.10700  0.24900  0.81210  Biso   1.000  O
  O11      1.0000 0.98370  0.68637  0.90457  Biso   1.000  O
  O12      1.0000 0.13356  0.50044  0.16821  Biso   1.000  O
  O13      1.0000 0.09139  0.63614  0.84937  Biso   1.000  O
  O14      1.0000 0.42603  0.31035  0.29354  Biso   1.000  O
  O15      1.0000 0.11755  0.00975  0.33038  Biso   1.000  O
  O16      1.0000 0.40090  0.23530  0.19737  Biso   1.000  O
  O17      1.0000 0.97280  0.21810  0.59891  Biso   1.000  O
  O18      1.0000 0.06500  0.15171  0.65544  Biso   1.000  O
  O19      1.0000 0.43173  0.82400  0.22590  Biso   1.000  O
  O20      1.0000 0.39300  0.74900  0.31210  Biso   1.000  O
  Zn5      1.0000 0.99907  0.77597  0.27244  Biso   1.000  Zn
  Zn6      1.0000 0.50625  0.79169  0.70914  Biso   1.000  Zn
  Zn7      1.0000 0.50093  0.27597  0.77244  Biso   1.000  Zn
  Zn8      1.0000 0.99375  0.29169  0.20914  Biso   1.000  Zn
  H73      1.0000 0.32750  0.80640  0.97530  Biso   1.000  H
  H74      1.0000 0.32120  0.71650  0.96140  Biso   1.000  H
  H75      1.0000 0.19890  0.74430  0.88930  Biso   1.000  H
  H76      1.0000 0.23120  0.82960  0.89000  Biso   1.000  H
  H77      1.0000 0.27150  0.65230  0.19580  Biso   1.000  H
  H78      1.0000 0.31900  0.74480  0.10390  Biso   1.000  H
  H79      1.0000 0.28270  0.82870  0.10860  Biso   1.000  H
  H80      1.0000 0.32360  0.91350  0.89750  Biso   1.000  H
  H81      1.0000 0.74870  0.47820  0.74580  Biso   1.000  H
  H82      1.0000 0.02190  0.35500  0.96110  Biso   1.000  H
  H83      1.0000 0.18680  0.79830  0.02120  Biso   1.000  H
  H84      1.0000 0.20370  0.70940  0.02580  Biso   1.000  H
  H85      1.0000 0.36310  0.64130  0.70550  Biso   1.000  H
  H86      1.0000 0.64740  0.56280  0.71510  Biso   1.000  H
  H87      1.0000 0.98430  0.41550  0.85500  Biso   1.000  H
  H88      1.0000 0.65680  0.05900  0.77960  Biso   1.000  H
  H89      1.0000 0.76400  0.97590  0.75590  Biso   1.000  H
  H90      1.0000 0.81740  0.99890  0.53730  Biso   1.000  H
  H91      1.0000 0.79620  0.51310  0.96350  Biso   1.000  H
  H92      1.0000 0.49830  0.05850  0.83800  Biso   1.000  H
  H93      1.0000 0.18360  0.90500  0.09910  Biso   1.000  H
  H94      1.0000 0.72590  0.71590  0.87100  Biso   1.000  H
  H95      1.0000 0.73620  0.19770  0.62440  Biso   1.000  H
  H96      1.0000 0.54560  0.96360  0.75540  Biso   1.000  H
  H97      1.0000 0.25060  0.64980  0.79470  Biso   1.000  H
  H98      1.0000 0.83100  0.63270  0.89930  Biso   1.000  H
  H99      1.0000 0.10900  0.01750  0.08520  Biso   1.000  H
  H100     1.0000 0.84750  0.11780  0.60300  Biso   1.000  H
  H101     1.0000 0.99450  0.89600  0.64690  Biso   1.000  H
  H102     1.0000 0.83470  0.45160  0.06880  Biso   1.000  H
  H103     1.0000 0.38670  0.03300  0.90970  Biso   1.000  H
  H104     1.0000 0.15400  0.63940  0.27880  Biso   1.000  H
  H105     1.0000 0.85960  0.93560  0.42900  Biso   1.000  H
  H106     1.0000 0.94520  0.93980  0.22500  Biso   1.000  H
  H107     1.0000 0.98830  0.03460  0.15000  Biso   1.000  H
  H108     1.0000 0.03460  0.83100  0.53980  Biso   1.000  H
  H109     1.0000 0.17250  0.30640  0.47530  Biso   1.000  H
  H110     1.0000 0.17880  0.21650  0.46140  Biso   1.000  H
  H111     1.0000 0.30110  0.24430  0.38930  Biso   1.000  H
  H112     1.0000 0.26880  0.32960  0.39000  Biso   1.000  H
  H113     1.0000 0.22850  0.15230  0.69580  Biso   1.000  H
  H114     1.0000 0.18100  0.24480  0.60390  Biso   1.000  H
  H115     1.0000 0.21730  0.32870  0.60860  Biso   1.000  H
  H116     1.0000 0.17640  0.41350  0.39750  Biso   1.000  H
  H117     1.0000 0.75130  0.97820  0.24580  Biso   1.000  H
  H118     1.0000 0.47810  0.85500  0.46110  Biso   1.000  H
  H119     1.0000 0.31320  0.29830  0.52120  Biso   1.000  H
  H120     1.0000 0.29630  0.20940  0.52580  Biso   1.000  H
  H121     1.0000 0.13690  0.14130  0.20550  Biso   1.000  H
  H122     1.0000 0.85260  0.06280  0.21510  Biso   1.000  H
  H123     1.0000 0.51570  0.91550  0.35500  Biso   1.000  H
  H124     1.0000 0.84320  0.55900  0.27960  Biso   1.000  H
  H125     1.0000 0.73600  0.47590  0.25590  Biso   1.000  H
  H126     1.0000 0.68260  0.49890  0.03730  Biso   1.000  H
  H127     1.0000 0.70380  0.01310  0.46350  Biso   1.000  H
  H128     1.0000 0.00170  0.55850  0.33800  Biso   1.000  H
  H129     1.0000 0.31640  0.40500  0.59910  Biso   1.000  H
  H130     1.0000 0.77410  0.21590  0.37100  Biso   1.000  H
  H131     1.0000 0.76380  0.69770  0.12440  Biso   1.000  H
  H132     1.0000 0.95440  0.46360  0.25540  Biso   1.000  H
  H133     1.0000 0.24940  0.14980  0.29470  Biso   1.000  H
  H134     1.0000 0.66900  0.13270  0.39930  Biso   1.000  H
  H135     1.0000 0.39100  0.51750  0.58520  Biso   1.000  H
  H136     1.0000 0.65250  0.61780  0.10300  Biso   1.000  H
  H137     1.0000 0.50550  0.39600  0.14690  Biso   1.000  H
  H138     1.0000 0.66530  0.95160  0.56880  Biso   1.000  H
  H139     1.0000 0.11330  0.53300  0.40970  Biso   1.000  H
  H140     1.0000 0.34600  0.13940  0.77880  Biso   1.000  H
  H141     1.0000 0.64040  0.43560  0.92900  Biso   1.000  H
  H142     1.0000 0.55480  0.43980  0.72500  Biso   1.000  H
  H143     1.0000 0.51170  0.53460  0.65000  Biso   1.000  H
  H144     1.0000 0.46540  0.33100  0.03980  Biso   1.000  H
  C97      1.0000 0.14490  0.78430  0.18756  Biso   1.000  C
  C98      1.0000 0.95300  0.35610  0.09440  Biso   1.000  C
  C99      1.0000 0.29000  0.76410  0.96490  Biso   1.000  C
  C100     1.0000 0.24770  0.77590  0.89199  Biso   1.000  C
  C101     1.0000 0.36550  0.79220  0.80074  Biso   1.000  C
  C102     1.0000 0.22760  0.68600  0.20080  Biso   1.000  C
  C103     1.0000 0.26890  0.77430  0.10221  Biso   1.000  C
  C104     1.0000 0.39920  0.86920  0.81898  Biso   1.000  C
  C105     1.0000 0.61250  0.70420  0.76570  Biso   1.000  C
  C106     1.0000 0.67590  0.64870  0.78950  Biso   1.000  C
  C107     1.0000 0.68500  0.13690  0.70480  Biso   1.000  C
  C108     1.0000 0.90270  0.95510  0.60200  Biso   1.000  C
  C109     1.0000 0.97360  0.83260  0.40270  Biso   1.000  C
  C110     1.0000 0.80000  0.54880  0.82420  Biso   1.000  C
  C111     1.0000 0.88590  0.46940  0.89880  Biso   1.000  C
  C112     1.0000 0.36890  0.92420  0.86900  Biso   1.000  C
  C113     1.0000 0.74480  0.52650  0.77000  Biso   1.000  C
  C114     1.0000 0.97600  0.38660  0.96170  Biso   1.000  C
  C115     1.0000 0.22910  0.76000  0.02759  Biso   1.000  C
  C116     1.0000 0.81520  0.03890  0.67660  Biso   1.000  C
  C117     1.0000 0.10500  0.85700  0.16881  Biso   1.000  C
  C118     1.0000 0.35320  0.68230  0.73910  Biso   1.000  C
  C119     1.0000 0.95070  0.87590  0.47270  Biso   1.000  C
  C120     1.0000 0.68390  0.57690  0.75250  Biso   1.000  C
  C121     1.0000 0.95370  0.42270  0.89790  Biso   1.000  C
  C122     1.0000 0.69460  0.07050  0.74350  Biso   1.000  C
  C123     1.0000 0.75870  0.02080  0.72980  Biso   1.000  C
  C124     1.0000 0.86180  0.96570  0.53780  Biso   1.000  C
  C125     1.0000 0.84150  0.48090  0.96260  Biso   1.000  C
  C126     1.0000 0.47260  0.01060  0.83390  Biso   1.000  C
  C127     1.0000 0.13450  0.91250  0.12390  Biso   1.000  C
  C128     1.0000 0.93140  0.39660  0.02610  Biso   1.000  C
  C129     1.0000 0.73110  0.66860  0.84510  Biso   1.000  C
  C130     1.0000 0.74230  0.15350  0.65140  Biso   1.000  C
  C131     1.0000 0.50090  0.95320  0.78480  Biso   1.000  C
  C132     1.0000 0.29100  0.68650  0.78860  Biso   1.000  C
  C133     1.0000 0.79380  0.61890  0.86250  Biso   1.000  C
  C134     1.0000 0.09040  0.97970  0.11600  Biso   1.000  C
  C135     1.0000 0.80840  0.10550  0.63770  Biso   1.000  C
  C136     1.0000 0.96720  0.90400  0.60290  Biso   1.000  C
  C137     1.0000 0.86490  0.44400  0.02570  Biso   1.000  C
  C138     1.0000 0.40650  0.99540  0.87610  Biso   1.000  C
  C139     1.0000 0.16240  0.67930  0.24690  Biso   1.000  C
  C140     1.0000 0.88670  0.92690  0.47290  Biso   1.000  C
  C141     1.0000 0.99320  0.93250  0.19840  Biso   1.000  C
  C142     1.0000 0.01880  0.98970  0.15420  Biso   1.000  C
  C143     1.0000 0.99090  0.86510  0.53880  Biso   1.000  C
  C144     1.0000 0.61620  0.19130  0.72290  Biso   1.000  C
  C145     1.0000 0.35510  0.28430  0.68756  Biso   1.000  C
  C146     1.0000 0.54700  0.85610  0.59440  Biso   1.000  C
  C147     1.0000 0.21000  0.26410  0.46490  Biso   1.000  C
  C148     1.0000 0.25230  0.27590  0.39199  Biso   1.000  C
  C149     1.0000 0.13450  0.29220  0.30074  Biso   1.000  C
  C150     1.0000 0.27240  0.18600  0.70080  Biso   1.000  C
  C151     1.0000 0.23110  0.27430  0.60221  Biso   1.000  C
  C152     1.0000 0.10080  0.36920  0.31898  Biso   1.000  C
  C153     1.0000 0.88750  0.20420  0.26570  Biso   1.000  C
  C154     1.0000 0.82410  0.14870  0.28950  Biso   1.000  C
  C155     1.0000 0.81500  0.63690  0.20480  Biso   1.000  C
  C156     1.0000 0.59730  0.45510  0.10200  Biso   1.000  C
  C157     1.0000 0.52640  0.33260  0.90270  Biso   1.000  C
  C158     1.0000 0.70000  0.04880  0.32420  Biso   1.000  C
  C159     1.0000 0.61410  0.96940  0.39880  Biso   1.000  C
  C160     1.0000 0.13110  0.42420  0.36900  Biso   1.000  C
  C161     1.0000 0.75520  0.02650  0.27000  Biso   1.000  C
  C162     1.0000 0.52400  0.88660  0.46170  Biso   1.000  C
  C163     1.0000 0.27090  0.26000  0.52759  Biso   1.000  C
  C164     1.0000 0.68480  0.53890  0.17660  Biso   1.000  C
  C165     1.0000 0.39500  0.35700  0.66881  Biso   1.000  C
  C166     1.0000 0.14680  0.18230  0.23910  Biso   1.000  C
  C167     1.0000 0.54930  0.37590  0.97270  Biso   1.000  C
  C168     1.0000 0.81610  0.07690  0.25250  Biso   1.000  C
  C169     1.0000 0.54630  0.92270  0.39790  Biso   1.000  C
  C170     1.0000 0.80540  0.57050  0.24350  Biso   1.000  C
  C171     1.0000 0.74130  0.52080  0.22980  Biso   1.000  C
  C172     1.0000 0.63820  0.46570  0.03780  Biso   1.000  C
  C173     1.0000 0.65850  0.98090  0.46260  Biso   1.000  C
  C174     1.0000 0.02740  0.51060  0.33390  Biso   1.000  C
  C175     1.0000 0.36550  0.41250  0.62390  Biso   1.000  C
  C176     1.0000 0.56860  0.89660  0.52610  Biso   1.000  C
  C177     1.0000 0.76890  0.16860  0.34510  Biso   1.000  C
  C178     1.0000 0.75770  0.65350  0.15140  Biso   1.000  C
  C179     1.0000 0.99910  0.45320  0.28480  Biso   1.000  C
  C180     1.0000 0.20900  0.18650  0.28860  Biso   1.000  C
  C181     1.0000 0.70620  0.11890  0.36250  Biso   1.000  C
  C182     1.0000 0.40960  0.47970  0.61600  Biso   1.000  C
  C183     1.0000 0.69160  0.60550  0.13770  Biso   1.000  C
  C184     1.0000 0.53280  0.40400  0.10290  Biso   1.000  C
  C185     1.0000 0.63510  0.94400  0.52570  Biso   1.000  C
  C186     1.0000 0.09350  0.49540  0.37610  Biso   1.000  C
  C187     1.0000 0.33760  0.17930  0.74690  Biso   1.000  C
  C188     1.0000 0.61330  0.42690  0.97290  Biso   1.000  C
  C189     1.0000 0.50680  0.43250  0.69840  Biso   1.000  C
  C190     1.0000 0.48120  0.48970  0.65420  Biso   1.000  C
  C191     1.0000 0.50910  0.36510  0.03880  Biso   1.000  C
  C192     1.0000 0.88380  0.69130  0.22290  Biso   1.000  C
  N13      1.0000 0.29982  0.75581  0.82783  Biso   1.000  N
  N14      1.0000 0.21538  0.75233  0.16326  Biso   1.000  N
  N15      1.0000 0.46636  0.88405  0.77827  Biso   1.000  N
  N16      1.0000 0.03370  0.86715  0.20513  Biso   1.000  N
  N17      1.0000 0.11170  0.74076  0.23853  Biso   1.000  N
  N18      1.0000 0.39869  0.74824  0.74682  Biso   1.000  N
  N19      1.0000 0.20018  0.25581  0.32783  Biso   1.000  N
  N20      1.0000 0.28462  0.25233  0.66326  Biso   1.000  N
  N21      1.0000 0.03364  0.38405  0.27827  Biso   1.000  N
  N22      1.0000 0.46630  0.36715  0.70513  Biso   1.000  N
  N23      1.0000 0.38830  0.24076  0.73853  Biso   1.000  N
  N24      1.0000 0.10131  0.24824  0.24682  Biso   1.000  N
  O21      1.0000 0.01630  0.31363  0.09543  Biso   1.000  O
  O22      1.0000 0.86644  0.49956  0.83179  Biso   1.000  O
  O23      1.0000 0.90861  0.36386  0.15063  Biso   1.000  O
  O24      1.0000 0.57397  0.68965  0.70646  Biso   1.000  O
  O25      1.0000 0.88245  0.99025  0.66962  Biso   1.000  O
  O26      1.0000 0.59910  0.76470  0.80263  Biso   1.000  O
  O27      1.0000 0.02720  0.78190  0.40109  Biso   1.000  O
  O28      1.0000 0.93500  0.84829  0.34456  Biso   1.000  O
  O29      1.0000 0.56827  0.17600  0.77410  Biso   1.000  O
  O30      1.0000 0.60700  0.25100  0.68790  Biso   1.000  O
  O31      1.0000 0.48370  0.81363  0.59543  Biso   1.000  O
  O32      1.0000 0.63356  0.99956  0.33179  Biso   1.000  O
  O33      1.0000 0.59139  0.86386  0.65063  Biso   1.000  O
  O34      1.0000 0.92603  0.18965  0.20646  Biso   1.000  O
  O35      1.0000 0.61755  0.49025  0.16962  Biso   1.000  O
  O36      1.0000 0.90090  0.26470  0.30263  Biso   1.000  O
  O37      1.0000 0.47280  0.28190  0.90109  Biso   1.000  O
  O38      1.0000 0.56500  0.34829  0.84456  Biso   1.000  O
  O39      1.0000 0.93173  0.67600  0.27410  Biso   1.000  O
  O40      1.0000 0.89300  0.75100  0.18790  Biso   1.000  O
