data_image0
_cell_length_a       30.2949
_cell_length_b       30.2949
_cell_length_c       30.2949
_cell_angle_alpha    60
_cell_angle_beta     60
_cell_angle_gamma    60

_symmetry_space_group_name_H-M    P 1
_symmetry_int_tables_number       1

loop_
  _symmetry_equiv_pos_as_xyz
  'x, y, z'

loop_
  _atom_site_label
  _atom_site_occupancy
  _atom_site_fract_x
  _atom_site_fract_y
  _atom_site_fract_z
  _atom_site_thermal_displace_type
  _atom_site_B_iso_or_equiv
  _atom_site_type_symbol
  Zn1      1.0000 0.74227  0.00000  0.00000  Biso   1.000  Zn
  Zn2      1.0000 0.64221  0.00000  0.00000  Biso   1.000  Zn
  Zn3      1.0000 0.00000  0.74227  0.25773  Biso   1.000  Zn
  Zn4      1.0000 0.00000  0.64221  0.35779  Biso   1.000  Zn
  Zn5      1.0000 1.00000  0.25773  0.74227  Biso   1.000  Zn
  Zn6      1.0000 0.00000  0.35779  0.64221  Biso   1.000  Zn
  Zn7      1.0000 0.25773  0.00000  0.00000  Biso   1.000  Zn
  Zn8      1.0000 0.35779  0.00000  0.00000  Biso   1.000  Zn
  Zn9      1.0000 0.74227  0.00000  0.25773  Biso   1.000  Zn
  Zn10     1.0000 0.64221  0.00000  0.35779  Biso   1.000  Zn
  Zn11     1.0000 0.00000  0.25773  0.00000  Biso   1.000  Zn
  Zn12     1.0000 1.00000  0.35779  0.00000  Biso   1.000  Zn
  Zn13     1.0000 0.00000  0.74227  0.00000  Biso   1.000  Zn
  Zn14     1.0000 0.00000  0.64221  0.00000  Biso   1.000  Zn
  Zn15     1.0000 0.25773  0.00000  0.74227  Biso   1.000  Zn
  Zn16     1.0000 0.35779  0.00000  0.64221  Biso   1.000  Zn
  Zn17     1.0000 0.74227  0.25773  0.00000  Biso   1.000  Zn
  Zn18     1.0000 0.64221  0.35779  0.00000  Biso   1.000  Zn
  Zn19     1.0000 1.00000  0.00000  0.74227  Biso   1.000  Zn
  Zn20     1.0000 0.00000  0.00000  0.64221  Biso   1.000  Zn
  Zn21     1.0000 0.00000  0.00000  0.25773  Biso   1.000  Zn
  Zn22     1.0000 0.00000  0.00000  0.35779  Biso   1.000  Zn
  Zn23     1.0000 0.25773  0.74227  0.00000  Biso   1.000  Zn
  Zn24     1.0000 0.35779  0.64221  0.00000  Biso   1.000  Zn
  H1       1.0000 0.55830  0.96610  0.17070  Biso   1.000  H
  H2       1.0000 0.96610  0.55830  0.30490  Biso   1.000  H
  H3       1.0000 0.17070  0.30490  0.55830  Biso   1.000  H
  H4       1.0000 0.30490  0.17070  0.96610  Biso   1.000  H
  H5       1.0000 0.55830  0.17070  0.30490  Biso   1.000  H
  H6       1.0000 0.96610  0.30490  0.17070  Biso   1.000  H
  H7       1.0000 0.17070  0.55830  0.96610  Biso   1.000  H
  H8       1.0000 0.30490  0.96610  0.55830  Biso   1.000  H
  H9       1.0000 0.55830  0.30490  0.96610  Biso   1.000  H
  H10      1.0000 0.96610  0.17070  0.55830  Biso   1.000  H
  H11      1.0000 0.17070  0.96610  0.30490  Biso   1.000  H
  H12      1.0000 0.30490  0.55830  0.17070  Biso   1.000  H
  H13      1.0000 0.03390  0.44170  0.82930  Biso   1.000  H
  H14      1.0000 0.44170  0.03390  0.69510  Biso   1.000  H
  H15      1.0000 0.69510  0.82930  0.44170  Biso   1.000  H
  H16      1.0000 0.82930  0.69510  0.03390  Biso   1.000  H
  H17      1.0000 0.82930  0.44170  0.69510  Biso   1.000  H
  H18      1.0000 0.69510  0.03390  0.82930  Biso   1.000  H
  H19      1.0000 0.44170  0.82930  0.03390  Biso   1.000  H
  H20      1.0000 0.03390  0.69510  0.44170  Biso   1.000  H
  H21      1.0000 0.69510  0.44170  0.03390  Biso   1.000  H
  H22      1.0000 0.82930  0.03390  0.44170  Biso   1.000  H
  H23      1.0000 0.03390  0.82930  0.69510  Biso   1.000  H
  H24      1.0000 0.44170  0.69510  0.82930  Biso   1.000  H
  H25      1.0000 0.44170  0.03390  0.82930  Biso   1.000  H
  H26      1.0000 0.03390  0.44170  0.69510  Biso   1.000  H
  H27      1.0000 0.82930  0.69510  0.44170  Biso   1.000  H
  H28      1.0000 0.69510  0.82930  0.03390  Biso   1.000  H
  H29      1.0000 0.44170  0.82930  0.69510  Biso   1.000  H
  H30      1.0000 0.03390  0.69510  0.82930  Biso   1.000  H
  H31      1.0000 0.82930  0.44170  0.03390  Biso   1.000  H
  H32      1.0000 0.69510  0.03390  0.44170  Biso   1.000  H
  H33      1.0000 0.44170  0.69510  0.03390  Biso   1.000  H
  H34      1.0000 0.03390  0.82930  0.44170  Biso   1.000  H
  H35      1.0000 0.82930  0.03390  0.69510  Biso   1.000  H
  H36      1.0000 0.69510  0.44170  0.82930  Biso   1.000  H
  H37      1.0000 0.96610  0.55830  0.17070  Biso   1.000  H
  H38      1.0000 0.55830  0.96610  0.30490  Biso   1.000  H
  H39      1.0000 0.30490  0.17070  0.55830  Biso   1.000  H
  H40      1.0000 0.17070  0.30490  0.96610  Biso   1.000  H
  H41      1.0000 0.17070  0.55830  0.30490  Biso   1.000  H
  H42      1.0000 0.30490  0.96610  0.17070  Biso   1.000  H
  H43      1.0000 0.55830  0.17070  0.96610  Biso   1.000  H
  H44      1.0000 0.96610  0.30490  0.55830  Biso   1.000  H
  H45      1.0000 0.30490  0.55830  0.96610  Biso   1.000  H
  H46      1.0000 0.17070  0.96610  0.55830  Biso   1.000  H
  H47      1.0000 0.96610  0.17070  0.30490  Biso   1.000  H
  H48      1.0000 0.55830  0.30490  0.17070  Biso   1.000  H
  H49      1.0000 0.68650  0.98250  0.16550  Biso   1.000  H
  H50      1.0000 0.98250  0.68650  0.16550  Biso   1.000  H
  H51      1.0000 0.16550  0.16550  0.68650  Biso   1.000  H
  H52      1.0000 0.16550  0.16550  0.98250  Biso   1.000  H
  H53      1.0000 0.68650  0.16550  0.16550  Biso   1.000  H
  H54      1.0000 0.98250  0.16550  0.16550  Biso   1.000  H
  H55      1.0000 0.16550  0.68650  0.98250  Biso   1.000  H
  H56      1.0000 0.16550  0.98250  0.68650  Biso   1.000  H
  H57      1.0000 0.68650  0.16550  0.98250  Biso   1.000  H
  H58      1.0000 0.98250  0.16550  0.68650  Biso   1.000  H
  H59      1.0000 0.16550  0.98250  0.16550  Biso   1.000  H
  H60      1.0000 0.16550  0.68650  0.16550  Biso   1.000  H
  H61      1.0000 0.01750  0.31350  0.83450  Biso   1.000  H
  H62      1.0000 0.31350  0.01750  0.83450  Biso   1.000  H
  H63      1.0000 0.83450  0.83450  0.31350  Biso   1.000  H
  H64      1.0000 0.83450  0.83450  0.01750  Biso   1.000  H
  H65      1.0000 0.83450  0.31350  0.83450  Biso   1.000  H
  H66      1.0000 0.83450  0.01750  0.83450  Biso   1.000  H
  H67      1.0000 0.31350  0.83450  0.01750  Biso   1.000  H
  H68      1.0000 0.01750  0.83450  0.31350  Biso   1.000  H
  H69      1.0000 0.83450  0.31350  0.01750  Biso   1.000  H
  H70      1.0000 0.83450  0.01750  0.31350  Biso   1.000  H
  H71      1.0000 0.01750  0.83450  0.83450  Biso   1.000  H
  H72      1.0000 0.31350  0.83450  0.83450  Biso   1.000  H
  H73      1.0000 0.39940  0.93560  0.26560  Biso   1.000  H
  H74      1.0000 0.93560  0.39940  0.39940  Biso   1.000  H
  H75      1.0000 0.26560  0.39940  0.39940  Biso   1.000  H
  H76      1.0000 0.39940  0.26560  0.93560  Biso   1.000  H
  H77      1.0000 0.39940  0.26560  0.39940  Biso   1.000  H
  H78      1.0000 0.93560  0.39940  0.26560  Biso   1.000  H
  H79      1.0000 0.26560  0.39940  0.93560  Biso   1.000  H
  H80      1.0000 0.39940  0.93560  0.39940  Biso   1.000  H
  H81      1.0000 0.39940  0.39940  0.93560  Biso   1.000  H
  H82      1.0000 0.93560  0.26560  0.39940  Biso   1.000  H
  H83      1.0000 0.26560  0.93560  0.39940  Biso   1.000  H
  H84      1.0000 0.39940  0.39940  0.26560  Biso   1.000  H
  H85      1.0000 0.06440  0.60060  0.73440  Biso   1.000  H
  H86      1.0000 0.60060  0.06440  0.60060  Biso   1.000  H
  H87      1.0000 0.60060  0.73440  0.60060  Biso   1.000  H
  H88      1.0000 0.73440  0.60060  0.06440  Biso   1.000  H
  H89      1.0000 0.73440  0.60060  0.60060  Biso   1.000  H
  H90      1.0000 0.60060  0.06440  0.73440  Biso   1.000  H
  H91      1.0000 0.60060  0.73440  0.06440  Biso   1.000  H
  H92      1.0000 0.06440  0.60060  0.60060  Biso   1.000  H
  H93      1.0000 0.60060  0.60060  0.06440  Biso   1.000  H
  H94      1.0000 0.73440  0.06440  0.60060  Biso   1.000  H
  H95      1.0000 0.06440  0.73440  0.60060  Biso   1.000  H
  H96      1.0000 0.60060  0.60060  0.73440  Biso   1.000  H
  C1       1.0000 0.64967  0.98363  0.10243  Biso   1.000  C
  C2       1.0000 0.62484  0.97734  0.15978  Biso   1.000  C
  C3       1.0000 0.57524  0.96844  0.18832  Biso   1.000  C
  C4       1.0000 0.98363  0.64967  0.26427  Biso   1.000  C
  C5       1.0000 0.97734  0.62484  0.23804  Biso   1.000  C
  C6       1.0000 0.96844  0.57524  0.26800  Biso   1.000  C
  C7       1.0000 0.10243  0.26427  0.64967  Biso   1.000  C
  C8       1.0000 0.15978  0.23804  0.62484  Biso   1.000  C
  C9       1.0000 0.18832  0.26800  0.57524  Biso   1.000  C
  C10      1.0000 0.26427  0.10243  0.98363  Biso   1.000  C
  C11      1.0000 0.23804  0.15978  0.97734  Biso   1.000  C
  C12      1.0000 0.26800  0.18832  0.96844  Biso   1.000  C
  C13      1.0000 0.64967  0.10243  0.26427  Biso   1.000  C
  C14      1.0000 0.62484  0.15978  0.23804  Biso   1.000  C
  C15      1.0000 0.57524  0.18832  0.26800  Biso   1.000  C
  C16      1.0000 0.98363  0.26427  0.10243  Biso   1.000  C
  C17      1.0000 0.97734  0.23804  0.15978  Biso   1.000  C
  C18      1.0000 0.96844  0.26800  0.18832  Biso   1.000  C
  C19      1.0000 0.10243  0.64967  0.98363  Biso   1.000  C
  C20      1.0000 0.15978  0.62484  0.97734  Biso   1.000  C
  C21      1.0000 0.18832  0.57524  0.96844  Biso   1.000  C
  C22      1.0000 0.26427  0.98363  0.64967  Biso   1.000  C
  C23      1.0000 0.23804  0.97734  0.62484  Biso   1.000  C
  C24      1.0000 0.26800  0.96844  0.57524  Biso   1.000  C
  C25      1.0000 0.64967  0.26427  0.98363  Biso   1.000  C
  C26      1.0000 0.62484  0.23804  0.97734  Biso   1.000  C
  C27      1.0000 0.57524  0.26800  0.96844  Biso   1.000  C
  C28      1.0000 0.98363  0.10243  0.64967  Biso   1.000  C
  C29      1.0000 0.97734  0.15978  0.62484  Biso   1.000  C
  C30      1.0000 0.96844  0.18832  0.57524  Biso   1.000  C
  C31      1.0000 0.10243  0.98363  0.26427  Biso   1.000  C
  C32      1.0000 0.15978  0.97734  0.23804  Biso   1.000  C
  C33      1.0000 0.18832  0.96844  0.26800  Biso   1.000  C
  C34      1.0000 0.26427  0.64967  0.10243  Biso   1.000  C
  C35      1.0000 0.23804  0.62484  0.15978  Biso   1.000  C
  C36      1.0000 0.26800  0.57524  0.18832  Biso   1.000  C
  C37      1.0000 0.01637  0.35033  0.89757  Biso   1.000  C
  C38      1.0000 0.02266  0.37516  0.84022  Biso   1.000  C
  C39      1.0000 0.03156  0.42476  0.81168  Biso   1.000  C
  C40      1.0000 0.35033  0.01637  0.73573  Biso   1.000  C
  C41      1.0000 0.37516  0.02266  0.76196  Biso   1.000  C
  C42      1.0000 0.42476  0.03156  0.73200  Biso   1.000  C
  C43      1.0000 0.73573  0.89757  0.35033  Biso   1.000  C
  C44      1.0000 0.76196  0.84022  0.37516  Biso   1.000  C
  C45      1.0000 0.73200  0.81168  0.42476  Biso   1.000  C
  C46      1.0000 0.89757  0.73573  0.01637  Biso   1.000  C
  C47      1.0000 0.84022  0.76196  0.02266  Biso   1.000  C
  C48      1.0000 0.81168  0.73200  0.03156  Biso   1.000  C
  C49      1.0000 0.89757  0.35033  0.73573  Biso   1.000  C
  C50      1.0000 0.84022  0.37516  0.76196  Biso   1.000  C
  C51      1.0000 0.81168  0.42476  0.73200  Biso   1.000  C
  C52      1.0000 0.73573  0.01637  0.89757  Biso   1.000  C
  C53      1.0000 0.76196  0.02266  0.84022  Biso   1.000  C
  C54      1.0000 0.73200  0.03156  0.81168  Biso   1.000  C
  C55      1.0000 0.35033  0.89757  0.01637  Biso   1.000  C
  C56      1.0000 0.37516  0.84022  0.02266  Biso   1.000  C
  C57      1.0000 0.42476  0.81168  0.03156  Biso   1.000  C
  C58      1.0000 0.01637  0.73573  0.35033  Biso   1.000  C
  C59      1.0000 0.02266  0.76196  0.37516  Biso   1.000  C
  C60      1.0000 0.03156  0.73200  0.42476  Biso   1.000  C
  C61      1.0000 0.73573  0.35033  0.01637  Biso   1.000  C
  C62      1.0000 0.76196  0.37516  0.02266  Biso   1.000  C
  C63      1.0000 0.73200  0.42476  0.03156  Biso   1.000  C
  C64      1.0000 0.89757  0.01637  0.35033  Biso   1.000  C
  C65      1.0000 0.84022  0.02266  0.37516  Biso   1.000  C
  C66      1.0000 0.81168  0.03156  0.42476  Biso   1.000  C
  C67      1.0000 0.01637  0.89757  0.73573  Biso   1.000  C
  C68      1.0000 0.02266  0.84022  0.76196  Biso   1.000  C
  C69      1.0000 0.03156  0.81168  0.73200  Biso   1.000  C
  C70      1.0000 0.35033  0.73573  0.89757  Biso   1.000  C
  C71      1.0000 0.37516  0.76196  0.84022  Biso   1.000  C
  C72      1.0000 0.42476  0.73200  0.81168  Biso   1.000  C
  C73      1.0000 0.35033  0.01637  0.89757  Biso   1.000  C
  C74      1.0000 0.37516  0.02266  0.84022  Biso   1.000  C
  C75      1.0000 0.42476  0.03156  0.81168  Biso   1.000  C
  C76      1.0000 0.01637  0.35033  0.73573  Biso   1.000  C
  C77      1.0000 0.02266  0.37516  0.76196  Biso   1.000  C
  C78      1.0000 0.03156  0.42476  0.73200  Biso   1.000  C
  C79      1.0000 0.89757  0.73573  0.35033  Biso   1.000  C
  C80      1.0000 0.84022  0.76196  0.37516  Biso   1.000  C
  C81      1.0000 0.81168  0.73200  0.42476  Biso   1.000  C
  C82      1.0000 0.73573  0.89757  0.01637  Biso   1.000  C
  C83      1.0000 0.76196  0.84022  0.02266  Biso   1.000  C
  C84      1.0000 0.73200  0.81168  0.03156  Biso   1.000  C
  C85      1.0000 0.35033  0.89757  0.73573  Biso   1.000  C
  C86      1.0000 0.37516  0.84022  0.76196  Biso   1.000  C
  C87      1.0000 0.42476  0.81168  0.73200  Biso   1.000  C
  C88      1.0000 0.01637  0.73573  0.89757  Biso   1.000  C
  C89      1.0000 0.02266  0.76196  0.84022  Biso   1.000  C
  C90      1.0000 0.03156  0.73200  0.81168  Biso   1.000  C
  C91      1.0000 0.89757  0.35033  0.01637  Biso   1.000  C
  C92      1.0000 0.84022  0.37516  0.02266  Biso   1.000  C
  C93      1.0000 0.81168  0.42476  0.03156  Biso   1.000  C
  C94      1.0000 0.73573  0.01637  0.35033  Biso   1.000  C
  C95      1.0000 0.76196  0.02266  0.37516  Biso   1.000  C
  C96      1.0000 0.73200  0.03156  0.42476  Biso   1.000  C
  C97      1.0000 0.35033  0.73573  0.01637  Biso   1.000  C
  C98      1.0000 0.37516  0.76196  0.02266  Biso   1.000  C
  C99      1.0000 0.42476  0.73200  0.03156  Biso   1.000  C
  C100     1.0000 0.01637  0.89757  0.35033  Biso   1.000  C
  C101     1.0000 0.02266  0.84022  0.37516  Biso   1.000  C
  C102     1.0000 0.03156  0.81168  0.42476  Biso   1.000  C
  C103     1.0000 0.89757  0.01637  0.73573  Biso   1.000  C
  C104     1.0000 0.84022  0.02266  0.76196  Biso   1.000  C
  C105     1.0000 0.81168  0.03156  0.73200  Biso   1.000  C
  C106     1.0000 0.73573  0.35033  0.89757  Biso   1.000  C
  C107     1.0000 0.76196  0.37516  0.84022  Biso   1.000  C
  C108     1.0000 0.73200  0.42476  0.81168  Biso   1.000  C
  C109     1.0000 0.98363  0.64967  0.10243  Biso   1.000  C
  C110     1.0000 0.97734  0.62484  0.15978  Biso   1.000  C
  C111     1.0000 0.96844  0.57524  0.18832  Biso   1.000  C
  C112     1.0000 0.64967  0.98363  0.26427  Biso   1.000  C
  C113     1.0000 0.62484  0.97734  0.23804  Biso   1.000  C
  C114     1.0000 0.57524  0.96844  0.26800  Biso   1.000  C
  C115     1.0000 0.26427  0.10243  0.64967  Biso   1.000  C
  C116     1.0000 0.23804  0.15978  0.62484  Biso   1.000  C
  C117     1.0000 0.26800  0.18832  0.57524  Biso   1.000  C
  C118     1.0000 0.10243  0.26427  0.98363  Biso   1.000  C
  C119     1.0000 0.15978  0.23804  0.97734  Biso   1.000  C
  C120     1.0000 0.18832  0.26800  0.96844  Biso   1.000  C
  C121     1.0000 0.10243  0.64967  0.26427  Biso   1.000  C
  C122     1.0000 0.15978  0.62484  0.23804  Biso   1.000  C
  C123     1.0000 0.18832  0.57524  0.26800  Biso   1.000  C
  C124     1.0000 0.26427  0.98363  0.10243  Biso   1.000  C
  C125     1.0000 0.23804  0.97734  0.15978  Biso   1.000  C
  C126     1.0000 0.26800  0.96844  0.18832  Biso   1.000  C
  C127     1.0000 0.64967  0.10243  0.98363  Biso   1.000  C
  C128     1.0000 0.62484  0.15978  0.97734  Biso   1.000  C
  C129     1.0000 0.57524  0.18832  0.96844  Biso   1.000  C
  C130     1.0000 0.98363  0.26427  0.64967  Biso   1.000  C
  C131     1.0000 0.97734  0.23804  0.62484  Biso   1.000  C
  C132     1.0000 0.96844  0.26800  0.57524  Biso   1.000  C
  C133     1.0000 0.26427  0.64967  0.98363  Biso   1.000  C
  C134     1.0000 0.23804  0.62484  0.97734  Biso   1.000  C
  C135     1.0000 0.26800  0.57524  0.96844  Biso   1.000  C
  C136     1.0000 0.10243  0.98363  0.64967  Biso   1.000  C
  C137     1.0000 0.15978  0.97734  0.62484  Biso   1.000  C
  C138     1.0000 0.18832  0.96844  0.57524  Biso   1.000  C
  C139     1.0000 0.98363  0.10243  0.26427  Biso   1.000  C
  C140     1.0000 0.97734  0.15978  0.23804  Biso   1.000  C
  C141     1.0000 0.96844  0.18832  0.26800  Biso   1.000  C
  C142     1.0000 0.64967  0.26427  0.10243  Biso   1.000  C
  C143     1.0000 0.62484  0.23804  0.15978  Biso   1.000  C
  C144     1.0000 0.57524  0.26800  0.18832  Biso   1.000  C
  C145     1.0000 0.65140  0.97952  0.18454  Biso   1.000  C
  C146     1.0000 0.55124  0.96316  0.24280  Biso   1.000  C
  C147     1.0000 0.50314  0.95506  0.27090  Biso   1.000  C
  C148     1.0000 0.45970  0.94810  0.29610  Biso   1.000  C
  C149     1.0000 0.40526  0.94014  0.32730  Biso   1.000  C
  C150     1.0000 0.97952  0.65140  0.18454  Biso   1.000  C
  C151     1.0000 0.96316  0.55124  0.24280  Biso   1.000  C
  C152     1.0000 0.95506  0.50314  0.27090  Biso   1.000  C
  C153     1.0000 0.94810  0.45970  0.29610  Biso   1.000  C
  C154     1.0000 0.94014  0.40526  0.32730  Biso   1.000  C
  C155     1.0000 0.18454  0.18454  0.65140  Biso   1.000  C
  C156     1.0000 0.24280  0.24280  0.55124  Biso   1.000  C
  C157     1.0000 0.27090  0.27090  0.50314  Biso   1.000  C
  C158     1.0000 0.29610  0.29610  0.45970  Biso   1.000  C
  C159     1.0000 0.32730  0.32730  0.40526  Biso   1.000  C
  C160     1.0000 0.18454  0.18454  0.97952  Biso   1.000  C
  C161     1.0000 0.24280  0.24280  0.96316  Biso   1.000  C
  C162     1.0000 0.27090  0.27090  0.95506  Biso   1.000  C
  C163     1.0000 0.29610  0.29610  0.94810  Biso   1.000  C
  C164     1.0000 0.32730  0.32730  0.94014  Biso   1.000  C
  C165     1.0000 0.65140  0.18454  0.18454  Biso   1.000  C
  C166     1.0000 0.55124  0.24280  0.24280  Biso   1.000  C
  C167     1.0000 0.50314  0.27090  0.27090  Biso   1.000  C
  C168     1.0000 0.45970  0.29610  0.29610  Biso   1.000  C
  C169     1.0000 0.40526  0.32730  0.32730  Biso   1.000  C
  C170     1.0000 0.97952  0.18454  0.18454  Biso   1.000  C
  C171     1.0000 0.96316  0.24280  0.24280  Biso   1.000  C
  C172     1.0000 0.95506  0.27090  0.27090  Biso   1.000  C
  C173     1.0000 0.94810  0.29610  0.29610  Biso   1.000  C
  C174     1.0000 0.94014  0.32730  0.32730  Biso   1.000  C
  C175     1.0000 0.18454  0.65140  0.97952  Biso   1.000  C
  C176     1.0000 0.24280  0.55124  0.96316  Biso   1.000  C
  C177     1.0000 0.27090  0.50314  0.95506  Biso   1.000  C
  C178     1.0000 0.29610  0.45970  0.94810  Biso   1.000  C
  C179     1.0000 0.32730  0.40526  0.94014  Biso   1.000  C
  C180     1.0000 0.18454  0.97952  0.65140  Biso   1.000  C
  C181     1.0000 0.24280  0.96316  0.55124  Biso   1.000  C
  C182     1.0000 0.27090  0.95506  0.50314  Biso   1.000  C
  C183     1.0000 0.29610  0.94810  0.45970  Biso   1.000  C
  C184     1.0000 0.32730  0.94014  0.40526  Biso   1.000  C
  C185     1.0000 0.65140  0.18454  0.97952  Biso   1.000  C
  C186     1.0000 0.55124  0.24280  0.96316  Biso   1.000  C
  C187     1.0000 0.50314  0.27090  0.95506  Biso   1.000  C
  C188     1.0000 0.45970  0.29610  0.94810  Biso   1.000  C
  C189     1.0000 0.40526  0.32730  0.94014  Biso   1.000  C
  C190     1.0000 0.97952  0.18454  0.65140  Biso   1.000  C
  C191     1.0000 0.96316  0.24280  0.55124  Biso   1.000  C
  C192     1.0000 0.95506  0.27090  0.50314  Biso   1.000  C
  C193     1.0000 0.94810  0.29610  0.45970  Biso   1.000  C
  C194     1.0000 0.94014  0.32730  0.40526  Biso   1.000  C
  C195     1.0000 0.18454  0.97952  0.18454  Biso   1.000  C
  C196     1.0000 0.24280  0.96316  0.24280  Biso   1.000  C
  C197     1.0000 0.27090  0.95506  0.27090  Biso   1.000  C
  C198     1.0000 0.29610  0.94810  0.29610  Biso   1.000  C
  C199     1.0000 0.32730  0.94014  0.32730  Biso   1.000  C
  C200     1.0000 0.18454  0.65140  0.18454  Biso   1.000  C
  C201     1.0000 0.24280  0.55124  0.24280  Biso   1.000  C
  C202     1.0000 0.27090  0.50314  0.27090  Biso   1.000  C
  C203     1.0000 0.29610  0.45970  0.29610  Biso   1.000  C
  C204     1.0000 0.32730  0.40526  0.32730  Biso   1.000  C
  C205     1.0000 0.02048  0.34860  0.81546  Biso   1.000  C
  C206     1.0000 0.03684  0.44876  0.75720  Biso   1.000  C
  C207     1.0000 0.04494  0.49686  0.72910  Biso   1.000  C
  C208     1.0000 0.05190  0.54030  0.70390  Biso   1.000  C
  C209     1.0000 0.05986  0.59474  0.67270  Biso   1.000  C
  C210     1.0000 0.34860  0.02048  0.81546  Biso   1.000  C
  C211     1.0000 0.44876  0.03684  0.75720  Biso   1.000  C
  C212     1.0000 0.49686  0.04494  0.72910  Biso   1.000  C
  C213     1.0000 0.54030  0.05190  0.70390  Biso   1.000  C
  C214     1.0000 0.59474  0.05986  0.67270  Biso   1.000  C
  C215     1.0000 0.81546  0.81546  0.34860  Biso   1.000  C
  C216     1.0000 0.75720  0.75720  0.44876  Biso   1.000  C
  C217     1.0000 0.72910  0.72910  0.49686  Biso   1.000  C
  C218     1.0000 0.70390  0.70390  0.54030  Biso   1.000  C
  C219     1.0000 0.67270  0.67270  0.59474  Biso   1.000  C
  C220     1.0000 0.81546  0.81546  0.02048  Biso   1.000  C
  C221     1.0000 0.75720  0.75720  0.03684  Biso   1.000  C
  C222     1.0000 0.72910  0.72910  0.04494  Biso   1.000  C
  C223     1.0000 0.70390  0.70390  0.05190  Biso   1.000  C
  C224     1.0000 0.67270  0.67270  0.05986  Biso   1.000  C
  C225     1.0000 0.81546  0.34860  0.81546  Biso   1.000  C
  C226     1.0000 0.75720  0.44876  0.75720  Biso   1.000  C
  C227     1.0000 0.72910  0.49686  0.72910  Biso   1.000  C
  C228     1.0000 0.70390  0.54030  0.70390  Biso   1.000  C
  C229     1.0000 0.67270  0.59474  0.67270  Biso   1.000  C
  C230     1.0000 0.81546  0.02048  0.81546  Biso   1.000  C
  C231     1.0000 0.75720  0.03684  0.75720  Biso   1.000  C
  C232     1.0000 0.72910  0.04494  0.72910  Biso   1.000  C
  C233     1.0000 0.70390  0.05190  0.70390  Biso   1.000  C
  C234     1.0000 0.67270  0.05986  0.67270  Biso   1.000  C
  C235     1.0000 0.34860  0.81546  0.02048  Biso   1.000  C
  C236     1.0000 0.44876  0.75720  0.03684  Biso   1.000  C
  C237     1.0000 0.49686  0.72910  0.04494  Biso   1.000  C
  C238     1.0000 0.54030  0.70390  0.05190  Biso   1.000  C
  C239     1.0000 0.59474  0.67270  0.05986  Biso   1.000  C
  C240     1.0000 0.02048  0.81546  0.34860  Biso   1.000  C
  C241     1.0000 0.03684  0.75720  0.44876  Biso   1.000  C
  C242     1.0000 0.04494  0.72910  0.49686  Biso   1.000  C
  C243     1.0000 0.05190  0.70390  0.54030  Biso   1.000  C
  C244     1.0000 0.05986  0.67270  0.59474  Biso   1.000  C
  C245     1.0000 0.81546  0.34860  0.02048  Biso   1.000  C
  C246     1.0000 0.75720  0.44876  0.03684  Biso   1.000  C
  C247     1.0000 0.72910  0.49686  0.04494  Biso   1.000  C
  C248     1.0000 0.70390  0.54030  0.05190  Biso   1.000  C
  C249     1.0000 0.67270  0.59474  0.05986  Biso   1.000  C
  C250     1.0000 0.81546  0.02048  0.34860  Biso   1.000  C
  C251     1.0000 0.75720  0.03684  0.44876  Biso   1.000  C
  C252     1.0000 0.72910  0.04494  0.49686  Biso   1.000  C
  C253     1.0000 0.70390  0.05190  0.54030  Biso   1.000  C
  C254     1.0000 0.67270  0.05986  0.59474  Biso   1.000  C
  C255     1.0000 0.02048  0.81546  0.81546  Biso   1.000  C
  C256     1.0000 0.03684  0.75720  0.75720  Biso   1.000  C
  C257     1.0000 0.04494  0.72910  0.72910  Biso   1.000  C
  C258     1.0000 0.05190  0.70390  0.70390  Biso   1.000  C
  C259     1.0000 0.05986  0.67270  0.67270  Biso   1.000  C
  C260     1.0000 0.34860  0.81546  0.81546  Biso   1.000  C
  C261     1.0000 0.44876  0.75720  0.75720  Biso   1.000  C
  C262     1.0000 0.49686  0.72910  0.72910  Biso   1.000  C
  C263     1.0000 0.54030  0.70390  0.70390  Biso   1.000  C
  C264     1.0000 0.59474  0.67270  0.67270  Biso   1.000  C
  C265     1.0000 0.38050  0.93830  0.30070  Biso   1.000  C
  C266     1.0000 0.93830  0.38050  0.38050  Biso   1.000  C
  C267     1.0000 0.30070  0.38050  0.38050  Biso   1.000  C
  C268     1.0000 0.38050  0.30070  0.93830  Biso   1.000  C
  C269     1.0000 0.38050  0.30070  0.38050  Biso   1.000  C
  C270     1.0000 0.93830  0.38050  0.30070  Biso   1.000  C
  C271     1.0000 0.30070  0.38050  0.93830  Biso   1.000  C
  C272     1.0000 0.38050  0.93830  0.38050  Biso   1.000  C
  C273     1.0000 0.38050  0.38050  0.93830  Biso   1.000  C
  C274     1.0000 0.93830  0.30070  0.38050  Biso   1.000  C
  C275     1.0000 0.30070  0.93830  0.38050  Biso   1.000  C
  C276     1.0000 0.38050  0.38050  0.30070  Biso   1.000  C
  C277     1.0000 0.06170  0.61950  0.69930  Biso   1.000  C
  C278     1.0000 0.61950  0.06170  0.61950  Biso   1.000  C
  C279     1.0000 0.61950  0.69930  0.61950  Biso   1.000  C
  C280     1.0000 0.69930  0.61950  0.06170  Biso   1.000  C
  C281     1.0000 0.69930  0.61950  0.61950  Biso   1.000  C
  C282     1.0000 0.61950  0.06170  0.69930  Biso   1.000  C
  C283     1.0000 0.61950  0.69930  0.06170  Biso   1.000  C
  C284     1.0000 0.06170  0.61950  0.61950  Biso   1.000  C
  C285     1.0000 0.61950  0.61950  0.06170  Biso   1.000  C
  C286     1.0000 0.69930  0.06170  0.61950  Biso   1.000  C
  C287     1.0000 0.06170  0.69930  0.61950  Biso   1.000  C
  C288     1.0000 0.61950  0.61950  0.69930  Biso   1.000  C
  O1       1.0000 0.69617  0.98667  0.07903  Biso   1.000  O
  O2       1.0000 0.62371  0.98603  0.07919  Biso   1.000  O
  O3       1.0000 0.98667  0.69617  0.23813  Biso   1.000  O
  O4       1.0000 0.98603  0.62371  0.31107  Biso   1.000  O
  O5       1.0000 0.07903  0.23813  0.69617  Biso   1.000  O
  O6       1.0000 0.07919  0.31107  0.62371  Biso   1.000  O
  O7       1.0000 0.23813  0.07903  0.98667  Biso   1.000  O
  O8       1.0000 0.31107  0.07919  0.98603  Biso   1.000  O
  O9       1.0000 0.69617  0.07903  0.23813  Biso   1.000  O
  O10      1.0000 0.62371  0.07919  0.31107  Biso   1.000  O
  O11      1.0000 0.98667  0.23813  0.07903  Biso   1.000  O
  O12      1.0000 0.98603  0.31107  0.07919  Biso   1.000  O
  O13      1.0000 0.07903  0.69617  0.98667  Biso   1.000  O
  O14      1.0000 0.07919  0.62371  0.98603  Biso   1.000  O
  O15      1.0000 0.23813  0.98667  0.69617  Biso   1.000  O
  O16      1.0000 0.31107  0.98603  0.62371  Biso   1.000  O
  O17      1.0000 0.69617  0.23813  0.98667  Biso   1.000  O
  O18      1.0000 0.62371  0.31107  0.98603  Biso   1.000  O
  O19      1.0000 0.98667  0.07903  0.69617  Biso   1.000  O
  O20      1.0000 0.98603  0.07919  0.62371  Biso   1.000  O
  O21      1.0000 0.07903  0.98667  0.23813  Biso   1.000  O
  O22      1.0000 0.07919  0.98603  0.31107  Biso   1.000  O
  O23      1.0000 0.23813  0.69617  0.07903  Biso   1.000  O
  O24      1.0000 0.31107  0.62371  0.07919  Biso   1.000  O
  O25      1.0000 0.01333  0.30383  0.92097  Biso   1.000  O
  O26      1.0000 0.01397  0.37629  0.92081  Biso   1.000  O
  O27      1.0000 0.30383  0.01333  0.76187  Biso   1.000  O
  O28      1.0000 0.37629  0.01397  0.68893  Biso   1.000  O
  O29      1.0000 0.76187  0.92097  0.30383  Biso   1.000  O
  O30      1.0000 0.68893  0.92081  0.37629  Biso   1.000  O
  O31      1.0000 0.92097  0.76187  0.01333  Biso   1.000  O
  O32      1.0000 0.92081  0.68893  0.01397  Biso   1.000  O
  O33      1.0000 0.92097  0.30383  0.76187  Biso   1.000  O
  O34      1.0000 0.92081  0.37629  0.68893  Biso   1.000  O
  O35      1.0000 0.76187  0.01333  0.92097  Biso   1.000  O
  O36      1.0000 0.68893  0.01397  0.92081  Biso   1.000  O
  O37      1.0000 0.30383  0.92097  0.01333  Biso   1.000  O
  O38      1.0000 0.37629  0.92081  0.01397  Biso   1.000  O
  O39      1.0000 0.01333  0.76187  0.30383  Biso   1.000  O
  O40      1.0000 0.01397  0.68893  0.37629  Biso   1.000  O
  O41      1.0000 0.76187  0.30383  0.01333  Biso   1.000  O
  O42      1.0000 0.68893  0.37629  0.01397  Biso   1.000  O
  O43      1.0000 0.92097  0.01333  0.30383  Biso   1.000  O
  O44      1.0000 0.92081  0.01397  0.37629  Biso   1.000  O
  O45      1.0000 0.01333  0.92097  0.76187  Biso   1.000  O
  O46      1.0000 0.01397  0.92081  0.68893  Biso   1.000  O
  O47      1.0000 0.30383  0.76187  0.92097  Biso   1.000  O
  O48      1.0000 0.37629  0.68893  0.92081  Biso   1.000  O
  O49      1.0000 0.30383  0.01333  0.92097  Biso   1.000  O
  O50      1.0000 0.37629  0.01397  0.92081  Biso   1.000  O
  O51      1.0000 0.01333  0.30383  0.76187  Biso   1.000  O
  O52      1.0000 0.01397  0.37629  0.68893  Biso   1.000  O
  O53      1.0000 0.92097  0.76187  0.30383  Biso   1.000  O
  O54      1.0000 0.92081  0.68893  0.37629  Biso   1.000  O
  O55      1.0000 0.76187  0.92097  0.01333  Biso   1.000  O
  O56      1.0000 0.68893  0.92081  0.01397  Biso   1.000  O
  O57      1.0000 0.30383  0.92097  0.76187  Biso   1.000  O
  O58      1.0000 0.37629  0.92081  0.68893  Biso   1.000  O
  O59      1.0000 0.01333  0.76187  0.92097  Biso   1.000  O
  O60      1.0000 0.01397  0.68893  0.92081  Biso   1.000  O
  O61      1.0000 0.92097  0.30383  0.01333  Biso   1.000  O
  O62      1.0000 0.92081  0.37629  0.01397  Biso   1.000  O
  O63      1.0000 0.76187  0.01333  0.30383  Biso   1.000  O
  O64      1.0000 0.68893  0.01397  0.37629  Biso   1.000  O
  O65      1.0000 0.30383  0.76187  0.01333  Biso   1.000  O
  O66      1.0000 0.37629  0.68893  0.01397  Biso   1.000  O
  O67      1.0000 0.01333  0.92097  0.30383  Biso   1.000  O
  O68      1.0000 0.01397  0.92081  0.37629  Biso   1.000  O
  O69      1.0000 0.92097  0.01333  0.76187  Biso   1.000  O
  O70      1.0000 0.92081  0.01397  0.68893  Biso   1.000  O
  O71      1.0000 0.76187  0.30383  0.92097  Biso   1.000  O
  O72      1.0000 0.68893  0.37629  0.92081  Biso   1.000  O
  O73      1.0000 0.98667  0.69617  0.07903  Biso   1.000  O
  O74      1.0000 0.98603  0.62371  0.07919  Biso   1.000  O
  O75      1.0000 0.69617  0.98667  0.23813  Biso   1.000  O
  O76      1.0000 0.62371  0.98603  0.31107  Biso   1.000  O
  O77      1.0000 0.23813  0.07903  0.69617  Biso   1.000  O
  O78      1.0000 0.31107  0.07919  0.62371  Biso   1.000  O
  O79      1.0000 0.07903  0.23813  0.98667  Biso   1.000  O
  O80      1.0000 0.07919  0.31107  0.98603  Biso   1.000  O
  O81      1.0000 0.07903  0.69617  0.23813  Biso   1.000  O
  O82      1.0000 0.07919  0.62371  0.31107  Biso   1.000  O
  O83      1.0000 0.23813  0.98667  0.07903  Biso   1.000  O
  O84      1.0000 0.31107  0.98603  0.07919  Biso   1.000  O
  O85      1.0000 0.69617  0.07903  0.98667  Biso   1.000  O
  O86      1.0000 0.62371  0.07919  0.98603  Biso   1.000  O
  O87      1.0000 0.98667  0.23813  0.69617  Biso   1.000  O
  O88      1.0000 0.98603  0.31107  0.62371  Biso   1.000  O
  O89      1.0000 0.23813  0.69617  0.98667  Biso   1.000  O
  O90      1.0000 0.31107  0.62371  0.98603  Biso   1.000  O
  O91      1.0000 0.07903  0.98667  0.69617  Biso   1.000  O
  O92      1.0000 0.07919  0.98603  0.62371  Biso   1.000  O
  O93      1.0000 0.98667  0.07903  0.23813  Biso   1.000  O
  O94      1.0000 0.98603  0.07919  0.31107  Biso   1.000  O
  O95      1.0000 0.69617  0.23813  0.07903  Biso   1.000  O
  O96      1.0000 0.62371  0.31107  0.07919  Biso   1.000  O
  O97      1.0000 0.57280  0.00000  0.00000  Biso   1.000  O
  O98      1.0000 1.00000  0.57280  0.42720  Biso   1.000  O
  O99      1.0000 0.00000  0.42720  0.57280  Biso   1.000  O
  O100     1.0000 0.42720  0.00000  0.00000  Biso   1.000  O
  O101     1.0000 0.57280  0.00000  0.42720  Biso   1.000  O
  O102     1.0000 1.00000  0.42720  0.00000  Biso   1.000  O
  O103     1.0000 1.00000  0.57280  0.00000  Biso   1.000  O
  O104     1.0000 0.42720  0.00000  0.57280  Biso   1.000  O
  O105     1.0000 0.57280  0.42720  0.00000  Biso   1.000  O
  O106     1.0000 0.00000  0.00000  0.57280  Biso   1.000  O
  O107     1.0000 0.00000  0.00000  0.42720  Biso   1.000  O
  O108     1.0000 0.42720  0.57280  0.00000  Biso   1.000  O
