data_image0
_cell_length_a       6.7681
_cell_length_b       30.984
_cell_length_c       30.984
_cell_angle_alpha    90
_cell_angle_beta     90
_cell_angle_gamma    90

_symmetry_space_group_name_H-M    P 1
_symmetry_int_tables_number       1

loop_
  _symmetry_equiv_pos_as_xyz
  'x, y, z'

loop_
  _atom_site_label
  _atom_site_occupancy
  _atom_site_fract_x
  _atom_site_fract_y
  _atom_site_fract_z
  _atom_site_thermal_displace_type
  _atom_site_B_iso_or_equiv
  _atom_site_type_symbol
  Ag1      1.0000 0.07533  0.55872  0.52025  Biso   1.000  Ag
  Ag2      1.0000 0.63725  0.54329  0.49046  Biso   1.000  Ag
  Ag3      1.0000 0.07533  0.94128  0.97975  Biso   1.000  Ag
  Ag4      1.0000 0.63725  0.95671  0.00954  Biso   1.000  Ag
  Ag5      1.0000 0.42467  0.52025  0.94128  Biso   1.000  Ag
  Ag6      1.0000 0.86275  0.49046  0.95671  Biso   1.000  Ag
  Ag7      1.0000 0.42467  0.97975  0.55872  Biso   1.000  Ag
  Ag8      1.0000 0.86275  0.00954  0.54329  Biso   1.000  Ag
  H1       1.0000 0.05030  0.70080  0.44980  Biso   1.000  H
  H2       1.0000 0.95240  0.76610  0.41970  Biso   1.000  H
  H3       1.0000 0.43650  0.71330  0.38440  Biso   1.000  H
  H4       1.0000 0.53360  0.64880  0.41370  Biso   1.000  H
  H5       1.0000 0.62760  0.79500  0.46640  Biso   1.000  H
  H6       1.0000 0.65430  0.85250  0.51320  Biso   1.000  H
  H7       1.0000 0.78320  0.93040  0.41380  Biso   1.000  H
  H8       1.0000 0.73620  0.87460  0.36650  Biso   1.000  H
  H9       1.0000 0.05030  0.79920  0.05020  Biso   1.000  H
  H10      1.0000 0.95240  0.73390  0.08030  Biso   1.000  H
  H11      1.0000 0.43650  0.78670  0.11560  Biso   1.000  H
  H12      1.0000 0.53360  0.85120  0.08630  Biso   1.000  H
  H13      1.0000 0.62760  0.70500  0.03360  Biso   1.000  H
  H14      1.0000 0.65430  0.64750  0.98680  Biso   1.000  H
  H15      1.0000 0.78320  0.56960  0.08620  Biso   1.000  H
  H16      1.0000 0.73620  0.62540  0.13350  Biso   1.000  H
  H17      1.0000 0.44970  0.44980  0.79920  Biso   1.000  H
  H18      1.0000 0.54760  0.41970  0.73390  Biso   1.000  H
  H19      1.0000 0.06350  0.38440  0.78670  Biso   1.000  H
  H20      1.0000 0.96640  0.41370  0.85120  Biso   1.000  H
  H21      1.0000 0.87240  0.46640  0.70500  Biso   1.000  H
  H22      1.0000 0.84570  0.51320  0.64750  Biso   1.000  H
  H23      1.0000 0.71680  0.41380  0.56960  Biso   1.000  H
  H24      1.0000 0.76380  0.36650  0.62540  Biso   1.000  H
  H25      1.0000 0.44970  0.05020  0.70080  Biso   1.000  H
  H26      1.0000 0.54760  0.08030  0.76610  Biso   1.000  H
  H27      1.0000 0.06350  0.11560  0.71330  Biso   1.000  H
  H28      1.0000 0.96640  0.08630  0.64880  Biso   1.000  H
  H29      1.0000 0.87240  0.03360  0.79500  Biso   1.000  H
  H30      1.0000 0.84570  0.98680  0.85250  Biso   1.000  H
  H31      1.0000 0.71680  0.08620  0.93040  Biso   1.000  H
  H32      1.0000 0.76380  0.13350  0.87460  Biso   1.000  H
  C1       1.0000 0.84880  0.62519  0.45500  Biso   1.000  C
  C2       1.0000 0.80090  0.66783  0.43506  Biso   1.000  C
  C3       1.0000 0.92700  0.70324  0.43680  Biso   1.000  C
  C4       1.0000 0.86740  0.74251  0.41888  Biso   1.000  C
  C5       1.0000 0.68160  0.74684  0.39968  Biso   1.000  C
  C6       1.0000 0.55940  0.71112  0.39769  Biso   1.000  C
  C7       1.0000 0.61800  0.67239  0.41519  Biso   1.000  C
  C8       1.0000 0.62700  0.79091  0.38021  Biso   1.000  C
  C9       1.0000 0.40430  0.79480  0.37076  Biso   1.000  C
  C10      1.0000 0.73970  0.79409  0.33653  Biso   1.000  C
  C11      1.0000 0.67680  0.82837  0.41099  Biso   1.000  C
  C12      1.0000 0.65460  0.82242  0.45563  Biso   1.000  C
  C13      1.0000 0.67250  0.85676  0.48379  Biso   1.000  C
  C14      1.0000 0.71780  0.89781  0.46816  Biso   1.000  C
  C15      1.0000 0.72230  0.93535  0.49807  Biso   1.000  C
  C16      1.0000 0.74670  0.90340  0.42427  Biso   1.000  C
  C17      1.0000 0.72230  0.86980  0.39596  Biso   1.000  C
  C18      1.0000 0.84880  0.87481  0.04500  Biso   1.000  C
  C19      1.0000 0.80090  0.83217  0.06494  Biso   1.000  C
  C20      1.0000 0.92700  0.79676  0.06320  Biso   1.000  C
  C21      1.0000 0.86740  0.75749  0.08112  Biso   1.000  C
  C22      1.0000 0.68160  0.75316  0.10032  Biso   1.000  C
  C23      1.0000 0.55940  0.78888  0.10231  Biso   1.000  C
  C24      1.0000 0.61800  0.82761  0.08481  Biso   1.000  C
  C25      1.0000 0.62700  0.70909  0.11979  Biso   1.000  C
  C26      1.0000 0.40430  0.70520  0.12924  Biso   1.000  C
  C27      1.0000 0.73970  0.70591  0.16347  Biso   1.000  C
  C28      1.0000 0.67680  0.67163  0.08901  Biso   1.000  C
  C29      1.0000 0.65460  0.67758  0.04437  Biso   1.000  C
  C30      1.0000 0.67250  0.64324  0.01621  Biso   1.000  C
  C31      1.0000 0.71780  0.60219  0.03184  Biso   1.000  C
  C32      1.0000 0.72230  0.56465  0.00193  Biso   1.000  C
  C33      1.0000 0.74670  0.59660  0.07573  Biso   1.000  C
  C34      1.0000 0.72230  0.63020  0.10404  Biso   1.000  C
  C35      1.0000 0.65120  0.45500  0.87481  Biso   1.000  C
  C36      1.0000 0.69910  0.43506  0.83217  Biso   1.000  C
  C37      1.0000 0.57300  0.43680  0.79676  Biso   1.000  C
  C38      1.0000 0.63260  0.41888  0.75749  Biso   1.000  C
  C39      1.0000 0.81840  0.39968  0.75316  Biso   1.000  C
  C40      1.0000 0.94060  0.39769  0.78888  Biso   1.000  C
  C41      1.0000 0.88200  0.41519  0.82761  Biso   1.000  C
  C42      1.0000 0.87300  0.38021  0.70909  Biso   1.000  C
  C43      1.0000 0.09570  0.37076  0.70520  Biso   1.000  C
  C44      1.0000 0.76030  0.33653  0.70591  Biso   1.000  C
  C45      1.0000 0.82320  0.41099  0.67163  Biso   1.000  C
  C46      1.0000 0.84540  0.45563  0.67758  Biso   1.000  C
  C47      1.0000 0.82750  0.48379  0.64324  Biso   1.000  C
  C48      1.0000 0.78220  0.46816  0.60219  Biso   1.000  C
  C49      1.0000 0.77770  0.49807  0.56465  Biso   1.000  C
  C50      1.0000 0.75330  0.42427  0.59660  Biso   1.000  C
  C51      1.0000 0.77770  0.39596  0.63020  Biso   1.000  C
  C52      1.0000 0.65120  0.04500  0.62519  Biso   1.000  C
  C53      1.0000 0.69910  0.06494  0.66783  Biso   1.000  C
  C54      1.0000 0.57300  0.06320  0.70324  Biso   1.000  C
  C55      1.0000 0.63260  0.08112  0.74251  Biso   1.000  C
  C56      1.0000 0.81840  0.10032  0.74684  Biso   1.000  C
  C57      1.0000 0.94060  0.10231  0.71112  Biso   1.000  C
  C58      1.0000 0.88200  0.08481  0.67239  Biso   1.000  C
  C59      1.0000 0.87300  0.11979  0.79091  Biso   1.000  C
  C60      1.0000 0.09570  0.12924  0.79480  Biso   1.000  C
  C61      1.0000 0.76030  0.16347  0.79409  Biso   1.000  C
  C62      1.0000 0.82320  0.08901  0.82837  Biso   1.000  C
  C63      1.0000 0.84540  0.04437  0.82242  Biso   1.000  C
  C64      1.0000 0.82750  0.01621  0.85676  Biso   1.000  C
  C65      1.0000 0.78220  0.03184  0.89781  Biso   1.000  C
  C66      1.0000 0.77770  0.00193  0.93535  Biso   1.000  C
  C67      1.0000 0.75330  0.07573  0.90340  Biso   1.000  C
  C68      1.0000 0.77770  0.10404  0.86980  Biso   1.000  C
  O1       1.0000 0.73800  0.59388  0.44500  Biso   1.000  O
  O2       1.0000 0.99050  0.62195  0.48104  Biso   1.000  O
  O3       1.0000 0.66510  0.93077  0.53607  Biso   1.000  O
  O4       1.0000 0.78500  0.97173  0.48256  Biso   1.000  O
  O5       1.0000 0.73800  0.90612  0.05500  Biso   1.000  O
  O6       1.0000 0.99050  0.87805  0.01896  Biso   1.000  O
  O7       1.0000 0.66510  0.56923  0.96393  Biso   1.000  O
  O8       1.0000 0.78500  0.52827  0.01744  Biso   1.000  O
  O9       1.0000 0.76200  0.44500  0.90612  Biso   1.000  O
  O10      1.0000 0.50950  0.48104  0.87805  Biso   1.000  O
  O11      1.0000 0.83490  0.53607  0.56923  Biso   1.000  O
  O12      1.0000 0.71500  0.48256  0.52827  Biso   1.000  O
  O13      1.0000 0.76200  0.05500  0.59388  Biso   1.000  O
  O14      1.0000 0.50950  0.01896  0.62195  Biso   1.000  O
  O15      1.0000 0.83490  0.96393  0.93077  Biso   1.000  O
  O16      1.0000 0.71500  0.01744  0.97173  Biso   1.000  O
  F1       1.0000 0.34380  0.76977  0.33836  Biso   1.000  F
  F2       1.0000 0.29880  0.78386  0.40572  Biso   1.000  F
  F3       1.0000 0.35140  0.83504  0.36056  Biso   1.000  F
  F4       1.0000 0.72830  0.75751  0.31445  Biso   1.000  F
  F5       1.0000 0.93030  0.80296  0.34286  Biso   1.000  F
  F6       1.0000 0.66710  0.82549  0.31085  Biso   1.000  F
  F7       1.0000 0.34380  0.73023  0.16164  Biso   1.000  F
  F8       1.0000 0.29880  0.71614  0.09428  Biso   1.000  F
  F9       1.0000 0.35140  0.66496  0.13944  Biso   1.000  F
  F10      1.0000 0.72830  0.74249  0.18555  Biso   1.000  F
  F11      1.0000 0.93030  0.69704  0.15714  Biso   1.000  F
  F12      1.0000 0.66710  0.67451  0.18915  Biso   1.000  F
  F13      1.0000 0.15620  0.33836  0.73023  Biso   1.000  F
  F14      1.0000 0.20120  0.40572  0.71614  Biso   1.000  F
  F15      1.0000 0.14860  0.36056  0.66496  Biso   1.000  F
  F16      1.0000 0.77170  0.31445  0.74249  Biso   1.000  F
  F17      1.0000 0.56970  0.34286  0.69704  Biso   1.000  F
  F18      1.0000 0.83290  0.31085  0.67451  Biso   1.000  F
  F19      1.0000 0.15620  0.16164  0.76977  Biso   1.000  F
  F20      1.0000 0.20120  0.09428  0.78386  Biso   1.000  F
  F21      1.0000 0.14860  0.13944  0.83504  Biso   1.000  F
  F22      1.0000 0.77170  0.18555  0.75751  Biso   1.000  F
  F23      1.0000 0.56970  0.15714  0.80296  Biso   1.000  F
  F24      1.0000 0.83290  0.18915  0.82549  Biso   1.000  F
  Ag9      1.0000 0.57533  0.47975  0.05872  Biso   1.000  Ag
  Ag10     1.0000 0.13725  0.50954  0.04328  Biso   1.000  Ag
  Ag11     1.0000 0.57533  0.02025  0.44128  Biso   1.000  Ag
  Ag12     1.0000 0.13725  0.99046  0.45671  Biso   1.000  Ag
  Ag13     1.0000 0.92467  0.44128  0.47975  Biso   1.000  Ag
  Ag14     1.0000 0.36275  0.45671  0.50954  Biso   1.000  Ag
  Ag15     1.0000 0.92467  0.05872  0.02025  Biso   1.000  Ag
  Ag16     1.0000 0.36275  0.04328  0.99046  Biso   1.000  Ag
  H33      1.0000 0.55030  0.55020  0.20080  Biso   1.000  H
  H34      1.0000 0.45240  0.58030  0.26610  Biso   1.000  H
  H35      1.0000 0.93650  0.61560  0.21330  Biso   1.000  H
  H36      1.0000 0.03360  0.58630  0.14880  Biso   1.000  H
  H37      1.0000 0.12760  0.53360  0.29500  Biso   1.000  H
  H38      1.0000 0.15430  0.48680  0.35250  Biso   1.000  H
  H39      1.0000 0.28320  0.58620  0.43040  Biso   1.000  H
  H40      1.0000 0.23620  0.63350  0.37460  Biso   1.000  H
  H41      1.0000 0.55030  0.94980  0.29920  Biso   1.000  H
  H42      1.0000 0.45240  0.91970  0.23390  Biso   1.000  H
  H43      1.0000 0.93650  0.88440  0.28670  Biso   1.000  H
  H44      1.0000 0.03360  0.91370  0.35120  Biso   1.000  H
  H45      1.0000 0.12760  0.96640  0.20500  Biso   1.000  H
  H46      1.0000 0.15430  0.01320  0.14750  Biso   1.000  H
  H47      1.0000 0.28320  0.91380  0.06960  Biso   1.000  H
  H48      1.0000 0.23620  0.86650  0.12540  Biso   1.000  H
  H49      1.0000 0.94970  0.29920  0.55020  Biso   1.000  H
  H50      1.0000 0.04760  0.23390  0.58030  Biso   1.000  H
  H51      1.0000 0.56350  0.28670  0.61560  Biso   1.000  H
  H52      1.0000 0.46640  0.35120  0.58630  Biso   1.000  H
  H53      1.0000 0.37240  0.20500  0.53360  Biso   1.000  H
  H54      1.0000 0.34570  0.14750  0.48680  Biso   1.000  H
  H55      1.0000 0.21680  0.06960  0.58620  Biso   1.000  H
  H56      1.0000 0.26380  0.12540  0.63350  Biso   1.000  H
  H57      1.0000 0.94970  0.20080  0.94980  Biso   1.000  H
  H58      1.0000 0.04760  0.26610  0.91970  Biso   1.000  H
  H59      1.0000 0.56350  0.21330  0.88440  Biso   1.000  H
  H60      1.0000 0.46640  0.14880  0.91370  Biso   1.000  H
  H61      1.0000 0.37240  0.29500  0.96640  Biso   1.000  H
  H62      1.0000 0.34570  0.35250  0.01320  Biso   1.000  H
  H63      1.0000 0.21680  0.43040  0.91380  Biso   1.000  H
  H64      1.0000 0.26380  0.37460  0.86650  Biso   1.000  H
  C69      1.0000 0.34880  0.54500  0.12519  Biso   1.000  C
  C70      1.0000 0.30090  0.56494  0.16783  Biso   1.000  C
  C71      1.0000 0.42700  0.56320  0.20324  Biso   1.000  C
  C72      1.0000 0.36740  0.58112  0.24251  Biso   1.000  C
  C73      1.0000 0.18160  0.60032  0.24684  Biso   1.000  C
  C74      1.0000 0.05940  0.60231  0.21112  Biso   1.000  C
  C75      1.0000 0.11800  0.58481  0.17239  Biso   1.000  C
  C76      1.0000 0.12700  0.61979  0.29091  Biso   1.000  C
  C77      1.0000 0.90430  0.62924  0.29480  Biso   1.000  C
  C78      1.0000 0.23970  0.66347  0.29409  Biso   1.000  C
  C79      1.0000 0.17680  0.58901  0.32837  Biso   1.000  C
  C80      1.0000 0.15460  0.54437  0.32242  Biso   1.000  C
  C81      1.0000 0.17250  0.51621  0.35676  Biso   1.000  C
  C82      1.0000 0.21780  0.53184  0.39781  Biso   1.000  C
  C83      1.0000 0.22230  0.50193  0.43535  Biso   1.000  C
  C84      1.0000 0.24670  0.57573  0.40340  Biso   1.000  C
  C85      1.0000 0.22230  0.60404  0.36980  Biso   1.000  C
  C86      1.0000 0.34880  0.95500  0.37481  Biso   1.000  C
  C87      1.0000 0.30090  0.93506  0.33217  Biso   1.000  C
  C88      1.0000 0.42700  0.93680  0.29676  Biso   1.000  C
  C89      1.0000 0.36740  0.91888  0.25749  Biso   1.000  C
  C90      1.0000 0.18160  0.89968  0.25316  Biso   1.000  C
  C91      1.0000 0.05940  0.89769  0.28888  Biso   1.000  C
  C92      1.0000 0.11800  0.91519  0.32761  Biso   1.000  C
  C93      1.0000 0.12700  0.88021  0.20909  Biso   1.000  C
  C94      1.0000 0.90430  0.87076  0.20520  Biso   1.000  C
  C95      1.0000 0.23970  0.83653  0.20591  Biso   1.000  C
  C96      1.0000 0.17680  0.91099  0.17163  Biso   1.000  C
  C97      1.0000 0.15460  0.95563  0.17758  Biso   1.000  C
  C98      1.0000 0.17250  0.98379  0.14324  Biso   1.000  C
  C99      1.0000 0.21780  0.96816  0.10219  Biso   1.000  C
  C100     1.0000 0.22230  0.99807  0.06465  Biso   1.000  C
  C101     1.0000 0.24670  0.92427  0.09660  Biso   1.000  C
  C102     1.0000 0.22230  0.89596  0.13020  Biso   1.000  C
  C103     1.0000 0.15120  0.37481  0.54500  Biso   1.000  C
  C104     1.0000 0.19910  0.33217  0.56494  Biso   1.000  C
  C105     1.0000 0.07300  0.29676  0.56320  Biso   1.000  C
  C106     1.0000 0.13260  0.25749  0.58112  Biso   1.000  C
  C107     1.0000 0.31840  0.25316  0.60032  Biso   1.000  C
  C108     1.0000 0.44060  0.28888  0.60231  Biso   1.000  C
  C109     1.0000 0.38200  0.32761  0.58481  Biso   1.000  C
  C110     1.0000 0.37300  0.20909  0.61979  Biso   1.000  C
  C111     1.0000 0.59570  0.20520  0.62924  Biso   1.000  C
  C112     1.0000 0.26030  0.20591  0.66347  Biso   1.000  C
  C113     1.0000 0.32320  0.17163  0.58901  Biso   1.000  C
  C114     1.0000 0.34540  0.17758  0.54437  Biso   1.000  C
  C115     1.0000 0.32750  0.14324  0.51621  Biso   1.000  C
  C116     1.0000 0.28220  0.10219  0.53184  Biso   1.000  C
  C117     1.0000 0.27770  0.06465  0.50193  Biso   1.000  C
  C118     1.0000 0.25330  0.09660  0.57573  Biso   1.000  C
  C119     1.0000 0.27770  0.13020  0.60404  Biso   1.000  C
  C120     1.0000 0.15120  0.12519  0.95500  Biso   1.000  C
  C121     1.0000 0.19910  0.16783  0.93506  Biso   1.000  C
  C122     1.0000 0.07300  0.20324  0.93680  Biso   1.000  C
  C123     1.0000 0.13260  0.24251  0.91888  Biso   1.000  C
  C124     1.0000 0.31840  0.24684  0.89968  Biso   1.000  C
  C125     1.0000 0.44060  0.21112  0.89769  Biso   1.000  C
  C126     1.0000 0.38200  0.17239  0.91519  Biso   1.000  C
  C127     1.0000 0.37300  0.29091  0.88021  Biso   1.000  C
  C128     1.0000 0.59570  0.29480  0.87076  Biso   1.000  C
  C129     1.0000 0.26030  0.29409  0.83653  Biso   1.000  C
  C130     1.0000 0.32320  0.32837  0.91099  Biso   1.000  C
  C131     1.0000 0.34540  0.32242  0.95563  Biso   1.000  C
  C132     1.0000 0.32750  0.35676  0.98379  Biso   1.000  C
  C133     1.0000 0.28220  0.39781  0.96816  Biso   1.000  C
  C134     1.0000 0.27770  0.43535  0.99807  Biso   1.000  C
  C135     1.0000 0.25330  0.40340  0.92427  Biso   1.000  C
  C136     1.0000 0.27770  0.36980  0.89596  Biso   1.000  C
  O17      1.0000 0.23800  0.55500  0.09388  Biso   1.000  O
  O18      1.0000 0.49050  0.51896  0.12195  Biso   1.000  O
  O19      1.0000 0.16510  0.46393  0.43077  Biso   1.000  O
  O20      1.0000 0.28500  0.51744  0.47173  Biso   1.000  O
  O21      1.0000 0.23800  0.94500  0.40612  Biso   1.000  O
  O22      1.0000 0.49050  0.98104  0.37805  Biso   1.000  O
  O23      1.0000 0.16510  0.03607  0.06923  Biso   1.000  O
  O24      1.0000 0.28500  0.98256  0.02827  Biso   1.000  O
  O25      1.0000 0.26200  0.40612  0.55500  Biso   1.000  O
  O26      1.0000 0.00950  0.37805  0.51896  Biso   1.000  O
  O27      1.0000 0.33490  0.06923  0.46393  Biso   1.000  O
  O28      1.0000 0.21500  0.02827  0.51744  Biso   1.000  O
  O29      1.0000 0.26200  0.09388  0.94500  Biso   1.000  O
  O30      1.0000 0.00950  0.12195  0.98104  Biso   1.000  O
  O31      1.0000 0.33490  0.43077  0.03607  Biso   1.000  O
  O32      1.0000 0.21500  0.47173  0.98256  Biso   1.000  O
  F25      1.0000 0.84380  0.66164  0.26977  Biso   1.000  F
  F26      1.0000 0.79880  0.59428  0.28386  Biso   1.000  F
  F27      1.0000 0.85140  0.63944  0.33504  Biso   1.000  F
  F28      1.0000 0.22830  0.68555  0.25751  Biso   1.000  F
  F29      1.0000 0.43030  0.65714  0.30296  Biso   1.000  F
  F30      1.0000 0.16710  0.68915  0.32549  Biso   1.000  F
  F31      1.0000 0.84380  0.83836  0.23023  Biso   1.000  F
  F32      1.0000 0.79880  0.90572  0.21614  Biso   1.000  F
  F33      1.0000 0.85140  0.86056  0.16496  Biso   1.000  F
  F34      1.0000 0.22830  0.81445  0.24249  Biso   1.000  F
  F35      1.0000 0.43030  0.84286  0.19704  Biso   1.000  F
  F36      1.0000 0.16710  0.81085  0.17451  Biso   1.000  F
  F37      1.0000 0.65620  0.23023  0.66164  Biso   1.000  F
  F38      1.0000 0.70120  0.21614  0.59428  Biso   1.000  F
  F39      1.0000 0.64860  0.16496  0.63944  Biso   1.000  F
  F40      1.0000 0.27170  0.24249  0.68555  Biso   1.000  F
  F41      1.0000 0.06970  0.19704  0.65714  Biso   1.000  F
  F42      1.0000 0.33290  0.17451  0.68915  Biso   1.000  F
  F43      1.0000 0.65620  0.26977  0.83836  Biso   1.000  F
  F44      1.0000 0.70120  0.28386  0.90572  Biso   1.000  F
  F45      1.0000 0.64860  0.33504  0.86056  Biso   1.000  F
  F46      1.0000 0.27170  0.25751  0.81445  Biso   1.000  F
  F47      1.0000 0.06970  0.30296  0.84286  Biso   1.000  F
  F48      1.0000 0.33290  0.32549  0.81085  Biso   1.000  F
