data_image0
_cell_length_a       13.819
_cell_length_b       15.382
_cell_length_c       24.383
_cell_angle_alpha    100.41
_cell_angle_beta     95.25
_cell_angle_gamma    101.09

_symmetry_space_group_name_H-M    P 1
_symmetry_int_tables_number       1

loop_
  _symmetry_equiv_pos_as_xyz
  'x, y, z'

loop_
  _atom_site_label
  _atom_site_occupancy
  _atom_site_fract_x
  _atom_site_fract_y
  _atom_site_fract_z
  _atom_site_thermal_displace_type
  _atom_site_B_iso_or_equiv
  _atom_site_type_symbol
  Mn1      1.0000 0.17461  0.64356  0.32339  Biso   1.000  Mn
  Mn2      1.0000 0.36787  0.55613  0.27384  Biso   1.000  Mn
  Mn3      1.0000 0.60876  0.65409  0.32476  Biso   1.000  Mn
  Mn4      1.0000 0.81858  0.69837  0.26263  Biso   1.000  Mn
  Mn5      1.0000 0.82539  0.35644  0.67661  Biso   1.000  Mn
  Mn6      1.0000 0.63213  0.44387  0.72616  Biso   1.000  Mn
  Mn7      1.0000 0.39124  0.34591  0.67524  Biso   1.000  Mn
  Mn8      1.0000 0.18142  0.30163  0.73737  Biso   1.000  Mn
  H1       1.0000 0.28800  0.35300  0.31260  Biso   1.000  H
  H2       1.0000 0.26120  0.19960  0.31060  Biso   1.000  H
  H3       1.0000 0.98060  0.19600  0.33510  Biso   1.000  H
  H4       1.0000 0.00640  0.34780  0.33300  Biso   1.000  H
  H5       1.0000 0.23910  0.07710  0.35000  Biso   1.000  H
  H6       1.0000 0.21150  0.92500  0.34730  Biso   1.000  H
  H7       1.0000 0.93280  0.89690  0.28440  Biso   1.000  H
  H8       1.0000 0.95870  0.04970  0.28890  Biso   1.000  H
  H9       1.0000 0.22070  0.47510  0.10090  Biso   1.000  H
  H10      1.0000 0.13580  0.44400  0.01140  Biso   1.000  H
  H11      1.0000 0.93410  0.57600  0.06930  Biso   1.000  H
  H12      1.0000 0.02090  0.61170  0.15620  Biso   1.000  H
  H13      1.0000 0.55050  0.76380  0.44260  Biso   1.000  H
  H14      1.0000 0.59030  0.89660  0.50850  Biso   1.000  H
  H15      1.0000 0.37030  0.98460  0.43450  Biso   1.000  H
  H16      1.0000 0.32720  0.85060  0.36990  Biso   1.000  H
  H17      1.0000 0.68610  0.58830  0.13540  Biso   1.000  H
  H18      1.0000 0.65630  0.53260  0.03990  Biso   1.000  H
  H19      1.0000 0.37030  0.52110  0.04440  Biso   1.000  H
  H20      1.0000 0.39680  0.56520  0.13870  Biso   1.000  H
  H21      1.0000 0.69350  0.40730  0.31350  Biso   1.000  H
  H22      1.0000 0.74020  0.27260  0.31920  Biso   1.000  H
  H23      1.0000 0.45980  0.13870  0.26260  Biso   1.000  H
  H24      1.0000 0.41350  0.27250  0.25870  Biso   1.000  H
  H25      1.0000 0.75360  0.11660  0.26000  Biso   1.000  H
  H26      1.0000 0.78780  0.97720  0.26330  Biso   1.000  H
  H27      1.0000 0.55940  0.92540  0.34930  Biso   1.000  H
  H28      1.0000 0.52000  0.05990  0.34070  Biso   1.000  H
  H29      1.0000 0.76690  0.60180  0.48590  Biso   1.000  H
  H30      1.0000 0.86570  0.53090  0.53700  Biso   1.000  H
  H31      1.0000 0.03980  0.52210  0.41760  Biso   1.000  H
  H32      1.0000 0.93530  0.58250  0.36460  Biso   1.000  H
  H33      1.0000 0.15540  0.76540  0.44160  Biso   1.000  H
  H34      1.0000 0.34250  0.68090  0.48970  Biso   1.000  H
  H35      1.0000 0.35250  0.73810  0.55090  Biso   1.000  H
  H36      1.0000 0.28140  0.64220  0.53430  Biso   1.000  H
  H37      1.0000 0.25100  0.78670  0.58190  Biso   1.000  H
  H38      1.0000 0.25190  0.85600  0.54190  Biso   1.000  H
  H39      1.0000 0.15100  0.79510  0.54940  Biso   1.000  H
  H40      1.0000 0.94240  0.54030  0.24740  Biso   1.000  H
  H41      1.0000 0.80840  0.39940  0.12170  Biso   1.000  H
  H42      1.0000 0.75170  0.34320  0.16100  Biso   1.000  H
  H43      1.0000 0.74140  0.44320  0.16230  Biso   1.000  H
  H44      1.0000 0.98210  0.41550  0.24360  Biso   1.000  H
  H45      1.0000 0.89870  0.32740  0.22360  Biso   1.000  H
  H46      1.0000 0.96620  0.36360  0.18080  Biso   1.000  H
  H47      1.0000 0.72700  0.74570  0.13460  Biso   1.000  H
  H48      1.0000 0.97100  0.81460  0.06420  Biso   1.000  H
  H49      1.0000 0.98310  0.79150  0.12420  Biso   1.000  H
  H50      1.0000 0.97250  0.71520  0.07050  Biso   1.000  H
  H51      1.0000 0.72050  0.70210  0.02360  Biso   1.000  H
  H52      1.0000 0.81760  0.73440  0.99570  Biso   1.000  H
  H53      1.0000 0.71200  0.64700  0.68740  Biso   1.000  H
  H54      1.0000 0.73880  0.80040  0.68940  Biso   1.000  H
  H55      1.0000 0.01940  0.80400  0.66490  Biso   1.000  H
  H56      1.0000 0.99360  0.65220  0.66700  Biso   1.000  H
  H57      1.0000 0.76090  0.92290  0.65000  Biso   1.000  H
  H58      1.0000 0.78850  0.07500  0.65270  Biso   1.000  H
  H59      1.0000 0.06720  0.10310  0.71560  Biso   1.000  H
  H60      1.0000 0.04130  0.95030  0.71110  Biso   1.000  H
  H61      1.0000 0.77930  0.52490  0.89910  Biso   1.000  H
  H62      1.0000 0.86420  0.55600  0.98860  Biso   1.000  H
  H63      1.0000 0.06590  0.42400  0.93070  Biso   1.000  H
  H64      1.0000 0.97910  0.38830  0.84380  Biso   1.000  H
  H65      1.0000 0.44950  0.23620  0.55740  Biso   1.000  H
  H66      1.0000 0.40970  0.10340  0.49150  Biso   1.000  H
  H67      1.0000 0.62970  0.01540  0.56550  Biso   1.000  H
  H68      1.0000 0.67280  0.14940  0.63010  Biso   1.000  H
  H69      1.0000 0.31390  0.41170  0.86460  Biso   1.000  H
  H70      1.0000 0.34370  0.46740  0.96010  Biso   1.000  H
  H71      1.0000 0.62970  0.47890  0.95560  Biso   1.000  H
  H72      1.0000 0.60320  0.43480  0.86130  Biso   1.000  H
  H73      1.0000 0.30650  0.59270  0.68650  Biso   1.000  H
  H74      1.0000 0.25980  0.72740  0.68080  Biso   1.000  H
  H75      1.0000 0.54020  0.86130  0.73740  Biso   1.000  H
  H76      1.0000 0.58650  0.72750  0.74130  Biso   1.000  H
  H77      1.0000 0.24640  0.88340  0.74000  Biso   1.000  H
  H78      1.0000 0.21220  0.02280  0.73670  Biso   1.000  H
  H79      1.0000 0.44060  0.07460  0.65070  Biso   1.000  H
  H80      1.0000 0.48000  0.94010  0.65930  Biso   1.000  H
  H81      1.0000 0.23310  0.39820  0.51410  Biso   1.000  H
  H82      1.0000 0.13430  0.46910  0.46300  Biso   1.000  H
  H83      1.0000 0.96020  0.47790  0.58240  Biso   1.000  H
  H84      1.0000 0.06470  0.41750  0.63540  Biso   1.000  H
  H85      1.0000 0.84460  0.23460  0.55840  Biso   1.000  H
  H86      1.0000 0.65750  0.31910  0.51030  Biso   1.000  H
  H87      1.0000 0.64750  0.26190  0.44910  Biso   1.000  H
  H88      1.0000 0.71860  0.35780  0.46570  Biso   1.000  H
  H89      1.0000 0.74900  0.21330  0.41810  Biso   1.000  H
  H90      1.0000 0.74810  0.14400  0.45810  Biso   1.000  H
  H91      1.0000 0.84900  0.20490  0.45060  Biso   1.000  H
  H92      1.0000 0.05760  0.45970  0.75260  Biso   1.000  H
  H93      1.0000 0.19160  0.60060  0.87830  Biso   1.000  H
  H94      1.0000 0.24830  0.65680  0.83900  Biso   1.000  H
  H95      1.0000 0.25860  0.55680  0.83770  Biso   1.000  H
  H96      1.0000 0.01790  0.58450  0.75640  Biso   1.000  H
  H97      1.0000 0.10130  0.67260  0.77640  Biso   1.000  H
  H98      1.0000 0.03380  0.63640  0.81920  Biso   1.000  H
  H99      1.0000 0.27300  0.25430  0.86540  Biso   1.000  H
  H100     1.0000 0.02900  0.18540  0.93580  Biso   1.000  H
  H101     1.0000 0.01690  0.20850  0.87580  Biso   1.000  H
  H102     1.0000 0.02750  0.28480  0.92950  Biso   1.000  H
  H103     1.0000 0.27950  0.29790  0.97640  Biso   1.000  H
  H104     1.0000 0.18240  0.26560  0.00430  Biso   1.000  H
  C1       1.0000 0.78440  0.72610  0.02970  Biso   1.000  C
  C2       1.0000 0.14960  0.36680  0.32310  Biso   1.000  C
  C3       1.0000 0.22520  0.32170  0.31650  Biso   1.000  C
  C4       1.0000 0.20880  0.22910  0.31540  Biso   1.000  C
  C5       1.0000 0.11840  0.18050  0.32120  Biso   1.000  C
  C6       1.0000 0.04260  0.22650  0.32940  Biso   1.000  C
  C7       1.0000 0.05900  0.31840  0.32900  Biso   1.000  C
  C8       1.0000 0.10140  0.08140  0.32010  Biso   1.000  C
  C9       1.0000 0.17590  0.04160  0.33690  Biso   1.000  C
  C10      1.0000 0.15920  0.94960  0.33480  Biso   1.000  C
  C11      1.0000 0.06860  0.89340  0.31500  Biso   1.000  C
  C12      1.0000 0.99560  0.93260  0.29820  Biso   1.000  C
  C13      1.0000 0.01150  0.02520  0.30080  Biso   1.000  C
  C14      1.0000 0.16680  0.46620  0.32290  Biso   1.000  C
  C15      1.0000 0.05300  0.79270  0.31250  Biso   1.000  C
  C16      1.0000 0.13060  0.54850  0.13840  Biso   1.000  C
  C17      1.0000 0.16360  0.49730  0.09440  Biso   1.000  C
  C18      1.0000 0.11230  0.47850  0.04060  Biso   1.000  C
  C19      1.0000 0.02720  0.51000  0.02950  Biso   1.000  C
  C20      1.0000 0.99370  0.55730  0.07480  Biso   1.000  C
  C21      1.0000 0.04480  0.57740  0.12710  Biso   1.000  C
  C22      1.0000 0.18630  0.56880  0.19670  Biso   1.000  C
  C23      1.0000 0.43470  0.79300  0.39914  Biso   1.000  C
  C24      1.0000 0.51340  0.80790  0.44080  Biso   1.000  C
  C25      1.0000 0.53760  0.88820  0.48010  Biso   1.000  C
  C26      1.0000 0.48630  0.95620  0.47850  Biso   1.000  C
  C27      1.0000 0.40700  0.94030  0.43650  Biso   1.000  C
  C28      1.0000 0.38130  0.85990  0.39760  Biso   1.000  C
  C29      1.0000 0.40830  0.70860  0.35528  Biso   1.000  C
  C30      1.0000 0.54510  0.58460  0.14770  Biso   1.000  C
  C31      1.0000 0.62110  0.57350  0.11740  Biso   1.000  C
  C32      1.0000 0.60300  0.54030  0.05960  Biso   1.000  C
  C33      1.0000 0.50960  0.51870  0.03110  Biso   1.000  C
  C34      1.0000 0.43490  0.53230  0.06260  Biso   1.000  C
  C35      1.0000 0.45080  0.56110  0.11900  Biso   1.000  C
  C36      1.0000 0.56370  0.61870  0.21008  Biso   1.000  C
  C37      1.0000 0.54850  0.35420  0.28880  Biso   1.000  C
  C38      1.0000 0.64600  0.35340  0.30480  Biso   1.000  C
  C39      1.0000 0.67390  0.27240  0.30810  Biso   1.000  C
  C40      1.0000 0.60510  0.19150  0.29520  Biso   1.000  C
  C41      1.0000 0.50640  0.19290  0.27450  Biso   1.000  C
  C42      1.0000 0.47890  0.27250  0.27180  Biso   1.000  C
  C43      1.0000 0.63330  0.10400  0.30040  Biso   1.000  C
  C44      1.0000 0.71320  0.07750  0.27750  Biso   1.000  C
  C45      1.0000 0.73460  0.99420  0.28000  Biso   1.000  C
  C46      1.0000 0.67710  0.93600  0.30730  Biso   1.000  C
  C47      1.0000 0.59840  0.96320  0.33030  Biso   1.000  C
  C48      1.0000 0.57570  0.04460  0.32600  Biso   1.000  C
  C49      1.0000 0.51730  0.44380  0.28930  Biso   1.000  C
  C50      1.0000 0.69450  0.84280  0.30860  Biso   1.000  C
  C51      1.0000 0.83890  0.59710  0.41960  Biso   1.000  C
  C52      1.0000 0.82120  0.58380  0.47100  Biso   1.000  C
  C53      1.0000 0.88240  0.54330  0.50270  Biso   1.000  C
  C54      1.0000 0.96700  0.52190  0.48350  Biso   1.000  C
  C55      1.0000 0.98380  0.53700  0.43200  Biso   1.000  C
  C56      1.0000 0.92110  0.57370  0.40000  Biso   1.000  C
  C57      1.0000 0.76900  0.63580  0.38470  Biso   1.000  C
  C58      1.0000 0.19420  0.72560  0.45070  Biso   1.000  C
  C59      1.0000 0.30760  0.69610  0.52120  Biso   1.000  C
  C60      1.0000 0.22100  0.79700  0.54740  Biso   1.000  C
  C61      1.0000 0.88310  0.51790  0.22330  Biso   1.000  C
  C62      1.0000 0.78590  0.40230  0.15790  Biso   1.000  C
  C63      1.0000 0.93350  0.38080  0.21290  Biso   1.000  C
  C64      1.0000 0.79460  0.74590  0.13670  Biso   1.000  C
  C65      1.0000 0.95190  0.76950  0.08610  Biso   1.000  C
  C66      1.0000 0.21560  0.27390  0.97030  Biso   1.000  C
  C67      1.0000 0.85040  0.63320  0.67690  Biso   1.000  C
  C68      1.0000 0.77480  0.67830  0.68350  Biso   1.000  C
  C69      1.0000 0.79120  0.77090  0.68460  Biso   1.000  C
  C70      1.0000 0.88160  0.81950  0.67880  Biso   1.000  C
  C71      1.0000 0.95740  0.77350  0.67060  Biso   1.000  C
  C72      1.0000 0.94100  0.68160  0.67100  Biso   1.000  C
  C73      1.0000 0.89860  0.91860  0.67990  Biso   1.000  C
  C74      1.0000 0.82410  0.95840  0.66310  Biso   1.000  C
  C75      1.0000 0.84080  0.05040  0.66520  Biso   1.000  C
  C76      1.0000 0.93140  0.10660  0.68500  Biso   1.000  C
  C77      1.0000 0.00440  0.06740  0.70180  Biso   1.000  C
  C78      1.0000 0.98850  0.97480  0.69920  Biso   1.000  C
  C79      1.0000 0.83320  0.53380  0.67710  Biso   1.000  C
  C80      1.0000 0.94700  0.20730  0.68750  Biso   1.000  C
  C81      1.0000 0.86940  0.45150  0.86160  Biso   1.000  C
  C82      1.0000 0.83640  0.50270  0.90560  Biso   1.000  C
  C83      1.0000 0.88770  0.52150  0.95940  Biso   1.000  C
  C84      1.0000 0.97280  0.49000  0.97050  Biso   1.000  C
  C85      1.0000 0.00630  0.44270  0.92520  Biso   1.000  C
  C86      1.0000 0.95520  0.42260  0.87290  Biso   1.000  C
  C87      1.0000 0.81370  0.43120  0.80330  Biso   1.000  C
  C88      1.0000 0.56530  0.20700  0.60086  Biso   1.000  C
  C89      1.0000 0.48660  0.19210  0.55920  Biso   1.000  C
  C90      1.0000 0.46240  0.11180  0.51990  Biso   1.000  C
  C91      1.0000 0.51370  0.04380  0.52150  Biso   1.000  C
  C92      1.0000 0.59300  0.05970  0.56350  Biso   1.000  C
  C93      1.0000 0.61870  0.14010  0.60240  Biso   1.000  C
  C94      1.0000 0.59170  0.29140  0.64472  Biso   1.000  C
  C95      1.0000 0.45490  0.41540  0.85230  Biso   1.000  C
  C96      1.0000 0.37890  0.42650  0.88260  Biso   1.000  C
  C97      1.0000 0.39700  0.45970  0.94040  Biso   1.000  C
  C98      1.0000 0.49040  0.48130  0.96890  Biso   1.000  C
  C99      1.0000 0.56510  0.46770  0.93740  Biso   1.000  C
  C100     1.0000 0.54920  0.43890  0.88100  Biso   1.000  C
  C101     1.0000 0.43630  0.38130  0.78992  Biso   1.000  C
  C102     1.0000 0.45150  0.64580  0.71120  Biso   1.000  C
  C103     1.0000 0.35400  0.64660  0.69520  Biso   1.000  C
  C104     1.0000 0.32610  0.72760  0.69190  Biso   1.000  C
  C105     1.0000 0.39490  0.80850  0.70480  Biso   1.000  C
  C106     1.0000 0.49360  0.80710  0.72550  Biso   1.000  C
  C107     1.0000 0.52110  0.72750  0.72820  Biso   1.000  C
  C108     1.0000 0.36670  0.89600  0.69960  Biso   1.000  C
  C109     1.0000 0.28680  0.92250  0.72250  Biso   1.000  C
  C110     1.0000 0.26540  0.00580  0.72000  Biso   1.000  C
  C111     1.0000 0.32290  0.06400  0.69270  Biso   1.000  C
  C112     1.0000 0.40160  0.03680  0.66970  Biso   1.000  C
  C113     1.0000 0.42430  0.95540  0.67400  Biso   1.000  C
  C114     1.0000 0.48270  0.55620  0.71070  Biso   1.000  C
  C115     1.0000 0.30550  0.15720  0.69140  Biso   1.000  C
  C116     1.0000 0.16110  0.40290  0.58040  Biso   1.000  C
  C117     1.0000 0.17880  0.41620  0.52900  Biso   1.000  C
  C118     1.0000 0.11760  0.45670  0.49730  Biso   1.000  C
  C119     1.0000 0.03300  0.47810  0.51650  Biso   1.000  C
  C120     1.0000 0.01620  0.46300  0.56800  Biso   1.000  C
  C121     1.0000 0.07890  0.42630  0.60000  Biso   1.000  C
  C122     1.0000 0.23100  0.36420  0.61530  Biso   1.000  C
  C123     1.0000 0.80580  0.27440  0.54930  Biso   1.000  C
  C124     1.0000 0.69240  0.30390  0.47880  Biso   1.000  C
  C125     1.0000 0.77900  0.20300  0.45260  Biso   1.000  C
  C126     1.0000 0.11690  0.48210  0.77670  Biso   1.000  C
  C127     1.0000 0.21410  0.59770  0.84210  Biso   1.000  C
  C128     1.0000 0.06650  0.61920  0.78710  Biso   1.000  C
  C129     1.0000 0.20540  0.25410  0.86330  Biso   1.000  C
  C130     1.0000 0.04810  0.23050  0.91390  Biso   1.000  C
  N1       1.0000 0.23110  0.73470  0.50490  Biso   1.000  N
  N2       1.0000 0.86630  0.43250  0.19930  Biso   1.000  N
  N3       1.0000 0.84380  0.75030  0.08500  Biso   1.000  N
  N4       1.0000 0.76890  0.26530  0.49510  Biso   1.000  N
  N5       1.0000 0.13370  0.56750  0.80070  Biso   1.000  N
  N6       1.0000 0.15620  0.24970  0.91500  Biso   1.000  N
  O1       1.0000 0.25440  0.50890  0.32285  Biso   1.000  O
  O2       1.0000 0.09570  0.50510  0.32382  Biso   1.000  O
  O3       1.0000 0.12730  0.76410  0.32949  Biso   1.000  O
  O4       1.0000 0.97100  0.74280  0.29470  Biso   1.000  O
  O5       1.0000 0.26370  0.53850  0.20332  Biso   1.000  O
  O6       1.0000 0.14930  0.61250  0.23488  Biso   1.000  O
  O7       1.0000 0.33360  0.69480  0.31836  Biso   1.000  O
  O8       1.0000 0.46280  0.64990  0.35432  Biso   1.000  O
  O9       1.0000 0.49100  0.62570  0.23659  Biso   1.000  O
  O10      1.0000 0.65090  0.63870  0.23444  Biso   1.000  O
  O11      1.0000 0.58100  0.51250  0.31094  Biso   1.000  O
  O12      1.0000 0.42960  0.44160  0.26880  Biso   1.000  O
  O13      1.0000 0.63190  0.79170  0.32866  Biso   1.000  O
  O14      1.0000 0.77010  0.82170  0.28773  Biso   1.000  O
  O15      1.0000 0.69230  0.65420  0.40460  Biso   1.000  O
  O16      1.0000 0.78530  0.64370  0.33571  Biso   1.000  O
  O17      1.0000 0.20880  0.66820  0.41304  Biso   1.000  O
  O18      1.0000 0.83330  0.56930  0.21840  Biso   1.000  O
  O19      1.0000 0.84030  0.74250  0.18310  Biso   1.000  O
  O20      1.0000 0.74560  0.49110  0.67715  Biso   1.000  O
  O21      1.0000 0.90430  0.49490  0.67618  Biso   1.000  O
  O22      1.0000 0.87270  0.23590  0.67051  Biso   1.000  O
  O23      1.0000 0.02900  0.25720  0.70530  Biso   1.000  O
  O24      1.0000 0.73630  0.46150  0.79668  Biso   1.000  O
  O25      1.0000 0.85070  0.38750  0.76512  Biso   1.000  O
  O26      1.0000 0.66640  0.30520  0.68164  Biso   1.000  O
  O27      1.0000 0.53720  0.35010  0.64568  Biso   1.000  O
  O28      1.0000 0.50900  0.37430  0.76341  Biso   1.000  O
  O29      1.0000 0.34910  0.36130  0.76556  Biso   1.000  O
  O30      1.0000 0.41900  0.48750  0.68906  Biso   1.000  O
  O31      1.0000 0.57040  0.55840  0.73120  Biso   1.000  O
  O32      1.0000 0.36810  0.20830  0.67134  Biso   1.000  O
  O33      1.0000 0.22990  0.17830  0.71227  Biso   1.000  O
  O34      1.0000 0.30770  0.34580  0.59540  Biso   1.000  O
  O35      1.0000 0.21470  0.35630  0.66429  Biso   1.000  O
  O36      1.0000 0.79120  0.33180  0.58696  Biso   1.000  O
  O37      1.0000 0.16670  0.43070  0.78160  Biso   1.000  O
  O38      1.0000 0.15970  0.25750  0.81690  Biso   1.000  O
