data_image0
_cell_length_a       13.957
_cell_length_b       15.827
_cell_length_c       25.704
_cell_angle_alpha    90
_cell_angle_beta     90
_cell_angle_gamma    93.362

_symmetry_space_group_name_H-M    P 1
_symmetry_int_tables_number       1

loop_
  _symmetry_equiv_pos_as_xyz
  'x, y, z'

loop_
  _atom_site_label
  _atom_site_occupancy
  _atom_site_fract_x
  _atom_site_fract_y
  _atom_site_fract_z
  _atom_site_thermal_displace_type
  _atom_site_B_iso_or_equiv
  _atom_site_type_symbol
  Cd1      1.0000 0.87279  0.99578  0.03460  Biso   1.000  Cd
  Cd2      1.0000 0.62466  0.99405  0.96860  Biso   1.000  Cd
  Cd3      1.0000 0.12721  0.50422  0.53460  Biso   1.000  Cd
  Cd4      1.0000 0.37534  0.50595  0.46860  Biso   1.000  Cd
  Cd5      1.0000 0.12721  0.00422  0.96540  Biso   1.000  Cd
  Cd6      1.0000 0.37534  0.00595  0.03140  Biso   1.000  Cd
  Cd7      1.0000 0.87279  0.49578  0.46540  Biso   1.000  Cd
  Cd8      1.0000 0.62466  0.49405  0.53140  Biso   1.000  Cd
  P1       1.0000 0.09078  0.30356  0.24069  Biso   1.000  P
  P2       1.0000 0.66513  0.75460  0.26432  Biso   1.000  P
  P3       1.0000 0.90922  0.19644  0.74069  Biso   1.000  P
  P4       1.0000 0.33487  0.74540  0.76432  Biso   1.000  P
  P5       1.0000 0.90922  0.69644  0.75931  Biso   1.000  P
  P6       1.0000 0.33487  0.24540  0.73568  Biso   1.000  P
  P7       1.0000 0.09078  0.80356  0.25931  Biso   1.000  P
  P8       1.0000 0.66513  0.25460  0.23568  Biso   1.000  P
  H1       1.0000 0.36470  0.90240  0.21870  Biso   1.000  H
  H2       1.0000 0.39300  0.81470  0.24020  Biso   1.000  H
  H3       1.0000 0.45250  0.85850  0.19500  Biso   1.000  H
  H4       1.0000 0.40800  0.01010  0.26870  Biso   1.000  H
  H5       1.0000 0.51810  0.02350  0.28030  Biso   1.000  H
  H6       1.0000 0.44970  0.97840  0.32140  Biso   1.000  H
  H7       1.0000 0.68790  0.89510  0.08010  Biso   1.000  H
  H8       1.0000 0.60340  0.50810  0.30780  Biso   1.000  H
  H9       1.0000 0.26060  0.52070  0.36000  Biso   1.000  H
  H10      1.0000 0.28660  0.31790  0.43840  Biso   1.000  H
  H11      1.0000 0.86980  0.21130  0.19380  Biso   1.000  H
  H12      1.0000 0.54680  0.74370  0.35260  Biso   1.000  H
  H13      1.0000 0.19630  0.24180  0.38090  Biso   1.000  H
  H14      1.0000 0.89190  0.80440  0.20330  Biso   1.000  H
  H15      1.0000 0.50400  0.45680  0.37090  Biso   1.000  H
  H16      1.0000 0.13140  0.13460  0.16720  Biso   1.000  H
  H17      1.0000 0.06980  0.05990  0.09540  Biso   1.000  H
  H18      1.0000 0.81440  0.13640  0.12320  Biso   1.000  H
  H19      1.0000 0.16590  0.44930  0.29870  Biso   1.000  H
  H20      1.0000 0.63370  0.78990  0.13980  Biso   1.000  H
  H21      1.0000 0.93970  0.89740  0.13770  Biso   1.000  H
  H22      1.0000 0.44940  0.68190  0.41480  Biso   1.000  H
  H23      1.0000 0.36590  0.33120  0.10510  Biso   1.000  H
  H24      1.0000 0.28170  0.26710  0.12200  Biso   1.000  H
  H25      1.0000 0.35120  0.30840  0.16400  Biso   1.000  H
  H26      1.0000 0.32150  0.44750  0.07870  Biso   1.000  H
  H27      1.0000 0.27530  0.50820  0.11850  Biso   1.000  H
  H28      1.0000 0.21010  0.45560  0.07910  Biso   1.000  H
  H29      1.0000 0.87220  0.55670  0.22260  Biso   1.000  H
  H30      1.0000 0.92050  0.50660  0.26710  Biso   1.000  H
  H31      1.0000 0.86170  0.45750  0.22350  Biso   1.000  H
  H32      1.0000 0.95140  0.60920  0.16590  Biso   1.000  H
  H33      1.0000 0.99740  0.54640  0.12730  Biso   1.000  H
  H34      1.0000 0.06260  0.59990  0.16630  Biso   1.000  H
  H35      1.0000 0.75850  0.01780  0.41220  Biso   1.000  H
  H36      1.0000 0.65180  0.98600  0.40160  Biso   1.000  H
  H37      1.0000 0.71010  0.03750  0.35880  Biso   1.000  H
  H38      1.0000 0.86170  0.92140  0.40980  Biso   1.000  H
  H39      1.0000 0.87780  0.87830  0.35580  Biso   1.000  H
  H40      1.0000 0.81860  0.82930  0.39930  Biso   1.000  H
  H41      1.0000 0.63530  0.59760  0.71870  Biso   1.000  H
  H42      1.0000 0.60700  0.68530  0.74020  Biso   1.000  H
  H43      1.0000 0.54750  0.64150  0.69500  Biso   1.000  H
  H44      1.0000 0.59200  0.48990  0.76870  Biso   1.000  H
  H45      1.0000 0.48190  0.47650  0.78030  Biso   1.000  H
  H46      1.0000 0.55030  0.52160  0.82140  Biso   1.000  H
  H47      1.0000 0.31210  0.60490  0.58010  Biso   1.000  H
  H48      1.0000 0.39660  0.99190  0.80780  Biso   1.000  H
  H49      1.0000 0.73940  0.97930  0.86000  Biso   1.000  H
  H50      1.0000 0.71340  0.18210  0.93840  Biso   1.000  H
  H51      1.0000 0.13020  0.28870  0.69380  Biso   1.000  H
  H52      1.0000 0.45320  0.75630  0.85260  Biso   1.000  H
  H53      1.0000 0.80370  0.25820  0.88090  Biso   1.000  H
  H54      1.0000 0.10810  0.69560  0.70330  Biso   1.000  H
  H55      1.0000 0.49600  0.04320  0.87090  Biso   1.000  H
  H56      1.0000 0.86860  0.36540  0.66720  Biso   1.000  H
  H57      1.0000 0.93020  0.44010  0.59540  Biso   1.000  H
  H58      1.0000 0.18560  0.36360  0.62320  Biso   1.000  H
  H59      1.0000 0.83410  0.05070  0.79870  Biso   1.000  H
  H60      1.0000 0.36630  0.71010  0.63980  Biso   1.000  H
  H61      1.0000 0.06030  0.60260  0.63770  Biso   1.000  H
  H62      1.0000 0.55060  0.81810  0.91480  Biso   1.000  H
  H63      1.0000 0.63410  0.16880  0.60510  Biso   1.000  H
  H64      1.0000 0.71830  0.23290  0.62200  Biso   1.000  H
  H65      1.0000 0.64880  0.19160  0.66400  Biso   1.000  H
  H66      1.0000 0.67850  0.05250  0.57870  Biso   1.000  H
  H67      1.0000 0.72470  0.99180  0.61850  Biso   1.000  H
  H68      1.0000 0.78990  0.04440  0.57910  Biso   1.000  H
  H69      1.0000 0.12780  0.94330  0.72260  Biso   1.000  H
  H70      1.0000 0.07950  0.99340  0.76710  Biso   1.000  H
  H71      1.0000 0.13830  0.04250  0.72350  Biso   1.000  H
  H72      1.0000 0.04860  0.89080  0.66590  Biso   1.000  H
  H73      1.0000 0.00260  0.95360  0.62730  Biso   1.000  H
  H74      1.0000 0.93740  0.90010  0.66630  Biso   1.000  H
  H75      1.0000 0.24150  0.48220  0.91220  Biso   1.000  H
  H76      1.0000 0.34820  0.51400  0.90160  Biso   1.000  H
  H77      1.0000 0.28990  0.46250  0.85880  Biso   1.000  H
  H78      1.0000 0.13830  0.57860  0.90980  Biso   1.000  H
  H79      1.0000 0.12220  0.62170  0.85580  Biso   1.000  H
  H80      1.0000 0.18140  0.67070  0.89930  Biso   1.000  H
  H81      1.0000 0.63530  0.09760  0.78130  Biso   1.000  H
  H82      1.0000 0.60700  0.18530  0.75980  Biso   1.000  H
  H83      1.0000 0.54750  0.14150  0.80500  Biso   1.000  H
  H84      1.0000 0.59200  0.98990  0.73130  Biso   1.000  H
  H85      1.0000 0.48190  0.97650  0.71970  Biso   1.000  H
  H86      1.0000 0.55030  0.02160  0.67860  Biso   1.000  H
  H87      1.0000 0.31210  0.10490  0.91990  Biso   1.000  H
  H88      1.0000 0.39660  0.49190  0.69220  Biso   1.000  H
  H89      1.0000 0.73940  0.47930  0.64000  Biso   1.000  H
  H90      1.0000 0.71340  0.68210  0.56160  Biso   1.000  H
  H91      1.0000 0.13020  0.78870  0.80620  Biso   1.000  H
  H92      1.0000 0.45320  0.25630  0.64740  Biso   1.000  H
  H93      1.0000 0.80370  0.75820  0.61910  Biso   1.000  H
  H94      1.0000 0.10810  0.19560  0.79670  Biso   1.000  H
  H95      1.0000 0.49600  0.54320  0.62910  Biso   1.000  H
  H96      1.0000 0.86860  0.86540  0.83280  Biso   1.000  H
  H97      1.0000 0.93020  0.94010  0.90460  Biso   1.000  H
  H98      1.0000 0.18560  0.86360  0.87680  Biso   1.000  H
  H99      1.0000 0.83410  0.55070  0.70130  Biso   1.000  H
  H100     1.0000 0.36630  0.21010  0.86020  Biso   1.000  H
  H101     1.0000 0.06030  0.10260  0.86230  Biso   1.000  H
  H102     1.0000 0.55060  0.31810  0.58520  Biso   1.000  H
  H103     1.0000 0.63410  0.66880  0.89490  Biso   1.000  H
  H104     1.0000 0.71830  0.73290  0.87800  Biso   1.000  H
  H105     1.0000 0.64880  0.69160  0.83600  Biso   1.000  H
  H106     1.0000 0.67850  0.55250  0.92130  Biso   1.000  H
  H107     1.0000 0.72470  0.49180  0.88150  Biso   1.000  H
  H108     1.0000 0.78990  0.54440  0.92090  Biso   1.000  H
  H109     1.0000 0.12780  0.44330  0.77740  Biso   1.000  H
  H110     1.0000 0.07950  0.49340  0.73290  Biso   1.000  H
  H111     1.0000 0.13830  0.54250  0.77650  Biso   1.000  H
  H112     1.0000 0.04860  0.39080  0.83410  Biso   1.000  H
  H113     1.0000 0.00260  0.45360  0.87270  Biso   1.000  H
  H114     1.0000 0.93740  0.40010  0.83370  Biso   1.000  H
  H115     1.0000 0.24150  0.98220  0.58780  Biso   1.000  H
  H116     1.0000 0.34820  0.01400  0.59840  Biso   1.000  H
  H117     1.0000 0.28990  0.96250  0.64120  Biso   1.000  H
  H118     1.0000 0.13830  0.07860  0.59020  Biso   1.000  H
  H119     1.0000 0.12220  0.12170  0.64420  Biso   1.000  H
  H120     1.0000 0.18140  0.17070  0.60070  Biso   1.000  H
  H121     1.0000 0.36470  0.40240  0.28130  Biso   1.000  H
  H122     1.0000 0.39300  0.31470  0.25980  Biso   1.000  H
  H123     1.0000 0.45250  0.35850  0.30500  Biso   1.000  H
  H124     1.0000 0.40800  0.51010  0.23130  Biso   1.000  H
  H125     1.0000 0.51810  0.52350  0.21970  Biso   1.000  H
  H126     1.0000 0.44970  0.47840  0.17860  Biso   1.000  H
  H127     1.0000 0.68790  0.39510  0.41990  Biso   1.000  H
  H128     1.0000 0.60340  0.00810  0.19220  Biso   1.000  H
  H129     1.0000 0.26060  0.02070  0.14000  Biso   1.000  H
  H130     1.0000 0.28660  0.81790  0.06160  Biso   1.000  H
  H131     1.0000 0.86980  0.71130  0.30620  Biso   1.000  H
  H132     1.0000 0.54680  0.24370  0.14740  Biso   1.000  H
  H133     1.0000 0.19630  0.74180  0.11910  Biso   1.000  H
  H134     1.0000 0.89190  0.30440  0.29670  Biso   1.000  H
  H135     1.0000 0.50400  0.95680  0.12910  Biso   1.000  H
  H136     1.0000 0.13140  0.63460  0.33280  Biso   1.000  H
  H137     1.0000 0.06980  0.55990  0.40460  Biso   1.000  H
  H138     1.0000 0.81440  0.63640  0.37680  Biso   1.000  H
  H139     1.0000 0.16590  0.94930  0.20130  Biso   1.000  H
  H140     1.0000 0.63370  0.28990  0.36020  Biso   1.000  H
  H141     1.0000 0.93970  0.39740  0.36230  Biso   1.000  H
  H142     1.0000 0.44940  0.18190  0.08520  Biso   1.000  H
  H143     1.0000 0.36590  0.83120  0.39490  Biso   1.000  H
  H144     1.0000 0.28170  0.76710  0.37800  Biso   1.000  H
  H145     1.0000 0.35120  0.80840  0.33600  Biso   1.000  H
  H146     1.0000 0.32150  0.94750  0.42130  Biso   1.000  H
  H147     1.0000 0.27530  0.00820  0.38150  Biso   1.000  H
  H148     1.0000 0.21010  0.95560  0.42090  Biso   1.000  H
  H149     1.0000 0.87220  0.05670  0.27740  Biso   1.000  H
  H150     1.0000 0.92050  0.00660  0.23290  Biso   1.000  H
  H151     1.0000 0.86170  0.95750  0.27650  Biso   1.000  H
  H152     1.0000 0.95140  0.10920  0.33410  Biso   1.000  H
  H153     1.0000 0.99740  0.04640  0.37270  Biso   1.000  H
  H154     1.0000 0.06260  0.09990  0.33370  Biso   1.000  H
  H155     1.0000 0.75850  0.51780  0.08780  Biso   1.000  H
  H156     1.0000 0.65180  0.48600  0.09840  Biso   1.000  H
  H157     1.0000 0.71010  0.53750  0.14120  Biso   1.000  H
  H158     1.0000 0.86170  0.42140  0.09020  Biso   1.000  H
  H159     1.0000 0.87780  0.37830  0.14420  Biso   1.000  H
  H160     1.0000 0.81860  0.32930  0.10070  Biso   1.000  H
  C1       1.0000 0.41730  0.86800  0.22630  Biso   1.000  C
  C2       1.0000 0.46210  0.98610  0.28490  Biso   1.000  C
  C3       1.0000 0.73100  0.87420  0.10380  Biso   1.000  C
  C4       1.0000 0.17380  0.33590  0.33300  Biso   1.000  C
  C5       1.0000 0.57170  0.54490  0.32910  Biso   1.000  C
  C6       1.0000 0.00380  0.17790  0.18780  Biso   1.000  C
  C7       1.0000 0.24800  0.46270  0.36400  Biso   1.000  C
  C8       1.0000 0.26320  0.34510  0.40940  Biso   1.000  C
  C9       1.0000 0.91130  0.17970  0.17450  Biso   1.000  C
  C10      1.0000 0.75550  0.78910  0.17750  Biso   1.000  C
  C11      1.0000 0.53910  0.68510  0.35520  Biso   1.000  C
  C12      1.0000 0.20920  0.29930  0.37520  Biso   1.000  C
  C13      1.0000 0.84890  0.82010  0.17790  Biso   1.000  C
  C14      1.0000 0.51230  0.51510  0.36650  Biso   1.000  C
  C15      1.0000 0.06660  0.13440  0.15880  Biso   1.000  C
  C16      1.0000 0.02850  0.08960  0.11590  Biso   1.000  C
  C17      1.0000 0.18510  0.37960  0.17200  Biso   1.000  C
  C18      1.0000 0.04820  0.44040  0.20200  Biso   1.000  C
  C19      1.0000 0.58560  0.63390  0.32240  Biso   1.000  C
  C20      1.0000 0.87870  0.13460  0.13230  Biso   1.000  C
  C21      1.0000 0.19110  0.42080  0.32670  Biso   1.000  C
  C22      1.0000 0.69660  0.81270  0.14120  Biso   1.000  C
  C23      1.0000 0.87620  0.87610  0.13830  Biso   1.000  C
  C24      1.0000 0.48040  0.64700  0.39200  Biso   1.000  C
  C25      1.0000 0.31910  0.31760  0.13170  Biso   1.000  C
  C26      1.0000 0.26670  0.45530  0.10040  Biso   1.000  C
  C27      1.0000 0.90380  0.50620  0.23090  Biso   1.000  C
  C28      1.0000 0.00110  0.57040  0.16160  Biso   1.000  C
  C29      1.0000 0.69040  0.88110  0.32510  Biso   1.000  C
  C30      1.0000 0.56120  0.87000  0.27570  Biso   1.000  C
  C31      1.0000 0.71400  0.99650  0.38620  Biso   1.000  C
  C32      1.0000 0.83340  0.88380  0.38400  Biso   1.000  C
  C33      1.0000 0.58270  0.63200  0.72630  Biso   1.000  C
  C34      1.0000 0.53790  0.51390  0.78490  Biso   1.000  C
  C35      1.0000 0.26900  0.62580  0.60380  Biso   1.000  C
  C36      1.0000 0.82620  0.16410  0.83300  Biso   1.000  C
  C37      1.0000 0.42830  0.95510  0.82910  Biso   1.000  C
  C38      1.0000 0.99620  0.32210  0.68780  Biso   1.000  C
  C39      1.0000 0.75200  0.03730  0.86400  Biso   1.000  C
  C40      1.0000 0.73680  0.15490  0.90940  Biso   1.000  C
  C41      1.0000 0.08870  0.32030  0.67450  Biso   1.000  C
  C42      1.0000 0.24450  0.71090  0.67750  Biso   1.000  C
  C43      1.0000 0.46090  0.81490  0.85520  Biso   1.000  C
  C44      1.0000 0.79080  0.20070  0.87520  Biso   1.000  C
  C45      1.0000 0.15110  0.67990  0.67790  Biso   1.000  C
  C46      1.0000 0.48770  0.98490  0.86650  Biso   1.000  C
  C47      1.0000 0.93340  0.36560  0.65880  Biso   1.000  C
  C48      1.0000 0.97150  0.41040  0.61590  Biso   1.000  C
  C49      1.0000 0.81490  0.12040  0.67200  Biso   1.000  C
  C50      1.0000 0.95180  0.05960  0.70200  Biso   1.000  C
  C51      1.0000 0.41440  0.86610  0.82240  Biso   1.000  C
  C52      1.0000 0.12130  0.36540  0.63230  Biso   1.000  C
  C53      1.0000 0.80890  0.07920  0.82670  Biso   1.000  C
  C54      1.0000 0.30340  0.68730  0.64120  Biso   1.000  C
  C55      1.0000 0.12380  0.62390  0.63830  Biso   1.000  C
  C56      1.0000 0.51960  0.85300  0.89200  Biso   1.000  C
  C57      1.0000 0.68090  0.18240  0.63170  Biso   1.000  C
  C58      1.0000 0.73330  0.04470  0.60040  Biso   1.000  C
  C59      1.0000 0.09620  0.99380  0.73090  Biso   1.000  C
  C60      1.0000 0.99890  0.92960  0.66160  Biso   1.000  C
  C61      1.0000 0.30960  0.61890  0.82510  Biso   1.000  C
  C62      1.0000 0.43880  0.63000  0.77570  Biso   1.000  C
  C63      1.0000 0.28600  0.50350  0.88620  Biso   1.000  C
  C64      1.0000 0.16660  0.61620  0.88400  Biso   1.000  C
  C65      1.0000 0.58270  0.13200  0.77370  Biso   1.000  C
  C66      1.0000 0.53790  0.01390  0.71510  Biso   1.000  C
  C67      1.0000 0.26900  0.12580  0.89620  Biso   1.000  C
  C68      1.0000 0.82620  0.66410  0.66700  Biso   1.000  C
  C69      1.0000 0.42830  0.45510  0.67090  Biso   1.000  C
  C70      1.0000 0.99620  0.82210  0.81220  Biso   1.000  C
  C71      1.0000 0.75200  0.53730  0.63600  Biso   1.000  C
  C72      1.0000 0.73680  0.65490  0.59060  Biso   1.000  C
  C73      1.0000 0.08870  0.82030  0.82550  Biso   1.000  C
  C74      1.0000 0.24450  0.21090  0.82250  Biso   1.000  C
  C75      1.0000 0.46090  0.31490  0.64480  Biso   1.000  C
  C76      1.0000 0.79080  0.70070  0.62480  Biso   1.000  C
  C77      1.0000 0.15110  0.17990  0.82210  Biso   1.000  C
  C78      1.0000 0.48770  0.48490  0.63350  Biso   1.000  C
  C79      1.0000 0.93340  0.86560  0.84120  Biso   1.000  C
  C80      1.0000 0.97150  0.91040  0.88410  Biso   1.000  C
  C81      1.0000 0.81490  0.62040  0.82800  Biso   1.000  C
  C82      1.0000 0.95180  0.55960  0.79800  Biso   1.000  C
  C83      1.0000 0.41440  0.36610  0.67760  Biso   1.000  C
  C84      1.0000 0.12130  0.86540  0.86770  Biso   1.000  C
  C85      1.0000 0.80890  0.57920  0.67330  Biso   1.000  C
  C86      1.0000 0.30340  0.18730  0.85880  Biso   1.000  C
  C87      1.0000 0.12380  0.12390  0.86170  Biso   1.000  C
  C88      1.0000 0.51960  0.35300  0.60800  Biso   1.000  C
  C89      1.0000 0.68090  0.68240  0.86830  Biso   1.000  C
  C90      1.0000 0.73330  0.54470  0.89960  Biso   1.000  C
  C91      1.0000 0.09620  0.49380  0.76910  Biso   1.000  C
  C92      1.0000 0.99890  0.42960  0.83840  Biso   1.000  C
  C93      1.0000 0.30960  0.11890  0.67490  Biso   1.000  C
  C94      1.0000 0.43880  0.13000  0.72430  Biso   1.000  C
  C95      1.0000 0.28600  0.00350  0.61380  Biso   1.000  C
  C96      1.0000 0.16660  0.11620  0.61600  Biso   1.000  C
  C97      1.0000 0.41730  0.36800  0.27370  Biso   1.000  C
  C98      1.0000 0.46210  0.48610  0.21510  Biso   1.000  C
  C99      1.0000 0.73100  0.37420  0.39620  Biso   1.000  C
  C100     1.0000 0.17380  0.83590  0.16700  Biso   1.000  C
  C101     1.0000 0.57170  0.04490  0.17090  Biso   1.000  C
  C102     1.0000 0.00380  0.67790  0.31220  Biso   1.000  C
  C103     1.0000 0.24800  0.96270  0.13600  Biso   1.000  C
  C104     1.0000 0.26320  0.84510  0.09060  Biso   1.000  C
  C105     1.0000 0.91130  0.67970  0.32550  Biso   1.000  C
  C106     1.0000 0.75550  0.28910  0.32250  Biso   1.000  C
  C107     1.0000 0.53910  0.18510  0.14480  Biso   1.000  C
  C108     1.0000 0.20920  0.79930  0.12480  Biso   1.000  C
  C109     1.0000 0.84890  0.32010  0.32210  Biso   1.000  C
  C110     1.0000 0.51230  0.01510  0.13350  Biso   1.000  C
  C111     1.0000 0.06660  0.63440  0.34120  Biso   1.000  C
  C112     1.0000 0.02850  0.58960  0.38410  Biso   1.000  C
  C113     1.0000 0.18510  0.87960  0.32800  Biso   1.000  C
  C114     1.0000 0.04820  0.94040  0.29800  Biso   1.000  C
  C115     1.0000 0.58560  0.13390  0.17760  Biso   1.000  C
  C116     1.0000 0.87870  0.63460  0.36770  Biso   1.000  C
  C117     1.0000 0.19110  0.92080  0.17330  Biso   1.000  C
  C118     1.0000 0.69660  0.31270  0.35880  Biso   1.000  C
  C119     1.0000 0.87620  0.37610  0.36170  Biso   1.000  C
  C120     1.0000 0.48040  0.14700  0.10800  Biso   1.000  C
  C121     1.0000 0.31910  0.81760  0.36830  Biso   1.000  C
  C122     1.0000 0.26670  0.95530  0.39960  Biso   1.000  C
  C123     1.0000 0.90380  0.00620  0.26910  Biso   1.000  C
  C124     1.0000 0.00110  0.07040  0.33840  Biso   1.000  C
  C125     1.0000 0.69040  0.38110  0.17490  Biso   1.000  C
  C126     1.0000 0.56120  0.37000  0.22430  Biso   1.000  C
  C127     1.0000 0.71400  0.49650  0.11380  Biso   1.000  C
  C128     1.0000 0.83340  0.38380  0.11600  Biso   1.000  C
  N1       1.0000 0.93550  0.08760  0.10310  Biso   1.000  N
  N2       1.0000 0.81890  0.90110  0.10180  Biso   1.000  N
  N3       1.0000 0.46450  0.56490  0.39770  Biso   1.000  N
  N4       1.0000 0.28470  0.42660  0.40380  Biso   1.000  N
  N5       1.0000 0.25630  0.38720  0.13740  Biso   1.000  N
  N6       1.0000 0.98900  0.50280  0.20030  Biso   1.000  N
  N7       1.0000 0.74700  0.91740  0.36460  Biso   1.000  N
  N8       1.0000 0.47720  0.90880  0.26230  Biso   1.000  N
  N9       1.0000 0.02180  0.37880  0.23700  Biso   1.000  N
  N10      1.0000 0.18030  0.31200  0.20420  Biso   1.000  N
  N11      1.0000 0.12630  0.44350  0.17150  Biso   1.000  N
  N12      1.0000 0.72710  0.80750  0.30510  Biso   1.000  N
  N13      1.0000 0.56730  0.79840  0.24890  Biso   1.000  N
  N14      1.0000 0.60650  0.91370  0.31030  Biso   1.000  N
  N15      1.0000 0.06450  0.41240  0.60310  Biso   1.000  N
  N16      1.0000 0.18110  0.59890  0.60180  Biso   1.000  N
  N17      1.0000 0.53550  0.93510  0.89770  Biso   1.000  N
  N18      1.0000 0.71530  0.07340  0.90380  Biso   1.000  N
  N19      1.0000 0.74370  0.11280  0.63740  Biso   1.000  N
  N20      1.0000 0.01100  0.99720  0.70030  Biso   1.000  N
  N21      1.0000 0.25300  0.58260  0.86460  Biso   1.000  N
  N22      1.0000 0.52280  0.59120  0.76230  Biso   1.000  N
  N23      1.0000 0.97820  0.12120  0.73700  Biso   1.000  N
  N24      1.0000 0.81970  0.18800  0.70420  Biso   1.000  N
  N25      1.0000 0.87370  0.05650  0.67150  Biso   1.000  N
  N26      1.0000 0.27290  0.69250  0.80510  Biso   1.000  N
  N27      1.0000 0.43270  0.70160  0.74890  Biso   1.000  N
  N28      1.0000 0.39350  0.58630  0.81030  Biso   1.000  N
  N29      1.0000 0.06450  0.91240  0.89690  Biso   1.000  N
  N30      1.0000 0.18110  0.09890  0.89820  Biso   1.000  N
  N31      1.0000 0.53550  0.43510  0.60230  Biso   1.000  N
  N32      1.0000 0.71530  0.57340  0.59620  Biso   1.000  N
  N33      1.0000 0.74370  0.61280  0.86260  Biso   1.000  N
  N34      1.0000 0.01100  0.49720  0.79970  Biso   1.000  N
  N35      1.0000 0.25300  0.08260  0.63540  Biso   1.000  N
  N36      1.0000 0.52280  0.09120  0.73770  Biso   1.000  N
  N37      1.0000 0.97820  0.62120  0.76300  Biso   1.000  N
  N38      1.0000 0.81970  0.68800  0.79580  Biso   1.000  N
  N39      1.0000 0.87370  0.55650  0.82850  Biso   1.000  N
  N40      1.0000 0.27290  0.19250  0.69490  Biso   1.000  N
  N41      1.0000 0.43270  0.20160  0.75110  Biso   1.000  N
  N42      1.0000 0.39350  0.08630  0.68970  Biso   1.000  N
  N43      1.0000 0.93550  0.58760  0.39690  Biso   1.000  N
  N44      1.0000 0.81890  0.40110  0.39820  Biso   1.000  N
  N45      1.0000 0.46450  0.06490  0.10230  Biso   1.000  N
  N46      1.0000 0.28470  0.92660  0.09620  Biso   1.000  N
  N47      1.0000 0.25630  0.88720  0.36260  Biso   1.000  N
  N48      1.0000 0.98900  0.00280  0.29970  Biso   1.000  N
  N49      1.0000 0.74700  0.41740  0.13540  Biso   1.000  N
  N50      1.0000 0.47720  0.40880  0.23770  Biso   1.000  N
  N51      1.0000 0.02180  0.87880  0.26300  Biso   1.000  N
  N52      1.0000 0.18030  0.81200  0.29580  Biso   1.000  N
  N53      1.0000 0.12630  0.94350  0.32850  Biso   1.000  N
  N54      1.0000 0.72710  0.30750  0.19490  Biso   1.000  N
  N55      1.0000 0.56730  0.29840  0.25110  Biso   1.000  N
  N56      1.0000 0.60650  0.41370  0.18970  Biso   1.000  N
  Cl1      1.0000 0.71660  0.07894  0.04026  Biso   1.000  Cl
  Cl2      1.0000 0.76827  0.89433  0.96923  Biso   1.000  Cl
  Cl3      1.0000 0.96497  0.08706  0.96512  Biso   1.000  Cl
  Cl4      1.0000 0.51158  0.89367  0.02768  Biso   1.000  Cl
  Cl5      1.0000 0.28340  0.42106  0.54026  Biso   1.000  Cl
  Cl6      1.0000 0.23173  0.60567  0.46923  Biso   1.000  Cl
  Cl7      1.0000 0.03503  0.41294  0.46512  Biso   1.000  Cl
  Cl8      1.0000 0.48842  0.60633  0.52768  Biso   1.000  Cl
  Cl9      1.0000 0.28340  0.92106  0.95974  Biso   1.000  Cl
  Cl10     1.0000 0.23173  0.10567  0.03077  Biso   1.000  Cl
  Cl11     1.0000 0.03503  0.91294  0.03488  Biso   1.000  Cl
  Cl12     1.0000 0.48842  0.10633  0.97232  Biso   1.000  Cl
  Cl13     1.0000 0.71660  0.57894  0.45974  Biso   1.000  Cl
  Cl14     1.0000 0.76827  0.39433  0.53077  Biso   1.000  Cl
  Cl15     1.0000 0.96497  0.58706  0.53488  Biso   1.000  Cl
  Cl16     1.0000 0.51158  0.39367  0.47232  Biso   1.000  Cl
  O1       1.0000 0.03570  0.21220  0.23570  Biso   1.000  O
  O2       1.0000 0.11890  0.28390  0.29980  Biso   1.000  O
  O3       1.0000 0.64600  0.65860  0.28200  Biso   1.000  O
  O4       1.0000 0.72390  0.72950  0.21580  Biso   1.000  O
  O5       1.0000 0.96430  0.28780  0.73570  Biso   1.000  O
  O6       1.0000 0.88110  0.21610  0.79980  Biso   1.000  O
  O7       1.0000 0.35400  0.84140  0.78200  Biso   1.000  O
  O8       1.0000 0.27610  0.77050  0.71580  Biso   1.000  O
  O9       1.0000 0.96430  0.78780  0.76430  Biso   1.000  O
  O10      1.0000 0.88110  0.71610  0.70020  Biso   1.000  O
  O11      1.0000 0.35400  0.34140  0.71800  Biso   1.000  O
  O12      1.0000 0.27610  0.27050  0.78420  Biso   1.000  O
  O13      1.0000 0.03570  0.71220  0.26430  Biso   1.000  O
  O14      1.0000 0.11890  0.78390  0.20020  Biso   1.000  O
  O15      1.0000 0.64600  0.15860  0.21800  Biso   1.000  O
  O16      1.0000 0.72390  0.22950  0.28420  Biso   1.000  O
