data_image0
_cell_length_a       4.7083
_cell_length_b       10.98
_cell_length_c       31.011
_cell_angle_alpha    90
_cell_angle_beta     90
_cell_angle_gamma    96.145

_symmetry_space_group_name_H-M    P 1
_symmetry_int_tables_number       1

loop_
  _symmetry_equiv_pos_as_xyz
  'x, y, z'

loop_
  _atom_site_label
  _atom_site_occupancy
  _atom_site_fract_x
  _atom_site_fract_y
  _atom_site_fract_z
  _atom_site_thermal_displace_type
  _atom_site_B_iso_or_equiv
  _atom_site_type_symbol
  Cu1      1.0000 0.51873  0.39726  0.80617  Biso   1.000  Cu
  Cu2      1.0000 0.48127  0.10274  0.30617  Biso   1.000  Cu
  Cu3      1.0000 0.48127  0.60274  0.19383  Biso   1.000  Cu
  Cu4      1.0000 0.51873  0.89726  0.69383  Biso   1.000  Cu
  H1       1.0000 0.63000  0.46100  0.70800  Biso   1.000  H
  H2       1.0000 0.45000  0.36400  0.64600  Biso   1.000  H
  H3       1.0000 0.77000  0.29700  0.86940  Biso   1.000  H
  H4       1.0000 0.45580  0.61070  0.87800  Biso   1.000  H
  H5       1.0000 0.65620  0.63660  0.94660  Biso   1.000  H
  H6       1.0000 0.95860  0.32070  0.93760  Biso   1.000  H
  H7       1.0000 0.37000  0.03900  0.20800  Biso   1.000  H
  H8       1.0000 0.55000  0.13600  0.14600  Biso   1.000  H
  H9       1.0000 0.23000  0.20300  0.36940  Biso   1.000  H
  H10      1.0000 0.54420  0.88930  0.37800  Biso   1.000  H
  H11      1.0000 0.34380  0.86340  0.44660  Biso   1.000  H
  H12      1.0000 0.04140  0.17930  0.43760  Biso   1.000  H
  H13      1.0000 0.37000  0.53900  0.29200  Biso   1.000  H
  H14      1.0000 0.55000  0.63600  0.35400  Biso   1.000  H
  H15      1.0000 0.23000  0.70300  0.13060  Biso   1.000  H
  H16      1.0000 0.54420  0.38930  0.12200  Biso   1.000  H
  H17      1.0000 0.34380  0.36340  0.05340  Biso   1.000  H
  H18      1.0000 0.04140  0.67930  0.06240  Biso   1.000  H
  H19      1.0000 0.63000  0.96100  0.79200  Biso   1.000  H
  H20      1.0000 0.45000  0.86400  0.85400  Biso   1.000  H
  H21      1.0000 0.77000  0.79700  0.63060  Biso   1.000  H
  H22      1.0000 0.45580  0.11070  0.62200  Biso   1.000  H
  H23      1.0000 0.65620  0.13660  0.55340  Biso   1.000  H
  H24      1.0000 0.95860  0.82070  0.56240  Biso   1.000  H
  C1       1.0000 0.21650  0.17700  0.79470  Biso   1.000  C
  C2       1.0000 0.26740  0.22940  0.74930  Biso   1.000  C
  C3       1.0000 0.50950  0.38670  0.70980  Biso   1.000  C
  C4       1.0000 0.39750  0.32860  0.67330  Biso   1.000  C
  C5       1.0000 0.15520  0.17530  0.71210  Biso   1.000  C
  C6       1.0000 0.96830  0.05720  0.70840  Biso   1.000  C
  C7       1.0000 0.74634  0.36942  0.88553  Biso   1.000  C
  C8       1.0000 0.56497  0.55038  0.88955  Biso   1.000  C
  C9       1.0000 0.67621  0.56402  0.93070  Biso   1.000  C
  C10      1.0000 0.85281  0.38183  0.92582  Biso   1.000  C
  C11      1.0000 0.81099  0.47591  0.94812  Biso   1.000  C
  C12      1.0000 0.78350  0.32300  0.29470  Biso   1.000  C
  C13      1.0000 0.73260  0.27060  0.24930  Biso   1.000  C
  C14      1.0000 0.49050  0.11330  0.20980  Biso   1.000  C
  C15      1.0000 0.60250  0.17140  0.17330  Biso   1.000  C
  C16      1.0000 0.84480  0.32470  0.21210  Biso   1.000  C
  C17      1.0000 0.03170  0.44280  0.20840  Biso   1.000  C
  C18      1.0000 0.25366  0.13058  0.38553  Biso   1.000  C
  C19      1.0000 0.43503  0.94962  0.38955  Biso   1.000  C
  C20      1.0000 0.32379  0.93598  0.43070  Biso   1.000  C
  C21      1.0000 0.14719  0.11817  0.42582  Biso   1.000  C
  C22      1.0000 0.18901  0.02409  0.44812  Biso   1.000  C
  C23      1.0000 0.78350  0.82300  0.20530  Biso   1.000  C
  C24      1.0000 0.73260  0.77060  0.25070  Biso   1.000  C
  C25      1.0000 0.49050  0.61330  0.29020  Biso   1.000  C
  C26      1.0000 0.60250  0.67140  0.32670  Biso   1.000  C
  C27      1.0000 0.84480  0.82470  0.28790  Biso   1.000  C
  C28      1.0000 0.03170  0.94280  0.29160  Biso   1.000  C
  C29      1.0000 0.25366  0.63058  0.11447  Biso   1.000  C
  C30      1.0000 0.43503  0.44962  0.11045  Biso   1.000  C
  C31      1.0000 0.32379  0.43598  0.06930  Biso   1.000  C
  C32      1.0000 0.14719  0.61817  0.07418  Biso   1.000  C
  C33      1.0000 0.18901  0.52409  0.05188  Biso   1.000  C
  C34      1.0000 0.21650  0.67700  0.70530  Biso   1.000  C
  C35      1.0000 0.26740  0.72940  0.75070  Biso   1.000  C
  C36      1.0000 0.50950  0.88670  0.79020  Biso   1.000  C
  C37      1.0000 0.39750  0.82860  0.82670  Biso   1.000  C
  C38      1.0000 0.15520  0.67530  0.78790  Biso   1.000  C
  C39      1.0000 0.96830  0.55720  0.79160  Biso   1.000  C
  C40      1.0000 0.74634  0.86942  0.61447  Biso   1.000  C
  C41      1.0000 0.56497  0.05038  0.61045  Biso   1.000  C
  C42      1.0000 0.67621  0.06402  0.56930  Biso   1.000  C
  C43      1.0000 0.85281  0.88183  0.57418  Biso   1.000  C
  C44      1.0000 0.81099  0.97591  0.55188  Biso   1.000  C
  N1       1.0000 0.43950  0.33400  0.74810  Biso   1.000  N
  N2       1.0000 0.22330  0.22640  0.67430  Biso   1.000  N
  N3       1.0000 0.60688  0.46060  0.86788  Biso   1.000  N
  N4       1.0000 0.87775  0.47905  0.99583  Biso   1.000  N
  N5       1.0000 0.56050  0.16600  0.24810  Biso   1.000  N
  N6       1.0000 0.77670  0.27360  0.17430  Biso   1.000  N
  N7       1.0000 0.39312  0.03940  0.36788  Biso   1.000  N
  N8       1.0000 0.12225  0.02095  0.49583  Biso   1.000  N
  N9       1.0000 0.56050  0.66600  0.25190  Biso   1.000  N
  N10      1.0000 0.77670  0.77360  0.32570  Biso   1.000  N
  N11      1.0000 0.39312  0.53940  0.13212  Biso   1.000  N
  N12      1.0000 0.12225  0.52095  0.00417  Biso   1.000  N
  N13      1.0000 0.43950  0.83400  0.75190  Biso   1.000  N
  N14      1.0000 0.22330  0.72640  0.82570  Biso   1.000  N
  N15      1.0000 0.60688  0.96060  0.63212  Biso   1.000  N
  N16      1.0000 0.87775  0.97905  0.50417  Biso   1.000  N
  O1       1.0000 0.31340  0.24805  0.82424  Biso   1.000  O
  O2       1.0000 0.04382  0.06731  0.79999  Biso   1.000  O
  O3       1.0000 0.68242  0.01007  0.70859  Biso   1.000  O
  O4       1.0000 0.12691  0.97811  0.70316  Biso   1.000  O
  O5       1.0000 0.68660  0.25195  0.32424  Biso   1.000  O
  O6       1.0000 0.95618  0.43269  0.29999  Biso   1.000  O
  O7       1.0000 0.31758  0.48993  0.20859  Biso   1.000  O
  O8       1.0000 0.87309  0.52189  0.20316  Biso   1.000  O
  O9       1.0000 0.68660  0.75195  0.17576  Biso   1.000  O
  O10      1.0000 0.95618  0.93269  0.20001  Biso   1.000  O
  O11      1.0000 0.31758  0.98993  0.29141  Biso   1.000  O
  O12      1.0000 0.87309  0.02189  0.29684  Biso   1.000  O
  O13      1.0000 0.31340  0.74805  0.67576  Biso   1.000  O
  O14      1.0000 0.04382  0.56731  0.70001  Biso   1.000  O
  O15      1.0000 0.68242  0.51007  0.79141  Biso   1.000  O
  O16      1.0000 0.12691  0.47811  0.79684  Biso   1.000  O
