data_image0
_cell_length_a       4.713
_cell_length_b       11.101
_cell_length_c       26.797
_cell_angle_alpha    90
_cell_angle_beta     90
_cell_angle_gamma    96.52

_symmetry_space_group_name_H-M    P 1
_symmetry_int_tables_number       1

loop_
  _symmetry_equiv_pos_as_xyz
  'x, y, z'

loop_
  _atom_site_label
  _atom_site_occupancy
  _atom_site_fract_x
  _atom_site_fract_y
  _atom_site_fract_z
  _atom_site_thermal_displace_type
  _atom_site_B_iso_or_equiv
  _atom_site_type_symbol
  Cu1      1.0000 0.38800  0.12000  0.81940  Biso   1.000  Cu
  Cu2      1.0000 0.61200  0.38000  0.31940  Biso   1.000  Cu
  Cu3      1.0000 0.61200  0.88000  0.18060  Biso   1.000  Cu
  Cu4      1.0000 0.38800  0.62000  0.68060  Biso   1.000  Cu
  H1       1.0000 0.21400  0.03630  0.70870  Biso   1.000  H
  H2       1.0000 0.37590  0.13530  0.63740  Biso   1.000  H
  H3       1.0000 0.07990  0.20930  0.89520  Biso   1.000  H
  H4       1.0000 0.40860  0.89810  0.89170  Biso   1.000  H
  H5       1.0000 0.39280  0.76160  0.96210  Biso   1.000  H
  H6       1.0000 0.86470  0.27690  0.96450  Biso   1.000  H
  H7       1.0000 0.78600  0.46370  0.20870  Biso   1.000  H
  H8       1.0000 0.62410  0.36470  0.13740  Biso   1.000  H
  H9       1.0000 0.92010  0.29070  0.39520  Biso   1.000  H
  H10      1.0000 0.59140  0.60190  0.39170  Biso   1.000  H
  H11      1.0000 0.60720  0.73840  0.46210  Biso   1.000  H
  H12      1.0000 0.13530  0.22310  0.46450  Biso   1.000  H
  H13      1.0000 0.78600  0.96370  0.29130  Biso   1.000  H
  H14      1.0000 0.62410  0.86470  0.36260  Biso   1.000  H
  H15      1.0000 0.92010  0.79070  0.10480  Biso   1.000  H
  H16      1.0000 0.59140  0.10190  0.10830  Biso   1.000  H
  H17      1.0000 0.60720  0.23840  0.03790  Biso   1.000  H
  H18      1.0000 0.13530  0.72310  0.03550  Biso   1.000  H
  H19      1.0000 0.21400  0.53630  0.79130  Biso   1.000  H
  H20      1.0000 0.37590  0.63530  0.86260  Biso   1.000  H
  H21      1.0000 0.07990  0.70930  0.60480  Biso   1.000  H
  H22      1.0000 0.40860  0.39810  0.60830  Biso   1.000  H
  H23      1.0000 0.39280  0.26160  0.53790  Biso   1.000  H
  H24      1.0000 0.86470  0.77690  0.53550  Biso   1.000  H
  C1       1.0000 0.65090  0.32080  0.80250  Biso   1.000  C
  C2       1.0000 0.58630  0.26870  0.75240  Biso   1.000  C
  C3       1.0000 0.33460  0.11090  0.71000  Biso   1.000  C
  C4       1.0000 0.43340  0.16970  0.66880  Biso   1.000  C
  C5       1.0000 0.68520  0.32350  0.71040  Biso   1.000  C
  C6       1.0000 0.86840  0.44230  0.70500  Biso   1.000  C
  C7       1.0000 0.11300  0.13610  0.91140  Biso   1.000  C
  C8       1.0000 0.30590  0.95330  0.90940  Biso   1.000  C
  C9       1.0000 0.21450  0.92490  0.95580  Biso   1.000  C
  C10      1.0000 0.01390  0.11490  0.95790  Biso   1.000  C
  C11      1.0000 0.06310  0.00780  0.98120  Biso   1.000  C
  C12      1.0000 0.27290  0.81560  0.97640  Biso   1.000  C
  C13      1.0000 0.86630  0.20090  0.98070  Biso   1.000  C
  C14      1.0000 0.34910  0.17920  0.30250  Biso   1.000  C
  C15      1.0000 0.41370  0.23130  0.25240  Biso   1.000  C
  C16      1.0000 0.66540  0.38910  0.21000  Biso   1.000  C
  C17      1.0000 0.56660  0.33030  0.16880  Biso   1.000  C
  C18      1.0000 0.31480  0.17650  0.21040  Biso   1.000  C
  C19      1.0000 0.13160  0.05770  0.20500  Biso   1.000  C
  C20      1.0000 0.88700  0.36390  0.41140  Biso   1.000  C
  C21      1.0000 0.69410  0.54670  0.40940  Biso   1.000  C
  C22      1.0000 0.78550  0.57510  0.45580  Biso   1.000  C
  C23      1.0000 0.98610  0.38510  0.45790  Biso   1.000  C
  C24      1.0000 0.93690  0.49220  0.48120  Biso   1.000  C
  C25      1.0000 0.72710  0.68440  0.47640  Biso   1.000  C
  C26      1.0000 0.13370  0.29910  0.48070  Biso   1.000  C
  C27      1.0000 0.34910  0.67920  0.19750  Biso   1.000  C
  C28      1.0000 0.41370  0.73130  0.24760  Biso   1.000  C
  C29      1.0000 0.66540  0.88910  0.29000  Biso   1.000  C
  C30      1.0000 0.56660  0.83030  0.33120  Biso   1.000  C
  C31      1.0000 0.31480  0.67650  0.28960  Biso   1.000  C
  C32      1.0000 0.13160  0.55770  0.29500  Biso   1.000  C
  C33      1.0000 0.88700  0.86390  0.08860  Biso   1.000  C
  C34      1.0000 0.69410  0.04670  0.09060  Biso   1.000  C
  C35      1.0000 0.78550  0.07510  0.04420  Biso   1.000  C
  C36      1.0000 0.98610  0.88510  0.04210  Biso   1.000  C
  C37      1.0000 0.93690  0.99220  0.01880  Biso   1.000  C
  C38      1.0000 0.72710  0.18440  0.02360  Biso   1.000  C
  C39      1.0000 0.13370  0.79910  0.01930  Biso   1.000  C
  C40      1.0000 0.65090  0.82080  0.69750  Biso   1.000  C
  C41      1.0000 0.58630  0.76870  0.74760  Biso   1.000  C
  C42      1.0000 0.33460  0.61090  0.79000  Biso   1.000  C
  C43      1.0000 0.43340  0.66970  0.83120  Biso   1.000  C
  C44      1.0000 0.68520  0.82350  0.78960  Biso   1.000  C
  C45      1.0000 0.86840  0.94230  0.79500  Biso   1.000  C
  C46      1.0000 0.11300  0.63610  0.58860  Biso   1.000  C
  C47      1.0000 0.30590  0.45330  0.59060  Biso   1.000  C
  C48      1.0000 0.21450  0.42490  0.54420  Biso   1.000  C
  C49      1.0000 0.01390  0.61490  0.54210  Biso   1.000  C
  C50      1.0000 0.06310  0.50780  0.51880  Biso   1.000  C
  C51      1.0000 0.27290  0.31560  0.52360  Biso   1.000  C
  C52      1.0000 0.86630  0.70090  0.51930  Biso   1.000  C
  N1       1.0000 0.41600  0.16350  0.75220  Biso   1.000  N
  N2       1.0000 0.60580  0.27250  0.66880  Biso   1.000  N
  N3       1.0000 0.25670  0.05700  0.88740  Biso   1.000  N
  N4       1.0000 0.58400  0.33650  0.25220  Biso   1.000  N
  N5       1.0000 0.39420  0.22750  0.16880  Biso   1.000  N
  N6       1.0000 0.74330  0.44300  0.38740  Biso   1.000  N
  N7       1.0000 0.58400  0.83650  0.24780  Biso   1.000  N
  N8       1.0000 0.39420  0.72750  0.33120  Biso   1.000  N
  N9       1.0000 0.74330  0.94300  0.11260  Biso   1.000  N
  N10      1.0000 0.41600  0.66350  0.74780  Biso   1.000  N
  N11      1.0000 0.60580  0.77250  0.83120  Biso   1.000  N
  N12      1.0000 0.25670  0.55700  0.61260  Biso   1.000  N
  O1       1.0000 0.53300  0.25830  0.83520  Biso   1.000  O
  O2       1.0000 0.78900  0.42040  0.80660  Biso   1.000  O
  O3       1.0000 0.11900  0.48800  0.71200  Biso   1.000  O
  O4       1.0000 0.75500  0.53410  0.69430  Biso   1.000  O
  O5       1.0000 0.46700  0.24170  0.33520  Biso   1.000  O
  O6       1.0000 0.21100  0.07960  0.30660  Biso   1.000  O
  O7       1.0000 0.88100  0.01200  0.21200  Biso   1.000  O
  O8       1.0000 0.24500  0.96590  0.19430  Biso   1.000  O
  O9       1.0000 0.46700  0.74170  0.16480  Biso   1.000  O
  O10      1.0000 0.21100  0.57960  0.19340  Biso   1.000  O
  O11      1.0000 0.88100  0.51200  0.28800  Biso   1.000  O
  O12      1.0000 0.24500  0.46590  0.30570  Biso   1.000  O
  O13      1.0000 0.53300  0.75830  0.66480  Biso   1.000  O
  O14      1.0000 0.78900  0.92040  0.69340  Biso   1.000  O
  O15      1.0000 0.11900  0.98800  0.78800  Biso   1.000  O
  O16      1.0000 0.75500  0.03410  0.80570  Biso   1.000  O
