data_image0
_cell_length_a       14.3547
_cell_length_b       14.3547
_cell_length_c       14.3547
_cell_angle_alpha    63.292
_cell_angle_beta     84.1968
_cell_angle_gamma    116.708

_symmetry_space_group_name_H-M    P 1
_symmetry_int_tables_number       1

loop_
  _symmetry_equiv_pos_as_xyz
  'x, y, z'

loop_
  _atom_site_label
  _atom_site_occupancy
  _atom_site_fract_x
  _atom_site_fract_y
  _atom_site_fract_z
  _atom_site_thermal_displace_type
  _atom_site_B_iso_or_equiv
  _atom_site_type_symbol
  Zn1      1.0000 0.42331  0.00000  0.57669  Biso   1.000  Zn
  Zn2      1.0000 0.07669  0.00000  0.92331  Biso   1.000  Zn
  Zn3      1.0000 0.57669  0.00000  0.42331  Biso   1.000  Zn
  Zn4      1.0000 0.92331  0.00000  0.07669  Biso   1.000  Zn
  H1       1.0000 0.24660  0.09320  0.36260  Biso   1.000  H
  H2       1.0000 0.42500  0.07300  0.74200  Biso   1.000  H
  H3       1.0000 0.33100  0.91700  0.81800  Biso   1.000  H
  H4       1.0000 0.54420  0.90680  0.84660  Biso   1.000  H
  H5       1.0000 0.18500  0.92700  0.64800  Biso   1.000  H
  H6       1.0000 0.26500  0.08300  0.58600  Biso   1.000  H
  H7       1.0000 0.15340  0.60920  0.75340  Biso   1.000  H
  H8       1.0000 0.35200  0.16700  0.57500  Biso   1.000  H
  H9       1.0000 0.41400  0.14900  0.66900  Biso   1.000  H
  H10      1.0000 0.63740  0.39080  0.45580  Biso   1.000  H
  H11      1.0000 0.25800  0.83300  0.81500  Biso   1.000  H
  H12      1.0000 0.18200  0.85100  0.73500  Biso   1.000  H
  H13      1.0000 0.95580  0.60920  0.13740  Biso   1.000  H
  H14      1.0000 0.31500  0.16700  0.75800  Biso   1.000  H
  H15      1.0000 0.23500  0.14900  0.68200  Biso   1.000  H
  H16      1.0000 0.25340  0.39080  0.65340  Biso   1.000  H
  H17      1.0000 0.07500  0.83300  0.85200  Biso   1.000  H
  H18      1.0000 0.16900  0.85100  0.91400  Biso   1.000  H
  H19      1.0000 0.86260  0.90680  0.74660  Biso   1.000  H
  H20      1.0000 0.24200  0.92700  0.92500  Biso   1.000  H
  H21      1.0000 0.31800  0.08300  0.83100  Biso   1.000  H
  H22      1.0000 0.34660  0.09320  0.04420  Biso   1.000  H
  H23      1.0000 0.14800  0.07300  0.68500  Biso   1.000  H
  H24      1.0000 0.08600  0.91700  0.76500  Biso   1.000  H
  H25      1.0000 0.75340  0.90680  0.63740  Biso   1.000  H
  H26      1.0000 0.57500  0.92700  0.25800  Biso   1.000  H
  H27      1.0000 0.66900  0.08300  0.18200  Biso   1.000  H
  H28      1.0000 0.45580  0.09320  0.15340  Biso   1.000  H
  H29      1.0000 0.81500  0.07300  0.35200  Biso   1.000  H
  H30      1.0000 0.73500  0.91700  0.41400  Biso   1.000  H
  H31      1.0000 0.84660  0.39080  0.24660  Biso   1.000  H
  H32      1.0000 0.64800  0.83300  0.42500  Biso   1.000  H
  H33      1.0000 0.58600  0.85100  0.33100  Biso   1.000  H
  H34      1.0000 0.36260  0.60920  0.54420  Biso   1.000  H
  H35      1.0000 0.74200  0.16700  0.18500  Biso   1.000  H
  H36      1.0000 0.81800  0.14900  0.26500  Biso   1.000  H
  H37      1.0000 0.04420  0.39080  0.86260  Biso   1.000  H
  H38      1.0000 0.68500  0.83300  0.24200  Biso   1.000  H
  H39      1.0000 0.76500  0.85100  0.31800  Biso   1.000  H
  H40      1.0000 0.74660  0.60920  0.34660  Biso   1.000  H
  H41      1.0000 0.92500  0.16700  0.14800  Biso   1.000  H
  H42      1.0000 0.83100  0.14900  0.08600  Biso   1.000  H
  H43      1.0000 0.13740  0.09320  0.25340  Biso   1.000  H
  H44      1.0000 0.75800  0.07300  0.07500  Biso   1.000  H
  H45      1.0000 0.68200  0.91700  0.16900  Biso   1.000  H
  H46      1.0000 0.65340  0.90680  0.95580  Biso   1.000  H
  H47      1.0000 0.85200  0.92700  0.31500  Biso   1.000  H
  H48      1.0000 0.91400  0.08300  0.23500  Biso   1.000  H
  C1       1.0000 0.26580  0.09102  0.29940  Biso   1.000  C
  C2       1.0000 0.36690  0.02850  0.75560  Biso   1.000  C
  C3       1.0000 0.60958  0.90898  0.82522  Biso   1.000  C
  C4       1.0000 0.21590  0.97150  0.66160  Biso   1.000  C
  C5       1.0000 0.17478  0.56520  0.73420  Biso   1.000  C
  C6       1.0000 0.33840  0.12250  0.63310  Biso   1.000  C
  C7       1.0000 0.70060  0.43480  0.39042  Biso   1.000  C
  C8       1.0000 0.24440  0.87750  0.78410  Biso   1.000  C
  C9       1.0000 0.89042  0.56520  0.20060  Biso   1.000  C
  C10      1.0000 0.28410  0.12250  0.74440  Biso   1.000  C
  C11      1.0000 0.23420  0.43480  0.67478  Biso   1.000  C
  C12      1.0000 0.13310  0.87750  0.83840  Biso   1.000  C
  C13      1.0000 0.79940  0.90898  0.76580  Biso   1.000  C
  C14      1.0000 0.25560  0.97150  0.86690  Biso   1.000  C
  C15      1.0000 0.32522  0.09102  0.10958  Biso   1.000  C
  C16      1.0000 0.16160  0.02850  0.71590  Biso   1.000  C
  C17      1.0000 0.73420  0.90898  0.70060  Biso   1.000  C
  C18      1.0000 0.63310  0.97150  0.24440  Biso   1.000  C
  C19      1.0000 0.39042  0.09102  0.17478  Biso   1.000  C
  C20      1.0000 0.78410  0.02850  0.33840  Biso   1.000  C
  C21      1.0000 0.82522  0.43480  0.26580  Biso   1.000  C
  C22      1.0000 0.66160  0.87750  0.36690  Biso   1.000  C
  C23      1.0000 0.29940  0.56520  0.60958  Biso   1.000  C
  C24      1.0000 0.75560  0.12250  0.21590  Biso   1.000  C
  C25      1.0000 0.10958  0.43480  0.79940  Biso   1.000  C
  C26      1.0000 0.71590  0.87750  0.25560  Biso   1.000  C
  C27      1.0000 0.76580  0.56520  0.32522  Biso   1.000  C
  C28      1.0000 0.86690  0.12250  0.16160  Biso   1.000  C
  C29      1.0000 0.20060  0.09102  0.23420  Biso   1.000  C
  C30      1.0000 0.74440  0.02850  0.13310  Biso   1.000  C
  C31      1.0000 0.67478  0.90898  0.89042  Biso   1.000  C
  C32      1.0000 0.83840  0.97150  0.28410  Biso   1.000  C
  C33      1.0000 0.35912  0.08781  0.27131  Biso   1.000  C
  C34      1.0000 0.42122  0.07168  0.34954  Biso   1.000  C
  C35      1.0000 0.64088  0.91219  0.72869  Biso   1.000  C
  C36      1.0000 0.57878  0.92832  0.65046  Biso   1.000  C
  C37      1.0000 0.27131  0.63043  0.64088  Biso   1.000  C
  C38      1.0000 0.34954  0.77076  0.57878  Biso   1.000  C
  C39      1.0000 0.72869  0.36957  0.35912  Biso   1.000  C
  C40      1.0000 0.65046  0.22924  0.42122  Biso   1.000  C
  C41      1.0000 0.85912  0.63043  0.22869  Biso   1.000  C
  C42      1.0000 0.92122  0.77076  0.15046  Biso   1.000  C
  C43      1.0000 0.14088  0.36957  0.77131  Biso   1.000  C
  C44      1.0000 0.07878  0.22924  0.84954  Biso   1.000  C
  C45      1.0000 0.77131  0.91219  0.85912  Biso   1.000  C
  C46      1.0000 0.84954  0.92832  0.92122  Biso   1.000  C
  C47      1.0000 0.22869  0.08781  0.14088  Biso   1.000  C
  C48      1.0000 0.15046  0.07168  0.07878  Biso   1.000  C
  N1       1.0000 0.31711  0.00000  0.68289  Biso   1.000  N
  N2       1.0000 0.18289  0.00000  0.81711  Biso   1.000  N
  N3       1.0000 0.68289  0.00000  0.31711  Biso   1.000  N
  N4       1.0000 0.81711  0.00000  0.18289  Biso   1.000  N
  O1       1.0000 0.38674  0.06477  0.43721  Biso   1.000  O
  O2       1.0000 0.49802  0.93523  0.67803  Biso   1.000  O
  O3       1.0000 0.32197  0.82395  0.61326  Biso   1.000  O
  O4       1.0000 0.56279  0.17605  0.50198  Biso   1.000  O
  O5       1.0000 0.00198  0.82395  0.06279  Biso   1.000  O
  O6       1.0000 0.11326  0.17605  0.82197  Biso   1.000  O
  O7       1.0000 0.93721  0.93523  0.88674  Biso   1.000  O
  O8       1.0000 0.17803  0.06477  0.99802  Biso   1.000  O
  O9       1.0000 0.61326  0.93523  0.56279  Biso   1.000  O
  O10      1.0000 0.50198  0.06477  0.32197  Biso   1.000  O
  O11      1.0000 0.67803  0.17605  0.38674  Biso   1.000  O
  O12      1.0000 0.43721  0.82395  0.49802  Biso   1.000  O
  O13      1.0000 0.99802  0.17605  0.93721  Biso   1.000  O
  O14      1.0000 0.88674  0.82395  0.17803  Biso   1.000  O
  O15      1.0000 0.06279  0.06477  0.11326  Biso   1.000  O
  O16      1.0000 0.82197  0.93523  0.00198  Biso   1.000  O
