data_image0
_cell_length_a       9.097
_cell_length_b       10.923
_cell_length_c       17.877
_cell_angle_alpha    90
_cell_angle_beta     90
_cell_angle_gamma    111.264

_symmetry_space_group_name_H-M    P 1
_symmetry_int_tables_number       1

loop_
  _symmetry_equiv_pos_as_xyz
  'x, y, z'

loop_
  _atom_site_label
  _atom_site_occupancy
  _atom_site_fract_x
  _atom_site_fract_y
  _atom_site_fract_z
  _atom_site_thermal_displace_type
  _atom_site_B_iso_or_equiv
  _atom_site_type_symbol
  Nd1      1.0000 0.43230  0.39299  0.69867  Biso   1.000  Nd
  Nd2      1.0000 0.06770  0.60701  0.19867  Biso   1.000  Nd
  Nd3      1.0000 0.56770  0.60701  0.30133  Biso   1.000  Nd
  Nd4      1.0000 0.93230  0.39299  0.80133  Biso   1.000  Nd
  H1       1.0000 0.20360  0.17750  0.45020  Biso   1.000  H
  H2       1.0000 0.96270  0.98130  0.62790  Biso   1.000  H
  H3       1.0000 0.44900  0.87210  0.47210  Biso   1.000  H
  H4       1.0000 0.12760  0.77160  0.63350  Biso   1.000  H
  H5       1.0000 0.24530  0.90690  0.53330  Biso   1.000  H
  H6       1.0000 0.79300  0.57130  0.52250  Biso   1.000  H
  H7       1.0000 0.04090  0.34660  0.57820  Biso   1.000  H
  H8       1.0000 0.29640  0.82250  0.95020  Biso   1.000  H
  H9       1.0000 0.53730  0.01870  0.12790  Biso   1.000  H
  H10      1.0000 0.05100  0.12790  0.97210  Biso   1.000  H
  H11      1.0000 0.37240  0.22840  0.13350  Biso   1.000  H
  H12      1.0000 0.25470  0.09310  0.03330  Biso   1.000  H
  H13      1.0000 0.70700  0.42870  0.02250  Biso   1.000  H
  H14      1.0000 0.45910  0.65340  0.07820  Biso   1.000  H
  H15      1.0000 0.79640  0.82250  0.54980  Biso   1.000  H
  H16      1.0000 0.03730  0.01870  0.37210  Biso   1.000  H
  H17      1.0000 0.55100  0.12790  0.52790  Biso   1.000  H
  H18      1.0000 0.87240  0.22840  0.36650  Biso   1.000  H
  H19      1.0000 0.75470  0.09310  0.46670  Biso   1.000  H
  H20      1.0000 0.20700  0.42870  0.47750  Biso   1.000  H
  H21      1.0000 0.95910  0.65340  0.42180  Biso   1.000  H
  H22      1.0000 0.70360  0.17750  0.04980  Biso   1.000  H
  H23      1.0000 0.46270  0.98130  0.87210  Biso   1.000  H
  H24      1.0000 0.94900  0.87210  0.02790  Biso   1.000  H
  H25      1.0000 0.62760  0.77160  0.86650  Biso   1.000  H
  H26      1.0000 0.74530  0.90690  0.96670  Biso   1.000  H
  H27      1.0000 0.29300  0.57130  0.97750  Biso   1.000  H
  H28      1.0000 0.54090  0.34660  0.92180  Biso   1.000  H
  C1       1.0000 0.89920  0.44950  0.56053  Biso   1.000  C
  C2       1.0000 0.26430  0.66460  0.63432  Biso   1.000  C
  C3       1.0000 0.39550  0.64680  0.59713  Biso   1.000  C
  C4       1.0000 0.10020  0.09590  0.54731  Biso   1.000  C
  C5       1.0000 0.20930  0.19680  0.59872  Biso   1.000  C
  C6       1.0000 0.12200  0.10640  0.47039  Biso   1.000  C
  C7       1.0000 0.97780  0.98900  0.57642  Biso   1.000  C
  C8       1.0000 0.40220  0.82100  0.51330  Biso   1.000  C
  C9       1.0000 0.17700  0.57390  0.69543  Biso   1.000  C
  C10      1.0000 0.21220  0.76030  0.60920  Biso   1.000  C
  C11      1.0000 0.28110  0.84130  0.54880  Biso   1.000  C
  C12      1.0000 0.87580  0.54240  0.51353  Biso   1.000  C
  C13      1.0000 0.02420  0.40810  0.54674  Biso   1.000  C
  C14      1.0000 0.79100  0.39550  0.62604  Biso   1.000  C
  C15      1.0000 0.60080  0.55050  0.06053  Biso   1.000  C
  C16      1.0000 0.23570  0.33540  0.13432  Biso   1.000  C
  C17      1.0000 0.10450  0.35320  0.09713  Biso   1.000  C
  C18      1.0000 0.39980  0.90410  0.04731  Biso   1.000  C
  C19      1.0000 0.29070  0.80320  0.09872  Biso   1.000  C
  C20      1.0000 0.37800  0.89360  0.97039  Biso   1.000  C
  C21      1.0000 0.52220  0.01100  0.07642  Biso   1.000  C
  C22      1.0000 0.09780  0.17900  0.01330  Biso   1.000  C
  C23      1.0000 0.32300  0.42610  0.19543  Biso   1.000  C
  C24      1.0000 0.28780  0.23970  0.10920  Biso   1.000  C
  C25      1.0000 0.21890  0.15870  0.04880  Biso   1.000  C
  C26      1.0000 0.62420  0.45760  0.01353  Biso   1.000  C
  C27      1.0000 0.47580  0.59190  0.04674  Biso   1.000  C
  C28      1.0000 0.70900  0.60450  0.12604  Biso   1.000  C
  C29      1.0000 0.10080  0.55050  0.43947  Biso   1.000  C
  C30      1.0000 0.73570  0.33540  0.36568  Biso   1.000  C
  C31      1.0000 0.60450  0.35320  0.40287  Biso   1.000  C
  C32      1.0000 0.89980  0.90410  0.45269  Biso   1.000  C
  C33      1.0000 0.79070  0.80320  0.40128  Biso   1.000  C
  C34      1.0000 0.87800  0.89360  0.52961  Biso   1.000  C
  C35      1.0000 0.02220  0.01100  0.42358  Biso   1.000  C
  C36      1.0000 0.59780  0.17900  0.48670  Biso   1.000  C
  C37      1.0000 0.82300  0.42610  0.30457  Biso   1.000  C
  C38      1.0000 0.78780  0.23970  0.39080  Biso   1.000  C
  C39      1.0000 0.71890  0.15870  0.45120  Biso   1.000  C
  C40      1.0000 0.12420  0.45760  0.48647  Biso   1.000  C
  C41      1.0000 0.97580  0.59190  0.45326  Biso   1.000  C
  C42      1.0000 0.20900  0.60450  0.37396  Biso   1.000  C
  C43      1.0000 0.39920  0.44950  0.93947  Biso   1.000  C
  C44      1.0000 0.76430  0.66460  0.86568  Biso   1.000  C
  C45      1.0000 0.89550  0.64680  0.90287  Biso   1.000  C
  C46      1.0000 0.60020  0.09590  0.95269  Biso   1.000  C
  C47      1.0000 0.70930  0.19680  0.90128  Biso   1.000  C
  C48      1.0000 0.62200  0.10640  0.02961  Biso   1.000  C
  C49      1.0000 0.47780  0.98900  0.92358  Biso   1.000  C
  C50      1.0000 0.90220  0.82100  0.98670  Biso   1.000  C
  C51      1.0000 0.67700  0.57390  0.80457  Biso   1.000  C
  C52      1.0000 0.71220  0.76030  0.89080  Biso   1.000  C
  C53      1.0000 0.78110  0.84130  0.95120  Biso   1.000  C
  C54      1.0000 0.37580  0.54240  0.98647  Biso   1.000  C
  C55      1.0000 0.52420  0.40810  0.95326  Biso   1.000  C
  C56      1.0000 0.29100  0.39550  0.87396  Biso   1.000  C
  N1       1.0000 0.45550  0.72720  0.53729  Biso   1.000  N
  N2       1.0000 0.04450  0.27280  0.03729  Biso   1.000  N
  N3       1.0000 0.54450  0.27280  0.46271  Biso   1.000  N
  N4       1.0000 0.95550  0.72720  0.96271  Biso   1.000  N
  O1       1.0000 0.66240  0.41160  0.62657  Biso   1.000  O
  O2       1.0000 0.20730  0.47310  0.71224  Biso   1.000  O
  O3       1.0000 0.17220  0.20130  0.66562  Biso   1.000  O
  O4       1.0000 0.45840  0.56570  0.61286  Biso   1.000  O
  O5       1.0000 0.33760  0.27610  0.57401  Biso   1.000  O
  O6       1.0000 0.45460  0.17320  0.72845  Biso   1.000  O
  O7       1.0000 0.83680  0.33520  0.67592  Biso   1.000  O
  O8       1.0000 0.06780  0.59790  0.72809  Biso   1.000  O
  O9       1.0000 0.83760  0.58840  0.12657  Biso   1.000  O
  O10      1.0000 0.29270  0.52690  0.21224  Biso   1.000  O
  O11      1.0000 0.32780  0.79870  0.16562  Biso   1.000  O
  O12      1.0000 0.04160  0.43430  0.11286  Biso   1.000  O
  O13      1.0000 0.16240  0.72390  0.07401  Biso   1.000  O
  O14      1.0000 0.04540  0.82680  0.22845  Biso   1.000  O
  O15      1.0000 0.66320  0.66480  0.17592  Biso   1.000  O
  O16      1.0000 0.43220  0.40210  0.22809  Biso   1.000  O
  O17      1.0000 0.33760  0.58840  0.37343  Biso   1.000  O
  O18      1.0000 0.79270  0.52690  0.28776  Biso   1.000  O
  O19      1.0000 0.82780  0.79870  0.33438  Biso   1.000  O
  O20      1.0000 0.54160  0.43430  0.38714  Biso   1.000  O
  O21      1.0000 0.66240  0.72390  0.42599  Biso   1.000  O
  O22      1.0000 0.54540  0.82680  0.27155  Biso   1.000  O
  O23      1.0000 0.16320  0.66480  0.32408  Biso   1.000  O
  O24      1.0000 0.93220  0.40210  0.27191  Biso   1.000  O
  O25      1.0000 0.16240  0.41160  0.87343  Biso   1.000  O
  O26      1.0000 0.70730  0.47310  0.78776  Biso   1.000  O
  O27      1.0000 0.67220  0.20130  0.83438  Biso   1.000  O
  O28      1.0000 0.95840  0.56570  0.88714  Biso   1.000  O
  O29      1.0000 0.83760  0.27610  0.92599  Biso   1.000  O
  O30      1.0000 0.95460  0.17320  0.77155  Biso   1.000  O
  O31      1.0000 0.33680  0.33520  0.82408  Biso   1.000  O
  O32      1.0000 0.56780  0.59790  0.77191  Biso   1.000  O
