data_image0
_cell_length_a       7.1992
_cell_length_b       18.9503
_cell_length_c       20.4043
_cell_angle_alpha    106.648
_cell_angle_beta     90
_cell_angle_gamma    90

_symmetry_space_group_name_H-M    P 1
_symmetry_int_tables_number       1

loop_
  _symmetry_equiv_pos_as_xyz
  'x, y, z'

loop_
  _atom_site_label
  _atom_site_occupancy
  _atom_site_fract_x
  _atom_site_fract_y
  _atom_site_fract_z
  _atom_site_thermal_displace_type
  _atom_site_B_iso_or_equiv
  _atom_site_type_symbol
  Co1      1.0000 0.66867  0.02618  0.47548  Biso   1.000  Co
  Co2      1.0000 0.66867  0.47382  0.02452  Biso   1.000  Co
  Co3      1.0000 0.33133  0.97382  0.52452  Biso   1.000  Co
  Co4      1.0000 0.33133  0.52618  0.97548  Biso   1.000  Co
  H1       1.0000 0.98520  0.16970  0.58310  Biso   1.000  H
  H2       1.0000 0.43850  0.25400  0.52080  Biso   1.000  H
  H3       1.0000 0.97140  0.41160  0.83420  Biso   1.000  H
  H4       1.0000 0.85540  0.28580  0.61700  Biso   1.000  H
  H5       1.0000 0.31050  0.37090  0.55770  Biso   1.000  H
  H6       1.0000 0.49930  0.48170  0.76930  Biso   1.000  H
  H7       1.0000 0.09500  0.38970  0.72710  Biso   1.000  H
  H8       1.0000 0.14140  0.08890  0.36690  Biso   1.000  H
  H9       1.0000 0.83040  0.26940  0.38990  Biso   1.000  H
  H10      1.0000 0.03070  0.30860  0.32140  Biso   1.000  H
  H11      1.0000 0.34250  0.13080  0.29860  Biso   1.000  H
  H12      1.0000 0.62750  0.46170  0.66200  Biso   1.000  H
  H13      1.0000 0.61970  0.17030  0.46880  Biso   1.000  H
  H14      1.0000 0.98520  0.33030  0.91690  Biso   1.000  H
  H15      1.0000 0.43850  0.24600  0.97920  Biso   1.000  H
  H16      1.0000 0.97140  0.08840  0.66580  Biso   1.000  H
  H17      1.0000 0.85540  0.21420  0.88300  Biso   1.000  H
  H18      1.0000 0.31050  0.12910  0.94230  Biso   1.000  H
  H19      1.0000 0.49930  0.01830  0.73070  Biso   1.000  H
  H20      1.0000 0.09500  0.11030  0.77290  Biso   1.000  H
  H21      1.0000 0.14140  0.41110  0.13310  Biso   1.000  H
  H22      1.0000 0.83040  0.23060  0.11010  Biso   1.000  H
  H23      1.0000 0.03070  0.19140  0.17860  Biso   1.000  H
  H24      1.0000 0.34250  0.36920  0.20140  Biso   1.000  H
  H25      1.0000 0.62750  0.03830  0.83800  Biso   1.000  H
  H26      1.0000 0.61970  0.32970  0.03120  Biso   1.000  H
  H27      1.0000 0.01480  0.83030  0.41690  Biso   1.000  H
  H28      1.0000 0.56150  0.74600  0.47920  Biso   1.000  H
  H29      1.0000 0.02860  0.58840  0.16580  Biso   1.000  H
  H30      1.0000 0.14460  0.71420  0.38300  Biso   1.000  H
  H31      1.0000 0.68950  0.62910  0.44230  Biso   1.000  H
  H32      1.0000 0.50070  0.51830  0.23070  Biso   1.000  H
  H33      1.0000 0.90500  0.61030  0.27290  Biso   1.000  H
  H34      1.0000 0.85860  0.91110  0.63310  Biso   1.000  H
  H35      1.0000 0.16960  0.73060  0.61010  Biso   1.000  H
  H36      1.0000 0.96930  0.69140  0.67860  Biso   1.000  H
  H37      1.0000 0.65750  0.86920  0.70140  Biso   1.000  H
  H38      1.0000 0.37250  0.53830  0.33800  Biso   1.000  H
  H39      1.0000 0.38030  0.82970  0.53120  Biso   1.000  H
  H40      1.0000 0.01480  0.66970  0.08310  Biso   1.000  H
  H41      1.0000 0.56150  0.75400  0.02080  Biso   1.000  H
  H42      1.0000 0.02860  0.91160  0.33420  Biso   1.000  H
  H43      1.0000 0.14460  0.78580  0.11700  Biso   1.000  H
  H44      1.0000 0.68950  0.87090  0.05770  Biso   1.000  H
  H45      1.0000 0.50070  0.98170  0.26930  Biso   1.000  H
  H46      1.0000 0.90500  0.88970  0.22710  Biso   1.000  H
  H47      1.0000 0.85860  0.58890  0.86690  Biso   1.000  H
  H48      1.0000 0.16960  0.76940  0.88990  Biso   1.000  H
  H49      1.0000 0.96930  0.80860  0.82140  Biso   1.000  H
  H50      1.0000 0.65750  0.63080  0.79860  Biso   1.000  H
  H51      1.0000 0.37250  0.96170  0.16200  Biso   1.000  H
  H52      1.0000 0.38030  0.67030  0.96880  Biso   1.000  H
  C1       1.0000 0.63910  0.46311  0.88201  Biso   1.000  C
  C2       1.0000 0.31460  0.12620  0.53140  Biso   1.000  C
  C3       1.0000 0.05140  0.21001  0.57821  Biso   1.000  C
  C4       1.0000 0.23160  0.20100  0.55030  Biso   1.000  C
  C5       1.0000 0.32220  0.26030  0.54150  Biso   1.000  C
  C6       1.0000 0.82760  0.14500  0.42330  Biso   1.000  C
  C7       1.0000 0.83990  0.41830  0.55650  Biso   1.000  C
  C8       1.0000 0.11360  0.48060  0.62570  Biso   1.000  C
  C9       1.0000 0.44770  0.31060  0.29550  Biso   1.000  C
  C10      1.0000 0.72160  0.44758  0.81218  Biso   1.000  C
  C11      1.0000 0.90160  0.42120  0.79940  Biso   1.000  C
  C12      1.0000 0.97580  0.41577  0.61457  Biso   1.000  C
  C13      1.0000 0.06880  0.34043  0.59163  Biso   1.000  C
  C14      1.0000 0.87530  0.42594  0.68324  Biso   1.000  C
  C15      1.0000 0.97430  0.27970  0.59840  Biso   1.000  C
  C16      1.0000 0.24440  0.33060  0.56280  Biso   1.000  C
  C17      1.0000 0.61950  0.46340  0.76080  Biso   1.000  C
  C18      1.0000 0.97600  0.40920  0.73580  Biso   1.000  C
  C19      1.0000 0.11730  0.13300  0.35710  Biso   1.000  C
  C20      1.0000 0.96090  0.17410  0.38400  Biso   1.000  C
  C21      1.0000 0.93180  0.24040  0.37070  Biso   1.000  C
  C22      1.0000 0.05110  0.26350  0.32960  Biso   1.000  C
  C23      1.0000 0.20270  0.22140  0.29950  Biso   1.000  C
  C24      1.0000 0.23660  0.15800  0.31570  Biso   1.000  C
  C25      1.0000 0.69720  0.45173  0.69673  Biso   1.000  C
  C26      1.0000 0.63910  0.03689  0.61799  Biso   1.000  C
  C27      1.0000 0.31460  0.37380  0.96860  Biso   1.000  C
  C28      1.0000 0.05140  0.28999  0.92179  Biso   1.000  C
  C29      1.0000 0.23160  0.29900  0.94970  Biso   1.000  C
  C30      1.0000 0.32220  0.23970  0.95850  Biso   1.000  C
  C31      1.0000 0.82760  0.35500  0.07670  Biso   1.000  C
  C32      1.0000 0.83990  0.08170  0.94350  Biso   1.000  C
  C33      1.0000 0.11360  0.01940  0.87430  Biso   1.000  C
  C34      1.0000 0.44770  0.18940  0.20450  Biso   1.000  C
  C35      1.0000 0.72160  0.05242  0.68782  Biso   1.000  C
  C36      1.0000 0.90160  0.07880  0.70060  Biso   1.000  C
  C37      1.0000 0.97580  0.08423  0.88543  Biso   1.000  C
  C38      1.0000 0.06880  0.15957  0.90837  Biso   1.000  C
  C39      1.0000 0.87530  0.07406  0.81676  Biso   1.000  C
  C40      1.0000 0.97430  0.22030  0.90160  Biso   1.000  C
  C41      1.0000 0.24440  0.16940  0.93720  Biso   1.000  C
  C42      1.0000 0.61950  0.03660  0.73920  Biso   1.000  C
  C43      1.0000 0.97600  0.09080  0.76420  Biso   1.000  C
  C44      1.0000 0.11730  0.36700  0.14290  Biso   1.000  C
  C45      1.0000 0.96090  0.32590  0.11600  Biso   1.000  C
  C46      1.0000 0.93180  0.25960  0.12930  Biso   1.000  C
  C47      1.0000 0.05110  0.23650  0.17040  Biso   1.000  C
  C48      1.0000 0.20270  0.27860  0.20050  Biso   1.000  C
  C49      1.0000 0.23660  0.34200  0.18430  Biso   1.000  C
  C50      1.0000 0.69720  0.04827  0.80327  Biso   1.000  C
  C51      1.0000 0.36090  0.53689  0.11799  Biso   1.000  C
  C52      1.0000 0.68540  0.87380  0.46860  Biso   1.000  C
  C53      1.0000 0.94860  0.78999  0.42179  Biso   1.000  C
  C54      1.0000 0.76840  0.79900  0.44970  Biso   1.000  C
  C55      1.0000 0.67780  0.73970  0.45850  Biso   1.000  C
  C56      1.0000 0.17240  0.85500  0.57670  Biso   1.000  C
  C57      1.0000 0.16010  0.58170  0.44350  Biso   1.000  C
  C58      1.0000 0.88640  0.51940  0.37430  Biso   1.000  C
  C59      1.0000 0.55230  0.68940  0.70450  Biso   1.000  C
  C60      1.0000 0.27840  0.55242  0.18782  Biso   1.000  C
  C61      1.0000 0.09840  0.57880  0.20060  Biso   1.000  C
  C62      1.0000 0.02420  0.58423  0.38543  Biso   1.000  C
  C63      1.0000 0.93120  0.65957  0.40837  Biso   1.000  C
  C64      1.0000 0.12470  0.57406  0.31676  Biso   1.000  C
  C65      1.0000 0.02570  0.72030  0.40160  Biso   1.000  C
  C66      1.0000 0.75560  0.66940  0.43720  Biso   1.000  C
  C67      1.0000 0.38050  0.53660  0.23920  Biso   1.000  C
  C68      1.0000 0.02400  0.59080  0.26420  Biso   1.000  C
  C69      1.0000 0.88270  0.86700  0.64290  Biso   1.000  C
  C70      1.0000 0.03910  0.82590  0.61600  Biso   1.000  C
  C71      1.0000 0.06820  0.75960  0.62930  Biso   1.000  C
  C72      1.0000 0.94890  0.73650  0.67040  Biso   1.000  C
  C73      1.0000 0.79730  0.77860  0.70050  Biso   1.000  C
  C74      1.0000 0.76340  0.84200  0.68430  Biso   1.000  C
  C75      1.0000 0.30280  0.54827  0.30327  Biso   1.000  C
  C76      1.0000 0.36090  0.96311  0.38201  Biso   1.000  C
  C77      1.0000 0.68540  0.62620  0.03140  Biso   1.000  C
  C78      1.0000 0.94860  0.71001  0.07821  Biso   1.000  C
  C79      1.0000 0.76840  0.70100  0.05030  Biso   1.000  C
  C80      1.0000 0.67780  0.76030  0.04150  Biso   1.000  C
  C81      1.0000 0.17240  0.64500  0.92330  Biso   1.000  C
  C82      1.0000 0.16010  0.91830  0.05650  Biso   1.000  C
  C83      1.0000 0.88640  0.98060  0.12570  Biso   1.000  C
  C84      1.0000 0.55230  0.81060  0.79550  Biso   1.000  C
  C85      1.0000 0.27840  0.94758  0.31218  Biso   1.000  C
  C86      1.0000 0.09840  0.92120  0.29940  Biso   1.000  C
  C87      1.0000 0.02420  0.91577  0.11457  Biso   1.000  C
  C88      1.0000 0.93120  0.84043  0.09163  Biso   1.000  C
  C89      1.0000 0.12470  0.92594  0.18324  Biso   1.000  C
  C90      1.0000 0.02570  0.77970  0.09840  Biso   1.000  C
  C91      1.0000 0.75560  0.83060  0.06280  Biso   1.000  C
  C92      1.0000 0.38050  0.96340  0.26080  Biso   1.000  C
  C93      1.0000 0.02400  0.90920  0.23580  Biso   1.000  C
  C94      1.0000 0.88270  0.63300  0.85710  Biso   1.000  C
  C95      1.0000 0.03910  0.67410  0.88400  Biso   1.000  C
  C96      1.0000 0.06820  0.74040  0.87070  Biso   1.000  C
  C97      1.0000 0.94890  0.76350  0.82960  Biso   1.000  C
  C98      1.0000 0.79730  0.72140  0.79950  Biso   1.000  C
  C99      1.0000 0.76340  0.65800  0.81570  Biso   1.000  C
  C100     1.0000 0.30280  0.95173  0.19673  Biso   1.000  C
  C101     1.0000 0.32440  0.25000  0.25000  Biso   1.000  C
  C102     1.0000 0.67560  0.75000  0.75000  Biso   1.000  C
  O1       1.0000 0.73450  0.44594  0.92714  Biso   1.000  O
  O2       1.0000 0.48440  0.49449  0.89179  Biso   1.000  O
  O3       1.0000 0.47340  0.11728  0.50362  Biso   1.000  O
  O4       1.0000 0.22680  0.07541  0.54324  Biso   1.000  O
  O5       1.0000 0.68350  0.18713  0.44353  Biso   1.000  O
  O6       1.0000 0.84750  0.08651  0.43569  Biso   1.000  O
  O7       1.0000 0.73450  0.05406  0.57286  Biso   1.000  O
  O8       1.0000 0.48440  0.00551  0.60821  Biso   1.000  O
  O9       1.0000 0.47340  0.38272  0.99638  Biso   1.000  O
  O10      1.0000 0.22680  0.42459  0.95676  Biso   1.000  O
  O11      1.0000 0.68350  0.31287  0.05647  Biso   1.000  O
  O12      1.0000 0.84750  0.41349  0.06431  Biso   1.000  O
  O13      1.0000 0.26550  0.55406  0.07286  Biso   1.000  O
  O14      1.0000 0.51560  0.50551  0.10821  Biso   1.000  O
  O15      1.0000 0.52660  0.88272  0.49638  Biso   1.000  O
  O16      1.0000 0.77320  0.92459  0.45676  Biso   1.000  O
  O17      1.0000 0.31650  0.81287  0.55647  Biso   1.000  O
  O18      1.0000 0.15250  0.91349  0.56431  Biso   1.000  O
  O19      1.0000 0.26550  0.94594  0.42714  Biso   1.000  O
  O20      1.0000 0.51560  0.99449  0.39179  Biso   1.000  O
  O21      1.0000 0.52660  0.61728  0.00362  Biso   1.000  O
  O22      1.0000 0.77320  0.57541  0.04324  Biso   1.000  O
  O23      1.0000 0.31650  0.68713  0.94353  Biso   1.000  O
  O24      1.0000 0.15250  0.58651  0.93569  Biso   1.000  O
  F1       1.0000 0.70100  0.37194  0.55159  Biso   1.000  F
  F2       1.0000 0.92490  0.40026  0.49645  Biso   1.000  F
  F3       1.0000 0.76500  0.48416  0.56467  Biso   1.000  F
  F4       1.0000 0.18470  0.48673  0.56777  Biso   1.000  F
  F5       1.0000 0.25140  0.47458  0.66558  Biso   1.000  F
  F6       1.0000 0.02970  0.54436  0.65618  Biso   1.000  F
  F7       1.0000 0.35380  0.37103  0.32523  Biso   1.000  F
  F8       1.0000 0.58850  0.33043  0.25998  Biso   1.000  F
  F9       1.0000 0.52550  0.28896  0.34651  Biso   1.000  F
  F10      1.0000 0.70100  0.12806  0.94841  Biso   1.000  F
  F11      1.0000 0.92490  0.09974  0.00355  Biso   1.000  F
  F12      1.0000 0.76500  0.01584  0.93533  Biso   1.000  F
  F13      1.0000 0.18470  0.01327  0.93223  Biso   1.000  F
  F14      1.0000 0.25140  0.02542  0.83442  Biso   1.000  F
  F15      1.0000 0.02970  0.95564  0.84382  Biso   1.000  F
  F16      1.0000 0.35380  0.12897  0.17477  Biso   1.000  F
  F17      1.0000 0.58850  0.16957  0.24002  Biso   1.000  F
  F18      1.0000 0.52550  0.21104  0.15349  Biso   1.000  F
  F19      1.0000 0.29900  0.62806  0.44841  Biso   1.000  F
  F20      1.0000 0.07510  0.59974  0.50355  Biso   1.000  F
  F21      1.0000 0.23500  0.51584  0.43533  Biso   1.000  F
  F22      1.0000 0.81530  0.51327  0.43223  Biso   1.000  F
  F23      1.0000 0.74860  0.52542  0.33442  Biso   1.000  F
  F24      1.0000 0.97030  0.45564  0.34382  Biso   1.000  F
  F25      1.0000 0.64620  0.62897  0.67477  Biso   1.000  F
  F26      1.0000 0.41150  0.66957  0.74002  Biso   1.000  F
  F27      1.0000 0.47450  0.71104  0.65349  Biso   1.000  F
  F28      1.0000 0.29900  0.87194  0.05159  Biso   1.000  F
  F29      1.0000 0.07510  0.90026  0.99645  Biso   1.000  F
  F30      1.0000 0.23500  0.98416  0.06467  Biso   1.000  F
  F31      1.0000 0.81530  0.98673  0.06777  Biso   1.000  F
  F32      1.0000 0.74860  0.97458  0.16558  Biso   1.000  F
  F33      1.0000 0.97030  0.04436  0.15618  Biso   1.000  F
  F34      1.0000 0.64620  0.87103  0.82523  Biso   1.000  F
  F35      1.0000 0.41150  0.83043  0.75998  Biso   1.000  F
  F36      1.0000 0.47450  0.78896  0.84651  Biso   1.000  F
