data_image0
_cell_length_a       12.9305
_cell_length_b       13.7961
_cell_length_c       16.8295
_cell_angle_alpha    90
_cell_angle_beta     90
_cell_angle_gamma    90

_symmetry_space_group_name_H-M    P 1
_symmetry_int_tables_number       1

loop_
  _symmetry_equiv_pos_as_xyz
  'x, y, z'

loop_
  _atom_site_label
  _atom_site_occupancy
  _atom_site_fract_x
  _atom_site_fract_y
  _atom_site_fract_z
  _atom_site_thermal_displace_type
  _atom_site_B_iso_or_equiv
  _atom_site_type_symbol
  Zn1      1.0000 0.47569  0.40730  0.42390  Biso   1.000  Zn
  Zn2      1.0000 0.42707  0.47793  0.09649  Biso   1.000  Zn
  Zn3      1.0000 0.52431  0.09270  0.92390  Biso   1.000  Zn
  Zn4      1.0000 0.57293  0.02207  0.59649  Biso   1.000  Zn
  Zn5      1.0000 0.97569  0.59270  0.07610  Biso   1.000  Zn
  Zn6      1.0000 0.92707  0.52207  0.40351  Biso   1.000  Zn
  Zn7      1.0000 0.02431  0.90730  0.57610  Biso   1.000  Zn
  Zn8      1.0000 0.07293  0.97793  0.90351  Biso   1.000  Zn
  Zn9      1.0000 0.52431  0.59270  0.57610  Biso   1.000  Zn
  Zn10     1.0000 0.57293  0.52207  0.90351  Biso   1.000  Zn
  Zn11     1.0000 0.47569  0.90730  0.07610  Biso   1.000  Zn
  Zn12     1.0000 0.42707  0.97793  0.40351  Biso   1.000  Zn
  Zn13     1.0000 0.02431  0.40730  0.92390  Biso   1.000  Zn
  Zn14     1.0000 0.07293  0.47793  0.59649  Biso   1.000  Zn
  Zn15     1.0000 0.97569  0.09270  0.42390  Biso   1.000  Zn
  Zn16     1.0000 0.92707  0.02207  0.09649  Biso   1.000  Zn
  H1       1.0000 0.24830  0.36260  0.50040  Biso   1.000  H
  H2       1.0000 0.44480  0.19500  0.35280  Biso   1.000  H
  H3       1.0000 0.32780  0.67010  0.64460  Biso   1.000  H
  H4       1.0000 0.21880  0.63270  0.66050  Biso   1.000  H
  H5       1.0000 0.58870  0.23790  0.62520  Biso   1.000  H
  H6       1.0000 0.56450  0.33360  0.58400  Biso   1.000  H
  H7       1.0000 0.75170  0.13740  0.00040  Biso   1.000  H
  H8       1.0000 0.55520  0.30500  0.85280  Biso   1.000  H
  H9       1.0000 0.67220  0.82990  0.14460  Biso   1.000  H
  H10      1.0000 0.78120  0.86730  0.16050  Biso   1.000  H
  H11      1.0000 0.41130  0.26210  0.12520  Biso   1.000  H
  H12      1.0000 0.43550  0.16640  0.08400  Biso   1.000  H
  H13      1.0000 0.74830  0.63740  0.99960  Biso   1.000  H
  H14      1.0000 0.94480  0.80500  0.14720  Biso   1.000  H
  H15      1.0000 0.82780  0.32990  0.85540  Biso   1.000  H
  H16      1.0000 0.71880  0.36730  0.83950  Biso   1.000  H
  H17      1.0000 0.08870  0.76210  0.87480  Biso   1.000  H
  H18      1.0000 0.06450  0.66640  0.91600  Biso   1.000  H
  H19      1.0000 0.25170  0.86260  0.49960  Biso   1.000  H
  H20      1.0000 0.05520  0.69500  0.64720  Biso   1.000  H
  H21      1.0000 0.17220  0.17010  0.35540  Biso   1.000  H
  H22      1.0000 0.28120  0.13270  0.33950  Biso   1.000  H
  H23      1.0000 0.91130  0.73790  0.37480  Biso   1.000  H
  H24      1.0000 0.93550  0.83360  0.41600  Biso   1.000  H
  H25      1.0000 0.75170  0.63740  0.49960  Biso   1.000  H
  H26      1.0000 0.55520  0.80500  0.64720  Biso   1.000  H
  H27      1.0000 0.67220  0.32990  0.35540  Biso   1.000  H
  H28      1.0000 0.78120  0.36730  0.33950  Biso   1.000  H
  H29      1.0000 0.41130  0.76210  0.37480  Biso   1.000  H
  H30      1.0000 0.43550  0.66640  0.41600  Biso   1.000  H
  H31      1.0000 0.24830  0.86260  0.99960  Biso   1.000  H
  H32      1.0000 0.44480  0.69500  0.14720  Biso   1.000  H
  H33      1.0000 0.32780  0.17010  0.85540  Biso   1.000  H
  H34      1.0000 0.21880  0.13270  0.83950  Biso   1.000  H
  H35      1.0000 0.58870  0.73790  0.87480  Biso   1.000  H
  H36      1.0000 0.56450  0.83360  0.91600  Biso   1.000  H
  H37      1.0000 0.25170  0.36260  0.00040  Biso   1.000  H
  H38      1.0000 0.05520  0.19500  0.85280  Biso   1.000  H
  H39      1.0000 0.17220  0.67010  0.14460  Biso   1.000  H
  H40      1.0000 0.28120  0.63270  0.16050  Biso   1.000  H
  H41      1.0000 0.91130  0.23790  0.12520  Biso   1.000  H
  H42      1.0000 0.93550  0.33360  0.08400  Biso   1.000  H
  H43      1.0000 0.74830  0.13740  0.50040  Biso   1.000  H
  H44      1.0000 0.94480  0.30500  0.35280  Biso   1.000  H
  H45      1.0000 0.82780  0.82990  0.64460  Biso   1.000  H
  H46      1.0000 0.71880  0.86730  0.66050  Biso   1.000  H
  H47      1.0000 0.08870  0.26210  0.62520  Biso   1.000  H
  H48      1.0000 0.06450  0.16640  0.58400  Biso   1.000  H
  C1       1.0000 0.42310  0.50620  0.27720  Biso   1.000  C
  C2       1.0000 0.47370  0.40870  0.25320  Biso   1.000  C
  C3       1.0000 0.29840  0.54750  0.58980  Biso   1.000  C
  C4       1.0000 0.27800  0.41910  0.52320  Biso   1.000  C
  C5       1.0000 0.52760  0.22120  0.52090  Biso   1.000  C
  C6       1.0000 0.47060  0.18800  0.40530  Biso   1.000  C
  C7       1.0000 0.57690  0.99380  0.77720  Biso   1.000  C
  C8       1.0000 0.52630  0.09130  0.75320  Biso   1.000  C
  C9       1.0000 0.70160  0.95250  0.08980  Biso   1.000  C
  C10      1.0000 0.72200  0.08090  0.02320  Biso   1.000  C
  C11      1.0000 0.47240  0.27880  0.02090  Biso   1.000  C
  C12      1.0000 0.52940  0.31200  0.90530  Biso   1.000  C
  C13      1.0000 0.92310  0.49380  0.22280  Biso   1.000  C
  C14      1.0000 0.97370  0.59130  0.24680  Biso   1.000  C
  C15      1.0000 0.79840  0.45250  0.91020  Biso   1.000  C
  C16      1.0000 0.77800  0.58090  0.97680  Biso   1.000  C
  C17      1.0000 0.02760  0.77880  0.97910  Biso   1.000  C
  C18      1.0000 0.97060  0.81200  0.09470  Biso   1.000  C
  C19      1.0000 0.07690  0.00620  0.72280  Biso   1.000  C
  C20      1.0000 0.02630  0.90870  0.74680  Biso   1.000  C
  C21      1.0000 0.20160  0.04750  0.41020  Biso   1.000  C
  C22      1.0000 0.22200  0.91910  0.47680  Biso   1.000  C
  C23      1.0000 0.97240  0.72120  0.47910  Biso   1.000  C
  C24      1.0000 0.02940  0.68800  0.59470  Biso   1.000  C
  C25      1.0000 0.57690  0.49380  0.72280  Biso   1.000  C
  C26      1.0000 0.52630  0.59130  0.74680  Biso   1.000  C
  C27      1.0000 0.70160  0.45250  0.41020  Biso   1.000  C
  C28      1.0000 0.72200  0.58090  0.47680  Biso   1.000  C
  C29      1.0000 0.47240  0.77880  0.47910  Biso   1.000  C
  C30      1.0000 0.52940  0.81200  0.59470  Biso   1.000  C
  C31      1.0000 0.42310  0.00620  0.22280  Biso   1.000  C
  C32      1.0000 0.47370  0.90870  0.24680  Biso   1.000  C
  C33      1.0000 0.29840  0.04750  0.91020  Biso   1.000  C
  C34      1.0000 0.27800  0.91910  0.97680  Biso   1.000  C
  C35      1.0000 0.52760  0.72120  0.97910  Biso   1.000  C
  C36      1.0000 0.47060  0.68800  0.09470  Biso   1.000  C
  C37      1.0000 0.07690  0.50620  0.77720  Biso   1.000  C
  C38      1.0000 0.02630  0.40870  0.75320  Biso   1.000  C
  C39      1.0000 0.20160  0.54750  0.08980  Biso   1.000  C
  C40      1.0000 0.22200  0.41910  0.02320  Biso   1.000  C
  C41      1.0000 0.97240  0.22120  0.02090  Biso   1.000  C
  C42      1.0000 0.02940  0.18800  0.90530  Biso   1.000  C
  C43      1.0000 0.92310  0.99380  0.27720  Biso   1.000  C
  C44      1.0000 0.97370  0.09130  0.25320  Biso   1.000  C
  C45      1.0000 0.79840  0.95250  0.58980  Biso   1.000  C
  C46      1.0000 0.77800  0.08090  0.52320  Biso   1.000  C
  C47      1.0000 0.02760  0.27880  0.52090  Biso   1.000  C
  C48      1.0000 0.97060  0.31200  0.40530  Biso   1.000  C
  N1       1.0000 0.22560  0.47850  0.57350  Biso   1.000  N
  N2       1.0000 0.37230  0.44670  0.50930  Biso   1.000  N
  N3       1.0000 0.38640  0.53170  0.55280  Biso   1.000  N
  N4       1.0000 0.27940  0.62610  0.63730  Biso   1.000  N
  N5       1.0000 0.48710  0.10400  0.43960  Biso   1.000  N
  N6       1.0000 0.52440  0.12360  0.51530  Biso   1.000  N
  N7       1.0000 0.49420  0.26320  0.45280  Biso   1.000  N
  N8       1.0000 0.56450  0.26980  0.58390  Biso   1.000  N
  N9       1.0000 0.77440  0.02150  0.07350  Biso   1.000  N
  N10      1.0000 0.62770  0.05330  0.00930  Biso   1.000  N
  N11      1.0000 0.61360  0.96830  0.05280  Biso   1.000  N
  N12      1.0000 0.72060  0.87390  0.13730  Biso   1.000  N
  N13      1.0000 0.51290  0.39600  0.93960  Biso   1.000  N
  N14      1.0000 0.47560  0.37640  0.01530  Biso   1.000  N
  N15      1.0000 0.50580  0.23680  0.95280  Biso   1.000  N
  N16      1.0000 0.43550  0.23020  0.08390  Biso   1.000  N
  N17      1.0000 0.72560  0.52150  0.92650  Biso   1.000  N
  N18      1.0000 0.87230  0.55330  0.99070  Biso   1.000  N
  N19      1.0000 0.88640  0.46830  0.94720  Biso   1.000  N
  N20      1.0000 0.77940  0.37390  0.86270  Biso   1.000  N
  N21      1.0000 0.98710  0.89600  0.06040  Biso   1.000  N
  N22      1.0000 0.02440  0.87640  0.98470  Biso   1.000  N
  N23      1.0000 0.99420  0.73680  0.04720  Biso   1.000  N
  N24      1.0000 0.06450  0.73020  0.91610  Biso   1.000  N
  N25      1.0000 0.27440  0.97850  0.42650  Biso   1.000  N
  N26      1.0000 0.12770  0.94670  0.49070  Biso   1.000  N
  N27      1.0000 0.11360  0.03170  0.44720  Biso   1.000  N
  N28      1.0000 0.22060  0.12610  0.36270  Biso   1.000  N
  N29      1.0000 0.01290  0.60400  0.56040  Biso   1.000  N
  N30      1.0000 0.97560  0.62360  0.48470  Biso   1.000  N
  N31      1.0000 0.00580  0.76320  0.54720  Biso   1.000  N
  N32      1.0000 0.93550  0.76980  0.41610  Biso   1.000  N
  N33      1.0000 0.77440  0.52150  0.42650  Biso   1.000  N
  N34      1.0000 0.62770  0.55330  0.49070  Biso   1.000  N
  N35      1.0000 0.61360  0.46830  0.44720  Biso   1.000  N
  N36      1.0000 0.72060  0.37390  0.36270  Biso   1.000  N
  N37      1.0000 0.51290  0.89600  0.56040  Biso   1.000  N
  N38      1.0000 0.47560  0.87640  0.48470  Biso   1.000  N
  N39      1.0000 0.50580  0.73680  0.54720  Biso   1.000  N
  N40      1.0000 0.43550  0.73020  0.41610  Biso   1.000  N
  N41      1.0000 0.22560  0.97850  0.92650  Biso   1.000  N
  N42      1.0000 0.37230  0.94670  0.99070  Biso   1.000  N
  N43      1.0000 0.38640  0.03170  0.94720  Biso   1.000  N
  N44      1.0000 0.27940  0.12610  0.86270  Biso   1.000  N
  N45      1.0000 0.48710  0.60400  0.06040  Biso   1.000  N
  N46      1.0000 0.52440  0.62360  0.98470  Biso   1.000  N
  N47      1.0000 0.49420  0.76320  0.04720  Biso   1.000  N
  N48      1.0000 0.56450  0.76980  0.91610  Biso   1.000  N
  N49      1.0000 0.27440  0.47850  0.07350  Biso   1.000  N
  N50      1.0000 0.12770  0.44670  0.00930  Biso   1.000  N
  N51      1.0000 0.11360  0.53170  0.05280  Biso   1.000  N
  N52      1.0000 0.22060  0.62610  0.13730  Biso   1.000  N
  N53      1.0000 0.01290  0.10400  0.93960  Biso   1.000  N
  N54      1.0000 0.97560  0.12360  0.01530  Biso   1.000  N
  N55      1.0000 0.00580  0.26320  0.95280  Biso   1.000  N
  N56      1.0000 0.93550  0.26980  0.08390  Biso   1.000  N
  N57      1.0000 0.72560  0.02150  0.57350  Biso   1.000  N
  N58      1.0000 0.87230  0.05330  0.50930  Biso   1.000  N
  N59      1.0000 0.88640  0.96830  0.55280  Biso   1.000  N
  N60      1.0000 0.77940  0.87390  0.63730  Biso   1.000  N
  N61      1.0000 0.98710  0.39600  0.43960  Biso   1.000  N
  N62      1.0000 0.02440  0.37640  0.51530  Biso   1.000  N
  N63      1.0000 0.99420  0.23680  0.45280  Biso   1.000  N
  N64      1.0000 0.06450  0.23020  0.58390  Biso   1.000  N
  O1       1.0000 0.48440  0.39110  0.18150  Biso   1.000  O
  O2       1.0000 0.39500  0.55860  0.22080  Biso   1.000  O
  O3       1.0000 0.50190  0.35430  0.30900  Biso   1.000  O
  O4       1.0000 0.41550  0.52230  0.35020  Biso   1.000  O
  O5       1.0000 0.51560  0.10890  0.68150  Biso   1.000  O
  O6       1.0000 0.60500  0.94140  0.72080  Biso   1.000  O
  O7       1.0000 0.49810  0.14570  0.80900  Biso   1.000  O
  O8       1.0000 0.58450  0.97770  0.85020  Biso   1.000  O
  O9       1.0000 0.98440  0.60890  0.31850  Biso   1.000  O
  O10      1.0000 0.89500  0.44140  0.27920  Biso   1.000  O
  O11      1.0000 0.00190  0.64570  0.19100  Biso   1.000  O
  O12      1.0000 0.91550  0.47770  0.14980  Biso   1.000  O
  O13      1.0000 0.01560  0.89110  0.81850  Biso   1.000  O
  O14      1.0000 0.10500  0.05860  0.77920  Biso   1.000  O
  O15      1.0000 0.99810  0.85430  0.69100  Biso   1.000  O
  O16      1.0000 0.08450  0.02230  0.64980  Biso   1.000  O
  O17      1.0000 0.51560  0.60890  0.81850  Biso   1.000  O
  O18      1.0000 0.60500  0.44140  0.77920  Biso   1.000  O
  O19      1.0000 0.49810  0.64570  0.69100  Biso   1.000  O
  O20      1.0000 0.58450  0.47770  0.64980  Biso   1.000  O
  O21      1.0000 0.48440  0.89110  0.31850  Biso   1.000  O
  O22      1.0000 0.39500  0.05860  0.27920  Biso   1.000  O
  O23      1.0000 0.50190  0.85430  0.19100  Biso   1.000  O
  O24      1.0000 0.41550  0.02230  0.14980  Biso   1.000  O
  O25      1.0000 0.01560  0.39110  0.68150  Biso   1.000  O
  O26      1.0000 0.10500  0.55860  0.72080  Biso   1.000  O
  O27      1.0000 0.99810  0.35430  0.80900  Biso   1.000  O
  O28      1.0000 0.08450  0.52230  0.85020  Biso   1.000  O
  O29      1.0000 0.98440  0.10890  0.18150  Biso   1.000  O
  O30      1.0000 0.89500  0.94140  0.22080  Biso   1.000  O
  O31      1.0000 0.00190  0.14570  0.30900  Biso   1.000  O
  O32      1.0000 0.91550  0.97770  0.35020  Biso   1.000  O
