data_image0
_cell_length_a       12.9591
_cell_length_b       13.7971
_cell_length_c       16.8153
_cell_angle_alpha    90
_cell_angle_beta     90
_cell_angle_gamma    90

_symmetry_space_group_name_H-M    P 1
_symmetry_int_tables_number       1

loop_
  _symmetry_equiv_pos_as_xyz
  'x, y, z'

loop_
  _atom_site_label
  _atom_site_occupancy
  _atom_site_fract_x
  _atom_site_fract_y
  _atom_site_fract_z
  _atom_site_thermal_displace_type
  _atom_site_B_iso_or_equiv
  _atom_site_type_symbol
  Zn1      1.0000 0.42665  0.97754  0.40392  Biso   1.000  Zn
  Zn2      1.0000 0.47660  0.90714  0.07610  Biso   1.000  Zn
  Zn3      1.0000 0.57335  0.52246  0.90392  Biso   1.000  Zn
  Zn4      1.0000 0.52340  0.59286  0.57610  Biso   1.000  Zn
  Zn5      1.0000 0.92665  0.02246  0.09608  Biso   1.000  Zn
  Zn6      1.0000 0.97660  0.09286  0.42390  Biso   1.000  Zn
  Zn7      1.0000 0.07335  0.47754  0.59608  Biso   1.000  Zn
  Zn8      1.0000 0.02340  0.40714  0.92390  Biso   1.000  Zn
  Zn9      1.0000 0.57335  0.02246  0.59608  Biso   1.000  Zn
  Zn10     1.0000 0.52340  0.09286  0.92390  Biso   1.000  Zn
  Zn11     1.0000 0.42665  0.47754  0.09608  Biso   1.000  Zn
  Zn12     1.0000 0.47660  0.40714  0.42390  Biso   1.000  Zn
  Zn13     1.0000 0.07335  0.97754  0.90392  Biso   1.000  Zn
  Zn14     1.0000 0.02340  0.90714  0.57610  Biso   1.000  Zn
  Zn15     1.0000 0.92665  0.52246  0.40392  Biso   1.000  Zn
  Zn16     1.0000 0.97660  0.59286  0.07610  Biso   1.000  Zn
  H1       1.0000 0.25180  0.86340  0.50160  Biso   1.000  H
  H2       1.0000 0.44660  0.19500  0.35290  Biso   1.000  H
  H3       1.0000 0.17250  0.16930  0.35630  Biso   1.000  H
  H4       1.0000 0.28170  0.13250  0.34100  Biso   1.000  H
  H5       1.0000 0.58710  0.23780  0.62530  Biso   1.000  H
  H6       1.0000 0.56420  0.33340  0.58350  Biso   1.000  H
  H7       1.0000 0.74820  0.63660  0.00160  Biso   1.000  H
  H8       1.0000 0.55340  0.30500  0.85290  Biso   1.000  H
  H9       1.0000 0.82750  0.33070  0.85630  Biso   1.000  H
  H10      1.0000 0.71830  0.36750  0.84100  Biso   1.000  H
  H11      1.0000 0.41290  0.26220  0.12530  Biso   1.000  H
  H12      1.0000 0.43580  0.16660  0.08350  Biso   1.000  H
  H13      1.0000 0.75180  0.13660  0.99840  Biso   1.000  H
  H14      1.0000 0.94660  0.80500  0.14710  Biso   1.000  H
  H15      1.0000 0.67250  0.83070  0.14370  Biso   1.000  H
  H16      1.0000 0.78170  0.86750  0.15900  Biso   1.000  H
  H17      1.0000 0.08710  0.76220  0.87470  Biso   1.000  H
  H18      1.0000 0.06420  0.66660  0.91650  Biso   1.000  H
  H19      1.0000 0.24820  0.36340  0.49840  Biso   1.000  H
  H20      1.0000 0.05340  0.69500  0.64710  Biso   1.000  H
  H21      1.0000 0.32750  0.66930  0.64370  Biso   1.000  H
  H22      1.0000 0.21830  0.63250  0.65900  Biso   1.000  H
  H23      1.0000 0.91290  0.73780  0.37470  Biso   1.000  H
  H24      1.0000 0.93580  0.83340  0.41650  Biso   1.000  H
  H25      1.0000 0.74820  0.13660  0.49840  Biso   1.000  H
  H26      1.0000 0.55340  0.80500  0.64710  Biso   1.000  H
  H27      1.0000 0.82750  0.83070  0.64370  Biso   1.000  H
  H28      1.0000 0.71830  0.86750  0.65900  Biso   1.000  H
  H29      1.0000 0.41290  0.76220  0.37470  Biso   1.000  H
  H30      1.0000 0.43580  0.66660  0.41650  Biso   1.000  H
  H31      1.0000 0.25180  0.36340  0.99840  Biso   1.000  H
  H32      1.0000 0.44660  0.69500  0.14710  Biso   1.000  H
  H33      1.0000 0.17250  0.66930  0.14370  Biso   1.000  H
  H34      1.0000 0.28170  0.63250  0.15900  Biso   1.000  H
  H35      1.0000 0.58710  0.73780  0.87470  Biso   1.000  H
  H36      1.0000 0.56420  0.83340  0.91650  Biso   1.000  H
  H37      1.0000 0.24820  0.86340  0.00160  Biso   1.000  H
  H38      1.0000 0.05340  0.19500  0.85290  Biso   1.000  H
  H39      1.0000 0.32750  0.16930  0.85630  Biso   1.000  H
  H40      1.0000 0.21830  0.13250  0.84100  Biso   1.000  H
  H41      1.0000 0.91290  0.23780  0.12530  Biso   1.000  H
  H42      1.0000 0.93580  0.33340  0.08350  Biso   1.000  H
  H43      1.0000 0.75180  0.63660  0.50160  Biso   1.000  H
  H44      1.0000 0.94660  0.30500  0.35290  Biso   1.000  H
  H45      1.0000 0.67250  0.33070  0.35630  Biso   1.000  H
  H46      1.0000 0.78170  0.36750  0.34100  Biso   1.000  H
  H47      1.0000 0.08710  0.26220  0.62530  Biso   1.000  H
  H48      1.0000 0.06420  0.16660  0.58350  Biso   1.000  H
  C1       1.0000 0.42350  0.00600  0.22305  Biso   1.000  C
  C2       1.0000 0.47240  0.90910  0.24642  Biso   1.000  C
  C3       1.0000 0.20230  0.04750  0.41099  Biso   1.000  C
  C4       1.0000 0.22210  0.91950  0.47818  Biso   1.000  C
  C5       1.0000 0.52690  0.22040  0.51992  Biso   1.000  C
  C6       1.0000 0.47160  0.18800  0.40569  Biso   1.000  C
  C7       1.0000 0.57650  0.49400  0.72305  Biso   1.000  C
  C8       1.0000 0.52760  0.59090  0.74642  Biso   1.000  C
  C9       1.0000 0.79770  0.45250  0.91099  Biso   1.000  C
  C10      1.0000 0.77790  0.58050  0.97818  Biso   1.000  C
  C11      1.0000 0.47310  0.27960  0.01992  Biso   1.000  C
  C12      1.0000 0.52840  0.31200  0.90569  Biso   1.000  C
  C13      1.0000 0.92350  0.99400  0.27695  Biso   1.000  C
  C14      1.0000 0.97240  0.09090  0.25358  Biso   1.000  C
  C15      1.0000 0.70230  0.95250  0.08901  Biso   1.000  C
  C16      1.0000 0.72210  0.08050  0.02182  Biso   1.000  C
  C17      1.0000 0.02690  0.77960  0.98008  Biso   1.000  C
  C18      1.0000 0.97160  0.81200  0.09431  Biso   1.000  C
  C19      1.0000 0.07650  0.50600  0.77695  Biso   1.000  C
  C20      1.0000 0.02760  0.40910  0.75358  Biso   1.000  C
  C21      1.0000 0.29770  0.54750  0.58901  Biso   1.000  C
  C22      1.0000 0.27790  0.41950  0.52182  Biso   1.000  C
  C23      1.0000 0.97310  0.72040  0.48008  Biso   1.000  C
  C24      1.0000 0.02840  0.68800  0.59431  Biso   1.000  C
  C25      1.0000 0.57650  0.99400  0.77695  Biso   1.000  C
  C26      1.0000 0.52760  0.09090  0.75358  Biso   1.000  C
  C27      1.0000 0.79770  0.95250  0.58901  Biso   1.000  C
  C28      1.0000 0.77790  0.08050  0.52182  Biso   1.000  C
  C29      1.0000 0.47310  0.77960  0.48008  Biso   1.000  C
  C30      1.0000 0.52840  0.81200  0.59431  Biso   1.000  C
  C31      1.0000 0.42350  0.50600  0.27695  Biso   1.000  C
  C32      1.0000 0.47240  0.40910  0.25358  Biso   1.000  C
  C33      1.0000 0.20230  0.54750  0.08901  Biso   1.000  C
  C34      1.0000 0.22210  0.41950  0.02182  Biso   1.000  C
  C35      1.0000 0.52690  0.72040  0.98008  Biso   1.000  C
  C36      1.0000 0.47160  0.68800  0.09431  Biso   1.000  C
  C37      1.0000 0.07650  0.00600  0.72305  Biso   1.000  C
  C38      1.0000 0.02760  0.90910  0.74642  Biso   1.000  C
  C39      1.0000 0.29770  0.04750  0.91099  Biso   1.000  C
  C40      1.0000 0.27790  0.91950  0.97818  Biso   1.000  C
  C41      1.0000 0.97310  0.22040  0.01992  Biso   1.000  C
  C42      1.0000 0.02840  0.18800  0.90569  Biso   1.000  C
  C43      1.0000 0.92350  0.49400  0.22305  Biso   1.000  C
  C44      1.0000 0.97240  0.59090  0.24642  Biso   1.000  C
  C45      1.0000 0.70230  0.45250  0.41099  Biso   1.000  C
  C46      1.0000 0.72210  0.58050  0.47818  Biso   1.000  C
  C47      1.0000 0.02690  0.27960  0.51992  Biso   1.000  C
  C48      1.0000 0.97160  0.31200  0.40569  Biso   1.000  C
  N1       1.0000 0.27370  0.97853  0.42800  Biso   1.000  N
  N2       1.0000 0.12710  0.94717  0.49140  Biso   1.000  N
  N3       1.0000 0.11360  0.03140  0.44764  Biso   1.000  N
  N4       1.0000 0.22100  0.12560  0.36390  Biso   1.000  N
  N5       1.0000 0.52330  0.12399  0.51537  Biso   1.000  N
  N6       1.0000 0.48670  0.10408  0.43960  Biso   1.000  N
  N7       1.0000 0.49480  0.26318  0.45276  Biso   1.000  N
  N8       1.0000 0.56370  0.26960  0.58371  Biso   1.000  N
  N9       1.0000 0.72630  0.52147  0.92800  Biso   1.000  N
  N10      1.0000 0.87290  0.55283  0.99140  Biso   1.000  N
  N11      1.0000 0.88640  0.46860  0.94764  Biso   1.000  N
  N12      1.0000 0.77900  0.37440  0.86390  Biso   1.000  N
  N13      1.0000 0.47670  0.37601  0.01537  Biso   1.000  N
  N14      1.0000 0.51330  0.39592  0.93960  Biso   1.000  N
  N15      1.0000 0.50520  0.23682  0.95276  Biso   1.000  N
  N16      1.0000 0.43630  0.23040  0.08371  Biso   1.000  N
  N17      1.0000 0.77370  0.02147  0.07200  Biso   1.000  N
  N18      1.0000 0.62710  0.05283  0.00860  Biso   1.000  N
  N19      1.0000 0.61360  0.96860  0.05236  Biso   1.000  N
  N20      1.0000 0.72100  0.87440  0.13610  Biso   1.000  N
  N21      1.0000 0.02330  0.87601  0.98463  Biso   1.000  N
  N22      1.0000 0.98670  0.89592  0.06040  Biso   1.000  N
  N23      1.0000 0.99480  0.73682  0.04724  Biso   1.000  N
  N24      1.0000 0.06370  0.73040  0.91629  Biso   1.000  N
  N25      1.0000 0.22630  0.47853  0.57200  Biso   1.000  N
  N26      1.0000 0.37290  0.44717  0.50860  Biso   1.000  N
  N27      1.0000 0.38640  0.53140  0.55236  Biso   1.000  N
  N28      1.0000 0.27900  0.62560  0.63610  Biso   1.000  N
  N29      1.0000 0.97670  0.62399  0.48463  Biso   1.000  N
  N30      1.0000 0.01330  0.60408  0.56040  Biso   1.000  N
  N31      1.0000 0.00520  0.76318  0.54724  Biso   1.000  N
  N32      1.0000 0.93630  0.76960  0.41629  Biso   1.000  N
  N33      1.0000 0.72630  0.02147  0.57200  Biso   1.000  N
  N34      1.0000 0.87290  0.05283  0.50860  Biso   1.000  N
  N35      1.0000 0.88640  0.96860  0.55236  Biso   1.000  N
  N36      1.0000 0.77900  0.87440  0.63610  Biso   1.000  N
  N37      1.0000 0.47670  0.87601  0.48463  Biso   1.000  N
  N38      1.0000 0.51330  0.89592  0.56040  Biso   1.000  N
  N39      1.0000 0.50520  0.73682  0.54724  Biso   1.000  N
  N40      1.0000 0.43630  0.73040  0.41629  Biso   1.000  N
  N41      1.0000 0.27370  0.47853  0.07200  Biso   1.000  N
  N42      1.0000 0.12710  0.44717  0.00860  Biso   1.000  N
  N43      1.0000 0.11360  0.53140  0.05236  Biso   1.000  N
  N44      1.0000 0.22100  0.62560  0.13610  Biso   1.000  N
  N45      1.0000 0.52330  0.62399  0.98463  Biso   1.000  N
  N46      1.0000 0.48670  0.60408  0.06040  Biso   1.000  N
  N47      1.0000 0.49480  0.76318  0.04724  Biso   1.000  N
  N48      1.0000 0.56370  0.76960  0.91629  Biso   1.000  N
  N49      1.0000 0.22630  0.97853  0.92800  Biso   1.000  N
  N50      1.0000 0.37290  0.94717  0.99140  Biso   1.000  N
  N51      1.0000 0.38640  0.03140  0.94764  Biso   1.000  N
  N52      1.0000 0.27900  0.12560  0.86390  Biso   1.000  N
  N53      1.0000 0.97670  0.12399  0.01537  Biso   1.000  N
  N54      1.0000 0.01330  0.10408  0.93960  Biso   1.000  N
  N55      1.0000 0.00520  0.26318  0.95276  Biso   1.000  N
  N56      1.0000 0.93630  0.26960  0.08371  Biso   1.000  N
  N57      1.0000 0.77370  0.52147  0.42800  Biso   1.000  N
  N58      1.0000 0.62710  0.55283  0.49140  Biso   1.000  N
  N59      1.0000 0.61360  0.46860  0.44764  Biso   1.000  N
  N60      1.0000 0.72100  0.37440  0.36390  Biso   1.000  N
  N61      1.0000 0.02330  0.37601  0.51537  Biso   1.000  N
  N62      1.0000 0.98670  0.39592  0.43960  Biso   1.000  N
  N63      1.0000 0.99480  0.23682  0.45276  Biso   1.000  N
  N64      1.0000 0.06370  0.23040  0.58371  Biso   1.000  N
  O1       1.0000 0.39470  0.05825  0.27924  Biso   1.000  O
  O2       1.0000 0.48250  0.89053  0.31869  Biso   1.000  O
  O3       1.0000 0.41720  0.02290  0.14989  Biso   1.000  O
  O4       1.0000 0.50250  0.85484  0.19171  Biso   1.000  O
  O5       1.0000 0.60530  0.44175  0.77924  Biso   1.000  O
  O6       1.0000 0.51750  0.60947  0.81869  Biso   1.000  O
  O7       1.0000 0.58280  0.47710  0.64989  Biso   1.000  O
  O8       1.0000 0.49750  0.64516  0.69171  Biso   1.000  O
  O9       1.0000 0.89470  0.94175  0.22076  Biso   1.000  O
  O10      1.0000 0.98250  0.10947  0.18131  Biso   1.000  O
  O11      1.0000 0.91720  0.97710  0.35011  Biso   1.000  O
  O12      1.0000 0.00250  0.14516  0.30829  Biso   1.000  O
  O13      1.0000 0.10530  0.55825  0.72076  Biso   1.000  O
  O14      1.0000 0.01750  0.39053  0.68131  Biso   1.000  O
  O15      1.0000 0.08280  0.52290  0.85011  Biso   1.000  O
  O16      1.0000 0.99750  0.35484  0.80829  Biso   1.000  O
  O17      1.0000 0.60530  0.94175  0.72076  Biso   1.000  O
  O18      1.0000 0.51750  0.10947  0.68131  Biso   1.000  O
  O19      1.0000 0.58280  0.97710  0.85011  Biso   1.000  O
  O20      1.0000 0.49750  0.14516  0.80829  Biso   1.000  O
  O21      1.0000 0.39470  0.55825  0.22076  Biso   1.000  O
  O22      1.0000 0.48250  0.39053  0.18131  Biso   1.000  O
  O23      1.0000 0.41720  0.52290  0.35011  Biso   1.000  O
  O24      1.0000 0.50250  0.35484  0.30829  Biso   1.000  O
  O25      1.0000 0.10530  0.05825  0.77924  Biso   1.000  O
  O26      1.0000 0.01750  0.89053  0.81869  Biso   1.000  O
  O27      1.0000 0.08280  0.02290  0.64989  Biso   1.000  O
  O28      1.0000 0.99750  0.85484  0.69171  Biso   1.000  O
  O29      1.0000 0.89470  0.44175  0.27924  Biso   1.000  O
  O30      1.0000 0.98250  0.60947  0.31869  Biso   1.000  O
  O31      1.0000 0.91720  0.47710  0.14989  Biso   1.000  O
  O32      1.0000 0.00250  0.64516  0.19171  Biso   1.000  O
