data_image0
_cell_length_a       13.0094
_cell_length_b       13.8033
_cell_length_c       16.8281
_cell_angle_alpha    90
_cell_angle_beta     90
_cell_angle_gamma    90

_symmetry_space_group_name_H-M    P 1
_symmetry_int_tables_number       1

loop_
  _symmetry_equiv_pos_as_xyz
  'x, y, z'

loop_
  _atom_site_label
  _atom_site_occupancy
  _atom_site_fract_x
  _atom_site_fract_y
  _atom_site_fract_z
  _atom_site_thermal_displace_type
  _atom_site_B_iso_or_equiv
  _atom_site_type_symbol
  Zn1      1.0000 0.42561  0.97787  0.40449  Biso   1.000  Zn
  Zn2      1.0000 0.47683  0.90730  0.07598  Biso   1.000  Zn
  Zn3      1.0000 0.57439  0.52213  0.90449  Biso   1.000  Zn
  Zn4      1.0000 0.52317  0.59270  0.57598  Biso   1.000  Zn
  Zn5      1.0000 0.92561  0.02213  0.09551  Biso   1.000  Zn
  Zn6      1.0000 0.97683  0.09270  0.42402  Biso   1.000  Zn
  Zn7      1.0000 0.07439  0.47787  0.59551  Biso   1.000  Zn
  Zn8      1.0000 0.02317  0.40730  0.92402  Biso   1.000  Zn
  Zn9      1.0000 0.57439  0.02213  0.59551  Biso   1.000  Zn
  Zn10     1.0000 0.52317  0.09270  0.92402  Biso   1.000  Zn
  Zn11     1.0000 0.42561  0.47787  0.09551  Biso   1.000  Zn
  Zn12     1.0000 0.47683  0.40730  0.42402  Biso   1.000  Zn
  Zn13     1.0000 0.07439  0.97787  0.90449  Biso   1.000  Zn
  Zn14     1.0000 0.02317  0.90730  0.57598  Biso   1.000  Zn
  Zn15     1.0000 0.92561  0.52213  0.40449  Biso   1.000  Zn
  Zn16     1.0000 0.97683  0.59270  0.07598  Biso   1.000  Zn
  H1       1.0000 0.25100  0.86580  0.50220  Biso   1.000  H
  H2       1.0000 0.44630  0.19520  0.35480  Biso   1.000  H
  H3       1.0000 0.17250  0.16740  0.35590  Biso   1.000  H
  H4       1.0000 0.27910  0.13240  0.34140  Biso   1.000  H
  H5       1.0000 0.58620  0.23760  0.62440  Biso   1.000  H
  H6       1.0000 0.56470  0.33130  0.58370  Biso   1.000  H
  H7       1.0000 0.74900  0.63420  0.00220  Biso   1.000  H
  H8       1.0000 0.55370  0.30480  0.85480  Biso   1.000  H
  H9       1.0000 0.82750  0.33260  0.85590  Biso   1.000  H
  H10      1.0000 0.72090  0.36760  0.84140  Biso   1.000  H
  H11      1.0000 0.41380  0.26240  0.12440  Biso   1.000  H
  H12      1.0000 0.43530  0.16870  0.08370  Biso   1.000  H
  H13      1.0000 0.75100  0.13420  0.99780  Biso   1.000  H
  H14      1.0000 0.94630  0.80480  0.14520  Biso   1.000  H
  H15      1.0000 0.67250  0.83260  0.14410  Biso   1.000  H
  H16      1.0000 0.77910  0.86760  0.15860  Biso   1.000  H
  H17      1.0000 0.08620  0.76240  0.87560  Biso   1.000  H
  H18      1.0000 0.06470  0.66870  0.91630  Biso   1.000  H
  H19      1.0000 0.24900  0.36580  0.49780  Biso   1.000  H
  H20      1.0000 0.05370  0.69520  0.64520  Biso   1.000  H
  H21      1.0000 0.32750  0.66740  0.64410  Biso   1.000  H
  H22      1.0000 0.22090  0.63240  0.65860  Biso   1.000  H
  H23      1.0000 0.91380  0.73760  0.37560  Biso   1.000  H
  H24      1.0000 0.93530  0.83130  0.41630  Biso   1.000  H
  H25      1.0000 0.74900  0.13420  0.49780  Biso   1.000  H
  H26      1.0000 0.55370  0.80480  0.64520  Biso   1.000  H
  H27      1.0000 0.82750  0.83260  0.64410  Biso   1.000  H
  H28      1.0000 0.72090  0.86760  0.65860  Biso   1.000  H
  H29      1.0000 0.41380  0.76240  0.37560  Biso   1.000  H
  H30      1.0000 0.43530  0.66870  0.41630  Biso   1.000  H
  H31      1.0000 0.25100  0.36580  0.99780  Biso   1.000  H
  H32      1.0000 0.44630  0.69520  0.14520  Biso   1.000  H
  H33      1.0000 0.17250  0.66740  0.14410  Biso   1.000  H
  H34      1.0000 0.27910  0.63240  0.15860  Biso   1.000  H
  H35      1.0000 0.58620  0.73760  0.87560  Biso   1.000  H
  H36      1.0000 0.56470  0.83130  0.91630  Biso   1.000  H
  H37      1.0000 0.24900  0.86580  0.00220  Biso   1.000  H
  H38      1.0000 0.05370  0.19520  0.85480  Biso   1.000  H
  H39      1.0000 0.32750  0.16740  0.85590  Biso   1.000  H
  H40      1.0000 0.22090  0.13240  0.84140  Biso   1.000  H
  H41      1.0000 0.91380  0.23760  0.12440  Biso   1.000  H
  H42      1.0000 0.93530  0.33130  0.08370  Biso   1.000  H
  H43      1.0000 0.75100  0.63420  0.50220  Biso   1.000  H
  H44      1.0000 0.94630  0.30480  0.35480  Biso   1.000  H
  H45      1.0000 0.67250  0.33260  0.35590  Biso   1.000  H
  H46      1.0000 0.77910  0.36760  0.34140  Biso   1.000  H
  H47      1.0000 0.08620  0.26240  0.62440  Biso   1.000  H
  H48      1.0000 0.06470  0.16870  0.58370  Biso   1.000  H
  C1       1.0000 0.46840  0.91030  0.24570  Biso   1.000  C
  C2       1.0000 0.42240  0.00820  0.22229  Biso   1.000  C
  C3       1.0000 0.20220  0.04740  0.41150  Biso   1.000  C
  C4       1.0000 0.22180  0.92040  0.47909  Biso   1.000  C
  C5       1.0000 0.52710  0.22026  0.52009  Biso   1.000  C
  C6       1.0000 0.47110  0.18821  0.40631  Biso   1.000  C
  C7       1.0000 0.53160  0.58970  0.74570  Biso   1.000  C
  C8       1.0000 0.57760  0.49180  0.72229  Biso   1.000  C
  C9       1.0000 0.79780  0.45260  0.91150  Biso   1.000  C
  C10      1.0000 0.77820  0.57960  0.97909  Biso   1.000  C
  C11      1.0000 0.47290  0.27974  0.02009  Biso   1.000  C
  C12      1.0000 0.52890  0.31179  0.90631  Biso   1.000  C
  C13      1.0000 0.96840  0.08970  0.25430  Biso   1.000  C
  C14      1.0000 0.92240  0.99180  0.27771  Biso   1.000  C
  C15      1.0000 0.70220  0.95260  0.08850  Biso   1.000  C
  C16      1.0000 0.72180  0.07960  0.02091  Biso   1.000  C
  C17      1.0000 0.02710  0.77974  0.97991  Biso   1.000  C
  C18      1.0000 0.97110  0.81179  0.09369  Biso   1.000  C
  C19      1.0000 0.03160  0.41030  0.75430  Biso   1.000  C
  C20      1.0000 0.07760  0.50820  0.77771  Biso   1.000  C
  C21      1.0000 0.29780  0.54740  0.58850  Biso   1.000  C
  C22      1.0000 0.27820  0.42040  0.52091  Biso   1.000  C
  C23      1.0000 0.97290  0.72026  0.47991  Biso   1.000  C
  C24      1.0000 0.02890  0.68821  0.59369  Biso   1.000  C
  C25      1.0000 0.53160  0.08970  0.75430  Biso   1.000  C
  C26      1.0000 0.57760  0.99180  0.77771  Biso   1.000  C
  C27      1.0000 0.79780  0.95260  0.58850  Biso   1.000  C
  C28      1.0000 0.77820  0.07960  0.52091  Biso   1.000  C
  C29      1.0000 0.47290  0.77974  0.47991  Biso   1.000  C
  C30      1.0000 0.52890  0.81179  0.59369  Biso   1.000  C
  C31      1.0000 0.46840  0.41030  0.25430  Biso   1.000  C
  C32      1.0000 0.42240  0.50820  0.27771  Biso   1.000  C
  C33      1.0000 0.20220  0.54740  0.08850  Biso   1.000  C
  C34      1.0000 0.22180  0.42040  0.02091  Biso   1.000  C
  C35      1.0000 0.52710  0.72026  0.97991  Biso   1.000  C
  C36      1.0000 0.47110  0.68821  0.09369  Biso   1.000  C
  C37      1.0000 0.03160  0.91030  0.74570  Biso   1.000  C
  C38      1.0000 0.07760  0.00820  0.72229  Biso   1.000  C
  C39      1.0000 0.29780  0.04740  0.91150  Biso   1.000  C
  C40      1.0000 0.27820  0.92040  0.97909  Biso   1.000  C
  C41      1.0000 0.97290  0.22026  0.02009  Biso   1.000  C
  C42      1.0000 0.02890  0.18821  0.90631  Biso   1.000  C
  C43      1.0000 0.96840  0.58970  0.24570  Biso   1.000  C
  C44      1.0000 0.92240  0.49180  0.22229  Biso   1.000  C
  C45      1.0000 0.70220  0.45260  0.41150  Biso   1.000  C
  C46      1.0000 0.72180  0.57960  0.47909  Biso   1.000  C
  C47      1.0000 0.02710  0.27974  0.52009  Biso   1.000  C
  C48      1.0000 0.97110  0.31179  0.40631  Biso   1.000  C
  N1       1.0000 0.27289  0.97924  0.42902  Biso   1.000  N
  N2       1.0000 0.12737  0.94755  0.49200  Biso   1.000  N
  N3       1.0000 0.11361  0.03145  0.44798  Biso   1.000  N
  N4       1.0000 0.22010  0.12530  0.36370  Biso   1.000  N
  N5       1.0000 0.52300  0.12401  0.51552  Biso   1.000  N
  N6       1.0000 0.48595  0.10416  0.44006  Biso   1.000  N
  N7       1.0000 0.49511  0.26319  0.45302  Biso   1.000  N
  N8       1.0000 0.56380  0.26900  0.58381  Biso   1.000  N
  N9       1.0000 0.72711  0.52076  0.92902  Biso   1.000  N
  N10      1.0000 0.87263  0.55245  0.99200  Biso   1.000  N
  N11      1.0000 0.88639  0.46855  0.94798  Biso   1.000  N
  N12      1.0000 0.77990  0.37470  0.86370  Biso   1.000  N
  N13      1.0000 0.47700  0.37599  0.01552  Biso   1.000  N
  N14      1.0000 0.51405  0.39584  0.94006  Biso   1.000  N
  N15      1.0000 0.50489  0.23681  0.95302  Biso   1.000  N
  N16      1.0000 0.43620  0.23100  0.08381  Biso   1.000  N
  N17      1.0000 0.77289  0.02076  0.07098  Biso   1.000  N
  N18      1.0000 0.62737  0.05245  0.00800  Biso   1.000  N
  N19      1.0000 0.61361  0.96855  0.05202  Biso   1.000  N
  N20      1.0000 0.72010  0.87470  0.13630  Biso   1.000  N
  N21      1.0000 0.02300  0.87599  0.98448  Biso   1.000  N
  N22      1.0000 0.98595  0.89584  0.05994  Biso   1.000  N
  N23      1.0000 0.99511  0.73681  0.04698  Biso   1.000  N
  N24      1.0000 0.06380  0.73100  0.91619  Biso   1.000  N
  N25      1.0000 0.22711  0.47924  0.57098  Biso   1.000  N
  N26      1.0000 0.37263  0.44755  0.50800  Biso   1.000  N
  N27      1.0000 0.38639  0.53145  0.55202  Biso   1.000  N
  N28      1.0000 0.27990  0.62530  0.63630  Biso   1.000  N
  N29      1.0000 0.97700  0.62401  0.48448  Biso   1.000  N
  N30      1.0000 0.01405  0.60416  0.55994  Biso   1.000  N
  N31      1.0000 0.00489  0.76319  0.54698  Biso   1.000  N
  N32      1.0000 0.93620  0.76900  0.41619  Biso   1.000  N
  N33      1.0000 0.72711  0.02076  0.57098  Biso   1.000  N
  N34      1.0000 0.87263  0.05245  0.50800  Biso   1.000  N
  N35      1.0000 0.88639  0.96855  0.55202  Biso   1.000  N
  N36      1.0000 0.77990  0.87470  0.63630  Biso   1.000  N
  N37      1.0000 0.47700  0.87599  0.48448  Biso   1.000  N
  N38      1.0000 0.51405  0.89584  0.55994  Biso   1.000  N
  N39      1.0000 0.50489  0.73681  0.54698  Biso   1.000  N
  N40      1.0000 0.43620  0.73100  0.41619  Biso   1.000  N
  N41      1.0000 0.27289  0.47924  0.07098  Biso   1.000  N
  N42      1.0000 0.12737  0.44755  0.00800  Biso   1.000  N
  N43      1.0000 0.11361  0.53145  0.05202  Biso   1.000  N
  N44      1.0000 0.22010  0.62530  0.13630  Biso   1.000  N
  N45      1.0000 0.52300  0.62401  0.98448  Biso   1.000  N
  N46      1.0000 0.48595  0.60416  0.05994  Biso   1.000  N
  N47      1.0000 0.49511  0.76319  0.04698  Biso   1.000  N
  N48      1.0000 0.56380  0.76900  0.91619  Biso   1.000  N
  N49      1.0000 0.22711  0.97924  0.92902  Biso   1.000  N
  N50      1.0000 0.37263  0.94755  0.99200  Biso   1.000  N
  N51      1.0000 0.38639  0.03145  0.94798  Biso   1.000  N
  N52      1.0000 0.27990  0.12530  0.86370  Biso   1.000  N
  N53      1.0000 0.97700  0.12401  0.01552  Biso   1.000  N
  N54      1.0000 0.01405  0.10416  0.94006  Biso   1.000  N
  N55      1.0000 0.00489  0.26319  0.95302  Biso   1.000  N
  N56      1.0000 0.93620  0.26900  0.08381  Biso   1.000  N
  N57      1.0000 0.77289  0.52076  0.42902  Biso   1.000  N
  N58      1.0000 0.62737  0.55245  0.49200  Biso   1.000  N
  N59      1.0000 0.61361  0.46855  0.44798  Biso   1.000  N
  N60      1.0000 0.72010  0.37470  0.36370  Biso   1.000  N
  N61      1.0000 0.02300  0.37599  0.51552  Biso   1.000  N
  N62      1.0000 0.98595  0.39584  0.44006  Biso   1.000  N
  N63      1.0000 0.99511  0.23681  0.45302  Biso   1.000  N
  N64      1.0000 0.06380  0.23100  0.58381  Biso   1.000  N
  O1       1.0000 0.47620  0.89111  0.31791  Biso   1.000  O
  O2       1.0000 0.39460  0.06039  0.27832  Biso   1.000  O
  O3       1.0000 0.49770  0.85581  0.19134  Biso   1.000  O
  O4       1.0000 0.41820  0.02452  0.14953  Biso   1.000  O
  O5       1.0000 0.52380  0.60889  0.81791  Biso   1.000  O
  O6       1.0000 0.60540  0.43961  0.77832  Biso   1.000  O
  O7       1.0000 0.50230  0.64419  0.69134  Biso   1.000  O
  O8       1.0000 0.58180  0.47548  0.64953  Biso   1.000  O
  O9       1.0000 0.97620  0.10889  0.18209  Biso   1.000  O
  O10      1.0000 0.89460  0.93961  0.22168  Biso   1.000  O
  O11      1.0000 0.99770  0.14419  0.30866  Biso   1.000  O
  O12      1.0000 0.91820  0.97548  0.35047  Biso   1.000  O
  O13      1.0000 0.02380  0.39111  0.68209  Biso   1.000  O
  O14      1.0000 0.10540  0.56039  0.72168  Biso   1.000  O
  O15      1.0000 0.00230  0.35581  0.80866  Biso   1.000  O
  O16      1.0000 0.08180  0.52452  0.85047  Biso   1.000  O
  O17      1.0000 0.52380  0.10889  0.68209  Biso   1.000  O
  O18      1.0000 0.60540  0.93961  0.72168  Biso   1.000  O
  O19      1.0000 0.50230  0.14419  0.80866  Biso   1.000  O
  O20      1.0000 0.58180  0.97548  0.85047  Biso   1.000  O
  O21      1.0000 0.47620  0.39111  0.18209  Biso   1.000  O
  O22      1.0000 0.39460  0.56039  0.22168  Biso   1.000  O
  O23      1.0000 0.49770  0.35581  0.30866  Biso   1.000  O
  O24      1.0000 0.41820  0.52452  0.35047  Biso   1.000  O
  O25      1.0000 0.02380  0.89111  0.81791  Biso   1.000  O
  O26      1.0000 0.10540  0.06039  0.77832  Biso   1.000  O
  O27      1.0000 0.00230  0.85581  0.69134  Biso   1.000  O
  O28      1.0000 0.08180  0.02452  0.64953  Biso   1.000  O
  O29      1.0000 0.97620  0.60889  0.31791  Biso   1.000  O
  O30      1.0000 0.89460  0.43961  0.27832  Biso   1.000  O
  O31      1.0000 0.99770  0.64419  0.19134  Biso   1.000  O
  O32      1.0000 0.91820  0.47548  0.14953  Biso   1.000  O
