data_image0
_cell_length_a       11.9245
_cell_length_b       11.9245
_cell_length_c       16.302
_cell_angle_alpha    90
_cell_angle_beta     90
_cell_angle_gamma    120

_symmetry_space_group_name_H-M    P 1
_symmetry_int_tables_number       1

loop_
  _symmetry_equiv_pos_as_xyz
  'x, y, z'

loop_
  _atom_site_label
  _atom_site_occupancy
  _atom_site_fract_x
  _atom_site_fract_y
  _atom_site_fract_z
  _atom_site_thermal_displace_type
  _atom_site_B_iso_or_equiv
  _atom_site_type_symbol
  Ni1      1.0000 0.45662  0.50488  0.85893  Biso   1.000  Ni
  Ni2      1.0000 0.04826  0.54338  0.52560  Biso   1.000  Ni
  Ni3      1.0000 0.49512  0.95174  0.19226  Biso   1.000  Ni
  Ni4      1.0000 0.95174  0.49512  0.14107  Biso   1.000  Ni
  Ni5      1.0000 0.50488  0.45662  0.47440  Biso   1.000  Ni
  Ni6      1.0000 0.54338  0.04826  0.80774  Biso   1.000  Ni
  Ni7      1.0000 0.37325  0.00000  0.00000  Biso   1.000  Ni
  Ni8      1.0000 0.62675  0.62675  0.66667  Biso   1.000  Ni
  Ni9      1.0000 0.00000  0.37325  0.33333  Biso   1.000  Ni
  H1       1.0000 0.30390  0.45620  0.99550  Biso   1.000  H
  H2       1.0000 0.42680  0.53130  0.97410  Biso   1.000  H
  H3       1.0000 0.30080  0.48880  0.75300  Biso   1.000  H
  H4       1.0000 0.60010  0.59500  0.96860  Biso   1.000  H
  H5       1.0000 0.24680  0.36230  0.76820  Biso   1.000  H
  H6       1.0000 0.68970  0.64980  0.91240  Biso   1.000  H
  H7       1.0000 0.15230  0.69610  0.66217  Biso   1.000  H
  H8       1.0000 0.10450  0.57320  0.64077  Biso   1.000  H
  H9       1.0000 0.18800  0.69920  0.41967  Biso   1.000  H
  H10      1.0000 0.99490  0.39990  0.63527  Biso   1.000  H
  H11      1.0000 0.11550  0.75320  0.43487  Biso   1.000  H
  H12      1.0000 0.96010  0.31030  0.57907  Biso   1.000  H
  H13      1.0000 0.54380  0.84770  0.32883  Biso   1.000  H
  H14      1.0000 0.46870  0.89550  0.30743  Biso   1.000  H
  H15      1.0000 0.51120  0.81200  0.08633  Biso   1.000  H
  H16      1.0000 0.40500  0.00510  0.30193  Biso   1.000  H
  H17      1.0000 0.63770  0.88450  0.10153  Biso   1.000  H
  H18      1.0000 0.35020  0.03990  0.24573  Biso   1.000  H
  H19      1.0000 0.84770  0.54380  0.00450  Biso   1.000  H
  H20      1.0000 0.89550  0.46870  0.02590  Biso   1.000  H
  H21      1.0000 0.81200  0.51120  0.24700  Biso   1.000  H
  H22      1.0000 0.00510  0.40500  0.03140  Biso   1.000  H
  H23      1.0000 0.88450  0.63770  0.23180  Biso   1.000  H
  H24      1.0000 0.03990  0.35020  0.08760  Biso   1.000  H
  H25      1.0000 0.45620  0.30390  0.33783  Biso   1.000  H
  H26      1.0000 0.53130  0.42680  0.35923  Biso   1.000  H
  H27      1.0000 0.48880  0.30080  0.58033  Biso   1.000  H
  H28      1.0000 0.59500  0.60010  0.36473  Biso   1.000  H
  H29      1.0000 0.36230  0.24680  0.56513  Biso   1.000  H
  H30      1.0000 0.64980  0.68970  0.42093  Biso   1.000  H
  H31      1.0000 0.69610  0.15230  0.67117  Biso   1.000  H
  H32      1.0000 0.57320  0.10450  0.69257  Biso   1.000  H
  H33      1.0000 0.69920  0.18800  0.91367  Biso   1.000  H
  H34      1.0000 0.39990  0.99490  0.69807  Biso   1.000  H
  H35      1.0000 0.75320  0.11550  0.89847  Biso   1.000  H
  H36      1.0000 0.31030  0.96010  0.75427  Biso   1.000  H
  C1       1.0000 0.48610  0.28640  0.82500  Biso   1.000  C
  C2       1.0000 0.39350  0.23230  0.93900  Biso   1.000  C
  C3       1.0000 0.53840  0.36490  0.74810  Biso   1.000  C
  C4       1.0000 0.31990  0.21070  0.01720  Biso   1.000  C
  C5       1.0000 0.80030  0.51390  0.49167  Biso   1.000  C
  C6       1.0000 0.83880  0.60650  0.60567  Biso   1.000  C
  C7       1.0000 0.82650  0.46160  0.41477  Biso   1.000  C
  C8       1.0000 0.89080  0.68010  0.68387  Biso   1.000  C
  C9       1.0000 0.71360  0.19970  0.15833  Biso   1.000  C
  C10      1.0000 0.76770  0.16120  0.27233  Biso   1.000  C
  C11      1.0000 0.63510  0.17350  0.08143  Biso   1.000  C
  C12      1.0000 0.78930  0.10920  0.35053  Biso   1.000  C
  C13      1.0000 0.19970  0.71360  0.17500  Biso   1.000  C
  C14      1.0000 0.16120  0.76770  0.06100  Biso   1.000  C
  C15      1.0000 0.17350  0.63510  0.25190  Biso   1.000  C
  C16      1.0000 0.10920  0.78930  0.98280  Biso   1.000  C
  C17      1.0000 0.28640  0.48610  0.50833  Biso   1.000  C
  C18      1.0000 0.23230  0.39350  0.39433  Biso   1.000  C
  C19      1.0000 0.36490  0.53840  0.58523  Biso   1.000  C
  C20      1.0000 0.21070  0.31990  0.31613  Biso   1.000  C
  C21      1.0000 0.51390  0.80030  0.84167  Biso   1.000  C
  C22      1.0000 0.60650  0.83880  0.72767  Biso   1.000  C
  C23      1.0000 0.46160  0.82650  0.91857  Biso   1.000  C
  C24      1.0000 0.68010  0.89080  0.64947  Biso   1.000  C
  N1       1.0000 0.42550  0.14500  0.92014  Biso   1.000  N
  N2       1.0000 0.42770  0.32290  0.88170  Biso   1.000  N
  N3       1.0000 0.48730  0.17820  0.84630  Biso   1.000  N
  N4       1.0000 0.71950  0.57450  0.58681  Biso   1.000  N
  N5       1.0000 0.89520  0.57230  0.54837  Biso   1.000  N
  N6       1.0000 0.69090  0.51270  0.51297  Biso   1.000  N
  N7       1.0000 0.85500  0.28050  0.25347  Biso   1.000  N
  N8       1.0000 0.67710  0.10480  0.21503  Biso   1.000  N
  N9       1.0000 0.82180  0.30910  0.17963  Biso   1.000  N
  N10      1.0000 0.28050  0.85500  0.07986  Biso   1.000  N
  N11      1.0000 0.10480  0.67710  0.11830  Biso   1.000  N
  N12      1.0000 0.30910  0.82180  0.15370  Biso   1.000  N
  N13      1.0000 0.14500  0.42550  0.41319  Biso   1.000  N
  N14      1.0000 0.32290  0.42770  0.45163  Biso   1.000  N
  N15      1.0000 0.17820  0.48730  0.48703  Biso   1.000  N
  N16      1.0000 0.57450  0.71950  0.74653  Biso   1.000  N
  N17      1.0000 0.57230  0.89520  0.78497  Biso   1.000  N
  N18      1.0000 0.51270  0.69090  0.82037  Biso   1.000  N
  O1       1.0000 0.54320  0.47510  0.75137  Biso   1.000  O
  O2       1.0000 0.30160  0.11100  0.05657  Biso   1.000  O
  O3       1.0000 0.56970  0.32290  0.68900  Biso   1.000  O
  O4       1.0000 0.28720  0.43550  0.79150  Biso   1.000  O
  O5       1.0000 0.62700  0.57570  0.92540  Biso   1.000  O
  O6       1.0000 0.35040  0.50330  0.95610  Biso   1.000  O
  O7       1.0000 0.28080  0.28530  0.03880  Biso   1.000  O
  O8       1.0000 0.93190  0.45680  0.41804  Biso   1.000  O
  O9       1.0000 0.80940  0.69840  0.72324  Biso   1.000  O
  O10      1.0000 0.75320  0.43030  0.35567  Biso   1.000  O
  O11      1.0000 0.14830  0.71280  0.45817  Biso   1.000  O
  O12      1.0000 0.94870  0.37300  0.59207  Biso   1.000  O
  O13      1.0000 0.15290  0.64960  0.62277  Biso   1.000  O
  O14      1.0000 0.00450  0.71920  0.70547  Biso   1.000  O
  O15      1.0000 0.52490  0.06810  0.08470  Biso   1.000  O
  O16      1.0000 0.88900  0.19060  0.38990  Biso   1.000  O
  O17      1.0000 0.67710  0.24680  0.02233  Biso   1.000  O
  O18      1.0000 0.56450  0.85170  0.12483  Biso   1.000  O
  O19      1.0000 0.42430  0.05130  0.25873  Biso   1.000  O
  O20      1.0000 0.49670  0.84710  0.28943  Biso   1.000  O
  O21      1.0000 0.71470  0.99550  0.37213  Biso   1.000  O
  O22      1.0000 0.06810  0.52490  0.24863  Biso   1.000  O
  O23      1.0000 0.19060  0.88900  0.94343  Biso   1.000  O
  O24      1.0000 0.24680  0.67710  0.31100  Biso   1.000  O
  O25      1.0000 0.85170  0.56450  0.20850  Biso   1.000  O
  O26      1.0000 0.05130  0.42430  0.07460  Biso   1.000  O
  O27      1.0000 0.84710  0.49670  0.04390  Biso   1.000  O
  O28      1.0000 0.99550  0.71470  0.96120  Biso   1.000  O
  O29      1.0000 0.47510  0.54320  0.58196  Biso   1.000  O
  O30      1.0000 0.11100  0.30160  0.27676  Biso   1.000  O
  O31      1.0000 0.32290  0.56970  0.64433  Biso   1.000  O
  O32      1.0000 0.43550  0.28720  0.54183  Biso   1.000  O
  O33      1.0000 0.57570  0.62700  0.40793  Biso   1.000  O
  O34      1.0000 0.50330  0.35040  0.37723  Biso   1.000  O
  O35      1.0000 0.28530  0.28080  0.29453  Biso   1.000  O
  O36      1.0000 0.45680  0.93190  0.91530  Biso   1.000  O
  O37      1.0000 0.69840  0.80940  0.61010  Biso   1.000  O
  O38      1.0000 0.43030  0.75320  0.97767  Biso   1.000  O
  O39      1.0000 0.71280  0.14830  0.87517  Biso   1.000  O
  O40      1.0000 0.37300  0.94870  0.74127  Biso   1.000  O
  O41      1.0000 0.64960  0.15290  0.71057  Biso   1.000  O
  O42      1.0000 0.71920  0.00450  0.62787  Biso   1.000  O
