data_image0
_cell_length_a       12.1655
_cell_length_b       20.5144
_cell_length_c       21.7012
_cell_angle_alpha    90
_cell_angle_beta     90
_cell_angle_gamma    90

_symmetry_space_group_name_H-M    P 1
_symmetry_int_tables_number       1

loop_
  _symmetry_equiv_pos_as_xyz
  'x, y, z'

loop_
  _atom_site_label
  _atom_site_occupancy
  _atom_site_fract_x
  _atom_site_fract_y
  _atom_site_fract_z
  _atom_site_thermal_displace_type
  _atom_site_B_iso_or_equiv
  _atom_site_type_symbol
  La1      1.0000 0.42587  0.80983  0.46772  Biso   1.000  La
  La2      1.0000 0.99751  0.00601  0.32349  Biso   1.000  La
  La3      1.0000 0.42587  0.19017  0.53228  Biso   1.000  La
  La4      1.0000 0.99751  0.99399  0.67651  Biso   1.000  La
  La5      1.0000 0.57413  0.69017  0.96772  Biso   1.000  La
  La6      1.0000 0.00249  0.49399  0.82349  Biso   1.000  La
  La7      1.0000 0.57413  0.30983  0.03228  Biso   1.000  La
  La8      1.0000 0.00249  0.50601  0.17651  Biso   1.000  La
  Mo1      1.0000 0.49358  0.00495  0.44074  Biso   1.000  Mo
  Mo2      1.0000 0.28382  0.10108  0.36865  Biso   1.000  Mo
  Mo3      1.0000 0.30406  0.93539  0.34207  Biso   1.000  Mo
  Mo4      1.0000 0.12194  0.85085  0.40554  Biso   1.000  Mo
  Mo5      1.0000 0.93223  0.06261  0.50902  Biso   1.000  Mo
  Mo6      1.0000 0.13843  0.15879  0.43563  Biso   1.000  Mo
  Mo7      1.0000 0.49358  0.99505  0.55926  Biso   1.000  Mo
  Mo8      1.0000 0.28382  0.89892  0.63135  Biso   1.000  Mo
  Mo9      1.0000 0.30406  0.06461  0.65793  Biso   1.000  Mo
  Mo10     1.0000 0.12194  0.14915  0.59446  Biso   1.000  Mo
  Mo11     1.0000 0.93223  0.93739  0.49098  Biso   1.000  Mo
  Mo12     1.0000 0.13843  0.84121  0.56437  Biso   1.000  Mo
  Mo13     1.0000 0.50642  0.49505  0.94074  Biso   1.000  Mo
  Mo14     1.0000 0.71618  0.39892  0.86865  Biso   1.000  Mo
  Mo15     1.0000 0.69594  0.56461  0.84207  Biso   1.000  Mo
  Mo16     1.0000 0.87806  0.64915  0.90554  Biso   1.000  Mo
  Mo17     1.0000 0.06777  0.43739  0.00902  Biso   1.000  Mo
  Mo18     1.0000 0.86157  0.34121  0.93563  Biso   1.000  Mo
  Mo19     1.0000 0.50642  0.50495  0.05926  Biso   1.000  Mo
  Mo20     1.0000 0.71618  0.60108  0.13135  Biso   1.000  Mo
  Mo21     1.0000 0.69594  0.43539  0.15793  Biso   1.000  Mo
  Mo22     1.0000 0.87806  0.35085  0.09446  Biso   1.000  Mo
  Mo23     1.0000 0.06777  0.56261  0.99098  Biso   1.000  Mo
  Mo24     1.0000 0.86157  0.65879  0.06437  Biso   1.000  Mo
  P1       1.0000 0.21050  0.00000  0.50000  Biso   1.000  P
  P2       1.0000 0.78950  0.50000  0.00000  Biso   1.000  P
  H1       1.0000 0.76070  0.16690  0.19310  Biso   1.000  H
  H2       1.0000 0.50750  0.26970  0.26350  Biso   1.000  H
  H3       1.0000 0.69330  0.15890  0.37440  Biso   1.000  H
  H4       1.0000 0.76070  0.83310  0.80690  Biso   1.000  H
  H5       1.0000 0.50750  0.73030  0.73650  Biso   1.000  H
  H6       1.0000 0.69330  0.84110  0.62560  Biso   1.000  H
  H7       1.0000 0.23930  0.33310  0.69310  Biso   1.000  H
  H8       1.0000 0.49250  0.23030  0.76350  Biso   1.000  H
  H9       1.0000 0.30670  0.34110  0.87440  Biso   1.000  H
  H10      1.0000 0.23930  0.66690  0.30690  Biso   1.000  H
  H11      1.0000 0.49250  0.76970  0.23650  Biso   1.000  H
  H12      1.0000 0.30670  0.65890  0.12560  Biso   1.000  H
  C1       1.0000 0.74310  0.15610  0.28530  Biso   1.000  C
  C2       1.0000 0.71880  0.18020  0.22670  Biso   1.000  C
  C3       1.0000 0.63280  0.22400  0.21790  Biso   1.000  C
  C4       1.0000 0.56710  0.24190  0.26880  Biso   1.000  C
  C5       1.0000 0.59230  0.21770  0.32650  Biso   1.000  C
  C6       1.0000 0.67830  0.17500  0.33520  Biso   1.000  C
  C7       1.0000 0.83790  0.11180  0.29490  Biso   1.000  C
  C8       1.0000 0.60500  0.24930  0.15510  Biso   1.000  C
  C9       1.0000 0.51810  0.23530  0.38190  Biso   1.000  C
  C10      1.0000 0.74310  0.84390  0.71470  Biso   1.000  C
  C11      1.0000 0.71880  0.81980  0.77330  Biso   1.000  C
  C12      1.0000 0.63280  0.77600  0.78210  Biso   1.000  C
  C13      1.0000 0.56710  0.75810  0.73120  Biso   1.000  C
  C14      1.0000 0.59230  0.78230  0.67350  Biso   1.000  C
  C15      1.0000 0.67830  0.82500  0.66480  Biso   1.000  C
  C16      1.0000 0.83790  0.88820  0.70510  Biso   1.000  C
  C17      1.0000 0.60500  0.75070  0.84490  Biso   1.000  C
  C18      1.0000 0.51810  0.76470  0.61810  Biso   1.000  C
  C19      1.0000 0.25690  0.34390  0.78530  Biso   1.000  C
  C20      1.0000 0.28120  0.31980  0.72670  Biso   1.000  C
  C21      1.0000 0.36720  0.27600  0.71790  Biso   1.000  C
  C22      1.0000 0.43290  0.25810  0.76880  Biso   1.000  C
  C23      1.0000 0.40770  0.28230  0.82650  Biso   1.000  C
  C24      1.0000 0.32170  0.32500  0.83520  Biso   1.000  C
  C25      1.0000 0.16210  0.38820  0.79490  Biso   1.000  C
  C26      1.0000 0.39500  0.25070  0.65510  Biso   1.000  C
  C27      1.0000 0.48190  0.26470  0.88190  Biso   1.000  C
  C28      1.0000 0.25690  0.65610  0.21470  Biso   1.000  C
  C29      1.0000 0.28120  0.68020  0.27330  Biso   1.000  C
  C30      1.0000 0.36720  0.72400  0.28210  Biso   1.000  C
  C31      1.0000 0.43290  0.74190  0.23120  Biso   1.000  C
  C32      1.0000 0.40770  0.71770  0.17350  Biso   1.000  C
  C33      1.0000 0.32170  0.67500  0.16480  Biso   1.000  C
  C34      1.0000 0.16210  0.61180  0.20510  Biso   1.000  C
  C35      1.0000 0.39500  0.74930  0.34490  Biso   1.000  C
  C36      1.0000 0.48190  0.73530  0.11810  Biso   1.000  C
  O1       1.0000 0.62880  0.00690  0.42580  Biso   1.000  O
  O2       1.0000 0.46880  0.92930  0.49470  Biso   1.000  O
  O3       1.0000 0.44310  0.94490  0.37220  Biso   1.000  O
  O4       1.0000 0.44970  0.07930  0.38040  Biso   1.000  O
  O5       1.0000 0.28420  0.00790  0.44190  Biso   1.000  O
  O6       1.0000 0.30300  0.15790  0.31340  Biso   1.000  O
  O7       1.0000 0.29610  0.85280  0.55310  Biso   1.000  O
  O8       1.0000 0.12470  0.08840  0.37410  Biso   1.000  O
  O9       1.0000 0.28220  0.01930  0.31630  Biso   1.000  O
  O10      1.0000 0.32250  0.89350  0.27630  Biso   1.000  O
  O11      1.0000 0.14260  0.92990  0.35300  Biso   1.000  O
  O12      1.0000 0.28180  0.86660  0.40520  Biso   1.000  O
  O13      1.0000 0.10250  0.79220  0.35250  Biso   1.000  O
  O14      1.0000 0.13810  0.80580  0.47760  Biso   1.000  O
  O15      1.0000 0.98070  0.88070  0.41960  Biso   1.000  O
  O16      1.0000 0.13540  0.06080  0.50590  Biso   1.000  O
  O17      1.0000 0.79670  0.07780  0.51040  Biso   1.000  O
  O18      1.0000 0.95680  0.01060  0.43510  Biso   1.000  O
  O19      1.0000 0.97410  0.14100  0.45440  Biso   1.000  O
  O20      1.0000 0.12370  0.22850  0.39610  Biso   1.000  O
  O21      1.0000 0.87830  0.10550  0.34750  Biso   1.000  O
  O22      1.0000 0.86980  0.07380  0.25000  Biso   1.000  O
  O23      1.0000 0.66170  0.22870  0.10950  Biso   1.000  O
  O24      1.0000 0.52800  0.28970  0.14810  Biso   1.000  O
  O25      1.0000 0.51760  0.19510  0.42640  Biso   1.000  O
  O26      1.0000 0.46430  0.28740  0.37650  Biso   1.000  O
  O27      1.0000 0.62680  0.84100  0.44460  Biso   1.000  O
  O28      1.0000 0.55490  0.70900  0.46300  Biso   1.000  O
  O29      1.0000 0.33500  0.71300  0.52370  Biso   1.000  O
  O30      1.0000 0.79820  0.96470  0.34160  Biso   1.000  O
  O31      1.0000 0.10480  0.04500  0.23240  Biso   1.000  O
  O32      1.0000 0.95820  0.91110  0.25240  Biso   1.000  O
  O33      1.0000 0.62880  0.99310  0.57420  Biso   1.000  O
  O34      1.0000 0.46880  0.07070  0.50530  Biso   1.000  O
  O35      1.0000 0.44310  0.05510  0.62780  Biso   1.000  O
  O36      1.0000 0.44970  0.92070  0.61960  Biso   1.000  O
  O37      1.0000 0.28420  0.99210  0.55810  Biso   1.000  O
  O38      1.0000 0.30300  0.84210  0.68660  Biso   1.000  O
  O39      1.0000 0.29610  0.14720  0.44690  Biso   1.000  O
  O40      1.0000 0.12470  0.91160  0.62590  Biso   1.000  O
  O41      1.0000 0.28220  0.98070  0.68370  Biso   1.000  O
  O42      1.0000 0.32250  0.10650  0.72370  Biso   1.000  O
  O43      1.0000 0.14260  0.07010  0.64700  Biso   1.000  O
  O44      1.0000 0.28180  0.13340  0.59480  Biso   1.000  O
  O45      1.0000 0.10250  0.20780  0.64750  Biso   1.000  O
  O46      1.0000 0.13810  0.19420  0.52240  Biso   1.000  O
  O47      1.0000 0.98070  0.11930  0.58040  Biso   1.000  O
  O48      1.0000 0.13540  0.93920  0.49410  Biso   1.000  O
  O49      1.0000 0.79670  0.92220  0.48960  Biso   1.000  O
  O50      1.0000 0.95680  0.98940  0.56490  Biso   1.000  O
  O51      1.0000 0.97410  0.85900  0.54560  Biso   1.000  O
  O52      1.0000 0.12370  0.77150  0.60390  Biso   1.000  O
  O53      1.0000 0.87830  0.89450  0.65250  Biso   1.000  O
  O54      1.0000 0.86980  0.92620  0.75000  Biso   1.000  O
  O55      1.0000 0.66170  0.77130  0.89050  Biso   1.000  O
  O56      1.0000 0.52800  0.71030  0.85190  Biso   1.000  O
  O57      1.0000 0.51760  0.80490  0.57360  Biso   1.000  O
  O58      1.0000 0.46430  0.71260  0.62350  Biso   1.000  O
  O59      1.0000 0.62680  0.15900  0.55540  Biso   1.000  O
  O60      1.0000 0.55490  0.29100  0.53700  Biso   1.000  O
  O61      1.0000 0.33500  0.28700  0.47630  Biso   1.000  O
  O62      1.0000 0.79820  0.03530  0.65840  Biso   1.000  O
  O63      1.0000 0.10480  0.95500  0.76760  Biso   1.000  O
  O64      1.0000 0.95820  0.08890  0.74760  Biso   1.000  O
  O65      1.0000 0.37120  0.49310  0.92580  Biso   1.000  O
  O66      1.0000 0.53120  0.57070  0.99470  Biso   1.000  O
  O67      1.0000 0.55690  0.55510  0.87220  Biso   1.000  O
  O68      1.0000 0.55030  0.42070  0.88040  Biso   1.000  O
  O69      1.0000 0.71580  0.49210  0.94190  Biso   1.000  O
  O70      1.0000 0.69700  0.34210  0.81340  Biso   1.000  O
  O71      1.0000 0.70390  0.64720  0.05310  Biso   1.000  O
  O72      1.0000 0.87530  0.41160  0.87410  Biso   1.000  O
  O73      1.0000 0.71780  0.48070  0.81630  Biso   1.000  O
  O74      1.0000 0.67750  0.60650  0.77630  Biso   1.000  O
  O75      1.0000 0.85740  0.57010  0.85300  Biso   1.000  O
  O76      1.0000 0.71820  0.63340  0.90520  Biso   1.000  O
  O77      1.0000 0.89750  0.70780  0.85250  Biso   1.000  O
  O78      1.0000 0.86190  0.69420  0.97760  Biso   1.000  O
  O79      1.0000 0.01930  0.61930  0.91960  Biso   1.000  O
  O80      1.0000 0.86460  0.43920  0.00590  Biso   1.000  O
  O81      1.0000 0.20330  0.42220  0.01040  Biso   1.000  O
  O82      1.0000 0.04320  0.48940  0.93510  Biso   1.000  O
  O83      1.0000 0.02590  0.35900  0.95440  Biso   1.000  O
  O84      1.0000 0.87630  0.27150  0.89610  Biso   1.000  O
  O85      1.0000 0.12170  0.39450  0.84750  Biso   1.000  O
  O86      1.0000 0.13020  0.42620  0.75000  Biso   1.000  O
  O87      1.0000 0.33830  0.27130  0.60950  Biso   1.000  O
  O88      1.0000 0.47200  0.21030  0.64810  Biso   1.000  O
  O89      1.0000 0.48240  0.30490  0.92640  Biso   1.000  O
  O90      1.0000 0.53570  0.21260  0.87650  Biso   1.000  O
  O91      1.0000 0.37320  0.65900  0.94460  Biso   1.000  O
  O92      1.0000 0.44510  0.79100  0.96300  Biso   1.000  O
  O93      1.0000 0.66500  0.78700  0.02370  Biso   1.000  O
  O94      1.0000 0.20180  0.53530  0.84160  Biso   1.000  O
  O95      1.0000 0.89520  0.45500  0.73240  Biso   1.000  O
  O96      1.0000 0.04180  0.58890  0.75240  Biso   1.000  O
  O97      1.0000 0.37120  0.50690  0.07420  Biso   1.000  O
  O98      1.0000 0.53120  0.42930  0.00530  Biso   1.000  O
  O99      1.0000 0.55690  0.44490  0.12780  Biso   1.000  O
  O100     1.0000 0.55030  0.57930  0.11960  Biso   1.000  O
  O101     1.0000 0.71580  0.50790  0.05810  Biso   1.000  O
  O102     1.0000 0.69700  0.65790  0.18660  Biso   1.000  O
  O103     1.0000 0.70390  0.35280  0.94690  Biso   1.000  O
  O104     1.0000 0.87530  0.58840  0.12590  Biso   1.000  O
  O105     1.0000 0.71780  0.51930  0.18370  Biso   1.000  O
  O106     1.0000 0.67750  0.39350  0.22370  Biso   1.000  O
  O107     1.0000 0.85740  0.42990  0.14700  Biso   1.000  O
  O108     1.0000 0.71820  0.36660  0.09480  Biso   1.000  O
  O109     1.0000 0.89750  0.29220  0.14750  Biso   1.000  O
  O110     1.0000 0.86190  0.30580  0.02240  Biso   1.000  O
  O111     1.0000 0.01930  0.38070  0.08040  Biso   1.000  O
  O112     1.0000 0.86460  0.56080  0.99410  Biso   1.000  O
  O113     1.0000 0.20330  0.57780  0.98960  Biso   1.000  O
  O114     1.0000 0.04320  0.51060  0.06490  Biso   1.000  O
  O115     1.0000 0.02590  0.64100  0.04560  Biso   1.000  O
  O116     1.0000 0.87630  0.72850  0.10390  Biso   1.000  O
  O117     1.0000 0.12170  0.60550  0.15250  Biso   1.000  O
  O118     1.0000 0.13020  0.57380  0.25000  Biso   1.000  O
  O119     1.0000 0.33830  0.72870  0.39050  Biso   1.000  O
  O120     1.0000 0.47200  0.78970  0.35190  Biso   1.000  O
  O121     1.0000 0.48240  0.69510  0.07360  Biso   1.000  O
  O122     1.0000 0.53570  0.78740  0.12350  Biso   1.000  O
  O123     1.0000 0.37320  0.34100  0.05540  Biso   1.000  O
  O124     1.0000 0.44510  0.20900  0.03700  Biso   1.000  O
  O125     1.0000 0.66500  0.21300  0.97630  Biso   1.000  O
  O126     1.0000 0.20180  0.46470  0.15840  Biso   1.000  O
  O127     1.0000 0.89520  0.54500  0.26760  Biso   1.000  O
  O128     1.0000 0.04180  0.41110  0.24760  Biso   1.000  O
