data_image0
_cell_length_a       12.3192
_cell_length_b       12.3654
_cell_length_c       25.1114
_cell_angle_alpha    81.897
_cell_angle_beta     85.389
_cell_angle_gamma    88.564

_symmetry_space_group_name_H-M    P 1
_symmetry_int_tables_number       1

loop_
  _symmetry_equiv_pos_as_xyz
  'x, y, z'

loop_
  _atom_site_label
  _atom_site_occupancy
  _atom_site_fract_x
  _atom_site_fract_y
  _atom_site_fract_z
  _atom_site_thermal_displace_type
  _atom_site_B_iso_or_equiv
  _atom_site_type_symbol
  La1      1.0000 0.72324  0.09475  0.58525  Biso   1.000  La
  La2      1.0000 0.99376  0.81801  0.83910  Biso   1.000  La
  La3      1.0000 0.69951  0.32924  0.86288  Biso   1.000  La
  La4      1.0000 0.21774  0.34064  0.64981  Biso   1.000  La
  La5      1.0000 0.27676  0.90525  0.41475  Biso   1.000  La
  La6      1.0000 0.00624  0.18199  0.16090  Biso   1.000  La
  La7      1.0000 0.30049  0.67076  0.13712  Biso   1.000  La
  La8      1.0000 0.78226  0.65936  0.35019  Biso   1.000  La
  Mo1      1.0000 0.93590  0.89841  0.67143  Biso   1.000  Mo
  Mo2      1.0000 0.04261  0.12866  0.59284  Biso   1.000  Mo
  Mo3      1.0000 0.17012  0.01877  0.70703  Biso   1.000  Mo
  Mo4      1.0000 0.76117  0.89498  0.73848  Biso   1.000  Mo
  Mo5      1.0000 0.62066  0.14479  0.75034  Biso   1.000  Mo
  Mo6      1.0000 0.74242  0.00648  0.85916  Biso   1.000  Mo
  Mo7      1.0000 0.95009  0.12098  0.88913  Biso   1.000  Mo
  Mo8      1.0000 0.17019  0.10396  0.79558  Biso   1.000  Mo
  Mo9      1.0000 0.02650  0.35394  0.80344  Biso   1.000  Mo
  Mo10     1.0000 0.92603  0.44255  0.72249  Biso   1.000  Mo
  Mo11     1.0000 0.68543  0.32351  0.69199  Biso   1.000  Mo
  Mo12     1.0000 0.91085  0.34815  0.60090  Biso   1.000  Mo
  Mo13     1.0000 0.06410  0.10159  0.32857  Biso   1.000  Mo
  Mo14     1.0000 0.95739  0.87134  0.40716  Biso   1.000  Mo
  Mo15     1.0000 0.82988  0.98123  0.29297  Biso   1.000  Mo
  Mo16     1.0000 0.23883  0.10502  0.26152  Biso   1.000  Mo
  Mo17     1.0000 0.37934  0.85521  0.24966  Biso   1.000  Mo
  Mo18     1.0000 0.25758  0.99352  0.14084  Biso   1.000  Mo
  Mo19     1.0000 0.04991  0.87902  0.11087  Biso   1.000  Mo
  Mo20     1.0000 0.82981  0.89604  0.20442  Biso   1.000  Mo
  Mo21     1.0000 0.97350  0.64606  0.19656  Biso   1.000  Mo
  Mo22     1.0000 0.07397  0.55745  0.27751  Biso   1.000  Mo
  Mo23     1.0000 0.31457  0.67649  0.30801  Biso   1.000  Mo
  Mo24     1.0000 0.08915  0.65185  0.39910  Biso   1.000  Mo
  P1       1.0000 0.91171  0.15092  0.73534  Biso   1.000  P
  P2       1.0000 0.08829  0.84908  0.26466  Biso   1.000  P
  H1       1.0000 0.98960  0.31660  0.99090  Biso   1.000  H
  H2       1.0000 0.68610  0.49750  0.51280  Biso   1.000  H
  H3       1.0000 0.01040  0.68340  0.00910  Biso   1.000  H
  H4       1.0000 0.31390  0.50250  0.48720  Biso   1.000  H
  C1       1.0000 0.83820  0.42230  0.93660  Biso   1.000  C
  C2       1.0000 0.92230  0.46430  0.97110  Biso   1.000  C
  C3       1.0000 0.92400  0.57520  0.97690  Biso   1.000  C
  C4       1.0000 0.99470  0.39020  0.99440  Biso   1.000  C
  C5       1.0000 0.83940  0.65990  0.95290  Biso   1.000  C
  C6       1.0000 0.44090  0.40330  0.51170  Biso   1.000  C
  C7       1.0000 0.61210  0.49830  0.50770  Biso   1.000  C
  C8       1.0000 0.55180  0.40090  0.51930  Biso   1.000  C
  C9       1.0000 0.61140  0.29820  0.54010  Biso   1.000  C
  C10      1.0000 0.37070  0.29950  0.52130  Biso   1.000  C
  C11      1.0000 0.16180  0.57770  0.06340  Biso   1.000  C
  C12      1.0000 0.07770  0.53570  0.02890  Biso   1.000  C
  C13      1.0000 0.07600  0.42480  0.02310  Biso   1.000  C
  C14      1.0000 0.00530  0.60980  0.00560  Biso   1.000  C
  C15      1.0000 0.16060  0.34010  0.04710  Biso   1.000  C
  C16      1.0000 0.55910  0.59670  0.48830  Biso   1.000  C
  C17      1.0000 0.38790  0.50170  0.49230  Biso   1.000  C
  C18      1.0000 0.44820  0.59910  0.48070  Biso   1.000  C
  C19      1.0000 0.38860  0.70180  0.45990  Biso   1.000  C
  C20      1.0000 0.62930  0.70050  0.47870  Biso   1.000  C
  O1       1.0000 0.92560  0.77950  0.64800  Biso   1.000  O
  O2       1.0000 0.91400  0.86530  0.75010  Biso   1.000  O
  O3       1.0000 0.79510  0.96850  0.66620  Biso   1.000  O
  O4       1.0000 0.09650  0.89300  0.68240  Biso   1.000  O
  O5       1.0000 0.97800  0.99520  0.60080  Biso   1.000  O
  O6       1.0000 0.98050  0.08420  0.69720  Biso   1.000  O
  O7       1.0000 0.08700  0.14580  0.52710  Biso   1.000  O
  O8       1.0000 0.16440  0.08670  0.62820  Biso   1.000  O
  O9       1.0000 0.89380  0.19280  0.59320  Biso   1.000  O
  O10      1.0000 0.05510  0.27650  0.61270  Biso   1.000  O
  O11      1.0000 0.29380  0.96730  0.70450  Biso   1.000  O
  O12      1.0000 0.10770  0.96900  0.78030  Biso   1.000  O
  O13      1.0000 0.18840  0.17050  0.72040  Biso   1.000  O
  O14      1.0000 0.70910  0.77270  0.73230  Biso   1.000  O
  O15      1.0000 0.62070  0.98210  0.73960  Biso   1.000  O
  O16      1.0000 0.74780  0.89020  0.81900  Biso   1.000  O
  O17      1.0000 0.80840  0.08440  0.76050  Biso   1.000  O
  O18      1.0000 0.48520  0.16780  0.75040  Biso   1.000  O
  O19      1.0000 0.67420  0.17360  0.67470  Biso   1.000  O
  O20      1.0000 0.67760  0.27910  0.77150  Biso   1.000  O
  O21      1.0000 0.62940  0.08090  0.83030  Biso   1.000  O
  O22      1.0000 0.68820  0.95200  0.92060  Biso   1.000  O
  O23      1.0000 0.90070  0.98170  0.86590  Biso   1.000  O
  O24      1.0000 0.79810  0.15000  0.87240  Biso   1.000  O
  O25      1.0000 0.94260  0.09280  0.95680  Biso   1.000  O
  O26      1.0000 0.97500  0.26780  0.87520  Biso   1.000  O
  O27      1.0000 0.08900  0.07270  0.86890  Biso   1.000  O
  O28      1.0000 0.98140  0.17200  0.78280  Biso   1.000  O
  O29      1.0000 0.29290  0.06590  0.81370  Biso   1.000  O
  O30      1.0000 0.16780  0.26200  0.81190  Biso   1.000  O
  O31      1.0000 0.07280  0.46710  0.82590  Biso   1.000  O
  O32      1.0000 0.87390  0.38060  0.79420  Biso   1.000  O
  O33      1.0000 0.06870  0.37310  0.72580  Biso   1.000  O
  O34      1.0000 0.94730  0.57530  0.72670  Biso   1.000  O
  O35      1.0000 0.95160  0.44860  0.64200  Biso   1.000  O
  O36      1.0000 0.76340  0.46290  0.70770  Biso   1.000  O
  O37      1.0000 0.87550  0.26180  0.70480  Biso   1.000  O
  O38      1.0000 0.56880  0.38390  0.68030  Biso   1.000  O
  O39      1.0000 0.76680  0.35570  0.61970  Biso   1.000  O
  O40      1.0000 0.92840  0.41190  0.53660  Biso   1.000  O
  O41      1.0000 0.70170  0.28100  0.52040  Biso   1.000  O
  O42      1.0000 0.56250  0.23330  0.57820  Biso   1.000  O
  O43      1.0000 0.87970  0.74540  0.92300  Biso   1.000  O
  O44      1.0000 0.74430  0.64180  0.96510  Biso   1.000  O
  O45      1.0000 0.81870  0.47740  0.89070  Biso   1.000  O
  O46      1.0000 0.79730  0.33380  0.95150  Biso   1.000  O
  O47      1.0000 0.29050  0.29940  0.55630  Biso   1.000  O
  O48      1.0000 0.39960  0.22310  0.49390  Biso   1.000  O
  O49      1.0000 0.55550  0.98710  0.63300  Biso   1.000  O
  O50      1.0000 0.59650  0.07000  0.51100  Biso   1.000  O
  O51      1.0000 0.74720  0.89580  0.56000  Biso   1.000  O
  O52      1.0000 0.84930  0.08770  0.49630  Biso   1.000  O
  O53      1.0000 0.12340  0.86050  0.90770  Biso   1.000  O
  O54      1.0000 0.88940  0.65680  0.82250  Biso   1.000  O
  O55      1.0000 0.11620  0.73200  0.76440  Biso   1.000  O
  O56      1.0000 0.10810  0.64770  0.87720  Biso   1.000  O
  O57      1.0000 0.59480  0.20120  0.94020  Biso   1.000  O
  O58      1.0000 0.58050  0.45320  0.92240  Biso   1.000  O
  O59      1.0000 0.65410  0.51030  0.80090  Biso   1.000  O
  O60      1.0000 0.49090  0.32010  0.84420  Biso   1.000  O
  O61      1.0000 0.38030  0.47120  0.62830  Biso   1.000  O
  O62      1.0000 0.38960  0.22170  0.65240  Biso   1.000  O
  O63      1.0000 0.31090  0.36860  0.73640  Biso   1.000  O
  O64      1.0000 0.18110  0.55320  0.66910  Biso   1.000  O
  O65      1.0000 0.16350  0.49870  0.57490  Biso   1.000  O
  O66      1.0000 0.07440  0.22050  0.35200  Biso   1.000  O
  O67      1.0000 0.08600  0.13470  0.24990  Biso   1.000  O
  O68      1.0000 0.20490  0.03150  0.33380  Biso   1.000  O
  O69      1.0000 0.90350  0.10700  0.31760  Biso   1.000  O
  O70      1.0000 0.02200  0.00480  0.39920  Biso   1.000  O
  O71      1.0000 0.01950  0.91580  0.30280  Biso   1.000  O
  O72      1.0000 0.91300  0.85420  0.47290  Biso   1.000  O
  O73      1.0000 0.83560  0.91330  0.37180  Biso   1.000  O
  O74      1.0000 0.10620  0.80720  0.40680  Biso   1.000  O
  O75      1.0000 0.94490  0.72350  0.38730  Biso   1.000  O
  O76      1.0000 0.70620  0.03270  0.29550  Biso   1.000  O
  O77      1.0000 0.89230  0.03100  0.21970  Biso   1.000  O
  O78      1.0000 0.81160  0.82950  0.27960  Biso   1.000  O
  O79      1.0000 0.29090  0.22730  0.26770  Biso   1.000  O
  O80      1.0000 0.37930  0.01790  0.26040  Biso   1.000  O
  O81      1.0000 0.25220  0.10980  0.18100  Biso   1.000  O
  O82      1.0000 0.19160  0.91560  0.23950  Biso   1.000  O
  O83      1.0000 0.51480  0.83220  0.24960  Biso   1.000  O
  O84      1.0000 0.32580  0.82640  0.32530  Biso   1.000  O
  O85      1.0000 0.32240  0.72090  0.22850  Biso   1.000  O
  O86      1.0000 0.37060  0.91910  0.16970  Biso   1.000  O
  O87      1.0000 0.31180  0.04800  0.07940  Biso   1.000  O
  O88      1.0000 0.09930  0.01830  0.13410  Biso   1.000  O
  O89      1.0000 0.20190  0.85000  0.12760  Biso   1.000  O
  O90      1.0000 0.05740  0.90720  0.04320  Biso   1.000  O
  O91      1.0000 0.02500  0.73220  0.12480  Biso   1.000  O
  O92      1.0000 0.91100  0.92730  0.13110  Biso   1.000  O
  O93      1.0000 0.01860  0.82800  0.21720  Biso   1.000  O
  O94      1.0000 0.70710  0.93410  0.18630  Biso   1.000  O
  O95      1.0000 0.83220  0.73800  0.18810  Biso   1.000  O
  O96      1.0000 0.92720  0.53290  0.17410  Biso   1.000  O
  O97      1.0000 0.12610  0.61940  0.20580  Biso   1.000  O
  O98      1.0000 0.93130  0.62690  0.27420  Biso   1.000  O
  O99      1.0000 0.05270  0.42470  0.27330  Biso   1.000  O
  O100     1.0000 0.04840  0.55140  0.35800  Biso   1.000  O
  O101     1.0000 0.23660  0.53710  0.29230  Biso   1.000  O
  O102     1.0000 0.12450  0.73820  0.29520  Biso   1.000  O
  O103     1.0000 0.43120  0.61610  0.31970  Biso   1.000  O
  O104     1.0000 0.23320  0.64430  0.38030  Biso   1.000  O
  O105     1.0000 0.07160  0.58810  0.46340  Biso   1.000  O
  O106     1.0000 0.29830  0.71900  0.47960  Biso   1.000  O
  O107     1.0000 0.43750  0.76670  0.42180  Biso   1.000  O
  O108     1.0000 0.12030  0.25460  0.07700  Biso   1.000  O
  O109     1.0000 0.25570  0.35820  0.03490  Biso   1.000  O
  O110     1.0000 0.18130  0.52260  0.10930  Biso   1.000  O
  O111     1.0000 0.20270  0.66620  0.04850  Biso   1.000  O
  O112     1.0000 0.70950  0.70060  0.44370  Biso   1.000  O
  O113     1.0000 0.60040  0.77690  0.50610  Biso   1.000  O
  O114     1.0000 0.44450  0.01290  0.36700  Biso   1.000  O
  O115     1.0000 0.40350  0.93000  0.48900  Biso   1.000  O
  O116     1.0000 0.25280  0.10420  0.44000  Biso   1.000  O
  O117     1.0000 0.15070  0.91230  0.50370  Biso   1.000  O
  O118     1.0000 0.87660  0.13950  0.09230  Biso   1.000  O
  O119     1.0000 0.11060  0.34320  0.17750  Biso   1.000  O
  O120     1.0000 0.88380  0.26800  0.23560  Biso   1.000  O
  O121     1.0000 0.89190  0.35230  0.12280  Biso   1.000  O
  O122     1.0000 0.40520  0.79880  0.05980  Biso   1.000  O
  O123     1.0000 0.41950  0.54680  0.07760  Biso   1.000  O
  O124     1.0000 0.34590  0.48970  0.19910  Biso   1.000  O
  O125     1.0000 0.50910  0.67990  0.15580  Biso   1.000  O
  O126     1.0000 0.61970  0.52880  0.37170  Biso   1.000  O
  O127     1.0000 0.61040  0.77830  0.34760  Biso   1.000  O
  O128     1.0000 0.68910  0.63140  0.26360  Biso   1.000  O
  O129     1.0000 0.81890  0.44680  0.33090  Biso   1.000  O
  O130     1.0000 0.83650  0.50130  0.42510  Biso   1.000  O
