data_image0
_cell_length_a       18.9782
_cell_length_b       18.9782
_cell_length_c       18.9782
_cell_angle_alpha    109.471
_cell_angle_beta     109.471
_cell_angle_gamma    109.471

_symmetry_space_group_name_H-M    P 1
_symmetry_int_tables_number       1

loop_
  _symmetry_equiv_pos_as_xyz
  'x, y, z'

loop_
  _atom_site_label
  _atom_site_occupancy
  _atom_site_fract_x
  _atom_site_fract_y
  _atom_site_fract_z
  _atom_site_thermal_displace_type
  _atom_site_B_iso_or_equiv
  _atom_site_type_symbol
  Co1      1.0000 0.88615  0.34965  0.00000  Biso   1.000  Co
  Co2      1.0000 0.34965  0.88615  0.00000  Biso   1.000  Co
  Co3      1.0000 0.65035  0.65035  0.53650  Biso   1.000  Co
  Co4      1.0000 0.11385  0.11385  0.46350  Biso   1.000  Co
  Co5      1.0000 0.53650  0.65035  0.65035  Biso   1.000  Co
  Co6      1.0000 0.46350  0.11385  0.11385  Biso   1.000  Co
  Co7      1.0000 0.00000  0.88615  0.34965  Biso   1.000  Co
  Co8      1.0000 1.00000  0.34965  0.88615  Biso   1.000  Co
  Co9      1.0000 0.88615  0.00000  0.34965  Biso   1.000  Co
  Co10     1.0000 0.34965  0.00000  0.88615  Biso   1.000  Co
  Co11     1.0000 0.11385  0.46350  0.11385  Biso   1.000  Co
  Co12     1.0000 0.65035  0.53650  0.65035  Biso   1.000  Co
  H1       1.0000 0.87690  0.69120  0.23890  Biso   1.000  H
  H2       1.0000 0.12760  0.35380  0.27820  Biso   1.000  H
  H3       1.0000 0.87320  0.56420  0.16160  Biso   1.000  H
  H4       1.0000 0.45230  0.63800  0.76110  Biso   1.000  H
  H5       1.0000 0.07560  0.84940  0.72180  Biso   1.000  H
  H6       1.0000 0.40260  0.71160  0.83840  Biso   1.000  H
  H7       1.0000 0.54770  0.30880  0.18570  Biso   1.000  H
  H8       1.0000 0.92440  0.64620  0.77380  Biso   1.000  H
  H9       1.0000 0.59740  0.43580  0.30900  Biso   1.000  H
  H10      1.0000 0.12310  0.36200  0.81430  Biso   1.000  H
  H11      1.0000 0.87240  0.15060  0.22620  Biso   1.000  H
  H12      1.0000 0.12680  0.28840  0.69100  Biso   1.000  H
  H13      1.0000 0.18570  0.54770  0.30880  Biso   1.000  H
  H14      1.0000 0.77380  0.92440  0.64620  Biso   1.000  H
  H15      1.0000 0.30900  0.59740  0.43580  Biso   1.000  H
  H16      1.0000 0.81430  0.12310  0.36200  Biso   1.000  H
  H17      1.0000 0.22620  0.87240  0.15060  Biso   1.000  H
  H18      1.0000 0.69100  0.12680  0.28840  Biso   1.000  H
  H19      1.0000 0.23890  0.87690  0.69120  Biso   1.000  H
  H20      1.0000 0.27820  0.12760  0.35380  Biso   1.000  H
  H21      1.0000 0.16160  0.87320  0.56420  Biso   1.000  H
  H22      1.0000 0.76110  0.45230  0.63800  Biso   1.000  H
  H23      1.0000 0.72180  0.07560  0.84940  Biso   1.000  H
  H24      1.0000 0.83840  0.40260  0.71160  Biso   1.000  H
  H25      1.0000 0.63800  0.76110  0.45230  Biso   1.000  H
  H26      1.0000 0.84940  0.72180  0.07560  Biso   1.000  H
  H27      1.0000 0.71160  0.83840  0.40260  Biso   1.000  H
  H28      1.0000 0.69120  0.23890  0.87690  Biso   1.000  H
  H29      1.0000 0.35380  0.27820  0.12760  Biso   1.000  H
  H30      1.0000 0.56420  0.16160  0.87320  Biso   1.000  H
  H31      1.0000 0.36200  0.81430  0.12310  Biso   1.000  H
  H32      1.0000 0.15060  0.22620  0.87240  Biso   1.000  H
  H33      1.0000 0.28840  0.69100  0.12680  Biso   1.000  H
  H34      1.0000 0.30880  0.18570  0.54770  Biso   1.000  H
  H35      1.0000 0.64620  0.77380  0.92440  Biso   1.000  H
  H36      1.0000 0.43580  0.30900  0.59740  Biso   1.000  H
  H37      1.0000 0.63800  0.45230  0.76110  Biso   1.000  H
  H38      1.0000 0.84940  0.07560  0.72180  Biso   1.000  H
  H39      1.0000 0.71160  0.40260  0.83840  Biso   1.000  H
  H40      1.0000 0.69120  0.87690  0.23890  Biso   1.000  H
  H41      1.0000 0.35380  0.12760  0.27820  Biso   1.000  H
  H42      1.0000 0.56420  0.87320  0.16160  Biso   1.000  H
  H43      1.0000 0.36200  0.12310  0.81430  Biso   1.000  H
  H44      1.0000 0.15060  0.87240  0.22620  Biso   1.000  H
  H45      1.0000 0.28840  0.12680  0.69100  Biso   1.000  H
  H46      1.0000 0.30880  0.54770  0.18570  Biso   1.000  H
  H47      1.0000 0.64620  0.92440  0.77380  Biso   1.000  H
  H48      1.0000 0.43580  0.59740  0.30900  Biso   1.000  H
  H49      1.0000 0.87690  0.23890  0.69120  Biso   1.000  H
  H50      1.0000 0.12760  0.27820  0.35380  Biso   1.000  H
  H51      1.0000 0.87320  0.16160  0.56420  Biso   1.000  H
  H52      1.0000 0.45230  0.76110  0.63800  Biso   1.000  H
  H53      1.0000 0.07560  0.72180  0.84940  Biso   1.000  H
  H54      1.0000 0.40260  0.83840  0.71160  Biso   1.000  H
  H55      1.0000 0.54770  0.18570  0.30880  Biso   1.000  H
  H56      1.0000 0.92440  0.77380  0.64620  Biso   1.000  H
  H57      1.0000 0.59740  0.30900  0.43580  Biso   1.000  H
  H58      1.0000 0.12310  0.81430  0.36200  Biso   1.000  H
  H59      1.0000 0.87240  0.22620  0.15060  Biso   1.000  H
  H60      1.0000 0.12680  0.69100  0.28840  Biso   1.000  H
  H61      1.0000 0.18570  0.30880  0.54770  Biso   1.000  H
  H62      1.0000 0.77380  0.64620  0.92440  Biso   1.000  H
  H63      1.0000 0.30900  0.43580  0.59740  Biso   1.000  H
  H64      1.0000 0.81430  0.36200  0.12310  Biso   1.000  H
  H65      1.0000 0.22620  0.15060  0.87240  Biso   1.000  H
  H66      1.0000 0.69100  0.28840  0.12680  Biso   1.000  H
  H67      1.0000 0.23890  0.69120  0.87690  Biso   1.000  H
  H68      1.0000 0.27820  0.35380  0.12760  Biso   1.000  H
  H69      1.0000 0.16160  0.56420  0.87320  Biso   1.000  H
  H70      1.0000 0.76110  0.63800  0.45230  Biso   1.000  H
  H71      1.0000 0.72180  0.84940  0.07560  Biso   1.000  H
  H72      1.0000 0.83840  0.71160  0.40260  Biso   1.000  H
  C1       1.0000 0.92860  0.69260  0.24720  Biso   1.000  C
  C2       1.0000 0.07550  0.31080  0.26490  Biso   1.000  C
  C3       1.0000 0.92570  0.61530  0.20020  Biso   1.000  C
  C4       1.0000 0.44540  0.68140  0.75280  Biso   1.000  C
  C5       1.0000 0.04590  0.81060  0.73510  Biso   1.000  C
  C6       1.0000 0.41510  0.72550  0.79980  Biso   1.000  C
  C7       1.0000 0.55460  0.30740  0.23600  Biso   1.000  C
  C8       1.0000 0.95410  0.68920  0.76470  Biso   1.000  C
  C9       1.0000 0.58490  0.38470  0.31040  Biso   1.000  C
  C10      1.0000 0.07140  0.31860  0.76400  Biso   1.000  C
  C11      1.0000 0.92450  0.18940  0.23530  Biso   1.000  C
  C12      1.0000 0.07430  0.27450  0.68960  Biso   1.000  C
  C13      1.0000 0.23600  0.55460  0.30740  Biso   1.000  C
  C14      1.0000 0.76470  0.95410  0.68920  Biso   1.000  C
  C15      1.0000 0.31040  0.58490  0.38470  Biso   1.000  C
  C16      1.0000 0.76400  0.07140  0.31860  Biso   1.000  C
  C17      1.0000 0.23530  0.92450  0.18940  Biso   1.000  C
  C18      1.0000 0.68960  0.07430  0.27450  Biso   1.000  C
  C19      1.0000 0.24720  0.92860  0.69260  Biso   1.000  C
  C20      1.0000 0.26490  0.07550  0.31080  Biso   1.000  C
  C21      1.0000 0.20020  0.92570  0.61530  Biso   1.000  C
  C22      1.0000 0.75280  0.44540  0.68140  Biso   1.000  C
  C23      1.0000 0.73510  0.04590  0.81060  Biso   1.000  C
  C24      1.0000 0.79980  0.41510  0.72550  Biso   1.000  C
  C25      1.0000 0.68140  0.75280  0.44540  Biso   1.000  C
  C26      1.0000 0.81060  0.73510  0.04590  Biso   1.000  C
  C27      1.0000 0.72550  0.79980  0.41510  Biso   1.000  C
  C28      1.0000 0.69260  0.24720  0.92860  Biso   1.000  C
  C29      1.0000 0.31080  0.26490  0.07550  Biso   1.000  C
  C30      1.0000 0.61530  0.20020  0.92570  Biso   1.000  C
  C31      1.0000 0.31860  0.76400  0.07140  Biso   1.000  C
  C32      1.0000 0.18940  0.23530  0.92450  Biso   1.000  C
  C33      1.0000 0.27450  0.68960  0.07430  Biso   1.000  C
  C34      1.0000 0.30740  0.23600  0.55460  Biso   1.000  C
  C35      1.0000 0.68920  0.76470  0.95410  Biso   1.000  C
  C36      1.0000 0.38470  0.31040  0.58490  Biso   1.000  C
  C37      1.0000 0.68140  0.44540  0.75280  Biso   1.000  C
  C38      1.0000 0.81060  0.04590  0.73510  Biso   1.000  C
  C39      1.0000 0.72550  0.41510  0.79980  Biso   1.000  C
  C40      1.0000 0.69260  0.92860  0.24720  Biso   1.000  C
  C41      1.0000 0.31080  0.07550  0.26490  Biso   1.000  C
  C42      1.0000 0.61530  0.92570  0.20020  Biso   1.000  C
  C43      1.0000 0.31860  0.07140  0.76400  Biso   1.000  C
  C44      1.0000 0.18940  0.92450  0.23530  Biso   1.000  C
  C45      1.0000 0.27450  0.07430  0.68960  Biso   1.000  C
  C46      1.0000 0.30740  0.55460  0.23600  Biso   1.000  C
  C47      1.0000 0.68920  0.95410  0.76470  Biso   1.000  C
  C48      1.0000 0.38470  0.58490  0.31040  Biso   1.000  C
  C49      1.0000 0.92860  0.24720  0.69260  Biso   1.000  C
  C50      1.0000 0.07550  0.26490  0.31080  Biso   1.000  C
  C51      1.0000 0.92570  0.20020  0.61530  Biso   1.000  C
  C52      1.0000 0.44540  0.75280  0.68140  Biso   1.000  C
  C53      1.0000 0.04590  0.73510  0.81060  Biso   1.000  C
  C54      1.0000 0.41510  0.79980  0.72550  Biso   1.000  C
  C55      1.0000 0.55460  0.23600  0.30740  Biso   1.000  C
  C56      1.0000 0.95410  0.76470  0.68920  Biso   1.000  C
  C57      1.0000 0.58490  0.31040  0.38470  Biso   1.000  C
  C58      1.0000 0.07140  0.76400  0.31860  Biso   1.000  C
  C59      1.0000 0.92450  0.23530  0.18940  Biso   1.000  C
  C60      1.0000 0.07430  0.68960  0.27450  Biso   1.000  C
  C61      1.0000 0.23600  0.30740  0.55460  Biso   1.000  C
  C62      1.0000 0.76470  0.68920  0.95410  Biso   1.000  C
  C63      1.0000 0.31040  0.38470  0.58490  Biso   1.000  C
  C64      1.0000 0.76400  0.31860  0.07140  Biso   1.000  C
  C65      1.0000 0.23530  0.18940  0.92450  Biso   1.000  C
  C66      1.0000 0.68960  0.27450  0.07430  Biso   1.000  C
  C67      1.0000 0.24720  0.69260  0.92860  Biso   1.000  C
  C68      1.0000 0.26490  0.31080  0.07550  Biso   1.000  C
  C69      1.0000 0.20020  0.61530  0.92570  Biso   1.000  C
  C70      1.0000 0.75280  0.68140  0.44540  Biso   1.000  C
  C71      1.0000 0.73510  0.81060  0.04590  Biso   1.000  C
  C72      1.0000 0.79980  0.72550  0.41510  Biso   1.000  C
  C73      1.0000 0.00000  0.33610  0.14990  Biso   1.000  C
  C74      1.0000 0.00000  0.29230  0.20150  Biso   1.000  C
  C75      1.0000 0.00000  0.53800  0.15720  Biso   1.000  C
  C76      1.0000 0.00000  0.61690  0.21230  Biso   1.000  C
  C77      1.0000 0.18620  0.85010  0.85010  Biso   1.000  C
  C78      1.0000 0.09080  0.79850  0.79850  Biso   1.000  C
  C79      1.0000 0.38080  0.84280  0.84280  Biso   1.000  C
  C80      1.0000 0.40460  0.78770  0.78770  Biso   1.000  C
  C81      1.0000 0.81380  0.66390  0.66390  Biso   1.000  C
  C82      1.0000 0.90920  0.70770  0.70770  Biso   1.000  C
  C83      1.0000 0.61920  0.46200  0.46200  Biso   1.000  C
  C84      1.0000 0.59540  0.38310  0.38310  Biso   1.000  C
  C85      1.0000 0.00000  0.14990  0.33610  Biso   1.000  C
  C86      1.0000 0.00000  0.20150  0.29230  Biso   1.000  C
  C87      1.0000 0.00000  0.15720  0.53800  Biso   1.000  C
  C88      1.0000 0.00000  0.21230  0.61690  Biso   1.000  C
  C89      1.0000 0.66390  0.81380  0.66390  Biso   1.000  C
  C90      1.0000 0.70770  0.90920  0.70770  Biso   1.000  C
  C91      1.0000 0.46200  0.61920  0.46200  Biso   1.000  C
  C92      1.0000 0.38310  0.59540  0.38310  Biso   1.000  C
  C93      1.0000 0.33610  0.00000  0.14990  Biso   1.000  C
  C94      1.0000 0.29230  1.00000  0.20150  Biso   1.000  C
  C95      1.0000 0.53800  0.00000  0.15720  Biso   1.000  C
  C96      1.0000 0.61690  0.00000  0.21230  Biso   1.000  C
  C97      1.0000 0.14990  0.00000  0.33610  Biso   1.000  C
  C98      1.0000 0.20150  0.00000  0.29230  Biso   1.000  C
  C99      1.0000 0.15720  0.00000  0.53800  Biso   1.000  C
  C100     1.0000 0.21230  1.00000  0.61690  Biso   1.000  C
  C101     1.0000 0.85010  0.18620  0.85010  Biso   1.000  C
  C102     1.0000 0.79850  0.09080  0.79850  Biso   1.000  C
  C103     1.0000 0.84280  0.38080  0.84280  Biso   1.000  C
  C104     1.0000 0.78770  0.40460  0.78770  Biso   1.000  C
  C105     1.0000 0.85010  0.85010  0.18620  Biso   1.000  C
  C106     1.0000 0.79850  0.79850  0.09080  Biso   1.000  C
  C107     1.0000 0.84280  0.84280  0.38080  Biso   1.000  C
  C108     1.0000 0.78770  0.78770  0.40460  Biso   1.000  C
  C109     1.0000 0.33610  0.14990  0.00000  Biso   1.000  C
  C110     1.0000 0.29230  0.20150  0.00000  Biso   1.000  C
  C111     1.0000 0.53800  0.15720  0.00000  Biso   1.000  C
  C112     1.0000 0.61690  0.21230  0.00000  Biso   1.000  C
  C113     1.0000 0.14990  0.33610  0.00000  Biso   1.000  C
  C114     1.0000 0.20150  0.29230  0.00000  Biso   1.000  C
  C115     1.0000 0.15720  0.53800  0.00000  Biso   1.000  C
  C116     1.0000 0.21230  0.61690  0.00000  Biso   1.000  C
  C117     1.0000 0.66390  0.66390  0.81380  Biso   1.000  C
  C118     1.0000 0.70770  0.70770  0.90920  Biso   1.000  C
  C119     1.0000 0.46200  0.46200  0.61920  Biso   1.000  C
  C120     1.0000 0.38310  0.38310  0.59540  Biso   1.000  C
  N1       1.0000 0.76550  0.30150  0.00000  Biso   1.000  N
  N2       1.0000 0.30150  0.76550  0.00000  Biso   1.000  N
  N3       1.0000 0.69850  0.69850  0.46400  Biso   1.000  N
  N4       1.0000 0.23450  0.23450  0.53600  Biso   1.000  N
  N5       1.0000 0.46400  0.69850  0.69850  Biso   1.000  N
  N6       1.0000 0.53600  0.23450  0.23450  Biso   1.000  N
  N7       1.0000 1.00000  0.76550  0.30150  Biso   1.000  N
  N8       1.0000 0.00000  0.30150  0.76550  Biso   1.000  N
  N9       1.0000 0.76550  1.00000  0.30150  Biso   1.000  N
  N10      1.0000 0.30150  0.00000  0.76550  Biso   1.000  N
  N11      1.0000 0.23450  0.53600  0.23450  Biso   1.000  N
  N12      1.0000 0.69850  0.46400  0.69850  Biso   1.000  N
  O1       1.0000 0.92600  0.47250  0.09810  Biso   1.000  O
  O2       1.0000 0.92910  0.31600  0.09330  Biso   1.000  O
  O3       1.0000 0.37440  0.82790  0.90190  Biso   1.000  O
  O4       1.0000 0.22270  0.83580  0.90670  Biso   1.000  O
  O5       1.0000 0.62560  0.52750  0.45350  Biso   1.000  O
  O6       1.0000 0.77730  0.68400  0.61310  Biso   1.000  O
  O7       1.0000 0.07400  0.17210  0.54650  Biso   1.000  O
  O8       1.0000 0.07090  0.16420  0.38690  Biso   1.000  O
  O9       1.0000 0.45350  0.62560  0.52750  Biso   1.000  O
  O10      1.0000 0.61310  0.77730  0.68400  Biso   1.000  O
  O11      1.0000 0.54650  0.07400  0.17210  Biso   1.000  O
  O12      1.0000 0.38690  0.07090  0.16420  Biso   1.000  O
  O13      1.0000 0.09810  0.92600  0.47250  Biso   1.000  O
  O14      1.0000 0.09330  0.92910  0.31600  Biso   1.000  O
  O15      1.0000 0.90190  0.37440  0.82790  Biso   1.000  O
  O16      1.0000 0.90670  0.22270  0.83580  Biso   1.000  O
  O17      1.0000 0.82790  0.90190  0.37440  Biso   1.000  O
  O18      1.0000 0.83580  0.90670  0.22270  Biso   1.000  O
  O19      1.0000 0.47250  0.09810  0.92600  Biso   1.000  O
  O20      1.0000 0.31600  0.09330  0.92910  Biso   1.000  O
  O21      1.0000 0.17210  0.54650  0.07400  Biso   1.000  O
  O22      1.0000 0.16420  0.38690  0.07090  Biso   1.000  O
  O23      1.0000 0.52750  0.45350  0.62560  Biso   1.000  O
  O24      1.0000 0.68400  0.61310  0.77730  Biso   1.000  O
  O25      1.0000 0.82790  0.37440  0.90190  Biso   1.000  O
  O26      1.0000 0.83580  0.22270  0.90670  Biso   1.000  O
  O27      1.0000 0.47250  0.92600  0.09810  Biso   1.000  O
  O28      1.0000 0.31600  0.92910  0.09330  Biso   1.000  O
  O29      1.0000 0.17210  0.07400  0.54650  Biso   1.000  O
  O30      1.0000 0.16420  0.07090  0.38690  Biso   1.000  O
  O31      1.0000 0.52750  0.62560  0.45350  Biso   1.000  O
  O32      1.0000 0.68400  0.77730  0.61310  Biso   1.000  O
  O33      1.0000 0.92600  0.09810  0.47250  Biso   1.000  O
  O34      1.0000 0.92910  0.09330  0.31600  Biso   1.000  O
  O35      1.0000 0.37440  0.90190  0.82790  Biso   1.000  O
  O36      1.0000 0.22270  0.90670  0.83580  Biso   1.000  O
  O37      1.0000 0.62560  0.45350  0.52750  Biso   1.000  O
  O38      1.0000 0.77730  0.61310  0.68400  Biso   1.000  O
  O39      1.0000 0.07400  0.54650  0.17210  Biso   1.000  O
  O40      1.0000 0.07090  0.38690  0.16420  Biso   1.000  O
  O41      1.0000 0.45350  0.52750  0.62560  Biso   1.000  O
  O42      1.0000 0.61310  0.68400  0.77730  Biso   1.000  O
  O43      1.0000 0.54650  0.17210  0.07400  Biso   1.000  O
  O44      1.0000 0.38690  0.16420  0.07090  Biso   1.000  O
  O45      1.0000 0.09810  0.47250  0.92600  Biso   1.000  O
  O46      1.0000 0.09330  0.31600  0.92910  Biso   1.000  O
  O47      1.0000 0.90190  0.82790  0.37440  Biso   1.000  O
  O48      1.0000 0.90670  0.83580  0.22270  Biso   1.000  O
  O49      1.0000 0.00000  0.40320  0.00000  Biso   1.000  O
  O50      1.0000 0.40320  1.00000  0.00000  Biso   1.000  O
  O51      1.0000 0.59680  0.59680  0.59680  Biso   1.000  O
  O52      1.0000 1.00000  0.00000  0.40320  Biso   1.000  O
