data_image0
_cell_length_a       22.5627
_cell_length_b       22.5627
_cell_length_c       22.5627
_cell_angle_alpha    107.968
_cell_angle_beta     107.968
_cell_angle_gamma    107.968

_symmetry_space_group_name_H-M    P 1
_symmetry_int_tables_number       1

loop_
  _symmetry_equiv_pos_as_xyz
  'x, y, z'

loop_
  _atom_site_label
  _atom_site_occupancy
  _atom_site_fract_x
  _atom_site_fract_y
  _atom_site_fract_z
  _atom_site_thermal_displace_type
  _atom_site_B_iso_or_equiv
  _atom_site_type_symbol
  Mn1      1.0000 0.95024  0.46413  0.53261  Biso   1.000  Mn
  Mn2      1.0000 0.53261  0.95024  0.46413  Biso   1.000  Mn
  Mn3      1.0000 0.46413  0.53261  0.95024  Biso   1.000  Mn
  Mn4      1.0000 0.04976  0.53587  0.46739  Biso   1.000  Mn
  Mn5      1.0000 0.46739  0.04976  0.53587  Biso   1.000  Mn
  Mn6      1.0000 0.53587  0.46739  0.04976  Biso   1.000  Mn
  In1      1.0000 0.86977  0.45762  0.36089  Biso   1.000  In
  In2      1.0000 0.36089  0.86977  0.45762  Biso   1.000  In
  In3      1.0000 0.45762  0.36089  0.86977  Biso   1.000  In
  In4      1.0000 0.13023  0.54238  0.63911  Biso   1.000  In
  In5      1.0000 0.63911  0.13023  0.54238  Biso   1.000  In
  In6      1.0000 0.54238  0.63911  0.13023  Biso   1.000  In
  H1       1.0000 0.73000  0.54000  0.62340  Biso   1.000  H
  H2       1.0000 0.71380  0.10840  0.13430  Biso   1.000  H
  H3       1.0000 0.58250  0.09700  0.94160  Biso   1.000  H
  H4       1.0000 0.51410  0.71510  0.90710  Biso   1.000  H
  H5       1.0000 0.61320  0.01100  0.07190  Biso   1.000  H
  H6       1.0000 0.41070  0.89900  0.78490  Biso   1.000  H
  H7       1.0000 0.62130  0.51220  0.43080  Biso   1.000  H
  H8       1.0000 0.55400  0.91760  0.08230  Biso   1.000  H
  H9       1.0000 0.49380  0.88950  0.86820  Biso   1.000  H
  H10      1.0000 0.52730  0.81300  0.88870  Biso   1.000  H
  H11      1.0000 0.54170  0.82020  0.10050  Biso   1.000  H
  H12      1.0000 0.80940  0.51360  0.59080  Biso   1.000  H
  H13      1.0000 0.69880  0.48180  0.39630  Biso   1.000  H
  H14      1.0000 0.67130  0.29640  0.13550  Biso   1.000  H
  H15      1.0000 0.36980  0.87480  0.66850  Biso   1.000  H
  H16      1.0000 0.57840  0.06470  0.83010  Biso   1.000  H
  H17      1.0000 0.59940  0.18710  0.04130  Biso   1.000  H
  H18      1.0000 0.77930  0.21470  0.23190  Biso   1.000  H
  H19      1.0000 0.53520  0.03950  0.71280  Biso   1.000  H
  H20      1.0000 0.62340  0.73000  0.54000  Biso   1.000  H
  H21      1.0000 0.13430  0.71380  0.10840  Biso   1.000  H
  H22      1.0000 0.94160  0.58250  0.09700  Biso   1.000  H
  H23      1.0000 0.90710  0.51410  0.71510  Biso   1.000  H
  H24      1.0000 0.07190  0.61320  0.01100  Biso   1.000  H
  H25      1.0000 0.78490  0.41070  0.89900  Biso   1.000  H
  H26      1.0000 0.43080  0.62130  0.51220  Biso   1.000  H
  H27      1.0000 0.08230  0.55400  0.91760  Biso   1.000  H
  H28      1.0000 0.86820  0.49380  0.88950  Biso   1.000  H
  H29      1.0000 0.88870  0.52730  0.81300  Biso   1.000  H
  H30      1.0000 0.10050  0.54170  0.82020  Biso   1.000  H
  H31      1.0000 0.59080  0.80940  0.51360  Biso   1.000  H
  H32      1.0000 0.39630  0.69880  0.48180  Biso   1.000  H
  H33      1.0000 0.13550  0.67130  0.29640  Biso   1.000  H
  H34      1.0000 0.66850  0.36980  0.87480  Biso   1.000  H
  H35      1.0000 0.83010  0.57840  0.06470  Biso   1.000  H
  H36      1.0000 0.04130  0.59940  0.18710  Biso   1.000  H
  H37      1.0000 0.23190  0.77930  0.21470  Biso   1.000  H
  H38      1.0000 0.71280  0.53520  0.03950  Biso   1.000  H
  H39      1.0000 0.54000  0.62340  0.73000  Biso   1.000  H
  H40      1.0000 0.10840  0.13430  0.71380  Biso   1.000  H
  H41      1.0000 0.09700  0.94160  0.58250  Biso   1.000  H
  H42      1.0000 0.71510  0.90710  0.51410  Biso   1.000  H
  H43      1.0000 0.01100  0.07190  0.61320  Biso   1.000  H
  H44      1.0000 0.89900  0.78490  0.41070  Biso   1.000  H
  H45      1.0000 0.51220  0.43080  0.62130  Biso   1.000  H
  H46      1.0000 0.91760  0.08230  0.55400  Biso   1.000  H
  H47      1.0000 0.88950  0.86820  0.49380  Biso   1.000  H
  H48      1.0000 0.81300  0.88870  0.52730  Biso   1.000  H
  H49      1.0000 0.82020  0.10050  0.54170  Biso   1.000  H
  H50      1.0000 0.51360  0.59080  0.80940  Biso   1.000  H
  H51      1.0000 0.48180  0.39630  0.69880  Biso   1.000  H
  H52      1.0000 0.29640  0.13550  0.67130  Biso   1.000  H
  H53      1.0000 0.87480  0.66850  0.36980  Biso   1.000  H
  H54      1.0000 0.06470  0.83010  0.57840  Biso   1.000  H
  H55      1.0000 0.18710  0.04130  0.59940  Biso   1.000  H
  H56      1.0000 0.21470  0.23190  0.77930  Biso   1.000  H
  H57      1.0000 0.03950  0.71280  0.53520  Biso   1.000  H
  H58      1.0000 0.27000  0.46000  0.37660  Biso   1.000  H
  H59      1.0000 0.28620  0.89160  0.86570  Biso   1.000  H
  H60      1.0000 0.41750  0.90300  0.05840  Biso   1.000  H
  H61      1.0000 0.48590  0.28490  0.09290  Biso   1.000  H
  H62      1.0000 0.38680  0.98900  0.92810  Biso   1.000  H
  H63      1.0000 0.58930  0.10100  0.21510  Biso   1.000  H
  H64      1.0000 0.37870  0.48780  0.56920  Biso   1.000  H
  H65      1.0000 0.44600  0.08240  0.91770  Biso   1.000  H
  H66      1.0000 0.50620  0.11050  0.13180  Biso   1.000  H
  H67      1.0000 0.47270  0.18700  0.11130  Biso   1.000  H
  H68      1.0000 0.45830  0.17980  0.89950  Biso   1.000  H
  H69      1.0000 0.19060  0.48640  0.40920  Biso   1.000  H
  H70      1.0000 0.30120  0.51820  0.60370  Biso   1.000  H
  H71      1.0000 0.32870  0.70360  0.86450  Biso   1.000  H
  H72      1.0000 0.63020  0.12520  0.33150  Biso   1.000  H
  H73      1.0000 0.42160  0.93530  0.16990  Biso   1.000  H
  H74      1.0000 0.40060  0.81290  0.95870  Biso   1.000  H
  H75      1.0000 0.22070  0.78530  0.76810  Biso   1.000  H
  H76      1.0000 0.46480  0.96050  0.28720  Biso   1.000  H
  H77      1.0000 0.37660  0.27000  0.46000  Biso   1.000  H
  H78      1.0000 0.86570  0.28620  0.89160  Biso   1.000  H
  H79      1.0000 0.05840  0.41750  0.90300  Biso   1.000  H
  H80      1.0000 0.09290  0.48590  0.28490  Biso   1.000  H
  H81      1.0000 0.92810  0.38680  0.98900  Biso   1.000  H
  H82      1.0000 0.21510  0.58930  0.10100  Biso   1.000  H
  H83      1.0000 0.56920  0.37870  0.48780  Biso   1.000  H
  H84      1.0000 0.91770  0.44600  0.08240  Biso   1.000  H
  H85      1.0000 0.13180  0.50620  0.11050  Biso   1.000  H
  H86      1.0000 0.11130  0.47270  0.18700  Biso   1.000  H
  H87      1.0000 0.89950  0.45830  0.17980  Biso   1.000  H
  H88      1.0000 0.40920  0.19060  0.48640  Biso   1.000  H
  H89      1.0000 0.60370  0.30120  0.51820  Biso   1.000  H
  H90      1.0000 0.86450  0.32870  0.70360  Biso   1.000  H
  H91      1.0000 0.33150  0.63020  0.12520  Biso   1.000  H
  H92      1.0000 0.16990  0.42160  0.93530  Biso   1.000  H
  H93      1.0000 0.95870  0.40060  0.81290  Biso   1.000  H
  H94      1.0000 0.76810  0.22070  0.78530  Biso   1.000  H
  H95      1.0000 0.28720  0.46480  0.96050  Biso   1.000  H
  H96      1.0000 0.46000  0.37660  0.27000  Biso   1.000  H
  H97      1.0000 0.89160  0.86570  0.28620  Biso   1.000  H
  H98      1.0000 0.90300  0.05840  0.41750  Biso   1.000  H
  H99      1.0000 0.28490  0.09290  0.48590  Biso   1.000  H
  H100     1.0000 0.98900  0.92810  0.38680  Biso   1.000  H
  H101     1.0000 0.10100  0.21510  0.58930  Biso   1.000  H
  H102     1.0000 0.48780  0.56920  0.37870  Biso   1.000  H
  H103     1.0000 0.08240  0.91770  0.44600  Biso   1.000  H
  H104     1.0000 0.11050  0.13180  0.50620  Biso   1.000  H
  H105     1.0000 0.18700  0.11130  0.47270  Biso   1.000  H
  H106     1.0000 0.17980  0.89950  0.45830  Biso   1.000  H
  H107     1.0000 0.48640  0.40920  0.19060  Biso   1.000  H
  H108     1.0000 0.51820  0.60370  0.30120  Biso   1.000  H
  H109     1.0000 0.70360  0.86450  0.32870  Biso   1.000  H
  H110     1.0000 0.12520  0.33150  0.63020  Biso   1.000  H
  H111     1.0000 0.93530  0.16990  0.42160  Biso   1.000  H
  H112     1.0000 0.81290  0.95870  0.40060  Biso   1.000  H
  H113     1.0000 0.78530  0.76810  0.22070  Biso   1.000  H
  H114     1.0000 0.96050  0.28720  0.46480  Biso   1.000  H
  C1       1.0000 0.72434  0.52966  0.57820  Biso   1.000  C
  C2       1.0000 0.70370  0.14550  0.13490  Biso   1.000  C
  C3       1.0000 0.64884  0.13545  0.07831  Biso   1.000  C
  C4       1.0000 0.57396  0.05752  0.94912  Biso   1.000  C
  C5       1.0000 0.52188  0.75561  0.94215  Biso   1.000  C
  C6       1.0000 0.59288  0.00607  0.02695  Biso   1.000  C
  C7       1.0000 0.60351  0.06492  0.01687  Biso   1.000  C
  C8       1.0000 0.43729  0.92696  0.77085  Biso   1.000  C
  C9       1.0000 0.50094  0.98191  0.81965  Biso   1.000  C
  C10      1.0000 0.53235  0.99242  0.89353  Biso   1.000  C
  C11      1.0000 0.65913  0.51262  0.46305  Biso   1.000  C
  C12      1.0000 0.54646  0.87720  0.04714  Biso   1.000  C
  C13      1.0000 0.78045  0.33762  0.25483  Biso   1.000  C
  C14      1.0000 0.52190  0.93356  0.90554  Biso   1.000  C
  C15      1.0000 0.54367  0.87643  0.98404  Biso   1.000  C
  C16      1.0000 0.55286  0.93981  0.97243  Biso   1.000  C
  C17      1.0000 0.53046  0.81483  0.93141  Biso   1.000  C
  C18      1.0000 0.81761  0.48328  0.47005  Biso   1.000  C
  C19      1.0000 0.53818  0.81848  0.05774  Biso   1.000  C
  C20      1.0000 0.52476  0.75694  0.00472  Biso   1.000  C
  C21      1.0000 0.51638  0.69383  0.01729  Biso   1.000  C
  C22      1.0000 0.77174  0.51329  0.55857  Biso   1.000  C
  C23      1.0000 0.61996  0.55330  0.55382  Biso   1.000  C
  C24      1.0000 0.70588  0.49471  0.44213  Biso   1.000  C
  C25      1.0000 0.59780  0.59733  0.53162  Biso   1.000  C
  C26      1.0000 0.66798  0.53092  0.53076  Biso   1.000  C
  C27      1.0000 0.76338  0.49625  0.49058  Biso   1.000  C
  C28      1.0000 0.45065  0.95469  0.68026  Biso   1.000  C
  C29      1.0000 0.73265  0.26721  0.19244  Biso   1.000  C
  C30      1.0000 0.67922  0.25851  0.13607  Biso   1.000  C
  C31      1.0000 0.41234  0.91274  0.70112  Biso   1.000  C
  C32      1.0000 0.53682  0.02541  0.79787  Biso   1.000  C
  C33      1.0000 0.63641  0.19276  0.07903  Biso   1.000  C
  C34      1.0000 0.74440  0.20970  0.19290  Biso   1.000  C
  C35      1.0000 0.51049  0.01026  0.72715  Biso   1.000  C
  C36      1.0000 0.42391  0.93309  0.60170  Biso   1.000  C
  C37      1.0000 0.79390  0.18640  0.46400  Biso   1.000  C
  C38      1.0000 0.84100  0.31850  0.49630  Biso   1.000  C
  C39      1.0000 0.79810  0.23520  0.37980  Biso   1.000  C
  C40      1.0000 0.86840  0.32630  0.57630  Biso   1.000  C
  C41      1.0000 0.57820  0.72434  0.52966  Biso   1.000  C
  C42      1.0000 0.13490  0.70370  0.14550  Biso   1.000  C
  C43      1.0000 0.07831  0.64884  0.13545  Biso   1.000  C
  C44      1.0000 0.94912  0.57396  0.05752  Biso   1.000  C
  C45      1.0000 0.94215  0.52188  0.75561  Biso   1.000  C
  C46      1.0000 0.02695  0.59288  0.00607  Biso   1.000  C
  C47      1.0000 0.01687  0.60351  0.06492  Biso   1.000  C
  C48      1.0000 0.77085  0.43729  0.92696  Biso   1.000  C
  C49      1.0000 0.81965  0.50094  0.98191  Biso   1.000  C
  C50      1.0000 0.89353  0.53235  0.99242  Biso   1.000  C
  C51      1.0000 0.46305  0.65913  0.51262  Biso   1.000  C
  C52      1.0000 0.04714  0.54646  0.87720  Biso   1.000  C
  C53      1.0000 0.25483  0.78045  0.33762  Biso   1.000  C
  C54      1.0000 0.90554  0.52190  0.93356  Biso   1.000  C
  C55      1.0000 0.98404  0.54367  0.87643  Biso   1.000  C
  C56      1.0000 0.97243  0.55286  0.93981  Biso   1.000  C
  C57      1.0000 0.93141  0.53046  0.81483  Biso   1.000  C
  C58      1.0000 0.47005  0.81761  0.48328  Biso   1.000  C
  C59      1.0000 0.05774  0.53818  0.81848  Biso   1.000  C
  C60      1.0000 0.00472  0.52476  0.75694  Biso   1.000  C
  C61      1.0000 0.01729  0.51638  0.69383  Biso   1.000  C
  C62      1.0000 0.55857  0.77174  0.51329  Biso   1.000  C
  C63      1.0000 0.55382  0.61996  0.55330  Biso   1.000  C
  C64      1.0000 0.44213  0.70588  0.49471  Biso   1.000  C
  C65      1.0000 0.53162  0.59780  0.59733  Biso   1.000  C
  C66      1.0000 0.53076  0.66798  0.53092  Biso   1.000  C
  C67      1.0000 0.49058  0.76338  0.49625  Biso   1.000  C
  C68      1.0000 0.68026  0.45065  0.95469  Biso   1.000  C
  C69      1.0000 0.19244  0.73265  0.26721  Biso   1.000  C
  C70      1.0000 0.13607  0.67922  0.25851  Biso   1.000  C
  C71      1.0000 0.70112  0.41234  0.91274  Biso   1.000  C
  C72      1.0000 0.79787  0.53682  0.02541  Biso   1.000  C
  C73      1.0000 0.07903  0.63641  0.19276  Biso   1.000  C
  C74      1.0000 0.19290  0.74440  0.20970  Biso   1.000  C
  C75      1.0000 0.72715  0.51049  0.01026  Biso   1.000  C
  C76      1.0000 0.60170  0.42391  0.93309  Biso   1.000  C
  C77      1.0000 0.46400  0.79390  0.18640  Biso   1.000  C
  C78      1.0000 0.49630  0.84100  0.31850  Biso   1.000  C
  C79      1.0000 0.37980  0.79810  0.23520  Biso   1.000  C
  C80      1.0000 0.57630  0.86840  0.32630  Biso   1.000  C
  C81      1.0000 0.52966  0.57820  0.72434  Biso   1.000  C
  C82      1.0000 0.14550  0.13490  0.70370  Biso   1.000  C
  C83      1.0000 0.13545  0.07831  0.64884  Biso   1.000  C
  C84      1.0000 0.05752  0.94912  0.57396  Biso   1.000  C
  C85      1.0000 0.75561  0.94215  0.52188  Biso   1.000  C
  C86      1.0000 0.00607  0.02695  0.59288  Biso   1.000  C
  C87      1.0000 0.06492  0.01687  0.60351  Biso   1.000  C
  C88      1.0000 0.92696  0.77085  0.43729  Biso   1.000  C
  C89      1.0000 0.98191  0.81965  0.50094  Biso   1.000  C
  C90      1.0000 0.99242  0.89353  0.53235  Biso   1.000  C
  C91      1.0000 0.51262  0.46305  0.65913  Biso   1.000  C
  C92      1.0000 0.87720  0.04714  0.54646  Biso   1.000  C
  C93      1.0000 0.33762  0.25483  0.78045  Biso   1.000  C
  C94      1.0000 0.93356  0.90554  0.52190  Biso   1.000  C
  C95      1.0000 0.87643  0.98404  0.54367  Biso   1.000  C
  C96      1.0000 0.93981  0.97243  0.55286  Biso   1.000  C
  C97      1.0000 0.81483  0.93141  0.53046  Biso   1.000  C
  C98      1.0000 0.48328  0.47005  0.81761  Biso   1.000  C
  C99      1.0000 0.81848  0.05774  0.53818  Biso   1.000  C
  C100     1.0000 0.75694  0.00472  0.52476  Biso   1.000  C
  C101     1.0000 0.69383  0.01729  0.51638  Biso   1.000  C
  C102     1.0000 0.51329  0.55857  0.77174  Biso   1.000  C
  C103     1.0000 0.55330  0.55382  0.61996  Biso   1.000  C
  C104     1.0000 0.49471  0.44213  0.70588  Biso   1.000  C
  C105     1.0000 0.59733  0.53162  0.59780  Biso   1.000  C
  C106     1.0000 0.53092  0.53076  0.66798  Biso   1.000  C
  C107     1.0000 0.49625  0.49058  0.76338  Biso   1.000  C
  C108     1.0000 0.95469  0.68026  0.45065  Biso   1.000  C
  C109     1.0000 0.26721  0.19244  0.73265  Biso   1.000  C
  C110     1.0000 0.25851  0.13607  0.67922  Biso   1.000  C
  C111     1.0000 0.91274  0.70112  0.41234  Biso   1.000  C
  C112     1.0000 0.02541  0.79787  0.53682  Biso   1.000  C
  C113     1.0000 0.19276  0.07903  0.63641  Biso   1.000  C
  C114     1.0000 0.20970  0.19290  0.74440  Biso   1.000  C
  C115     1.0000 0.01026  0.72715  0.51049  Biso   1.000  C
  C116     1.0000 0.93309  0.60170  0.42391  Biso   1.000  C
  C117     1.0000 0.18640  0.46400  0.79390  Biso   1.000  C
  C118     1.0000 0.31850  0.49630  0.84100  Biso   1.000  C
  C119     1.0000 0.23520  0.37980  0.79810  Biso   1.000  C
  C120     1.0000 0.32630  0.57630  0.86840  Biso   1.000  C
  C121     1.0000 0.27566  0.47034  0.42180  Biso   1.000  C
  C122     1.0000 0.29630  0.85450  0.86510  Biso   1.000  C
  C123     1.0000 0.35116  0.86455  0.92169  Biso   1.000  C
  C124     1.0000 0.42604  0.94248  0.05088  Biso   1.000  C
  C125     1.0000 0.47812  0.24439  0.05785  Biso   1.000  C
  C126     1.0000 0.40712  0.99393  0.97305  Biso   1.000  C
  C127     1.0000 0.39649  0.93508  0.98313  Biso   1.000  C
  C128     1.0000 0.56271  0.07304  0.22915  Biso   1.000  C
  C129     1.0000 0.49906  0.01809  0.18035  Biso   1.000  C
  C130     1.0000 0.46765  0.00758  0.10647  Biso   1.000  C
  C131     1.0000 0.34087  0.48738  0.53695  Biso   1.000  C
  C132     1.0000 0.45354  0.12280  0.95286  Biso   1.000  C
  C133     1.0000 0.21955  0.66238  0.74517  Biso   1.000  C
  C134     1.0000 0.47810  0.06644  0.09446  Biso   1.000  C
  C135     1.0000 0.45633  0.12357  0.01596  Biso   1.000  C
  C136     1.0000 0.44714  0.06019  0.02757  Biso   1.000  C
  C137     1.0000 0.46954  0.18517  0.06859  Biso   1.000  C
  C138     1.0000 0.18239  0.51672  0.52995  Biso   1.000  C
  C139     1.0000 0.46182  0.18152  0.94226  Biso   1.000  C
  C140     1.0000 0.47524  0.24306  0.99528  Biso   1.000  C
  C141     1.0000 0.48362  0.30617  0.98271  Biso   1.000  C
  C142     1.0000 0.22826  0.48671  0.44143  Biso   1.000  C
  C143     1.0000 0.38004  0.44670  0.44618  Biso   1.000  C
  C144     1.0000 0.29412  0.50529  0.55787  Biso   1.000  C
  C145     1.0000 0.40220  0.40267  0.46838  Biso   1.000  C
  C146     1.0000 0.33202  0.46908  0.46924  Biso   1.000  C
  C147     1.0000 0.23662  0.50375  0.50942  Biso   1.000  C
  C148     1.0000 0.54935  0.04531  0.31974  Biso   1.000  C
  C149     1.0000 0.26735  0.73279  0.80756  Biso   1.000  C
  C150     1.0000 0.32078  0.74149  0.86393  Biso   1.000  C
  C151     1.0000 0.58766  0.08726  0.29888  Biso   1.000  C
  C152     1.0000 0.46318  0.97459  0.20213  Biso   1.000  C
  C153     1.0000 0.36359  0.80724  0.92097  Biso   1.000  C
  C154     1.0000 0.25560  0.79030  0.80710  Biso   1.000  C
  C155     1.0000 0.48951  0.98974  0.27285  Biso   1.000  C
  C156     1.0000 0.57609  0.06691  0.39830  Biso   1.000  C
  C157     1.0000 0.20610  0.81360  0.53600  Biso   1.000  C
  C158     1.0000 0.15900  0.68150  0.50370  Biso   1.000  C
  C159     1.0000 0.20190  0.76480  0.62020  Biso   1.000  C
  C160     1.0000 0.13160  0.67370  0.42370  Biso   1.000  C
  C161     1.0000 0.42180  0.27566  0.47034  Biso   1.000  C
  C162     1.0000 0.86510  0.29630  0.85450  Biso   1.000  C
  C163     1.0000 0.92169  0.35116  0.86455  Biso   1.000  C
  C164     1.0000 0.05088  0.42604  0.94248  Biso   1.000  C
  C165     1.0000 0.05785  0.47812  0.24439  Biso   1.000  C
  C166     1.0000 0.97305  0.40712  0.99393  Biso   1.000  C
  C167     1.0000 0.98313  0.39649  0.93508  Biso   1.000  C
  C168     1.0000 0.22915  0.56271  0.07304  Biso   1.000  C
  C169     1.0000 0.18035  0.49906  0.01809  Biso   1.000  C
  C170     1.0000 0.10647  0.46765  0.00758  Biso   1.000  C
  C171     1.0000 0.53695  0.34087  0.48738  Biso   1.000  C
  C172     1.0000 0.95286  0.45354  0.12280  Biso   1.000  C
  C173     1.0000 0.74517  0.21955  0.66238  Biso   1.000  C
  C174     1.0000 0.09446  0.47810  0.06644  Biso   1.000  C
  C175     1.0000 0.01596  0.45633  0.12357  Biso   1.000  C
  C176     1.0000 0.02757  0.44714  0.06019  Biso   1.000  C
  C177     1.0000 0.06859  0.46954  0.18517  Biso   1.000  C
  C178     1.0000 0.52995  0.18239  0.51672  Biso   1.000  C
  C179     1.0000 0.94226  0.46182  0.18152  Biso   1.000  C
  C180     1.0000 0.99528  0.47524  0.24306  Biso   1.000  C
  C181     1.0000 0.98271  0.48362  0.30617  Biso   1.000  C
  C182     1.0000 0.44143  0.22826  0.48671  Biso   1.000  C
  C183     1.0000 0.44618  0.38004  0.44670  Biso   1.000  C
  C184     1.0000 0.55787  0.29412  0.50529  Biso   1.000  C
  C185     1.0000 0.46838  0.40220  0.40267  Biso   1.000  C
  C186     1.0000 0.46924  0.33202  0.46908  Biso   1.000  C
  C187     1.0000 0.50942  0.23662  0.50375  Biso   1.000  C
  C188     1.0000 0.31974  0.54935  0.04531  Biso   1.000  C
  C189     1.0000 0.80756  0.26735  0.73279  Biso   1.000  C
  C190     1.0000 0.86393  0.32078  0.74149  Biso   1.000  C
  C191     1.0000 0.29888  0.58766  0.08726  Biso   1.000  C
  C192     1.0000 0.20213  0.46318  0.97459  Biso   1.000  C
  C193     1.0000 0.92097  0.36359  0.80724  Biso   1.000  C
  C194     1.0000 0.80710  0.25560  0.79030  Biso   1.000  C
  C195     1.0000 0.27285  0.48951  0.98974  Biso   1.000  C
  C196     1.0000 0.39830  0.57609  0.06691  Biso   1.000  C
  C197     1.0000 0.53600  0.20610  0.81360  Biso   1.000  C
  C198     1.0000 0.50370  0.15900  0.68150  Biso   1.000  C
  C199     1.0000 0.62020  0.20190  0.76480  Biso   1.000  C
  C200     1.0000 0.42370  0.13160  0.67370  Biso   1.000  C
  C201     1.0000 0.47034  0.42180  0.27566  Biso   1.000  C
  C202     1.0000 0.85450  0.86510  0.29630  Biso   1.000  C
  C203     1.0000 0.86455  0.92169  0.35116  Biso   1.000  C
  C204     1.0000 0.94248  0.05088  0.42604  Biso   1.000  C
  C205     1.0000 0.24439  0.05785  0.47812  Biso   1.000  C
  C206     1.0000 0.99393  0.97305  0.40712  Biso   1.000  C
  C207     1.0000 0.93508  0.98313  0.39649  Biso   1.000  C
  C208     1.0000 0.07304  0.22915  0.56271  Biso   1.000  C
  C209     1.0000 0.01809  0.18035  0.49906  Biso   1.000  C
  C210     1.0000 0.00758  0.10647  0.46765  Biso   1.000  C
  C211     1.0000 0.48738  0.53695  0.34087  Biso   1.000  C
  C212     1.0000 0.12280  0.95286  0.45354  Biso   1.000  C
  C213     1.0000 0.66238  0.74517  0.21955  Biso   1.000  C
  C214     1.0000 0.06644  0.09446  0.47810  Biso   1.000  C
  C215     1.0000 0.12357  0.01596  0.45633  Biso   1.000  C
  C216     1.0000 0.06019  0.02757  0.44714  Biso   1.000  C
  C217     1.0000 0.18517  0.06859  0.46954  Biso   1.000  C
  C218     1.0000 0.51672  0.52995  0.18239  Biso   1.000  C
  C219     1.0000 0.18152  0.94226  0.46182  Biso   1.000  C
  C220     1.0000 0.24306  0.99528  0.47524  Biso   1.000  C
  C221     1.0000 0.30617  0.98271  0.48362  Biso   1.000  C
  C222     1.0000 0.48671  0.44143  0.22826  Biso   1.000  C
  C223     1.0000 0.44670  0.44618  0.38004  Biso   1.000  C
  C224     1.0000 0.50529  0.55787  0.29412  Biso   1.000  C
  C225     1.0000 0.40267  0.46838  0.40220  Biso   1.000  C
  C226     1.0000 0.46908  0.46924  0.33202  Biso   1.000  C
  C227     1.0000 0.50375  0.50942  0.23662  Biso   1.000  C
  C228     1.0000 0.04531  0.31974  0.54935  Biso   1.000  C
  C229     1.0000 0.73279  0.80756  0.26735  Biso   1.000  C
  C230     1.0000 0.74149  0.86393  0.32078  Biso   1.000  C
  C231     1.0000 0.08726  0.29888  0.58766  Biso   1.000  C
  C232     1.0000 0.97459  0.20213  0.46318  Biso   1.000  C
  C233     1.0000 0.80724  0.92097  0.36359  Biso   1.000  C
  C234     1.0000 0.79030  0.80710  0.25560  Biso   1.000  C
  C235     1.0000 0.98974  0.27285  0.48951  Biso   1.000  C
  C236     1.0000 0.06691  0.39830  0.57609  Biso   1.000  C
  C237     1.0000 0.81360  0.53600  0.20610  Biso   1.000  C
  C238     1.0000 0.68150  0.50370  0.15900  Biso   1.000  C
  C239     1.0000 0.76480  0.62020  0.20190  Biso   1.000  C
  C240     1.0000 0.67370  0.42370  0.13160  Biso   1.000  C
  N1       1.0000 0.81030  0.24950  0.44960  Biso   1.000  N
  N2       1.0000 0.44960  0.81030  0.24950  Biso   1.000  N
  N3       1.0000 0.24950  0.44960  0.81030  Biso   1.000  N
  N4       1.0000 0.18970  0.75050  0.55040  Biso   1.000  N
  N5       1.0000 0.55040  0.18970  0.75050  Biso   1.000  N
  N6       1.0000 0.75050  0.55040  0.18970  Biso   1.000  N
  O1       1.0000 0.87656  0.50528  0.51792  Biso   1.000  O
  O2       1.0000 0.86550  0.36291  0.48619  Biso   1.000  O
  O3       1.0000 0.49457  0.63743  0.96587  Biso   1.000  O
  O4       1.0000 0.82891  0.34096  0.30437  Biso   1.000  O
  O5       1.0000 0.77173  0.38943  0.25539  Biso   1.000  O
  O6       1.0000 0.53135  0.70363  0.07916  Biso   1.000  O
  O7       1.0000 0.79940  0.45300  0.40634  Biso   1.000  O
  O8       1.0000 0.94980  0.44834  0.43259  Biso   1.000  O
  O9       1.0000 0.45397  0.97853  0.58650  Biso   1.000  O
  O10      1.0000 0.37727  0.87782  0.55901  Biso   1.000  O
  O11      1.0000 0.51792  0.87656  0.50528  Biso   1.000  O
  O12      1.0000 0.48619  0.86550  0.36291  Biso   1.000  O
  O13      1.0000 0.96587  0.49457  0.63743  Biso   1.000  O
  O14      1.0000 0.30437  0.82891  0.34096  Biso   1.000  O
  O15      1.0000 0.25539  0.77173  0.38943  Biso   1.000  O
  O16      1.0000 0.07916  0.53135  0.70363  Biso   1.000  O
  O17      1.0000 0.40634  0.79940  0.45300  Biso   1.000  O
  O18      1.0000 0.43259  0.94980  0.44834  Biso   1.000  O
  O19      1.0000 0.58650  0.45397  0.97853  Biso   1.000  O
  O20      1.0000 0.55901  0.37727  0.87782  Biso   1.000  O
  O21      1.0000 0.50528  0.51792  0.87656  Biso   1.000  O
  O22      1.0000 0.36291  0.48619  0.86550  Biso   1.000  O
  O23      1.0000 0.63743  0.96587  0.49457  Biso   1.000  O
  O24      1.0000 0.34096  0.30437  0.82891  Biso   1.000  O
  O25      1.0000 0.38943  0.25539  0.77173  Biso   1.000  O
  O26      1.0000 0.70363  0.07916  0.53135  Biso   1.000  O
  O27      1.0000 0.45300  0.40634  0.79940  Biso   1.000  O
  O28      1.0000 0.44834  0.43259  0.94980  Biso   1.000  O
  O29      1.0000 0.97853  0.58650  0.45397  Biso   1.000  O
  O30      1.0000 0.87782  0.55901  0.37727  Biso   1.000  O
  O31      1.0000 0.12344  0.49472  0.48208  Biso   1.000  O
  O32      1.0000 0.13450  0.63709  0.51381  Biso   1.000  O
  O33      1.0000 0.50543  0.36257  0.03413  Biso   1.000  O
  O34      1.0000 0.17109  0.65904  0.69563  Biso   1.000  O
  O35      1.0000 0.22827  0.61057  0.74461  Biso   1.000  O
  O36      1.0000 0.46865  0.29637  0.92084  Biso   1.000  O
  O37      1.0000 0.20060  0.54700  0.59366  Biso   1.000  O
  O38      1.0000 0.05020  0.55166  0.56741  Biso   1.000  O
  O39      1.0000 0.54603  0.02147  0.41350  Biso   1.000  O
  O40      1.0000 0.62273  0.12218  0.44099  Biso   1.000  O
  O41      1.0000 0.48208  0.12344  0.49472  Biso   1.000  O
  O42      1.0000 0.51381  0.13450  0.63709  Biso   1.000  O
  O43      1.0000 0.03413  0.50543  0.36257  Biso   1.000  O
  O44      1.0000 0.69563  0.17109  0.65904  Biso   1.000  O
  O45      1.0000 0.74461  0.22827  0.61057  Biso   1.000  O
  O46      1.0000 0.92084  0.46865  0.29637  Biso   1.000  O
  O47      1.0000 0.59366  0.20060  0.54700  Biso   1.000  O
  O48      1.0000 0.56741  0.05020  0.55166  Biso   1.000  O
  O49      1.0000 0.41350  0.54603  0.02147  Biso   1.000  O
  O50      1.0000 0.44099  0.62273  0.12218  Biso   1.000  O
  O51      1.0000 0.49472  0.48208  0.12344  Biso   1.000  O
  O52      1.0000 0.63709  0.51381  0.13450  Biso   1.000  O
  O53      1.0000 0.36257  0.03413  0.50543  Biso   1.000  O
  O54      1.0000 0.65904  0.69563  0.17109  Biso   1.000  O
  O55      1.0000 0.61057  0.74461  0.22827  Biso   1.000  O
  O56      1.0000 0.29637  0.92084  0.46865  Biso   1.000  O
  O57      1.0000 0.54700  0.59366  0.20060  Biso   1.000  O
  O58      1.0000 0.55166  0.56741  0.05020  Biso   1.000  O
  O59      1.0000 0.02147  0.41350  0.54603  Biso   1.000  O
  O60      1.0000 0.12218  0.44099  0.62273  Biso   1.000  O
