data_image0
_cell_length_a       8.6631
_cell_length_b       14.2422
_cell_length_c       14.5497
_cell_angle_alpha    113.513
_cell_angle_beta     107.32
_cell_angle_gamma    90

_symmetry_space_group_name_H-M    P 1
_symmetry_int_tables_number       1

loop_
  _symmetry_equiv_pos_as_xyz
  'x, y, z'

loop_
  _atom_site_label
  _atom_site_occupancy
  _atom_site_fract_x
  _atom_site_fract_y
  _atom_site_fract_z
  _atom_site_thermal_displace_type
  _atom_site_B_iso_or_equiv
  _atom_site_type_symbol
  Nd1      1.0000 0.11549  0.00502  0.54716  Biso   1.000  Nd
  Nd2      1.0000 0.56833  0.99498  0.45284  Biso   1.000  Nd
  H1       1.0000 0.11030  0.29280  0.48700  Biso   1.000  H
  H2       1.0000 0.09510  0.44910  0.47320  Biso   1.000  H
  H3       1.0000 0.61690  0.36550  0.31340  Biso   1.000  H
  H4       1.0000 0.62830  0.21210  0.33280  Biso   1.000  H
  H5       1.0000 0.02770  0.60960  0.52140  Biso   1.000  H
  H6       1.0000 0.99530  0.77020  0.52160  Biso   1.000  H
  H7       1.0000 0.62290  0.64200  0.24960  Biso   1.000  H
  H8       1.0000 0.65590  0.47980  0.24700  Biso   1.000  H
  H9       1.0000 0.35260  0.71290  0.22440  Biso   1.000  H
  H10      1.0000 0.27660  0.55720  0.07580  Biso   1.000  H
  H11      1.0000 0.81010  0.57530  0.05740  Biso   1.000  H
  H12      1.0000 0.88610  0.73090  0.20540  Biso   1.000  H
  H13      1.0000 0.87350  0.97080  0.68560  Biso   1.000  H
  H14      1.0000 0.76000  0.92400  0.79020  Biso   1.000  H
  H15      1.0000 0.86740  0.89080  0.87680  Biso   1.000  H
  H16      1.0000 0.78620  0.80790  0.76020  Biso   1.000  H
  H17      1.0000 0.04090  0.79150  0.84040  Biso   1.000  H
  H18      1.0000 0.19210  0.84810  0.83620  Biso   1.000  H
  H19      1.0000 0.07340  0.76100  0.73240  Biso   1.000  H
  H20      1.0000 0.62330  0.70720  0.51300  Biso   1.000  H
  H21      1.0000 0.62190  0.55090  0.52680  Biso   1.000  H
  H22      1.0000 0.30350  0.63450  0.68660  Biso   1.000  H
  H23      1.0000 0.29550  0.78790  0.66720  Biso   1.000  H
  H24      1.0000 0.50630  0.39040  0.47860  Biso   1.000  H
  H25      1.0000 0.47370  0.22980  0.47840  Biso   1.000  H
  H26      1.0000 0.37330  0.35800  0.75040  Biso   1.000  H
  H27      1.0000 0.40890  0.52020  0.75300  Biso   1.000  H
  H28      1.0000 0.12820  0.28710  0.77560  Biso   1.000  H
  H29      1.0000 0.20080  0.44280  0.92420  Biso   1.000  H
  H30      1.0000 0.75270  0.42470  0.94260  Biso   1.000  H
  H31      1.0000 0.68070  0.26910  0.79460  Biso   1.000  H
  H32      1.0000 0.18790  0.02920  0.31440  Biso   1.000  H
  H33      1.0000 0.96980  0.07600  0.20980  Biso   1.000  H
  H34      1.0000 0.99060  0.10920  0.12320  Biso   1.000  H
  H35      1.0000 0.02600  0.19210  0.23980  Biso   1.000  H
  H36      1.0000 0.20050  0.20850  0.15960  Biso   1.000  H
  H37      1.0000 0.35590  0.15190  0.16380  Biso   1.000  H
  H38      1.0000 0.34100  0.23900  0.26760  Biso   1.000  H
  C1       1.0000 0.87754  0.13850  0.42788  Biso   1.000  C
  C2       1.0000 0.86982  0.23740  0.41364  Biso   1.000  C
  C3       1.0000 0.01040  0.30820  0.45400  Biso   1.000  C
  C4       1.0000 0.00110  0.40180  0.44460  Biso   1.000  C
  C5       1.0000 0.85313  0.42580  0.39326  Biso   1.000  C
  C6       1.0000 0.71570  0.35220  0.35020  Biso   1.000  C
  C7       1.0000 0.72232  0.25930  0.36084  Biso   1.000  C
  C8       1.0000 0.84020  0.52740  0.38680  Biso   1.000  C
  C9       1.0000 0.94440  0.61590  0.46740  Biso   1.000  C
  C10      1.0000 0.92490  0.71240  0.46760  Biso   1.000  C
  C11      1.0000 0.80158  0.72360  0.38816  Biso   1.000  C
  C12      1.0000 0.70289  0.63550  0.30498  Biso   1.000  C
  C13      1.0000 0.72200  0.53790  0.30360  Biso   1.000  C
  C14      1.0000 0.76098  0.82820  0.39576  Biso   1.000  C
  C15      1.0000 0.17835  0.83880  0.32530  Biso   1.000  C
  C16      1.0000 0.12640  0.73850  0.22900  Biso   1.000  C
  C17      1.0000 0.24290  0.68600  0.19040  Biso   1.000  C
  C18      1.0000 0.19650  0.59230  0.10040  Biso   1.000  C
  C19      1.0000 0.03370  0.55050  0.04660  Biso   1.000  C
  C20      1.0000 0.91970  0.60300  0.08940  Biso   1.000  C
  C21      1.0000 0.96550  0.69660  0.17920  Biso   1.000  C
  C22      1.0000 0.96840  0.94600  0.71140  Biso   1.000  C
  C23      1.0000 0.83620  0.87820  0.80340  Biso   1.000  C
  C24      1.0000 0.08030  0.81700  0.79860  Biso   1.000  C
  C25      1.0000 0.44966  0.86150  0.57212  Biso   1.000  C
  C26      1.0000 0.45618  0.76260  0.58636  Biso   1.000  C
  C27      1.0000 0.55640  0.69180  0.54600  Biso   1.000  C
  C28      1.0000 0.55650  0.59820  0.55540  Biso   1.000  C
  C29      1.0000 0.45987  0.57420  0.60674  Biso   1.000  C
  C30      1.0000 0.36550  0.64780  0.64980  Biso   1.000  C
  C31      1.0000 0.36148  0.74070  0.63916  Biso   1.000  C
  C32      1.0000 0.45340  0.47260  0.61320  Biso   1.000  C
  C33      1.0000 0.47700  0.38410  0.53260  Biso   1.000  C
  C34      1.0000 0.45730  0.28760  0.53240  Biso   1.000  C
  C35      1.0000 0.41342  0.27640  0.61184  Biso   1.000  C
  C36      1.0000 0.39791  0.36450  0.69502  Biso   1.000  C
  C37      1.0000 0.41840  0.46210  0.69640  Biso   1.000  C
  C38      1.0000 0.36522  0.17180  0.60424  Biso   1.000  C
  C39      1.0000 0.85305  0.16120  0.67470  Biso   1.000  C
  C40      1.0000 0.89740  0.26150  0.77100  Biso   1.000  C
  C41      1.0000 0.05250  0.31400  0.80960  Biso   1.000  C
  C42      1.0000 0.09610  0.40770  0.89960  Biso   1.000  C
  C43      1.0000 0.98710  0.44950  0.95340  Biso   1.000  C
  C44      1.0000 0.83030  0.39700  0.91060  Biso   1.000  C
  C45      1.0000 0.78630  0.30340  0.82080  Biso   1.000  C
  C46      1.0000 0.25700  0.05400  0.28860  Biso   1.000  C
  C47      1.0000 0.03280  0.12180  0.19660  Biso   1.000  C
  C48      1.0000 0.28170  0.18300  0.20140  Biso   1.000  C
  N1       1.0000 0.97880  0.89640  0.77820  Biso   1.000  N
  N2       1.0000 0.20060  0.10360  0.22180  Biso   1.000  N
  O1       1.0000 0.01385  0.10810  0.44950  Biso   1.000  O
  O2       1.0000 0.74555  0.09320  0.41790  Biso   1.000  O
  O3       1.0000 0.84184  0.90910  0.47908  Biso   1.000  O
  O4       1.0000 0.64095  0.83530  0.32710  Biso   1.000  O
  O5       1.0000 0.07418  0.87790  0.36936  Biso   1.000  O
  O6       1.0000 0.32473  0.87760  0.35786  Biso   1.000  O
  O7       1.0000 0.09521  0.95540  0.68802  Biso   1.000  O
  O8       1.0000 0.56435  0.89190  0.55050  Biso   1.000  O
  O9       1.0000 0.32765  0.90680  0.58210  Biso   1.000  O
  O10      1.0000 0.36276  0.09090  0.52092  Biso   1.000  O
  O11      1.0000 0.31385  0.16470  0.67290  Biso   1.000  O
  O12      1.0000 0.70482  0.12210  0.63064  Biso   1.000  O
  O13      1.0000 0.96687  0.12240  0.64214  Biso   1.000  O
  O14      1.0000 0.40719  0.04460  0.31198  Biso   1.000  O
