data_WAYMOA_manual
_audit_creation_date              2014-07-02
_audit_creation_method            'Materials Studio'
_symmetry_space_group_name_H-M    'P1'
_symmetry_Int_Tables_number       1
_symmetry_cell_setting            triclinic
loop_
_symmetry_equiv_pos_as_xyz
  x,y,z
_cell_length_a                    6.6720
_cell_length_b                    16.9360
_cell_length_c                    12.8070
_cell_angle_alpha                 90.0000
_cell_angle_beta                  90.0000
_cell_angle_gamma                 90.0000
loop_
_atom_site_label
_atom_site_type_symbol
_atom_site_fract_x
_atom_site_fract_y
_atom_site_fract_z
_atom_site_U_iso_or_equiv
_atom_site_adp_type
_atom_site_occupancy
O1     O     0.17409   0.82909   0.16125   0.00000  Uiso   1.00
C2     C     0.82311   0.96743   0.03091   0.00000  Uiso   1.00
H3     H     0.68092   0.94214   0.05367   0.00000  Uiso   1.00
O4     O     0.67417   0.32902   0.66113   0.00000  Uiso   1.00
C5     C     0.32314   0.46722   0.53056   0.00000  Uiso   1.00
H6     H     0.18097   0.44186   0.55321   0.00000  Uiso   1.00
O7     O     0.83273   0.67555   0.16129   0.00000  Uiso   1.00
C8     C     0.18376   0.53711   0.03118   0.00000  Uiso   1.00
H9     H     0.32593   0.56241   0.05397   0.00000  Uiso   1.00
O10    O     0.33284   0.17548   0.66140   0.00000  Uiso   1.00
C11    C     0.68378   0.03698   0.53137   0.00000  Uiso   1.00
H12    H     0.82596   0.06227   0.55413   0.00000  Uiso   1.00
O13    O     0.83284   0.32909   0.83997   0.00000  Uiso   1.00
C14    C     0.18378   0.46735   0.97046   0.00000  Uiso   1.00
H15    H     0.32596   0.44203   0.94777   0.00000  Uiso   1.00
O16    O     0.33275   0.82901   0.34008   0.00000  Uiso   1.00
C17    C     0.68376   0.96721   0.47065   0.00000  Uiso   1.00
H18    H     0.82593   0.94189   0.44793   0.00000  Uiso   1.00
O19    O     0.17418   0.17556   0.83997   0.00000  Uiso   1.00
C20    C     0.82313   0.03719   0.97017   0.00000  Uiso   1.00
H21    H     0.68096   0.06251   0.94744   0.00000  Uiso   1.00
O22    O     0.67410   0.67553   0.33993   0.00000  Uiso   1.00
C23    C     0.32311   0.53699   0.46985   0.00000  Uiso   1.00
H24    H     0.18093   0.56226   0.44704   0.00000  Uiso   1.00
O25    O     0.83285   0.17556   0.83993   0.00000  Uiso   1.00
C26    C     0.18383   0.03712   0.97006   0.00000  Uiso   1.00
H27    H     0.32601   0.06238   0.94724   0.00000  Uiso   1.00
O28    O     0.33278   0.67549   0.33985   0.00000  Uiso   1.00
C29    C     0.68381   0.53705   0.46994   0.00000  Uiso   1.00
H30    H     0.82597   0.56237   0.44721   0.00000  Uiso   1.00
O31    O     0.17415   0.32909   0.84000   0.00000  Uiso   1.00
C32    C     0.82309   0.46734   0.97044   0.00000  Uiso   1.00
H33    H     0.68092   0.44201   0.94772   0.00000  Uiso   1.00
O34    O     0.67405   0.82902   0.34009   0.00000  Uiso   1.00
C35    C     0.32307   0.96721   0.47070   0.00000  Uiso   1.00
H36    H     0.18089   0.94188   0.44801   0.00000  Uiso   1.00
O37    O     0.17406   0.67554   0.16127   0.00000  Uiso   1.00
C38    C     0.82307   0.53710   0.03116   0.00000  Uiso   1.00
H39    H     0.68089   0.56239   0.05393   0.00000  Uiso   1.00
O40    O     0.67416   0.17548   0.66136   0.00000  Uiso   1.00
C41    C     0.32309   0.03697   0.53142   0.00000  Uiso   1.00
H42    H     0.18092   0.06226   0.55422   0.00000  Uiso   1.00
O43    O     0.83279   0.82913   0.16133   0.00000  Uiso   1.00
C44    C     0.18380   0.96736   0.03080   0.00000  Uiso   1.00
H45    H     0.32596   0.94201   0.05347   0.00000  Uiso   1.00
O46    O     0.33286   0.32903   0.66116   0.00000  Uiso   1.00
C47    C     0.68383   0.46728   0.53065   0.00000  Uiso   1.00
H48    H     0.82600   0.44198   0.55338   0.00000  Uiso   1.00
Al49   Al    0.25350   0.75232   0.25059   0.00000  Uiso   1.00
Al50   Al    0.75348   0.75233   0.25064   0.00000  Uiso   1.00
Al51   Al    0.75360   0.25233   0.75058   0.00000  Uiso   1.00
Al52   Al    0.25360   0.25233   0.75064   0.00000  Uiso   1.00
O53    O     0.00350   0.75236   0.30670   0.00000  Uiso   1.00
O54    O     0.50362   0.25242   0.80671   0.00000  Uiso   1.00
O55    O     0.00362   0.25238   0.69450   0.00000  Uiso   1.00
O56    O     0.50350   0.75240   0.19450   0.00000  Uiso   1.00
C57    C     0.00345   0.93095   0.06246   0.00000  Uiso   1.00
C58    C     0.00344   0.85815   0.13181   0.00000  Uiso   1.00
C59    C     0.50349   0.43080   0.56221   0.00000  Uiso   1.00
C60    C     0.50351   0.35804   0.63162   0.00000  Uiso   1.00
C61    C     0.00340   0.57361   0.06268   0.00000  Uiso   1.00
C62    C     0.00339   0.64648   0.13186   0.00000  Uiso   1.00
C63    C     0.50345   0.07348   0.56288   0.00000  Uiso   1.00
C64    C     0.50348   0.14639   0.63199   0.00000  Uiso   1.00
C65    C     0.00345   0.43090   0.93884   0.00000  Uiso   1.00
C66    C     0.00348   0.35812   0.86948   0.00000  Uiso   1.00
C67    C     0.50340   0.93077   0.43905   0.00000  Uiso   1.00
C68    C     0.50339   0.85803   0.36962   0.00000  Uiso   1.00
C69    C     0.00349   0.07364   0.93860   0.00000  Uiso   1.00
C70    C     0.00351   0.14650   0.86938   0.00000  Uiso   1.00
C71    C     0.50345   0.57353   0.43842   0.00000  Uiso   1.00
C72    C     0.50344   0.64643   0.36929   0.00000  Uiso   1.00
H73    H     0.50364   0.25253   0.87402   0.00000  Uiso   1.00
H74    H     1.00364   0.25243   0.62719   0.00000  Uiso   1.00
H75    H     1.00351   0.75239   0.37402   0.00000  Uiso   1.00
H76    H     0.50351   0.75249   0.12718   0.00000  Uiso   1.00
loop_
_geom_bond_atom_site_label_1
_geom_bond_atom_site_label_2
_geom_bond_distance
_geom_bond_site_symmetry_2
_ccdc_geom_bond_type
O1     Al49    1.811   .     S
O1     C58     1.296   .     A
C2     H3      1.081   .     S
C2     C57     1.412   1_655 S
C2     C20     1.415   1_564 A
O4     Al51    1.811   .     S
O4     C60     1.296   .     A
C5     C59     1.412   .     A
C5     C23     1.414   .     A
C5     H6      1.081   .     S
O7     Al50    1.811   .     S
O7     C62     1.297   1_655 S
C8     C61     1.412   .     A
C8     H9      1.081   .     S
C8     C14     1.414   1_554 S
O10    Al52    1.811   .     S
O10    C64     1.296   .     A
C11    C63     1.412   .     A
C11    H12     1.081   .     S
C11    C17     1.415   1_545 A
O13    Al51    1.811   .     S
O13    C66     1.296   1_655 A
C14    C65     1.412   .     A
C14    H15     1.081   .     S
C14    C8      1.414   1_556 S
O16    Al49    1.811   .     S
O16    C68     1.296   .     A
C17    C67     1.412   .     A
C17    H18     1.081   .     S
C17    C11     1.415   1_565 A
O19    Al52    1.811   .     S
O19    C70     1.296   .     A
C20    H21     1.081   .     S
C20    C2      1.415   1_546 A
C20    C69     1.412   1_655 S
O22    Al50    1.811   .     S
O22    C72     1.296   .     A
C23    C71     1.412   .     A
C23    H24     1.081   .     S
O25    Al51    1.811   .     S
O25    C70     1.297   1_655 S
C26    C69     1.412   .     A
C26    H27     1.081   .     S
C26    C44     1.415   1_546 S
O28    Al49    1.811   .     S
O28    C72     1.296   .     A
C29    C71     1.412   .     A
C29    C47     1.414   .     A
C29    H30     1.081   .     S
O31    Al52    1.811   .     S
O31    C66     1.297   .     A
C32    H33     1.081   .     S
C32    C65     1.412   1_655 A
C32    C38     1.414   1_556 A
O34    Al50    1.811   .     S
O34    C68     1.297   .     A
C35    C67     1.412   .     A
C35    H36     1.081   .     S
C35    C41     1.414   1_565 S
O37    Al49    1.811   .     S
O37    C62     1.296   .     A
C38    H39     1.081   .     S
C38    C32     1.414   1_554 A
C38    C61     1.412   1_655 S
O40    Al51    1.811   .     S
O40    C64     1.297   .     A
C41    C63     1.412   .     A
C41    H42     1.081   .     S
C41    C35     1.414   1_545 S
O43    Al50    1.811   .     S
O43    C58     1.296   1_655 S
C44    C57     1.412   .     A
C44    H45     1.081   .     S
C44    C26     1.415   1_564 S
O46    Al52    1.811   .     S
O46    C60     1.296   .     A
C47    C59     1.412   .     A
C47    H48     1.081   .     S
Al49   O53     1.816   .     S
Al49   O56     1.816   .     S
Al50   O56     1.816   .     S
Al50   O53     1.816   1_655 A
Al51   O54     1.816   .     S
Al51   O55     1.816   1_655 S
Al52   O55     1.816   .     S
Al52   O54     1.816   .     S
O53    Al50    1.816   1_455 A
O53    H75     0.862   1_455 A
O54    H73     0.862   .     S
O55    Al51    1.816   1_455 S
O55    H74     0.862   1_455 S
O56    H76     0.862   .     S
C57    C58     1.520   .     S
C57    C2      1.412   1_455 S
C58    O43     1.296   1_455 S
C59    C60     1.519   .     S
C61    C62     1.519   .     S
C61    C38     1.412   1_455 S
C62    O7      1.297   1_455 S
C63    C64     1.519   .     S
C65    C66     1.519   .     S
C65    C32     1.412   1_455 A
C66    O13     1.296   1_455 A
C67    C68     1.519   .     S
C69    C70     1.519   .     S
C69    C20     1.412   1_455 S
C70    O25     1.297   1_455 S
C71    C72     1.519   .     S
H74    O55     0.862   1_655 S
H75    O53     0.862   1_655 A
