data_WAYMIU_manual
_audit_creation_date              2014-07-02
_audit_creation_method            'Materials Studio'
_symmetry_space_group_name_H-M    'P1'
_symmetry_Int_Tables_number       1
_symmetry_cell_setting            triclinic
loop_
_symmetry_equiv_pos_as_xyz
  x,y,z
_cell_length_a                    6.5603
_cell_length_b                    15.9846
_cell_length_c                    13.4441
_cell_angle_alpha                 90.0000
_cell_angle_beta                  90.0000
_cell_angle_gamma                 90.0000
loop_
_atom_site_label
_atom_site_type_symbol
_atom_site_fract_x
_atom_site_fract_y
_atom_site_fract_z
_atom_site_U_iso_or_equiv
_atom_site_adp_type
_atom_site_occupancy
O1     O     0.67103   0.92167   0.32894   0.00000  Uiso   1.00
O2     O     0.32415   0.58019   0.65930   0.00000  Uiso   1.00
C3     C     0.31443   0.78080   0.45533   0.00000  Uiso   1.00
C4     C     0.31412   0.71188   0.51963   0.00000  Uiso   1.00
H5     H     0.17045   0.80599   0.43035   0.00000  Uiso   1.00
H6     H     0.17014   0.68583   0.54288   0.00000  Uiso   1.00
O7     O     0.17001   0.42137   0.82924   0.00000  Uiso   1.00
O8     O     0.82478   0.08084   0.15944   0.00000  Uiso   1.00
C9     C     0.81389   0.28106   0.95609   0.00000  Uiso   1.00
C10    C     0.81433   0.21211   0.02018   0.00000  Uiso   1.00
H11    H     0.66997   0.30625   0.93116   0.00000  Uiso   1.00
H12    H     0.67067   0.18595   0.04338   0.00000  Uiso   1.00
O13    O     0.32219   0.08221   0.33171   0.00000  Uiso   1.00
O14    O     0.66786   0.42340   0.66193   0.00000  Uiso   1.00
C15    C     0.67963   0.22083   0.46092   0.00000  Uiso   1.00
C16    C     0.67966   0.28995   0.52495   0.00000  Uiso   1.00
H17    H     0.82387   0.19573   0.43623   0.00000  Uiso   1.00
H18    H     0.82375   0.31627   0.54840   0.00000  Uiso   1.00
O19    O     0.82201   0.58251   0.83135   0.00000  Uiso   1.00
O20    O     0.16814   0.92345   0.16185   0.00000  Uiso   1.00
C21    C     0.17957   0.72140   0.96020   0.00000  Uiso   1.00
C22    C     0.17980   0.79032   0.02447   0.00000  Uiso   1.00
H23    H     0.32367   0.69653   0.93516   0.00000  Uiso   1.00
H24    H     0.32384   0.81644   0.04830   0.00000  Uiso   1.00
O25    O     0.66783   0.08220   0.33109   0.00000  Uiso   1.00
O26    O     0.32280   0.42401   0.66023   0.00000  Uiso   1.00
C27    C     0.31128   0.22104   0.46067   0.00000  Uiso   1.00
C28    C     0.31109   0.29015   0.52475   0.00000  Uiso   1.00
H29    H     0.16702   0.19604   0.43588   0.00000  Uiso   1.00
H30    H     0.16690   0.31670   0.54784   0.00000  Uiso   1.00
O31    O     0.16857   0.58292   0.82988   0.00000  Uiso   1.00
O32    O     0.82210   0.92390   0.16063   0.00000  Uiso   1.00
C33    C     0.81110   0.72149   0.96003   0.00000  Uiso   1.00
C34    C     0.81118   0.79041   0.02433   0.00000  Uiso   1.00
H35    H     0.66679   0.69667   0.93499   0.00000  Uiso   1.00
H36    H     0.66716   0.81668   0.04790   0.00000  Uiso   1.00
O37    O     0.32503   0.92179   0.32948   0.00000  Uiso   1.00
O38    O     0.67036   0.58076   0.65937   0.00000  Uiso   1.00
C39    C     0.68293   0.78079   0.45556   0.00000  Uiso   1.00
C40    C     0.68242   0.71173   0.51994   0.00000  Uiso   1.00
H41    H     0.82749   0.80599   0.43057   0.00000  Uiso   1.00
H42    H     0.82673   0.68567   0.54345   0.00000  Uiso   1.00
O43    O     0.82455   0.42236   0.82992   0.00000  Uiso   1.00
O44    O     0.17042   0.08071   0.15975   0.00000  Uiso   1.00
C45    C     0.18257   0.28125   0.95596   0.00000  Uiso   1.00
C46    C     0.18273   0.21216   0.02013   0.00000  Uiso   1.00
H47    H     0.32689   0.30655   0.93093   0.00000  Uiso   1.00
H48    H     0.32701   0.18606   0.04347   0.00000  Uiso   1.00
Al49   Al    0.74492   0.00313   0.24597   0.00000  Uiso   1.00
Al50   Al    0.24402   0.50270   0.74610   0.00000  Uiso   1.00
Al51   Al    0.24461   0.00306   0.24645   0.00000  Uiso   1.00
Al52   Al    0.74482   0.50292   0.74655   0.00000  Uiso   1.00
O53    O    -0.00514   0.00467   0.29987   0.00000  Uiso   1.00
O54    O     0.49404   0.50392   0.79971   0.00000  Uiso   1.00
O55    O     0.49525   0.00479   0.19327   0.00000  Uiso   1.00
O56    O    -0.00607   0.50371   0.69305   0.00000  Uiso   1.00
C57    C     0.49777   0.67774   0.55476   0.00000  Uiso   1.00
C58    C     0.49868   0.81729   0.42412   0.00000  Uiso   1.00
C59    C     0.49711   0.60849   0.62870   0.00000  Uiso   1.00
C60    C     0.49825   0.89157   0.35713   0.00000  Uiso   1.00
C61    C    -0.00154   0.17810   0.05512   0.00000  Uiso   1.00
C62    C    -0.00222   0.31763   0.92475   0.00000  Uiso   1.00
C63    C    -0.00213   0.10874   0.12894   0.00000  Uiso   1.00
C64    C    -0.00289   0.39186   0.85769   0.00000  Uiso   1.00
C65    C     0.49553   0.32474   0.55871   0.00000  Uiso   1.00
C66    C     0.49552   0.18493   0.42861   0.00000  Uiso   1.00
C67    C     0.49571   0.39517   0.63091   0.00000  Uiso   1.00
C68    C     0.49518   0.11172   0.36008   0.00000  Uiso   1.00
C69    C    -0.00440   0.82489   0.05855   0.00000  Uiso   1.00
C70    C    -0.00453   0.68558   0.92769   0.00000  Uiso   1.00
C71    C    -0.00471   0.89519   0.13114   0.00000  Uiso   1.00
C72    C    -0.00434   0.61228   0.85908   0.00000  Uiso   1.00
H73    H    -0.00724   0.50377   0.62882   0.00000  Uiso   1.00
H74    H     0.49297   0.50424   0.86374   0.00000  Uiso   1.00
H75    H     0.49552   0.00573   0.12915   0.00000  Uiso   1.00
H76    H    -0.00516   0.00542   0.36402   0.00000  Uiso   1.00
loop_
_geom_bond_atom_site_label_1
_geom_bond_atom_site_label_2
_geom_bond_distance
_geom_bond_site_symmetry_2
_ccdc_geom_bond_type
O1     C60     1.288   .     A
O1     Al49    1.782   1_565 A
O2     C59     1.289   .     A
O2     Al50    1.781   .     S
C3     C4      1.400   .     A
C3     C58     1.406   .     A
C3     H5      1.080   .     S
C4     C57     1.404   .     A
C4     H6      1.079   .     S
O7     Al50    1.782   .     S
O7     C64     1.287   .     A
O8     Al49    1.781   .     S
O8     C63     1.287   1_655 A
C9     H11     1.080   .     S
C9     C10     1.399   1_556 S
C9     C62     1.405   1_655 A
C10    H12     1.077   .     S
C10    C9      1.399   1_554 S
C10    C61     1.405   1_655 S
O13    Al51    1.781   .     S
O13    C68     1.287   .     A
O14    C67     1.286   .     A
O14    Al52    1.779   .     S
C15    C16     1.401   .     A
C15    C66     1.406   .     A
C15    H17     1.080   .     S
C16    C65     1.405   .     A
C16    H18     1.082   .     S
O19    Al52    1.782   .     S
O19    C72     1.290   1_655 A
O20    C71     1.289   .     A
O20    Al51    1.779   1_565 S
C21    C70     1.406   .     A
C21    H23     1.079   .     S
C21    C22     1.400   1_556 S
C22    C69     1.406   .     A
C22    H24     1.082   .     S
C22    C21     1.400   1_554 S
O25    Al49    1.778   .     S
O25    C68     1.287   .     A
O26    C67     1.286   .     A
O26    Al50    1.784   .     S
C27    C28     1.401   .     A
C27    C66     1.407   .     A
C27    H29     1.080   .     S
C28    C65     1.406   .     A
C28    H30     1.082   .     S
O31    Al50    1.777   .     S
O31    C72     1.289   .     A
O32    C71     1.288   1_655 S
O32    Al49    1.782   1_565 S
C33    H35     1.080   .     S
C33    C34     1.400   1_556 S
C33    C70     1.408   1_655 S
C34    H36     1.081   .     S
C34    C33     1.400   1_554 S
C34    C69     1.407   1_655 A
O37    C60     1.290   .     A
O37    Al51    1.792   1_565 S
O38    C59     1.288   .     A
O38    Al52    1.778   .     S
C39    C40     1.403   .     A
C39    C58     1.407   .     A
C39    H41     1.084   .     S
C40    C57     1.408   .     A
C40    H42     1.082   .     S
O43    Al52    1.786   .     S
O43    C64     1.288   1_655 A
O44    C63     1.286   .     A
O44    Al51    1.771   .     S
C45    C62     1.408   .     A
C45    H47     1.083   .     S
C45    C46     1.401   1_556 A
C46    C61     1.407   .     A
C46    H48     1.081   .     S
C46    C45     1.401   1_554 A
Al49   O55     1.785   .     S
Al49   O1      1.782   1_545 A
Al49   O32     1.782   1_545 S
Al49   O53     1.793   1_655 S
Al50   O54     1.792   .     S
Al50   O56     1.789   .     S
Al51   O53     1.789   .     S
Al51   O55     1.793   .     S
Al51   O20     1.779   1_545 S
Al51   O37     1.792   1_545 S
Al52   O54     1.794   .     S
Al52   O56     1.786   1_655 S
O53    H76     0.863   .     S
O53    Al49    1.793   1_455 S
O54    H74     0.861   .     S
O55    H75     0.862   .     S
O56    H73     0.864   .     S
O56    Al52    1.786   1_455 S
C57    C59     1.488   .     S
C58    C60     1.490   .     S
C61    C63     1.488   .     S
C61    C10     1.405   1_455 S
C62    C64     1.490   .     S
C62    C9      1.405   1_455 A
C63    O8      1.287   1_455 A
C64    O43     1.288   1_455 A
C65    C67     1.486   .     S
C66    C68     1.489   .     S
C69    C71     1.488   .     S
C69    C34     1.407   1_455 A
C70    C72     1.491   .     S
C70    C33     1.408   1_455 S
C71    O32     1.288   1_455 S
C72    O19     1.290   1_455 A
