data_image0
_cell_length_a       12.0495
_cell_length_b       12.2773
_cell_length_c       19.1028
_cell_angle_alpha    91.669
_cell_angle_beta     96.85
_cell_angle_gamma    117.945

_symmetry_space_group_name_H-M    P 1
_symmetry_int_tables_number       1

loop_
  _symmetry_equiv_pos_as_xyz
  'x, y, z'

loop_
  _atom_site_label
  _atom_site_occupancy
  _atom_site_fract_x
  _atom_site_fract_y
  _atom_site_fract_z
  _atom_site_thermal_displace_type
  _atom_site_B_iso_or_equiv
  _atom_site_type_symbol
  Cd1      1.0000 0.76911  0.50233  0.77854  Biso   1.000  Cd
  Cd2      1.0000 0.58859  0.66969  0.69812  Biso   1.000  Cd
  Cd3      1.0000 0.42655  0.32177  0.80199  Biso   1.000  Cd
  Cd4      1.0000 0.23089  0.49767  0.22146  Biso   1.000  Cd
  Cd5      1.0000 0.41141  0.33031  0.30188  Biso   1.000  Cd
  Cd6      1.0000 0.57345  0.67823  0.19801  Biso   1.000  Cd
  H1       1.0000 0.71310  0.54280  0.97320  Biso   1.000  H
  H2       1.0000 0.70180  0.57540  0.09500  Biso   1.000  H
  H3       1.0000 0.08530  0.33050  0.77740  Biso   1.000  H
  H4       1.0000 0.21390  0.64730  0.68320  Biso   1.000  H
  H5       1.0000 0.72210  0.14440  0.68860  Biso   1.000  H
  H6       1.0000 0.45740  0.98150  0.81440  Biso   1.000  H
  H7       1.0000 0.45370  0.79370  0.78620  Biso   1.000  H
  H8       1.0000 0.71460  0.95930  0.66030  Biso   1.000  H
  H9       1.0000 0.89570  0.33470  0.78050  Biso   1.000  H
  H10      1.0000 0.02810  0.65170  0.69220  Biso   1.000  H
  H11      1.0000 0.96680  0.00440  0.67070  Biso   1.000  H
  H12      1.0000 0.09790  0.85890  0.82750  Biso   1.000  H
  H13      1.0000 0.15660  0.18250  0.69500  Biso   1.000  H
  H14      1.0000 0.28200  0.04820  0.85020  Biso   1.000  H
  H15      1.0000 0.30490  0.24230  0.55900  Biso   1.000  H
  H16      1.0000 0.68220  0.47450  0.55760  Biso   1.000  H
  H17      1.0000 0.63600  0.44280  0.43340  Biso   1.000  H
  H18      1.0000 0.27160  0.22870  0.43720  Biso   1.000  H
  H19      1.0000 0.54500  0.75510  0.92770  Biso   1.000  H
  H20      1.0000 0.53210  0.77840  0.04720  Biso   1.000  H
  H21      1.0000 0.28690  0.45720  0.02680  Biso   1.000  H
  H22      1.0000 0.29820  0.42460  0.90500  Biso   1.000  H
  H23      1.0000 0.91470  0.66950  0.22260  Biso   1.000  H
  H24      1.0000 0.78610  0.35270  0.31680  Biso   1.000  H
  H25      1.0000 0.27790  0.85560  0.31140  Biso   1.000  H
  H26      1.0000 0.54260  0.01850  0.18560  Biso   1.000  H
  H27      1.0000 0.54630  0.20630  0.21380  Biso   1.000  H
  H28      1.0000 0.28540  0.04070  0.33970  Biso   1.000  H
  H29      1.0000 0.10430  0.66530  0.21950  Biso   1.000  H
  H30      1.0000 0.97190  0.34830  0.30780  Biso   1.000  H
  H31      1.0000 0.03320  0.99560  0.32930  Biso   1.000  H
  H32      1.0000 0.90210  0.14110  0.17250  Biso   1.000  H
  H33      1.0000 0.84340  0.81750  0.30500  Biso   1.000  H
  H34      1.0000 0.71800  0.95180  0.14980  Biso   1.000  H
  H35      1.0000 0.69510  0.75770  0.44100  Biso   1.000  H
  H36      1.0000 0.31780  0.52550  0.44240  Biso   1.000  H
  H37      1.0000 0.36400  0.55720  0.56660  Biso   1.000  H
  H38      1.0000 0.72840  0.77130  0.56280  Biso   1.000  H
  H39      1.0000 0.45500  0.24490  0.07230  Biso   1.000  H
  H40      1.0000 0.46790  0.22160  0.95280  Biso   1.000  H
  C1       1.0000 0.17700  0.49440  0.73440  Biso   1.000  C
  C2       1.0000 0.30100  0.49540  0.73750  Biso   1.000  C
  C3       1.0000 0.67300  0.58870  0.98750  Biso   1.000  C
  C4       1.0000 0.61790  0.63820  0.93700  Biso   1.000  C
  C5       1.0000 0.61840  0.60850  0.86020  Biso   1.000  C
  C6       1.0000 0.88220  0.79020  0.73530  Biso   1.000  C
  C7       1.0000 0.51680  0.38880  0.65330  Biso   1.000  C
  C8       1.0000 0.66680  0.60940  0.06050  Biso   1.000  C
  C9       1.0000 0.07600  0.39820  0.76040  Biso   1.000  C
  C10      1.0000 0.00780  0.91070  0.74790  Biso   1.000  C
  C11      1.0000 0.59530  0.20310  0.77550  Biso   1.000  C
  C12      1.0000 0.15150  0.58440  0.70590  Biso   1.000  C
  C13      1.0000 0.59160  0.08390  0.75740  Biso   1.000  C
  C14      1.0000 0.66680  0.07320  0.70940  Biso   1.000  C
  C15      1.0000 0.51230  0.97880  0.78330  Biso   1.000  C
  C16      1.0000 0.50870  0.86510  0.76550  Biso   1.000  C
  C17      1.0000 0.66130  0.96240  0.69230  Biso   1.000  C
  C18      1.0000 0.96170  0.40090  0.76170  Biso   1.000  C
  C19      1.0000 0.03910  0.58510  0.70960  Biso   1.000  C
  C20      1.0000 0.02980  0.01010  0.70790  Biso   1.000  C
  C21      1.0000 0.10670  0.92550  0.80050  Biso   1.000  C
  C22      1.0000 0.14390  0.11620  0.72310  Biso   1.000  C
  C23      1.0000 0.21750  0.03790  0.81280  Biso   1.000  C
  C24      1.0000 0.49660  0.36550  0.57310  Biso   1.000  C
  C25      1.0000 0.37440  0.28720  0.53440  Biso   1.000  C
  C26      1.0000 0.59770  0.42330  0.53450  Biso   1.000  C
  C27      1.0000 0.56880  0.40220  0.46020  Biso   1.000  C
  C28      1.0000 0.35550  0.27550  0.46200  Biso   1.000  C
  C29      1.0000 0.57310  0.71320  0.96040  Biso   1.000  C
  C30      1.0000 0.56810  0.72890  0.03250  Biso   1.000  C
  C31      1.0000 0.87400  0.39400  0.99300  Biso   1.000  C
  C32      1.0000 0.81400  0.39400  0.92130  Biso   1.000  C
  C33      1.0000 0.82300  0.50560  0.26560  Biso   1.000  C
  C34      1.0000 0.69900  0.50460  0.26250  Biso   1.000  C
  C35      1.0000 0.32700  0.41130  0.01250  Biso   1.000  C
  C36      1.0000 0.38210  0.36180  0.06300  Biso   1.000  C
  C37      1.0000 0.38160  0.39150  0.13980  Biso   1.000  C
  C38      1.0000 0.11780  0.20980  0.26470  Biso   1.000  C
  C39      1.0000 0.48320  0.61120  0.34670  Biso   1.000  C
  C40      1.0000 0.33320  0.39060  0.93950  Biso   1.000  C
  C41      1.0000 0.92400  0.60180  0.23960  Biso   1.000  C
  C42      1.0000 0.99220  0.08930  0.25210  Biso   1.000  C
  C43      1.0000 0.40470  0.79690  0.22450  Biso   1.000  C
  C44      1.0000 0.84850  0.41560  0.29410  Biso   1.000  C
  C45      1.0000 0.40840  0.91610  0.24260  Biso   1.000  C
  C46      1.0000 0.33320  0.92680  0.29060  Biso   1.000  C
  C47      1.0000 0.48770  0.02120  0.21670  Biso   1.000  C
  C48      1.0000 0.49130  0.13490  0.23450  Biso   1.000  C
  C49      1.0000 0.33870  0.03760  0.30770  Biso   1.000  C
  C50      1.0000 0.03830  0.59910  0.23830  Biso   1.000  C
  C51      1.0000 0.96090  0.41490  0.29040  Biso   1.000  C
  C52      1.0000 0.97020  0.98990  0.29210  Biso   1.000  C
  C53      1.0000 0.89330  0.07450  0.19950  Biso   1.000  C
  C54      1.0000 0.85610  0.88380  0.27690  Biso   1.000  C
  C55      1.0000 0.78250  0.96210  0.18720  Biso   1.000  C
  C56      1.0000 0.50340  0.63450  0.42690  Biso   1.000  C
  C57      1.0000 0.62560  0.71280  0.46560  Biso   1.000  C
  C58      1.0000 0.40230  0.57670  0.46550  Biso   1.000  C
  C59      1.0000 0.43120  0.59780  0.53980  Biso   1.000  C
  C60      1.0000 0.64450  0.72450  0.53800  Biso   1.000  C
  C61      1.0000 0.42690  0.28680  0.03960  Biso   1.000  C
  C62      1.0000 0.43190  0.27110  0.96750  Biso   1.000  C
  C63      1.0000 0.12600  0.60600  0.00700  Biso   1.000  C
  C64      1.0000 0.18600  0.60600  0.07870  Biso   1.000  C
  N1       1.0000 0.58230  0.85410  0.71910  Biso   1.000  N
  N2       1.0000 0.94040  0.49140  0.73790  Biso   1.000  N
  N3       1.0000 0.23740  0.13450  0.77310  Biso   1.000  N
  N4       1.0000 0.45300  0.32890  0.42520  Biso   1.000  N
  N5       1.0000 0.61160  0.67760  0.08160  Biso   1.000  N
  N6       1.0000 0.41770  0.14590  0.28090  Biso   1.000  N
  N7       1.0000 0.05960  0.50860  0.26210  Biso   1.000  N
  N8       1.0000 0.76260  0.86550  0.22690  Biso   1.000  N
  N9       1.0000 0.54700  0.67110  0.57480  Biso   1.000  N
  N10      1.0000 0.38840  0.32240  0.91840  Biso   1.000  N
  O1       1.0000 0.61700  0.68640  0.82000  Biso   1.000  O
  O2       1.0000 0.61330  0.48910  0.68030  Biso   1.000  O
  O3       1.0000 0.37430  0.56310  0.69380  Biso   1.000  O
  O4       1.0000 0.61860  0.50830  0.84220  Biso   1.000  O
  O5       1.0000 0.52550  0.20530  0.81810  Biso   1.000  O
  O6       1.0000 0.32430  0.43590  0.78110  Biso   1.000  O
  O7       1.0000 0.79730  0.78790  0.69340  Biso   1.000  O
  O8       1.0000 0.43990  0.31390  0.68410  Biso   1.000  O
  O9       1.0000 0.87810  0.70670  0.77390  Biso   1.000  O
  O10      1.0000 0.67350  0.29450  0.74750  Biso   1.000  O
  O11      1.0000 0.86600  0.48900  0.89250  Biso   1.000  O
  O12      1.0000 0.38300  0.31360  0.18000  Biso   1.000  O
  O13      1.0000 0.38670  0.51090  0.31970  Biso   1.000  O
  O14      1.0000 0.62570  0.43690  0.30620  Biso   1.000  O
  O15      1.0000 0.38140  0.49170  0.15780  Biso   1.000  O
  O16      1.0000 0.47450  0.79470  0.18190  Biso   1.000  O
  O17      1.0000 0.67570  0.56410  0.21890  Biso   1.000  O
  O18      1.0000 0.20270  0.21210  0.30660  Biso   1.000  O
  O19      1.0000 0.56010  0.68610  0.31590  Biso   1.000  O
  O20      1.0000 0.12190  0.29330  0.22610  Biso   1.000  O
  O21      1.0000 0.32650  0.70550  0.25250  Biso   1.000  O
  O22      1.0000 0.13400  0.51100  0.10750  Biso   1.000  O
