data_image0
_cell_length_a       13.289
_cell_length_b       13.711
_cell_length_c       16.467
_cell_angle_alpha    90
_cell_angle_beta     90
_cell_angle_gamma    117.02

_symmetry_space_group_name_H-M    P 1
_symmetry_int_tables_number       1

loop_
  _symmetry_equiv_pos_as_xyz
  'x, y, z'

loop_
  _atom_site_label
  _atom_site_occupancy
  _atom_site_fract_x
  _atom_site_fract_y
  _atom_site_fract_z
  _atom_site_thermal_displace_type
  _atom_site_B_iso_or_equiv
  _atom_site_type_symbol
  Zn1      1.0000 0.09252  0.11422  0.50296  Biso   1.000  Zn
  Zn2      1.0000 0.90748  0.38578  0.00296  Biso   1.000  Zn
  Zn3      1.0000 0.90748  0.88578  0.49704  Biso   1.000  Zn
  Zn4      1.0000 0.09252  0.61422  0.99704  Biso   1.000  Zn
  H1       1.0000 0.33550  0.18590  0.52030  Biso   1.000  H
  H2       1.0000 0.50670  0.34020  0.51930  Biso   1.000  H
  H3       1.0000 0.34180  0.51890  0.47880  Biso   1.000  H
  H4       1.0000 0.17540  0.35900  0.47910  Biso   1.000  H
  H5       1.0000 0.92500  0.26550  0.34690  Biso   1.000  H
  H6       1.0000 0.83750  0.30740  0.23940  Biso   1.000  H
  H7       1.0000 0.70570  0.16910  0.15990  Biso   1.000  H
  H8       1.0000 0.74530  0.94450  0.29560  Biso   1.000  H
  H9       1.0000 0.50940  0.88000  0.29030  Biso   1.000  H
  H10      1.0000 0.42490  0.69770  0.33190  Biso   1.000  H
  H11      1.0000 0.56630  0.62110  0.14230  Biso   1.000  H
  H12      1.0000 0.65150  0.80350  0.10090  Biso   1.000  H
  H13      1.0000 0.33320  0.34610  0.32110  Biso   1.000  H
  H14      1.0000 0.14850  0.22020  0.29290  Biso   1.000  H
  H15      1.0000 0.04180  0.26380  0.20170  Biso   1.000  H
  H16      1.0000 0.30230  0.56480  0.17200  Biso   1.000  H
  H17      1.0000 0.66450  0.31410  0.02030  Biso   1.000  H
  H18      1.0000 0.49330  0.15980  0.01930  Biso   1.000  H
  H19      1.0000 0.65820  0.98110  0.97880  Biso   1.000  H
  H20      1.0000 0.82460  0.14100  0.97910  Biso   1.000  H
  H21      1.0000 0.07500  0.23450  0.84690  Biso   1.000  H
  H22      1.0000 0.16250  0.19260  0.73940  Biso   1.000  H
  H23      1.0000 0.29430  0.33090  0.65990  Biso   1.000  H
  H24      1.0000 0.25470  0.55550  0.79560  Biso   1.000  H
  H25      1.0000 0.49060  0.62000  0.79030  Biso   1.000  H
  H26      1.0000 0.57510  0.80230  0.83190  Biso   1.000  H
  H27      1.0000 0.43370  0.87890  0.64230  Biso   1.000  H
  H28      1.0000 0.34850  0.69650  0.60090  Biso   1.000  H
  H29      1.0000 0.66680  0.15390  0.82110  Biso   1.000  H
  H30      1.0000 0.85150  0.27980  0.79290  Biso   1.000  H
  H31      1.0000 0.95820  0.23620  0.70170  Biso   1.000  H
  H32      1.0000 0.69770  0.93520  0.67200  Biso   1.000  H
  H33      1.0000 0.66450  0.81410  0.47970  Biso   1.000  H
  H34      1.0000 0.49330  0.65980  0.48070  Biso   1.000  H
  H35      1.0000 0.65820  0.48110  0.52120  Biso   1.000  H
  H36      1.0000 0.82460  0.64100  0.52090  Biso   1.000  H
  H37      1.0000 0.07500  0.73450  0.65310  Biso   1.000  H
  H38      1.0000 0.16250  0.69260  0.76060  Biso   1.000  H
  H39      1.0000 0.29430  0.83090  0.84010  Biso   1.000  H
  H40      1.0000 0.25470  0.05550  0.70440  Biso   1.000  H
  H41      1.0000 0.49060  0.12000  0.70970  Biso   1.000  H
  H42      1.0000 0.57510  0.30230  0.66810  Biso   1.000  H
  H43      1.0000 0.43370  0.37890  0.85770  Biso   1.000  H
  H44      1.0000 0.34850  0.19650  0.89910  Biso   1.000  H
  H45      1.0000 0.66680  0.65390  0.67890  Biso   1.000  H
  H46      1.0000 0.85150  0.77980  0.70710  Biso   1.000  H
  H47      1.0000 0.95820  0.73620  0.79830  Biso   1.000  H
  H48      1.0000 0.69770  0.43520  0.82800  Biso   1.000  H
  H49      1.0000 0.33550  0.68590  0.97970  Biso   1.000  H
  H50      1.0000 0.50670  0.84020  0.98070  Biso   1.000  H
  H51      1.0000 0.34180  0.01890  0.02120  Biso   1.000  H
  H52      1.0000 0.17540  0.85900  0.02090  Biso   1.000  H
  H53      1.0000 0.92500  0.76550  0.15310  Biso   1.000  H
  H54      1.0000 0.83750  0.80740  0.26060  Biso   1.000  H
  H55      1.0000 0.70570  0.66910  0.34010  Biso   1.000  H
  H56      1.0000 0.74530  0.44450  0.20440  Biso   1.000  H
  H57      1.0000 0.50940  0.38000  0.20970  Biso   1.000  H
  H58      1.0000 0.42490  0.19770  0.16810  Biso   1.000  H
  H59      1.0000 0.56630  0.12110  0.35770  Biso   1.000  H
  H60      1.0000 0.65150  0.30350  0.39910  Biso   1.000  H
  H61      1.0000 0.33320  0.84610  0.17890  Biso   1.000  H
  H62      1.0000 0.14850  0.72020  0.20710  Biso   1.000  H
  H63      1.0000 0.04180  0.76380  0.29830  Biso   1.000  H
  H64      1.0000 0.30230  0.06480  0.32800  Biso   1.000  H
  C1       1.0000 0.33711  0.25368  0.51184  Biso   1.000  C
  C2       1.0000 0.44061  0.34652  0.51153  Biso   1.000  C
  C3       1.0000 0.44564  0.44912  0.49961  Biso   1.000  C
  C4       1.0000 0.34293  0.45234  0.48728  Biso   1.000  C
  C5       1.0000 0.24283  0.35546  0.48789  Biso   1.000  C
  C6       1.0000 0.90274  0.07115  0.39774  Biso   1.000  C
  C7       1.0000 0.84412  0.10093  0.33153  Biso   1.000  C
  C8       1.0000 0.87195  0.20985  0.31512  Biso   1.000  C
  C9       1.0000 0.81942  0.23475  0.25048  Biso   1.000  C
  C10      1.0000 0.74062  0.15214  0.20270  Biso   1.000  C
  C11      1.0000 0.71420  0.04350  0.21936  Biso   1.000  C
  C12      1.0000 0.76452  0.01721  0.28406  Biso   1.000  C
  C13      1.0000 0.58927  0.85822  0.19275  Biso   1.000  C
  C14      1.0000 0.52117  0.82799  0.26120  Biso   1.000  C
  C15      1.0000 0.47070  0.71938  0.28598  Biso   1.000  C
  C16      1.0000 0.48981  0.64375  0.24105  Biso   1.000  C
  C17      1.0000 0.55587  0.67348  0.17200  Biso   1.000  C
  C18      1.0000 0.60661  0.78217  0.14723  Biso   1.000  C
  C19      1.0000 0.33519  0.46737  0.24923  Biso   1.000  C
  C20      1.0000 0.28978  0.36407  0.28555  Biso   1.000  C
  C21      1.0000 0.17966  0.28864  0.26817  Biso   1.000  C
  C22      1.0000 0.11538  0.31502  0.21371  Biso   1.000  C
  C23      1.0000 0.16128  0.41814  0.17727  Biso   1.000  C
  C24      1.0000 0.27170  0.49558  0.19542  Biso   1.000  C
  C25      1.0000 0.09400  0.44591  0.11665  Biso   1.000  C
  C26      1.0000 0.66289  0.24632  0.01184  Biso   1.000  C
  C27      1.0000 0.55939  0.15348  0.01153  Biso   1.000  C
  C28      1.0000 0.55436  0.05088  0.99961  Biso   1.000  C
  C29      1.0000 0.65707  0.04766  0.98728  Biso   1.000  C
  C30      1.0000 0.75717  0.14454  0.98789  Biso   1.000  C
  C31      1.0000 0.09726  0.42885  0.89774  Biso   1.000  C
  C32      1.0000 0.15588  0.39907  0.83153  Biso   1.000  C
  C33      1.0000 0.12805  0.29015  0.81512  Biso   1.000  C
  C34      1.0000 0.18058  0.26525  0.75048  Biso   1.000  C
  C35      1.0000 0.25938  0.34786  0.70270  Biso   1.000  C
  C36      1.0000 0.28580  0.45650  0.71936  Biso   1.000  C
  C37      1.0000 0.23548  0.48279  0.78406  Biso   1.000  C
  C38      1.0000 0.41073  0.64178  0.69275  Biso   1.000  C
  C39      1.0000 0.47883  0.67201  0.76120  Biso   1.000  C
  C40      1.0000 0.52930  0.78062  0.78598  Biso   1.000  C
  C41      1.0000 0.51019  0.85625  0.74105  Biso   1.000  C
  C42      1.0000 0.44413  0.82652  0.67200  Biso   1.000  C
  C43      1.0000 0.39339  0.71783  0.64723  Biso   1.000  C
  C44      1.0000 0.66481  0.03263  0.74923  Biso   1.000  C
  C45      1.0000 0.71022  0.13593  0.78555  Biso   1.000  C
  C46      1.0000 0.82034  0.21136  0.76817  Biso   1.000  C
  C47      1.0000 0.88462  0.18498  0.71371  Biso   1.000  C
  C48      1.0000 0.83872  0.08186  0.67727  Biso   1.000  C
  C49      1.0000 0.72830  0.00442  0.69542  Biso   1.000  C
  C50      1.0000 0.90600  0.05409  0.61665  Biso   1.000  C
  C51      1.0000 0.66289  0.74632  0.48816  Biso   1.000  C
  C52      1.0000 0.55939  0.65348  0.48847  Biso   1.000  C
  C53      1.0000 0.55436  0.55088  0.50039  Biso   1.000  C
  C54      1.0000 0.65707  0.54766  0.51272  Biso   1.000  C
  C55      1.0000 0.75717  0.64454  0.51211  Biso   1.000  C
  C56      1.0000 0.09726  0.92885  0.60226  Biso   1.000  C
  C57      1.0000 0.15588  0.89907  0.66847  Biso   1.000  C
  C58      1.0000 0.12805  0.79015  0.68488  Biso   1.000  C
  C59      1.0000 0.18058  0.76525  0.74952  Biso   1.000  C
  C60      1.0000 0.25938  0.84786  0.79730  Biso   1.000  C
  C61      1.0000 0.28580  0.95650  0.78064  Biso   1.000  C
  C62      1.0000 0.23548  0.98279  0.71594  Biso   1.000  C
  C63      1.0000 0.41073  0.14178  0.80725  Biso   1.000  C
  C64      1.0000 0.47883  0.17201  0.73880  Biso   1.000  C
  C65      1.0000 0.52930  0.28062  0.71402  Biso   1.000  C
  C66      1.0000 0.51019  0.35625  0.75895  Biso   1.000  C
  C67      1.0000 0.44413  0.32652  0.82800  Biso   1.000  C
  C68      1.0000 0.39339  0.21783  0.85277  Biso   1.000  C
  C69      1.0000 0.66481  0.53263  0.75077  Biso   1.000  C
  C70      1.0000 0.71022  0.63593  0.71445  Biso   1.000  C
  C71      1.0000 0.82034  0.71136  0.73183  Biso   1.000  C
  C72      1.0000 0.88462  0.68498  0.78629  Biso   1.000  C
  C73      1.0000 0.83872  0.58186  0.82273  Biso   1.000  C
  C74      1.0000 0.72830  0.50442  0.80458  Biso   1.000  C
  C75      1.0000 0.90600  0.55409  0.88335  Biso   1.000  C
  C76      1.0000 0.33711  0.75368  0.98816  Biso   1.000  C
  C77      1.0000 0.44061  0.84652  0.98847  Biso   1.000  C
  C78      1.0000 0.44564  0.94912  0.00039  Biso   1.000  C
  C79      1.0000 0.34293  0.95234  0.01272  Biso   1.000  C
  C80      1.0000 0.24283  0.85546  0.01211  Biso   1.000  C
  C81      1.0000 0.90274  0.57115  0.10226  Biso   1.000  C
  C82      1.0000 0.84412  0.60093  0.16847  Biso   1.000  C
  C83      1.0000 0.87195  0.70985  0.18488  Biso   1.000  C
  C84      1.0000 0.81942  0.73475  0.24952  Biso   1.000  C
  C85      1.0000 0.74062  0.65214  0.29730  Biso   1.000  C
  C86      1.0000 0.71420  0.54350  0.28064  Biso   1.000  C
  C87      1.0000 0.76452  0.51721  0.21594  Biso   1.000  C
  C88      1.0000 0.58927  0.35822  0.30725  Biso   1.000  C
  C89      1.0000 0.52117  0.32799  0.23880  Biso   1.000  C
  C90      1.0000 0.47070  0.21938  0.21402  Biso   1.000  C
  C91      1.0000 0.48981  0.14375  0.25895  Biso   1.000  C
  C92      1.0000 0.55587  0.17348  0.32800  Biso   1.000  C
  C93      1.0000 0.60661  0.28217  0.35277  Biso   1.000  C
  C94      1.0000 0.33519  0.96737  0.25077  Biso   1.000  C
  C95      1.0000 0.28978  0.86407  0.21445  Biso   1.000  C
  C96      1.0000 0.17966  0.78864  0.23183  Biso   1.000  C
  C97      1.0000 0.11538  0.81502  0.28629  Biso   1.000  C
  C98      1.0000 0.16128  0.91814  0.32273  Biso   1.000  C
  C99      1.0000 0.27170  0.99558  0.30458  Biso   1.000  C
  C100     1.0000 0.09400  0.94591  0.38335  Biso   1.000  C
  N1       1.0000 0.23879  0.25781  0.50043  Biso   1.000  N
  N2       1.0000 0.76121  0.24219  0.00043  Biso   1.000  N
  N3       1.0000 0.76121  0.74219  0.49957  Biso   1.000  N
  N4       1.0000 0.23879  0.75781  0.99957  Biso   1.000  N
  O1       1.0000 0.99217  0.14679  0.42611  Biso   1.000  O
  O2       1.0000 0.85917  0.97230  0.41882  Biso   1.000  O
  O3       1.0000 0.63924  0.96613  0.16676  Biso   1.000  O
  O4       1.0000 0.44554  0.53576  0.26847  Biso   1.000  O
  O5       1.0000 0.13586  0.54299  0.09129  Biso   1.000  O
  O6       1.0000 0.00072  0.36927  0.09490  Biso   1.000  O
  O7       1.0000 0.00783  0.35321  0.92611  Biso   1.000  O
  O8       1.0000 0.14083  0.52770  0.91882  Biso   1.000  O
  O9       1.0000 0.36076  0.53387  0.66676  Biso   1.000  O
  O10      1.0000 0.55446  0.96424  0.76847  Biso   1.000  O
  O11      1.0000 0.86414  0.95701  0.59129  Biso   1.000  O
  O12      1.0000 0.99928  0.13073  0.59490  Biso   1.000  O
  O13      1.0000 0.00783  0.85321  0.57389  Biso   1.000  O
  O14      1.0000 0.14083  0.02770  0.58118  Biso   1.000  O
  O15      1.0000 0.36076  0.03387  0.83324  Biso   1.000  O
  O16      1.0000 0.55446  0.46424  0.73153  Biso   1.000  O
  O17      1.0000 0.86414  0.45701  0.90871  Biso   1.000  O
  O18      1.0000 0.99928  0.63073  0.90510  Biso   1.000  O
  O19      1.0000 0.99217  0.64679  0.07389  Biso   1.000  O
  O20      1.0000 0.85917  0.47230  0.08118  Biso   1.000  O
  O21      1.0000 0.63924  0.46613  0.33324  Biso   1.000  O
  O22      1.0000 0.44554  0.03576  0.23153  Biso   1.000  O
  O23      1.0000 0.13586  0.04299  0.40871  Biso   1.000  O
  O24      1.0000 0.00072  0.86927  0.40510  Biso   1.000  O
