data_image0
_cell_length_a       13.7171
_cell_length_b       13.7171
_cell_length_c       14.813
_cell_angle_alpha    89.7586
_cell_angle_beta     89.7586
_cell_angle_gamma    82.0503

_symmetry_space_group_name_H-M    P 1
_symmetry_int_tables_number       1

loop_
  _symmetry_equiv_pos_as_xyz
  'x, y, z'

loop_
  _atom_site_label
  _atom_site_occupancy
  _atom_site_fract_x
  _atom_site_fract_y
  _atom_site_fract_z
  _atom_site_thermal_displace_type
  _atom_site_B_iso_or_equiv
  _atom_site_type_symbol
  Co1      1.0000 0.44793  0.29391  0.03892  Biso   1.000  Co
  Co2      1.0000 0.45786  0.47584  0.90961  Biso   1.000  Co
  Co3      1.0000 0.70609  0.55207  0.46108  Biso   1.000  Co
  Co4      1.0000 0.52416  0.54214  0.59039  Biso   1.000  Co
  Co5      1.0000 0.55207  0.70609  0.96108  Biso   1.000  Co
  Co6      1.0000 0.54214  0.52416  0.09039  Biso   1.000  Co
  Co7      1.0000 0.29391  0.44793  0.53892  Biso   1.000  Co
  Co8      1.0000 0.47584  0.45786  0.40961  Biso   1.000  Co
  H1       1.0000 0.58650  0.36350  0.98900  Biso   1.000  H
  H2       1.0000 0.34600  0.51200  0.77200  Biso   1.000  H
  H3       1.0000 0.29500  0.53100  0.85300  Biso   1.000  H
  H4       1.0000 0.07670  0.45130  0.31110  Biso   1.000  H
  H5       1.0000 0.98750  0.45450  0.17980  Biso   1.000  H
  H6       1.0000 0.06760  0.45260  0.04140  Biso   1.000  H
  H7       1.0000 0.53730  0.08430  0.99250  Biso   1.000  H
  H8       1.0000 0.65450  0.96030  0.03690  Biso   1.000  H
  H9       1.0000 0.74470  0.14350  0.21630  Biso   1.000  H
  H10      1.0000 0.62920  0.26760  0.16110  Biso   1.000  H
  H11      1.0000 0.74490  0.89850  0.19260  Biso   1.000  H
  H12      1.0000 0.82020  0.91580  0.11650  Biso   1.000  H
  H13      1.0000 0.81850  0.99230  0.29020  Biso   1.000  H
  H14      1.0000 0.88930  0.02030  0.21380  Biso   1.000  H
  H15      1.0000 0.97960  0.90060  0.29540  Biso   1.000  H
  H16      1.0000 0.95650  0.85090  0.20450  Biso   1.000  H
  H17      1.0000 0.91670  0.69030  0.22270  Biso   1.000  H
  H18      1.0000 0.84420  0.57340  0.30300  Biso   1.000  H
  H19      1.0000 0.77140  0.75900  0.49640  Biso   1.000  H
  H20      1.0000 0.83810  0.88130  0.41830  Biso   1.000  H
  H21      1.0000 0.63650  0.41350  0.51100  Biso   1.000  H
  H22      1.0000 0.48800  0.65400  0.72800  Biso   1.000  H
  H23      1.0000 0.46900  0.70500  0.64700  Biso   1.000  H
  H24      1.0000 0.54870  0.92330  0.18890  Biso   1.000  H
  H25      1.0000 0.54550  0.01250  0.32020  Biso   1.000  H
  H26      1.0000 0.54740  0.93240  0.45860  Biso   1.000  H
  H27      1.0000 0.91570  0.46270  0.50750  Biso   1.000  H
  H28      1.0000 0.03970  0.34550  0.46310  Biso   1.000  H
  H29      1.0000 0.85650  0.25530  0.28370  Biso   1.000  H
  H30      1.0000 0.73240  0.37080  0.33890  Biso   1.000  H
  H31      1.0000 0.10150  0.25510  0.30740  Biso   1.000  H
  H32      1.0000 0.08420  0.17980  0.38350  Biso   1.000  H
  H33      1.0000 0.00770  0.18150  0.20980  Biso   1.000  H
  H34      1.0000 0.97970  0.11070  0.28620  Biso   1.000  H
  H35      1.0000 0.09940  0.02040  0.20460  Biso   1.000  H
  H36      1.0000 0.14910  0.04350  0.29550  Biso   1.000  H
  H37      1.0000 0.30970  0.08330  0.27730  Biso   1.000  H
  H38      1.0000 0.42660  0.15580  0.19700  Biso   1.000  H
  H39      1.0000 0.24100  0.22860  0.00360  Biso   1.000  H
  H40      1.0000 0.11870  0.16190  0.08170  Biso   1.000  H
  H41      1.0000 0.41350  0.63650  0.01100  Biso   1.000  H
  H42      1.0000 0.65400  0.48800  0.22800  Biso   1.000  H
  H43      1.0000 0.70500  0.46900  0.14700  Biso   1.000  H
  H44      1.0000 0.92330  0.54870  0.68890  Biso   1.000  H
  H45      1.0000 0.01250  0.54550  0.82020  Biso   1.000  H
  H46      1.0000 0.93240  0.54740  0.95860  Biso   1.000  H
  H47      1.0000 0.46270  0.91570  0.00750  Biso   1.000  H
  H48      1.0000 0.34550  0.03970  0.96310  Biso   1.000  H
  H49      1.0000 0.25530  0.85650  0.78370  Biso   1.000  H
  H50      1.0000 0.37080  0.73240  0.83890  Biso   1.000  H
  H51      1.0000 0.25510  0.10150  0.80740  Biso   1.000  H
  H52      1.0000 0.17980  0.08420  0.88350  Biso   1.000  H
  H53      1.0000 0.18150  0.00770  0.70980  Biso   1.000  H
  H54      1.0000 0.11070  0.97970  0.78620  Biso   1.000  H
  H55      1.0000 0.02040  0.09940  0.70460  Biso   1.000  H
  H56      1.0000 0.04350  0.14910  0.79550  Biso   1.000  H
  H57      1.0000 0.08330  0.30970  0.77730  Biso   1.000  H
  H58      1.0000 0.15580  0.42660  0.69700  Biso   1.000  H
  H59      1.0000 0.22860  0.24100  0.50360  Biso   1.000  H
  H60      1.0000 0.16190  0.11870  0.58170  Biso   1.000  H
  H61      1.0000 0.36350  0.58650  0.48900  Biso   1.000  H
  H62      1.0000 0.51200  0.34600  0.27200  Biso   1.000  H
  H63      1.0000 0.53100  0.29500  0.35300  Biso   1.000  H
  H64      1.0000 0.45130  0.07670  0.81110  Biso   1.000  H
  H65      1.0000 0.45450  0.98750  0.67980  Biso   1.000  H
  H66      1.0000 0.45260  0.06760  0.54140  Biso   1.000  H
  H67      1.0000 0.08430  0.53730  0.49250  Biso   1.000  H
  H68      1.0000 0.96030  0.65450  0.53690  Biso   1.000  H
  H69      1.0000 0.14350  0.74470  0.71630  Biso   1.000  H
  H70      1.0000 0.26760  0.62920  0.66110  Biso   1.000  H
  H71      1.0000 0.89850  0.74490  0.69260  Biso   1.000  H
  H72      1.0000 0.91580  0.82020  0.61650  Biso   1.000  H
  H73      1.0000 0.99230  0.81850  0.79020  Biso   1.000  H
  H74      1.0000 0.02030  0.88930  0.71380  Biso   1.000  H
  H75      1.0000 0.90060  0.97960  0.79540  Biso   1.000  H
  H76      1.0000 0.85090  0.95650  0.70450  Biso   1.000  H
  H77      1.0000 0.69030  0.91670  0.72270  Biso   1.000  H
  H78      1.0000 0.57340  0.84420  0.80300  Biso   1.000  H
  H79      1.0000 0.75900  0.77140  0.99640  Biso   1.000  H
  H80      1.0000 0.88130  0.83810  0.91830  Biso   1.000  H
  C1       1.0000 0.20600  0.44580  0.09010  Biso   1.000  C
  C2       1.0000 0.26030  0.44210  0.17040  Biso   1.000  C
  C3       1.0000 0.21150  0.44450  0.25330  Biso   1.000  C
  C4       1.0000 0.10910  0.44950  0.25570  Biso   1.000  C
  C5       1.0000 0.05560  0.45200  0.17750  Biso   1.000  C
  C6       1.0000 0.10390  0.45050  0.09450  Biso   1.000  C
  C7       1.0000 0.25260  0.45140  0.99900  Biso   1.000  C
  C8       1.0000 0.37190  0.43910  0.16310  Biso   1.000  C
  C9       1.0000 0.26750  0.44670  0.33940  Biso   1.000  C
  C10      1.0000 0.58000  0.09660  0.03850  Biso   1.000  C
  C11      1.0000 0.64970  0.02130  0.06500  Biso   1.000  C
  C12      1.0000 0.71240  0.03620  0.13310  Biso   1.000  C
  C13      1.0000 0.70320  0.13020  0.16990  Biso   1.000  C
  C14      1.0000 0.63230  0.20450  0.13770  Biso   1.000  C
  C15      1.0000 0.78370  0.94630  0.16770  Biso   1.000  C
  C16      1.0000 0.85400  0.96840  0.23610  Biso   1.000  C
  C17      1.0000 0.92730  0.87930  0.25980  Biso   1.000  C
  C18      1.0000 0.88370  0.79950  0.31230  Biso   1.000  C
  C19      1.0000 0.88640  0.70660  0.27800  Biso   1.000  C
  C20      1.0000 0.84300  0.63600  0.32730  Biso   1.000  C
  C21      1.0000 0.79990  0.74450  0.44010  Biso   1.000  C
  C22      1.0000 0.84080  0.81900  0.39320  Biso   1.000  C
  C23      1.0000 0.55420  0.79400  0.40990  Biso   1.000  C
  C24      1.0000 0.55790  0.73970  0.32960  Biso   1.000  C
  C25      1.0000 0.55550  0.78850  0.24670  Biso   1.000  C
  C26      1.0000 0.55050  0.89090  0.24430  Biso   1.000  C
  C27      1.0000 0.54800  0.94440  0.32250  Biso   1.000  C
  C28      1.0000 0.54950  0.89610  0.40550  Biso   1.000  C
  C29      1.0000 0.54860  0.74740  0.50100  Biso   1.000  C
  C30      1.0000 0.56090  0.62810  0.33690  Biso   1.000  C
  C31      1.0000 0.55330  0.73250  0.16060  Biso   1.000  C
  C32      1.0000 0.90340  0.42000  0.46150  Biso   1.000  C
  C33      1.0000 0.97870  0.35030  0.43500  Biso   1.000  C
  C34      1.0000 0.96380  0.28760  0.36690  Biso   1.000  C
  C35      1.0000 0.86980  0.29680  0.33010  Biso   1.000  C
  C36      1.0000 0.79550  0.36770  0.36230  Biso   1.000  C
  C37      1.0000 0.05370  0.21630  0.33230  Biso   1.000  C
  C38      1.0000 0.03160  0.14600  0.26390  Biso   1.000  C
  C39      1.0000 0.12070  0.07270  0.24020  Biso   1.000  C
  C40      1.0000 0.20050  0.11630  0.18770  Biso   1.000  C
  C41      1.0000 0.29340  0.11360  0.22200  Biso   1.000  C
  C42      1.0000 0.36400  0.15700  0.17270  Biso   1.000  C
  C43      1.0000 0.25550  0.20010  0.05990  Biso   1.000  C
  C44      1.0000 0.18100  0.15920  0.10680  Biso   1.000  C
  C45      1.0000 0.79400  0.55420  0.90990  Biso   1.000  C
  C46      1.0000 0.73970  0.55790  0.82960  Biso   1.000  C
  C47      1.0000 0.78850  0.55550  0.74670  Biso   1.000  C
  C48      1.0000 0.89090  0.55050  0.74430  Biso   1.000  C
  C49      1.0000 0.94440  0.54800  0.82250  Biso   1.000  C
  C50      1.0000 0.89610  0.54950  0.90550  Biso   1.000  C
  C51      1.0000 0.74740  0.54860  0.00100  Biso   1.000  C
  C52      1.0000 0.62810  0.56090  0.83690  Biso   1.000  C
  C53      1.0000 0.73250  0.55330  0.66060  Biso   1.000  C
  C54      1.0000 0.42000  0.90340  0.96150  Biso   1.000  C
  C55      1.0000 0.35030  0.97870  0.93500  Biso   1.000  C
  C56      1.0000 0.28760  0.96380  0.86690  Biso   1.000  C
  C57      1.0000 0.29680  0.86980  0.83010  Biso   1.000  C
  C58      1.0000 0.36770  0.79550  0.86230  Biso   1.000  C
  C59      1.0000 0.21630  0.05370  0.83230  Biso   1.000  C
  C60      1.0000 0.14600  0.03160  0.76390  Biso   1.000  C
  C61      1.0000 0.07270  0.12070  0.74020  Biso   1.000  C
  C62      1.0000 0.11630  0.20050  0.68770  Biso   1.000  C
  C63      1.0000 0.11360  0.29340  0.72200  Biso   1.000  C
  C64      1.0000 0.15700  0.36400  0.67270  Biso   1.000  C
  C65      1.0000 0.20010  0.25550  0.55990  Biso   1.000  C
  C66      1.0000 0.15920  0.18100  0.60680  Biso   1.000  C
  C67      1.0000 0.44580  0.20600  0.59010  Biso   1.000  C
  C68      1.0000 0.44210  0.26030  0.67040  Biso   1.000  C
  C69      1.0000 0.44450  0.21150  0.75330  Biso   1.000  C
  C70      1.0000 0.44950  0.10910  0.75570  Biso   1.000  C
  C71      1.0000 0.45200  0.05560  0.67750  Biso   1.000  C
  C72      1.0000 0.45050  0.10390  0.59450  Biso   1.000  C
  C73      1.0000 0.45140  0.25260  0.49900  Biso   1.000  C
  C74      1.0000 0.43910  0.37190  0.66310  Biso   1.000  C
  C75      1.0000 0.44670  0.26750  0.83940  Biso   1.000  C
  C76      1.0000 0.09660  0.58000  0.53850  Biso   1.000  C
  C77      1.0000 0.02130  0.64970  0.56500  Biso   1.000  C
  C78      1.0000 0.03620  0.71240  0.63310  Biso   1.000  C
  C79      1.0000 0.13020  0.70320  0.66990  Biso   1.000  C
  C80      1.0000 0.20450  0.63230  0.63770  Biso   1.000  C
  C81      1.0000 0.94630  0.78370  0.66770  Biso   1.000  C
  C82      1.0000 0.96840  0.85400  0.73610  Biso   1.000  C
  C83      1.0000 0.87930  0.92730  0.75980  Biso   1.000  C
  C84      1.0000 0.79950  0.88370  0.81230  Biso   1.000  C
  C85      1.0000 0.70660  0.88640  0.77800  Biso   1.000  C
  C86      1.0000 0.63600  0.84300  0.82730  Biso   1.000  C
  C87      1.0000 0.74450  0.79990  0.94010  Biso   1.000  C
  C88      1.0000 0.81900  0.84080  0.89320  Biso   1.000  C
  N1       1.0000 0.56890  0.18730  0.07440  Biso   1.000  N
  N2       1.0000 0.80030  0.65490  0.40710  Biso   1.000  N
  N3       1.0000 0.81270  0.43110  0.42560  Biso   1.000  N
  N4       1.0000 0.34510  0.19970  0.09290  Biso   1.000  N
  N5       1.0000 0.43110  0.81270  0.92560  Biso   1.000  N
  N6       1.0000 0.19970  0.34510  0.59290  Biso   1.000  N
  N7       1.0000 0.18730  0.56890  0.57440  Biso   1.000  N
  N8       1.0000 0.65490  0.80030  0.90710  Biso   1.000  N
  O1       1.0000 0.53825  0.39931  0.01300  Biso   1.000  O
  O2       1.0000 0.34297  0.41617  0.99050  Biso   1.000  O
  O3       1.0000 0.20180  0.49120  0.93640  Biso   1.000  O
  O4       1.0000 0.42452  0.35534  0.16830  Biso   1.000  O
  O5       1.0000 0.40288  0.51868  0.14880  Biso   1.000  O
  O6       1.0000 0.35560  0.46000  0.33050  Biso   1.000  O
  O7       1.0000 0.22478  0.43818  0.41460  Biso   1.000  O
  O8       1.0000 0.34580  0.54180  0.82300  Biso   1.000  O
  O9       1.0000 0.60069  0.46175  0.48700  Biso   1.000  O
  O10      1.0000 0.58383  0.65703  0.50950  Biso   1.000  O
  O11      1.0000 0.50880  0.79820  0.56360  Biso   1.000  O
  O12      1.0000 0.64466  0.57548  0.33170  Biso   1.000  O
  O13      1.0000 0.48132  0.59712  0.35120  Biso   1.000  O
  O14      1.0000 0.54000  0.64440  0.16950  Biso   1.000  O
  O15      1.0000 0.56182  0.77522  0.08540  Biso   1.000  O
  O16      1.0000 0.45820  0.65420  0.67700  Biso   1.000  O
  O17      1.0000 0.46175  0.60069  0.98700  Biso   1.000  O
  O18      1.0000 0.65703  0.58383  0.00950  Biso   1.000  O
  O19      1.0000 0.79820  0.50880  0.06360  Biso   1.000  O
  O20      1.0000 0.57548  0.64466  0.83170  Biso   1.000  O
  O21      1.0000 0.59712  0.48132  0.85120  Biso   1.000  O
  O22      1.0000 0.64440  0.54000  0.66950  Biso   1.000  O
  O23      1.0000 0.77522  0.56182  0.58540  Biso   1.000  O
  O24      1.0000 0.65420  0.45820  0.17700  Biso   1.000  O
  O25      1.0000 0.39931  0.53825  0.51300  Biso   1.000  O
  O26      1.0000 0.41617  0.34297  0.49050  Biso   1.000  O
  O27      1.0000 0.49120  0.20180  0.43640  Biso   1.000  O
  O28      1.0000 0.35534  0.42452  0.66830  Biso   1.000  O
  O29      1.0000 0.51868  0.40288  0.64880  Biso   1.000  O
  O30      1.0000 0.46000  0.35560  0.83050  Biso   1.000  O
  O31      1.0000 0.43818  0.22478  0.91460  Biso   1.000  O
  O32      1.0000 0.54180  0.34580  0.32300  Biso   1.000  O
