data_image0
_cell_length_a       8.98461
_cell_length_b       12.3259
_cell_length_c       24.0229
_cell_angle_alpha    90
_cell_angle_beta     90
_cell_angle_gamma    111.374

_symmetry_space_group_name_H-M    P 1
_symmetry_int_tables_number       1

loop_
  _symmetry_equiv_pos_as_xyz
  'x, y, z'

loop_
  _atom_site_label
  _atom_site_occupancy
  _atom_site_fract_x
  _atom_site_fract_y
  _atom_site_fract_z
  _atom_site_thermal_displace_type
  _atom_site_B_iso_or_equiv
  _atom_site_type_symbol
  Fe1      1.0000 0.50000  0.50000  0.50000  Biso   1.000  Fe
  Fe2      1.0000 0.00000  0.50000  0.00000  Biso   1.000  Fe
  H1       1.0000 0.84350  0.59820  0.55120  Biso   1.000  H
  H2       1.0000 0.00030  0.73040  0.61340  Biso   1.000  H
  H3       1.0000 0.61170  0.79240  0.66200  Biso   1.000  H
  H4       1.0000 0.46880  0.65760  0.59800  Biso   1.000  H
  H5       1.0000 0.82150  0.97200  0.69070  Biso   1.000  H
  H6       1.0000 0.77390  0.87500  0.73710  Biso   1.000  H
  H7       1.0000 0.15650  0.40180  0.55120  Biso   1.000  H
  H8       1.0000 0.99970  0.26960  0.61340  Biso   1.000  H
  H9       1.0000 0.38830  0.20760  0.66200  Biso   1.000  H
  H10      1.0000 0.53120  0.34240  0.59800  Biso   1.000  H
  H11      1.0000 0.17850  0.02800  0.69070  Biso   1.000  H
  H12      1.0000 0.22610  0.12500  0.73710  Biso   1.000  H
  H13      1.0000 0.75470  0.59820  0.94880  Biso   1.000  H
  H14      1.0000 0.73010  0.73040  0.88660  Biso   1.000  H
  H15      1.0000 0.18070  0.79240  0.83800  Biso   1.000  H
  H16      1.0000 0.18880  0.65760  0.90200  Biso   1.000  H
  H17      1.0000 0.15050  0.97200  0.80930  Biso   1.000  H
  H18      1.0000 0.10110  0.87500  0.76290  Biso   1.000  H
  H19      1.0000 0.24530  0.40180  0.94880  Biso   1.000  H
  H20      1.0000 0.26990  0.26960  0.88660  Biso   1.000  H
  H21      1.0000 0.81930  0.20760  0.83800  Biso   1.000  H
  H22      1.0000 0.81120  0.34240  0.90200  Biso   1.000  H
  H23      1.0000 0.84950  0.02800  0.80930  Biso   1.000  H
  H24      1.0000 0.89890  0.12500  0.76290  Biso   1.000  H
  H25      1.0000 0.15650  0.40180  0.44880  Biso   1.000  H
  H26      1.0000 0.99970  0.26960  0.38660  Biso   1.000  H
  H27      1.0000 0.38830  0.20760  0.33800  Biso   1.000  H
  H28      1.0000 0.53120  0.34240  0.40200  Biso   1.000  H
  H29      1.0000 0.17850  0.02800  0.30930  Biso   1.000  H
  H30      1.0000 0.22610  0.12500  0.26290  Biso   1.000  H
  H31      1.0000 0.84350  0.59820  0.44880  Biso   1.000  H
  H32      1.0000 0.00030  0.73040  0.38660  Biso   1.000  H
  H33      1.0000 0.61170  0.79240  0.33800  Biso   1.000  H
  H34      1.0000 0.46880  0.65760  0.40200  Biso   1.000  H
  H35      1.0000 0.82150  0.97200  0.30930  Biso   1.000  H
  H36      1.0000 0.77390  0.87500  0.26290  Biso   1.000  H
  H37      1.0000 0.24530  0.40180  0.05120  Biso   1.000  H
  H38      1.0000 0.26990  0.26960  0.11340  Biso   1.000  H
  H39      1.0000 0.81930  0.20760  0.16200  Biso   1.000  H
  H40      1.0000 0.81120  0.34240  0.09800  Biso   1.000  H
  H41      1.0000 0.84950  0.02800  0.19070  Biso   1.000  H
  H42      1.0000 0.89890  0.12500  0.23710  Biso   1.000  H
  H43      1.0000 0.75470  0.59820  0.05120  Biso   1.000  H
  H44      1.0000 0.73010  0.73040  0.11340  Biso   1.000  H
  H45      1.0000 0.18070  0.79240  0.16200  Biso   1.000  H
  H46      1.0000 0.18880  0.65760  0.09800  Biso   1.000  H
  H47      1.0000 0.15050  0.97200  0.19070  Biso   1.000  H
  H48      1.0000 0.10110  0.87500  0.23710  Biso   1.000  H
  C1       1.0000 0.79648  0.63856  0.57340  Biso   1.000  C
  C2       1.0000 0.89172  0.71724  0.61084  Biso   1.000  C
  C3       1.0000 0.82322  0.77684  0.64485  Biso   1.000  C
  C4       1.0000 0.66199  0.75418  0.63975  Biso   1.000  C
  C5       1.0000 0.57799  0.67358  0.60086  Biso   1.000  C
  C6       1.0000 0.86080  0.92400  0.71395  Biso   1.000  C
  C7       1.0000 0.20352  0.36144  0.57340  Biso   1.000  C
  C8       1.0000 0.10828  0.28276  0.61084  Biso   1.000  C
  C9       1.0000 0.17678  0.22316  0.64485  Biso   1.000  C
  C10      1.0000 0.33801  0.24582  0.63975  Biso   1.000  C
  C11      1.0000 0.42201  0.32642  0.60086  Biso   1.000  C
  C12      1.0000 0.13920  0.07600  0.71395  Biso   1.000  C
  C13      1.0000 0.84208  0.63856  0.92660  Biso   1.000  C
  C14      1.0000 0.82552  0.71724  0.88916  Biso   1.000  C
  C15      1.0000 0.95362  0.77684  0.85515  Biso   1.000  C
  C16      1.0000 0.09219  0.75418  0.86025  Biso   1.000  C
  C17      1.0000 0.09559  0.67358  0.89914  Biso   1.000  C
  C18      1.0000 0.06320  0.92400  0.78605  Biso   1.000  C
  C19      1.0000 0.15792  0.36144  0.92660  Biso   1.000  C
  C20      1.0000 0.17448  0.28276  0.88916  Biso   1.000  C
  C21      1.0000 0.04638  0.22316  0.85515  Biso   1.000  C
  C22      1.0000 0.90781  0.24582  0.86025  Biso   1.000  C
  C23      1.0000 0.90441  0.32642  0.89914  Biso   1.000  C
  C24      1.0000 0.93680  0.07600  0.78605  Biso   1.000  C
  C25      1.0000 0.20352  0.36144  0.42660  Biso   1.000  C
  C26      1.0000 0.10828  0.28276  0.38916  Biso   1.000  C
  C27      1.0000 0.17678  0.22316  0.35515  Biso   1.000  C
  C28      1.0000 0.33801  0.24582  0.36025  Biso   1.000  C
  C29      1.0000 0.42201  0.32642  0.39914  Biso   1.000  C
  C30      1.0000 0.13920  0.07600  0.28605  Biso   1.000  C
  C31      1.0000 0.79648  0.63856  0.42660  Biso   1.000  C
  C32      1.0000 0.89172  0.71724  0.38916  Biso   1.000  C
  C33      1.0000 0.82322  0.77684  0.35515  Biso   1.000  C
  C34      1.0000 0.66199  0.75418  0.36025  Biso   1.000  C
  C35      1.0000 0.57799  0.67358  0.39914  Biso   1.000  C
  C36      1.0000 0.86080  0.92400  0.28605  Biso   1.000  C
  C37      1.0000 0.15792  0.36144  0.07340  Biso   1.000  C
  C38      1.0000 0.17448  0.28276  0.11084  Biso   1.000  C
  C39      1.0000 0.04638  0.22316  0.14485  Biso   1.000  C
  C40      1.0000 0.90781  0.24582  0.13975  Biso   1.000  C
  C41      1.0000 0.90441  0.32642  0.10086  Biso   1.000  C
  C42      1.0000 0.93680  0.07600  0.21395  Biso   1.000  C
  C43      1.0000 0.84208  0.63856  0.07340  Biso   1.000  C
  C44      1.0000 0.82552  0.71724  0.11084  Biso   1.000  C
  C45      1.0000 0.95362  0.77684  0.14485  Biso   1.000  C
  C46      1.0000 0.09219  0.75418  0.13975  Biso   1.000  C
  C47      1.0000 0.09559  0.67358  0.10086  Biso   1.000  C
  C48      1.0000 0.06320  0.92400  0.21395  Biso   1.000  C
  C49      1.0000 0.71947  0.34154  0.50000  Biso   1.000  C
  C50      1.0000 0.28053  0.65846  0.50000  Biso   1.000  C
  C51      1.0000 0.62207  0.34154  0.00000  Biso   1.000  C
  C52      1.0000 0.37793  0.65846  0.00000  Biso   1.000  C
  C53      1.0000 0.00000  0.00000  0.75000  Biso   1.000  C
  C54      1.0000 0.00000  0.00000  0.25000  Biso   1.000  C
  S1       1.0000 0.80153  0.24310  0.50000  Biso   1.000  S
  S2       1.0000 0.19847  0.75690  0.50000  Biso   1.000  S
  S3       1.0000 0.44157  0.24310  0.00000  Biso   1.000  S
  S4       1.0000 0.55843  0.75690  0.00000  Biso   1.000  S
  N1       1.0000 0.64144  0.61628  0.56677  Biso   1.000  N
  N2       1.0000 0.35856  0.38372  0.56677  Biso   1.000  N
  N3       1.0000 0.97484  0.61628  0.93323  Biso   1.000  N
  N4       1.0000 0.02516  0.38372  0.93323  Biso   1.000  N
  N5       1.0000 0.35856  0.38372  0.43323  Biso   1.000  N
  N6       1.0000 0.64144  0.61628  0.43323  Biso   1.000  N
  N7       1.0000 0.02516  0.38372  0.06677  Biso   1.000  N
  N8       1.0000 0.97484  0.61628  0.06677  Biso   1.000  N
  N9       1.0000 0.66066  0.40992  0.50000  Biso   1.000  N
  N10      1.0000 0.33934  0.59008  0.50000  Biso   1.000  N
  N11      1.0000 0.74926  0.40992  0.00000  Biso   1.000  N
  N12      1.0000 0.25074  0.59008  0.00000  Biso   1.000  N
  O1       1.0000 0.92329  0.85438  0.68039  Biso   1.000  O
  O2       1.0000 0.07671  0.14562  0.68039  Biso   1.000  O
  O3       1.0000 0.93109  0.85438  0.81961  Biso   1.000  O
  O4       1.0000 0.06891  0.14562  0.81961  Biso   1.000  O
  O5       1.0000 0.07671  0.14562  0.31961  Biso   1.000  O
  O6       1.0000 0.92329  0.85438  0.31961  Biso   1.000  O
  O7       1.0000 0.06891  0.14562  0.18039  Biso   1.000  O
  O8       1.0000 0.93109  0.85438  0.18039  Biso   1.000  O
