data_image0
_cell_length_a       10.2031
_cell_length_b       11.4588
_cell_length_c       17.5346
_cell_angle_alpha    90
_cell_angle_beta     90
_cell_angle_gamma    109.874

_symmetry_space_group_name_H-M    P 1
_symmetry_int_tables_number       1

loop_
  _symmetry_equiv_pos_as_xyz
  'x, y, z'

loop_
  _atom_site_label
  _atom_site_occupancy
  _atom_site_fract_x
  _atom_site_fract_y
  _atom_site_fract_z
  _atom_site_thermal_displace_type
  _atom_site_B_iso_or_equiv
  _atom_site_type_symbol
  Eu1      1.0000 0.49060  0.31895  0.99272  Biso   1.000  Eu
  Eu2      1.0000 0.50940  0.18105  0.49272  Biso   1.000  Eu
  Eu3      1.0000 0.50940  0.68105  0.00728  Biso   1.000  Eu
  Eu4      1.0000 0.49060  0.81895  0.50728  Biso   1.000  Eu
  H1       1.0000 0.40080  0.36540  0.71490  Biso   1.000  H
  H2       1.0000 0.44840  0.46330  0.59860  Biso   1.000  H
  H3       1.0000 0.64500  0.78340  0.69790  Biso   1.000  H
  H4       1.0000 0.58910  0.69430  0.81660  Biso   1.000  H
  H5       1.0000 0.01840  0.21140  0.00860  Biso   1.000  H
  H6       1.0000 0.78080  0.15360  0.02620  Biso   1.000  H
  H7       1.0000 0.82540  0.47230  0.12550  Biso   1.000  H
  H8       1.0000 0.06320  0.53890  0.10700  Biso   1.000  H
  H9       1.0000 0.59920  0.13460  0.21490  Biso   1.000  H
  H10      1.0000 0.55160  0.03670  0.09860  Biso   1.000  H
  H11      1.0000 0.35500  0.71660  0.19790  Biso   1.000  H
  H12      1.0000 0.41090  0.80570  0.31660  Biso   1.000  H
  H13      1.0000 0.98160  0.28860  0.50860  Biso   1.000  H
  H14      1.0000 0.21920  0.34640  0.52620  Biso   1.000  H
  H15      1.0000 0.17460  0.02770  0.62550  Biso   1.000  H
  H16      1.0000 0.93680  0.96110  0.60700  Biso   1.000  H
  H17      1.0000 0.59920  0.63460  0.28510  Biso   1.000  H
  H18      1.0000 0.55160  0.53670  0.40140  Biso   1.000  H
  H19      1.0000 0.35500  0.21660  0.30210  Biso   1.000  H
  H20      1.0000 0.41090  0.30570  0.18340  Biso   1.000  H
  H21      1.0000 0.98160  0.78860  0.99140  Biso   1.000  H
  H22      1.0000 0.21920  0.84640  0.97380  Biso   1.000  H
  H23      1.0000 0.17460  0.52770  0.87450  Biso   1.000  H
  H24      1.0000 0.93680  0.46110  0.89300  Biso   1.000  H
  H25      1.0000 0.40080  0.86540  0.78510  Biso   1.000  H
  H26      1.0000 0.44840  0.96330  0.90140  Biso   1.000  H
  H27      1.0000 0.64500  0.28340  0.80210  Biso   1.000  H
  H28      1.0000 0.58910  0.19430  0.68340  Biso   1.000  H
  H29      1.0000 0.01840  0.71140  0.49140  Biso   1.000  H
  H30      1.0000 0.78080  0.65360  0.47380  Biso   1.000  H
  H31      1.0000 0.82540  0.97230  0.37450  Biso   1.000  H
  H32      1.0000 0.06320  0.03890  0.39300  Biso   1.000  H
  C1       1.0000 0.46200  0.45750  0.85600  Biso   1.000  C
  C2       1.0000 0.49140  0.52000  0.77890  Biso   1.000  C
  C3       1.0000 0.44910  0.45020  0.71220  Biso   1.000  C
  C4       1.0000 0.47960  0.50860  0.64300  Biso   1.000  C
  C5       1.0000 0.59470  0.69910  0.70190  Biso   1.000  C
  C6       1.0000 0.56280  0.64590  0.77290  Biso   1.000  C
  C7       1.0000 0.22290  0.42660  0.03820  Biso   1.000  C
  C8       1.0000 0.06970  0.38310  0.05450  Biso   1.000  C
  C9       1.0000 0.98110  0.26640  0.03140  Biso   1.000  C
  C10      1.0000 0.83900  0.23160  0.04180  Biso   1.000  C
  C11      1.0000 0.86570  0.42140  0.10040  Biso   1.000  C
  C12      1.0000 0.00800  0.46060  0.09020  Biso   1.000  C
  C13      1.0000 0.53800  0.04250  0.35600  Biso   1.000  C
  C14      1.0000 0.50860  0.98000  0.27890  Biso   1.000  C
  C15      1.0000 0.55090  0.04980  0.21220  Biso   1.000  C
  C16      1.0000 0.52040  0.99140  0.14300  Biso   1.000  C
  C17      1.0000 0.40530  0.80090  0.20190  Biso   1.000  C
  C18      1.0000 0.43720  0.85410  0.27290  Biso   1.000  C
  C19      1.0000 0.77710  0.07340  0.53820  Biso   1.000  C
  C20      1.0000 0.93030  0.11690  0.55450  Biso   1.000  C
  C21      1.0000 0.01890  0.23360  0.53140  Biso   1.000  C
  C22      1.0000 0.16100  0.26840  0.54180  Biso   1.000  C
  C23      1.0000 0.13430  0.07860  0.60040  Biso   1.000  C
  C24      1.0000 0.99200  0.03940  0.59020  Biso   1.000  C
  C25      1.0000 0.53800  0.54250  0.14400  Biso   1.000  C
  C26      1.0000 0.50860  0.48000  0.22110  Biso   1.000  C
  C27      1.0000 0.55090  0.54980  0.28780  Biso   1.000  C
  C28      1.0000 0.52040  0.49140  0.35700  Biso   1.000  C
  C29      1.0000 0.40530  0.30090  0.29810  Biso   1.000  C
  C30      1.0000 0.43720  0.35410  0.22710  Biso   1.000  C
  C31      1.0000 0.77710  0.57340  0.96180  Biso   1.000  C
  C32      1.0000 0.93030  0.61690  0.94550  Biso   1.000  C
  C33      1.0000 0.01890  0.73360  0.96860  Biso   1.000  C
  C34      1.0000 0.16100  0.76840  0.95820  Biso   1.000  C
  C35      1.0000 0.13430  0.57860  0.89960  Biso   1.000  C
  C36      1.0000 0.99200  0.53940  0.90980  Biso   1.000  C
  C37      1.0000 0.46200  0.95750  0.64400  Biso   1.000  C
  C38      1.0000 0.49140  0.02000  0.72110  Biso   1.000  C
  C39      1.0000 0.44910  0.95020  0.78780  Biso   1.000  C
  C40      1.0000 0.47960  0.00860  0.85700  Biso   1.000  C
  C41      1.0000 0.59470  0.19910  0.79810  Biso   1.000  C
  C42      1.0000 0.56280  0.14590  0.72710  Biso   1.000  C
  C43      1.0000 0.22290  0.92660  0.46180  Biso   1.000  C
  C44      1.0000 0.06970  0.88310  0.44550  Biso   1.000  C
  C45      1.0000 0.98110  0.76640  0.46860  Biso   1.000  C
  C46      1.0000 0.83900  0.73160  0.45820  Biso   1.000  C
  C47      1.0000 0.86570  0.92140  0.39960  Biso   1.000  C
  C48      1.0000 0.00800  0.96060  0.40980  Biso   1.000  C
  N1       1.0000 0.26820  0.09090  0.03190  Biso   1.000  N
  N2       1.0000 0.55400  0.63050  0.63810  Biso   1.000  N
  N3       1.0000 0.78530  0.31080  0.07460  Biso   1.000  N
  N4       1.0000 0.73180  0.40910  0.53190  Biso   1.000  N
  N5       1.0000 0.44600  0.86950  0.13810  Biso   1.000  N
  N6       1.0000 0.21470  0.18920  0.57460  Biso   1.000  N
  N7       1.0000 0.73180  0.90910  0.96810  Biso   1.000  N
  N8       1.0000 0.44600  0.36950  0.36190  Biso   1.000  N
  N9       1.0000 0.21470  0.68920  0.92540  Biso   1.000  N
  N10      1.0000 0.26820  0.59090  0.46810  Biso   1.000  N
  N11      1.0000 0.55400  0.13050  0.86190  Biso   1.000  N
  N12      1.0000 0.78530  0.81080  0.42540  Biso   1.000  N
  O1       1.0000 0.35300  0.15530  0.08200  Biso   1.000  O
  O2       1.0000 0.29640  0.11840  0.96310  Biso   1.000  O
  O3       1.0000 0.43920  0.34350  0.85900  Biso   1.000  O
  O4       1.0000 0.47450  0.52270  0.91480  Biso   1.000  O
  O5       1.0000 0.58760  0.68300  0.57070  Biso   1.000  O
  O6       1.0000 0.27140  0.34630  0.01510  Biso   1.000  O
  O7       1.0000 0.28970  0.54090  0.04770  Biso   1.000  O
  O8       1.0000 0.64630  0.27450  0.08210  Biso   1.000  O
  O9       1.0000 0.16820  0.00510  0.04900  Biso   1.000  O
  O10      1.0000 0.64700  0.34470  0.58200  Biso   1.000  O
  O11      1.0000 0.70360  0.38160  0.46310  Biso   1.000  O
  O12      1.0000 0.56080  0.15650  0.35900  Biso   1.000  O
  O13      1.0000 0.52550  0.97730  0.41480  Biso   1.000  O
  O14      1.0000 0.41240  0.81700  0.07070  Biso   1.000  O
  O15      1.0000 0.72860  0.15370  0.51510  Biso   1.000  O
  O16      1.0000 0.71030  0.95910  0.54770  Biso   1.000  O
  O17      1.0000 0.35370  0.22550  0.58210  Biso   1.000  O
  O18      1.0000 0.83180  0.49490  0.54900  Biso   1.000  O
  O19      1.0000 0.64700  0.84470  0.91800  Biso   1.000  O
  O20      1.0000 0.70360  0.88160  0.03690  Biso   1.000  O
  O21      1.0000 0.56080  0.65650  0.14100  Biso   1.000  O
  O22      1.0000 0.52550  0.47730  0.08520  Biso   1.000  O
  O23      1.0000 0.41240  0.31700  0.42930  Biso   1.000  O
  O24      1.0000 0.72860  0.65370  0.98490  Biso   1.000  O
  O25      1.0000 0.71030  0.45910  0.95230  Biso   1.000  O
  O26      1.0000 0.35370  0.72550  0.91790  Biso   1.000  O
  O27      1.0000 0.83180  0.99490  0.95100  Biso   1.000  O
  O28      1.0000 0.35300  0.65530  0.41800  Biso   1.000  O
  O29      1.0000 0.29640  0.61840  0.53690  Biso   1.000  O
  O30      1.0000 0.43920  0.84350  0.64100  Biso   1.000  O
  O31      1.0000 0.47450  0.02270  0.58520  Biso   1.000  O
  O32      1.0000 0.58760  0.18300  0.92930  Biso   1.000  O
  O33      1.0000 0.27140  0.84630  0.48490  Biso   1.000  O
  O34      1.0000 0.28970  0.04090  0.45230  Biso   1.000  O
  O35      1.0000 0.64630  0.77450  0.41790  Biso   1.000  O
  O36      1.0000 0.16820  0.50510  0.45100  Biso   1.000  O
