data_image0
_cell_length_a       12.16
_cell_length_b       26.331
_cell_length_c       26.468
_cell_angle_alpha    90
_cell_angle_beta     90
_cell_angle_gamma    90

_symmetry_space_group_name_H-M    P 1
_symmetry_int_tables_number       1

loop_
  _symmetry_equiv_pos_as_xyz
  'x, y, z'

loop_
  _atom_site_label
  _atom_site_occupancy
  _atom_site_fract_x
  _atom_site_fract_y
  _atom_site_fract_z
  _atom_site_thermal_displace_type
  _atom_site_B_iso_or_equiv
  _atom_site_type_symbol
  Zn1      1.0000 0.91507  0.45961  0.99294  Biso   1.000  Zn
  Zn2      1.0000 0.08493  0.95961  0.00706  Biso   1.000  Zn
  Zn3      1.0000 0.08493  0.04039  0.49294  Biso   1.000  Zn
  Zn4      1.0000 0.91507  0.54039  0.50706  Biso   1.000  Zn
  Zn5      1.0000 0.08493  0.54039  0.00706  Biso   1.000  Zn
  Zn6      1.0000 0.91507  0.04039  0.99294  Biso   1.000  Zn
  Zn7      1.0000 0.91507  0.95961  0.50706  Biso   1.000  Zn
  Zn8      1.0000 0.08493  0.45961  0.49294  Biso   1.000  Zn
  Zn9      1.0000 0.16448  0.75000  0.77712  Biso   1.000  Zn
  Zn10     1.0000 0.98955  0.75000  0.69645  Biso   1.000  Zn
  Zn11     1.0000 0.83552  0.25000  0.22288  Biso   1.000  Zn
  Zn12     1.0000 0.01045  0.25000  0.30355  Biso   1.000  Zn
  Zn13     1.0000 0.83552  0.75000  0.27712  Biso   1.000  Zn
  Zn14     1.0000 0.01045  0.75000  0.19645  Biso   1.000  Zn
  Zn15     1.0000 0.16448  0.25000  0.72288  Biso   1.000  Zn
  Zn16     1.0000 0.98955  0.25000  0.80355  Biso   1.000  Zn
  H1       1.0000 0.57300  0.52960  0.82160  Biso   1.000  H
  H2       1.0000 0.66440  0.49030  0.80570  Biso   1.000  H
  H3       1.0000 0.41980  0.44830  0.74170  Biso   1.000  H
  H4       1.0000 0.51950  0.42590  0.77230  Biso   1.000  H
  H5       1.0000 0.80360  0.63150  0.75440  Biso   1.000  H
  H6       1.0000 0.00480  0.63190  0.87370  Biso   1.000  H
  H7       1.0000 0.76220  0.52790  0.86450  Biso   1.000  H
  H8       1.0000 0.34130  0.38160  0.78350  Biso   1.000  H
  H9       1.0000 0.31420  0.49070  0.88920  Biso   1.000  H
  H10      1.0000 0.10290  0.37420  0.88850  Biso   1.000  H
  H11      1.0000 0.42700  0.02960  0.17840  Biso   1.000  H
  H12      1.0000 0.33560  0.99030  0.19430  Biso   1.000  H
  H13      1.0000 0.58020  0.94830  0.25830  Biso   1.000  H
  H14      1.0000 0.48050  0.92590  0.22770  Biso   1.000  H
  H15      1.0000 0.19640  0.13150  0.24560  Biso   1.000  H
  H16      1.0000 0.99520  0.13190  0.12630  Biso   1.000  H
  H17      1.0000 0.23780  0.02790  0.13550  Biso   1.000  H
  H18      1.0000 0.65870  0.88160  0.21650  Biso   1.000  H
  H19      1.0000 0.68580  0.99070  0.11080  Biso   1.000  H
  H20      1.0000 0.89710  0.87420  0.11150  Biso   1.000  H
  H21      1.0000 0.42700  0.97040  0.32160  Biso   1.000  H
  H22      1.0000 0.33560  0.00970  0.30570  Biso   1.000  H
  H23      1.0000 0.58020  0.05170  0.24170  Biso   1.000  H
  H24      1.0000 0.48050  0.07410  0.27230  Biso   1.000  H
  H25      1.0000 0.19640  0.86850  0.25440  Biso   1.000  H
  H26      1.0000 0.99520  0.86810  0.37370  Biso   1.000  H
  H27      1.0000 0.23780  0.97210  0.36450  Biso   1.000  H
  H28      1.0000 0.65870  0.11840  0.28350  Biso   1.000  H
  H29      1.0000 0.68580  0.00930  0.38920  Biso   1.000  H
  H30      1.0000 0.89710  0.12580  0.38850  Biso   1.000  H
  H31      1.0000 0.57300  0.47040  0.67840  Biso   1.000  H
  H32      1.0000 0.66440  0.50970  0.69430  Biso   1.000  H
  H33      1.0000 0.41980  0.55170  0.75830  Biso   1.000  H
  H34      1.0000 0.51950  0.57410  0.72770  Biso   1.000  H
  H35      1.0000 0.80360  0.36850  0.74560  Biso   1.000  H
  H36      1.0000 0.00480  0.36810  0.62630  Biso   1.000  H
  H37      1.0000 0.76220  0.47210  0.63550  Biso   1.000  H
  H38      1.0000 0.34130  0.61840  0.71650  Biso   1.000  H
  H39      1.0000 0.31420  0.50930  0.61080  Biso   1.000  H
  H40      1.0000 0.10290  0.62580  0.61150  Biso   1.000  H
  H41      1.0000 0.42700  0.47040  0.17840  Biso   1.000  H
  H42      1.0000 0.33560  0.50970  0.19430  Biso   1.000  H
  H43      1.0000 0.58020  0.55170  0.25830  Biso   1.000  H
  H44      1.0000 0.48050  0.57410  0.22770  Biso   1.000  H
  H45      1.0000 0.19640  0.36850  0.24560  Biso   1.000  H
  H46      1.0000 0.99520  0.36810  0.12630  Biso   1.000  H
  H47      1.0000 0.23780  0.47210  0.13550  Biso   1.000  H
  H48      1.0000 0.65870  0.61840  0.21650  Biso   1.000  H
  H49      1.0000 0.68580  0.50930  0.11080  Biso   1.000  H
  H50      1.0000 0.89710  0.62580  0.11150  Biso   1.000  H
  H51      1.0000 0.57300  0.97040  0.82160  Biso   1.000  H
  H52      1.0000 0.66440  0.00970  0.80570  Biso   1.000  H
  H53      1.0000 0.41980  0.05170  0.74170  Biso   1.000  H
  H54      1.0000 0.51950  0.07410  0.77230  Biso   1.000  H
  H55      1.0000 0.80360  0.86850  0.75440  Biso   1.000  H
  H56      1.0000 0.00480  0.86810  0.87370  Biso   1.000  H
  H57      1.0000 0.76220  0.97210  0.86450  Biso   1.000  H
  H58      1.0000 0.34130  0.11840  0.78350  Biso   1.000  H
  H59      1.0000 0.31420  0.00930  0.88920  Biso   1.000  H
  H60      1.0000 0.10290  0.12580  0.88850  Biso   1.000  H
  H61      1.0000 0.57300  0.02960  0.67840  Biso   1.000  H
  H62      1.0000 0.66440  0.99030  0.69430  Biso   1.000  H
  H63      1.0000 0.41980  0.94830  0.75830  Biso   1.000  H
  H64      1.0000 0.51950  0.92590  0.72770  Biso   1.000  H
  H65      1.0000 0.80360  0.13150  0.74560  Biso   1.000  H
  H66      1.0000 0.00480  0.13190  0.62630  Biso   1.000  H
  H67      1.0000 0.76220  0.02790  0.63550  Biso   1.000  H
  H68      1.0000 0.34130  0.88160  0.71650  Biso   1.000  H
  H69      1.0000 0.31420  0.99070  0.61080  Biso   1.000  H
  H70      1.0000 0.10290  0.87420  0.61150  Biso   1.000  H
  H71      1.0000 0.42700  0.52960  0.32160  Biso   1.000  H
  H72      1.0000 0.33560  0.49030  0.30570  Biso   1.000  H
  H73      1.0000 0.58020  0.44830  0.24170  Biso   1.000  H
  H74      1.0000 0.48050  0.42590  0.27230  Biso   1.000  H
  H75      1.0000 0.19640  0.63150  0.25440  Biso   1.000  H
  H76      1.0000 0.99520  0.63190  0.37370  Biso   1.000  H
  H77      1.0000 0.23780  0.52790  0.36450  Biso   1.000  H
  H78      1.0000 0.65870  0.38160  0.28350  Biso   1.000  H
  H79      1.0000 0.68580  0.49070  0.38920  Biso   1.000  H
  H80      1.0000 0.89710  0.37420  0.38850  Biso   1.000  H
  C1       1.0000 0.61860  0.51801  0.79376  Biso   1.000  C
  C2       1.0000 0.47480  0.45592  0.76712  Biso   1.000  C
  C3       1.0000 0.76880  0.57623  0.80499  Biso   1.000  C
  C4       1.0000 0.82520  0.61766  0.78516  Biso   1.000  C
  C5       1.0000 0.91200  0.63798  0.81073  Biso   1.000  C
  C6       1.0000 0.94540  0.61786  0.85657  Biso   1.000  C
  C7       1.0000 0.88970  0.57679  0.87664  Biso   1.000  C
  C8       1.0000 0.79990  0.55541  0.85096  Biso   1.000  C
  C9       1.0000 0.97490  0.68072  0.78622  Biso   1.000  C
  C10      1.0000 0.92870  0.55198  0.92492  Biso   1.000  C
  C11      1.0000 0.68790  0.34180  0.93160  Biso   1.000  C
  C12      1.0000 0.83340  0.39100  0.86960  Biso   1.000  C
  C13      1.0000 0.30520  0.39524  0.81129  Biso   1.000  C
  C14      1.0000 0.33940  0.44117  0.83182  Biso   1.000  C
  C15      1.0000 0.28820  0.46094  0.87462  Biso   1.000  C
  C16      1.0000 0.21630  0.36983  0.83281  Biso   1.000  C
  C17      1.0000 0.16310  0.39084  0.87450  Biso   1.000  C
  C18      1.0000 0.19880  0.43626  0.89528  Biso   1.000  C
  C19      1.0000 0.17300  0.32249  0.80971  Biso   1.000  C
  C20      1.0000 0.13500  0.46016  0.93822  Biso   1.000  C
  C21      1.0000 0.38140  0.01801  0.20624  Biso   1.000  C
  C22      1.0000 0.52520  0.95592  0.23288  Biso   1.000  C
  C23      1.0000 0.23120  0.07623  0.19501  Biso   1.000  C
  C24      1.0000 0.17480  0.11766  0.21484  Biso   1.000  C
  C25      1.0000 0.08800  0.13798  0.18927  Biso   1.000  C
  C26      1.0000 0.05460  0.11786  0.14343  Biso   1.000  C
  C27      1.0000 0.11030  0.07679  0.12336  Biso   1.000  C
  C28      1.0000 0.20010  0.05541  0.14904  Biso   1.000  C
  C29      1.0000 0.02510  0.18072  0.21378  Biso   1.000  C
  C30      1.0000 0.07130  0.05198  0.07508  Biso   1.000  C
  C31      1.0000 0.31210  0.84180  0.06840  Biso   1.000  C
  C32      1.0000 0.16660  0.89100  0.13040  Biso   1.000  C
  C33      1.0000 0.69480  0.89524  0.18871  Biso   1.000  C
  C34      1.0000 0.66060  0.94117  0.16818  Biso   1.000  C
  C35      1.0000 0.71180  0.96094  0.12538  Biso   1.000  C
  C36      1.0000 0.78370  0.86983  0.16719  Biso   1.000  C
  C37      1.0000 0.83690  0.89084  0.12550  Biso   1.000  C
  C38      1.0000 0.80120  0.93626  0.10472  Biso   1.000  C
  C39      1.0000 0.82700  0.82249  0.19029  Biso   1.000  C
  C40      1.0000 0.86500  0.96016  0.06178  Biso   1.000  C
  C41      1.0000 0.38140  0.98199  0.29376  Biso   1.000  C
  C42      1.0000 0.52520  0.04408  0.26712  Biso   1.000  C
  C43      1.0000 0.23120  0.92377  0.30499  Biso   1.000  C
  C44      1.0000 0.17480  0.88234  0.28516  Biso   1.000  C
  C45      1.0000 0.08800  0.86202  0.31073  Biso   1.000  C
  C46      1.0000 0.05460  0.88214  0.35657  Biso   1.000  C
  C47      1.0000 0.11030  0.92321  0.37664  Biso   1.000  C
  C48      1.0000 0.20010  0.94459  0.35096  Biso   1.000  C
  C49      1.0000 0.02510  0.81928  0.28622  Biso   1.000  C
  C50      1.0000 0.07130  0.94802  0.42492  Biso   1.000  C
  C51      1.0000 0.31210  0.15820  0.43160  Biso   1.000  C
  C52      1.0000 0.16660  0.10900  0.36960  Biso   1.000  C
  C53      1.0000 0.69480  0.10476  0.31129  Biso   1.000  C
  C54      1.0000 0.66060  0.05883  0.33182  Biso   1.000  C
  C55      1.0000 0.71180  0.03906  0.37462  Biso   1.000  C
  C56      1.0000 0.78370  0.13017  0.33281  Biso   1.000  C
  C57      1.0000 0.83690  0.10916  0.37450  Biso   1.000  C
  C58      1.0000 0.80120  0.06374  0.39528  Biso   1.000  C
  C59      1.0000 0.82700  0.17751  0.30971  Biso   1.000  C
  C60      1.0000 0.86500  0.03984  0.43822  Biso   1.000  C
  C61      1.0000 0.61860  0.48199  0.70624  Biso   1.000  C
  C62      1.0000 0.47480  0.54408  0.73288  Biso   1.000  C
  C63      1.0000 0.76880  0.42377  0.69501  Biso   1.000  C
  C64      1.0000 0.82520  0.38234  0.71484  Biso   1.000  C
  C65      1.0000 0.91200  0.36202  0.68927  Biso   1.000  C
  C66      1.0000 0.94540  0.38214  0.64343  Biso   1.000  C
  C67      1.0000 0.88970  0.42321  0.62336  Biso   1.000  C
  C68      1.0000 0.79990  0.44459  0.64904  Biso   1.000  C
  C69      1.0000 0.97490  0.31928  0.71378  Biso   1.000  C
  C70      1.0000 0.92870  0.44802  0.57508  Biso   1.000  C
  C71      1.0000 0.68790  0.65820  0.56840  Biso   1.000  C
  C72      1.0000 0.83340  0.60900  0.63040  Biso   1.000  C
  C73      1.0000 0.30520  0.60476  0.68871  Biso   1.000  C
  C74      1.0000 0.33940  0.55883  0.66818  Biso   1.000  C
  C75      1.0000 0.28820  0.53906  0.62538  Biso   1.000  C
  C76      1.0000 0.21630  0.63017  0.66719  Biso   1.000  C
  C77      1.0000 0.16310  0.60916  0.62550  Biso   1.000  C
  C78      1.0000 0.19880  0.56374  0.60472  Biso   1.000  C
  C79      1.0000 0.17300  0.67751  0.69029  Biso   1.000  C
  C80      1.0000 0.13500  0.53984  0.56178  Biso   1.000  C
  C81      1.0000 0.38140  0.48199  0.20624  Biso   1.000  C
  C82      1.0000 0.52520  0.54408  0.23288  Biso   1.000  C
  C83      1.0000 0.23120  0.42377  0.19501  Biso   1.000  C
  C84      1.0000 0.17480  0.38234  0.21484  Biso   1.000  C
  C85      1.0000 0.08800  0.36202  0.18927  Biso   1.000  C
  C86      1.0000 0.05460  0.38214  0.14343  Biso   1.000  C
  C87      1.0000 0.11030  0.42321  0.12336  Biso   1.000  C
  C88      1.0000 0.20010  0.44459  0.14904  Biso   1.000  C
  C89      1.0000 0.02510  0.31928  0.21378  Biso   1.000  C
  C90      1.0000 0.07130  0.44802  0.07508  Biso   1.000  C
  C91      1.0000 0.31210  0.65820  0.06840  Biso   1.000  C
  C92      1.0000 0.16660  0.60900  0.13040  Biso   1.000  C
  C93      1.0000 0.69480  0.60476  0.18871  Biso   1.000  C
  C94      1.0000 0.66060  0.55883  0.16818  Biso   1.000  C
  C95      1.0000 0.71180  0.53906  0.12538  Biso   1.000  C
  C96      1.0000 0.78370  0.63017  0.16719  Biso   1.000  C
  C97      1.0000 0.83690  0.60916  0.12550  Biso   1.000  C
  C98      1.0000 0.80120  0.56374  0.10472  Biso   1.000  C
  C99      1.0000 0.82700  0.67751  0.19029  Biso   1.000  C
  C100     1.0000 0.86500  0.53984  0.06178  Biso   1.000  C
  C101     1.0000 0.61860  0.98199  0.79376  Biso   1.000  C
  C102     1.0000 0.47480  0.04408  0.76712  Biso   1.000  C
  C103     1.0000 0.76880  0.92377  0.80499  Biso   1.000  C
  C104     1.0000 0.82520  0.88234  0.78516  Biso   1.000  C
  C105     1.0000 0.91200  0.86202  0.81073  Biso   1.000  C
  C106     1.0000 0.94540  0.88214  0.85657  Biso   1.000  C
  C107     1.0000 0.88970  0.92321  0.87664  Biso   1.000  C
  C108     1.0000 0.79990  0.94459  0.85096  Biso   1.000  C
  C109     1.0000 0.97490  0.81928  0.78622  Biso   1.000  C
  C110     1.0000 0.92870  0.94802  0.92492  Biso   1.000  C
  C111     1.0000 0.68790  0.15820  0.93160  Biso   1.000  C
  C112     1.0000 0.83340  0.10900  0.86960  Biso   1.000  C
  C113     1.0000 0.30520  0.10476  0.81129  Biso   1.000  C
  C114     1.0000 0.33940  0.05883  0.83182  Biso   1.000  C
  C115     1.0000 0.28820  0.03906  0.87462  Biso   1.000  C
  C116     1.0000 0.21630  0.13017  0.83281  Biso   1.000  C
  C117     1.0000 0.16310  0.10916  0.87450  Biso   1.000  C
  C118     1.0000 0.19880  0.06374  0.89528  Biso   1.000  C
  C119     1.0000 0.17300  0.17751  0.80971  Biso   1.000  C
  C120     1.0000 0.13500  0.03984  0.93822  Biso   1.000  C
  C121     1.0000 0.61860  0.01801  0.70624  Biso   1.000  C
  C122     1.0000 0.47480  0.95592  0.73288  Biso   1.000  C
  C123     1.0000 0.76880  0.07623  0.69501  Biso   1.000  C
  C124     1.0000 0.82520  0.11766  0.71484  Biso   1.000  C
  C125     1.0000 0.91200  0.13798  0.68927  Biso   1.000  C
  C126     1.0000 0.94540  0.11786  0.64343  Biso   1.000  C
  C127     1.0000 0.88970  0.07679  0.62336  Biso   1.000  C
  C128     1.0000 0.79990  0.05541  0.64904  Biso   1.000  C
  C129     1.0000 0.97490  0.18072  0.71378  Biso   1.000  C
  C130     1.0000 0.92870  0.05198  0.57508  Biso   1.000  C
  C131     1.0000 0.68790  0.84180  0.56840  Biso   1.000  C
  C132     1.0000 0.83340  0.89100  0.63040  Biso   1.000  C
  C133     1.0000 0.30520  0.89524  0.68871  Biso   1.000  C
  C134     1.0000 0.33940  0.94117  0.66818  Biso   1.000  C
  C135     1.0000 0.28820  0.96094  0.62538  Biso   1.000  C
  C136     1.0000 0.21630  0.86983  0.66719  Biso   1.000  C
  C137     1.0000 0.16310  0.89084  0.62550  Biso   1.000  C
  C138     1.0000 0.19880  0.93626  0.60472  Biso   1.000  C
  C139     1.0000 0.17300  0.82249  0.69029  Biso   1.000  C
  C140     1.0000 0.13500  0.96016  0.56178  Biso   1.000  C
  C141     1.0000 0.38140  0.51801  0.29376  Biso   1.000  C
  C142     1.0000 0.52520  0.45592  0.26712  Biso   1.000  C
  C143     1.0000 0.23120  0.57623  0.30499  Biso   1.000  C
  C144     1.0000 0.17480  0.61766  0.28516  Biso   1.000  C
  C145     1.0000 0.08800  0.63798  0.31073  Biso   1.000  C
  C146     1.0000 0.05460  0.61786  0.35657  Biso   1.000  C
  C147     1.0000 0.11030  0.57679  0.37664  Biso   1.000  C
  C148     1.0000 0.20010  0.55541  0.35096  Biso   1.000  C
  C149     1.0000 0.02510  0.68072  0.28622  Biso   1.000  C
  C150     1.0000 0.07130  0.55198  0.42492  Biso   1.000  C
  C151     1.0000 0.31210  0.34180  0.43160  Biso   1.000  C
  C152     1.0000 0.16660  0.39100  0.36960  Biso   1.000  C
  C153     1.0000 0.69480  0.39524  0.31129  Biso   1.000  C
  C154     1.0000 0.66060  0.44117  0.33182  Biso   1.000  C
  C155     1.0000 0.71180  0.46094  0.37462  Biso   1.000  C
  C156     1.0000 0.78370  0.36983  0.33281  Biso   1.000  C
  C157     1.0000 0.83690  0.39084  0.37450  Biso   1.000  C
  C158     1.0000 0.80120  0.43626  0.39528  Biso   1.000  C
  C159     1.0000 0.82700  0.32249  0.30971  Biso   1.000  C
  C160     1.0000 0.86500  0.46016  0.43822  Biso   1.000  C
  C161     1.0000 0.54630  0.50000  0.75000  Biso   1.000  C
  C162     1.0000 0.45370  0.00000  0.25000  Biso   1.000  C
  C163     1.0000 0.45370  0.50000  0.25000  Biso   1.000  C
  C164     1.0000 0.54630  0.00000  0.75000  Biso   1.000  C
  S1       1.0000 0.74860  0.40373  0.92384  Biso   1.000  S
  S2       1.0000 0.25140  0.90373  0.07616  Biso   1.000  S
  S3       1.0000 0.25140  0.09627  0.42384  Biso   1.000  S
  S4       1.0000 0.74860  0.59627  0.57616  Biso   1.000  S
  S5       1.0000 0.25140  0.59627  0.07616  Biso   1.000  S
  S6       1.0000 0.74860  0.09627  0.92384  Biso   1.000  S
  S7       1.0000 0.74860  0.90373  0.57616  Biso   1.000  S
  S8       1.0000 0.25140  0.40373  0.42384  Biso   1.000  S
  O1       1.0000 0.68500  0.55830  0.77595  Biso   1.000  O
  O2       1.0000 0.42320  0.47041  0.81314  Biso   1.000  O
  O3       1.0000 0.93530  0.69760  0.74566  Biso   1.000  O
  O4       1.0000 0.06150  0.69591  0.80744  Biso   1.000  O
  O5       1.0000 0.00750  0.57229  0.94695  Biso   1.000  O
  O6       1.0000 0.87970  0.51188  0.93811  Biso   1.000  O
  O7       1.0000 0.80990  0.40564  0.97365  Biso   1.000  O
  O8       1.0000 0.17440  0.49951  0.95712  Biso   1.000  O
  O9       1.0000 0.21900  0.30563  0.77127  Biso   1.000  O
  O10      1.0000 0.04650  0.43950  0.94968  Biso   1.000  O
  O11      1.0000 0.09000  0.30353  0.83149  Biso   1.000  O
  O12      1.0000 0.31500  0.05830  0.22405  Biso   1.000  O
  O13      1.0000 0.57680  0.97041  0.18686  Biso   1.000  O
  O14      1.0000 0.06470  0.19760  0.25434  Biso   1.000  O
  O15      1.0000 0.93850  0.19591  0.19256  Biso   1.000  O
  O16      1.0000 0.99250  0.07229  0.05305  Biso   1.000  O
  O17      1.0000 0.12030  0.01188  0.06189  Biso   1.000  O
  O18      1.0000 0.19010  0.90564  0.02635  Biso   1.000  O
  O19      1.0000 0.82560  0.99951  0.04288  Biso   1.000  O
  O20      1.0000 0.78100  0.80563  0.22873  Biso   1.000  O
  O21      1.0000 0.95350  0.93950  0.05032  Biso   1.000  O
  O22      1.0000 0.91000  0.80353  0.16851  Biso   1.000  O
  O23      1.0000 0.31500  0.94170  0.27595  Biso   1.000  O
  O24      1.0000 0.57680  0.02959  0.31314  Biso   1.000  O
  O25      1.0000 0.06470  0.80240  0.24566  Biso   1.000  O
  O26      1.0000 0.93850  0.80409  0.30744  Biso   1.000  O
  O27      1.0000 0.99250  0.92771  0.44695  Biso   1.000  O
  O28      1.0000 0.12030  0.98812  0.43811  Biso   1.000  O
  O29      1.0000 0.19010  0.09436  0.47365  Biso   1.000  O
  O30      1.0000 0.82560  0.00049  0.45712  Biso   1.000  O
  O31      1.0000 0.78100  0.19437  0.27127  Biso   1.000  O
  O32      1.0000 0.95350  0.06050  0.44968  Biso   1.000  O
  O33      1.0000 0.91000  0.19647  0.33149  Biso   1.000  O
  O34      1.0000 0.68500  0.44170  0.72405  Biso   1.000  O
  O35      1.0000 0.42320  0.52959  0.68686  Biso   1.000  O
  O36      1.0000 0.93530  0.30240  0.75434  Biso   1.000  O
  O37      1.0000 0.06150  0.30409  0.69256  Biso   1.000  O
  O38      1.0000 0.00750  0.42771  0.55305  Biso   1.000  O
  O39      1.0000 0.87970  0.48812  0.56189  Biso   1.000  O
  O40      1.0000 0.80990  0.59436  0.52635  Biso   1.000  O
  O41      1.0000 0.17440  0.50049  0.54288  Biso   1.000  O
  O42      1.0000 0.21900  0.69437  0.72873  Biso   1.000  O
  O43      1.0000 0.04650  0.56050  0.55032  Biso   1.000  O
  O44      1.0000 0.09000  0.69647  0.66851  Biso   1.000  O
  O45      1.0000 0.31500  0.44170  0.22405  Biso   1.000  O
  O46      1.0000 0.57680  0.52959  0.18686  Biso   1.000  O
  O47      1.0000 0.06470  0.30240  0.25434  Biso   1.000  O
  O48      1.0000 0.93850  0.30409  0.19256  Biso   1.000  O
  O49      1.0000 0.99250  0.42771  0.05305  Biso   1.000  O
  O50      1.0000 0.12030  0.48812  0.06189  Biso   1.000  O
  O51      1.0000 0.19010  0.59436  0.02635  Biso   1.000  O
  O52      1.0000 0.82560  0.50049  0.04288  Biso   1.000  O
  O53      1.0000 0.78100  0.69437  0.22873  Biso   1.000  O
  O54      1.0000 0.95350  0.56050  0.05032  Biso   1.000  O
  O55      1.0000 0.91000  0.69647  0.16851  Biso   1.000  O
  O56      1.0000 0.68500  0.94170  0.77595  Biso   1.000  O
  O57      1.0000 0.42320  0.02959  0.81314  Biso   1.000  O
  O58      1.0000 0.93530  0.80240  0.74566  Biso   1.000  O
  O59      1.0000 0.06150  0.80409  0.80744  Biso   1.000  O
  O60      1.0000 0.00750  0.92771  0.94695  Biso   1.000  O
  O61      1.0000 0.87970  0.98812  0.93811  Biso   1.000  O
  O62      1.0000 0.80990  0.09436  0.97365  Biso   1.000  O
  O63      1.0000 0.17440  0.00049  0.95712  Biso   1.000  O
  O64      1.0000 0.21900  0.19437  0.77127  Biso   1.000  O
  O65      1.0000 0.04650  0.06050  0.94968  Biso   1.000  O
  O66      1.0000 0.09000  0.19647  0.83149  Biso   1.000  O
  O67      1.0000 0.68500  0.05830  0.72405  Biso   1.000  O
  O68      1.0000 0.42320  0.97041  0.68686  Biso   1.000  O
  O69      1.0000 0.93530  0.19760  0.75434  Biso   1.000  O
  O70      1.0000 0.06150  0.19591  0.69256  Biso   1.000  O
  O71      1.0000 0.00750  0.07229  0.55305  Biso   1.000  O
  O72      1.0000 0.87970  0.01188  0.56189  Biso   1.000  O
  O73      1.0000 0.80990  0.90564  0.52635  Biso   1.000  O
  O74      1.0000 0.17440  0.99951  0.54288  Biso   1.000  O
  O75      1.0000 0.21900  0.80563  0.72873  Biso   1.000  O
  O76      1.0000 0.04650  0.93950  0.55032  Biso   1.000  O
  O77      1.0000 0.09000  0.80353  0.66851  Biso   1.000  O
  O78      1.0000 0.31500  0.55830  0.27595  Biso   1.000  O
  O79      1.0000 0.57680  0.47041  0.31314  Biso   1.000  O
  O80      1.0000 0.06470  0.69760  0.24566  Biso   1.000  O
  O81      1.0000 0.93850  0.69591  0.30744  Biso   1.000  O
  O82      1.0000 0.99250  0.57229  0.44695  Biso   1.000  O
  O83      1.0000 0.12030  0.51188  0.43811  Biso   1.000  O
  O84      1.0000 0.19010  0.40564  0.47365  Biso   1.000  O
  O85      1.0000 0.82560  0.49951  0.45712  Biso   1.000  O
  O86      1.0000 0.78100  0.30563  0.27127  Biso   1.000  O
  O87      1.0000 0.95350  0.43950  0.44968  Biso   1.000  O
  O88      1.0000 0.91000  0.30353  0.33149  Biso   1.000  O
  O89      1.0000 0.28820  0.75000  0.82464  Biso   1.000  O
  O90      1.0000 0.86290  0.75000  0.64730  Biso   1.000  O
  O91      1.0000 0.71180  0.25000  0.17536  Biso   1.000  O
  O92      1.0000 0.13710  0.25000  0.35270  Biso   1.000  O
  O93      1.0000 0.71180  0.75000  0.32464  Biso   1.000  O
  O94      1.0000 0.13710  0.75000  0.14730  Biso   1.000  O
  O95      1.0000 0.28820  0.25000  0.67536  Biso   1.000  O
  O96      1.0000 0.86290  0.25000  0.85270  Biso   1.000  O
