data_image0
_cell_length_a       12.383
_cell_length_b       26.271
_cell_length_c       26.278
_cell_angle_alpha    90
_cell_angle_beta     90
_cell_angle_gamma    90

_symmetry_space_group_name_H-M    P 1
_symmetry_int_tables_number       1

loop_
  _symmetry_equiv_pos_as_xyz
  'x, y, z'

loop_
  _atom_site_label
  _atom_site_occupancy
  _atom_site_fract_x
  _atom_site_fract_y
  _atom_site_fract_z
  _atom_site_thermal_displace_type
  _atom_site_B_iso_or_equiv
  _atom_site_type_symbol
  Zn1      1.0000 0.91743  0.99432  0.95916  Biso   1.000  Zn
  Zn2      1.0000 0.08257  0.00568  0.45916  Biso   1.000  Zn
  Zn3      1.0000 0.08257  0.49432  0.54084  Biso   1.000  Zn
  Zn4      1.0000 0.91743  0.50568  0.04084  Biso   1.000  Zn
  Zn5      1.0000 0.08257  0.00568  0.04084  Biso   1.000  Zn
  Zn6      1.0000 0.91743  0.99432  0.54084  Biso   1.000  Zn
  Zn7      1.0000 0.91743  0.50568  0.45916  Biso   1.000  Zn
  Zn8      1.0000 0.08257  0.49432  0.95916  Biso   1.000  Zn
  Zn9      1.0000 0.97881  0.69919  0.25000  Biso   1.000  Zn
  Zn10     1.0000 0.14665  0.78107  0.25000  Biso   1.000  Zn
  Zn11     1.0000 0.02119  0.30081  0.75000  Biso   1.000  Zn
  Zn12     1.0000 0.85335  0.21893  0.75000  Biso   1.000  Zn
  Zn13     1.0000 0.02119  0.19919  0.25000  Biso   1.000  Zn
  Zn14     1.0000 0.85335  0.28107  0.25000  Biso   1.000  Zn
  Zn15     1.0000 0.97881  0.80081  0.75000  Biso   1.000  Zn
  Zn16     1.0000 0.14665  0.71893  0.75000  Biso   1.000  Zn
  H1       1.0000 0.56550  0.82340  0.02440  Biso   1.000  H
  H2       1.0000 0.65790  0.80310  0.98870  Biso   1.000  H
  H3       1.0000 0.74930  0.86750  0.02760  Biso   1.000  H
  H4       1.0000 0.78500  0.75710  0.13260  Biso   1.000  H
  H5       1.0000 0.98840  0.87450  0.13020  Biso   1.000  H
  H6       1.0000 0.81220  0.04290  0.87670  Biso   1.000  H
  H7       1.0000 0.54410  0.00810  0.82910  Biso   1.000  H
  H8       1.0000 0.65460  0.01490  0.80090  Biso   1.000  H
  H9       1.0000 0.62950  0.96400  0.82960  Biso   1.000  H
  H10      1.0000 0.53010  0.05750  0.88610  Biso   1.000  H
  H11      1.0000 0.60790  0.05860  0.93310  Biso   1.000  H
  H12      1.0000 0.63210  0.09280  0.88560  Biso   1.000  H
  H13      1.0000 0.29720  0.61510  0.00800  Biso   1.000  H
  H14      1.0000 0.41660  0.76070  0.05400  Biso   1.000  H
  H15      1.0000 0.51090  0.72600  0.07450  Biso   1.000  H
  H16      1.0000 0.33090  0.72050  0.11830  Biso   1.000  H
  H17      1.0000 0.09580  0.61560  0.12680  Biso   1.000  H
  H18      1.0000 0.43450  0.17660  0.52440  Biso   1.000  H
  H19      1.0000 0.34210  0.19690  0.48870  Biso   1.000  H
  H20      1.0000 0.25070  0.13250  0.52760  Biso   1.000  H
  H21      1.0000 0.21500  0.24290  0.63260  Biso   1.000  H
  H22      1.0000 0.01160  0.12550  0.63020  Biso   1.000  H
  H23      1.0000 0.18780  0.95710  0.37670  Biso   1.000  H
  H24      1.0000 0.45590  0.99190  0.32910  Biso   1.000  H
  H25      1.0000 0.34540  0.98510  0.30090  Biso   1.000  H
  H26      1.0000 0.37050  0.03600  0.32960  Biso   1.000  H
  H27      1.0000 0.46990  0.94250  0.38610  Biso   1.000  H
  H28      1.0000 0.39210  0.94140  0.43310  Biso   1.000  H
  H29      1.0000 0.36790  0.90720  0.38560  Biso   1.000  H
  H30      1.0000 0.70280  0.38490  0.50800  Biso   1.000  H
  H31      1.0000 0.58340  0.23930  0.55400  Biso   1.000  H
  H32      1.0000 0.48910  0.27400  0.57450  Biso   1.000  H
  H33      1.0000 0.66910  0.27950  0.61830  Biso   1.000  H
  H34      1.0000 0.90420  0.38440  0.62680  Biso   1.000  H
  H35      1.0000 0.43450  0.32340  0.47560  Biso   1.000  H
  H36      1.0000 0.34210  0.30310  0.51130  Biso   1.000  H
  H37      1.0000 0.25070  0.36750  0.47240  Biso   1.000  H
  H38      1.0000 0.21500  0.25710  0.36740  Biso   1.000  H
  H39      1.0000 0.01160  0.37450  0.36980  Biso   1.000  H
  H40      1.0000 0.18780  0.54290  0.62330  Biso   1.000  H
  H41      1.0000 0.45590  0.50810  0.67090  Biso   1.000  H
  H42      1.0000 0.34540  0.51490  0.69910  Biso   1.000  H
  H43      1.0000 0.37050  0.46400  0.67040  Biso   1.000  H
  H44      1.0000 0.46990  0.55750  0.61390  Biso   1.000  H
  H45      1.0000 0.39210  0.55860  0.56690  Biso   1.000  H
  H46      1.0000 0.36790  0.59280  0.61440  Biso   1.000  H
  H47      1.0000 0.70280  0.11510  0.49200  Biso   1.000  H
  H48      1.0000 0.58340  0.26070  0.44600  Biso   1.000  H
  H49      1.0000 0.48910  0.22600  0.42550  Biso   1.000  H
  H50      1.0000 0.66910  0.22050  0.38170  Biso   1.000  H
  H51      1.0000 0.90420  0.11560  0.37320  Biso   1.000  H
  H52      1.0000 0.56550  0.67660  0.97560  Biso   1.000  H
  H53      1.0000 0.65790  0.69690  0.01130  Biso   1.000  H
  H54      1.0000 0.74930  0.63250  0.97240  Biso   1.000  H
  H55      1.0000 0.78500  0.74290  0.86740  Biso   1.000  H
  H56      1.0000 0.98840  0.62550  0.86980  Biso   1.000  H
  H57      1.0000 0.81220  0.45710  0.12330  Biso   1.000  H
  H58      1.0000 0.54410  0.49190  0.17090  Biso   1.000  H
  H59      1.0000 0.65460  0.48510  0.19910  Biso   1.000  H
  H60      1.0000 0.62950  0.53600  0.17040  Biso   1.000  H
  H61      1.0000 0.53010  0.44250  0.11390  Biso   1.000  H
  H62      1.0000 0.60790  0.44140  0.06690  Biso   1.000  H
  H63      1.0000 0.63210  0.40720  0.11440  Biso   1.000  H
  H64      1.0000 0.29720  0.88490  0.99200  Biso   1.000  H
  H65      1.0000 0.41660  0.73930  0.94600  Biso   1.000  H
  H66      1.0000 0.51090  0.77400  0.92550  Biso   1.000  H
  H67      1.0000 0.33090  0.77950  0.88170  Biso   1.000  H
  H68      1.0000 0.09580  0.88440  0.87320  Biso   1.000  H
  H69      1.0000 0.43450  0.17660  0.97560  Biso   1.000  H
  H70      1.0000 0.34210  0.19690  0.01130  Biso   1.000  H
  H71      1.0000 0.25070  0.13250  0.97240  Biso   1.000  H
  H72      1.0000 0.21500  0.24290  0.86740  Biso   1.000  H
  H73      1.0000 0.01160  0.12550  0.86980  Biso   1.000  H
  H74      1.0000 0.18780  0.95710  0.12330  Biso   1.000  H
  H75      1.0000 0.45590  0.99190  0.17090  Biso   1.000  H
  H76      1.0000 0.34540  0.98510  0.19910  Biso   1.000  H
  H77      1.0000 0.37050  0.03600  0.17040  Biso   1.000  H
  H78      1.0000 0.46990  0.94250  0.11390  Biso   1.000  H
  H79      1.0000 0.39210  0.94140  0.06690  Biso   1.000  H
  H80      1.0000 0.36790  0.90720  0.11440  Biso   1.000  H
  H81      1.0000 0.70280  0.38490  0.99200  Biso   1.000  H
  H82      1.0000 0.58340  0.23930  0.94600  Biso   1.000  H
  H83      1.0000 0.48910  0.27400  0.92550  Biso   1.000  H
  H84      1.0000 0.66910  0.27950  0.88170  Biso   1.000  H
  H85      1.0000 0.90420  0.38440  0.87320  Biso   1.000  H
  H86      1.0000 0.56550  0.82340  0.47560  Biso   1.000  H
  H87      1.0000 0.65790  0.80310  0.51130  Biso   1.000  H
  H88      1.0000 0.74930  0.86750  0.47240  Biso   1.000  H
  H89      1.0000 0.78500  0.75710  0.36740  Biso   1.000  H
  H90      1.0000 0.98840  0.87450  0.36980  Biso   1.000  H
  H91      1.0000 0.81220  0.04290  0.62330  Biso   1.000  H
  H92      1.0000 0.54410  0.00810  0.67090  Biso   1.000  H
  H93      1.0000 0.65460  0.01490  0.69910  Biso   1.000  H
  H94      1.0000 0.62950  0.96400  0.67040  Biso   1.000  H
  H95      1.0000 0.53010  0.05750  0.61390  Biso   1.000  H
  H96      1.0000 0.60790  0.05860  0.56690  Biso   1.000  H
  H97      1.0000 0.63210  0.09280  0.61440  Biso   1.000  H
  H98      1.0000 0.29720  0.61510  0.49200  Biso   1.000  H
  H99      1.0000 0.41660  0.76070  0.44600  Biso   1.000  H
  H100     1.0000 0.51090  0.72600  0.42550  Biso   1.000  H
  H101     1.0000 0.33090  0.72050  0.38170  Biso   1.000  H
  H102     1.0000 0.09580  0.61560  0.37320  Biso   1.000  H
  H103     1.0000 0.56550  0.67660  0.52440  Biso   1.000  H
  H104     1.0000 0.65790  0.69690  0.48870  Biso   1.000  H
  H105     1.0000 0.74930  0.63250  0.52760  Biso   1.000  H
  H106     1.0000 0.78500  0.74290  0.63260  Biso   1.000  H
  H107     1.0000 0.98840  0.62550  0.63020  Biso   1.000  H
  H108     1.0000 0.81220  0.45710  0.37670  Biso   1.000  H
  H109     1.0000 0.54410  0.49190  0.32910  Biso   1.000  H
  H110     1.0000 0.65460  0.48510  0.30090  Biso   1.000  H
  H111     1.0000 0.62950  0.53600  0.32960  Biso   1.000  H
  H112     1.0000 0.53010  0.44250  0.38610  Biso   1.000  H
  H113     1.0000 0.60790  0.44140  0.43310  Biso   1.000  H
  H114     1.0000 0.63210  0.40720  0.38560  Biso   1.000  H
  H115     1.0000 0.29720  0.88490  0.50800  Biso   1.000  H
  H116     1.0000 0.41660  0.73930  0.55400  Biso   1.000  H
  H117     1.0000 0.51090  0.77400  0.57450  Biso   1.000  H
  H118     1.0000 0.33090  0.77950  0.61830  Biso   1.000  H
  H119     1.0000 0.09580  0.88440  0.62680  Biso   1.000  H
  H120     1.0000 0.43450  0.32340  0.02440  Biso   1.000  H
  H121     1.0000 0.34210  0.30310  0.98870  Biso   1.000  H
  H122     1.0000 0.25070  0.36750  0.02760  Biso   1.000  H
  H123     1.0000 0.21500  0.25710  0.13260  Biso   1.000  H
  H124     1.0000 0.01160  0.37450  0.13020  Biso   1.000  H
  H125     1.0000 0.18780  0.54290  0.87670  Biso   1.000  H
  H126     1.0000 0.45590  0.50810  0.82910  Biso   1.000  H
  H127     1.0000 0.34540  0.51490  0.80090  Biso   1.000  H
  H128     1.0000 0.37050  0.46400  0.82960  Biso   1.000  H
  H129     1.0000 0.46990  0.55750  0.88610  Biso   1.000  H
  H130     1.0000 0.39210  0.55860  0.93310  Biso   1.000  H
  H131     1.0000 0.36790  0.59280  0.88560  Biso   1.000  H
  H132     1.0000 0.70280  0.11510  0.00800  Biso   1.000  H
  H133     1.0000 0.58340  0.26070  0.05400  Biso   1.000  H
  H134     1.0000 0.48910  0.22600  0.07450  Biso   1.000  H
  H135     1.0000 0.66910  0.22050  0.11830  Biso   1.000  H
  H136     1.0000 0.90420  0.11560  0.12680  Biso   1.000  H
  C1       1.0000 0.87540  0.87722  0.07519  Biso   1.000  C
  C2       1.0000 0.89640  0.81199  0.13775  Biso   1.000  C
  C3       1.0000 0.60930  0.79398  0.01611  Biso   1.000  C
  C4       1.0000 0.78620  0.85332  0.05498  Biso   1.000  C
  C5       1.0000 0.91800  0.92532  0.04967  Biso   1.000  C
  C6       1.0000 0.75290  0.80791  0.07622  Biso   1.000  C
  C7       1.0000 0.80830  0.78746  0.11810  Biso   1.000  C
  C8       1.0000 0.95620  0.78660  0.18019  Biso   1.000  C
  C9       1.0000 0.92950  0.85727  0.11657  Biso   1.000  C
  C10      1.0000 0.76870  0.01520  0.88500  Biso   1.000  C
  C11      1.0000 0.62000  0.00000  0.83000  Biso   1.000  C
  C12      1.0000 0.60400  0.06060  0.89670  Biso   1.000  C
  C13      1.0000 0.27440  0.62944  0.03855  Biso   1.000  C
  C14      1.0000 0.46670  0.73372  0.04504  Biso   1.000  C
  C15      1.0000 0.32750  0.67140  0.05853  Biso   1.000  C
  C16      1.0000 0.29470  0.69271  0.10466  Biso   1.000  C
  C17      1.0000 0.20570  0.67125  0.12998  Biso   1.000  C
  C18      1.0000 0.18670  0.60911  0.06461  Biso   1.000  C
  C19      1.0000 0.12430  0.56656  0.04023  Biso   1.000  C
  C20      1.0000 0.15410  0.62984  0.10964  Biso   1.000  C
  C21      1.0000 0.16270  0.69594  0.17734  Biso   1.000  C
  C22      1.0000 0.12460  0.12278  0.57519  Biso   1.000  C
  C23      1.0000 0.10360  0.18801  0.63775  Biso   1.000  C
  C24      1.0000 0.39070  0.20602  0.51611  Biso   1.000  C
  C25      1.0000 0.21380  0.14668  0.55498  Biso   1.000  C
  C26      1.0000 0.08200  0.07468  0.54967  Biso   1.000  C
  C27      1.0000 0.24710  0.19209  0.57622  Biso   1.000  C
  C28      1.0000 0.19170  0.21254  0.61810  Biso   1.000  C
  C29      1.0000 0.04380  0.21340  0.68019  Biso   1.000  C
  C30      1.0000 0.07050  0.14273  0.61657  Biso   1.000  C
  C31      1.0000 0.23130  0.98480  0.38500  Biso   1.000  C
  C32      1.0000 0.38000  0.00000  0.33000  Biso   1.000  C
  C33      1.0000 0.39600  0.93940  0.39670  Biso   1.000  C
  C34      1.0000 0.72560  0.37056  0.53855  Biso   1.000  C
  C35      1.0000 0.53330  0.26628  0.54504  Biso   1.000  C
  C36      1.0000 0.67250  0.32860  0.55853  Biso   1.000  C
  C37      1.0000 0.70530  0.30729  0.60466  Biso   1.000  C
  C38      1.0000 0.79430  0.32875  0.62998  Biso   1.000  C
  C39      1.0000 0.81330  0.39089  0.56461  Biso   1.000  C
  C40      1.0000 0.87570  0.43344  0.54023  Biso   1.000  C
  C41      1.0000 0.84590  0.37016  0.60964  Biso   1.000  C
  C42      1.0000 0.83730  0.30406  0.67734  Biso   1.000  C
  C43      1.0000 0.12460  0.37722  0.42481  Biso   1.000  C
  C44      1.0000 0.10360  0.31199  0.36225  Biso   1.000  C
  C45      1.0000 0.39070  0.29398  0.48389  Biso   1.000  C
  C46      1.0000 0.21380  0.35332  0.44502  Biso   1.000  C
  C47      1.0000 0.08200  0.42532  0.45033  Biso   1.000  C
  C48      1.0000 0.24710  0.30791  0.42378  Biso   1.000  C
  C49      1.0000 0.19170  0.28746  0.38190  Biso   1.000  C
  C50      1.0000 0.04380  0.28660  0.31981  Biso   1.000  C
  C51      1.0000 0.07050  0.35727  0.38343  Biso   1.000  C
  C52      1.0000 0.23130  0.51520  0.61500  Biso   1.000  C
  C53      1.0000 0.38000  0.50000  0.67000  Biso   1.000  C
  C54      1.0000 0.39600  0.56060  0.60330  Biso   1.000  C
  C55      1.0000 0.72560  0.12944  0.46145  Biso   1.000  C
  C56      1.0000 0.53330  0.23372  0.45496  Biso   1.000  C
  C57      1.0000 0.67250  0.17140  0.44147  Biso   1.000  C
  C58      1.0000 0.70530  0.19271  0.39534  Biso   1.000  C
  C59      1.0000 0.79430  0.17125  0.37002  Biso   1.000  C
  C60      1.0000 0.81330  0.10911  0.43539  Biso   1.000  C
  C61      1.0000 0.87570  0.06656  0.45977  Biso   1.000  C
  C62      1.0000 0.84590  0.12984  0.39036  Biso   1.000  C
  C63      1.0000 0.83730  0.19594  0.32266  Biso   1.000  C
  C64      1.0000 0.87540  0.62278  0.92481  Biso   1.000  C
  C65      1.0000 0.89640  0.68801  0.86225  Biso   1.000  C
  C66      1.0000 0.60930  0.70602  0.98389  Biso   1.000  C
  C67      1.0000 0.78620  0.64668  0.94502  Biso   1.000  C
  C68      1.0000 0.91800  0.57468  0.95033  Biso   1.000  C
  C69      1.0000 0.75290  0.69209  0.92378  Biso   1.000  C
  C70      1.0000 0.80830  0.71254  0.88190  Biso   1.000  C
  C71      1.0000 0.95620  0.71340  0.81981  Biso   1.000  C
  C72      1.0000 0.92950  0.64273  0.88343  Biso   1.000  C
  C73      1.0000 0.76870  0.48480  0.11500  Biso   1.000  C
  C74      1.0000 0.62000  0.50000  0.17000  Biso   1.000  C
  C75      1.0000 0.60400  0.43940  0.10330  Biso   1.000  C
  C76      1.0000 0.27440  0.87056  0.96145  Biso   1.000  C
  C77      1.0000 0.46670  0.76628  0.95496  Biso   1.000  C
  C78      1.0000 0.32750  0.82860  0.94147  Biso   1.000  C
  C79      1.0000 0.29470  0.80729  0.89534  Biso   1.000  C
  C80      1.0000 0.20570  0.82875  0.87002  Biso   1.000  C
  C81      1.0000 0.18670  0.89089  0.93539  Biso   1.000  C
  C82      1.0000 0.12430  0.93344  0.95977  Biso   1.000  C
  C83      1.0000 0.15410  0.87016  0.89036  Biso   1.000  C
  C84      1.0000 0.16270  0.80406  0.82266  Biso   1.000  C
  C85      1.0000 0.12460  0.12278  0.92481  Biso   1.000  C
  C86      1.0000 0.10360  0.18801  0.86225  Biso   1.000  C
  C87      1.0000 0.39070  0.20602  0.98389  Biso   1.000  C
  C88      1.0000 0.21380  0.14668  0.94502  Biso   1.000  C
  C89      1.0000 0.08200  0.07468  0.95033  Biso   1.000  C
  C90      1.0000 0.24710  0.19209  0.92378  Biso   1.000  C
  C91      1.0000 0.19170  0.21254  0.88190  Biso   1.000  C
  C92      1.0000 0.04380  0.21340  0.81981  Biso   1.000  C
  C93      1.0000 0.07050  0.14273  0.88343  Biso   1.000  C
  C94      1.0000 0.23130  0.98480  0.11500  Biso   1.000  C
  C95      1.0000 0.38000  0.00000  0.17000  Biso   1.000  C
  C96      1.0000 0.39600  0.93940  0.10330  Biso   1.000  C
  C97      1.0000 0.72560  0.37056  0.96145  Biso   1.000  C
  C98      1.0000 0.53330  0.26628  0.95496  Biso   1.000  C
  C99      1.0000 0.67250  0.32860  0.94147  Biso   1.000  C
  C100     1.0000 0.70530  0.30729  0.89534  Biso   1.000  C
  C101     1.0000 0.79430  0.32875  0.87002  Biso   1.000  C
  C102     1.0000 0.81330  0.39089  0.93539  Biso   1.000  C
  C103     1.0000 0.87570  0.43344  0.95977  Biso   1.000  C
  C104     1.0000 0.84590  0.37016  0.89036  Biso   1.000  C
  C105     1.0000 0.83730  0.30406  0.82266  Biso   1.000  C
  C106     1.0000 0.87540  0.87722  0.42481  Biso   1.000  C
  C107     1.0000 0.89640  0.81199  0.36225  Biso   1.000  C
  C108     1.0000 0.60930  0.79398  0.48389  Biso   1.000  C
  C109     1.0000 0.78620  0.85332  0.44502  Biso   1.000  C
  C110     1.0000 0.91800  0.92532  0.45033  Biso   1.000  C
  C111     1.0000 0.75290  0.80791  0.42378  Biso   1.000  C
  C112     1.0000 0.80830  0.78746  0.38190  Biso   1.000  C
  C113     1.0000 0.95620  0.78660  0.31981  Biso   1.000  C
  C114     1.0000 0.92950  0.85727  0.38343  Biso   1.000  C
  C115     1.0000 0.76870  0.01520  0.61500  Biso   1.000  C
  C116     1.0000 0.62000  0.00000  0.67000  Biso   1.000  C
  C117     1.0000 0.60400  0.06060  0.60330  Biso   1.000  C
  C118     1.0000 0.27440  0.62944  0.46145  Biso   1.000  C
  C119     1.0000 0.46670  0.73372  0.45496  Biso   1.000  C
  C120     1.0000 0.32750  0.67140  0.44147  Biso   1.000  C
  C121     1.0000 0.29470  0.69271  0.39534  Biso   1.000  C
  C122     1.0000 0.20570  0.67125  0.37002  Biso   1.000  C
  C123     1.0000 0.18670  0.60911  0.43539  Biso   1.000  C
  C124     1.0000 0.12430  0.56656  0.45977  Biso   1.000  C
  C125     1.0000 0.15410  0.62984  0.39036  Biso   1.000  C
  C126     1.0000 0.16270  0.69594  0.32266  Biso   1.000  C
  C127     1.0000 0.87540  0.62278  0.57519  Biso   1.000  C
  C128     1.0000 0.89640  0.68801  0.63775  Biso   1.000  C
  C129     1.0000 0.60930  0.70602  0.51611  Biso   1.000  C
  C130     1.0000 0.78620  0.64668  0.55498  Biso   1.000  C
  C131     1.0000 0.91800  0.57468  0.54967  Biso   1.000  C
  C132     1.0000 0.75290  0.69209  0.57622  Biso   1.000  C
  C133     1.0000 0.80830  0.71254  0.61810  Biso   1.000  C
  C134     1.0000 0.95620  0.71340  0.68019  Biso   1.000  C
  C135     1.0000 0.92950  0.64273  0.61657  Biso   1.000  C
  C136     1.0000 0.76870  0.48480  0.38500  Biso   1.000  C
  C137     1.0000 0.62000  0.50000  0.33000  Biso   1.000  C
  C138     1.0000 0.60400  0.43940  0.39670  Biso   1.000  C
  C139     1.0000 0.27440  0.87056  0.53855  Biso   1.000  C
  C140     1.0000 0.46670  0.76628  0.54504  Biso   1.000  C
  C141     1.0000 0.32750  0.82860  0.55853  Biso   1.000  C
  C142     1.0000 0.29470  0.80729  0.60466  Biso   1.000  C
  C143     1.0000 0.20570  0.82875  0.62998  Biso   1.000  C
  C144     1.0000 0.18670  0.89089  0.56461  Biso   1.000  C
  C145     1.0000 0.12430  0.93344  0.54023  Biso   1.000  C
  C146     1.0000 0.15410  0.87016  0.60964  Biso   1.000  C
  C147     1.0000 0.16270  0.80406  0.67734  Biso   1.000  C
  C148     1.0000 0.12460  0.37722  0.07519  Biso   1.000  C
  C149     1.0000 0.10360  0.31199  0.13775  Biso   1.000  C
  C150     1.0000 0.39070  0.29398  0.01611  Biso   1.000  C
  C151     1.0000 0.21380  0.35332  0.05498  Biso   1.000  C
  C152     1.0000 0.08200  0.42532  0.04967  Biso   1.000  C
  C153     1.0000 0.24710  0.30791  0.07622  Biso   1.000  C
  C154     1.0000 0.19170  0.28746  0.11810  Biso   1.000  C
  C155     1.0000 0.04380  0.28660  0.18019  Biso   1.000  C
  C156     1.0000 0.07050  0.35727  0.11657  Biso   1.000  C
  C157     1.0000 0.23130  0.51520  0.88500  Biso   1.000  C
  C158     1.0000 0.38000  0.50000  0.83000  Biso   1.000  C
  C159     1.0000 0.39600  0.56060  0.89670  Biso   1.000  C
  C160     1.0000 0.72560  0.12944  0.03855  Biso   1.000  C
  C161     1.0000 0.53330  0.23372  0.04504  Biso   1.000  C
  C162     1.0000 0.67250  0.17140  0.05853  Biso   1.000  C
  C163     1.0000 0.70530  0.19271  0.10466  Biso   1.000  C
  C164     1.0000 0.79430  0.17125  0.12998  Biso   1.000  C
  C165     1.0000 0.81330  0.10911  0.06461  Biso   1.000  C
  C166     1.0000 0.87570  0.06656  0.04023  Biso   1.000  C
  C167     1.0000 0.84590  0.12984  0.10964  Biso   1.000  C
  C168     1.0000 0.83730  0.19594  0.17734  Biso   1.000  C
  C169     1.0000 0.53780  0.75000  0.00000  Biso   1.000  C
  C170     1.0000 0.46220  0.25000  0.50000  Biso   1.000  C
  C171     1.0000 0.46220  0.25000  0.00000  Biso   1.000  C
  C172     1.0000 0.53780  0.75000  0.50000  Biso   1.000  C
  N1       1.0000 0.66600  0.02070  0.87500  Biso   1.000  N
  N2       1.0000 0.33400  0.97930  0.37500  Biso   1.000  N
  N3       1.0000 0.33400  0.52070  0.62500  Biso   1.000  N
  N4       1.0000 0.66600  0.47930  0.12500  Biso   1.000  N
  N5       1.0000 0.33400  0.97930  0.12500  Biso   1.000  N
  N6       1.0000 0.66600  0.02070  0.62500  Biso   1.000  N
  N7       1.0000 0.66600  0.47930  0.37500  Biso   1.000  N
  N8       1.0000 0.33400  0.52070  0.87500  Biso   1.000  N
  O1       1.0000 0.66910  0.77839  0.05930  Biso   1.000  O
  O2       1.0000 0.04180  0.80813  0.19578  Biso   1.000  O
  O3       1.0000 0.87160  0.93879  0.00970  Biso   1.000  O
  O4       1.0000 0.99690  0.94720  0.07060  Biso   1.000  O
  O5       1.0000 0.91720  0.74639  0.19786  Biso   1.000  O
  O6       1.0000 0.81460  0.97937  0.90366  Biso   1.000  O
  O7       1.0000 0.40970  0.68958  0.02875  Biso   1.000  O
  O8       1.0000 0.16220  0.54630  0.00079  Biso   1.000  O
  O9       1.0000 0.21050  0.73554  0.19398  Biso   1.000  O
  O10      1.0000 0.03890  0.55358  0.06172  Biso   1.000  O
  O11      1.0000 0.08290  0.67499  0.19697  Biso   1.000  O
  O12      1.0000 0.33090  0.22161  0.55930  Biso   1.000  O
  O13      1.0000 0.95820  0.19187  0.69578  Biso   1.000  O
  O14      1.0000 0.12840  0.06121  0.50970  Biso   1.000  O
  O15      1.0000 0.00310  0.05280  0.57060  Biso   1.000  O
  O16      1.0000 0.08280  0.25361  0.69786  Biso   1.000  O
  O17      1.0000 0.18540  0.02063  0.40366  Biso   1.000  O
  O18      1.0000 0.59030  0.31042  0.52875  Biso   1.000  O
  O19      1.0000 0.83780  0.45370  0.50079  Biso   1.000  O
  O20      1.0000 0.78950  0.26446  0.69398  Biso   1.000  O
  O21      1.0000 0.96110  0.44642  0.56172  Biso   1.000  O
  O22      1.0000 0.91710  0.32501  0.69697  Biso   1.000  O
  O23      1.0000 0.33090  0.27839  0.44070  Biso   1.000  O
  O24      1.0000 0.95820  0.30813  0.30422  Biso   1.000  O
  O25      1.0000 0.12840  0.43879  0.49030  Biso   1.000  O
  O26      1.0000 0.00310  0.44720  0.42940  Biso   1.000  O
  O27      1.0000 0.08280  0.24639  0.30214  Biso   1.000  O
  O28      1.0000 0.18540  0.47937  0.59634  Biso   1.000  O
  O29      1.0000 0.59030  0.18958  0.47125  Biso   1.000  O
  O30      1.0000 0.83780  0.04630  0.49921  Biso   1.000  O
  O31      1.0000 0.78950  0.23554  0.30602  Biso   1.000  O
  O32      1.0000 0.96110  0.05358  0.43828  Biso   1.000  O
  O33      1.0000 0.91710  0.17499  0.30303  Biso   1.000  O
  O34      1.0000 0.66910  0.72161  0.94070  Biso   1.000  O
  O35      1.0000 0.04180  0.69187  0.80422  Biso   1.000  O
  O36      1.0000 0.87160  0.56121  0.99030  Biso   1.000  O
  O37      1.0000 0.99690  0.55280  0.92940  Biso   1.000  O
  O38      1.0000 0.91720  0.75361  0.80214  Biso   1.000  O
  O39      1.0000 0.81460  0.52063  0.09634  Biso   1.000  O
  O40      1.0000 0.40970  0.81042  0.97125  Biso   1.000  O
  O41      1.0000 0.16220  0.95370  0.99921  Biso   1.000  O
  O42      1.0000 0.21050  0.76446  0.80602  Biso   1.000  O
  O43      1.0000 0.03890  0.94642  0.93828  Biso   1.000  O
  O44      1.0000 0.08290  0.82501  0.80303  Biso   1.000  O
  O45      1.0000 0.33090  0.22161  0.94070  Biso   1.000  O
  O46      1.0000 0.95820  0.19187  0.80422  Biso   1.000  O
  O47      1.0000 0.12840  0.06121  0.99030  Biso   1.000  O
  O48      1.0000 0.00310  0.05280  0.92940  Biso   1.000  O
  O49      1.0000 0.08280  0.25361  0.80214  Biso   1.000  O
  O50      1.0000 0.18540  0.02063  0.09634  Biso   1.000  O
  O51      1.0000 0.59030  0.31042  0.97125  Biso   1.000  O
  O52      1.0000 0.83780  0.45370  0.99921  Biso   1.000  O
  O53      1.0000 0.78950  0.26446  0.80602  Biso   1.000  O
  O54      1.0000 0.96110  0.44642  0.93828  Biso   1.000  O
  O55      1.0000 0.91710  0.32501  0.80303  Biso   1.000  O
  O56      1.0000 0.66910  0.77839  0.44070  Biso   1.000  O
  O57      1.0000 0.04180  0.80813  0.30422  Biso   1.000  O
  O58      1.0000 0.87160  0.93879  0.49030  Biso   1.000  O
  O59      1.0000 0.99690  0.94720  0.42940  Biso   1.000  O
  O60      1.0000 0.91720  0.74639  0.30214  Biso   1.000  O
  O61      1.0000 0.81460  0.97937  0.59634  Biso   1.000  O
  O62      1.0000 0.40970  0.68958  0.47125  Biso   1.000  O
  O63      1.0000 0.16220  0.54630  0.49921  Biso   1.000  O
  O64      1.0000 0.21050  0.73554  0.30602  Biso   1.000  O
  O65      1.0000 0.03890  0.55358  0.43828  Biso   1.000  O
  O66      1.0000 0.08290  0.67499  0.30303  Biso   1.000  O
  O67      1.0000 0.66910  0.72161  0.55930  Biso   1.000  O
  O68      1.0000 0.04180  0.69187  0.69578  Biso   1.000  O
  O69      1.0000 0.87160  0.56121  0.50970  Biso   1.000  O
  O70      1.0000 0.99690  0.55280  0.57060  Biso   1.000  O
  O71      1.0000 0.91720  0.75361  0.69786  Biso   1.000  O
  O72      1.0000 0.81460  0.52063  0.40366  Biso   1.000  O
  O73      1.0000 0.40970  0.81042  0.52875  Biso   1.000  O
  O74      1.0000 0.16220  0.95370  0.50079  Biso   1.000  O
  O75      1.0000 0.21050  0.76446  0.69398  Biso   1.000  O
  O76      1.0000 0.03890  0.94642  0.56172  Biso   1.000  O
  O77      1.0000 0.08290  0.82501  0.69697  Biso   1.000  O
  O78      1.0000 0.33090  0.27839  0.05930  Biso   1.000  O
  O79      1.0000 0.95820  0.30813  0.19578  Biso   1.000  O
  O80      1.0000 0.12840  0.43879  0.00970  Biso   1.000  O
  O81      1.0000 0.00310  0.44720  0.07060  Biso   1.000  O
  O82      1.0000 0.08280  0.24639  0.19786  Biso   1.000  O
  O83      1.0000 0.18540  0.47937  0.90366  Biso   1.000  O
  O84      1.0000 0.59030  0.18958  0.02875  Biso   1.000  O
  O85      1.0000 0.83780  0.04630  0.00079  Biso   1.000  O
  O86      1.0000 0.78950  0.23554  0.19398  Biso   1.000  O
  O87      1.0000 0.96110  0.05358  0.06172  Biso   1.000  O
  O88      1.0000 0.91710  0.17499  0.19697  Biso   1.000  O
  O89      1.0000 0.25140  0.83710  0.25000  Biso   1.000  O
  O90      1.0000 0.86810  0.64490  0.25000  Biso   1.000  O
  O91      1.0000 0.74860  0.16290  0.75000  Biso   1.000  O
  O92      1.0000 0.13190  0.35510  0.75000  Biso   1.000  O
  O93      1.0000 0.74860  0.33710  0.25000  Biso   1.000  O
  O94      1.0000 0.13190  0.14490  0.25000  Biso   1.000  O
  O95      1.0000 0.25140  0.66290  0.75000  Biso   1.000  O
  O96      1.0000 0.86810  0.85510  0.75000  Biso   1.000  O
