data_image0
_cell_length_a       14.5262
_cell_length_b       14.5262
_cell_length_c       14.5262
_cell_angle_alpha    63.0767
_cell_angle_beta     74.1213
_cell_angle_gamma    105.879

_symmetry_space_group_name_H-M    P 1
_symmetry_int_tables_number       1

loop_
  _symmetry_equiv_pos_as_xyz
  'x, y, z'

loop_
  _atom_site_label
  _atom_site_occupancy
  _atom_site_fract_x
  _atom_site_fract_y
  _atom_site_fract_z
  _atom_site_thermal_displace_type
  _atom_site_B_iso_or_equiv
  _atom_site_type_symbol
  Cu1      1.0000 0.58780  0.09232  0.49085  Biso   1.000  Cu
  Cu2      1.0000 0.91220  0.42135  0.49548  Biso   1.000  Cu
  Cu3      1.0000 0.41220  0.90768  0.50915  Biso   1.000  Cu
  Cu4      1.0000 0.08780  0.57865  0.50452  Biso   1.000  Cu
  H1       1.0000 0.35890  0.11900  0.48510  Biso   1.000  H
  H2       1.0000 0.32290  0.25570  0.34060  Biso   1.000  H
  H3       1.0000 0.34620  0.35660  0.15300  Biso   1.000  H
  H4       1.0000 0.48750  0.38830  0.00600  Biso   1.000  H
  H5       1.0000 0.61010  0.32650  0.04100  Biso   1.000  H
  H6       1.0000 0.58790  0.22210  0.23060  Biso   1.000  H
  H7       1.0000 0.70270  0.26620  0.52590  Biso   1.000  H
  H8       1.0000 0.80730  0.09430  0.47640  Biso   1.000  H
  H9       1.0000 0.71830  0.97340  0.59130  Biso   1.000  H
  H10      1.0000 0.56980  0.96480  0.73140  Biso   1.000  H
  H11      1.0000 0.56480  0.08020  0.70520  Biso   1.000  H
  H12      1.0000 0.79200  0.01650  0.78090  Biso   1.000  H
  H13      1.0000 0.14110  0.65600  0.23990  Biso   1.000  H
  H14      1.0000 0.17710  0.83650  0.06720  Biso   1.000  H
  H15      1.0000 0.15380  0.00080  0.98960  Biso   1.000  H
  H16      1.0000 0.01250  0.00650  0.09920  Biso   1.000  H
  H17      1.0000 0.88990  0.84890  0.28360  Biso   1.000  H
  H18      1.0000 0.91210  0.68150  0.36580  Biso   1.000  H
  H19      1.0000 0.79730  0.27140  0.43650  Biso   1.000  H
  H20      1.0000 0.69270  0.21630  0.71300  Biso   1.000  H
  H21      1.0000 0.78170  0.19040  0.74490  Biso   1.000  H
  H22      1.0000 0.93020  0.19880  0.60500  Biso   1.000  H
  H23      1.0000 0.93520  0.23000  0.48460  Biso   1.000  H
  H24      1.0000 0.70800  0.92710  0.77550  Biso   1.000  H
  H25      1.0000 0.64110  0.88100  0.51490  Biso   1.000  H
  H26      1.0000 0.67710  0.74430  0.65940  Biso   1.000  H
  H27      1.0000 0.65380  0.64340  0.84700  Biso   1.000  H
  H28      1.0000 0.51250  0.61170  0.99400  Biso   1.000  H
  H29      1.0000 0.38990  0.67350  0.95900  Biso   1.000  H
  H30      1.0000 0.41210  0.77790  0.76940  Biso   1.000  H
  H31      1.0000 0.29730  0.73380  0.47410  Biso   1.000  H
  H32      1.0000 0.19270  0.90570  0.52360  Biso   1.000  H
  H33      1.0000 0.28170  0.02660  0.40870  Biso   1.000  H
  H34      1.0000 0.43020  0.03520  0.26860  Biso   1.000  H
  H35      1.0000 0.43520  0.91980  0.29480  Biso   1.000  H
  H36      1.0000 0.20800  0.98350  0.21910  Biso   1.000  H
  H37      1.0000 0.85890  0.34400  0.76010  Biso   1.000  H
  H38      1.0000 0.82290  0.16350  0.93280  Biso   1.000  H
  H39      1.0000 0.84620  0.99920  0.01040  Biso   1.000  H
  H40      1.0000 0.98750  0.99350  0.90080  Biso   1.000  H
  H41      1.0000 0.11010  0.15110  0.71640  Biso   1.000  H
  H42      1.0000 0.08790  0.31850  0.63420  Biso   1.000  H
  H43      1.0000 0.20270  0.72860  0.56350  Biso   1.000  H
  H44      1.0000 0.30730  0.78370  0.28700  Biso   1.000  H
  H45      1.0000 0.21830  0.80960  0.25510  Biso   1.000  H
  H46      1.0000 0.06980  0.80120  0.39500  Biso   1.000  H
  H47      1.0000 0.06480  0.77000  0.51540  Biso   1.000  H
  H48      1.0000 0.29200  0.07290  0.22450  Biso   1.000  H
  C1       1.0000 0.50033  0.24332  0.45187  Biso   1.000  C
  C2       1.0000 0.43586  0.15747  0.43059  Biso   1.000  C
  C3       1.0000 0.45190  0.22648  0.30622  Biso   1.000  C
  C4       1.0000 0.38080  0.26860  0.28080  Biso   1.000  C
  C5       1.0000 0.39460  0.32910  0.16870  Biso   1.000  C
  C6       1.0000 0.47900  0.34850  0.08150  Biso   1.000  C
  C7       1.0000 0.55160  0.31090  0.10230  Biso   1.000  C
  C8       1.0000 0.53851  0.24841  0.21610  Biso   1.000  C
  C9       1.0000 0.75942  0.05540  0.55826  Biso   1.000  C
  C10      1.0000 0.61337  0.04697  0.69602  Biso   1.000  C
  C11      1.0000 0.99967  0.54780  0.25701  Biso   1.000  C
  C12      1.0000 0.06414  0.63355  0.27839  Biso   1.000  C
  C13      1.0000 0.04810  0.74188  0.22542  Biso   1.000  C
  C14      1.0000 0.11920  0.83840  0.11220  Biso   1.000  C
  C15      1.0000 0.10540  0.93670  0.06550  Biso   1.000  C
  C16      1.0000 0.02100  0.93950  0.13050  Biso   1.000  C
  C17      1.0000 0.94840  0.84610  0.24070  Biso   1.000  C
  C18      1.0000 0.96149  0.74539  0.29010  Biso   1.000  C
  C19      1.0000 0.74058  0.18232  0.70402  Biso   1.000  C
  C20      1.0000 0.88663  0.19061  0.56640  Biso   1.000  C
  C21      1.0000 0.49967  0.75668  0.54813  Biso   1.000  C
  C22      1.0000 0.56414  0.84253  0.56941  Biso   1.000  C
  C23      1.0000 0.54810  0.77352  0.69378  Biso   1.000  C
  C24      1.0000 0.61920  0.73140  0.71920  Biso   1.000  C
  C25      1.0000 0.60540  0.67090  0.83130  Biso   1.000  C
  C26      1.0000 0.52100  0.65150  0.91850  Biso   1.000  C
  C27      1.0000 0.44840  0.68910  0.89770  Biso   1.000  C
  C28      1.0000 0.46149  0.75159  0.78390  Biso   1.000  C
  C29      1.0000 0.24058  0.94460  0.44174  Biso   1.000  C
  C30      1.0000 0.38663  0.95303  0.30398  Biso   1.000  C
  C31      1.0000 0.00033  0.45220  0.74299  Biso   1.000  C
  C32      1.0000 0.93586  0.36645  0.72161  Biso   1.000  C
  C33      1.0000 0.95190  0.25812  0.77458  Biso   1.000  C
  C34      1.0000 0.88080  0.16160  0.88780  Biso   1.000  C
  C35      1.0000 0.89460  0.06330  0.93450  Biso   1.000  C
  C36      1.0000 0.97900  0.06050  0.86950  Biso   1.000  C
  C37      1.0000 0.05160  0.15390  0.75930  Biso   1.000  C
  C38      1.0000 0.03851  0.25461  0.70990  Biso   1.000  C
  C39      1.0000 0.25942  0.81768  0.29598  Biso   1.000  C
  C40      1.0000 0.11337  0.80939  0.43360  Biso   1.000  C
  C41      1.0000 0.75000  0.23120  0.51880  Biso   1.000  C
  C42      1.0000 0.75000  0.00930  0.74070  Biso   1.000  C
  C43      1.0000 0.25000  0.76880  0.48120  Biso   1.000  C
  C44      1.0000 0.25000  0.99070  0.25930  Biso   1.000  C
  N1       1.0000 0.68379  0.10610  0.56935  Biso   1.000  N
  N2       1.0000 0.82340  0.06763  0.61731  Biso   1.000  N
  N3       1.0000 0.81621  0.24686  0.57769  Biso   1.000  N
  N4       1.0000 0.67660  0.05929  0.75577  Biso   1.000  N
  N5       1.0000 0.31621  0.89390  0.43065  Biso   1.000  N
  N6       1.0000 0.17660  0.93237  0.38269  Biso   1.000  N
  N7       1.0000 0.18379  0.75314  0.42231  Biso   1.000  N
  N8       1.0000 0.32340  0.94071  0.24423  Biso   1.000  N
  O1       1.0000 0.57263  0.22651  0.47754  Biso   1.000  O
  O2       1.0000 0.47997  0.32437  0.44046  Biso   1.000  O
  O3       1.0000 0.47113  0.07312  0.44997  Biso   1.000  O
  O4       1.0000 0.92737  0.44983  0.34612  Biso   1.000  O
  O5       1.0000 0.02003  0.57957  0.15560  Biso   1.000  O
  O6       1.0000 0.02887  0.57890  0.39801  Biso   1.000  O
  O7       1.0000 0.42737  0.77349  0.52246  Biso   1.000  O
  O8       1.0000 0.52003  0.67563  0.55954  Biso   1.000  O
  O9       1.0000 0.52887  0.92688  0.55003  Biso   1.000  O
  O10      1.0000 0.07263  0.55017  0.65388  Biso   1.000  O
  O11      1.0000 0.97997  0.42043  0.84440  Biso   1.000  O
  O12      1.0000 0.97113  0.42110  0.60199  Biso   1.000  O
  Cu5      1.0000 0.41683  0.50915  0.57865  Biso   1.000  Cu
  Cu6      1.0000 0.08317  0.50452  0.90768  Biso   1.000  Cu
  Cu7      1.0000 0.58317  0.49085  0.42135  Biso   1.000  Cu
  Cu8      1.0000 0.91683  0.49548  0.09232  Biso   1.000  Cu
  H49      1.0000 0.39590  0.51490  0.34400  Biso   1.000  H
  H50      1.0000 0.40370  0.65940  0.16350  Biso   1.000  H
  H51      1.0000 0.49040  0.84700  0.99920  Biso   1.000  H
  H52      1.0000 0.60570  0.99400  0.99350  Biso   1.000  H
  H53      1.0000 0.63250  0.95900  0.15110  Biso   1.000  H
  H54      1.0000 0.54730  0.76940  0.31850  Biso   1.000  H
  H55      1.0000 0.20790  0.47410  0.72860  Biso   1.000  H
  H56      1.0000 0.42930  0.52360  0.78370  Biso   1.000  H
  H57      1.0000 0.43530  0.40870  0.80960  Biso   1.000  H
  H58      1.0000 0.30380  0.26860  0.80120  Biso   1.000  H
  H59      1.0000 0.21460  0.29480  0.77000  Biso   1.000  H
  H60      1.0000 0.20260  0.21910  0.07290  Biso   1.000  H
  H61      1.0000 0.10410  0.76010  0.88100  Biso   1.000  H
  H62      1.0000 0.09630  0.93280  0.74430  Biso   1.000  H
  H63      1.0000 0.00960  0.01040  0.64340  Biso   1.000  H
  H64      1.0000 0.89430  0.90080  0.61170  Biso   1.000  H
  H65      1.0000 0.86750  0.71640  0.67350  Biso   1.000  H
  H66      1.0000 0.95270  0.63420  0.77790  Biso   1.000  H
  H67      1.0000 0.29210  0.56350  0.73380  Biso   1.000  H
  H68      1.0000 0.07070  0.28700  0.90570  Biso   1.000  H
  H69      1.0000 0.06470  0.25510  0.02660  Biso   1.000  H
  H70      1.0000 0.19620  0.39500  0.03520  Biso   1.000  H
  H71      1.0000 0.28540  0.51540  0.91980  Biso   1.000  H
  H72      1.0000 0.29740  0.22450  0.98350  Biso   1.000  H
  H73      1.0000 0.60410  0.48510  0.65600  Biso   1.000  H
  H74      1.0000 0.59630  0.34060  0.83650  Biso   1.000  H
  H75      1.0000 0.50960  0.15300  0.00080  Biso   1.000  H
  H76      1.0000 0.39430  0.00600  0.00650  Biso   1.000  H
  H77      1.0000 0.36750  0.04100  0.84890  Biso   1.000  H
  H78      1.0000 0.45270  0.23060  0.68150  Biso   1.000  H
  H79      1.0000 0.79210  0.52590  0.27140  Biso   1.000  H
  H80      1.0000 0.57070  0.47640  0.21630  Biso   1.000  H
  H81      1.0000 0.56470  0.59130  0.19040  Biso   1.000  H
  H82      1.0000 0.69620  0.73140  0.19880  Biso   1.000  H
  H83      1.0000 0.78540  0.70520  0.23000  Biso   1.000  H
  H84      1.0000 0.79740  0.78090  0.92710  Biso   1.000  H
  H85      1.0000 0.89590  0.23990  0.11900  Biso   1.000  H
  H86      1.0000 0.90370  0.06720  0.25570  Biso   1.000  H
  H87      1.0000 0.99040  0.98960  0.35660  Biso   1.000  H
  H88      1.0000 0.10570  0.09920  0.38830  Biso   1.000  H
  H89      1.0000 0.13250  0.28360  0.32650  Biso   1.000  H
  H90      1.0000 0.04730  0.36580  0.22210  Biso   1.000  H
  H91      1.0000 0.70790  0.43650  0.26620  Biso   1.000  H
  H92      1.0000 0.92930  0.71300  0.09430  Biso   1.000  H
  H93      1.0000 0.93530  0.74490  0.97340  Biso   1.000  H
  H94      1.0000 0.80380  0.60500  0.96480  Biso   1.000  H
  H95      1.0000 0.71460  0.48460  0.08020  Biso   1.000  H
  H96      1.0000 0.70260  0.77550  0.01650  Biso   1.000  H
  C45      1.0000 0.30481  0.54813  0.45220  Biso   1.000  C
  C46      1.0000 0.41194  0.56941  0.36645  Biso   1.000  C
  C47      1.0000 0.46730  0.69378  0.25812  Biso   1.000  C
  C48      1.0000 0.45060  0.71920  0.16160  Biso   1.000  C
  C49      1.0000 0.50220  0.83130  0.06330  Biso   1.000  C
  C50      1.0000 0.57000  0.91850  0.06050  Biso   1.000  C
  C51      1.0000 0.58680  0.89770  0.15390  Biso   1.000  C
  C52      1.0000 0.53549  0.78390  0.25461  Biso   1.000  C
  C53      1.0000 0.38634  0.44174  0.81768  Biso   1.000  C
  C54      1.0000 0.25701  0.30398  0.80939  Biso   1.000  C
  C55      1.0000 0.19519  0.74299  0.75668  Biso   1.000  C
  C56      1.0000 0.08806  0.72161  0.84253  Biso   1.000  C
  C57      1.0000 0.03270  0.77458  0.77352  Biso   1.000  C
  C58      1.0000 0.04940  0.88780  0.73140  Biso   1.000  C
  C59      1.0000 0.99780  0.93450  0.67090  Biso   1.000  C
  C60      1.0000 0.93000  0.86950  0.65150  Biso   1.000  C
  C61      1.0000 0.91320  0.75930  0.68910  Biso   1.000  C
  C62      1.0000 0.96451  0.70990  0.75159  Biso   1.000  C
  C63      1.0000 0.11366  0.29598  0.94460  Biso   1.000  C
  C64      1.0000 0.24299  0.43360  0.95303  Biso   1.000  C
  C65      1.0000 0.69519  0.45187  0.54780  Biso   1.000  C
  C66      1.0000 0.58806  0.43059  0.63355  Biso   1.000  C
  C67      1.0000 0.53270  0.30622  0.74188  Biso   1.000  C
  C68      1.0000 0.54940  0.28080  0.83840  Biso   1.000  C
  C69      1.0000 0.49780  0.16870  0.93670  Biso   1.000  C
  C70      1.0000 0.43000  0.08150  0.93950  Biso   1.000  C
  C71      1.0000 0.41320  0.10230  0.84610  Biso   1.000  C
  C72      1.0000 0.46451  0.21610  0.74539  Biso   1.000  C
  C73      1.0000 0.61366  0.55826  0.18232  Biso   1.000  C
  C74      1.0000 0.74299  0.69602  0.19061  Biso   1.000  C
  C75      1.0000 0.80481  0.25701  0.24332  Biso   1.000  C
  C76      1.0000 0.91194  0.27839  0.15747  Biso   1.000  C
  C77      1.0000 0.96730  0.22542  0.22648  Biso   1.000  C
  C78      1.0000 0.95060  0.11220  0.26860  Biso   1.000  C
  C79      1.0000 0.00220  0.06550  0.32910  Biso   1.000  C
  C80      1.0000 0.07000  0.13050  0.34850  Biso   1.000  C
  C81      1.0000 0.08680  0.24070  0.31090  Biso   1.000  C
  C82      1.0000 0.03549  0.29010  0.24841  Biso   1.000  C
  C83      1.0000 0.88634  0.70402  0.05540  Biso   1.000  C
  C84      1.0000 0.75701  0.56640  0.04697  Biso   1.000  C
  C85      1.0000 0.25000  0.48120  0.76880  Biso   1.000  C
  C86      1.0000 0.25000  0.25930  0.99070  Biso   1.000  C
  C87      1.0000 0.75000  0.51880  0.23120  Biso   1.000  C
  C88      1.0000 0.75000  0.74070  0.00930  Biso   1.000  C
  N9       1.0000 0.32455  0.43065  0.75314  Biso   1.000  N
  N10      1.0000 0.31506  0.38269  0.94071  Biso   1.000  N
  N11      1.0000 0.17545  0.42231  0.89390  Biso   1.000  N
  N12      1.0000 0.18494  0.24423  0.93237  Biso   1.000  N
  N13      1.0000 0.67545  0.56935  0.24686  Biso   1.000  N
  N14      1.0000 0.68494  0.61731  0.05929  Biso   1.000  N
  N15      1.0000 0.82455  0.57769  0.10610  Biso   1.000  N
  N16      1.0000 0.81506  0.75577  0.06763  Biso   1.000  N
  O13      1.0000 0.29595  0.52246  0.55017  Biso   1.000  O
  O14      1.0000 0.23517  0.55954  0.42043  Biso   1.000  O
  O15      1.0000 0.47691  0.55003  0.42110  Biso   1.000  O
  O16      1.0000 0.20405  0.65388  0.77349  Biso   1.000  O
  O17      1.0000 0.26483  0.84440  0.67563  Biso   1.000  O
  O18      1.0000 0.02309  0.60199  0.92688  Biso   1.000  O
  O19      1.0000 0.70405  0.47754  0.44983  Biso   1.000  O
  O20      1.0000 0.76483  0.44046  0.57957  Biso   1.000  O
  O21      1.0000 0.52309  0.44997  0.57890  Biso   1.000  O
  O22      1.0000 0.79595  0.34612  0.22651  Biso   1.000  O
  O23      1.0000 0.73517  0.15560  0.32437  Biso   1.000  O
  O24      1.0000 0.97691  0.39801  0.07312  Biso   1.000  O
