data_image0
_cell_length_a       9.6103
_cell_length_b       11.531
_cell_length_c       12.2
_cell_angle_alpha    90
_cell_angle_beta     99.03
_cell_angle_gamma    90

_symmetry_space_group_name_H-M    P 1
_symmetry_int_tables_number       1

loop_
  _symmetry_equiv_pos_as_xyz
  'x, y, z'

loop_
  _atom_site_label
  _atom_site_occupancy
  _atom_site_fract_x
  _atom_site_fract_y
  _atom_site_fract_z
  _atom_site_thermal_displace_type
  _atom_site_B_iso_or_equiv
  _atom_site_type_symbol
  Er1      1.0000 0.78491  0.98848  0.66702  Biso   1.000  Er
  Er2      1.0000 0.71509  0.48848  0.83298  Biso   1.000  Er
  Er3      1.0000 0.21509  0.01152  0.33298  Biso   1.000  Er
  Er4      1.0000 0.28491  0.51152  0.16702  Biso   1.000  Er
  H1       1.0000 0.99280  0.91850  0.84450  Biso   1.000  H
  H2       1.0000 0.89780  0.98240  0.89460  Biso   1.000  H
  H3       1.0000 0.00000  0.03870  0.84570  Biso   1.000  H
  H4       1.0000 0.50720  0.41850  0.65550  Biso   1.000  H
  H5       1.0000 0.60220  0.48240  0.60540  Biso   1.000  H
  H6       1.0000 0.50000  0.53870  0.65430  Biso   1.000  H
  H7       1.0000 0.00720  0.08150  0.15550  Biso   1.000  H
  H8       1.0000 0.10220  0.01760  0.10540  Biso   1.000  H
  H9       1.0000 0.00000  0.96130  0.15430  Biso   1.000  H
  H10      1.0000 0.49280  0.58150  0.34450  Biso   1.000  H
  H11      1.0000 0.39780  0.51760  0.39460  Biso   1.000  H
  H12      1.0000 0.50000  0.46130  0.34570  Biso   1.000  H
  C1       1.0000 0.79980  0.25850  0.71630  Biso   1.000  C
  C2       1.0000 0.69570  0.21410  0.79220  Biso   1.000  C
  C3       1.0000 0.49600  0.93390  0.50120  Biso   1.000  C
  C4       1.0000 0.06300  0.00070  0.54700  Biso   1.000  C
  C5       1.0000 0.70020  0.75850  0.78370  Biso   1.000  C
  C6       1.0000 0.80430  0.71410  0.70780  Biso   1.000  C
  C7       1.0000 0.00400  0.43390  0.99880  Biso   1.000  C
  C8       1.0000 0.43700  0.50070  0.95300  Biso   1.000  C
  C9       1.0000 0.20020  0.74150  0.28370  Biso   1.000  C
  C10      1.0000 0.30430  0.78590  0.20780  Biso   1.000  C
  C11      1.0000 0.50400  0.06610  0.49880  Biso   1.000  C
  C12      1.0000 0.93700  0.99930  0.45300  Biso   1.000  C
  C13      1.0000 0.29980  0.24150  0.21630  Biso   1.000  C
  C14      1.0000 0.19570  0.28590  0.29220  Biso   1.000  C
  C15      1.0000 0.99600  0.56610  0.00120  Biso   1.000  C
  C16      1.0000 0.56300  0.49930  0.04700  Biso   1.000  C
  O1       1.0000 0.86380  0.18290  0.67020  Biso   1.000  O
  O2       1.0000 0.81140  0.36560  0.70790  Biso   1.000  O
  O3       1.0000 0.67720  0.10700  0.79480  Biso   1.000  O
  O4       1.0000 0.63770  0.29080  0.84330  Biso   1.000  O
  O5       1.0000 0.58820  0.88230  0.56800  Biso   1.000  O
  O6       1.0000 0.39720  0.88770  0.43750  Biso   1.000  O
  O7       1.0000 0.03340  0.99220  0.64420  Biso   1.000  O
  O8       1.0000 0.18220  0.01080  0.52160  Biso   1.000  O
  O9       1.0000 0.94490  0.98070  0.84120  Biso   1.000  O
  O10      1.0000 0.63620  0.68290  0.82980  Biso   1.000  O
  O11      1.0000 0.68860  0.86560  0.79210  Biso   1.000  O
  O12      1.0000 0.82280  0.60700  0.70520  Biso   1.000  O
  O13      1.0000 0.86230  0.79080  0.65670  Biso   1.000  O
  O14      1.0000 0.91180  0.38230  0.93200  Biso   1.000  O
  O15      1.0000 0.10280  0.38770  0.06250  Biso   1.000  O
  O16      1.0000 0.46660  0.49220  0.85580  Biso   1.000  O
  O17      1.0000 0.31780  0.51080  0.97840  Biso   1.000  O
  O18      1.0000 0.55510  0.48070  0.65880  Biso   1.000  O
  O19      1.0000 0.13620  0.81710  0.32980  Biso   1.000  O
  O20      1.0000 0.18860  0.63440  0.29210  Biso   1.000  O
  O21      1.0000 0.32280  0.89300  0.20520  Biso   1.000  O
  O22      1.0000 0.36230  0.70920  0.15670  Biso   1.000  O
  O23      1.0000 0.41180  0.11770  0.43200  Biso   1.000  O
  O24      1.0000 0.60280  0.11230  0.56250  Biso   1.000  O
  O25      1.0000 0.96660  0.00780  0.35580  Biso   1.000  O
  O26      1.0000 0.81780  0.98920  0.47840  Biso   1.000  O
  O27      1.0000 0.05510  0.01930  0.15880  Biso   1.000  O
  O28      1.0000 0.36380  0.31710  0.17020  Biso   1.000  O
  O29      1.0000 0.31140  0.13440  0.20790  Biso   1.000  O
  O30      1.0000 0.17720  0.39300  0.29480  Biso   1.000  O
  O31      1.0000 0.13770  0.20920  0.34330  Biso   1.000  O
  O32      1.0000 0.08820  0.61770  0.06800  Biso   1.000  O
  O33      1.0000 0.89720  0.61230  0.93750  Biso   1.000  O
  O34      1.0000 0.53340  0.50780  0.14420  Biso   1.000  O
  O35      1.0000 0.68220  0.48920  0.02160  Biso   1.000  O
  O36      1.0000 0.44490  0.51930  0.34120  Biso   1.000  O
