data_image0
_cell_length_a       9.5915
_cell_length_b       11.452
_cell_length_c       12.178
_cell_angle_alpha    90
_cell_angle_beta     98.96
_cell_angle_gamma    90

_symmetry_space_group_name_H-M    P 1
_symmetry_int_tables_number       1

loop_
  _symmetry_equiv_pos_as_xyz
  'x, y, z'

loop_
  _atom_site_label
  _atom_site_occupancy
  _atom_site_fract_x
  _atom_site_fract_y
  _atom_site_fract_z
  _atom_site_thermal_displace_type
  _atom_site_B_iso_or_equiv
  _atom_site_type_symbol
  Yb1      1.0000 0.78426  0.99016  0.16649  Biso   1.000  Yb
  Yb2      1.0000 0.71574  0.49016  0.33351  Biso   1.000  Yb
  Yb3      1.0000 0.21574  0.00984  0.83351  Biso   1.000  Yb
  Yb4      1.0000 0.28426  0.50984  0.66649  Biso   1.000  Yb
  H1       1.0000 0.94790  0.91630  0.36370  Biso   1.000  H
  H2       1.0000 0.90950  0.02690  0.38800  Biso   1.000  H
  H3       1.0000 0.02230  0.00820  0.33120  Biso   1.000  H
  H4       1.0000 0.55210  0.41630  0.13630  Biso   1.000  H
  H5       1.0000 0.59050  0.52690  0.11200  Biso   1.000  H
  H6       1.0000 0.47770  0.50820  0.16880  Biso   1.000  H
  H7       1.0000 0.05210  0.08370  0.63630  Biso   1.000  H
  H8       1.0000 0.09050  0.97310  0.61200  Biso   1.000  H
  H9       1.0000 0.97770  0.99180  0.66880  Biso   1.000  H
  H10      1.0000 0.44790  0.58370  0.86370  Biso   1.000  H
  H11      1.0000 0.40950  0.47310  0.88800  Biso   1.000  H
  H12      1.0000 0.52230  0.49180  0.83120  Biso   1.000  H
  C1       1.0000 0.80490  0.71640  0.20870  Biso   1.000  C
  C2       1.0000 0.70000  0.76070  0.28400  Biso   1.000  C
  C3       1.0000 0.93540  0.99930  0.95330  Biso   1.000  C
  C4       1.0000 0.50290  0.06660  0.99870  Biso   1.000  C
  C5       1.0000 0.69510  0.21640  0.29130  Biso   1.000  C
  C6       1.0000 0.80000  0.26070  0.21600  Biso   1.000  C
  C7       1.0000 0.56460  0.49930  0.54670  Biso   1.000  C
  C8       1.0000 0.99710  0.56660  0.50130  Biso   1.000  C
  C9       1.0000 0.19510  0.28360  0.79130  Biso   1.000  C
  C10      1.0000 0.30000  0.23930  0.71600  Biso   1.000  C
  C11      1.0000 0.06460  0.00070  0.04670  Biso   1.000  C
  C12      1.0000 0.49710  0.93340  0.00130  Biso   1.000  C
  C13      1.0000 0.30490  0.78360  0.70870  Biso   1.000  C
  C14      1.0000 0.20000  0.73930  0.78400  Biso   1.000  C
  C15      1.0000 0.43540  0.50070  0.45330  Biso   1.000  C
  C16      1.0000 0.00290  0.43340  0.49870  Biso   1.000  C
  O1       1.0000 0.86280  0.79350  0.15780  Biso   1.000  O
  O2       1.0000 0.82470  0.60830  0.20800  Biso   1.000  O
  O3       1.0000 0.68700  0.86840  0.29100  Biso   1.000  O
  O4       1.0000 0.63700  0.68410  0.33120  Biso   1.000  O
  O5       1.0000 0.81750  0.99020  0.97910  Biso   1.000  O
  O6       1.0000 0.96730  0.00600  0.85530  Biso   1.000  O
  O7       1.0000 0.60220  0.11370  0.06150  Biso   1.000  O
  O8       1.0000 0.41020  0.11780  0.93140  Biso   1.000  O
  O9       1.0000 0.94140  0.98370  0.34080  Biso   1.000  O
  O10      1.0000 0.63720  0.29350  0.34220  Biso   1.000  O
  O11      1.0000 0.67530  0.10830  0.29200  Biso   1.000  O
  O12      1.0000 0.81300  0.36840  0.20900  Biso   1.000  O
  O13      1.0000 0.86300  0.18410  0.16880  Biso   1.000  O
  O14      1.0000 0.68250  0.49020  0.52090  Biso   1.000  O
  O15      1.0000 0.53270  0.50600  0.64470  Biso   1.000  O
  O16      1.0000 0.89780  0.61370  0.43850  Biso   1.000  O
  O17      1.0000 0.08980  0.61780  0.56860  Biso   1.000  O
  O18      1.0000 0.55860  0.48370  0.15920  Biso   1.000  O
  O19      1.0000 0.13720  0.20650  0.84220  Biso   1.000  O
  O20      1.0000 0.17530  0.39170  0.79200  Biso   1.000  O
  O21      1.0000 0.31300  0.13160  0.70900  Biso   1.000  O
  O22      1.0000 0.36300  0.31590  0.66880  Biso   1.000  O
  O23      1.0000 0.18250  0.00980  0.02090  Biso   1.000  O
  O24      1.0000 0.03270  0.99400  0.14470  Biso   1.000  O
  O25      1.0000 0.39780  0.88630  0.93850  Biso   1.000  O
  O26      1.0000 0.58980  0.88220  0.06860  Biso   1.000  O
  O27      1.0000 0.05860  0.01630  0.65920  Biso   1.000  O
  O28      1.0000 0.36280  0.70650  0.65780  Biso   1.000  O
  O29      1.0000 0.32470  0.89170  0.70800  Biso   1.000  O
  O30      1.0000 0.18700  0.63160  0.79100  Biso   1.000  O
  O31      1.0000 0.13700  0.81590  0.83120  Biso   1.000  O
  O32      1.0000 0.31750  0.50980  0.47910  Biso   1.000  O
  O33      1.0000 0.46730  0.49400  0.35530  Biso   1.000  O
  O34      1.0000 0.10220  0.38630  0.56150  Biso   1.000  O
  O35      1.0000 0.91020  0.38220  0.43140  Biso   1.000  O
  O36      1.0000 0.44140  0.51630  0.84080  Biso   1.000  O
