data_image0
_cell_length_a       9.7166
_cell_length_b       11.926
_cell_length_c       12.38
_cell_angle_alpha    90
_cell_angle_beta     99.42
_cell_angle_gamma    90

_symmetry_space_group_name_H-M    P 1
_symmetry_int_tables_number       1

loop_
  _symmetry_equiv_pos_as_xyz
  'x, y, z'

loop_
  _atom_site_label
  _atom_site_occupancy
  _atom_site_fract_x
  _atom_site_fract_y
  _atom_site_fract_z
  _atom_site_thermal_displace_type
  _atom_site_B_iso_or_equiv
  _atom_site_type_symbol
  Nd1      1.0000 0.78712  0.51854  0.67074  Biso   1.000  Nd
  Nd2      1.0000 0.71288  0.01854  0.82926  Biso   1.000  Nd
  Nd3      1.0000 0.21288  0.48146  0.32926  Biso   1.000  Nd
  Nd4      1.0000 0.28712  0.98146  0.17074  Biso   1.000  Nd
  H1       1.0000 0.00650  0.58640  0.85150  Biso   1.000  H
  H2       1.0000 0.01450  0.47020  0.85310  Biso   1.000  H
  H3       1.0000 0.91540  0.52430  0.90330  Biso   1.000  H
  H4       1.0000 0.49350  0.08640  0.64850  Biso   1.000  H
  H5       1.0000 0.48550  0.97020  0.64690  Biso   1.000  H
  H6       1.0000 0.58460  0.02430  0.59670  Biso   1.000  H
  H7       1.0000 0.99350  0.41360  0.14850  Biso   1.000  H
  H8       1.0000 0.98550  0.52980  0.14690  Biso   1.000  H
  H9       1.0000 0.08460  0.47570  0.09670  Biso   1.000  H
  H10      1.0000 0.50650  0.91360  0.35150  Biso   1.000  H
  H11      1.0000 0.51450  0.02980  0.35310  Biso   1.000  H
  H12      1.0000 0.41540  0.97570  0.40330  Biso   1.000  H
  C1       1.0000 0.06250  0.50170  0.54720  Biso   1.000  C
  C2       1.0000 0.49400  0.56420  0.49820  Biso   1.000  C
  C3       1.0000 0.69920  0.74940  0.78220  Biso   1.000  C
  C4       1.0000 0.79850  0.79290  0.70420  Biso   1.000  C
  C5       1.0000 0.43750  0.00170  0.95280  Biso   1.000  C
  C6       1.0000 0.00600  0.06420  0.00180  Biso   1.000  C
  C7       1.0000 0.80080  0.24940  0.71780  Biso   1.000  C
  C8       1.0000 0.70150  0.29290  0.79580  Biso   1.000  C
  C9       1.0000 0.93750  0.49830  0.45280  Biso   1.000  C
  C10      1.0000 0.50600  0.43580  0.50180  Biso   1.000  C
  C11      1.0000 0.30080  0.25060  0.21780  Biso   1.000  C
  C12      1.0000 0.20150  0.20710  0.29580  Biso   1.000  C
  C13      1.0000 0.56250  0.99830  0.04720  Biso   1.000  C
  C14      1.0000 0.99400  0.93580  0.99820  Biso   1.000  C
  C15      1.0000 0.19920  0.75060  0.28220  Biso   1.000  C
  C16      1.0000 0.29850  0.70710  0.20420  Biso   1.000  C
  O1       1.0000 0.18100  0.48680  0.52300  Biso   1.000  O
  O2       1.0000 0.03460  0.51800  0.64120  Biso   1.000  O
  O3       1.0000 0.39960  0.60630  0.42990  Biso   1.000  O
  O4       1.0000 0.58110  0.61830  0.56530  Biso   1.000  O
  O5       1.0000 0.69490  0.64580  0.79660  Biso   1.000  O
  O6       1.0000 0.63230  0.82200  0.82570  Biso   1.000  O
  O7       1.0000 0.85900  0.71950  0.65610  Biso   1.000  O
  O8       1.0000 0.81020  0.89660  0.69630  Biso   1.000  O
  O9       1.0000 0.95960  0.52600  0.84950  Biso   1.000  O
  O10      1.0000 0.31900  0.98680  0.97700  Biso   1.000  O
  O11      1.0000 0.46540  0.01800  0.85880  Biso   1.000  O
  O12      1.0000 0.10040  0.10630  0.07010  Biso   1.000  O
  O13      1.0000 0.91890  0.11830  0.93470  Biso   1.000  O
  O14      1.0000 0.80510  0.14580  0.70340  Biso   1.000  O
  O15      1.0000 0.86770  0.32200  0.67430  Biso   1.000  O
  O16      1.0000 0.64100  0.21950  0.84390  Biso   1.000  O
  O17      1.0000 0.68980  0.39660  0.80370  Biso   1.000  O
  O18      1.0000 0.54040  0.02600  0.65050  Biso   1.000  O
  O19      1.0000 0.81900  0.51320  0.47700  Biso   1.000  O
  O20      1.0000 0.96540  0.48200  0.35880  Biso   1.000  O
  O21      1.0000 0.60040  0.39370  0.57010  Biso   1.000  O
  O22      1.0000 0.41890  0.38170  0.43470  Biso   1.000  O
  O23      1.0000 0.30510  0.35420  0.20340  Biso   1.000  O
  O24      1.0000 0.36770  0.17800  0.17430  Biso   1.000  O
  O25      1.0000 0.14100  0.28050  0.34390  Biso   1.000  O
  O26      1.0000 0.18980  0.10340  0.30370  Biso   1.000  O
  O27      1.0000 0.04040  0.47400  0.15050  Biso   1.000  O
  O28      1.0000 0.68100  0.01320  0.02300  Biso   1.000  O
  O29      1.0000 0.53460  0.98200  0.14120  Biso   1.000  O
  O30      1.0000 0.89960  0.89370  0.92990  Biso   1.000  O
  O31      1.0000 0.08110  0.88170  0.06530  Biso   1.000  O
  O32      1.0000 0.19490  0.85420  0.29660  Biso   1.000  O
  O33      1.0000 0.13230  0.67800  0.32570  Biso   1.000  O
  O34      1.0000 0.35900  0.78050  0.15610  Biso   1.000  O
  O35      1.0000 0.31020  0.60340  0.19630  Biso   1.000  O
  O36      1.0000 0.45960  0.97400  0.34950  Biso   1.000  O
