data_image0
_cell_length_a       9.6885
_cell_length_b       11.817
_cell_length_c       12.326
_cell_angle_alpha    90
_cell_angle_beta     99.26
_cell_angle_gamma    90

_symmetry_space_group_name_H-M    P 1
_symmetry_int_tables_number       1

loop_
  _symmetry_equiv_pos_as_xyz
  'x, y, z'

loop_
  _atom_site_label
  _atom_site_occupancy
  _atom_site_fract_x
  _atom_site_fract_y
  _atom_site_fract_z
  _atom_site_thermal_displace_type
  _atom_site_B_iso_or_equiv
  _atom_site_type_symbol
  Sm1      1.0000 0.78638  0.51645  0.66952  Biso   1.000  Sm
  Sm2      1.0000 0.71362  0.01645  0.83048  Biso   1.000  Sm
  Sm3      1.0000 0.21362  0.48355  0.33048  Biso   1.000  Sm
  Sm4      1.0000 0.28638  0.98355  0.16952  Biso   1.000  Sm
  H1       1.0000 0.91310  0.50500  0.90000  Biso   1.000  H
  H2       1.0000 0.98650  0.59080  0.85770  Biso   1.000  H
  H3       1.0000 0.02230  0.47860  0.84410  Biso   1.000  H
  H4       1.0000 0.58690  0.00500  0.60000  Biso   1.000  H
  H5       1.0000 0.51350  0.09080  0.64230  Biso   1.000  H
  H6       1.0000 0.47770  0.97860  0.65590  Biso   1.000  H
  H7       1.0000 0.08690  0.49500  0.10000  Biso   1.000  H
  H8       1.0000 0.01350  0.40920  0.14230  Biso   1.000  H
  H9       1.0000 0.97770  0.52140  0.15590  Biso   1.000  H
  H10      1.0000 0.41310  0.99500  0.40000  Biso   1.000  H
  H11      1.0000 0.48650  0.90920  0.35770  Biso   1.000  H
  H12      1.0000 0.52230  0.02140  0.34410  Biso   1.000  H
  C1       1.0000 0.49500  0.56520  0.49920  Biso   1.000  C
  C2       1.0000 0.79990  0.24690  0.71740  Biso   1.000  C
  C3       1.0000 0.69970  0.29050  0.79480  Biso   1.000  C
  C4       1.0000 0.06320  0.50090  0.54760  Biso   1.000  C
  C5       1.0000 0.00500  0.06520  0.00080  Biso   1.000  C
  C6       1.0000 0.70010  0.74690  0.78260  Biso   1.000  C
  C7       1.0000 0.80030  0.79050  0.70520  Biso   1.000  C
  C8       1.0000 0.43680  0.00090  0.95240  Biso   1.000  C
  C9       1.0000 0.50500  0.43480  0.50080  Biso   1.000  C
  C10      1.0000 0.20010  0.75310  0.28260  Biso   1.000  C
  C11      1.0000 0.30030  0.70950  0.20520  Biso   1.000  C
  C12      1.0000 0.93680  0.49910  0.45240  Biso   1.000  C
  C13      1.0000 0.99500  0.93480  0.99920  Biso   1.000  C
  C14      1.0000 0.29990  0.25310  0.21740  Biso   1.000  C
  C15      1.0000 0.19970  0.20950  0.29480  Biso   1.000  C
  C16      1.0000 0.56320  0.99910  0.04760  Biso   1.000  C
  O1       1.0000 0.58300  0.61820  0.56580  Biso   1.000  O
  O2       1.0000 0.39890  0.60790  0.43220  Biso   1.000  O
  O3       1.0000 0.86660  0.32031  0.67300  Biso   1.000  O
  O4       1.0000 0.80700  0.14230  0.70500  Biso   1.000  O
  O5       1.0000 0.64000  0.21660  0.84380  Biso   1.000  O
  O6       1.0000 0.68620  0.39550  0.80110  Biso   1.000  O
  O7       1.0000 0.03360  0.51510  0.64240  Biso   1.000  O
  O8       1.0000 0.18140  0.48750  0.52250  Biso   1.000  O
  O9       1.0000 0.95500  0.52390  0.84730  Biso   1.000  O
  O10      1.0000 0.91700  0.11820  0.93420  Biso   1.000  O
  O11      1.0000 0.10110  0.10790  0.06780  Biso   1.000  O
  O12      1.0000 0.63340  0.82031  0.82700  Biso   1.000  O
  O13      1.0000 0.69300  0.64230  0.79500  Biso   1.000  O
  O14      1.0000 0.86000  0.71660  0.65620  Biso   1.000  O
  O15      1.0000 0.81380  0.89550  0.69890  Biso   1.000  O
  O16      1.0000 0.46640  0.01510  0.85760  Biso   1.000  O
  O17      1.0000 0.31860  0.98750  0.97750  Biso   1.000  O
  O18      1.0000 0.54500  0.02390  0.65270  Biso   1.000  O
  O19      1.0000 0.41700  0.38180  0.43420  Biso   1.000  O
  O20      1.0000 0.60110  0.39210  0.56780  Biso   1.000  O
  O21      1.0000 0.13340  0.67969  0.32700  Biso   1.000  O
  O22      1.0000 0.19300  0.85770  0.29500  Biso   1.000  O
  O23      1.0000 0.36000  0.78340  0.15620  Biso   1.000  O
  O24      1.0000 0.31380  0.60450  0.19890  Biso   1.000  O
  O25      1.0000 0.96640  0.48490  0.35760  Biso   1.000  O
  O26      1.0000 0.81860  0.51250  0.47750  Biso   1.000  O
  O27      1.0000 0.04500  0.47610  0.15270  Biso   1.000  O
  O28      1.0000 0.08300  0.88180  0.06580  Biso   1.000  O
  O29      1.0000 0.89890  0.89210  0.93220  Biso   1.000  O
  O30      1.0000 0.36660  0.17969  0.17300  Biso   1.000  O
  O31      1.0000 0.30700  0.35770  0.20500  Biso   1.000  O
  O32      1.0000 0.14000  0.28340  0.34380  Biso   1.000  O
  O33      1.0000 0.18620  0.10450  0.30110  Biso   1.000  O
  O34      1.0000 0.53360  0.98490  0.14240  Biso   1.000  O
  O35      1.0000 0.68140  0.01250  0.02250  Biso   1.000  O
  O36      1.0000 0.45500  0.97610  0.34730  Biso   1.000  O
