data_image0
_cell_length_a       9.6205
_cell_length_b       11.564
_cell_length_c       12.229
_cell_angle_alpha    90
_cell_angle_beta     99.04
_cell_angle_gamma    90

_symmetry_space_group_name_H-M    P 1
_symmetry_int_tables_number       1

loop_
  _symmetry_equiv_pos_as_xyz
  'x, y, z'

loop_
  _atom_site_label
  _atom_site_occupancy
  _atom_site_fract_x
  _atom_site_fract_y
  _atom_site_fract_z
  _atom_site_thermal_displace_type
  _atom_site_B_iso_or_equiv
  _atom_site_type_symbol
  Ho1      1.0000 0.78498  0.51238  0.16715  Biso   1.000  Ho
  Ho2      1.0000 0.71502  0.01238  0.33285  Biso   1.000  Ho
  Ho3      1.0000 0.21502  0.48762  0.83285  Biso   1.000  Ho
  Ho4      1.0000 0.28498  0.98762  0.66715  Biso   1.000  Ho
  H1       1.0000 0.99390  0.58140  0.34640  Biso   1.000  H
  H2       1.0000 0.00130  0.46150  0.34680  Biso   1.000  H
  H3       1.0000 0.89900  0.51700  0.39590  Biso   1.000  H
  H4       1.0000 0.50610  0.08140  0.15360  Biso   1.000  H
  H5       1.0000 0.49870  0.96150  0.15320  Biso   1.000  H
  H6       1.0000 0.60100  0.01700  0.10410  Biso   1.000  H
  H7       1.0000 0.00610  0.41860  0.65360  Biso   1.000  H
  H8       1.0000 0.99870  0.53850  0.65320  Biso   1.000  H
  H9       1.0000 0.10100  0.48300  0.60410  Biso   1.000  H
  H10      1.0000 0.49390  0.91860  0.84640  Biso   1.000  H
  H11      1.0000 0.50130  0.03850  0.84680  Biso   1.000  H
  H12      1.0000 0.39900  0.98300  0.89590  Biso   1.000  H
  C1       1.0000 0.70100  0.74290  0.28300  Biso   1.000  C
  C2       1.0000 0.50420  0.43380  0.99860  Biso   1.000  C
  C3       1.0000 0.80330  0.78600  0.20770  Biso   1.000  C
  C4       1.0000 0.06270  0.49990  0.04770  Biso   1.000  C
  C5       1.0000 0.79900  0.24290  0.21700  Biso   1.000  C
  C6       1.0000 0.99580  0.93380  0.50140  Biso   1.000  C
  C7       1.0000 0.69670  0.28600  0.29230  Biso   1.000  C
  C8       1.0000 0.43730  0.99990  0.45230  Biso   1.000  C
  C9       1.0000 0.29900  0.25710  0.71700  Biso   1.000  C
  C10      1.0000 0.49580  0.56620  0.00140  Biso   1.000  C
  C11      1.0000 0.19670  0.21400  0.79230  Biso   1.000  C
  C12      1.0000 0.93730  0.50010  0.95230  Biso   1.000  C
  C13      1.0000 0.20100  0.75710  0.78300  Biso   1.000  C
  C14      1.0000 0.00420  0.06620  0.49860  Biso   1.000  C
  C15      1.0000 0.30330  0.71400  0.70770  Biso   1.000  C
  C16      1.0000 0.56270  0.00010  0.54770  Biso   1.000  C
  O1       1.0000 0.68870  0.63540  0.29250  Biso   1.000  O
  O2       1.0000 0.63560  0.81790  0.32930  Biso   1.000  O
  O3       1.0000 0.60300  0.38780  0.06270  Biso   1.000  O
  O4       1.0000 0.41220  0.38210  0.93290  Biso   1.000  O
  O5       1.0000 0.82130  0.89340  0.20450  Biso   1.000  O
  O6       1.0000 0.86180  0.71080  0.15630  Biso   1.000  O
  O7       1.0000 0.18210  0.48870  0.02210  Biso   1.000  O
  O8       1.0000 0.03260  0.50930  0.14350  Biso   1.000  O
  O9       1.0000 0.94610  0.51930  0.34260  Biso   1.000  O
  O10      1.0000 0.81130  0.13540  0.20750  Biso   1.000  O
  O11      1.0000 0.86440  0.31790  0.17070  Biso   1.000  O
  O12      1.0000 0.89700  0.88780  0.43730  Biso   1.000  O
  O13      1.0000 0.08780  0.88210  0.56710  Biso   1.000  O
  O14      1.0000 0.67870  0.39340  0.29550  Biso   1.000  O
  O15      1.0000 0.63820  0.21080  0.34370  Biso   1.000  O
  O16      1.0000 0.31790  0.98870  0.47790  Biso   1.000  O
  O17      1.0000 0.46740  0.00930  0.35650  Biso   1.000  O
  O18      1.0000 0.55390  0.01930  0.15740  Biso   1.000  O
  O19      1.0000 0.31130  0.36460  0.70750  Biso   1.000  O
  O20      1.0000 0.36440  0.18210  0.67070  Biso   1.000  O
  O21      1.0000 0.39700  0.61220  0.93730  Biso   1.000  O
  O22      1.0000 0.58780  0.61790  0.06710  Biso   1.000  O
  O23      1.0000 0.17870  0.10660  0.79550  Biso   1.000  O
  O24      1.0000 0.13820  0.28920  0.84370  Biso   1.000  O
  O25      1.0000 0.81790  0.51130  0.97790  Biso   1.000  O
  O26      1.0000 0.96740  0.49070  0.85650  Biso   1.000  O
  O27      1.0000 0.05390  0.48070  0.65740  Biso   1.000  O
  O28      1.0000 0.18870  0.86460  0.79250  Biso   1.000  O
  O29      1.0000 0.13560  0.68210  0.82930  Biso   1.000  O
  O30      1.0000 0.10300  0.11220  0.56270  Biso   1.000  O
  O31      1.0000 0.91220  0.11790  0.43290  Biso   1.000  O
  O32      1.0000 0.32130  0.60660  0.70450  Biso   1.000  O
  O33      1.0000 0.36180  0.78920  0.65630  Biso   1.000  O
  O34      1.0000 0.68210  0.01130  0.52210  Biso   1.000  O
  O35      1.0000 0.53260  0.99070  0.64350  Biso   1.000  O
  O36      1.0000 0.44610  0.98070  0.84260  Biso   1.000  O
