data_image0
_cell_length_a       9.659
_cell_length_b       11.718
_cell_length_c       12.281
_cell_angle_alpha    90
_cell_angle_beta     99.2
_cell_angle_gamma    90

_symmetry_space_group_name_H-M    P 1
_symmetry_int_tables_number       1

loop_
  _symmetry_equiv_pos_as_xyz
  'x, y, z'

loop_
  _atom_site_label
  _atom_site_occupancy
  _atom_site_fract_x
  _atom_site_fract_y
  _atom_site_fract_z
  _atom_site_thermal_displace_type
  _atom_site_B_iso_or_equiv
  _atom_site_type_symbol
  Gd1      1.0000 0.78595  0.48520  0.66865  Biso   1.000  Gd
  Gd2      1.0000 0.71405  0.98520  0.83135  Biso   1.000  Gd
  Gd3      1.0000 0.21405  0.51480  0.33135  Biso   1.000  Gd
  Gd4      1.0000 0.28595  0.01480  0.16865  Biso   1.000  Gd
  H1       1.0000 0.99860  0.41640  0.84860  Biso   1.000  H
  H2       1.0000 0.90530  0.47960  0.89930  Biso   1.000  H
  H3       1.0000 0.00640  0.53470  0.85000  Biso   1.000  H
  H4       1.0000 0.50140  0.91640  0.65140  Biso   1.000  H
  H5       1.0000 0.59470  0.97960  0.60070  Biso   1.000  H
  H6       1.0000 0.49360  0.03470  0.65000  Biso   1.000  H
  H7       1.0000 0.00140  0.58360  0.15140  Biso   1.000  H
  H8       1.0000 0.09470  0.52040  0.10070  Biso   1.000  H
  H9       1.0000 0.99360  0.46530  0.15000  Biso   1.000  H
  H10      1.0000 0.49860  0.08360  0.34860  Biso   1.000  H
  H11      1.0000 0.40530  0.02040  0.39930  Biso   1.000  H
  H12      1.0000 0.50640  0.96530  0.35000  Biso   1.000  H
  C1       1.0000 0.80140  0.21080  0.70620  Biso   1.000  C
  C2       1.0000 0.70060  0.25460  0.78320  Biso   1.000  C
  C3       1.0000 0.06290  0.49950  0.54750  Biso   1.000  C
  C4       1.0000 0.49470  0.43400  0.50010  Biso   1.000  C
  C5       1.0000 0.69860  0.71080  0.79380  Biso   1.000  C
  C6       1.0000 0.79940  0.75460  0.71680  Biso   1.000  C
  C7       1.0000 0.43710  0.99950  0.95250  Biso   1.000  C
  C8       1.0000 0.00530  0.93400  0.99990  Biso   1.000  C
  C9       1.0000 0.19860  0.78920  0.29380  Biso   1.000  C
  C10      1.0000 0.29940  0.74540  0.21680  Biso   1.000  C
  C11      1.0000 0.93710  0.50050  0.45250  Biso   1.000  C
  C12      1.0000 0.50530  0.56600  0.49990  Biso   1.000  C
  C13      1.0000 0.30140  0.28920  0.20620  Biso   1.000  C
  C14      1.0000 0.20060  0.24540  0.28320  Biso   1.000  C
  C15      1.0000 0.56290  0.00050  0.04750  Biso   1.000  C
  C16      1.0000 0.99470  0.06600  0.00010  Biso   1.000  C
  O1       1.0000 0.86030  0.28570  0.65610  Biso   1.000  O
  O2       1.0000 0.81730  0.10530  0.70100  Biso   1.000  O
  O3       1.0000 0.69160  0.36050  0.79400  Biso   1.000  O
  O4       1.0000 0.63450  0.18090  0.82770  Biso   1.000  O
  O5       1.0000 0.03340  0.48750  0.64290  Biso   1.000  O
  O6       1.0000 0.18140  0.51180  0.52250  Biso   1.000  O
  O7       1.0000 0.58450  0.38200  0.56630  Biso   1.000  O
  O8       1.0000 0.39800  0.39000  0.43420  Biso   1.000  O
  O9       1.0000 0.95130  0.47780  0.84580  Biso   1.000  O
  O10      1.0000 0.63970  0.78570  0.84390  Biso   1.000  O
  O11      1.0000 0.68270  0.60530  0.79900  Biso   1.000  O
  O12      1.0000 0.80840  0.86050  0.70600  Biso   1.000  O
  O13      1.0000 0.86550  0.68090  0.67230  Biso   1.000  O
  O14      1.0000 0.46660  0.98750  0.85710  Biso   1.000  O
  O15      1.0000 0.31860  0.01180  0.97750  Biso   1.000  O
  O16      1.0000 0.91550  0.88200  0.93370  Biso   1.000  O
  O17      1.0000 0.10200  0.89000  0.06580  Biso   1.000  O
  O18      1.0000 0.54870  0.97780  0.65420  Biso   1.000  O
  O19      1.0000 0.13970  0.71430  0.34390  Biso   1.000  O
  O20      1.0000 0.18270  0.89470  0.29900  Biso   1.000  O
  O21      1.0000 0.30840  0.63950  0.20600  Biso   1.000  O
  O22      1.0000 0.36550  0.81910  0.17230  Biso   1.000  O
  O23      1.0000 0.96660  0.51250  0.35710  Biso   1.000  O
  O24      1.0000 0.81860  0.48820  0.47750  Biso   1.000  O
  O25      1.0000 0.41550  0.61800  0.43370  Biso   1.000  O
  O26      1.0000 0.60200  0.61000  0.56580  Biso   1.000  O
  O27      1.0000 0.04870  0.52220  0.15420  Biso   1.000  O
  O28      1.0000 0.36030  0.21430  0.15610  Biso   1.000  O
  O29      1.0000 0.31730  0.39470  0.20100  Biso   1.000  O
  O30      1.0000 0.19160  0.13950  0.29400  Biso   1.000  O
  O31      1.0000 0.13450  0.31910  0.32770  Biso   1.000  O
  O32      1.0000 0.53340  0.01250  0.14290  Biso   1.000  O
  O33      1.0000 0.68140  0.98820  0.02250  Biso   1.000  O
  O34      1.0000 0.08450  0.11800  0.06630  Biso   1.000  O
  O35      1.0000 0.89800  0.11000  0.93420  Biso   1.000  O
  O36      1.0000 0.45130  0.02220  0.34580  Biso   1.000  O
