data_image0
_cell_length_a       9.6315
_cell_length_b       11.613
_cell_length_c       12.217
_cell_angle_alpha    90
_cell_angle_beta     99.13
_cell_angle_gamma    90

_symmetry_space_group_name_H-M    P 1
_symmetry_int_tables_number       1

loop_
  _symmetry_equiv_pos_as_xyz
  'x, y, z'

loop_
  _atom_site_label
  _atom_site_occupancy
  _atom_site_fract_x
  _atom_site_fract_y
  _atom_site_fract_z
  _atom_site_thermal_displace_type
  _atom_site_B_iso_or_equiv
  _atom_site_type_symbol
  Dy1      1.0000 0.78530  0.48689  0.16760  Biso   1.000  Dy
  Dy2      1.0000 0.71470  0.98689  0.33240  Biso   1.000  Dy
  Dy3      1.0000 0.21470  0.51311  0.83240  Biso   1.000  Dy
  Dy4      1.0000 0.28530  0.01312  0.66760  Biso   1.000  Dy
  H1       1.0000 0.99500  0.41800  0.34680  Biso   1.000  H
  H2       1.0000 0.90100  0.48180  0.39710  Biso   1.000  H
  H3       1.0000 0.00280  0.53730  0.34780  Biso   1.000  H
  H4       1.0000 0.50500  0.91800  0.15320  Biso   1.000  H
  H5       1.0000 0.59900  0.98180  0.10290  Biso   1.000  H
  H6       1.0000 0.49720  0.03730  0.15220  Biso   1.000  H
  H7       1.0000 0.00500  0.58200  0.65320  Biso   1.000  H
  H8       1.0000 0.09900  0.51820  0.60290  Biso   1.000  H
  H9       1.0000 0.99720  0.46270  0.65220  Biso   1.000  H
  H10      1.0000 0.49500  0.08200  0.84680  Biso   1.000  H
  H11      1.0000 0.40100  0.01820  0.89710  Biso   1.000  H
  H12      1.0000 0.50280  0.96270  0.84780  Biso   1.000  H
  C1       1.0000 0.70040  0.25700  0.28300  Biso   1.000  C
  C2       1.0000 0.80290  0.21290  0.20690  Biso   1.000  C
  C3       1.0000 0.50440  0.56640  0.99890  Biso   1.000  C
  C4       1.0000 0.06300  0.49990  0.04780  Biso   1.000  C
  C5       1.0000 0.79960  0.75700  0.21700  Biso   1.000  C
  C6       1.0000 0.69710  0.71290  0.29310  Biso   1.000  C
  C7       1.0000 0.99560  0.06640  0.50110  Biso   1.000  C
  C8       1.0000 0.43700  0.99990  0.45220  Biso   1.000  C
  C9       1.0000 0.29960  0.74300  0.71700  Biso   1.000  C
  C10      1.0000 0.19710  0.78710  0.79310  Biso   1.000  C
  C11      1.0000 0.49560  0.43360  0.00110  Biso   1.000  C
  C12      1.0000 0.93700  0.50010  0.95220  Biso   1.000  C
  C13      1.0000 0.20040  0.24300  0.78300  Biso   1.000  C
  C14      1.0000 0.30290  0.28710  0.70690  Biso   1.000  C
  C15      1.0000 0.00440  0.93360  0.49890  Biso   1.000  C
  C16      1.0000 0.56300  0.00010  0.54780  Biso   1.000  C
  O1       1.0000 0.69010  0.36320  0.29280  Biso   1.000  O
  O2       1.0000 0.63520  0.18180  0.32880  Biso   1.000  O
  O3       1.0000 0.86130  0.28780  0.15600  Biso   1.000  O
  O4       1.0000 0.82030  0.10620  0.20360  Biso   1.000  O
  O5       1.0000 0.60270  0.61150  0.06400  Biso   1.000  O
  O6       1.0000 0.41320  0.61800  0.93280  Biso   1.000  O
  O7       1.0000 0.03280  0.48970  0.14340  Biso   1.000  O
  O8       1.0000 0.18220  0.51160  0.02230  Biso   1.000  O
  O9       1.0000 0.94750  0.47990  0.34360  Biso   1.000  O
  O10      1.0000 0.80990  0.86320  0.20720  Biso   1.000  O
  O11      1.0000 0.86480  0.68180  0.17120  Biso   1.000  O
  O12      1.0000 0.63870  0.78780  0.34400  Biso   1.000  O
  O13      1.0000 0.67970  0.60620  0.29640  Biso   1.000  O
  O14      1.0000 0.89730  0.11150  0.43600  Biso   1.000  O
  O15      1.0000 0.08680  0.11800  0.56720  Biso   1.000  O
  O16      1.0000 0.46720  0.98970  0.35660  Biso   1.000  O
  O17      1.0000 0.31780  0.01160  0.47770  Biso   1.000  O
  O18      1.0000 0.55250  0.97990  0.15640  Biso   1.000  O
  O19      1.0000 0.30990  0.63680  0.70720  Biso   1.000  O
  O20      1.0000 0.36480  0.81820  0.67120  Biso   1.000  O
  O21      1.0000 0.13870  0.71220  0.84400  Biso   1.000  O
  O22      1.0000 0.17970  0.89380  0.79640  Biso   1.000  O
  O23      1.0000 0.39730  0.38850  0.93600  Biso   1.000  O
  O24      1.0000 0.58680  0.38200  0.06720  Biso   1.000  O
  O25      1.0000 0.96720  0.51030  0.85660  Biso   1.000  O
  O26      1.0000 0.81780  0.48840  0.97770  Biso   1.000  O
  O27      1.0000 0.05250  0.52010  0.65640  Biso   1.000  O
  O28      1.0000 0.19010  0.13680  0.79280  Biso   1.000  O
  O29      1.0000 0.13520  0.31820  0.82880  Biso   1.000  O
  O30      1.0000 0.36130  0.21220  0.65600  Biso   1.000  O
  O31      1.0000 0.32030  0.39380  0.70360  Biso   1.000  O
  O32      1.0000 0.10270  0.88850  0.56400  Biso   1.000  O
  O33      1.0000 0.91320  0.88200  0.43280  Biso   1.000  O
  O34      1.0000 0.53280  0.01030  0.64340  Biso   1.000  O
  O35      1.0000 0.68220  0.98840  0.52230  Biso   1.000  O
  O36      1.0000 0.44750  0.02010  0.84360  Biso   1.000  O
