data_image0
_cell_length_a       9.6515
_cell_length_b       11.655
_cell_length_c       12.264
_cell_angle_alpha    90
_cell_angle_beta     99.14
_cell_angle_gamma    90

_symmetry_space_group_name_H-M    P 1
_symmetry_int_tables_number       1

loop_
  _symmetry_equiv_pos_as_xyz
  'x, y, z'

loop_
  _atom_site_label
  _atom_site_occupancy
  _atom_site_fract_x
  _atom_site_fract_y
  _atom_site_fract_z
  _atom_site_thermal_displace_type
  _atom_site_B_iso_or_equiv
  _atom_site_type_symbol
  Tb1      1.0000 0.71437  0.48614  0.33196  Biso   1.000  Tb
  Tb2      1.0000 0.78563  0.98614  0.16804  Biso   1.000  Tb
  Tb3      1.0000 0.28563  0.51386  0.66804  Biso   1.000  Tb
  Tb4      1.0000 0.21437  0.01386  0.83196  Biso   1.000  Tb
  H1       1.0000 0.50310  0.41760  0.15260  Biso   1.000  H
  H2       1.0000 0.59680  0.48120  0.10220  Biso   1.000  H
  H3       1.0000 0.49550  0.53650  0.15160  Biso   1.000  H
  H4       1.0000 0.99690  0.91760  0.34740  Biso   1.000  H
  H5       1.0000 0.90320  0.98120  0.39780  Biso   1.000  H
  H6       1.0000 0.00450  0.03650  0.34840  Biso   1.000  H
  H7       1.0000 0.49690  0.58240  0.84740  Biso   1.000  H
  H8       1.0000 0.40320  0.51880  0.89780  Biso   1.000  H
  H9       1.0000 0.50450  0.46350  0.84840  Biso   1.000  H
  H10      1.0000 0.00310  0.08240  0.65260  Biso   1.000  H
  H11      1.0000 0.09680  0.01880  0.60220  Biso   1.000  H
  H12      1.0000 0.99550  0.96350  0.65160  Biso   1.000  H
  C1       1.0000 0.69790  0.21250  0.29370  Biso   1.000  C
  C2       1.0000 0.99550  0.56570  0.50040  Biso   1.000  C
  C3       1.0000 0.56250  0.50010  0.54810  Biso   1.000  C
  C4       1.0000 0.79930  0.25630  0.21650  Biso   1.000  C
  C5       1.0000 0.80210  0.71250  0.20630  Biso   1.000  C
  C6       1.0000 0.50450  0.06570  0.99960  Biso   1.000  C
  C7       1.0000 0.93750  0.00010  0.95190  Biso   1.000  C
  C8       1.0000 0.70070  0.75630  0.28350  Biso   1.000  C
  C9       1.0000 0.30210  0.78750  0.70630  Biso   1.000  C
  C10      1.0000 0.00450  0.43430  0.49960  Biso   1.000  C
  C11      1.0000 0.43750  0.49990  0.45190  Biso   1.000  C
  C12      1.0000 0.20070  0.74370  0.78350  Biso   1.000  C
  C13      1.0000 0.19790  0.28750  0.79370  Biso   1.000  C
  C14      1.0000 0.49550  0.93430  0.00040  Biso   1.000  C
  C15      1.0000 0.06250  0.99990  0.04810  Biso   1.000  C
  C16      1.0000 0.29930  0.24370  0.71650  Biso   1.000  C
  O1       1.0000 0.63860  0.28690  0.34370  Biso   1.000  O
  O2       1.0000 0.68120  0.10570  0.29790  Biso   1.000  O
  O3       1.0000 0.89780  0.61080  0.43510  Biso   1.000  O
  O4       1.0000 0.08610  0.61820  0.56680  Biso   1.000  O
  O5       1.0000 0.68240  0.48860  0.52200  Biso   1.000  O
  O6       1.0000 0.53290  0.51150  0.64310  Biso   1.000  O
  O7       1.0000 0.86520  0.18180  0.17150  Biso   1.000  O
  O8       1.0000 0.80890  0.36180  0.20630  Biso   1.000  O
  O9       1.0000 0.55060  0.47920  0.15570  Biso   1.000  O
  O10      1.0000 0.86140  0.78690  0.15630  Biso   1.000  O
  O11      1.0000 0.81880  0.60570  0.20210  Biso   1.000  O
  O12      1.0000 0.60220  0.11080  0.06490  Biso   1.000  O
  O13      1.0000 0.41390  0.11820  0.93320  Biso   1.000  O
  O14      1.0000 0.81760  0.98860  0.97800  Biso   1.000  O
  O15      1.0000 0.96710  0.01150  0.85690  Biso   1.000  O
  O16      1.0000 0.63480  0.68180  0.32850  Biso   1.000  O
  O17      1.0000 0.69110  0.86180  0.29370  Biso   1.000  O
  O18      1.0000 0.94940  0.97920  0.34430  Biso   1.000  O
  O19      1.0000 0.36140  0.71310  0.65630  Biso   1.000  O
  O20      1.0000 0.31880  0.89430  0.70210  Biso   1.000  O
  O21      1.0000 0.10220  0.38920  0.56490  Biso   1.000  O
  O22      1.0000 0.91390  0.38180  0.43320  Biso   1.000  O
  O23      1.0000 0.31760  0.51140  0.47800  Biso   1.000  O
  O24      1.0000 0.46710  0.48850  0.35690  Biso   1.000  O
  O25      1.0000 0.13480  0.81820  0.82850  Biso   1.000  O
  O26      1.0000 0.19110  0.63820  0.79370  Biso   1.000  O
  O27      1.0000 0.44940  0.52080  0.84430  Biso   1.000  O
  O28      1.0000 0.13860  0.21310  0.84370  Biso   1.000  O
  O29      1.0000 0.18120  0.39430  0.79790  Biso   1.000  O
  O30      1.0000 0.39780  0.88920  0.93510  Biso   1.000  O
  O31      1.0000 0.58610  0.88180  0.06680  Biso   1.000  O
  O32      1.0000 0.18240  0.01140  0.02200  Biso   1.000  O
  O33      1.0000 0.03290  0.98850  0.14310  Biso   1.000  O
  O34      1.0000 0.36520  0.31820  0.67150  Biso   1.000  O
  O35      1.0000 0.30890  0.13820  0.70630  Biso   1.000  O
  O36      1.0000 0.05060  0.02080  0.65570  Biso   1.000  O
