data_image0
_cell_length_a       12.2538
_cell_length_b       12.2538
_cell_length_c       23.0775
_cell_angle_alpha    86.8991
_cell_angle_beta     86.8991
_cell_angle_gamma    66.5115

_symmetry_space_group_name_H-M    P 1
_symmetry_int_tables_number       1

loop_
  _symmetry_equiv_pos_as_xyz
  'x, y, z'

loop_
  _atom_site_label
  _atom_site_occupancy
  _atom_site_fract_x
  _atom_site_fract_y
  _atom_site_fract_z
  _atom_site_thermal_displace_type
  _atom_site_B_iso_or_equiv
  _atom_site_type_symbol
  Cd1      1.0000 0.47531  0.94675  0.26783  Biso   1.000  Cd
  Cd2      1.0000 0.05325  0.52469  0.23217  Biso   1.000  Cd
  Cd3      1.0000 0.52469  0.05325  0.73217  Biso   1.000  Cd
  Cd4      1.0000 0.94675  0.47531  0.76783  Biso   1.000  Cd
  H1       1.0000 0.46060  0.64360  0.14110  Biso   1.000  H
  H2       1.0000 0.50040  0.54540  0.05560  Biso   1.000  H
  H3       1.0000 0.69370  0.45570  0.01830  Biso   1.000  H
  H4       1.0000 0.84840  0.46700  0.06750  Biso   1.000  H
  H5       1.0000 0.34530  0.86470  0.15780  Biso   1.000  H
  H6       1.0000 0.24410  0.18410  0.20800  Biso   1.000  H
  H7       1.0000 0.06290  0.28650  0.13950  Biso   1.000  H
  H8       1.0000 0.14180  0.24960  0.08240  Biso   1.000  H
  H9       1.0000 0.87690  0.30290  0.19050  Biso   1.000  H
  H10      1.0000 0.84330  0.19290  0.20260  Biso   1.000  H
  H11      1.0000 0.97740  0.17520  0.19880  Biso   1.000  H
  H12      1.0000 0.10810  0.25110  0.97850  Biso   1.000  H
  H13      1.0000 0.18840  0.13440  0.01220  Biso   1.000  H
  H14      1.0000 0.12550  0.12650  0.95610  Biso   1.000  H
  H15      1.0000 0.65170  0.23650  0.99820  Biso   1.000  H
  H16      1.0000 0.73580  0.11320  0.97350  Biso   1.000  H
  H17      1.0000 0.67420  0.11900  0.03530  Biso   1.000  H
  H18      1.0000 0.62610  0.25790  0.10180  Biso   1.000  H
  H19      1.0000 0.68400  0.27840  0.15680  Biso   1.000  H
  H20      1.0000 0.73390  0.85750  0.18150  Biso   1.000  H
  H21      1.0000 0.53790  0.18570  0.21060  Biso   1.000  H
  H22      1.0000 0.88270  0.07570  0.93440  Biso   1.000  H
  H23      1.0000 0.01170  0.07330  0.92990  Biso   1.000  H
  H24      1.0000 0.03420  0.22800  0.85440  Biso   1.000  H
  H25      1.0000 0.70670  0.43810  0.83980  Biso   1.000  H
  H26      1.0000 0.35640  0.53940  0.35890  Biso   1.000  H
  H27      1.0000 0.45460  0.49960  0.44440  Biso   1.000  H
  H28      1.0000 0.54430  0.30630  0.48170  Biso   1.000  H
  H29      1.0000 0.53300  0.15160  0.43250  Biso   1.000  H
  H30      1.0000 0.13530  0.65470  0.34220  Biso   1.000  H
  H31      1.0000 0.81590  0.75590  0.29200  Biso   1.000  H
  H32      1.0000 0.71350  0.93710  0.36050  Biso   1.000  H
  H33      1.0000 0.75040  0.85820  0.41760  Biso   1.000  H
  H34      1.0000 0.69710  0.12310  0.30950  Biso   1.000  H
  H35      1.0000 0.80710  0.15670  0.29740  Biso   1.000  H
  H36      1.0000 0.82480  0.02260  0.30120  Biso   1.000  H
  H37      1.0000 0.74890  0.89190  0.52150  Biso   1.000  H
  H38      1.0000 0.86560  0.81160  0.48780  Biso   1.000  H
  H39      1.0000 0.87350  0.87450  0.54390  Biso   1.000  H
  H40      1.0000 0.76350  0.34830  0.50180  Biso   1.000  H
  H41      1.0000 0.88680  0.26420  0.52650  Biso   1.000  H
  H42      1.0000 0.88100  0.32580  0.46470  Biso   1.000  H
  H43      1.0000 0.74210  0.37390  0.39820  Biso   1.000  H
  H44      1.0000 0.72160  0.31600  0.34320  Biso   1.000  H
  H45      1.0000 0.14250  0.26610  0.31850  Biso   1.000  H
  H46      1.0000 0.81430  0.46210  0.28940  Biso   1.000  H
  H47      1.0000 0.92430  0.11730  0.56560  Biso   1.000  H
  H48      1.0000 0.92670  0.98830  0.57010  Biso   1.000  H
  H49      1.0000 0.77200  0.96580  0.64560  Biso   1.000  H
  H50      1.0000 0.56190  0.29330  0.66020  Biso   1.000  H
  H51      1.0000 0.53940  0.35640  0.85890  Biso   1.000  H
  H52      1.0000 0.49960  0.45460  0.94440  Biso   1.000  H
  H53      1.0000 0.30630  0.54430  0.98170  Biso   1.000  H
  H54      1.0000 0.15160  0.53300  0.93250  Biso   1.000  H
  H55      1.0000 0.65470  0.13530  0.84220  Biso   1.000  H
  H56      1.0000 0.75590  0.81590  0.79200  Biso   1.000  H
  H57      1.0000 0.93710  0.71350  0.86050  Biso   1.000  H
  H58      1.0000 0.85820  0.75040  0.91760  Biso   1.000  H
  H59      1.0000 0.12310  0.69710  0.80950  Biso   1.000  H
  H60      1.0000 0.15670  0.80710  0.79740  Biso   1.000  H
  H61      1.0000 0.02260  0.82480  0.80120  Biso   1.000  H
  H62      1.0000 0.89190  0.74890  0.02150  Biso   1.000  H
  H63      1.0000 0.81160  0.86560  0.98780  Biso   1.000  H
  H64      1.0000 0.87450  0.87350  0.04390  Biso   1.000  H
  H65      1.0000 0.34830  0.76350  0.00180  Biso   1.000  H
  H66      1.0000 0.26420  0.88680  0.02650  Biso   1.000  H
  H67      1.0000 0.32580  0.88100  0.96470  Biso   1.000  H
  H68      1.0000 0.37390  0.74210  0.89820  Biso   1.000  H
  H69      1.0000 0.31600  0.72160  0.84320  Biso   1.000  H
  H70      1.0000 0.26610  0.14250  0.81850  Biso   1.000  H
  H71      1.0000 0.46210  0.81430  0.78940  Biso   1.000  H
  H72      1.0000 0.11730  0.92430  0.06560  Biso   1.000  H
  H73      1.0000 0.98830  0.92670  0.07010  Biso   1.000  H
  H74      1.0000 0.96580  0.77200  0.14560  Biso   1.000  H
  H75      1.0000 0.29330  0.56190  0.16020  Biso   1.000  H
  H76      1.0000 0.64360  0.46060  0.64110  Biso   1.000  H
  H77      1.0000 0.54540  0.50040  0.55560  Biso   1.000  H
  H78      1.0000 0.45570  0.69370  0.51830  Biso   1.000  H
  H79      1.0000 0.46700  0.84840  0.56750  Biso   1.000  H
  H80      1.0000 0.86470  0.34530  0.65780  Biso   1.000  H
  H81      1.0000 0.18410  0.24410  0.70800  Biso   1.000  H
  H82      1.0000 0.28650  0.06290  0.63950  Biso   1.000  H
  H83      1.0000 0.24960  0.14180  0.58240  Biso   1.000  H
  H84      1.0000 0.30290  0.87690  0.69050  Biso   1.000  H
  H85      1.0000 0.19290  0.84330  0.70260  Biso   1.000  H
  H86      1.0000 0.17520  0.97740  0.69880  Biso   1.000  H
  H87      1.0000 0.25110  0.10810  0.47850  Biso   1.000  H
  H88      1.0000 0.13440  0.18840  0.51220  Biso   1.000  H
  H89      1.0000 0.12650  0.12550  0.45610  Biso   1.000  H
  H90      1.0000 0.23650  0.65170  0.49820  Biso   1.000  H
  H91      1.0000 0.11320  0.73580  0.47350  Biso   1.000  H
  H92      1.0000 0.11900  0.67420  0.53530  Biso   1.000  H
  H93      1.0000 0.25790  0.62610  0.60180  Biso   1.000  H
  H94      1.0000 0.27840  0.68400  0.65680  Biso   1.000  H
  H95      1.0000 0.85750  0.73390  0.68150  Biso   1.000  H
  H96      1.0000 0.18570  0.53790  0.71060  Biso   1.000  H
  H97      1.0000 0.07570  0.88270  0.43440  Biso   1.000  H
  H98      1.0000 0.07330  0.01170  0.42990  Biso   1.000  H
  H99      1.0000 0.22800  0.03420  0.35440  Biso   1.000  H
  H100     1.0000 0.43810  0.70670  0.33980  Biso   1.000  H
  C1       1.0000 0.60050  0.67550  0.21440  Biso   1.000  C
  C2       1.0000 0.63210  0.61310  0.15760  Biso   1.000  C
  C3       1.0000 0.53870  0.60770  0.12670  Biso   1.000  C
  C4       1.0000 0.56260  0.54920  0.07550  Biso   1.000  C
  C5       1.0000 0.67840  0.49560  0.05290  Biso   1.000  C
  C6       1.0000 0.77090  0.50250  0.08260  Biso   1.000  C
  C7       1.0000 0.75000  0.56160  0.13480  Biso   1.000  C
  C8       1.0000 0.85270  0.56470  0.16660  Biso   1.000  C
  C9       1.0000 0.30420  0.94660  0.16030  Biso   1.000  C
  C10      1.0000 0.25130  0.11710  0.18840  Biso   1.000  C
  C11      1.0000 0.09970  0.22250  0.11270  Biso   1.000  C
  C12      1.0000 0.00270  0.19690  0.08560  Biso   1.000  C
  C13      1.0000 0.90410  0.20290  0.11980  Biso   1.000  C
  C14      1.0000 0.90000  0.22000  0.18360  Biso   1.000  C
  C15      1.0000 0.80770  0.19350  0.09340  Biso   1.000  C
  C16      1.0000 0.81460  0.16880  0.03480  Biso   1.000  C
  C17      1.0000 0.91760  0.15660  0.00120  Biso   1.000  C
  C18      1.0000 0.01030  0.17450  0.02700  Biso   1.000  C
  C19      1.0000 0.11790  0.17130  0.99010  Biso   1.000  C
  C20      1.0000 0.70950  0.15850  0.00800  Biso   1.000  C
  C21      1.0000 0.69130  0.22090  0.12800  Biso   1.000  C
  C22      1.0000 0.70330  0.94030  0.17990  Biso   1.000  C
  C23      1.0000 0.59650  0.11690  0.19580  Biso   1.000  C
  C24      1.0000 0.92900  0.12280  0.93910  Biso   1.000  C
  C25      1.0000 0.95190  0.26330  0.85950  Biso   1.000  C
  C26      1.0000 0.77510  0.37530  0.85230  Biso   1.000  C
  C27      1.0000 0.32450  0.39950  0.28560  Biso   1.000  C
  C28      1.0000 0.38690  0.36790  0.34240  Biso   1.000  C
  C29      1.0000 0.39230  0.46130  0.37330  Biso   1.000  C
  C30      1.0000 0.45080  0.43740  0.42450  Biso   1.000  C
  C31      1.0000 0.50440  0.32160  0.44710  Biso   1.000  C
  C32      1.0000 0.49750  0.22910  0.41740  Biso   1.000  C
  C33      1.0000 0.43840  0.25000  0.36520  Biso   1.000  C
  C34      1.0000 0.43530  0.14730  0.33340  Biso   1.000  C
  C35      1.0000 0.05340  0.69580  0.33970  Biso   1.000  C
  C36      1.0000 0.88290  0.74870  0.31160  Biso   1.000  C
  C37      1.0000 0.77750  0.90030  0.38730  Biso   1.000  C
  C38      1.0000 0.80310  0.99730  0.41440  Biso   1.000  C
  C39      1.0000 0.79710  0.09590  0.38020  Biso   1.000  C
  C40      1.0000 0.78000  0.10000  0.31640  Biso   1.000  C
  C41      1.0000 0.80650  0.19230  0.40660  Biso   1.000  C
  C42      1.0000 0.83120  0.18540  0.46520  Biso   1.000  C
  C43      1.0000 0.84340  0.08240  0.49880  Biso   1.000  C
  C44      1.0000 0.82550  0.98970  0.47300  Biso   1.000  C
  C45      1.0000 0.82870  0.88210  0.50990  Biso   1.000  C
  C46      1.0000 0.84150  0.29050  0.49200  Biso   1.000  C
  C47      1.0000 0.77910  0.30870  0.37200  Biso   1.000  C
  C48      1.0000 0.05970  0.29670  0.32010  Biso   1.000  C
  C49      1.0000 0.88310  0.40350  0.30420  Biso   1.000  C
  C50      1.0000 0.87720  0.07100  0.56090  Biso   1.000  C
  C51      1.0000 0.73670  0.04810  0.64050  Biso   1.000  C
  C52      1.0000 0.62470  0.22490  0.64770  Biso   1.000  C
  C53      1.0000 0.39950  0.32450  0.78560  Biso   1.000  C
  C54      1.0000 0.36790  0.38690  0.84240  Biso   1.000  C
  C55      1.0000 0.46130  0.39230  0.87330  Biso   1.000  C
  C56      1.0000 0.43740  0.45080  0.92450  Biso   1.000  C
  C57      1.0000 0.32160  0.50440  0.94710  Biso   1.000  C
  C58      1.0000 0.22910  0.49750  0.91740  Biso   1.000  C
  C59      1.0000 0.25000  0.43840  0.86520  Biso   1.000  C
  C60      1.0000 0.14730  0.43530  0.83340  Biso   1.000  C
  C61      1.0000 0.69580  0.05340  0.83970  Biso   1.000  C
  C62      1.0000 0.74870  0.88290  0.81160  Biso   1.000  C
  C63      1.0000 0.90030  0.77750  0.88730  Biso   1.000  C
  C64      1.0000 0.99730  0.80310  0.91440  Biso   1.000  C
  C65      1.0000 0.09590  0.79710  0.88020  Biso   1.000  C
  C66      1.0000 0.10000  0.78000  0.81640  Biso   1.000  C
  C67      1.0000 0.19230  0.80650  0.90660  Biso   1.000  C
  C68      1.0000 0.18540  0.83120  0.96520  Biso   1.000  C
  C69      1.0000 0.08240  0.84340  0.99880  Biso   1.000  C
  C70      1.0000 0.98970  0.82550  0.97300  Biso   1.000  C
  C71      1.0000 0.88210  0.82870  0.00990  Biso   1.000  C
  C72      1.0000 0.29050  0.84150  0.99200  Biso   1.000  C
  C73      1.0000 0.30870  0.77910  0.87200  Biso   1.000  C
  C74      1.0000 0.29670  0.05970  0.82010  Biso   1.000  C
  C75      1.0000 0.40350  0.88310  0.80420  Biso   1.000  C
  C76      1.0000 0.07100  0.87720  0.06090  Biso   1.000  C
  C77      1.0000 0.04810  0.73670  0.14050  Biso   1.000  C
  C78      1.0000 0.22490  0.62470  0.14770  Biso   1.000  C
  C79      1.0000 0.67550  0.60050  0.71440  Biso   1.000  C
  C80      1.0000 0.61310  0.63210  0.65760  Biso   1.000  C
  C81      1.0000 0.60770  0.53870  0.62670  Biso   1.000  C
  C82      1.0000 0.54920  0.56260  0.57550  Biso   1.000  C
  C83      1.0000 0.49560  0.67840  0.55290  Biso   1.000  C
  C84      1.0000 0.50250  0.77090  0.58260  Biso   1.000  C
  C85      1.0000 0.56160  0.75000  0.63480  Biso   1.000  C
  C86      1.0000 0.56470  0.85270  0.66660  Biso   1.000  C
  C87      1.0000 0.94660  0.30420  0.66030  Biso   1.000  C
  C88      1.0000 0.11710  0.25130  0.68840  Biso   1.000  C
  C89      1.0000 0.22250  0.09970  0.61270  Biso   1.000  C
  C90      1.0000 0.19690  0.00270  0.58560  Biso   1.000  C
  C91      1.0000 0.20290  0.90410  0.61980  Biso   1.000  C
  C92      1.0000 0.22000  0.90000  0.68360  Biso   1.000  C
  C93      1.0000 0.19350  0.80770  0.59340  Biso   1.000  C
  C94      1.0000 0.16880  0.81460  0.53480  Biso   1.000  C
  C95      1.0000 0.15660  0.91760  0.50120  Biso   1.000  C
  C96      1.0000 0.17450  0.01030  0.52700  Biso   1.000  C
  C97      1.0000 0.17130  0.11790  0.49010  Biso   1.000  C
  C98      1.0000 0.15850  0.70950  0.50800  Biso   1.000  C
  C99      1.0000 0.22090  0.69130  0.62800  Biso   1.000  C
  C100     1.0000 0.94030  0.70330  0.67990  Biso   1.000  C
  C101     1.0000 0.11690  0.59650  0.69580  Biso   1.000  C
  C102     1.0000 0.12280  0.92900  0.43910  Biso   1.000  C
  C103     1.0000 0.26330  0.95190  0.35950  Biso   1.000  C
  C104     1.0000 0.37530  0.77510  0.35230  Biso   1.000  C
  N1       1.0000 0.32710  0.00930  0.20120  Biso   1.000  N
  N2       1.0000 0.22080  0.00860  0.12480  Biso   1.000  N
  N3       1.0000 0.18600  0.11960  0.14400  Biso   1.000  N
  N4       1.0000 0.60610  0.00850  0.21110  Biso   1.000  N
  N5       1.0000 0.75110  0.00250  0.14690  Biso   1.000  N
  N6       1.0000 0.67800  0.11660  0.15790  Biso   1.000  N
  N7       1.0000 0.88950  0.22430  0.89800  Biso   1.000  N
  N8       1.0000 0.77230  0.29650  0.89400  Biso   1.000  N
  N9       1.0000 0.88350  0.35690  0.83000  Biso   1.000  N
  N10      1.0000 0.99070  0.67290  0.29880  Biso   1.000  N
  N11      1.0000 0.99140  0.77920  0.37520  Biso   1.000  N
  N12      1.0000 0.88040  0.81400  0.35600  Biso   1.000  N
  N13      1.0000 0.99150  0.39390  0.28890  Biso   1.000  N
  N14      1.0000 0.99750  0.24890  0.35310  Biso   1.000  N
  N15      1.0000 0.88340  0.32200  0.34210  Biso   1.000  N
  N16      1.0000 0.77570  0.11050  0.60200  Biso   1.000  N
  N17      1.0000 0.70350  0.22770  0.60600  Biso   1.000  N
  N18      1.0000 0.64310  0.11650  0.67000  Biso   1.000  N
  N19      1.0000 0.67290  0.99070  0.79880  Biso   1.000  N
  N20      1.0000 0.77920  0.99140  0.87520  Biso   1.000  N
  N21      1.0000 0.81400  0.88040  0.85600  Biso   1.000  N
  N22      1.0000 0.39390  0.99150  0.78890  Biso   1.000  N
  N23      1.0000 0.24890  0.99750  0.85310  Biso   1.000  N
  N24      1.0000 0.32200  0.88340  0.84210  Biso   1.000  N
  N25      1.0000 0.11050  0.77570  0.10200  Biso   1.000  N
  N26      1.0000 0.22770  0.70350  0.10600  Biso   1.000  N
  N27      1.0000 0.11650  0.64310  0.17000  Biso   1.000  N
  N28      1.0000 0.00930  0.32710  0.70120  Biso   1.000  N
  N29      1.0000 0.00860  0.22080  0.62480  Biso   1.000  N
  N30      1.0000 0.11960  0.18600  0.64400  Biso   1.000  N
  N31      1.0000 0.00850  0.60610  0.71110  Biso   1.000  N
  N32      1.0000 0.00250  0.75110  0.64690  Biso   1.000  N
  N33      1.0000 0.11660  0.67800  0.65790  Biso   1.000  N
  N34      1.0000 0.22430  0.88950  0.39800  Biso   1.000  N
  N35      1.0000 0.29650  0.77230  0.39400  Biso   1.000  N
  N36      1.0000 0.35690  0.88350  0.33000  Biso   1.000  N
  O1       1.0000 0.55390  0.78690  0.20960  Biso   1.000  O
  O2       1.0000 0.61640  0.61300  0.26080  Biso   1.000  O
  O3       1.0000 0.83470  0.63710  0.20510  Biso   1.000  O
  O4       1.0000 0.95590  0.49010  0.15370  Biso   1.000  O
  O5       1.0000 0.21310  0.44610  0.29040  Biso   1.000  O
  O6       1.0000 0.38700  0.38360  0.23920  Biso   1.000  O
  O7       1.0000 0.36290  0.16530  0.29490  Biso   1.000  O
  O8       1.0000 0.50990  0.04410  0.34630  Biso   1.000  O
  O9       1.0000 0.44610  0.21310  0.79040  Biso   1.000  O
  O10      1.0000 0.38360  0.38700  0.73920  Biso   1.000  O
  O11      1.0000 0.16530  0.36290  0.79490  Biso   1.000  O
  O12      1.0000 0.04410  0.50990  0.84630  Biso   1.000  O
  O13      1.0000 0.78690  0.55390  0.70960  Biso   1.000  O
  O14      1.0000 0.61300  0.61640  0.76080  Biso   1.000  O
  O15      1.0000 0.63710  0.83470  0.70510  Biso   1.000  O
  O16      1.0000 0.49010  0.95590  0.65370  Biso   1.000  O
