data_image0
_cell_length_a       14.872
_cell_length_b       14.872
_cell_length_c       15.019
_cell_angle_alpha    90
_cell_angle_beta     90
_cell_angle_gamma    120

_symmetry_space_group_name_H-M    P 1
_symmetry_int_tables_number       1

loop_
  _symmetry_equiv_pos_as_xyz
  'x, y, z'

loop_
  _atom_site_label
  _atom_site_occupancy
  _atom_site_fract_x
  _atom_site_fract_y
  _atom_site_fract_z
  _atom_site_thermal_displace_type
  _atom_site_B_iso_or_equiv
  _atom_site_type_symbol
  Eu1      1.0000 0.33333  0.66666  0.25000  Biso   1.000  Eu
  Eu2      1.0000 0.66667  0.33334  0.25000  Biso   1.000  Eu
  Eu3      1.0000 0.66667  0.33334  0.75000  Biso   1.000  Eu
  Eu4      1.0000 0.33333  0.66666  0.75000  Biso   1.000  Eu
  Cu1      1.0000 0.50000  0.50000  0.00000  Biso   1.000  Cu
  Cu2      1.0000 0.00000  0.50000  0.00000  Biso   1.000  Cu
  Cu3      1.0000 0.50000  0.00000  0.00000  Biso   1.000  Cu
  Cu4      1.0000 0.00000  0.50000  0.50000  Biso   1.000  Cu
  Cu5      1.0000 0.50000  0.50000  0.50000  Biso   1.000  Cu
  Cu6      1.0000 0.50000  0.00000  0.50000  Biso   1.000  Cu
  H1       1.0000 0.79220  0.15810  0.83890  Biso   1.000  H
  H2       1.0000 0.71440  0.08840  0.76420  Biso   1.000  H
  H3       1.0000 0.36590  0.20780  0.83890  Biso   1.000  H
  H4       1.0000 0.37400  0.28560  0.76420  Biso   1.000  H
  H5       1.0000 0.84190  0.63410  0.83890  Biso   1.000  H
  H6       1.0000 0.91160  0.62600  0.76420  Biso   1.000  H
  H7       1.0000 0.20780  0.84190  0.83890  Biso   1.000  H
  H8       1.0000 0.28560  0.91160  0.76420  Biso   1.000  H
  H9       1.0000 0.63410  0.79220  0.83890  Biso   1.000  H
  H10      1.0000 0.62600  0.71440  0.76420  Biso   1.000  H
  H11      1.0000 0.15810  0.36590  0.83890  Biso   1.000  H
  H12      1.0000 0.08840  0.37400  0.76420  Biso   1.000  H
  H13      1.0000 0.63410  0.84190  0.66110  Biso   1.000  H
  H14      1.0000 0.62600  0.91160  0.73580  Biso   1.000  H
  H15      1.0000 0.15810  0.79220  0.66110  Biso   1.000  H
  H16      1.0000 0.08840  0.71440  0.73580  Biso   1.000  H
  H17      1.0000 0.20780  0.36590  0.66110  Biso   1.000  H
  H18      1.0000 0.28560  0.37400  0.73580  Biso   1.000  H
  H19      1.0000 0.36590  0.15810  0.66110  Biso   1.000  H
  H20      1.0000 0.37400  0.08840  0.73580  Biso   1.000  H
  H21      1.0000 0.84190  0.20780  0.66110  Biso   1.000  H
  H22      1.0000 0.91160  0.28560  0.73580  Biso   1.000  H
  H23      1.0000 0.79220  0.63410  0.66110  Biso   1.000  H
  H24      1.0000 0.71440  0.62600  0.73580  Biso   1.000  H
  H25      1.0000 0.20780  0.84190  0.16110  Biso   1.000  H
  H26      1.0000 0.28560  0.91160  0.23580  Biso   1.000  H
  H27      1.0000 0.63410  0.79220  0.16110  Biso   1.000  H
  H28      1.0000 0.62600  0.71440  0.23580  Biso   1.000  H
  H29      1.0000 0.15810  0.36590  0.16110  Biso   1.000  H
  H30      1.0000 0.08840  0.37400  0.23580  Biso   1.000  H
  H31      1.0000 0.79220  0.15810  0.16110  Biso   1.000  H
  H32      1.0000 0.71440  0.08840  0.23580  Biso   1.000  H
  H33      1.0000 0.36590  0.20780  0.16110  Biso   1.000  H
  H34      1.0000 0.37400  0.28560  0.23580  Biso   1.000  H
  H35      1.0000 0.84190  0.63410  0.16110  Biso   1.000  H
  H36      1.0000 0.91160  0.62600  0.23580  Biso   1.000  H
  H37      1.0000 0.36590  0.15810  0.33890  Biso   1.000  H
  H38      1.0000 0.37400  0.08840  0.26420  Biso   1.000  H
  H39      1.0000 0.84190  0.20780  0.33890  Biso   1.000  H
  H40      1.0000 0.91160  0.28560  0.26420  Biso   1.000  H
  H41      1.0000 0.79220  0.63410  0.33890  Biso   1.000  H
  H42      1.0000 0.71440  0.62600  0.26420  Biso   1.000  H
  H43      1.0000 0.63410  0.84190  0.33890  Biso   1.000  H
  H44      1.0000 0.62600  0.91160  0.26420  Biso   1.000  H
  H45      1.0000 0.15810  0.79220  0.33890  Biso   1.000  H
  H46      1.0000 0.08840  0.71440  0.26420  Biso   1.000  H
  H47      1.0000 0.20780  0.36590  0.33890  Biso   1.000  H
  H48      1.0000 0.28560  0.37400  0.26420  Biso   1.000  H
  C1       1.0000 0.12990  0.64440  0.36030  Biso   1.000  C
  C2       1.0000 0.85180  0.26570  0.69780  Biso   1.000  C
  C3       1.0000 0.51450  0.87010  0.36030  Biso   1.000  C
  C4       1.0000 0.41390  0.14820  0.69780  Biso   1.000  C
  C5       1.0000 0.35560  0.48550  0.36030  Biso   1.000  C
  C6       1.0000 0.73430  0.58610  0.69780  Biso   1.000  C
  C7       1.0000 0.87010  0.35560  0.36030  Biso   1.000  C
  C8       1.0000 0.14820  0.73430  0.69780  Biso   1.000  C
  C9       1.0000 0.48550  0.12990  0.36030  Biso   1.000  C
  C10      1.0000 0.58610  0.85180  0.69780  Biso   1.000  C
  C11      1.0000 0.64440  0.51450  0.36030  Biso   1.000  C
  C12      1.0000 0.26570  0.41390  0.69780  Biso   1.000  C
  C13      1.0000 0.48550  0.35560  0.13970  Biso   1.000  C
  C14      1.0000 0.58610  0.73430  0.80220  Biso   1.000  C
  C15      1.0000 0.64440  0.12990  0.13970  Biso   1.000  C
  C16      1.0000 0.26570  0.85180  0.80220  Biso   1.000  C
  C17      1.0000 0.87010  0.51450  0.13970  Biso   1.000  C
  C18      1.0000 0.14820  0.41390  0.80220  Biso   1.000  C
  C19      1.0000 0.51450  0.64440  0.13970  Biso   1.000  C
  C20      1.0000 0.41390  0.26570  0.80220  Biso   1.000  C
  C21      1.0000 0.35560  0.87010  0.13970  Biso   1.000  C
  C22      1.0000 0.73430  0.14820  0.80220  Biso   1.000  C
  C23      1.0000 0.12990  0.48550  0.13970  Biso   1.000  C
  C24      1.0000 0.85180  0.58610  0.80220  Biso   1.000  C
  C25      1.0000 0.87010  0.35560  0.63970  Biso   1.000  C
  C26      1.0000 0.14820  0.73430  0.30220  Biso   1.000  C
  C27      1.0000 0.48550  0.12990  0.63970  Biso   1.000  C
  C28      1.0000 0.58610  0.85180  0.30220  Biso   1.000  C
  C29      1.0000 0.64440  0.51450  0.63970  Biso   1.000  C
  C30      1.0000 0.26570  0.41390  0.30220  Biso   1.000  C
  C31      1.0000 0.12990  0.64440  0.63970  Biso   1.000  C
  C32      1.0000 0.85180  0.26570  0.30220  Biso   1.000  C
  C33      1.0000 0.51450  0.87010  0.63970  Biso   1.000  C
  C34      1.0000 0.41390  0.14820  0.30220  Biso   1.000  C
  C35      1.0000 0.35560  0.48550  0.63970  Biso   1.000  C
  C36      1.0000 0.73430  0.58610  0.30220  Biso   1.000  C
  C37      1.0000 0.51450  0.64440  0.86030  Biso   1.000  C
  C38      1.0000 0.41390  0.26570  0.19780  Biso   1.000  C
  C39      1.0000 0.35560  0.87010  0.86030  Biso   1.000  C
  C40      1.0000 0.73430  0.14820  0.19780  Biso   1.000  C
  C41      1.0000 0.12990  0.48550  0.86030  Biso   1.000  C
  C42      1.0000 0.85180  0.58610  0.19780  Biso   1.000  C
  C43      1.0000 0.48550  0.35560  0.86030  Biso   1.000  C
  C44      1.0000 0.58610  0.73430  0.19780  Biso   1.000  C
  C45      1.0000 0.64440  0.12990  0.86030  Biso   1.000  C
  C46      1.0000 0.26570  0.85180  0.19780  Biso   1.000  C
  C47      1.0000 0.87010  0.51450  0.86030  Biso   1.000  C
  C48      1.0000 0.14820  0.41390  0.19780  Biso   1.000  C
  O1       1.0000 0.19400  0.61360  0.35720  Biso   1.000  O
  O2       1.0000 0.05090  0.60800  0.40910  Biso   1.000  O
  O3       1.0000 0.41960  0.80600  0.35720  Biso   1.000  O
  O4       1.0000 0.55710  0.94910  0.40910  Biso   1.000  O
  O5       1.0000 0.38640  0.58040  0.35720  Biso   1.000  O
  O6       1.0000 0.39200  0.44290  0.40910  Biso   1.000  O
  O7       1.0000 0.80600  0.38640  0.35720  Biso   1.000  O
  O8       1.0000 0.94910  0.39200  0.40910  Biso   1.000  O
  O9       1.0000 0.58040  0.19400  0.35720  Biso   1.000  O
  O10      1.0000 0.44290  0.05090  0.40910  Biso   1.000  O
  O11      1.0000 0.61360  0.41960  0.35720  Biso   1.000  O
  O12      1.0000 0.60800  0.55710  0.40910  Biso   1.000  O
  O13      1.0000 0.58040  0.38640  0.14280  Biso   1.000  O
  O14      1.0000 0.44290  0.39200  0.09090  Biso   1.000  O
  O15      1.0000 0.61360  0.19400  0.14280  Biso   1.000  O
  O16      1.0000 0.60800  0.05090  0.09090  Biso   1.000  O
  O17      1.0000 0.80600  0.41960  0.14280  Biso   1.000  O
  O18      1.0000 0.94910  0.55710  0.09090  Biso   1.000  O
  O19      1.0000 0.41960  0.61360  0.14280  Biso   1.000  O
  O20      1.0000 0.55710  0.60800  0.09090  Biso   1.000  O
  O21      1.0000 0.38640  0.80600  0.14280  Biso   1.000  O
  O22      1.0000 0.39200  0.94910  0.09090  Biso   1.000  O
  O23      1.0000 0.19400  0.58040  0.14280  Biso   1.000  O
  O24      1.0000 0.05090  0.44290  0.09090  Biso   1.000  O
  O25      1.0000 0.80600  0.38640  0.64280  Biso   1.000  O
  O26      1.0000 0.94910  0.39200  0.59090  Biso   1.000  O
  O27      1.0000 0.58040  0.19400  0.64280  Biso   1.000  O
  O28      1.0000 0.44290  0.05090  0.59090  Biso   1.000  O
  O29      1.0000 0.61360  0.41960  0.64280  Biso   1.000  O
  O30      1.0000 0.60800  0.55710  0.59090  Biso   1.000  O
  O31      1.0000 0.19400  0.61360  0.64280  Biso   1.000  O
  O32      1.0000 0.05090  0.60800  0.59090  Biso   1.000  O
  O33      1.0000 0.41960  0.80600  0.64280  Biso   1.000  O
  O34      1.0000 0.55710  0.94910  0.59090  Biso   1.000  O
  O35      1.0000 0.38640  0.58040  0.64280  Biso   1.000  O
  O36      1.0000 0.39200  0.44290  0.59090  Biso   1.000  O
  O37      1.0000 0.41960  0.61360  0.85720  Biso   1.000  O
  O38      1.0000 0.55710  0.60800  0.90910  Biso   1.000  O
  O39      1.0000 0.38640  0.80600  0.85720  Biso   1.000  O
  O40      1.0000 0.39200  0.94910  0.90910  Biso   1.000  O
  O41      1.0000 0.19400  0.58040  0.85720  Biso   1.000  O
  O42      1.0000 0.05090  0.44290  0.90910  Biso   1.000  O
  O43      1.0000 0.58040  0.38640  0.85720  Biso   1.000  O
  O44      1.0000 0.44290  0.39200  0.90910  Biso   1.000  O
  O45      1.0000 0.61360  0.19400  0.85720  Biso   1.000  O
  O46      1.0000 0.60800  0.05090  0.90910  Biso   1.000  O
  O47      1.0000 0.80600  0.41960  0.85720  Biso   1.000  O
  O48      1.0000 0.94910  0.55710  0.90910  Biso   1.000  O
  O49      1.0000 0.76340  0.23660  0.75000  Biso   1.000  O
  O50      1.0000 0.47320  0.23660  0.75000  Biso   1.000  O
  O51      1.0000 0.76340  0.52680  0.75000  Biso   1.000  O
  O52      1.0000 0.23660  0.76340  0.75000  Biso   1.000  O
  O53      1.0000 0.52680  0.76340  0.75000  Biso   1.000  O
  O54      1.0000 0.23660  0.47320  0.75000  Biso   1.000  O
  O55      1.0000 0.23660  0.76340  0.25000  Biso   1.000  O
  O56      1.0000 0.52680  0.76340  0.25000  Biso   1.000  O
  O57      1.0000 0.23660  0.47320  0.25000  Biso   1.000  O
  O58      1.0000 0.76340  0.23660  0.25000  Biso   1.000  O
  O59      1.0000 0.47320  0.23660  0.25000  Biso   1.000  O
  O60      1.0000 0.76340  0.52680  0.25000  Biso   1.000  O
