data_image0
_cell_length_a       14.595
_cell_length_b       14.595
_cell_length_c       15.267
_cell_angle_alpha    90
_cell_angle_beta     90
_cell_angle_gamma    120

_symmetry_space_group_name_H-M    P 1
_symmetry_int_tables_number       1

loop_
  _symmetry_equiv_pos_as_xyz
  'x, y, z'

loop_
  _atom_site_label
  _atom_site_occupancy
  _atom_site_fract_x
  _atom_site_fract_y
  _atom_site_fract_z
  _atom_site_thermal_displace_type
  _atom_site_B_iso_or_equiv
  _atom_site_type_symbol
  Y1       1.0000 0.33333  0.66666  0.25000  Biso   1.000  Y
  Y2       1.0000 0.66667  0.33334  0.25000  Biso   1.000  Y
  Y3       1.0000 0.66667  0.33334  0.75000  Biso   1.000  Y
  Y4       1.0000 0.33333  0.66666  0.75000  Biso   1.000  Y
  Cu1      1.0000 0.50000  0.50000  0.00000  Biso   1.000  Cu
  Cu2      1.0000 0.00000  0.50000  0.00000  Biso   1.000  Cu
  Cu3      1.0000 0.50000  0.00000  0.00000  Biso   1.000  Cu
  Cu4      1.0000 0.00000  0.50000  0.50000  Biso   1.000  Cu
  Cu5      1.0000 0.50000  0.50000  0.50000  Biso   1.000  Cu
  Cu6      1.0000 0.50000  0.00000  0.50000  Biso   1.000  Cu
  H1       1.0000 0.79650  0.16230  0.83960  Biso   1.000  H
  H2       1.0000 0.71680  0.08730  0.76800  Biso   1.000  H
  H3       1.0000 0.36580  0.20350  0.83960  Biso   1.000  H
  H4       1.0000 0.37050  0.28320  0.76800  Biso   1.000  H
  H5       1.0000 0.83770  0.63420  0.83960  Biso   1.000  H
  H6       1.0000 0.91270  0.62950  0.76800  Biso   1.000  H
  H7       1.0000 0.20350  0.83770  0.83960  Biso   1.000  H
  H8       1.0000 0.28320  0.91270  0.76800  Biso   1.000  H
  H9       1.0000 0.63420  0.79650  0.83960  Biso   1.000  H
  H10      1.0000 0.62950  0.71680  0.76800  Biso   1.000  H
  H11      1.0000 0.16230  0.36580  0.83960  Biso   1.000  H
  H12      1.0000 0.08730  0.37050  0.76800  Biso   1.000  H
  H13      1.0000 0.63420  0.83770  0.66040  Biso   1.000  H
  H14      1.0000 0.62950  0.91270  0.73200  Biso   1.000  H
  H15      1.0000 0.16230  0.79650  0.66040  Biso   1.000  H
  H16      1.0000 0.08730  0.71680  0.73200  Biso   1.000  H
  H17      1.0000 0.20350  0.36580  0.66040  Biso   1.000  H
  H18      1.0000 0.28320  0.37050  0.73200  Biso   1.000  H
  H19      1.0000 0.36580  0.16230  0.66040  Biso   1.000  H
  H20      1.0000 0.37050  0.08730  0.73200  Biso   1.000  H
  H21      1.0000 0.83770  0.20350  0.66040  Biso   1.000  H
  H22      1.0000 0.91270  0.28320  0.73200  Biso   1.000  H
  H23      1.0000 0.79650  0.63420  0.66040  Biso   1.000  H
  H24      1.0000 0.71680  0.62950  0.73200  Biso   1.000  H
  H25      1.0000 0.20350  0.83770  0.16040  Biso   1.000  H
  H26      1.0000 0.28320  0.91270  0.23200  Biso   1.000  H
  H27      1.0000 0.63420  0.79650  0.16040  Biso   1.000  H
  H28      1.0000 0.62950  0.71680  0.23200  Biso   1.000  H
  H29      1.0000 0.16230  0.36580  0.16040  Biso   1.000  H
  H30      1.0000 0.08730  0.37050  0.23200  Biso   1.000  H
  H31      1.0000 0.79650  0.16230  0.16040  Biso   1.000  H
  H32      1.0000 0.71680  0.08730  0.23200  Biso   1.000  H
  H33      1.0000 0.36580  0.20350  0.16040  Biso   1.000  H
  H34      1.0000 0.37050  0.28320  0.23200  Biso   1.000  H
  H35      1.0000 0.83770  0.63420  0.16040  Biso   1.000  H
  H36      1.0000 0.91270  0.62950  0.23200  Biso   1.000  H
  H37      1.0000 0.36580  0.16230  0.33960  Biso   1.000  H
  H38      1.0000 0.37050  0.08730  0.26800  Biso   1.000  H
  H39      1.0000 0.83770  0.20350  0.33960  Biso   1.000  H
  H40      1.0000 0.91270  0.28320  0.26800  Biso   1.000  H
  H41      1.0000 0.79650  0.63420  0.33960  Biso   1.000  H
  H42      1.0000 0.71680  0.62950  0.26800  Biso   1.000  H
  H43      1.0000 0.63420  0.83770  0.33960  Biso   1.000  H
  H44      1.0000 0.62950  0.91270  0.26800  Biso   1.000  H
  H45      1.0000 0.16230  0.79650  0.33960  Biso   1.000  H
  H46      1.0000 0.08730  0.71680  0.26800  Biso   1.000  H
  H47      1.0000 0.20350  0.36580  0.33960  Biso   1.000  H
  H48      1.0000 0.28320  0.37050  0.26800  Biso   1.000  H
  C1       1.0000 0.13110  0.64480  0.36110  Biso   1.000  C
  C2       1.0000 0.85050  0.26350  0.69640  Biso   1.000  C
  C3       1.0000 0.51370  0.86890  0.36110  Biso   1.000  C
  C4       1.0000 0.41300  0.14950  0.69640  Biso   1.000  C
  C5       1.0000 0.35520  0.48630  0.36110  Biso   1.000  C
  C6       1.0000 0.73650  0.58700  0.69640  Biso   1.000  C
  C7       1.0000 0.86890  0.35520  0.36110  Biso   1.000  C
  C8       1.0000 0.14950  0.73650  0.69640  Biso   1.000  C
  C9       1.0000 0.48630  0.13110  0.36110  Biso   1.000  C
  C10      1.0000 0.58700  0.85050  0.69640  Biso   1.000  C
  C11      1.0000 0.64480  0.51370  0.36110  Biso   1.000  C
  C12      1.0000 0.26350  0.41300  0.69640  Biso   1.000  C
  C13      1.0000 0.48630  0.35520  0.13890  Biso   1.000  C
  C14      1.0000 0.58700  0.73650  0.80360  Biso   1.000  C
  C15      1.0000 0.64480  0.13110  0.13890  Biso   1.000  C
  C16      1.0000 0.26350  0.85050  0.80360  Biso   1.000  C
  C17      1.0000 0.86890  0.51370  0.13890  Biso   1.000  C
  C18      1.0000 0.14950  0.41300  0.80360  Biso   1.000  C
  C19      1.0000 0.51370  0.64480  0.13890  Biso   1.000  C
  C20      1.0000 0.41300  0.26350  0.80360  Biso   1.000  C
  C21      1.0000 0.35520  0.86890  0.13890  Biso   1.000  C
  C22      1.0000 0.73650  0.14950  0.80360  Biso   1.000  C
  C23      1.0000 0.13110  0.48630  0.13890  Biso   1.000  C
  C24      1.0000 0.85050  0.58700  0.80360  Biso   1.000  C
  C25      1.0000 0.86890  0.35520  0.63890  Biso   1.000  C
  C26      1.0000 0.14950  0.73650  0.30360  Biso   1.000  C
  C27      1.0000 0.48630  0.13110  0.63890  Biso   1.000  C
  C28      1.0000 0.58700  0.85050  0.30360  Biso   1.000  C
  C29      1.0000 0.64480  0.51370  0.63890  Biso   1.000  C
  C30      1.0000 0.26350  0.41300  0.30360  Biso   1.000  C
  C31      1.0000 0.13110  0.64480  0.63890  Biso   1.000  C
  C32      1.0000 0.85050  0.26350  0.30360  Biso   1.000  C
  C33      1.0000 0.51370  0.86890  0.63890  Biso   1.000  C
  C34      1.0000 0.41300  0.14950  0.30360  Biso   1.000  C
  C35      1.0000 0.35520  0.48630  0.63890  Biso   1.000  C
  C36      1.0000 0.73650  0.58700  0.30360  Biso   1.000  C
  C37      1.0000 0.51370  0.64480  0.86110  Biso   1.000  C
  C38      1.0000 0.41300  0.26350  0.19640  Biso   1.000  C
  C39      1.0000 0.35520  0.86890  0.86110  Biso   1.000  C
  C40      1.0000 0.73650  0.14950  0.19640  Biso   1.000  C
  C41      1.0000 0.13110  0.48630  0.86110  Biso   1.000  C
  C42      1.0000 0.85050  0.58700  0.19640  Biso   1.000  C
  C43      1.0000 0.48630  0.35520  0.86110  Biso   1.000  C
  C44      1.0000 0.58700  0.73650  0.19640  Biso   1.000  C
  C45      1.0000 0.64480  0.13110  0.86110  Biso   1.000  C
  C46      1.0000 0.26350  0.85050  0.19640  Biso   1.000  C
  C47      1.0000 0.86890  0.51370  0.86110  Biso   1.000  C
  C48      1.0000 0.14950  0.41300  0.19640  Biso   1.000  C
  O1       1.0000 0.19600  0.61230  0.35495  Biso   1.000  O
  O2       1.0000 0.05360  0.61050  0.41050  Biso   1.000  O
  O3       1.0000 0.41630  0.80400  0.35495  Biso   1.000  O
  O4       1.0000 0.55690  0.94640  0.41050  Biso   1.000  O
  O5       1.0000 0.38770  0.58370  0.35495  Biso   1.000  O
  O6       1.0000 0.38950  0.44310  0.41050  Biso   1.000  O
  O7       1.0000 0.80400  0.38770  0.35495  Biso   1.000  O
  O8       1.0000 0.94640  0.38950  0.41050  Biso   1.000  O
  O9       1.0000 0.58370  0.19600  0.35495  Biso   1.000  O
  O10      1.0000 0.44310  0.05360  0.41050  Biso   1.000  O
  O11      1.0000 0.61230  0.41630  0.35495  Biso   1.000  O
  O12      1.0000 0.61050  0.55690  0.41050  Biso   1.000  O
  O13      1.0000 0.58370  0.38770  0.14505  Biso   1.000  O
  O14      1.0000 0.44310  0.38950  0.08950  Biso   1.000  O
  O15      1.0000 0.61230  0.19600  0.14505  Biso   1.000  O
  O16      1.0000 0.61050  0.05360  0.08950  Biso   1.000  O
  O17      1.0000 0.80400  0.41630  0.14505  Biso   1.000  O
  O18      1.0000 0.94640  0.55690  0.08950  Biso   1.000  O
  O19      1.0000 0.41630  0.61230  0.14505  Biso   1.000  O
  O20      1.0000 0.55690  0.61050  0.08950  Biso   1.000  O
  O21      1.0000 0.38770  0.80400  0.14505  Biso   1.000  O
  O22      1.0000 0.38950  0.94640  0.08950  Biso   1.000  O
  O23      1.0000 0.19600  0.58370  0.14505  Biso   1.000  O
  O24      1.0000 0.05360  0.44310  0.08950  Biso   1.000  O
  O25      1.0000 0.80400  0.38770  0.64505  Biso   1.000  O
  O26      1.0000 0.94640  0.38950  0.58950  Biso   1.000  O
  O27      1.0000 0.58370  0.19600  0.64505  Biso   1.000  O
  O28      1.0000 0.44310  0.05360  0.58950  Biso   1.000  O
  O29      1.0000 0.61230  0.41630  0.64505  Biso   1.000  O
  O30      1.0000 0.61050  0.55690  0.58950  Biso   1.000  O
  O31      1.0000 0.19600  0.61230  0.64505  Biso   1.000  O
  O32      1.0000 0.05360  0.61050  0.58950  Biso   1.000  O
  O33      1.0000 0.41630  0.80400  0.64505  Biso   1.000  O
  O34      1.0000 0.55690  0.94640  0.58950  Biso   1.000  O
  O35      1.0000 0.38770  0.58370  0.64505  Biso   1.000  O
  O36      1.0000 0.38950  0.44310  0.58950  Biso   1.000  O
  O37      1.0000 0.41630  0.61230  0.85495  Biso   1.000  O
  O38      1.0000 0.55690  0.61050  0.91050  Biso   1.000  O
  O39      1.0000 0.38770  0.80400  0.85495  Biso   1.000  O
  O40      1.0000 0.38950  0.94640  0.91050  Biso   1.000  O
  O41      1.0000 0.19600  0.58370  0.85495  Biso   1.000  O
  O42      1.0000 0.05360  0.44310  0.91050  Biso   1.000  O
  O43      1.0000 0.58370  0.38770  0.85495  Biso   1.000  O
  O44      1.0000 0.44310  0.38950  0.91050  Biso   1.000  O
  O45      1.0000 0.61230  0.19600  0.85495  Biso   1.000  O
  O46      1.0000 0.61050  0.05360  0.91050  Biso   1.000  O
  O47      1.0000 0.80400  0.41630  0.85495  Biso   1.000  O
  O48      1.0000 0.94640  0.55690  0.91050  Biso   1.000  O
  O49      1.0000 0.76380  0.23620  0.75000  Biso   1.000  O
  O50      1.0000 0.47240  0.23620  0.75000  Biso   1.000  O
  O51      1.0000 0.76380  0.52760  0.75000  Biso   1.000  O
  O52      1.0000 0.23620  0.76380  0.75000  Biso   1.000  O
  O53      1.0000 0.52760  0.76380  0.75000  Biso   1.000  O
  O54      1.0000 0.23620  0.47240  0.75000  Biso   1.000  O
  O55      1.0000 0.23620  0.76380  0.25000  Biso   1.000  O
  O56      1.0000 0.52760  0.76380  0.25000  Biso   1.000  O
  O57      1.0000 0.23620  0.47240  0.25000  Biso   1.000  O
  O58      1.0000 0.76380  0.23620  0.25000  Biso   1.000  O
  O59      1.0000 0.47240  0.23620  0.25000  Biso   1.000  O
  O60      1.0000 0.76380  0.52760  0.25000  Biso   1.000  O
