data_image0
_cell_length_a       14.717
_cell_length_b       14.717
_cell_length_c       15.169
_cell_angle_alpha    90
_cell_angle_beta     90
_cell_angle_gamma    120

_symmetry_space_group_name_H-M    P 1
_symmetry_int_tables_number       1

loop_
  _symmetry_equiv_pos_as_xyz
  'x, y, z'

loop_
  _atom_site_label
  _atom_site_occupancy
  _atom_site_fract_x
  _atom_site_fract_y
  _atom_site_fract_z
  _atom_site_thermal_displace_type
  _atom_site_B_iso_or_equiv
  _atom_site_type_symbol
  Gd1      1.0000 0.33333  0.66666  0.25000  Biso   1.000  Gd
  Gd2      1.0000 0.66667  0.33334  0.25000  Biso   1.000  Gd
  Gd3      1.0000 0.66667  0.33334  0.75000  Biso   1.000  Gd
  Gd4      1.0000 0.33333  0.66666  0.75000  Biso   1.000  Gd
  Cu1      1.0000 0.50000  0.50000  0.00000  Biso   1.000  Cu
  Cu2      1.0000 0.00000  0.50000  0.00000  Biso   1.000  Cu
  Cu3      1.0000 0.50000  0.00000  0.00000  Biso   1.000  Cu
  Cu4      1.0000 0.00000  0.50000  0.50000  Biso   1.000  Cu
  Cu5      1.0000 0.50000  0.50000  0.50000  Biso   1.000  Cu
  Cu6      1.0000 0.50000  0.00000  0.50000  Biso   1.000  Cu
  H1       1.0000 0.79430  0.15880  0.83960  Biso   1.000  H
  H2       1.0000 0.71520  0.08640  0.76670  Biso   1.000  H
  H3       1.0000 0.36450  0.20570  0.83960  Biso   1.000  H
  H4       1.0000 0.37120  0.28480  0.76670  Biso   1.000  H
  H5       1.0000 0.84120  0.63550  0.83960  Biso   1.000  H
  H6       1.0000 0.91360  0.62880  0.76670  Biso   1.000  H
  H7       1.0000 0.20570  0.84120  0.83960  Biso   1.000  H
  H8       1.0000 0.28480  0.91360  0.76670  Biso   1.000  H
  H9       1.0000 0.63550  0.79430  0.83960  Biso   1.000  H
  H10      1.0000 0.62880  0.71520  0.76670  Biso   1.000  H
  H11      1.0000 0.15880  0.36450  0.83960  Biso   1.000  H
  H12      1.0000 0.08640  0.37120  0.76670  Biso   1.000  H
  H13      1.0000 0.63550  0.84120  0.66040  Biso   1.000  H
  H14      1.0000 0.62880  0.91360  0.73330  Biso   1.000  H
  H15      1.0000 0.15880  0.79430  0.66040  Biso   1.000  H
  H16      1.0000 0.08640  0.71520  0.73330  Biso   1.000  H
  H17      1.0000 0.20570  0.36450  0.66040  Biso   1.000  H
  H18      1.0000 0.28480  0.37120  0.73330  Biso   1.000  H
  H19      1.0000 0.36450  0.15880  0.66040  Biso   1.000  H
  H20      1.0000 0.37120  0.08640  0.73330  Biso   1.000  H
  H21      1.0000 0.84120  0.20570  0.66040  Biso   1.000  H
  H22      1.0000 0.91360  0.28480  0.73330  Biso   1.000  H
  H23      1.0000 0.79430  0.63550  0.66040  Biso   1.000  H
  H24      1.0000 0.71520  0.62880  0.73330  Biso   1.000  H
  H25      1.0000 0.20570  0.84120  0.16040  Biso   1.000  H
  H26      1.0000 0.28480  0.91360  0.23330  Biso   1.000  H
  H27      1.0000 0.63550  0.79430  0.16040  Biso   1.000  H
  H28      1.0000 0.62880  0.71520  0.23330  Biso   1.000  H
  H29      1.0000 0.15880  0.36450  0.16040  Biso   1.000  H
  H30      1.0000 0.08640  0.37120  0.23330  Biso   1.000  H
  H31      1.0000 0.79430  0.15880  0.16040  Biso   1.000  H
  H32      1.0000 0.71520  0.08640  0.23330  Biso   1.000  H
  H33      1.0000 0.36450  0.20570  0.16040  Biso   1.000  H
  H34      1.0000 0.37120  0.28480  0.23330  Biso   1.000  H
  H35      1.0000 0.84120  0.63550  0.16040  Biso   1.000  H
  H36      1.0000 0.91360  0.62880  0.23330  Biso   1.000  H
  H37      1.0000 0.36450  0.15880  0.33960  Biso   1.000  H
  H38      1.0000 0.37120  0.08640  0.26670  Biso   1.000  H
  H39      1.0000 0.84120  0.20570  0.33960  Biso   1.000  H
  H40      1.0000 0.91360  0.28480  0.26670  Biso   1.000  H
  H41      1.0000 0.79430  0.63550  0.33960  Biso   1.000  H
  H42      1.0000 0.71520  0.62880  0.26670  Biso   1.000  H
  H43      1.0000 0.63550  0.84120  0.33960  Biso   1.000  H
  H44      1.0000 0.62880  0.91360  0.26670  Biso   1.000  H
  H45      1.0000 0.15880  0.79430  0.33960  Biso   1.000  H
  H46      1.0000 0.08640  0.71520  0.26670  Biso   1.000  H
  H47      1.0000 0.20570  0.36450  0.33960  Biso   1.000  H
  H48      1.0000 0.28480  0.37120  0.26670  Biso   1.000  H
  C1       1.0000 0.12960  0.64470  0.36100  Biso   1.000  C
  C2       1.0000 0.85240  0.26470  0.69670  Biso   1.000  C
  C3       1.0000 0.51510  0.87040  0.36100  Biso   1.000  C
  C4       1.0000 0.41230  0.14760  0.69670  Biso   1.000  C
  C5       1.0000 0.35530  0.48490  0.36100  Biso   1.000  C
  C6       1.0000 0.73530  0.58770  0.69670  Biso   1.000  C
  C7       1.0000 0.87040  0.35530  0.36100  Biso   1.000  C
  C8       1.0000 0.14760  0.73530  0.69670  Biso   1.000  C
  C9       1.0000 0.48490  0.12960  0.36100  Biso   1.000  C
  C10      1.0000 0.58770  0.85240  0.69670  Biso   1.000  C
  C11      1.0000 0.64470  0.51510  0.36100  Biso   1.000  C
  C12      1.0000 0.26470  0.41230  0.69670  Biso   1.000  C
  C13      1.0000 0.48490  0.35530  0.13900  Biso   1.000  C
  C14      1.0000 0.58770  0.73530  0.80330  Biso   1.000  C
  C15      1.0000 0.64470  0.12960  0.13900  Biso   1.000  C
  C16      1.0000 0.26470  0.85240  0.80330  Biso   1.000  C
  C17      1.0000 0.87040  0.51510  0.13900  Biso   1.000  C
  C18      1.0000 0.14760  0.41230  0.80330  Biso   1.000  C
  C19      1.0000 0.51510  0.64470  0.13900  Biso   1.000  C
  C20      1.0000 0.41230  0.26470  0.80330  Biso   1.000  C
  C21      1.0000 0.35530  0.87040  0.13900  Biso   1.000  C
  C22      1.0000 0.73530  0.14760  0.80330  Biso   1.000  C
  C23      1.0000 0.12960  0.48490  0.13900  Biso   1.000  C
  C24      1.0000 0.85240  0.58770  0.80330  Biso   1.000  C
  C25      1.0000 0.87040  0.35530  0.63900  Biso   1.000  C
  C26      1.0000 0.14760  0.73530  0.30330  Biso   1.000  C
  C27      1.0000 0.48490  0.12960  0.63900  Biso   1.000  C
  C28      1.0000 0.58770  0.85240  0.30330  Biso   1.000  C
  C29      1.0000 0.64470  0.51510  0.63900  Biso   1.000  C
  C30      1.0000 0.26470  0.41230  0.30330  Biso   1.000  C
  C31      1.0000 0.12960  0.64470  0.63900  Biso   1.000  C
  C32      1.0000 0.85240  0.26470  0.30330  Biso   1.000  C
  C33      1.0000 0.51510  0.87040  0.63900  Biso   1.000  C
  C34      1.0000 0.41230  0.14760  0.30330  Biso   1.000  C
  C35      1.0000 0.35530  0.48490  0.63900  Biso   1.000  C
  C36      1.0000 0.73530  0.58770  0.30330  Biso   1.000  C
  C37      1.0000 0.51510  0.64470  0.86100  Biso   1.000  C
  C38      1.0000 0.41230  0.26470  0.19670  Biso   1.000  C
  C39      1.0000 0.35530  0.87040  0.86100  Biso   1.000  C
  C40      1.0000 0.73530  0.14760  0.19670  Biso   1.000  C
  C41      1.0000 0.12960  0.48490  0.86100  Biso   1.000  C
  C42      1.0000 0.85240  0.58770  0.19670  Biso   1.000  C
  C43      1.0000 0.48490  0.35530  0.86100  Biso   1.000  C
  C44      1.0000 0.58770  0.73530  0.19670  Biso   1.000  C
  C45      1.0000 0.64470  0.12960  0.86100  Biso   1.000  C
  C46      1.0000 0.26470  0.85240  0.19670  Biso   1.000  C
  C47      1.0000 0.87040  0.51510  0.86100  Biso   1.000  C
  C48      1.0000 0.14760  0.41230  0.19670  Biso   1.000  C
  O1       1.0000 0.19410  0.61304  0.35658  Biso   1.000  O
  O2       1.0000 0.05110  0.60970  0.41000  Biso   1.000  O
  O3       1.0000 0.41894  0.80590  0.35658  Biso   1.000  O
  O4       1.0000 0.55860  0.94890  0.41000  Biso   1.000  O
  O5       1.0000 0.38696  0.58106  0.35658  Biso   1.000  O
  O6       1.0000 0.39030  0.44140  0.41000  Biso   1.000  O
  O7       1.0000 0.80590  0.38696  0.35658  Biso   1.000  O
  O8       1.0000 0.94890  0.39030  0.41000  Biso   1.000  O
  O9       1.0000 0.58106  0.19410  0.35658  Biso   1.000  O
  O10      1.0000 0.44140  0.05110  0.41000  Biso   1.000  O
  O11      1.0000 0.61304  0.41894  0.35658  Biso   1.000  O
  O12      1.0000 0.60970  0.55860  0.41000  Biso   1.000  O
  O13      1.0000 0.58106  0.38696  0.14342  Biso   1.000  O
  O14      1.0000 0.44140  0.39030  0.09000  Biso   1.000  O
  O15      1.0000 0.61304  0.19410  0.14342  Biso   1.000  O
  O16      1.0000 0.60970  0.05110  0.09000  Biso   1.000  O
  O17      1.0000 0.80590  0.41894  0.14342  Biso   1.000  O
  O18      1.0000 0.94890  0.55860  0.09000  Biso   1.000  O
  O19      1.0000 0.41894  0.61304  0.14342  Biso   1.000  O
  O20      1.0000 0.55860  0.60970  0.09000  Biso   1.000  O
  O21      1.0000 0.38696  0.80590  0.14342  Biso   1.000  O
  O22      1.0000 0.39030  0.94890  0.09000  Biso   1.000  O
  O23      1.0000 0.19410  0.58106  0.14342  Biso   1.000  O
  O24      1.0000 0.05110  0.44140  0.09000  Biso   1.000  O
  O25      1.0000 0.80590  0.38696  0.64342  Biso   1.000  O
  O26      1.0000 0.94890  0.39030  0.59000  Biso   1.000  O
  O27      1.0000 0.58106  0.19410  0.64342  Biso   1.000  O
  O28      1.0000 0.44140  0.05110  0.59000  Biso   1.000  O
  O29      1.0000 0.61304  0.41894  0.64342  Biso   1.000  O
  O30      1.0000 0.60970  0.55860  0.59000  Biso   1.000  O
  O31      1.0000 0.19410  0.61304  0.64342  Biso   1.000  O
  O32      1.0000 0.05110  0.60970  0.59000  Biso   1.000  O
  O33      1.0000 0.41894  0.80590  0.64342  Biso   1.000  O
  O34      1.0000 0.55860  0.94890  0.59000  Biso   1.000  O
  O35      1.0000 0.38696  0.58106  0.64342  Biso   1.000  O
  O36      1.0000 0.39030  0.44140  0.59000  Biso   1.000  O
  O37      1.0000 0.41894  0.61304  0.85658  Biso   1.000  O
  O38      1.0000 0.55860  0.60970  0.91000  Biso   1.000  O
  O39      1.0000 0.38696  0.80590  0.85658  Biso   1.000  O
  O40      1.0000 0.39030  0.94890  0.91000  Biso   1.000  O
  O41      1.0000 0.19410  0.58106  0.85658  Biso   1.000  O
  O42      1.0000 0.05110  0.44140  0.91000  Biso   1.000  O
  O43      1.0000 0.58106  0.38696  0.85658  Biso   1.000  O
  O44      1.0000 0.44140  0.39030  0.91000  Biso   1.000  O
  O45      1.0000 0.61304  0.19410  0.85658  Biso   1.000  O
  O46      1.0000 0.60970  0.05110  0.91000  Biso   1.000  O
  O47      1.0000 0.80590  0.41894  0.85658  Biso   1.000  O
  O48      1.0000 0.94890  0.55860  0.91000  Biso   1.000  O
  O49      1.0000 0.76410  0.23590  0.75000  Biso   1.000  O
  O50      1.0000 0.47180  0.23590  0.75000  Biso   1.000  O
  O51      1.0000 0.76410  0.52820  0.75000  Biso   1.000  O
  O52      1.0000 0.23590  0.76410  0.75000  Biso   1.000  O
  O53      1.0000 0.52820  0.76410  0.75000  Biso   1.000  O
  O54      1.0000 0.23590  0.47180  0.75000  Biso   1.000  O
  O55      1.0000 0.23590  0.76410  0.25000  Biso   1.000  O
  O56      1.0000 0.52820  0.76410  0.25000  Biso   1.000  O
  O57      1.0000 0.23590  0.47180  0.25000  Biso   1.000  O
  O58      1.0000 0.76410  0.23590  0.25000  Biso   1.000  O
  O59      1.0000 0.47180  0.23590  0.25000  Biso   1.000  O
  O60      1.0000 0.76410  0.52820  0.25000  Biso   1.000  O
