data_image0
_cell_length_a       14.584
_cell_length_b       15.199
_cell_length_c       15.199
_cell_angle_alpha    120
_cell_angle_beta     90
_cell_angle_gamma    90

_symmetry_space_group_name_H-M    P 1
_symmetry_int_tables_number       1

loop_
  _symmetry_equiv_pos_as_xyz
  'x, y, z'

loop_
  _atom_site_label
  _atom_site_occupancy
  _atom_site_fract_x
  _atom_site_fract_y
  _atom_site_fract_z
  _atom_site_thermal_displace_type
  _atom_site_B_iso_or_equiv
  _atom_site_type_symbol
  Pr1      1.0000 0.25000  0.33333  0.66666  Biso   1.000  Pr
  Pr2      1.0000 0.25000  0.66667  0.33334  Biso   1.000  Pr
  Pr3      1.0000 0.75000  0.66667  0.33334  Biso   1.000  Pr
  Pr4      1.0000 0.75000  0.33333  0.66666  Biso   1.000  Pr
  Cu1      1.0000 0.00000  0.50000  0.50000  Biso   1.000  Cu
  Cu2      1.0000 0.00000  0.00000  0.50000  Biso   1.000  Cu
  Cu3      1.0000 0.00000  0.50000  0.00000  Biso   1.000  Cu
  Cu4      1.0000 0.50000  0.00000  0.50000  Biso   1.000  Cu
  Cu5      1.0000 0.50000  0.50000  0.50000  Biso   1.000  Cu
  Cu6      1.0000 0.50000  0.50000  0.00000  Biso   1.000  Cu
  H1       1.0000 0.83680  0.78610  0.15070  Biso   1.000  H
  H2       1.0000 0.75740  0.71000  0.08920  Biso   1.000  H
  H3       1.0000 0.83680  0.36460  0.21390  Biso   1.000  H
  H4       1.0000 0.75740  0.37920  0.29000  Biso   1.000  H
  H5       1.0000 0.83680  0.84930  0.63540  Biso   1.000  H
  H6       1.0000 0.75740  0.91080  0.62080  Biso   1.000  H
  H7       1.0000 0.83680  0.21390  0.84930  Biso   1.000  H
  H8       1.0000 0.75740  0.29000  0.91080  Biso   1.000  H
  H9       1.0000 0.83680  0.63540  0.78610  Biso   1.000  H
  H10      1.0000 0.75740  0.62080  0.71000  Biso   1.000  H
  H11      1.0000 0.83680  0.15070  0.36460  Biso   1.000  H
  H12      1.0000 0.75740  0.08920  0.37920  Biso   1.000  H
  H13      1.0000 0.66320  0.63540  0.84930  Biso   1.000  H
  H14      1.0000 0.74260  0.62080  0.91080  Biso   1.000  H
  H15      1.0000 0.66320  0.15070  0.78610  Biso   1.000  H
  H16      1.0000 0.74260  0.08920  0.71000  Biso   1.000  H
  H17      1.0000 0.66320  0.21390  0.36460  Biso   1.000  H
  H18      1.0000 0.74260  0.29000  0.37920  Biso   1.000  H
  H19      1.0000 0.66320  0.36460  0.15070  Biso   1.000  H
  H20      1.0000 0.74260  0.37920  0.08920  Biso   1.000  H
  H21      1.0000 0.66320  0.84930  0.21390  Biso   1.000  H
  H22      1.0000 0.74260  0.91080  0.29000  Biso   1.000  H
  H23      1.0000 0.66320  0.78610  0.63540  Biso   1.000  H
  H24      1.0000 0.74260  0.71000  0.62080  Biso   1.000  H
  H25      1.0000 0.16320  0.21390  0.84930  Biso   1.000  H
  H26      1.0000 0.24260  0.29000  0.91080  Biso   1.000  H
  H27      1.0000 0.16320  0.63540  0.78610  Biso   1.000  H
  H28      1.0000 0.24260  0.62080  0.71000  Biso   1.000  H
  H29      1.0000 0.16320  0.15070  0.36460  Biso   1.000  H
  H30      1.0000 0.24260  0.08920  0.37920  Biso   1.000  H
  H31      1.0000 0.16320  0.78610  0.15070  Biso   1.000  H
  H32      1.0000 0.24260  0.71000  0.08920  Biso   1.000  H
  H33      1.0000 0.16320  0.36460  0.21390  Biso   1.000  H
  H34      1.0000 0.24260  0.37920  0.29000  Biso   1.000  H
  H35      1.0000 0.16320  0.84930  0.63540  Biso   1.000  H
  H36      1.0000 0.24260  0.91080  0.62080  Biso   1.000  H
  H37      1.0000 0.33680  0.36460  0.15070  Biso   1.000  H
  H38      1.0000 0.25740  0.37920  0.08920  Biso   1.000  H
  H39      1.0000 0.33680  0.84930  0.21390  Biso   1.000  H
  H40      1.0000 0.25740  0.91080  0.29000  Biso   1.000  H
  H41      1.0000 0.33680  0.78610  0.63540  Biso   1.000  H
  H42      1.0000 0.25740  0.71000  0.62080  Biso   1.000  H
  H43      1.0000 0.33680  0.63540  0.84930  Biso   1.000  H
  H44      1.0000 0.25740  0.62080  0.91080  Biso   1.000  H
  H45      1.0000 0.33680  0.15070  0.78610  Biso   1.000  H
  H46      1.0000 0.25740  0.08920  0.71000  Biso   1.000  H
  H47      1.0000 0.33680  0.21390  0.36460  Biso   1.000  H
  H48      1.0000 0.25740  0.29000  0.37920  Biso   1.000  H
  C1       1.0000 0.35980  0.12750  0.64300  Biso   1.000  C
  C2       1.0000 0.70050  0.85440  0.26910  Biso   1.000  C
  C3       1.0000 0.35980  0.51550  0.87250  Biso   1.000  C
  C4       1.0000 0.70050  0.41470  0.14560  Biso   1.000  C
  C5       1.0000 0.35980  0.35700  0.48450  Biso   1.000  C
  C6       1.0000 0.70050  0.73090  0.58530  Biso   1.000  C
  C7       1.0000 0.35980  0.87250  0.35700  Biso   1.000  C
  C8       1.0000 0.70050  0.14560  0.73090  Biso   1.000  C
  C9       1.0000 0.35980  0.48450  0.12750  Biso   1.000  C
  C10      1.0000 0.70050  0.58530  0.85440  Biso   1.000  C
  C11      1.0000 0.35980  0.64300  0.51550  Biso   1.000  C
  C12      1.0000 0.70050  0.26910  0.41470  Biso   1.000  C
  C13      1.0000 0.14020  0.48450  0.35700  Biso   1.000  C
  C14      1.0000 0.79950  0.58530  0.73090  Biso   1.000  C
  C15      1.0000 0.14020  0.64300  0.12750  Biso   1.000  C
  C16      1.0000 0.79950  0.26910  0.85440  Biso   1.000  C
  C17      1.0000 0.14020  0.87250  0.51550  Biso   1.000  C
  C18      1.0000 0.79950  0.14560  0.41470  Biso   1.000  C
  C19      1.0000 0.14020  0.51550  0.64300  Biso   1.000  C
  C20      1.0000 0.79950  0.41470  0.26910  Biso   1.000  C
  C21      1.0000 0.14020  0.35700  0.87250  Biso   1.000  C
  C22      1.0000 0.79950  0.73090  0.14560  Biso   1.000  C
  C23      1.0000 0.14020  0.12750  0.48450  Biso   1.000  C
  C24      1.0000 0.79950  0.85440  0.58530  Biso   1.000  C
  C25      1.0000 0.64020  0.87250  0.35700  Biso   1.000  C
  C26      1.0000 0.29950  0.14560  0.73090  Biso   1.000  C
  C27      1.0000 0.64020  0.48450  0.12750  Biso   1.000  C
  C28      1.0000 0.29950  0.58530  0.85440  Biso   1.000  C
  C29      1.0000 0.64020  0.64300  0.51550  Biso   1.000  C
  C30      1.0000 0.29950  0.26910  0.41470  Biso   1.000  C
  C31      1.0000 0.64020  0.12750  0.64300  Biso   1.000  C
  C32      1.0000 0.29950  0.85440  0.26910  Biso   1.000  C
  C33      1.0000 0.64020  0.51550  0.87250  Biso   1.000  C
  C34      1.0000 0.29950  0.41470  0.14560  Biso   1.000  C
  C35      1.0000 0.64020  0.35700  0.48450  Biso   1.000  C
  C36      1.0000 0.29950  0.73090  0.58530  Biso   1.000  C
  C37      1.0000 0.85980  0.51550  0.64300  Biso   1.000  C
  C38      1.0000 0.20050  0.41470  0.26910  Biso   1.000  C
  C39      1.0000 0.85980  0.35700  0.87250  Biso   1.000  C
  C40      1.0000 0.20050  0.73090  0.14560  Biso   1.000  C
  C41      1.0000 0.85980  0.12750  0.48450  Biso   1.000  C
  C42      1.0000 0.20050  0.85440  0.58530  Biso   1.000  C
  C43      1.0000 0.85980  0.48450  0.35700  Biso   1.000  C
  C44      1.0000 0.20050  0.58530  0.73090  Biso   1.000  C
  C45      1.0000 0.85980  0.64300  0.12750  Biso   1.000  C
  C46      1.0000 0.20050  0.26910  0.85440  Biso   1.000  C
  C47      1.0000 0.85980  0.87250  0.51550  Biso   1.000  C
  C48      1.0000 0.20050  0.14560  0.41470  Biso   1.000  C
  O1       1.0000 0.35930  0.19200  0.61490  Biso   1.000  O
  O2       1.0000 0.40640  0.04830  0.60630  Biso   1.000  O
  O3       1.0000 0.35930  0.42290  0.80800  Biso   1.000  O
  O4       1.0000 0.40640  0.55800  0.95170  Biso   1.000  O
  O5       1.0000 0.35930  0.38510  0.57710  Biso   1.000  O
  O6       1.0000 0.40640  0.39370  0.44200  Biso   1.000  O
  O7       1.0000 0.35930  0.80800  0.38510  Biso   1.000  O
  O8       1.0000 0.40640  0.95170  0.39370  Biso   1.000  O
  O9       1.0000 0.35930  0.57710  0.19200  Biso   1.000  O
  O10      1.0000 0.40640  0.44200  0.04830  Biso   1.000  O
  O11      1.0000 0.35930  0.61490  0.42290  Biso   1.000  O
  O12      1.0000 0.40640  0.60630  0.55800  Biso   1.000  O
  O13      1.0000 0.14070  0.57710  0.38510  Biso   1.000  O
  O14      1.0000 0.09360  0.44200  0.39370  Biso   1.000  O
  O15      1.0000 0.14070  0.61490  0.19200  Biso   1.000  O
  O16      1.0000 0.09360  0.60630  0.04830  Biso   1.000  O
  O17      1.0000 0.14070  0.80800  0.42290  Biso   1.000  O
  O18      1.0000 0.09360  0.95170  0.55800  Biso   1.000  O
  O19      1.0000 0.14070  0.42290  0.61490  Biso   1.000  O
  O20      1.0000 0.09360  0.55800  0.60630  Biso   1.000  O
  O21      1.0000 0.14070  0.38510  0.80800  Biso   1.000  O
  O22      1.0000 0.09360  0.39370  0.95170  Biso   1.000  O
  O23      1.0000 0.14070  0.19200  0.57710  Biso   1.000  O
  O24      1.0000 0.09360  0.04830  0.44200  Biso   1.000  O
  O25      1.0000 0.64070  0.80800  0.38510  Biso   1.000  O
  O26      1.0000 0.59360  0.95170  0.39370  Biso   1.000  O
  O27      1.0000 0.64070  0.57710  0.19200  Biso   1.000  O
  O28      1.0000 0.59360  0.44200  0.04830  Biso   1.000  O
  O29      1.0000 0.64070  0.61490  0.42290  Biso   1.000  O
  O30      1.0000 0.59360  0.60630  0.55800  Biso   1.000  O
  O31      1.0000 0.64070  0.19200  0.61490  Biso   1.000  O
  O32      1.0000 0.59360  0.04830  0.60630  Biso   1.000  O
  O33      1.0000 0.64070  0.42290  0.80800  Biso   1.000  O
  O34      1.0000 0.59360  0.55800  0.95170  Biso   1.000  O
  O35      1.0000 0.64070  0.38510  0.57710  Biso   1.000  O
  O36      1.0000 0.59360  0.39370  0.44200  Biso   1.000  O
  O37      1.0000 0.85930  0.42290  0.61490  Biso   1.000  O
  O38      1.0000 0.90640  0.55800  0.60630  Biso   1.000  O
  O39      1.0000 0.85930  0.38510  0.80800  Biso   1.000  O
  O40      1.0000 0.90640  0.39370  0.95170  Biso   1.000  O
  O41      1.0000 0.85930  0.19200  0.57710  Biso   1.000  O
  O42      1.0000 0.90640  0.04830  0.44200  Biso   1.000  O
  O43      1.0000 0.85930  0.57710  0.38510  Biso   1.000  O
  O44      1.0000 0.90640  0.44200  0.39370  Biso   1.000  O
  O45      1.0000 0.85930  0.61490  0.19200  Biso   1.000  O
  O46      1.0000 0.90640  0.60630  0.04830  Biso   1.000  O
  O47      1.0000 0.85930  0.80800  0.42290  Biso   1.000  O
  O48      1.0000 0.90640  0.95170  0.55800  Biso   1.000  O
  O49      1.0000 0.75000  0.76380  0.23620  Biso   1.000  O
  O50      1.0000 0.75000  0.47240  0.23620  Biso   1.000  O
  O51      1.0000 0.75000  0.76380  0.52760  Biso   1.000  O
  O52      1.0000 0.75000  0.23620  0.76380  Biso   1.000  O
  O53      1.0000 0.75000  0.52760  0.76380  Biso   1.000  O
  O54      1.0000 0.75000  0.23620  0.47240  Biso   1.000  O
  O55      1.0000 0.25000  0.23620  0.76380  Biso   1.000  O
  O56      1.0000 0.25000  0.52760  0.76380  Biso   1.000  O
  O57      1.0000 0.25000  0.23620  0.47240  Biso   1.000  O
  O58      1.0000 0.25000  0.76380  0.23620  Biso   1.000  O
  O59      1.0000 0.25000  0.47240  0.23620  Biso   1.000  O
  O60      1.0000 0.25000  0.76380  0.52760  Biso   1.000  O
