data_image0
_cell_length_a       10.1979
_cell_length_b       11.7843
_cell_length_c       14.9199
_cell_angle_alpha    91.8003
_cell_angle_beta     90
_cell_angle_gamma    90

_symmetry_space_group_name_H-M    P 1
_symmetry_int_tables_number       1

loop_
  _symmetry_equiv_pos_as_xyz
  'x, y, z'

loop_
  _atom_site_label
  _atom_site_occupancy
  _atom_site_fract_x
  _atom_site_fract_y
  _atom_site_fract_z
  _atom_site_thermal_displace_type
  _atom_site_B_iso_or_equiv
  _atom_site_type_symbol
  Mn1      1.0000 0.93295  0.98981  0.56268  Biso   1.000  Mn
  Mn2      1.0000 0.62082  0.99027  0.61891  Biso   1.000  Mn
  Mn3      1.0000 0.54158  0.74474  0.74780  Biso   1.000  Mn
  Mn4      1.0000 0.45685  0.50345  0.88127  Biso   1.000  Mn
  Mn5      1.0000 0.14360  0.51266  0.93548  Biso   1.000  Mn
  Mn6      1.0000 0.53958  0.24499  0.75237  Biso   1.000  Mn
  Mn7      1.0000 0.43295  0.01019  0.43732  Biso   1.000  Mn
  Mn8      1.0000 0.12082  0.00973  0.38109  Biso   1.000  Mn
  Mn9      1.0000 0.04158  0.25526  0.25220  Biso   1.000  Mn
  Mn10     1.0000 0.95685  0.49655  0.11873  Biso   1.000  Mn
  Mn11     1.0000 0.64360  0.48734  0.06452  Biso   1.000  Mn
  Mn12     1.0000 0.03958  0.75501  0.24763  Biso   1.000  Mn
  H1       1.0000 0.78300  0.90280  0.38040  Biso   1.000  H
  H2       1.0000 0.91830  0.18110  0.71100  Biso   1.000  H
  H3       1.0000 0.99380  0.73400  0.50770  Biso   1.000  H
  H4       1.0000 0.83600  0.74540  0.72170  Biso   1.000  H
  H5       1.0000 0.39240  0.04690  0.82670  Biso   1.000  H
  H6       1.0000 0.83050  0.21380  0.47190  Biso   1.000  H
  H7       1.0000 0.25470  0.75070  0.77470  Biso   1.000  H
  H8       1.0000 0.69580  0.44190  0.67840  Biso   1.000  H
  H9       1.0000 0.74830  0.70360  0.96860  Biso   1.000  H
  H10      1.0000 0.29320  0.60310  0.11440  Biso   1.000  H
  H11      1.0000 0.16490  0.30690  0.78910  Biso   1.000  H
  H12      1.0000 0.56600  0.22930  0.01430  Biso   1.000  H
  H13      1.0000 0.28300  0.09720  0.61960  Biso   1.000  H
  H14      1.0000 0.41830  0.81890  0.28900  Biso   1.000  H
  H15      1.0000 0.49380  0.26600  0.49230  Biso   1.000  H
  H16      1.0000 0.33600  0.25460  0.27830  Biso   1.000  H
  H17      1.0000 0.89240  0.95310  0.17330  Biso   1.000  H
  H18      1.0000 0.33050  0.78620  0.52810  Biso   1.000  H
  H19      1.0000 0.75470  0.24930  0.22530  Biso   1.000  H
  H20      1.0000 0.19580  0.55810  0.32160  Biso   1.000  H
  H21      1.0000 0.24830  0.29640  0.03140  Biso   1.000  H
  H22      1.0000 0.79320  0.39690  0.88560  Biso   1.000  H
  H23      1.0000 0.66490  0.69310  0.21090  Biso   1.000  H
  H24      1.0000 0.06600  0.77070  0.98570  Biso   1.000  H
  C1       1.0000 0.71450  0.92790  0.41710  Biso   1.000  C
  C2       1.0000 0.82940  0.16670  0.70290  Biso   1.000  C
  C3       1.0000 0.01920  0.77280  0.45720  Biso   1.000  C
  C4       1.0000 0.81910  0.80860  0.68780  Biso   1.000  C
  C5       1.0000 0.44620  0.00510  0.78760  Biso   1.000  C
  C6       1.0000 0.89900  0.19360  0.43350  Biso   1.000  C
  C7       1.0000 0.26800  0.68690  0.80870  Biso   1.000  C
  C8       1.0000 0.63980  0.48560  0.71460  Biso   1.000  C
  C9       1.0000 0.68200  0.68380  0.92840  Biso   1.000  C
  C10      1.0000 0.36170  0.57450  0.07930  Biso   1.000  C
  C11      1.0000 0.25310  0.32330  0.79870  Biso   1.000  C
  C12      1.0000 0.55020  0.26740  0.96170  Biso   1.000  C
  C13      1.0000 0.21450  0.07210  0.58290  Biso   1.000  C
  C14      1.0000 0.32940  0.83330  0.29710  Biso   1.000  C
  C15      1.0000 0.51920  0.22720  0.54280  Biso   1.000  C
  C16      1.0000 0.31910  0.19140  0.31220  Biso   1.000  C
  C17      1.0000 0.94620  0.99490  0.21240  Biso   1.000  C
  C18      1.0000 0.39900  0.80640  0.56650  Biso   1.000  C
  C19      1.0000 0.76800  0.31310  0.19130  Biso   1.000  C
  C20      1.0000 0.13980  0.51440  0.28540  Biso   1.000  C
  C21      1.0000 0.18200  0.31620  0.07160  Biso   1.000  C
  C22      1.0000 0.86170  0.42550  0.92070  Biso   1.000  C
  C23      1.0000 0.75310  0.67670  0.20130  Biso   1.000  C
  C24      1.0000 0.05020  0.73260  0.03830  Biso   1.000  C
  O1       1.0000 0.74230  0.94620  0.50000  Biso   1.000  O
  O2       1.0000 0.60940  0.93960  0.38120  Biso   1.000  O
  O3       1.0000 0.79720  0.09250  0.64480  Biso   1.000  O
  O4       1.0000 0.74860  0.22320  0.75120  Biso   1.000  O
  O5       1.0000 0.03190  0.88040  0.46510  Biso   1.000  O
  O6       1.0000 0.03850  0.71640  0.38670  Biso   1.000  O
  O7       1.0000 0.91300  0.85290  0.65130  Biso   1.000  O
  O8       1.0000 0.69880  0.84220  0.68330  Biso   1.000  O
  O9       1.0000 0.51460  0.05920  0.73170  Biso   1.000  O
  O10      1.0000 0.44660  0.89870  0.79350  Biso   1.000  O
  O11      1.0000 0.95860  0.10150  0.44740  Biso   1.000  O
  O12      1.0000 0.92590  0.25980  0.37160  Biso   1.000  O
  O13      1.0000 0.38290  0.64960  0.81210  Biso   1.000  O
  O14      1.0000 0.16950  0.64730  0.84630  Biso   1.000  O
  O15      1.0000 0.63890  0.58720  0.70280  Biso   1.000  O
  O16      1.0000 0.57120  0.43250  0.77220  Biso   1.000  O
  O17      1.0000 0.66590  0.74730  0.86560  Biso   1.000  O
  O18      1.0000 0.61840  0.59430  0.94450  Biso   1.000  O
  O19      1.0000 0.33870  0.55400  0.99700  Biso   1.000  O
  O20      1.0000 0.47140  0.55910  0.11770  Biso   1.000  O
  O21      1.0000 0.27770  0.40480  0.85720  Biso   1.000  O
  O22      1.0000 0.32870  0.26730  0.75600  Biso   1.000  O
  O23      1.0000 0.54160  0.37580  0.96890  Biso   1.000  O
  O24      1.0000 0.53990  0.20870  0.89310  Biso   1.000  O
  O25      1.0000 0.24230  0.05380  0.50000  Biso   1.000  O
  O26      1.0000 0.10940  0.06040  0.61880  Biso   1.000  O
  O27      1.0000 0.29720  0.90750  0.35520  Biso   1.000  O
  O28      1.0000 0.24860  0.77680  0.24880  Biso   1.000  O
  O29      1.0000 0.53190  0.11960  0.53490  Biso   1.000  O
  O30      1.0000 0.53850  0.28360  0.61330  Biso   1.000  O
  O31      1.0000 0.41300  0.14710  0.34870  Biso   1.000  O
  O32      1.0000 0.19880  0.15780  0.31670  Biso   1.000  O
  O33      1.0000 0.01460  0.94080  0.26830  Biso   1.000  O
  O34      1.0000 0.94660  0.10130  0.20650  Biso   1.000  O
  O35      1.0000 0.45860  0.89850  0.55260  Biso   1.000  O
  O36      1.0000 0.42590  0.74020  0.62840  Biso   1.000  O
  O37      1.0000 0.88290  0.35040  0.18790  Biso   1.000  O
  O38      1.0000 0.66950  0.35270  0.15370  Biso   1.000  O
  O39      1.0000 0.13890  0.41280  0.29720  Biso   1.000  O
  O40      1.0000 0.07120  0.56750  0.22780  Biso   1.000  O
  O41      1.0000 0.16590  0.25270  0.13440  Biso   1.000  O
  O42      1.0000 0.11840  0.40570  0.05550  Biso   1.000  O
  O43      1.0000 0.83870  0.44600  0.00300  Biso   1.000  O
  O44      1.0000 0.97140  0.44090  0.88230  Biso   1.000  O
  O45      1.0000 0.77770  0.59520  0.14280  Biso   1.000  O
  O46      1.0000 0.82870  0.73270  0.24400  Biso   1.000  O
  O47      1.0000 0.04160  0.62420  0.03110  Biso   1.000  O
  O48      1.0000 0.03990  0.79130  0.10690  Biso   1.000  O
