data_image0
_cell_length_a       11.5985
_cell_length_b       13.6479
_cell_length_c       14.2484
_cell_angle_alpha    102.167
_cell_angle_beta     90
_cell_angle_gamma    115.146

_symmetry_space_group_name_H-M    P 1
_symmetry_int_tables_number       1

loop_
  _symmetry_equiv_pos_as_xyz
  'x, y, z'

loop_
  _atom_site_label
  _atom_site_occupancy
  _atom_site_fract_x
  _atom_site_fract_y
  _atom_site_fract_z
  _atom_site_thermal_displace_type
  _atom_site_B_iso_or_equiv
  _atom_site_type_symbol
  Cd1      1.0000 0.00110  0.44596  0.86425  Biso   1.000  Cd
  Cd2      1.0000 0.44486  0.44596  0.36425  Biso   1.000  Cd
  H1       1.0000 0.01660  0.21040  0.58600  Biso   1.000  H
  H2       1.0000 0.15150  0.23960  0.63490  Biso   1.000  H
  H3       1.0000 0.15860  0.28780  0.48440  Biso   1.000  H
  H4       1.0000 0.10960  0.37620  0.53000  Biso   1.000  H
  H5       1.0000 0.92080  0.19060  0.86230  Biso   1.000  H
  H6       1.0000 0.75140  0.02380  0.86720  Biso   1.000  H
  H7       1.0000 0.52020  0.17480  0.88210  Biso   1.000  H
  H8       1.0000 0.69560  0.33840  0.87820  Biso   1.000  H
  H9       1.0000 0.49460  0.70520  0.87980  Biso   1.000  H
  H10      1.0000 0.31050  0.54520  0.87410  Biso   1.000  H
  H11      1.0000 0.09900  0.69780  0.85110  Biso   1.000  H
  H12      1.0000 0.27670  0.86340  0.85890  Biso   1.000  H
  H13      1.0000 0.19380  0.21040  0.08600  Biso   1.000  H
  H14      1.0000 0.08810  0.23960  0.13490  Biso   1.000  H
  H15      1.0000 0.12920  0.28780  0.98440  Biso   1.000  H
  H16      1.0000 0.26660  0.37620  0.03000  Biso   1.000  H
  H17      1.0000 0.26980  0.19060  0.36230  Biso   1.000  H
  H18      1.0000 0.27240  0.02380  0.36720  Biso   1.000  H
  H19      1.0000 0.65460  0.17480  0.38210  Biso   1.000  H
  H20      1.0000 0.64280  0.33840  0.37820  Biso   1.000  H
  H21      1.0000 0.21060  0.70520  0.37980  Biso   1.000  H
  H22      1.0000 0.23470  0.54520  0.37410  Biso   1.000  H
  H23      1.0000 0.59880  0.69780  0.35110  Biso   1.000  H
  H24      1.0000 0.58670  0.86340  0.35890  Biso   1.000  H
  C1       1.0000 0.07027  0.33574  0.70760  Biso   1.000  C
  C2       1.0000 0.09685  0.27150  0.61670  Biso   1.000  C
  C3       1.0000 0.15942  0.33824  0.54390  Biso   1.000  C
  C4       1.0000 0.29534  0.42288  0.57730  Biso   1.000  C
  C5       1.0000 0.83916  0.18712  0.86650  Biso   1.000  C
  C6       1.0000 0.73821  0.08682  0.86930  Biso   1.000  C
  C7       1.0000 0.61802  0.08224  0.87520  Biso   1.000  C
  C8       1.0000 0.60111  0.17662  0.87830  Biso   1.000  C
  C9       1.0000 0.70693  0.27446  0.87570  Biso   1.000  C
  C10      1.0000 0.40392  0.80144  0.86960  Biso   1.000  C
  C11      1.0000 0.41485  0.70550  0.87470  Biso   1.000  C
  C12      1.0000 0.30379  0.61018  0.87190  Biso   1.000  C
  C13      1.0000 0.17971  0.70002  0.85870  Biso   1.000  C
  C14      1.0000 0.28578  0.79956  0.86190  Biso   1.000  C
  C15      1.0000 0.26547  0.33574  0.20760  Biso   1.000  C
  C16      1.0000 0.17465  0.27150  0.11670  Biso   1.000  C
  C17      1.0000 0.17882  0.33824  0.04390  Biso   1.000  C
  C18      1.0000 0.12754  0.42288  0.07730  Biso   1.000  C
  C19      1.0000 0.34796  0.18712  0.36650  Biso   1.000  C
  C20      1.0000 0.34861  0.08682  0.36930  Biso   1.000  C
  C21      1.0000 0.46422  0.08224  0.37520  Biso   1.000  C
  C22      1.0000 0.57551  0.17662  0.37830  Biso   1.000  C
  C23      1.0000 0.56753  0.27446  0.37570  Biso   1.000  C
  C24      1.0000 0.39752  0.80144  0.36960  Biso   1.000  C
  C25      1.0000 0.29065  0.70550  0.37470  Biso   1.000  C
  C26      1.0000 0.30639  0.61018  0.37190  Biso   1.000  C
  C27      1.0000 0.52031  0.70002  0.35870  Biso   1.000  C
  C28      1.0000 0.51378  0.79956  0.36190  Biso   1.000  C
  N1       1.0000 0.82355  0.28030  0.86980  Biso   1.000  N
  N2       1.0000 0.50378  0.98196  0.87550  Biso   1.000  N
  N3       1.0000 0.52071  0.90062  0.87240  Biso   1.000  N
  N4       1.0000 0.18721  0.60702  0.86610  Biso   1.000  N
  N5       1.0000 0.45675  0.28030  0.36980  Biso   1.000  N
  N6       1.0000 0.47818  0.98196  0.37550  Biso   1.000  N
  N7       1.0000 0.37991  0.90062  0.37240  Biso   1.000  N
  N8       1.0000 0.41981  0.60702  0.36610  Biso   1.000  N
  O1       1.0000 0.01751  0.39682  0.69772  Biso   1.000  O
  O2       1.0000 0.09565  0.32410  0.78880  Biso   1.000  O
  O3       1.0000 0.33289  0.45758  0.66403  Biso   1.000  O
  O4       1.0000 0.37085  0.45650  0.51583  Biso   1.000  O
  O5       1.0000 0.37931  0.39682  0.19772  Biso   1.000  O
  O6       1.0000 0.22845  0.32410  0.28880  Biso   1.000  O
  O7       1.0000 0.12469  0.45758  0.16403  Biso   1.000  O
  O8       1.0000 0.08565  0.45650  0.01583  Biso   1.000  O
  Cd3      1.0000 0.55514  0.55404  0.63575  Biso   1.000  Cd
  Cd4      1.0000 0.99890  0.55404  0.13575  Biso   1.000  Cd
  H25      1.0000 0.80620  0.78960  0.91400  Biso   1.000  H
  H26      1.0000 0.91190  0.76040  0.86510  Biso   1.000  H
  H27      1.0000 0.87080  0.71220  0.01560  Biso   1.000  H
  H28      1.0000 0.73340  0.62380  0.97000  Biso   1.000  H
  H29      1.0000 0.73020  0.80940  0.63770  Biso   1.000  H
  H30      1.0000 0.72760  0.97620  0.63280  Biso   1.000  H
  H31      1.0000 0.34540  0.82520  0.61790  Biso   1.000  H
  H32      1.0000 0.35720  0.66160  0.62180  Biso   1.000  H
  H33      1.0000 0.78940  0.29480  0.62020  Biso   1.000  H
  H34      1.0000 0.76530  0.45480  0.62590  Biso   1.000  H
  H35      1.0000 0.40120  0.30220  0.64890  Biso   1.000  H
  H36      1.0000 0.41330  0.13660  0.64110  Biso   1.000  H
  H37      1.0000 0.98340  0.78960  0.41400  Biso   1.000  H
  H38      1.0000 0.84850  0.76040  0.36510  Biso   1.000  H
  H39      1.0000 0.84140  0.71220  0.51560  Biso   1.000  H
  H40      1.0000 0.89040  0.62380  0.47000  Biso   1.000  H
  H41      1.0000 0.07920  0.80940  0.13770  Biso   1.000  H
  H42      1.0000 0.24860  0.97620  0.13280  Biso   1.000  H
  H43      1.0000 0.47980  0.82520  0.11790  Biso   1.000  H
  H44      1.0000 0.30440  0.66160  0.12180  Biso   1.000  H
  H45      1.0000 0.50540  0.29480  0.12020  Biso   1.000  H
  H46      1.0000 0.68950  0.45480  0.12590  Biso   1.000  H
  H47      1.0000 0.90100  0.30220  0.14890  Biso   1.000  H
  H48      1.0000 0.72330  0.13660  0.14110  Biso   1.000  H
  C29      1.0000 0.73453  0.66426  0.79240  Biso   1.000  C
  C30      1.0000 0.82535  0.72850  0.88330  Biso   1.000  C
  C31      1.0000 0.82118  0.66176  0.95610  Biso   1.000  C
  C32      1.0000 0.87246  0.57712  0.92270  Biso   1.000  C
  C33      1.0000 0.65204  0.81288  0.63350  Biso   1.000  C
  C34      1.0000 0.65139  0.91318  0.63070  Biso   1.000  C
  C35      1.0000 0.53578  0.91776  0.62480  Biso   1.000  C
  C36      1.0000 0.42449  0.82338  0.62170  Biso   1.000  C
  C37      1.0000 0.43247  0.72554  0.62430  Biso   1.000  C
  C38      1.0000 0.60248  0.19856  0.63040  Biso   1.000  C
  C39      1.0000 0.70935  0.29450  0.62530  Biso   1.000  C
  C40      1.0000 0.69361  0.38982  0.62810  Biso   1.000  C
  C41      1.0000 0.47969  0.29998  0.64130  Biso   1.000  C
  C42      1.0000 0.48622  0.20044  0.63810  Biso   1.000  C
  C43      1.0000 0.92973  0.66426  0.29240  Biso   1.000  C
  C44      1.0000 0.90315  0.72850  0.38330  Biso   1.000  C
  C45      1.0000 0.84058  0.66176  0.45610  Biso   1.000  C
  C46      1.0000 0.70466  0.57712  0.42270  Biso   1.000  C
  C47      1.0000 0.16084  0.81288  0.13350  Biso   1.000  C
  C48      1.0000 0.26179  0.91318  0.13070  Biso   1.000  C
  C49      1.0000 0.38198  0.91776  0.12480  Biso   1.000  C
  C50      1.0000 0.39889  0.82338  0.12170  Biso   1.000  C
  C51      1.0000 0.29307  0.72554  0.12430  Biso   1.000  C
  C52      1.0000 0.59608  0.19856  0.13040  Biso   1.000  C
  C53      1.0000 0.58515  0.29450  0.12530  Biso   1.000  C
  C54      1.0000 0.69621  0.38982  0.12810  Biso   1.000  C
  C55      1.0000 0.82029  0.29998  0.14130  Biso   1.000  C
  C56      1.0000 0.71422  0.20044  0.13810  Biso   1.000  C
  N9       1.0000 0.54325  0.71970  0.63020  Biso   1.000  N
  N10      1.0000 0.52182  0.01804  0.62450  Biso   1.000  N
  N11      1.0000 0.62009  0.09938  0.62760  Biso   1.000  N
  N12      1.0000 0.58019  0.39298  0.63390  Biso   1.000  N
  N13      1.0000 0.17645  0.71970  0.13020  Biso   1.000  N
  N14      1.0000 0.49622  0.01804  0.12450  Biso   1.000  N
  N15      1.0000 0.47929  0.09938  0.12760  Biso   1.000  N
  N16      1.0000 0.81279  0.39298  0.13390  Biso   1.000  N
  O9       1.0000 0.62069  0.60318  0.80228  Biso   1.000  O
  O10      1.0000 0.77155  0.67590  0.71120  Biso   1.000  O
  O11      1.0000 0.87531  0.54242  0.83597  Biso   1.000  O
  O12      1.0000 0.91435  0.54350  0.98417  Biso   1.000  O
  O13      1.0000 0.98249  0.60318  0.30228  Biso   1.000  O
  O14      1.0000 0.90435  0.67590  0.21120  Biso   1.000  O
  O15      1.0000 0.66711  0.54242  0.33597  Biso   1.000  O
  O16      1.0000 0.62915  0.54350  0.48417  Biso   1.000  O
