data_image0
_cell_length_a       5.7328
_cell_length_b       10.9152
_cell_length_c       11.2665
_cell_angle_alpha    90
_cell_angle_beta     97.106
_cell_angle_gamma    90

_symmetry_space_group_name_H-M    P 1
_symmetry_int_tables_number       1

loop_
  _symmetry_equiv_pos_as_xyz
  'x, y, z'

loop_
  _atom_site_label
  _atom_site_occupancy
  _atom_site_fract_x
  _atom_site_fract_y
  _atom_site_fract_z
  _atom_site_thermal_displace_type
  _atom_site_B_iso_or_equiv
  _atom_site_type_symbol
  Na1      1.0000 0.77200  0.90558  0.74548  Biso   1.000  Na
  Na2      1.0000 0.02409  0.59468  0.76522  Biso   1.000  Na
  Na3      1.0000 0.27200  0.09442  0.74548  Biso   1.000  Na
  Na4      1.0000 0.52409  0.40532  0.76522  Biso   1.000  Na
  H1       1.0000 0.75990  0.54150  0.04570  Biso   1.000  H
  H2       1.0000 0.61170  0.62860  0.12240  Biso   1.000  H
  H3       1.0000 0.02690  0.65510  0.17000  Biso   1.000  H
  H4       1.0000 0.04050  0.70170  0.03680  Biso   1.000  H
  H5       1.0000 0.92460  0.70630  0.38940  Biso   1.000  H
  H6       1.0000 0.75860  0.77500  0.47210  Biso   1.000  H
  H7       1.0000 0.15680  0.88530  0.38470  Biso   1.000  H
  H8       1.0000 0.98980  0.95490  0.46680  Biso   1.000  H
  H9       1.0000 0.18400  0.91600  0.89800  Biso   1.000  H
  H10      1.0000 0.07400  0.01400  0.92800  Biso   1.000  H
  H11      1.0000 0.60900  0.59400  0.61200  Biso   1.000  H
  H12      1.0000 0.70300  0.51200  0.56900  Biso   1.000  H
  H13      1.0000 0.25990  0.45850  0.04570  Biso   1.000  H
  H14      1.0000 0.11170  0.37140  0.12240  Biso   1.000  H
  H15      1.0000 0.52690  0.34490  0.17000  Biso   1.000  H
  H16      1.0000 0.54050  0.29830  0.03680  Biso   1.000  H
  H17      1.0000 0.42460  0.29370  0.38940  Biso   1.000  H
  H18      1.0000 0.25860  0.22500  0.47210  Biso   1.000  H
  H19      1.0000 0.65680  0.11470  0.38470  Biso   1.000  H
  H20      1.0000 0.48980  0.04510  0.46680  Biso   1.000  H
  H21      1.0000 0.68400  0.08400  0.89800  Biso   1.000  H
  H22      1.0000 0.57400  0.98600  0.92800  Biso   1.000  H
  H23      1.0000 0.10900  0.40600  0.61200  Biso   1.000  H
  H24      1.0000 0.20300  0.48800  0.56900  Biso   1.000  H
  C1       1.0000 0.71620  0.62780  0.05870  Biso   1.000  C
  C2       1.0000 0.93990  0.70020  0.10220  Biso   1.000  C
  C3       1.0000 0.85710  0.78680  0.40680  Biso   1.000  C
  C4       1.0000 0.05570  0.87410  0.44900  Biso   1.000  C
  C5       1.0000 0.21620  0.37220  0.05870  Biso   1.000  C
  C6       1.0000 0.43990  0.29980  0.10220  Biso   1.000  C
  C7       1.0000 0.35710  0.21320  0.40680  Biso   1.000  C
  C8       1.0000 0.55570  0.12590  0.44900  Biso   1.000  C
  S1       1.0000 0.55708  0.68535  0.92415  Biso   1.000  S
  S2       1.0000 0.89874  0.85686  0.14969  Biso   1.000  S
  S3       1.0000 0.67117  0.84017  0.27364  Biso   1.000  S
  S4       1.0000 0.22768  0.81676  0.57943  Biso   1.000  S
  S5       1.0000 0.05708  0.31465  0.92415  Biso   1.000  S
  S6       1.0000 0.39874  0.14314  0.14969  Biso   1.000  S
  S7       1.0000 0.17117  0.15983  0.27364  Biso   1.000  S
  S8       1.0000 0.72768  0.18324  0.57943  Biso   1.000  S
  O1       1.0000 0.40400  0.58456  0.87786  Biso   1.000  O
  O2       1.0000 0.73130  0.71614  0.84467  Biso   1.000  O
  O3       1.0000 0.42400  0.79128  0.95658  Biso   1.000  O
  O4       1.0000 0.06360  0.78428  0.66323  Biso   1.000  O
  O5       1.0000 0.38980  0.91483  0.62452  Biso   1.000  O
  O6       1.0000 0.35230  0.71000  0.53982  Biso   1.000  O
  O7       1.0000 0.09350  0.96640  0.88078  Biso   1.000  O
  O8       1.0000 0.69350  0.54154  0.62980  Biso   1.000  O
  O9       1.0000 0.90400  0.41544  0.87786  Biso   1.000  O
  O10      1.0000 0.23130  0.28386  0.84467  Biso   1.000  O
  O11      1.0000 0.92400  0.20872  0.95658  Biso   1.000  O
  O12      1.0000 0.56360  0.21572  0.66323  Biso   1.000  O
  O13      1.0000 0.88980  0.08517  0.62452  Biso   1.000  O
  O14      1.0000 0.85230  0.29000  0.53982  Biso   1.000  O
  O15      1.0000 0.59350  0.03360  0.88078  Biso   1.000  O
  O16      1.0000 0.19350  0.45846  0.62980  Biso   1.000  O
