data_image0
_cell_length_a       10.2072
_cell_length_b       11.7561
_cell_length_c       14.9614
_cell_angle_alpha    91.8639
_cell_angle_beta     90
_cell_angle_gamma    90

_symmetry_space_group_name_H-M    P 1
_symmetry_int_tables_number       1

loop_
  _symmetry_equiv_pos_as_xyz
  'x, y, z'

loop_
  _atom_site_label
  _atom_site_occupancy
  _atom_site_fract_x
  _atom_site_fract_y
  _atom_site_fract_z
  _atom_site_thermal_displace_type
  _atom_site_B_iso_or_equiv
  _atom_site_type_symbol
  Mn1      1.0000 0.91931  0.75679  0.13165  Biso   1.000  Mn
  Mn2      1.0000 0.10688  0.73916  0.31282  Biso   1.000  Mn
  Mn3      1.0000 0.41931  0.74321  0.36835  Biso   1.000  Mn
  Mn4      1.0000 0.60688  0.76084  0.18718  Biso   1.000  Mn
  Mn5      1.0000 0.08069  0.24321  0.86835  Biso   1.000  Mn
  Mn6      1.0000 0.89312  0.26084  0.68718  Biso   1.000  Mn
  Mn7      1.0000 0.58069  0.25679  0.63165  Biso   1.000  Mn
  Mn8      1.0000 0.39312  0.23916  0.81282  Biso   1.000  Mn
  Mn9      1.0000 0.00000  0.50000  0.00000  Biso   1.000  Mn
  Mn10     1.0000 0.50000  0.00000  0.50000  Biso   1.000  Mn
  Mn11     1.0000 0.00000  0.00000  0.00000  Biso   1.000  Mn
  Mn12     1.0000 0.50000  0.50000  0.50000  Biso   1.000  Mn
  H1       1.0000 0.75300  0.84680  0.37080  Biso   1.000  H
  H2       1.0000 0.03400  0.48330  0.26530  Biso   1.000  H
  H3       1.0000 0.61500  0.56610  0.04110  Biso   1.000  H
  H4       1.0000 0.21400  0.96180  0.22380  Biso   1.000  H
  H5       1.0000 0.15300  0.69680  0.92580  Biso   1.000  H
  H6       1.0000 0.70700  0.99630  0.02730  Biso   1.000  H
  H7       1.0000 0.25300  0.65320  0.12920  Biso   1.000  H
  H8       1.0000 0.53400  0.01670  0.23470  Biso   1.000  H
  H9       1.0000 0.11500  0.93390  0.45890  Biso   1.000  H
  H10      1.0000 0.71400  0.53820  0.27620  Biso   1.000  H
  H11      1.0000 0.65300  0.80320  0.57420  Biso   1.000  H
  H12      1.0000 0.20700  0.50370  0.47270  Biso   1.000  H
  H13      1.0000 0.24700  0.15320  0.62920  Biso   1.000  H
  H14      1.0000 0.96600  0.51670  0.73470  Biso   1.000  H
  H15      1.0000 0.38500  0.43390  0.95890  Biso   1.000  H
  H16      1.0000 0.78600  0.03820  0.77620  Biso   1.000  H
  H17      1.0000 0.84700  0.30320  0.07420  Biso   1.000  H
  H18      1.0000 0.29300  0.00370  0.97270  Biso   1.000  H
  H19      1.0000 0.74700  0.34680  0.87080  Biso   1.000  H
  H20      1.0000 0.46600  0.98330  0.76530  Biso   1.000  H
  H21      1.0000 0.88500  0.06610  0.54110  Biso   1.000  H
  H22      1.0000 0.28600  0.46180  0.72380  Biso   1.000  H
  H23      1.0000 0.34700  0.19680  0.42580  Biso   1.000  H
  H24      1.0000 0.79300  0.49630  0.52730  Biso   1.000  H
  C1       1.0000 0.82540  0.82406  0.33146  Biso   1.000  C
  C2       1.0000 0.01860  0.51989  0.20859  Biso   1.000  C
  C3       1.0000 0.71240  0.57689  0.04999  Biso   1.000  C
  C4       1.0000 0.14040  0.94108  0.18048  Biso   1.000  C
  C5       1.0000 0.09710  0.74053  0.96413  Biso   1.000  C
  C6       1.0000 0.72450  0.93679  0.05969  Biso   1.000  C
  C7       1.0000 0.32540  0.67594  0.16854  Biso   1.000  C
  C8       1.0000 0.51860  0.98011  0.29141  Biso   1.000  C
  C9       1.0000 0.21240  0.92311  0.45001  Biso   1.000  C
  C10      1.0000 0.64040  0.55892  0.31952  Biso   1.000  C
  C11      1.0000 0.59710  0.75947  0.53587  Biso   1.000  C
  C12      1.0000 0.22450  0.56321  0.44031  Biso   1.000  C
  C13      1.0000 0.17460  0.17594  0.66854  Biso   1.000  C
  C14      1.0000 0.98140  0.48011  0.79141  Biso   1.000  C
  C15      1.0000 0.28760  0.42311  0.95001  Biso   1.000  C
  C16      1.0000 0.85960  0.05892  0.81952  Biso   1.000  C
  C17      1.0000 0.90290  0.25947  0.03587  Biso   1.000  C
  C18      1.0000 0.27550  0.06321  0.94031  Biso   1.000  C
  C19      1.0000 0.67460  0.32406  0.83146  Biso   1.000  C
  C20      1.0000 0.48140  0.01989  0.70859  Biso   1.000  C
  C21      1.0000 0.78760  0.07689  0.54999  Biso   1.000  C
  C22      1.0000 0.35960  0.44108  0.68048  Biso   1.000  C
  C23      1.0000 0.40290  0.24053  0.46413  Biso   1.000  C
  C24      1.0000 0.77550  0.43679  0.55969  Biso   1.000  C
  O1       1.0000 0.79934  0.80393  0.24918  Biso   1.000  O
  O2       1.0000 0.93310  0.81176  0.36781  Biso   1.000  O
  O3       1.0000 0.00751  0.62768  0.21629  Biso   1.000  O
  O4       1.0000 0.00210  0.46197  0.13988  Biso   1.000  O
  O5       1.0000 0.74211  0.65519  0.10712  Biso   1.000  O
  O6       1.0000 0.79002  0.52016  0.00331  Biso   1.000  O
  O7       1.0000 0.08066  0.84900  0.19604  Biso   1.000  O
  O8       1.0000 0.11890  0.00457  0.11860  Biso   1.000  O
  O9       1.0000 0.02890  0.68666  0.02076  Biso   1.000  O
  O10      1.0000 0.09836  0.84413  0.95566  Biso   1.000  O
  O11      1.0000 0.84242  0.90292  0.06436  Biso   1.000  O
  O12      1.0000 0.62893  0.89514  0.09719  Biso   1.000  O
  O13      1.0000 0.29934  0.69607  0.25082  Biso   1.000  O
  O14      1.0000 0.43310  0.68824  0.13219  Biso   1.000  O
  O15      1.0000 0.50751  0.87232  0.28371  Biso   1.000  O
  O16      1.0000 0.50210  0.03803  0.36012  Biso   1.000  O
  O17      1.0000 0.24211  0.84481  0.39288  Biso   1.000  O
  O18      1.0000 0.29002  0.97984  0.49669  Biso   1.000  O
  O19      1.0000 0.58066  0.65100  0.30396  Biso   1.000  O
  O20      1.0000 0.61890  0.49543  0.38140  Biso   1.000  O
  O21      1.0000 0.52890  0.81334  0.47924  Biso   1.000  O
  O22      1.0000 0.59836  0.65587  0.54434  Biso   1.000  O
  O23      1.0000 0.34242  0.59708  0.43564  Biso   1.000  O
  O24      1.0000 0.12893  0.60486  0.40281  Biso   1.000  O
  O25      1.0000 0.20066  0.19607  0.75082  Biso   1.000  O
  O26      1.0000 0.06690  0.18824  0.63219  Biso   1.000  O
  O27      1.0000 0.99249  0.37232  0.78371  Biso   1.000  O
  O28      1.0000 0.99790  0.53803  0.86012  Biso   1.000  O
  O29      1.0000 0.25789  0.34481  0.89288  Biso   1.000  O
  O30      1.0000 0.20998  0.47984  0.99669  Biso   1.000  O
  O31      1.0000 0.91934  0.15100  0.80396  Biso   1.000  O
  O32      1.0000 0.88110  0.99543  0.88140  Biso   1.000  O
  O33      1.0000 0.97110  0.31334  0.97924  Biso   1.000  O
  O34      1.0000 0.90164  0.15587  0.04434  Biso   1.000  O
  O35      1.0000 0.15758  0.09708  0.93564  Biso   1.000  O
  O36      1.0000 0.37107  0.10486  0.90281  Biso   1.000  O
  O37      1.0000 0.70066  0.30393  0.74918  Biso   1.000  O
  O38      1.0000 0.56690  0.31176  0.86781  Biso   1.000  O
  O39      1.0000 0.49249  0.12768  0.71629  Biso   1.000  O
  O40      1.0000 0.49790  0.96197  0.63988  Biso   1.000  O
  O41      1.0000 0.75789  0.15519  0.60712  Biso   1.000  O
  O42      1.0000 0.70998  0.02016  0.50331  Biso   1.000  O
  O43      1.0000 0.41934  0.34900  0.69604  Biso   1.000  O
  O44      1.0000 0.38110  0.50457  0.61860  Biso   1.000  O
  O45      1.0000 0.47110  0.18666  0.52076  Biso   1.000  O
  O46      1.0000 0.40164  0.34413  0.45566  Biso   1.000  O
  O47      1.0000 0.65758  0.40292  0.56436  Biso   1.000  O
  O48      1.0000 0.87107  0.39514  0.59719  Biso   1.000  O
