data_image0
_cell_length_a       10.1959
_cell_length_b       11.7856
_cell_length_c       14.9224
_cell_angle_alpha    91.8559
_cell_angle_beta     90
_cell_angle_gamma    90

_symmetry_space_group_name_H-M    P 1
_symmetry_int_tables_number       1

loop_
  _symmetry_equiv_pos_as_xyz
  'x, y, z'

loop_
  _atom_site_label
  _atom_site_occupancy
  _atom_site_fract_x
  _atom_site_fract_y
  _atom_site_fract_z
  _atom_site_thermal_displace_type
  _atom_site_B_iso_or_equiv
  _atom_site_type_symbol
  Mn1      1.0000 0.06693  0.01017  0.43727  Biso   1.000  Mn
  Mn2      1.0000 0.37925  0.00971  0.38115  Biso   1.000  Mn
  Mn3      1.0000 0.45846  0.25526  0.25221  Biso   1.000  Mn
  Mn4      1.0000 0.54323  0.49648  0.11876  Biso   1.000  Mn
  Mn5      1.0000 0.85653  0.48743  0.06444  Biso   1.000  Mn
  Mn6      1.0000 0.45996  0.75494  0.24799  Biso   1.000  Mn
  Mn7      1.0000 0.56693  0.98983  0.56273  Biso   1.000  Mn
  Mn8      1.0000 0.87925  0.99029  0.61885  Biso   1.000  Mn
  Mn9      1.0000 0.95846  0.74474  0.74779  Biso   1.000  Mn
  Mn10     1.0000 0.04323  0.50352  0.88124  Biso   1.000  Mn
  Mn11     1.0000 0.35653  0.51257  0.93556  Biso   1.000  Mn
  Mn12     1.0000 0.95996  0.24506  0.75201  Biso   1.000  Mn
  H1       1.0000 0.21730  0.09830  0.61960  Biso   1.000  H
  H2       1.0000 0.08240  0.81790  0.28850  Biso   1.000  H
  H3       1.0000 0.00330  0.26620  0.49090  Biso   1.000  H
  H4       1.0000 0.16240  0.25350  0.27710  Biso   1.000  H
  H5       1.0000 0.60890  0.95280  0.17400  Biso   1.000  H
  H6       1.0000 0.16800  0.78510  0.52740  Biso   1.000  H
  H7       1.0000 0.74290  0.24930  0.22580  Biso   1.000  H
  H8       1.0000 0.30720  0.55830  0.32390  Biso   1.000  H
  H9       1.0000 0.25080  0.29590  0.03200  Biso   1.000  H
  H10      1.0000 0.70660  0.39570  0.88570  Biso   1.000  H
  H11      1.0000 0.83610  0.69330  0.20870  Biso   1.000  H
  H12      1.0000 0.43270  0.77090  0.98660  Biso   1.000  H
  H13      1.0000 0.71730  0.90170  0.38040  Biso   1.000  H
  H14      1.0000 0.58240  0.18210  0.71150  Biso   1.000  H
  H15      1.0000 0.50330  0.73380  0.50910  Biso   1.000  H
  H16      1.0000 0.66240  0.74650  0.72290  Biso   1.000  H
  H17      1.0000 0.10890  0.04720  0.82600  Biso   1.000  H
  H18      1.0000 0.66800  0.21490  0.47260  Biso   1.000  H
  H19      1.0000 0.24290  0.75070  0.77420  Biso   1.000  H
  H20      1.0000 0.80720  0.44170  0.67610  Biso   1.000  H
  H21      1.0000 0.75080  0.70410  0.96800  Biso   1.000  H
  H22      1.0000 0.20660  0.60430  0.11430  Biso   1.000  H
  H23      1.0000 0.33610  0.30670  0.79130  Biso   1.000  H
  H24      1.0000 0.93270  0.22910  0.01340  Biso   1.000  H
  C1       1.0000 0.28550  0.07280  0.58290  Biso   1.000  C
  C2       1.0000 0.17130  0.83270  0.29680  Biso   1.000  C
  C3       1.0000 0.97960  0.22740  0.54170  Biso   1.000  C
  C4       1.0000 0.17990  0.19090  0.31160  Biso   1.000  C
  C5       1.0000 0.55410  0.99440  0.21270  Biso   1.000  C
  C6       1.0000 0.10090  0.80620  0.56660  Biso   1.000  C
  C7       1.0000 0.73010  0.31280  0.19150  Biso   1.000  C
  C8       1.0000 0.36050  0.51410  0.28600  Biso   1.000  C
  C9       1.0000 0.31790  0.31540  0.07180  Biso   1.000  C
  C10      1.0000 0.63830  0.42510  0.92060  Biso   1.000  C
  C11      1.0000 0.74770  0.67630  0.20030  Biso   1.000  C
  C12      1.0000 0.44940  0.73260  0.03890  Biso   1.000  C
  C13      1.0000 0.78550  0.92720  0.41710  Biso   1.000  C
  C14      1.0000 0.67130  0.16730  0.70320  Biso   1.000  C
  C15      1.0000 0.47960  0.77260  0.45830  Biso   1.000  C
  C16      1.0000 0.67990  0.80910  0.68840  Biso   1.000  C
  C17      1.0000 0.05410  0.00560  0.78730  Biso   1.000  C
  C18      1.0000 0.60090  0.19380  0.43340  Biso   1.000  C
  C19      1.0000 0.23010  0.68720  0.80850  Biso   1.000  C
  C20      1.0000 0.86050  0.48590  0.71400  Biso   1.000  C
  C21      1.0000 0.81790  0.68460  0.92820  Biso   1.000  C
  C22      1.0000 0.13830  0.57490  0.07940  Biso   1.000  C
  C23      1.0000 0.24770  0.32370  0.79970  Biso   1.000  C
  C24      1.0000 0.94940  0.26740  0.96110  Biso   1.000  C
  O1       1.0000 0.25760  0.05380  0.49970  Biso   1.000  O
  O2       1.0000 0.39150  0.06100  0.61860  Biso   1.000  O
  O3       1.0000 0.20190  0.90770  0.35510  Biso   1.000  O
  O4       1.0000 0.25110  0.77590  0.24860  Biso   1.000  O
  O5       1.0000 0.96800  0.11970  0.53490  Biso   1.000  O
  O6       1.0000 0.96070  0.28360  0.61330  Biso   1.000  O
  O7       1.0000 0.08610  0.14670  0.34870  Biso   1.000  O
  O8       1.0000 0.30150  0.15800  0.31650  Biso   1.000  O
  O9       1.0000 0.48530  0.94050  0.26800  Biso   1.000  O
  O10      1.0000 0.55260  0.10140  0.20700  Biso   1.000  O
  O11      1.0000 0.04180  0.89850  0.55220  Biso   1.000  O
  O12      1.0000 0.07650  0.74140  0.62910  Biso   1.000  O
  O13      1.0000 0.61680  0.35030  0.18770  Biso   1.000  O
  O14      1.0000 0.82990  0.35270  0.15360  Biso   1.000  O
  O15      1.0000 0.35980  0.41270  0.29660  Biso   1.000  O
  O16      1.0000 0.42850  0.56720  0.22710  Biso   1.000  O
  O17      1.0000 0.33570  0.25200  0.13380  Biso   1.000  O
  O18      1.0000 0.38170  0.40520  0.05600  Biso   1.000  O
  O19      1.0000 0.66150  0.44580  0.00260  Biso   1.000  O
  O20      1.0000 0.52960  0.44120  0.88220  Biso   1.000  O
  O21      1.0000 0.72140  0.59550  0.14300  Biso   1.000  O
  O22      1.0000 0.67170  0.73210  0.24400  Biso   1.000  O
  O23      1.0000 0.45880  0.62410  0.03110  Biso   1.000  O
  O24      1.0000 0.45990  0.79100  0.10740  Biso   1.000  O
  O25      1.0000 0.75760  0.94620  0.50030  Biso   1.000  O
  O26      1.0000 0.89150  0.93900  0.38140  Biso   1.000  O
  O27      1.0000 0.70190  0.09230  0.64490  Biso   1.000  O
  O28      1.0000 0.75110  0.22410  0.75140  Biso   1.000  O
  O29      1.0000 0.46800  0.88030  0.46510  Biso   1.000  O
  O30      1.0000 0.46070  0.71640  0.38670  Biso   1.000  O
  O31      1.0000 0.58610  0.85330  0.65130  Biso   1.000  O
  O32      1.0000 0.80150  0.84200  0.68350  Biso   1.000  O
  O33      1.0000 0.98530  0.05950  0.73200  Biso   1.000  O
  O34      1.0000 0.05260  0.89860  0.79300  Biso   1.000  O
  O35      1.0000 0.54180  0.10150  0.44780  Biso   1.000  O
  O36      1.0000 0.57650  0.25860  0.37090  Biso   1.000  O
  O37      1.0000 0.11680  0.64970  0.81230  Biso   1.000  O
  O38      1.0000 0.32990  0.64730  0.84640  Biso   1.000  O
  O39      1.0000 0.85980  0.58730  0.70340  Biso   1.000  O
  O40      1.0000 0.92850  0.43280  0.77290  Biso   1.000  O
  O41      1.0000 0.83570  0.74800  0.86620  Biso   1.000  O
  O42      1.0000 0.88170  0.59480  0.94400  Biso   1.000  O
  O43      1.0000 0.16150  0.55420  0.99740  Biso   1.000  O
  O44      1.0000 0.02960  0.55880  0.11780  Biso   1.000  O
  O45      1.0000 0.22140  0.40450  0.85700  Biso   1.000  O
  O46      1.0000 0.17170  0.26790  0.75600  Biso   1.000  O
  O47      1.0000 0.95880  0.37590  0.96890  Biso   1.000  O
  O48      1.0000 0.95990  0.20900  0.89260  Biso   1.000  O
