data_image0
_cell_length_a       11.69
_cell_length_b       14.173
_cell_length_c       17.998
_cell_angle_alpha    90
_cell_angle_beta     90
_cell_angle_gamma    111.013

_symmetry_space_group_name_H-M    P 1
_symmetry_int_tables_number       1

loop_
  _symmetry_equiv_pos_as_xyz
  'x, y, z'

loop_
  _atom_site_label
  _atom_site_occupancy
  _atom_site_fract_x
  _atom_site_fract_y
  _atom_site_fract_z
  _atom_site_thermal_displace_type
  _atom_site_B_iso_or_equiv
  _atom_site_type_symbol
  Zn1      1.0000 0.93659  0.11334  0.16658  Biso   1.000  Zn
  Zn2      1.0000 0.84906  0.86125  0.14486  Biso   1.000  Zn
  Zn3      1.0000 0.87185  0.39412  0.40581  Biso   1.000  Zn
  Zn4      1.0000 0.56341  0.38666  0.66658  Biso   1.000  Zn
  Zn5      1.0000 0.65094  0.63875  0.64486  Biso   1.000  Zn
  Zn6      1.0000 0.62815  0.10588  0.90581  Biso   1.000  Zn
  Zn7      1.0000 0.06341  0.88666  0.83342  Biso   1.000  Zn
  Zn8      1.0000 0.15094  0.13875  0.85514  Biso   1.000  Zn
  Zn9      1.0000 0.12815  0.60588  0.59419  Biso   1.000  Zn
  Zn10     1.0000 0.43659  0.61334  0.33342  Biso   1.000  Zn
  Zn11     1.0000 0.34906  0.36125  0.35514  Biso   1.000  Zn
  Zn12     1.0000 0.37185  0.89412  0.09419  Biso   1.000  Zn
  H1       1.0000 0.91250  0.98400  0.24510  Biso   1.000  H
  H2       1.0000 0.80350  0.25310  0.25220  Biso   1.000  H
  H3       1.0000 0.99120  0.57540  0.42440  Biso   1.000  H
  H4       1.0000 0.80170  0.57520  0.44450  Biso   1.000  H
  H5       1.0000 0.77620  0.56180  0.35900  Biso   1.000  H
  H6       1.0000 0.14170  0.11870  0.03810  Biso   1.000  H
  H7       1.0000 0.93950  0.54770  0.27600  Biso   1.000  H
  H8       1.0000 0.06390  0.55330  0.31190  Biso   1.000  H
  H9       1.0000 0.81920  0.72800  0.38980  Biso   1.000  H
  H10      1.0000 0.94400  0.73470  0.42610  Biso   1.000  H
  H11      1.0000 0.11050  0.72200  0.34190  Biso   1.000  H
  H12      1.0000 0.08200  0.70800  0.25640  Biso   1.000  H
  H13      1.0000 0.97900  0.79970  0.31120  Biso   1.000  H
  H14      1.0000 0.89230  0.70820  0.27820  Biso   1.000  H
  H15      1.0000 0.58750  0.51600  0.74510  Biso   1.000  H
  H16      1.0000 0.69650  0.24690  0.75220  Biso   1.000  H
  H17      1.0000 0.50880  0.92460  0.92440  Biso   1.000  H
  H18      1.0000 0.69830  0.92480  0.94450  Biso   1.000  H
  H19      1.0000 0.72380  0.93820  0.85900  Biso   1.000  H
  H20      1.0000 0.35830  0.38130  0.53810  Biso   1.000  H
  H21      1.0000 0.56050  0.95230  0.77600  Biso   1.000  H
  H22      1.0000 0.43610  0.94670  0.81190  Biso   1.000  H
  H23      1.0000 0.68080  0.77200  0.88980  Biso   1.000  H
  H24      1.0000 0.55600  0.76530  0.92610  Biso   1.000  H
  H25      1.0000 0.38950  0.77800  0.84190  Biso   1.000  H
  H26      1.0000 0.41800  0.79200  0.75640  Biso   1.000  H
  H27      1.0000 0.52100  0.70030  0.81120  Biso   1.000  H
  H28      1.0000 0.60770  0.79180  0.77820  Biso   1.000  H
  H29      1.0000 0.08750  0.01600  0.75490  Biso   1.000  H
  H30      1.0000 0.19650  0.74690  0.74780  Biso   1.000  H
  H31      1.0000 0.00880  0.42460  0.57560  Biso   1.000  H
  H32      1.0000 0.19830  0.42480  0.55550  Biso   1.000  H
  H33      1.0000 0.22380  0.43820  0.64100  Biso   1.000  H
  H34      1.0000 0.85830  0.88130  0.96190  Biso   1.000  H
  H35      1.0000 0.06050  0.45230  0.72400  Biso   1.000  H
  H36      1.0000 0.93610  0.44670  0.68810  Biso   1.000  H
  H37      1.0000 0.18080  0.27200  0.61020  Biso   1.000  H
  H38      1.0000 0.05600  0.26530  0.57390  Biso   1.000  H
  H39      1.0000 0.88950  0.27800  0.65810  Biso   1.000  H
  H40      1.0000 0.91800  0.29200  0.74360  Biso   1.000  H
  H41      1.0000 0.02100  0.20030  0.68880  Biso   1.000  H
  H42      1.0000 0.10770  0.29180  0.72180  Biso   1.000  H
  H43      1.0000 0.41250  0.48400  0.25490  Biso   1.000  H
  H44      1.0000 0.30350  0.75310  0.24780  Biso   1.000  H
  H45      1.0000 0.49120  0.07540  0.07560  Biso   1.000  H
  H46      1.0000 0.30170  0.07520  0.05550  Biso   1.000  H
  H47      1.0000 0.27620  0.06180  0.14100  Biso   1.000  H
  H48      1.0000 0.64170  0.61870  0.46190  Biso   1.000  H
  H49      1.0000 0.43950  0.04770  0.22400  Biso   1.000  H
  H50      1.0000 0.56390  0.05330  0.18810  Biso   1.000  H
  H51      1.0000 0.31920  0.22800  0.11020  Biso   1.000  H
  H52      1.0000 0.44400  0.23470  0.07390  Biso   1.000  H
  H53      1.0000 0.61050  0.22200  0.15810  Biso   1.000  H
  H54      1.0000 0.58200  0.20800  0.24360  Biso   1.000  H
  H55      1.0000 0.47900  0.29970  0.18880  Biso   1.000  H
  H56      1.0000 0.39230  0.20820  0.22180  Biso   1.000  H
  C1       1.0000 0.05740  0.24900  0.28530  Biso   1.000  C
  C2       1.0000 0.88000  0.26070  0.27160  Biso   1.000  C
  C3       1.0000 0.10470  0.36090  0.40840  Biso   1.000  C
  C4       1.0000 0.03820  0.30970  0.34140  Biso   1.000  C
  C5       1.0000 0.89750  0.14440  0.86380  Biso   1.000  C
  C6       1.0000 0.93710  0.13470  0.94110  Biso   1.000  C
  C7       1.0000 0.83930  0.59180  0.39590  Biso   1.000  C
  C8       1.0000 0.15430  0.21090  0.26130  Biso   1.000  C
  C9       1.0000 0.06990  0.12280  0.01860  Biso   1.000  C
  C10      1.0000 0.99700  0.57830  0.31570  Biso   1.000  C
  C11      1.0000 0.88660  0.70350  0.38650  Biso   1.000  C
  C12      1.0000 0.04650  0.69140  0.30560  Biso   1.000  C
  C13      1.0000 0.77590  0.13510  0.04620  Biso   1.000  C
  C14      1.0000 0.88920  0.12880  0.01180  Biso   1.000  C
  C15      1.0000 0.44260  0.25100  0.78530  Biso   1.000  C
  C16      1.0000 0.62000  0.23930  0.77160  Biso   1.000  C
  C17      1.0000 0.39530  0.13910  0.90840  Biso   1.000  C
  C18      1.0000 0.46180  0.19030  0.84140  Biso   1.000  C
  C19      1.0000 0.60250  0.35560  0.36380  Biso   1.000  C
  C20      1.0000 0.56290  0.36530  0.44110  Biso   1.000  C
  C21      1.0000 0.66070  0.90820  0.89590  Biso   1.000  C
  C22      1.0000 0.34570  0.28910  0.76130  Biso   1.000  C
  C23      1.0000 0.43010  0.37720  0.51860  Biso   1.000  C
  C24      1.0000 0.50300  0.92170  0.81570  Biso   1.000  C
  C25      1.0000 0.61340  0.79650  0.88650  Biso   1.000  C
  C26      1.0000 0.45350  0.80860  0.80560  Biso   1.000  C
  C27      1.0000 0.72410  0.36490  0.54620  Biso   1.000  C
  C28      1.0000 0.61080  0.37120  0.51180  Biso   1.000  C
  C29      1.0000 0.94260  0.75100  0.71470  Biso   1.000  C
  C30      1.0000 0.12000  0.73930  0.72840  Biso   1.000  C
  C31      1.0000 0.89530  0.63910  0.59160  Biso   1.000  C
  C32      1.0000 0.96180  0.69030  0.65860  Biso   1.000  C
  C33      1.0000 0.10250  0.85560  0.13620  Biso   1.000  C
  C34      1.0000 0.06290  0.86530  0.05890  Biso   1.000  C
  C35      1.0000 0.16070  0.40820  0.60410  Biso   1.000  C
  C36      1.0000 0.84570  0.78910  0.73870  Biso   1.000  C
  C37      1.0000 0.93010  0.87720  0.98140  Biso   1.000  C
  C38      1.0000 0.00300  0.42170  0.68430  Biso   1.000  C
  C39      1.0000 0.11340  0.29650  0.61350  Biso   1.000  C
  C40      1.0000 0.95350  0.30860  0.69440  Biso   1.000  C
  C41      1.0000 0.22410  0.86490  0.95380  Biso   1.000  C
  C42      1.0000 0.11080  0.87120  0.98820  Biso   1.000  C
  C43      1.0000 0.55740  0.74900  0.21470  Biso   1.000  C
  C44      1.0000 0.38000  0.76070  0.22840  Biso   1.000  C
  C45      1.0000 0.60470  0.86090  0.09160  Biso   1.000  C
  C46      1.0000 0.53820  0.80970  0.15860  Biso   1.000  C
  C47      1.0000 0.39750  0.64440  0.63620  Biso   1.000  C
  C48      1.0000 0.43710  0.63470  0.55890  Biso   1.000  C
  C49      1.0000 0.33930  0.09180  0.10410  Biso   1.000  C
  C50      1.0000 0.65430  0.71090  0.23870  Biso   1.000  C
  C51      1.0000 0.56990  0.62280  0.48140  Biso   1.000  C
  C52      1.0000 0.49700  0.07830  0.18430  Biso   1.000  C
  C53      1.0000 0.38660  0.20350  0.11350  Biso   1.000  C
  C54      1.0000 0.54650  0.19140  0.19440  Biso   1.000  C
  C55      1.0000 0.27590  0.63510  0.45380  Biso   1.000  C
  C56      1.0000 0.38920  0.62880  0.48820  Biso   1.000  C
  N1       1.0000 0.95430  0.21810  0.24150  Biso   1.000  N
  N2       1.0000 0.05150  0.13070  0.94690  Biso   1.000  N
  N3       1.0000 0.92580  0.31470  0.33180  Biso   1.000  N
  N4       1.0000 0.93430  0.54690  0.38860  Biso   1.000  N
  N5       1.0000 0.94760  0.73190  0.31480  Biso   1.000  N
  N6       1.0000 0.97510  0.12130  0.05980  Biso   1.000  N
  N7       1.0000 0.54570  0.28190  0.74150  Biso   1.000  N
  N8       1.0000 0.44850  0.36930  0.44690  Biso   1.000  N
  N9       1.0000 0.57420  0.18530  0.83180  Biso   1.000  N
  N10      1.0000 0.56570  0.95310  0.88860  Biso   1.000  N
  N11      1.0000 0.55240  0.76810  0.81480  Biso   1.000  N
  N12      1.0000 0.52490  0.37870  0.55980  Biso   1.000  N
  N13      1.0000 0.04570  0.78190  0.75850  Biso   1.000  N
  N14      1.0000 0.94850  0.86930  0.05310  Biso   1.000  N
  N15      1.0000 0.07420  0.68530  0.66820  Biso   1.000  N
  N16      1.0000 0.06570  0.45310  0.61140  Biso   1.000  N
  N17      1.0000 0.05240  0.26810  0.68520  Biso   1.000  N
  N18      1.0000 0.02490  0.87870  0.94020  Biso   1.000  N
  N19      1.0000 0.45430  0.71810  0.25850  Biso   1.000  N
  N20      1.0000 0.55150  0.63070  0.55310  Biso   1.000  N
  N21      1.0000 0.42580  0.81470  0.16820  Biso   1.000  N
  N22      1.0000 0.43430  0.04690  0.11140  Biso   1.000  N
  N23      1.0000 0.44760  0.23190  0.18520  Biso   1.000  N
  N24      1.0000 0.47510  0.62130  0.44020  Biso   1.000  N
  O1       1.0000 0.86760  0.97780  0.20650  Biso   1.000  O
  O2       1.0000 0.12910  0.15010  0.20880  Biso   1.000  O
  O3       1.0000 0.20740  0.35690  0.42340  Biso   1.000  O
  O4       1.0000 0.04860  0.40070  0.44910  Biso   1.000  O
  O5       1.0000 0.69080  0.14320  0.00720  Biso   1.000  O
  O6       1.0000 0.25910  0.24080  0.29350  Biso   1.000  O
  O7       1.0000 0.79200  0.14170  0.84950  Biso   1.000  O
  O8       1.0000 0.97660  0.15340  0.81380  Biso   1.000  O
  O9       1.0000 0.77270  0.13150  0.11470  Biso   1.000  O
  O10      1.0000 0.63240  0.52220  0.70650  Biso   1.000  O
  O11      1.0000 0.37090  0.34990  0.70880  Biso   1.000  O
  O12      1.0000 0.29260  0.14310  0.92340  Biso   1.000  O
  O13      1.0000 0.45140  0.09930  0.94910  Biso   1.000  O
  O14      1.0000 0.80920  0.35680  0.50720  Biso   1.000  O
  O15      1.0000 0.24090  0.25920  0.79350  Biso   1.000  O
  O16      1.0000 0.70800  0.35830  0.34950  Biso   1.000  O
  O17      1.0000 0.52340  0.34660  0.31380  Biso   1.000  O
  O18      1.0000 0.72730  0.36850  0.61470  Biso   1.000  O
  O19      1.0000 0.13240  0.02220  0.79350  Biso   1.000  O
  O20      1.0000 0.87090  0.84990  0.79120  Biso   1.000  O
  O21      1.0000 0.79260  0.64310  0.57660  Biso   1.000  O
  O22      1.0000 0.95140  0.59930  0.55090  Biso   1.000  O
  O23      1.0000 0.30920  0.85680  0.99280  Biso   1.000  O
  O24      1.0000 0.74090  0.75920  0.70650  Biso   1.000  O
  O25      1.0000 0.20800  0.85830  0.15050  Biso   1.000  O
  O26      1.0000 0.02340  0.84660  0.18620  Biso   1.000  O
  O27      1.0000 0.22730  0.86850  0.88530  Biso   1.000  O
  O28      1.0000 0.36760  0.47780  0.29350  Biso   1.000  O
  O29      1.0000 0.62910  0.65010  0.29120  Biso   1.000  O
  O30      1.0000 0.70740  0.85690  0.07660  Biso   1.000  O
  O31      1.0000 0.54860  0.90070  0.05090  Biso   1.000  O
  O32      1.0000 0.19080  0.64320  0.49280  Biso   1.000  O
  O33      1.0000 0.75910  0.74080  0.20650  Biso   1.000  O
  O34      1.0000 0.29200  0.64170  0.65050  Biso   1.000  O
  O35      1.0000 0.47660  0.65340  0.68620  Biso   1.000  O
  O36      1.0000 0.27270  0.63150  0.38530  Biso   1.000  O
