data_image0
_cell_length_a       11.5228
_cell_length_b       11.5228
_cell_length_c       25.7692
_cell_angle_alpha    90
_cell_angle_beta     90
_cell_angle_gamma    90

_symmetry_space_group_name_H-M    P 1
_symmetry_int_tables_number       1

loop_
  _symmetry_equiv_pos_as_xyz
  'x, y, z'

loop_
  _atom_site_label
  _atom_site_occupancy
  _atom_site_fract_x
  _atom_site_fract_y
  _atom_site_fract_z
  _atom_site_thermal_displace_type
  _atom_site_B_iso_or_equiv
  _atom_site_type_symbol
  Zn1      1.0000 0.59861  0.59861  0.79218  Biso   1.000  Zn
  Zn2      1.0000 0.40139  0.40139  0.79218  Biso   1.000  Zn
  Zn3      1.0000 0.40139  0.59861  0.29218  Biso   1.000  Zn
  Zn4      1.0000 0.59861  0.40139  0.29218  Biso   1.000  Zn
  Zn5      1.0000 0.40139  0.59861  0.70782  Biso   1.000  Zn
  Zn6      1.0000 0.59861  0.40139  0.70782  Biso   1.000  Zn
  Zn7      1.0000 0.59861  0.59861  0.20782  Biso   1.000  Zn
  Zn8      1.0000 0.40139  0.40139  0.20782  Biso   1.000  Zn
  H1       1.0000 0.90950  0.71590  0.81280  Biso   1.000  H
  H2       1.0000 0.82780  0.64510  0.84980  Biso   1.000  H
  H3       1.0000 0.95880  0.61060  0.84440  Biso   1.000  H
  H4       1.0000 0.09050  0.28410  0.81280  Biso   1.000  H
  H5       1.0000 0.17220  0.35490  0.84980  Biso   1.000  H
  H6       1.0000 0.04120  0.38940  0.84440  Biso   1.000  H
  H7       1.0000 0.28410  0.90950  0.31280  Biso   1.000  H
  H8       1.0000 0.35490  0.82780  0.34980  Biso   1.000  H
  H9       1.0000 0.38940  0.95880  0.34440  Biso   1.000  H
  H10      1.0000 0.71590  0.09050  0.31280  Biso   1.000  H
  H11      1.0000 0.64510  0.17220  0.34980  Biso   1.000  H
  H12      1.0000 0.61060  0.04120  0.34440  Biso   1.000  H
  H13      1.0000 0.09050  0.71590  0.68720  Biso   1.000  H
  H14      1.0000 0.17220  0.64510  0.65020  Biso   1.000  H
  H15      1.0000 0.04120  0.61060  0.65560  Biso   1.000  H
  H16      1.0000 0.90950  0.28410  0.68720  Biso   1.000  H
  H17      1.0000 0.82780  0.35490  0.65020  Biso   1.000  H
  H18      1.0000 0.95880  0.38940  0.65560  Biso   1.000  H
  H19      1.0000 0.71590  0.90950  0.18720  Biso   1.000  H
  H20      1.0000 0.64510  0.82780  0.15020  Biso   1.000  H
  H21      1.0000 0.61060  0.95880  0.15560  Biso   1.000  H
  H22      1.0000 0.28410  0.09050  0.18720  Biso   1.000  H
  H23      1.0000 0.35490  0.17220  0.15020  Biso   1.000  H
  H24      1.0000 0.38940  0.04120  0.15560  Biso   1.000  H
  H25      1.0000 0.09050  0.28410  0.18720  Biso   1.000  H
  H26      1.0000 0.17220  0.35490  0.15020  Biso   1.000  H
  H27      1.0000 0.04120  0.38940  0.15560  Biso   1.000  H
  H28      1.0000 0.90950  0.71590  0.18720  Biso   1.000  H
  H29      1.0000 0.82780  0.64510  0.15020  Biso   1.000  H
  H30      1.0000 0.95880  0.61060  0.15560  Biso   1.000  H
  H31      1.0000 0.71590  0.09050  0.68720  Biso   1.000  H
  H32      1.0000 0.64510  0.17220  0.65020  Biso   1.000  H
  H33      1.0000 0.61060  0.04120  0.65560  Biso   1.000  H
  H34      1.0000 0.28410  0.90950  0.68720  Biso   1.000  H
  H35      1.0000 0.35490  0.82780  0.65020  Biso   1.000  H
  H36      1.0000 0.38940  0.95880  0.65560  Biso   1.000  H
  H37      1.0000 0.90950  0.28410  0.31280  Biso   1.000  H
  H38      1.0000 0.82780  0.35490  0.34980  Biso   1.000  H
  H39      1.0000 0.95880  0.38940  0.34440  Biso   1.000  H
  H40      1.0000 0.09050  0.71590  0.31280  Biso   1.000  H
  H41      1.0000 0.17220  0.64510  0.34980  Biso   1.000  H
  H42      1.0000 0.04120  0.61060  0.34440  Biso   1.000  H
  H43      1.0000 0.28410  0.09050  0.81280  Biso   1.000  H
  H44      1.0000 0.35490  0.17220  0.84980  Biso   1.000  H
  H45      1.0000 0.38940  0.04120  0.84440  Biso   1.000  H
  H46      1.0000 0.71590  0.90950  0.81280  Biso   1.000  H
  H47      1.0000 0.64510  0.82780  0.84980  Biso   1.000  H
  H48      1.0000 0.61060  0.95880  0.84440  Biso   1.000  H
  H49      1.0000 0.62110  0.62110  0.95560  Biso   1.000  H
  H50      1.0000 0.37890  0.37890  0.95560  Biso   1.000  H
  H51      1.0000 0.37890  0.62110  0.45560  Biso   1.000  H
  H52      1.0000 0.62110  0.37890  0.45560  Biso   1.000  H
  H53      1.0000 0.37890  0.62110  0.54440  Biso   1.000  H
  H54      1.0000 0.62110  0.37890  0.54440  Biso   1.000  H
  H55      1.0000 0.62110  0.62110  0.04440  Biso   1.000  H
  H56      1.0000 0.37890  0.37890  0.04440  Biso   1.000  H
  C1       1.0000 0.89230  0.64010  0.82630  Biso   1.000  C
  C2       1.0000 0.86250  0.56100  0.78278  Biso   1.000  C
  C3       1.0000 0.10770  0.35990  0.82630  Biso   1.000  C
  C4       1.0000 0.13750  0.43900  0.78278  Biso   1.000  C
  C5       1.0000 0.35990  0.89230  0.32630  Biso   1.000  C
  C6       1.0000 0.43900  0.86250  0.28278  Biso   1.000  C
  C7       1.0000 0.64010  0.10770  0.32630  Biso   1.000  C
  C8       1.0000 0.56100  0.13750  0.28278  Biso   1.000  C
  C9       1.0000 0.10770  0.64010  0.67370  Biso   1.000  C
  C10      1.0000 0.13750  0.56100  0.71722  Biso   1.000  C
  C11      1.0000 0.89230  0.35990  0.67370  Biso   1.000  C
  C12      1.0000 0.86250  0.43900  0.71722  Biso   1.000  C
  C13      1.0000 0.64010  0.89230  0.17370  Biso   1.000  C
  C14      1.0000 0.56100  0.86250  0.21722  Biso   1.000  C
  C15      1.0000 0.35990  0.10770  0.17370  Biso   1.000  C
  C16      1.0000 0.43900  0.13750  0.21722  Biso   1.000  C
  C17      1.0000 0.10770  0.35990  0.17370  Biso   1.000  C
  C18      1.0000 0.13750  0.43900  0.21722  Biso   1.000  C
  C19      1.0000 0.89230  0.64010  0.17370  Biso   1.000  C
  C20      1.0000 0.86250  0.56100  0.21722  Biso   1.000  C
  C21      1.0000 0.64010  0.10770  0.67370  Biso   1.000  C
  C22      1.0000 0.56100  0.13750  0.71722  Biso   1.000  C
  C23      1.0000 0.35990  0.89230  0.67370  Biso   1.000  C
  C24      1.0000 0.43900  0.86250  0.71722  Biso   1.000  C
  C25      1.0000 0.89230  0.35990  0.32630  Biso   1.000  C
  C26      1.0000 0.86250  0.43900  0.28278  Biso   1.000  C
  C27      1.0000 0.10770  0.64010  0.32630  Biso   1.000  C
  C28      1.0000 0.13750  0.56100  0.28278  Biso   1.000  C
  C29      1.0000 0.35990  0.10770  0.82630  Biso   1.000  C
  C30      1.0000 0.43900  0.13750  0.78278  Biso   1.000  C
  C31      1.0000 0.64010  0.89230  0.82630  Biso   1.000  C
  C32      1.0000 0.56100  0.86250  0.78278  Biso   1.000  C
  C33      1.0000 0.57140  0.57140  0.97330  Biso   1.000  C
  C34      1.0000 0.42860  0.42860  0.97330  Biso   1.000  C
  C35      1.0000 0.42860  0.57140  0.47330  Biso   1.000  C
  C36      1.0000 0.57140  0.42860  0.47330  Biso   1.000  C
  C37      1.0000 0.42860  0.57140  0.52670  Biso   1.000  C
  C38      1.0000 0.57140  0.42860  0.52670  Biso   1.000  C
  C39      1.0000 0.57140  0.57140  0.02670  Biso   1.000  C
  C40      1.0000 0.42860  0.42860  0.02670  Biso   1.000  C
  C41      1.0000 0.93520  0.50000  0.75000  Biso   1.000  C
  C42      1.0000 0.06480  0.50000  0.75000  Biso   1.000  C
  C43      1.0000 0.50000  0.93520  0.25000  Biso   1.000  C
  C44      1.0000 0.50000  0.06480  0.25000  Biso   1.000  C
  C45      1.0000 0.06480  0.50000  0.25000  Biso   1.000  C
  C46      1.0000 0.93520  0.50000  0.25000  Biso   1.000  C
  C47      1.0000 0.50000  0.06480  0.75000  Biso   1.000  C
  C48      1.0000 0.50000  0.93520  0.75000  Biso   1.000  C
  C49      1.0000 0.50000  0.50000  0.88810  Biso   1.000  C
  C50      1.0000 0.50000  0.50000  0.94600  Biso   1.000  C
  C51      1.0000 0.50000  0.50000  0.38810  Biso   1.000  C
  C52      1.0000 0.50000  0.50000  0.44600  Biso   1.000  C
  C53      1.0000 0.50000  0.50000  0.61190  Biso   1.000  C
  C54      1.0000 0.50000  0.50000  0.55400  Biso   1.000  C
  C55      1.0000 0.50000  0.50000  0.11190  Biso   1.000  C
  C56      1.0000 0.50000  0.50000  0.05400  Biso   1.000  C
  N1       1.0000 0.75230  0.53850  0.77058  Biso   1.000  N
  N2       1.0000 0.24770  0.46150  0.77058  Biso   1.000  N
  N3       1.0000 0.46150  0.75230  0.27058  Biso   1.000  N
  N4       1.0000 0.53850  0.24770  0.27058  Biso   1.000  N
  N5       1.0000 0.24770  0.53850  0.72942  Biso   1.000  N
  N6       1.0000 0.75230  0.46150  0.72942  Biso   1.000  N
  N7       1.0000 0.53850  0.75230  0.22942  Biso   1.000  N
  N8       1.0000 0.46150  0.24770  0.22942  Biso   1.000  N
  N9       1.0000 0.24770  0.46150  0.22942  Biso   1.000  N
  N10      1.0000 0.75230  0.53850  0.22942  Biso   1.000  N
  N11      1.0000 0.53850  0.24770  0.72942  Biso   1.000  N
  N12      1.0000 0.46150  0.75230  0.72942  Biso   1.000  N
  N13      1.0000 0.75230  0.46150  0.27058  Biso   1.000  N
  N14      1.0000 0.24770  0.53850  0.27058  Biso   1.000  N
  N15      1.0000 0.46150  0.24770  0.77058  Biso   1.000  N
  N16      1.0000 0.53850  0.75230  0.77058  Biso   1.000  N
  O1       1.0000 0.56840  0.56840  0.86619  Biso   1.000  O
  O2       1.0000 0.43160  0.43160  0.86619  Biso   1.000  O
  O3       1.0000 0.43160  0.56840  0.36619  Biso   1.000  O
  O4       1.0000 0.56840  0.43160  0.36619  Biso   1.000  O
  O5       1.0000 0.43160  0.56840  0.63381  Biso   1.000  O
  O6       1.0000 0.56840  0.43160  0.63381  Biso   1.000  O
  O7       1.0000 0.56840  0.56840  0.13381  Biso   1.000  O
  O8       1.0000 0.43160  0.43160  0.13381  Biso   1.000  O
  O9       1.0000 0.50000  0.50000  0.75000  Biso   1.000  O
  O10      1.0000 0.50000  0.50000  0.25000  Biso   1.000  O
