data_image0
_cell_length_a       11.3768
_cell_length_b       12.6162
_cell_length_c       15.3401
_cell_angle_alpha    91.539
_cell_angle_beta     90
_cell_angle_gamma    90

_symmetry_space_group_name_H-M    P 1
_symmetry_int_tables_number       1

loop_
  _symmetry_equiv_pos_as_xyz
  'x, y, z'

loop_
  _atom_site_label
  _atom_site_occupancy
  _atom_site_fract_x
  _atom_site_fract_y
  _atom_site_fract_z
  _atom_site_thermal_displace_type
  _atom_site_B_iso_or_equiv
  _atom_site_type_symbol
  Co1      1.0000 0.90004  0.28766  0.77122  Biso   1.000  Co
  Co2      1.0000 0.99803  0.50599  0.70758  Biso   1.000  Co
  Co3      1.0000 0.40004  0.71234  0.72878  Biso   1.000  Co
  Co4      1.0000 0.49803  0.49401  0.79242  Biso   1.000  Co
  Co5      1.0000 0.09996  0.71234  0.22878  Biso   1.000  Co
  Co6      1.0000 0.00197  0.49401  0.29242  Biso   1.000  Co
  Co7      1.0000 0.59996  0.28766  0.27122  Biso   1.000  Co
  Co8      1.0000 0.50197  0.50599  0.20758  Biso   1.000  Co
  Co9      1.0000 0.00000  0.00000  0.00000  Biso   1.000  Co
  Co10     1.0000 0.50000  0.00000  0.50000  Biso   1.000  Co
  H1       1.0000 0.07400  0.32000  0.06400  Biso   1.000  H
  H2       1.0000 0.00000  0.91900  0.83600  Biso   1.000  H
  H3       1.0000 0.98300  0.03990  0.84300  Biso   1.000  H
  H4       1.0000 0.17200  0.85450  0.98100  Biso   1.000  H
  H5       1.0000 0.20600  0.96100  0.94400  Biso   1.000  H
  H6       1.0000 0.71800  0.25500  0.87100  Biso   1.000  H
  H7       1.0000 0.69100  0.20800  0.78210  Biso   1.000  H
  H8       1.0000 0.85500  0.12660  0.66400  Biso   1.000  H
  H9       1.0000 0.82400  0.22900  0.62100  Biso   1.000  H
  H10      1.0000 0.10900  0.54100  0.56100  Biso   1.000  H
  H11      1.0000 0.06600  0.42780  0.55300  Biso   1.000  H
  H12      1.0000 0.93500  0.67700  0.61950  Biso   1.000  H
  H13      1.0000 0.87000  0.68600  0.70400  Biso   1.000  H
  H14      1.0000 0.57400  0.68000  0.43600  Biso   1.000  H
  H15      1.0000 0.50000  0.08100  0.66400  Biso   1.000  H
  H16      1.0000 0.48300  0.96010  0.65700  Biso   1.000  H
  H17      1.0000 0.67200  0.14550  0.51900  Biso   1.000  H
  H18      1.0000 0.70600  0.03900  0.55600  Biso   1.000  H
  H19      1.0000 0.21800  0.74500  0.62900  Biso   1.000  H
  H20      1.0000 0.19100  0.79200  0.71790  Biso   1.000  H
  H21      1.0000 0.35500  0.87340  0.83600  Biso   1.000  H
  H22      1.0000 0.32400  0.77100  0.87900  Biso   1.000  H
  H23      1.0000 0.60900  0.45900  0.93900  Biso   1.000  H
  H24      1.0000 0.56600  0.57220  0.94700  Biso   1.000  H
  H25      1.0000 0.43500  0.32300  0.88050  Biso   1.000  H
  H26      1.0000 0.37000  0.31400  0.79600  Biso   1.000  H
  H27      1.0000 0.92600  0.68000  0.93600  Biso   1.000  H
  H28      1.0000 0.00000  0.08100  0.16400  Biso   1.000  H
  H29      1.0000 0.01700  0.96010  0.15700  Biso   1.000  H
  H30      1.0000 0.82800  0.14550  0.01900  Biso   1.000  H
  H31      1.0000 0.79400  0.03900  0.05600  Biso   1.000  H
  H32      1.0000 0.28200  0.74500  0.12900  Biso   1.000  H
  H33      1.0000 0.30900  0.79200  0.21790  Biso   1.000  H
  H34      1.0000 0.14500  0.87340  0.33600  Biso   1.000  H
  H35      1.0000 0.17600  0.77100  0.37900  Biso   1.000  H
  H36      1.0000 0.89100  0.45900  0.43900  Biso   1.000  H
  H37      1.0000 0.93400  0.57220  0.44700  Biso   1.000  H
  H38      1.0000 0.06500  0.32300  0.38050  Biso   1.000  H
  H39      1.0000 0.13000  0.31400  0.29600  Biso   1.000  H
  H40      1.0000 0.42600  0.32000  0.56400  Biso   1.000  H
  H41      1.0000 0.50000  0.91900  0.33600  Biso   1.000  H
  H42      1.0000 0.51700  0.03990  0.34300  Biso   1.000  H
  H43      1.0000 0.32800  0.85450  0.48100  Biso   1.000  H
  H44      1.0000 0.29400  0.96100  0.44400  Biso   1.000  H
  H45      1.0000 0.78200  0.25500  0.37100  Biso   1.000  H
  H46      1.0000 0.80900  0.20800  0.28210  Biso   1.000  H
  H47      1.0000 0.64500  0.12660  0.16400  Biso   1.000  H
  H48      1.0000 0.67600  0.22900  0.12100  Biso   1.000  H
  H49      1.0000 0.39100  0.54100  0.06100  Biso   1.000  H
  H50      1.0000 0.43400  0.42780  0.05300  Biso   1.000  H
  H51      1.0000 0.56500  0.67700  0.11950  Biso   1.000  H
  H52      1.0000 0.63000  0.68600  0.20400  Biso   1.000  H
  C1       1.0000 0.11190  0.31790  0.92948  Biso   1.000  C
  C2       1.0000 0.15280  0.37890  0.86109  Biso   1.000  C
  C3       1.0000 0.19360  0.48250  0.87821  Biso   1.000  C
  C4       1.0000 0.18900  0.52740  0.96226  Biso   1.000  C
  C5       1.0000 0.14050  0.46740  0.02933  Biso   1.000  C
  C6       1.0000 0.10720  0.36320  0.01299  Biso   1.000  C
  C7       1.0000 0.06310  0.20830  0.91562  Biso   1.000  C
  C8       1.0000 0.15210  0.33460  0.76873  Biso   1.000  C
  C9       1.0000 0.23380  0.54920  0.80420  Biso   1.000  C
  C10      1.0000 0.23330  0.64000  0.97750  Biso   1.000  C
  C11      1.0000 0.10880  0.51670  0.11586  Biso   1.000  C
  C12      1.0000 0.61190  0.68210  0.57052  Biso   1.000  C
  C13      1.0000 0.65280  0.62110  0.63891  Biso   1.000  C
  C14      1.0000 0.69360  0.51750  0.62179  Biso   1.000  C
  C15      1.0000 0.68900  0.47260  0.53774  Biso   1.000  C
  C16      1.0000 0.64050  0.53260  0.47067  Biso   1.000  C
  C17      1.0000 0.60720  0.63680  0.48701  Biso   1.000  C
  C18      1.0000 0.56310  0.79170  0.58438  Biso   1.000  C
  C19      1.0000 0.65210  0.66540  0.73127  Biso   1.000  C
  C20      1.0000 0.73380  0.45080  0.69580  Biso   1.000  C
  C21      1.0000 0.73330  0.36000  0.52250  Biso   1.000  C
  C22      1.0000 0.60880  0.48330  0.38414  Biso   1.000  C
  C23      1.0000 0.88810  0.68210  0.07052  Biso   1.000  C
  C24      1.0000 0.84720  0.62110  0.13891  Biso   1.000  C
  C25      1.0000 0.80640  0.51750  0.12179  Biso   1.000  C
  C26      1.0000 0.81100  0.47260  0.03774  Biso   1.000  C
  C27      1.0000 0.85950  0.53260  0.97067  Biso   1.000  C
  C28      1.0000 0.89280  0.63680  0.98701  Biso   1.000  C
  C29      1.0000 0.93690  0.79170  0.08438  Biso   1.000  C
  C30      1.0000 0.84790  0.66540  0.23127  Biso   1.000  C
  C31      1.0000 0.76620  0.45080  0.19580  Biso   1.000  C
  C32      1.0000 0.76670  0.36000  0.02250  Biso   1.000  C
  C33      1.0000 0.89120  0.48330  0.88414  Biso   1.000  C
  C34      1.0000 0.38810  0.31790  0.42948  Biso   1.000  C
  C35      1.0000 0.34720  0.37890  0.36109  Biso   1.000  C
  C36      1.0000 0.30640  0.48250  0.37821  Biso   1.000  C
  C37      1.0000 0.31100  0.52740  0.46226  Biso   1.000  C
  C38      1.0000 0.35950  0.46740  0.52933  Biso   1.000  C
  C39      1.0000 0.39280  0.36320  0.51299  Biso   1.000  C
  C40      1.0000 0.43690  0.20830  0.41562  Biso   1.000  C
  C41      1.0000 0.34790  0.33460  0.26873  Biso   1.000  C
  C42      1.0000 0.26620  0.54920  0.30420  Biso   1.000  C
  C43      1.0000 0.26670  0.64000  0.47750  Biso   1.000  C
  C44      1.0000 0.39120  0.51670  0.61586  Biso   1.000  C
  O1       1.0000 0.07881  0.14565  0.97667  Biso   1.000  O
  O2       1.0000 0.00811  0.18520  0.84568  Biso   1.000  O
  O3       1.0000 0.05758  0.34849  0.72448  Biso   1.000  O
  O4       1.0000 0.24048  0.28910  0.74003  Biso   1.000  O
  O5       1.0000 0.16590  0.56497  0.74240  Biso   1.000  O
  O6       1.0000 0.33691  0.58893  0.81084  Biso   1.000  O
  O7       1.0000 0.18143  0.71278  0.93825  Biso   1.000  O
  O8       1.0000 0.32275  0.65348  0.02459  Biso   1.000  O
  O9       1.0000 0.07045  0.45653  0.17373  Biso   1.000  O
  O10      1.0000 0.11596  0.61612  0.12230  Biso   1.000  O
  O11      1.0000 0.96485  0.97399  0.86752  Biso   1.000  O
  O12      1.0000 0.16514  0.92777  0.98762  Biso   1.000  O
  O13      1.0000 0.74838  0.21742  0.82438  Biso   1.000  O
  O14      1.0000 0.87562  0.19482  0.66055  Biso   1.000  O
  O15      1.0000 0.05651  0.49087  0.58525  Biso   1.000  O
  O16      1.0000 0.94014  0.66003  0.67818  Biso   1.000  O
  O17      1.0000 0.57881  0.85435  0.52333  Biso   1.000  O
  O18      1.0000 0.50811  0.81480  0.65432  Biso   1.000  O
  O19      1.0000 0.55758  0.65151  0.77552  Biso   1.000  O
  O20      1.0000 0.74048  0.71090  0.75997  Biso   1.000  O
  O21      1.0000 0.66590  0.43503  0.75760  Biso   1.000  O
  O22      1.0000 0.83691  0.41107  0.68916  Biso   1.000  O
  O23      1.0000 0.68143  0.28722  0.56175  Biso   1.000  O
  O24      1.0000 0.82275  0.34652  0.47541  Biso   1.000  O
  O25      1.0000 0.57045  0.54347  0.32627  Biso   1.000  O
  O26      1.0000 0.61596  0.38388  0.37770  Biso   1.000  O
  O27      1.0000 0.46485  0.02601  0.63248  Biso   1.000  O
  O28      1.0000 0.66514  0.07223  0.51238  Biso   1.000  O
  O29      1.0000 0.24838  0.78258  0.67562  Biso   1.000  O
  O30      1.0000 0.37562  0.80518  0.83945  Biso   1.000  O
  O31      1.0000 0.55651  0.50913  0.91475  Biso   1.000  O
  O32      1.0000 0.44014  0.33997  0.82182  Biso   1.000  O
  O33      1.0000 0.92119  0.85435  0.02333  Biso   1.000  O
  O34      1.0000 0.99189  0.81480  0.15432  Biso   1.000  O
  O35      1.0000 0.94242  0.65151  0.27552  Biso   1.000  O
  O36      1.0000 0.75952  0.71090  0.25997  Biso   1.000  O
  O37      1.0000 0.83410  0.43503  0.25760  Biso   1.000  O
  O38      1.0000 0.66309  0.41107  0.18916  Biso   1.000  O
  O39      1.0000 0.81857  0.28722  0.06175  Biso   1.000  O
  O40      1.0000 0.67725  0.34652  0.97541  Biso   1.000  O
  O41      1.0000 0.92955  0.54347  0.82627  Biso   1.000  O
  O42      1.0000 0.88404  0.38388  0.87770  Biso   1.000  O
  O43      1.0000 0.03515  0.02601  0.13248  Biso   1.000  O
  O44      1.0000 0.83486  0.07223  0.01238  Biso   1.000  O
  O45      1.0000 0.25162  0.78258  0.17562  Biso   1.000  O
  O46      1.0000 0.12438  0.80518  0.33945  Biso   1.000  O
  O47      1.0000 0.94349  0.50913  0.41475  Biso   1.000  O
  O48      1.0000 0.05986  0.33997  0.32182  Biso   1.000  O
  O49      1.0000 0.42119  0.14565  0.47667  Biso   1.000  O
  O50      1.0000 0.49189  0.18520  0.34568  Biso   1.000  O
  O51      1.0000 0.44242  0.34849  0.22448  Biso   1.000  O
  O52      1.0000 0.25952  0.28910  0.24003  Biso   1.000  O
  O53      1.0000 0.33410  0.56497  0.24240  Biso   1.000  O
  O54      1.0000 0.16309  0.58893  0.31084  Biso   1.000  O
  O55      1.0000 0.31857  0.71278  0.43825  Biso   1.000  O
  O56      1.0000 0.17725  0.65348  0.52459  Biso   1.000  O
  O57      1.0000 0.42955  0.45653  0.67373  Biso   1.000  O
  O58      1.0000 0.38404  0.61612  0.62230  Biso   1.000  O
  O59      1.0000 0.53515  0.97399  0.36752  Biso   1.000  O
  O60      1.0000 0.33486  0.92777  0.48762  Biso   1.000  O
  O61      1.0000 0.75162  0.21742  0.32438  Biso   1.000  O
  O62      1.0000 0.62438  0.19482  0.16055  Biso   1.000  O
  O63      1.0000 0.44349  0.49087  0.08525  Biso   1.000  O
  O64      1.0000 0.55986  0.66003  0.17818  Biso   1.000  O
