data_image0
_cell_length_a       6.86417
_cell_length_b       15.1383
_cell_length_c       15.1383
_cell_angle_alpha    62.2423
_cell_angle_beta     81.3068
_cell_angle_gamma    98.6932

_symmetry_space_group_name_H-M    P 1
_symmetry_int_tables_number       1

loop_
  _symmetry_equiv_pos_as_xyz
  'x, y, z'

loop_
  _atom_site_label
  _atom_site_occupancy
  _atom_site_fract_x
  _atom_site_fract_y
  _atom_site_fract_z
  _atom_site_thermal_displace_type
  _atom_site_B_iso_or_equiv
  _atom_site_type_symbol
  Zn1      1.0000 0.61147  0.32827  0.40900  Biso   1.000  Zn
  Zn2      1.0000 0.02047  0.40900  0.26273  Biso   1.000  Zn
  Zn3      1.0000 0.28320  0.26273  0.32827  Biso   1.000  Zn
  Zn4      1.0000 0.38853  0.67173  0.59100  Biso   1.000  Zn
  Zn5      1.0000 0.97953  0.59100  0.73727  Biso   1.000  Zn
  Zn6      1.0000 0.71680  0.73727  0.67173  Biso   1.000  Zn
  H1       1.0000 0.30528  0.47447  0.55466  Biso   1.000  H
  H2       1.0000 0.85994  0.55466  0.97087  Biso   1.000  H
  H3       1.0000 0.83081  0.97087  0.47447  Biso   1.000  H
  H4       1.0000 0.69472  0.52553  0.44534  Biso   1.000  H
  H5       1.0000 0.14006  0.44534  0.02913  Biso   1.000  H
  H6       1.0000 0.16919  0.02913  0.52553  Biso   1.000  H
  C1       1.0000 0.24066  0.39537  0.43485  Biso   1.000  C
  C2       1.0000 0.11331  0.44232  0.47172  Biso   1.000  C
  C3       1.0000 0.93196  0.45739  0.43975  Biso   1.000  C
  C4       1.0000 0.17923  0.48381  0.53433  Biso   1.000  C
  C5       1.0000 0.67551  0.43485  0.16978  Biso   1.000  C
  C6       1.0000 0.58503  0.47172  0.08596  Biso   1.000  C
  C7       1.0000 0.37171  0.43975  0.10286  Biso   1.000  C
  C8       1.0000 0.71356  0.53433  0.98186  Biso   1.000  C
  C9       1.0000 0.84529  0.16978  0.39537  Biso   1.000  C
  C10      1.0000 0.67099  0.08596  0.44232  Biso   1.000  C
  C11      1.0000 0.47457  0.10286  0.45739  Biso   1.000  C
  C12      1.0000 0.69542  0.98186  0.48381  Biso   1.000  C
  C13      1.0000 0.75934  0.60463  0.56515  Biso   1.000  C
  C14      1.0000 0.88669  0.55768  0.52828  Biso   1.000  C
  C15      1.0000 0.06804  0.54261  0.56025  Biso   1.000  C
  C16      1.0000 0.82077  0.51619  0.46567  Biso   1.000  C
  C17      1.0000 0.32449  0.56515  0.83022  Biso   1.000  C
  C18      1.0000 0.41497  0.52828  0.91404  Biso   1.000  C
  C19      1.0000 0.62829  0.56025  0.89714  Biso   1.000  C
  C20      1.0000 0.28644  0.46567  0.01814  Biso   1.000  C
  C21      1.0000 0.15471  0.83022  0.60463  Biso   1.000  C
  C22      1.0000 0.32901  0.91404  0.55768  Biso   1.000  C
  C23      1.0000 0.52543  0.89714  0.54261  Biso   1.000  C
  C24      1.0000 0.30458  0.01814  0.51619  Biso   1.000  C
  O1       1.0000 0.39530  0.37627  0.46942  Biso   1.000  O
  O2       1.0000 0.17912  0.35425  0.38467  Biso   1.000  O
  O3       1.0000 0.88786  0.43302  0.36558  Biso   1.000  O
  O4       1.0000 0.86472  0.46942  0.15431  Biso   1.000  O
  O5       1.0000 0.56379  0.38467  0.26108  Biso   1.000  O
  O6       1.0000 0.25344  0.36558  0.20140  Biso   1.000  O
  O7       1.0000 0.01903  0.15431  0.37627  Biso   1.000  O
  O8       1.0000 0.82487  0.26108  0.35425  Biso   1.000  O
  O9       1.0000 0.45484  0.20140  0.43302  Biso   1.000  O
  O10      1.0000 0.60470  0.62373  0.53058  Biso   1.000  O
  O11      1.0000 0.82088  0.64575  0.61533  Biso   1.000  O
  O12      1.0000 0.11214  0.56698  0.63442  Biso   1.000  O
  O13      1.0000 0.13528  0.53058  0.84569  Biso   1.000  O
  O14      1.0000 0.43621  0.61533  0.73892  Biso   1.000  O
  O15      1.0000 0.74656  0.63442  0.79860  Biso   1.000  O
  O16      1.0000 0.98097  0.84569  0.62373  Biso   1.000  O
  O17      1.0000 0.17513  0.73892  0.64575  Biso   1.000  O
  O18      1.0000 0.54516  0.79860  0.56698  Biso   1.000  O
