data_image0
_cell_length_a       6.66939
_cell_length_b       15.3228
_cell_length_c       15.3228
_cell_angle_alpha    62.0679
_cell_angle_beta     81.6577
_cell_angle_gamma    98.3423

_symmetry_space_group_name_H-M    P 1
_symmetry_int_tables_number       1

loop_
  _symmetry_equiv_pos_as_xyz
  'x, y, z'

loop_
  _atom_site_label
  _atom_site_occupancy
  _atom_site_fract_x
  _atom_site_fract_y
  _atom_site_fract_z
  _atom_site_thermal_displace_type
  _atom_site_B_iso_or_equiv
  _atom_site_type_symbol
  Zn1      1.0000 0.38338  0.42634  0.31100  Biso   1.000  Zn
  Zn2      1.0000 0.69438  0.31100  0.26266  Biso   1.000  Zn
  Zn3      1.0000 0.95704  0.26266  0.42634  Biso   1.000  Zn
  Zn4      1.0000 0.61662  0.57366  0.68900  Biso   1.000  Zn
  Zn5      1.0000 0.30562  0.68900  0.73734  Biso   1.000  Zn
  Zn6      1.0000 0.04296  0.73734  0.57366  Biso   1.000  Zn
  H1       1.0000 0.68290  0.54990  0.46920  Biso   1.000  H
  H2       1.0000 0.31580  0.60460  0.25420  Biso   1.000  H
  H3       1.0000 0.20400  0.57200  0.20900  Biso   1.000  H
  H4       1.0000 0.15210  0.46920  0.98090  Biso   1.000  H
  H5       1.0000 0.57000  0.25420  0.14120  Biso   1.000  H
  H6       1.0000 0.41300  0.20900  0.21900  Biso   1.000  H
  H7       1.0000 0.13300  0.98090  0.54990  Biso   1.000  H
  H8       1.0000 0.71120  0.14120  0.60460  Biso   1.000  H
  H9       1.0000 0.63200  0.21900  0.57200  Biso   1.000  H
  H10      1.0000 0.31710  0.45010  0.53080  Biso   1.000  H
  H11      1.0000 0.68420  0.39540  0.74580  Biso   1.000  H
  H12      1.0000 0.79600  0.42800  0.79100  Biso   1.000  H
  H13      1.0000 0.84790  0.53080  0.01910  Biso   1.000  H
  H14      1.0000 0.43000  0.74580  0.85880  Biso   1.000  H
  H15      1.0000 0.58700  0.79100  0.78100  Biso   1.000  H
  H16      1.0000 0.86700  0.01910  0.45010  Biso   1.000  H
  H17      1.0000 0.28880  0.85880  0.39540  Biso   1.000  H
  H18      1.0000 0.36800  0.78100  0.42800  Biso   1.000  H
  C1       1.0000 0.75591  0.43847  0.38624  Biso   1.000  C
  C2       1.0000 0.88539  0.46611  0.44634  Biso   1.000  C
  C3       1.0000 0.82019  0.53018  0.48071  Biso   1.000  C
  C4       1.0000 0.07109  0.43437  0.46770  Biso   1.000  C
  C5       1.0000 0.14215  0.38624  0.17529  Biso   1.000  C
  C6       1.0000 0.33173  0.44634  0.08755  Biso   1.000  C
  C7       1.0000 0.30090  0.48071  0.98911  Biso   1.000  C
  C8       1.0000 0.53879  0.46770  0.09793  Biso   1.000  C
  C9       1.0000 0.31744  0.17529  0.43847  Biso   1.000  C
  C10      1.0000 0.41928  0.08755  0.46611  Biso   1.000  C
  C11      1.0000 0.29001  0.98911  0.53018  Biso   1.000  C
  C12      1.0000 0.63672  0.09793  0.43437  Biso   1.000  C
  C13      1.0000 0.24409  0.56153  0.61376  Biso   1.000  C
  C14      1.0000 0.11461  0.53389  0.55366  Biso   1.000  C
  C15      1.0000 0.17981  0.46982  0.51929  Biso   1.000  C
  C16      1.0000 0.92891  0.56563  0.53230  Biso   1.000  C
  C17      1.0000 0.85785  0.61376  0.82471  Biso   1.000  C
  C18      1.0000 0.66827  0.55366  0.91245  Biso   1.000  C
  C19      1.0000 0.69910  0.51929  0.01089  Biso   1.000  C
  C20      1.0000 0.46121  0.53230  0.90207  Biso   1.000  C
  C21      1.0000 0.68256  0.82471  0.56153  Biso   1.000  C
  C22      1.0000 0.58072  0.91245  0.53389  Biso   1.000  C
  C23      1.0000 0.70999  0.01089  0.46982  Biso   1.000  C
  C24      1.0000 0.36328  0.90207  0.56563  Biso   1.000  C
  O1       1.0000 0.60356  0.47753  0.36635  Biso   1.000  O
  O2       1.0000 0.80490  0.37884  0.35634  Biso   1.000  O
  O3       1.0000 0.14764  0.37009  0.44017  Biso   1.000  O
  O4       1.0000 0.31292  0.56922  0.22866  Biso   1.000  O
  O5       1.0000 0.96991  0.36635  0.15612  Biso   1.000  O
  O6       1.0000 0.16124  0.35634  0.26482  Biso   1.000  O
  O7       1.0000 0.58781  0.44017  0.18974  Biso   1.000  O
  O8       1.0000 0.54158  0.22866  0.20212  Biso   1.000  O
  O9       1.0000 0.12603  0.15612  0.47753  Biso   1.000  O
  O10      1.0000 0.42606  0.26482  0.37884  Biso   1.000  O
  O11      1.0000 0.77755  0.18974  0.37009  Biso   1.000  O
  O12      1.0000 0.74370  0.20212  0.56922  Biso   1.000  O
  O13      1.0000 0.39644  0.52247  0.63365  Biso   1.000  O
  O14      1.0000 0.19510  0.62116  0.64366  Biso   1.000  O
  O15      1.0000 0.85236  0.62991  0.55983  Biso   1.000  O
  O16      1.0000 0.68708  0.43078  0.77134  Biso   1.000  O
  O17      1.0000 0.03009  0.63365  0.84388  Biso   1.000  O
  O18      1.0000 0.83876  0.64366  0.73518  Biso   1.000  O
  O19      1.0000 0.41219  0.55983  0.81026  Biso   1.000  O
  O20      1.0000 0.45842  0.77134  0.79788  Biso   1.000  O
  O21      1.0000 0.87397  0.84388  0.52247  Biso   1.000  O
  O22      1.0000 0.57394  0.73518  0.62116  Biso   1.000  O
  O23      1.0000 0.22245  0.81026  0.62991  Biso   1.000  O
  O24      1.0000 0.25630  0.79788  0.43078  Biso   1.000  O
