data_image0
_cell_length_a       8.509
_cell_length_b       13.153
_cell_length_c       13.9945
_cell_angle_alpha    118.03
_cell_angle_beta     90.64
_cell_angle_gamma    90

_symmetry_space_group_name_H-M    P 1
_symmetry_int_tables_number       1

loop_
  _symmetry_equiv_pos_as_xyz
  'x, y, z'

loop_
  _atom_site_label
  _atom_site_occupancy
  _atom_site_fract_x
  _atom_site_fract_y
  _atom_site_fract_z
  _atom_site_thermal_displace_type
  _atom_site_B_iso_or_equiv
  _atom_site_type_symbol
  Cu1      1.0000 0.55381  0.08962  0.58871  Biso   1.000  Cu
  Cu2      1.0000 0.94619  0.50091  0.41129  Biso   1.000  Cu
  Cu3      1.0000 0.44619  0.91038  0.41129  Biso   1.000  Cu
  Cu4      1.0000 0.05381  0.49909  0.58871  Biso   1.000  Cu
  H1       1.0000 0.65160  0.34140  0.66260  Biso   1.000  H
  H2       1.0000 0.80650  0.48790  0.79020  Biso   1.000  H
  H3       1.0000 0.89700  0.28570  0.93060  Biso   1.000  H
  H4       1.0000 0.73630  0.14580  0.80060  Biso   1.000  H
  H5       1.0000 0.97480  0.56710  0.94920  Biso   1.000  H
  H6       1.0000 0.09610  0.07160  0.72440  Biso   1.000  H
  H7       1.0000 0.00480  0.08250  0.62900  Biso   1.000  H
  H8       1.0000 0.90940  0.92040  0.64460  Biso   1.000  H
  H9       1.0000 0.98670  0.87880  0.52840  Biso   1.000  H
  H10      1.0000 0.13510  0.86890  0.70820  Biso   1.000  H
  H11      1.0000 0.22550  0.83940  0.59880  Biso   1.000  H
  H12      1.0000 0.84840  0.67880  0.33740  Biso   1.000  H
  H13      1.0000 0.69350  0.69770  0.20980  Biso   1.000  H
  H14      1.0000 0.60300  0.35510  0.06940  Biso   1.000  H
  H15      1.0000 0.76370  0.34520  0.19940  Biso   1.000  H
  H16      1.0000 0.52520  0.61790  0.05080  Biso   1.000  H
  H17      1.0000 0.40390  0.34720  0.27560  Biso   1.000  H
  H18      1.0000 0.49520  0.45350  0.37100  Biso   1.000  H
  H19      1.0000 0.59060  0.27580  0.35540  Biso   1.000  H
  H20      1.0000 0.51330  0.35040  0.47160  Biso   1.000  H
  H21      1.0000 0.36490  0.16070  0.29180  Biso   1.000  H
  H22      1.0000 0.27450  0.24060  0.40120  Biso   1.000  H
  H23      1.0000 0.34840  0.65860  0.33740  Biso   1.000  H
  H24      1.0000 0.19350  0.51210  0.20980  Biso   1.000  H
  H25      1.0000 0.10300  0.71430  0.06940  Biso   1.000  H
  H26      1.0000 0.26370  0.85420  0.19940  Biso   1.000  H
  H27      1.0000 0.02520  0.43290  0.05080  Biso   1.000  H
  H28      1.0000 0.90390  0.92840  0.27560  Biso   1.000  H
  H29      1.0000 0.99520  0.91750  0.37100  Biso   1.000  H
  H30      1.0000 0.09060  0.07960  0.35540  Biso   1.000  H
  H31      1.0000 0.01330  0.12120  0.47160  Biso   1.000  H
  H32      1.0000 0.86490  0.13110  0.29180  Biso   1.000  H
  H33      1.0000 0.77450  0.16060  0.40120  Biso   1.000  H
  H34      1.0000 0.15160  0.32120  0.66260  Biso   1.000  H
  H35      1.0000 0.30650  0.30230  0.79020  Biso   1.000  H
  H36      1.0000 0.39700  0.64490  0.93060  Biso   1.000  H
  H37      1.0000 0.23630  0.65480  0.80060  Biso   1.000  H
  H38      1.0000 0.47480  0.38210  0.94920  Biso   1.000  H
  H39      1.0000 0.59610  0.65280  0.72440  Biso   1.000  H
  H40      1.0000 0.50480  0.54650  0.62900  Biso   1.000  H
  H41      1.0000 0.40940  0.72420  0.64460  Biso   1.000  H
  H42      1.0000 0.48670  0.64960  0.52840  Biso   1.000  H
  H43      1.0000 0.63510  0.83930  0.70820  Biso   1.000  H
  H44      1.0000 0.72550  0.75940  0.59880  Biso   1.000  H
  C1       1.0000 0.70080  0.33052  0.71842  Biso   1.000  C
  C2       1.0000 0.79420  0.41814  0.79408  Biso   1.000  C
  C3       1.0000 0.86830  0.40486  0.87652  Biso   1.000  C
  C4       1.0000 0.84610  0.29979  0.87718  Biso   1.000  C
  C5       1.0000 0.75050  0.21647  0.79874  Biso   1.000  C
  C6       1.0000 0.96370  0.49995  0.95770  Biso   1.000  C
  C7       1.0000 0.23550  0.03055  0.59188  Biso   1.000  C
  C8       1.0000 0.07960  0.03463  0.64492  Biso   1.000  C
  C9       1.0000 0.00960  0.91413  0.60696  Biso   1.000  C
  C10      1.0000 0.12170  0.83666  0.62884  Biso   1.000  C
  C11      1.0000 0.07100  0.71216  0.58250  Biso   1.000  C
  C12      1.0000 0.79920  0.61210  0.28158  Biso   1.000  C
  C13      1.0000 0.70580  0.62406  0.20592  Biso   1.000  C
  C14      1.0000 0.63170  0.52834  0.12348  Biso   1.000  C
  C15      1.0000 0.65390  0.42261  0.12282  Biso   1.000  C
  C16      1.0000 0.74950  0.41773  0.20126  Biso   1.000  C
  C17      1.0000 0.53630  0.54225  0.04230  Biso   1.000  C
  C18      1.0000 0.26450  0.43867  0.40812  Biso   1.000  C
  C19      1.0000 0.42040  0.38971  0.35508  Biso   1.000  C
  C20      1.0000 0.49040  0.30717  0.39304  Biso   1.000  C
  C21      1.0000 0.37830  0.20782  0.37116  Biso   1.000  C
  C22      1.0000 0.42900  0.12966  0.41750  Biso   1.000  C
  C23      1.0000 0.29920  0.66948  0.28158  Biso   1.000  C
  C24      1.0000 0.20580  0.58186  0.20592  Biso   1.000  C
  C25      1.0000 0.13170  0.59514  0.12348  Biso   1.000  C
  C26      1.0000 0.15390  0.70021  0.12282  Biso   1.000  C
  C27      1.0000 0.24950  0.78353  0.20126  Biso   1.000  C
  C28      1.0000 0.03630  0.50005  0.04230  Biso   1.000  C
  C29      1.0000 0.76450  0.96945  0.40812  Biso   1.000  C
  C30      1.0000 0.92040  0.96537  0.35508  Biso   1.000  C
  C31      1.0000 0.99040  0.08587  0.39304  Biso   1.000  C
  C32      1.0000 0.87830  0.16334  0.37116  Biso   1.000  C
  C33      1.0000 0.92900  0.28784  0.41750  Biso   1.000  C
  C34      1.0000 0.20080  0.38790  0.71842  Biso   1.000  C
  C35      1.0000 0.29420  0.37594  0.79408  Biso   1.000  C
  C36      1.0000 0.36830  0.47166  0.87652  Biso   1.000  C
  C37      1.0000 0.34610  0.57739  0.87718  Biso   1.000  C
  C38      1.0000 0.25050  0.58227  0.79874  Biso   1.000  C
  C39      1.0000 0.46370  0.45775  0.95770  Biso   1.000  C
  C40      1.0000 0.73550  0.56133  0.59188  Biso   1.000  C
  C41      1.0000 0.57960  0.61029  0.64492  Biso   1.000  C
  C42      1.0000 0.50960  0.69283  0.60696  Biso   1.000  C
  C43      1.0000 0.62170  0.79218  0.62884  Biso   1.000  C
  C44      1.0000 0.57100  0.87034  0.58250  Biso   1.000  C
  N1       1.0000 0.67640  0.23040  0.72034  Biso   1.000  N
  N2       1.0000 0.82360  0.51006  0.27966  Biso   1.000  N
  N3       1.0000 0.32360  0.76960  0.27966  Biso   1.000  N
  N4       1.0000 0.17640  0.48994  0.72034  Biso   1.000  N
  O1       1.0000 0.34118  0.10147  0.64834  Biso   1.000  O
  O2       1.0000 0.25047  0.95612  0.49524  Biso   1.000  O
  O3       1.0000 0.09630  0.66364  0.63976  Biso   1.000  O
  O4       1.0000 0.01100  0.66433  0.48904  Biso   1.000  O
  O5       1.0000 0.15882  0.45313  0.35166  Biso   1.000  O
  O6       1.0000 0.24953  0.46088  0.50476  Biso   1.000  O
  O7       1.0000 0.40370  0.02388  0.36024  Biso   1.000  O
  O8       1.0000 0.48900  0.17529  0.51096  Biso   1.000  O
  O9       1.0000 0.65882  0.89853  0.35166  Biso   1.000  O
  O10      1.0000 0.74953  0.04388  0.50476  Biso   1.000  O
  O11      1.0000 0.90370  0.33636  0.36024  Biso   1.000  O
  O12      1.0000 0.98900  0.33567  0.51096  Biso   1.000  O
  O13      1.0000 0.84118  0.54687  0.64834  Biso   1.000  O
  O14      1.0000 0.75047  0.53912  0.49524  Biso   1.000  O
  O15      1.0000 0.59630  0.97612  0.63976  Biso   1.000  O
  O16      1.0000 0.51100  0.82471  0.48904  Biso   1.000  O
