data_image0
_cell_length_a       6.9149
_cell_length_b       22.113
_cell_length_c       7.7209
_cell_angle_alpha    90
_cell_angle_beta     90
_cell_angle_gamma    90

_symmetry_space_group_name_H-M    P 1
_symmetry_int_tables_number       1

loop_
  _symmetry_equiv_pos_as_xyz
  'x, y, z'

loop_
  _atom_site_label
  _atom_site_occupancy
  _atom_site_fract_x
  _atom_site_fract_y
  _atom_site_fract_z
  _atom_site_thermal_displace_type
  _atom_site_B_iso_or_equiv
  _atom_site_type_symbol
  Co1      1.0000 0.54170  0.28748  0.75775  Biso   1.000  Co
  Co2      1.0000 0.45830  0.71252  0.75775  Biso   1.000  Co
  Co3      1.0000 0.04170  0.21252  0.24225  Biso   1.000  Co
  Co4      1.0000 0.95830  0.78748  0.24225  Biso   1.000  Co
  H1       1.0000 0.33710  0.19640  0.86080  Biso   1.000  H
  H2       1.0000 0.38850  0.18470  0.67540  Biso   1.000  H
  H3       1.0000 0.55740  0.12540  0.89810  Biso   1.000  H
  H4       1.0000 0.64790  0.11230  0.61860  Biso   1.000  H
  H5       1.0000 0.84120  0.12350  0.72640  Biso   1.000  H
  H6       1.0000 0.49200  0.42420  0.66230  Biso   1.000  H
  H7       1.0000 0.68060  0.51160  0.63690  Biso   1.000  H
  H8       1.0000 0.15680  0.41600  0.77340  Biso   1.000  H
  H9       1.0000 0.96820  0.32860  0.79880  Biso   1.000  H
  H10      1.0000 0.66290  0.80360  0.86080  Biso   1.000  H
  H11      1.0000 0.61150  0.81530  0.67540  Biso   1.000  H
  H12      1.0000 0.44260  0.87460  0.89810  Biso   1.000  H
  H13      1.0000 0.35210  0.88770  0.61860  Biso   1.000  H
  H14      1.0000 0.15880  0.87650  0.72640  Biso   1.000  H
  H15      1.0000 0.50800  0.57580  0.66230  Biso   1.000  H
  H16      1.0000 0.31940  0.48840  0.63690  Biso   1.000  H
  H17      1.0000 0.84320  0.58400  0.77340  Biso   1.000  H
  H18      1.0000 0.03180  0.67140  0.79880  Biso   1.000  H
  H19      1.0000 0.83710  0.30360  0.13920  Biso   1.000  H
  H20      1.0000 0.88850  0.31530  0.32460  Biso   1.000  H
  H21      1.0000 0.05740  0.37460  0.10190  Biso   1.000  H
  H22      1.0000 0.14790  0.38770  0.38140  Biso   1.000  H
  H23      1.0000 0.34120  0.37650  0.27360  Biso   1.000  H
  H24      1.0000 0.99200  0.07580  0.33770  Biso   1.000  H
  H25      1.0000 0.18060  0.98840  0.36310  Biso   1.000  H
  H26      1.0000 0.65680  0.08400  0.22660  Biso   1.000  H
  H27      1.0000 0.46820  0.17140  0.20120  Biso   1.000  H
  H28      1.0000 0.16290  0.69640  0.13920  Biso   1.000  H
  H29      1.0000 0.11150  0.68470  0.32460  Biso   1.000  H
  H30      1.0000 0.94260  0.62540  0.10190  Biso   1.000  H
  H31      1.0000 0.85210  0.61230  0.38140  Biso   1.000  H
  H32      1.0000 0.65880  0.62350  0.27360  Biso   1.000  H
  H33      1.0000 0.00800  0.92420  0.33770  Biso   1.000  H
  H34      1.0000 0.81940  0.01160  0.36310  Biso   1.000  H
  H35      1.0000 0.34320  0.91600  0.22660  Biso   1.000  H
  H36      1.0000 0.53180  0.82860  0.20120  Biso   1.000  H
  C1       1.0000 0.73130  0.19870  0.95920  Biso   1.000  C
  C2       1.0000 0.60420  0.16240  0.83640  Biso   1.000  C
  C3       1.0000 0.72220  0.14330  0.68300  Biso   1.000  C
  C4       1.0000 0.78400  0.19450  0.55040  Biso   1.000  C
  C5       1.0000 0.62700  0.42260  0.68490  Biso   1.000  C
  C6       1.0000 0.73900  0.47450  0.66970  Biso   1.000  C
  C7       1.0000 0.93650  0.47200  0.70270  Biso   1.000  C
  C8       1.0000 0.02190  0.41770  0.75080  Biso   1.000  C
  C9       1.0000 0.91000  0.36580  0.76600  Biso   1.000  C
  C10      1.0000 0.26870  0.80130  0.95920  Biso   1.000  C
  C11      1.0000 0.39580  0.83760  0.83640  Biso   1.000  C
  C12      1.0000 0.27780  0.85670  0.68300  Biso   1.000  C
  C13      1.0000 0.21600  0.80550  0.55040  Biso   1.000  C
  C14      1.0000 0.37300  0.57740  0.68490  Biso   1.000  C
  C15      1.0000 0.26100  0.52550  0.66970  Biso   1.000  C
  C16      1.0000 0.06350  0.52800  0.70270  Biso   1.000  C
  C17      1.0000 0.97810  0.58230  0.75080  Biso   1.000  C
  C18      1.0000 0.09000  0.63420  0.76600  Biso   1.000  C
  C19      1.0000 0.23130  0.30130  0.04080  Biso   1.000  C
  C20      1.0000 0.10420  0.33760  0.16360  Biso   1.000  C
  C21      1.0000 0.22220  0.35670  0.31700  Biso   1.000  C
  C22      1.0000 0.28400  0.30550  0.44960  Biso   1.000  C
  C23      1.0000 0.12700  0.07740  0.31510  Biso   1.000  C
  C24      1.0000 0.23900  0.02550  0.33030  Biso   1.000  C
  C25      1.0000 0.43650  0.02800  0.29730  Biso   1.000  C
  C26      1.0000 0.52190  0.08230  0.24920  Biso   1.000  C
  C27      1.0000 0.41000  0.13420  0.23400  Biso   1.000  C
  C28      1.0000 0.76870  0.69870  0.04080  Biso   1.000  C
  C29      1.0000 0.89580  0.66240  0.16360  Biso   1.000  C
  C30      1.0000 0.77780  0.64330  0.31700  Biso   1.000  C
  C31      1.0000 0.71600  0.69450  0.44960  Biso   1.000  C
  C32      1.0000 0.87300  0.92260  0.31510  Biso   1.000  C
  C33      1.0000 0.76100  0.97450  0.33030  Biso   1.000  C
  C34      1.0000 0.56350  0.97200  0.29730  Biso   1.000  C
  C35      1.0000 0.47810  0.91770  0.24920  Biso   1.000  C
  C36      1.0000 0.59000  0.86580  0.23400  Biso   1.000  C
  N1       1.0000 0.43470  0.19830  0.78010  Biso   1.000  N
  N2       1.0000 0.71200  0.36820  0.73300  Biso   1.000  N
  N3       1.0000 0.56530  0.80170  0.78010  Biso   1.000  N
  N4       1.0000 0.28800  0.63180  0.73300  Biso   1.000  N
  N5       1.0000 0.93470  0.30170  0.21990  Biso   1.000  N
  N6       1.0000 0.21200  0.13180  0.26700  Biso   1.000  N
  N7       1.0000 0.06530  0.69830  0.21990  Biso   1.000  N
  N8       1.0000 0.78800  0.86820  0.26700  Biso   1.000  N
  O1       1.0000 0.84370  0.17080  0.06150  Biso   1.000  O
  O2       1.0000 0.70400  0.25510  0.96330  Biso   1.000  O
  O3       1.0000 0.74640  0.24700  0.58140  Biso   1.000  O
  O4       1.0000 0.88560  0.17290  0.43320  Biso   1.000  O
  O5       1.0000 0.15630  0.82920  0.06150  Biso   1.000  O
  O6       1.0000 0.29600  0.74490  0.96330  Biso   1.000  O
  O7       1.0000 0.25360  0.75300  0.58140  Biso   1.000  O
  O8       1.0000 0.11440  0.82710  0.43320  Biso   1.000  O
  O9       1.0000 0.34370  0.32920  0.93850  Biso   1.000  O
  O10      1.0000 0.20400  0.24490  0.03670  Biso   1.000  O
  O11      1.0000 0.24640  0.25300  0.41860  Biso   1.000  O
  O12      1.0000 0.38560  0.32710  0.56680  Biso   1.000  O
  O13      1.0000 0.65630  0.67080  0.93850  Biso   1.000  O
  O14      1.0000 0.79600  0.75510  0.03670  Biso   1.000  O
  O15      1.0000 0.75360  0.74700  0.41860  Biso   1.000  O
  O16      1.0000 0.61440  0.67290  0.56680  Biso   1.000  O
