data_image0
_cell_length_a       8.491
_cell_length_b       19.915
_cell_length_c       22.077
_cell_angle_alpha    90
_cell_angle_beta     90
_cell_angle_gamma    90

_symmetry_space_group_name_H-M    P 1
_symmetry_int_tables_number       1

loop_
  _symmetry_equiv_pos_as_xyz
  'x, y, z'

loop_
  _atom_site_label
  _atom_site_occupancy
  _atom_site_fract_x
  _atom_site_fract_y
  _atom_site_fract_z
  _atom_site_thermal_displace_type
  _atom_site_B_iso_or_equiv
  _atom_site_type_symbol
  K1       1.0000 0.14830  0.00610  0.65120  Biso   1.000  K
  K2       1.0000 0.35170  0.99390  0.15120  Biso   1.000  K
  K3       1.0000 0.85170  0.50610  0.84880  Biso   1.000  K
  K4       1.0000 0.64830  0.49390  0.34880  Biso   1.000  K
  Cu1      1.0000 0.00160  0.07260  0.40672  Biso   1.000  Cu
  Cu2      1.0000 0.69480  0.16900  0.36400  Biso   1.000  Cu
  Cu3      1.0000 0.49840  0.92740  0.90672  Biso   1.000  Cu
  Cu4      1.0000 0.80520  0.83100  0.86400  Biso   1.000  Cu
  Cu5      1.0000 0.99840  0.57260  0.09328  Biso   1.000  Cu
  Cu6      1.0000 0.30520  0.66900  0.13600  Biso   1.000  Cu
  Cu7      1.0000 0.50160  0.42740  0.59328  Biso   1.000  Cu
  Cu8      1.0000 0.19480  0.33100  0.63600  Biso   1.000  Cu
  H1       1.0000 0.84479  0.16238  0.46065  Biso   1.000  H
  H2       1.0000 0.83196  0.94859  0.55058  Biso   1.000  H
  H3       1.0000 0.64787  0.97264  0.62970  Biso   1.000  H
  H4       1.0000 0.64728  0.08252  0.66964  Biso   1.000  H
  H5       1.0000 0.77126  0.17040  0.61987  Biso   1.000  H
  H6       1.0000 0.94629  0.14676  0.54056  Biso   1.000  H
  H7       1.0000 0.33271  0.88046  0.46387  Biso   1.000  H
  H8       1.0000 0.40840  0.85631  0.36415  Biso   1.000  H
  H9       1.0000 0.32198  0.92469  0.28009  Biso   1.000  H
  H10      1.0000 0.91556  0.09437  0.20849  Biso   1.000  H
  H11      1.0000 0.83708  0.18128  0.14834  Biso   1.000  H
  H12      1.0000 0.86651  0.29227  0.18848  Biso   1.000  H
  H13      1.0000 0.96292  0.30999  0.28588  Biso   1.000  H
  H14      1.0000 0.05768  0.21749  0.34365  Biso   1.000  H
  H15      1.0000 0.35555  0.14718  0.18535  Biso   1.000  H
  H16      1.0000 0.31197  0.26192  0.17362  Biso   1.000  H
  H17      1.0000 0.43234  0.34040  0.23974  Biso   1.000  H
  H18      1.0000 0.77723  0.98539  0.25715  Biso   1.000  H
  H19      1.0000 0.87116  0.88269  0.29085  Biso   1.000  H
  H20      1.0000 0.84601  0.84983  0.39415  Biso   1.000  H
  H21      1.0000 0.71551  0.91238  0.46170  Biso   1.000  H
  H22      1.0000 0.64767  0.02530  0.43362  Biso   1.000  H
  H23      1.0000 0.65331  0.23620  0.49616  Biso   1.000  H
  H24      1.0000 0.76184  0.28892  0.58537  Biso   1.000  H
  H25      1.0000 0.91637  0.38288  0.57525  Biso   1.000  H
  H26      1.0000 0.98726  0.42111  0.48364  Biso   1.000  H
  H27      1.0000 0.89191  0.37111  0.39210  Biso   1.000  H
  H28      1.0000 0.65521  0.83762  0.96065  Biso   1.000  H
  H29      1.0000 0.66804  0.05141  0.05058  Biso   1.000  H
  H30      1.0000 0.85213  0.02736  0.12970  Biso   1.000  H
  H31      1.0000 0.85272  0.91748  0.16964  Biso   1.000  H
  H32      1.0000 0.72874  0.82960  0.11987  Biso   1.000  H
  H33      1.0000 0.55371  0.85324  0.04056  Biso   1.000  H
  H34      1.0000 0.16729  0.11954  0.96387  Biso   1.000  H
  H35      1.0000 0.09160  0.14369  0.86415  Biso   1.000  H
  H36      1.0000 0.17802  0.07531  0.78009  Biso   1.000  H
  H37      1.0000 0.58444  0.90563  0.70849  Biso   1.000  H
  H38      1.0000 0.66292  0.81872  0.64834  Biso   1.000  H
  H39      1.0000 0.63349  0.70773  0.68848  Biso   1.000  H
  H40      1.0000 0.53708  0.69001  0.78588  Biso   1.000  H
  H41      1.0000 0.44232  0.78251  0.84365  Biso   1.000  H
  H42      1.0000 0.14445  0.85282  0.68535  Biso   1.000  H
  H43      1.0000 0.18803  0.73808  0.67362  Biso   1.000  H
  H44      1.0000 0.06766  0.65960  0.73974  Biso   1.000  H
  H45      1.0000 0.72277  0.01461  0.75715  Biso   1.000  H
  H46      1.0000 0.62884  0.11731  0.79085  Biso   1.000  H
  H47      1.0000 0.65399  0.15017  0.89415  Biso   1.000  H
  H48      1.0000 0.78449  0.08762  0.96170  Biso   1.000  H
  H49      1.0000 0.85233  0.97470  0.93362  Biso   1.000  H
  H50      1.0000 0.84669  0.76380  0.99616  Biso   1.000  H
  H51      1.0000 0.73816  0.71108  0.08537  Biso   1.000  H
  H52      1.0000 0.58363  0.61712  0.07525  Biso   1.000  H
  H53      1.0000 0.51274  0.57889  0.98364  Biso   1.000  H
  H54      1.0000 0.60809  0.62889  0.89210  Biso   1.000  H
  H55      1.0000 0.15521  0.66238  0.03935  Biso   1.000  H
  H56      1.0000 0.16804  0.44859  0.94942  Biso   1.000  H
  H57      1.0000 0.35213  0.47264  0.87030  Biso   1.000  H
  H58      1.0000 0.35272  0.58252  0.83036  Biso   1.000  H
  H59      1.0000 0.22874  0.67040  0.88013  Biso   1.000  H
  H60      1.0000 0.05371  0.64676  0.95944  Biso   1.000  H
  H61      1.0000 0.66729  0.38046  0.03613  Biso   1.000  H
  H62      1.0000 0.59160  0.35631  0.13585  Biso   1.000  H
  H63      1.0000 0.67802  0.42469  0.21991  Biso   1.000  H
  H64      1.0000 0.08444  0.59437  0.29151  Biso   1.000  H
  H65      1.0000 0.16292  0.68128  0.35166  Biso   1.000  H
  H66      1.0000 0.13349  0.79227  0.31152  Biso   1.000  H
  H67      1.0000 0.03708  0.80999  0.21412  Biso   1.000  H
  H68      1.0000 0.94232  0.71749  0.15635  Biso   1.000  H
  H69      1.0000 0.64445  0.64718  0.31465  Biso   1.000  H
  H70      1.0000 0.68803  0.76192  0.32638  Biso   1.000  H
  H71      1.0000 0.56766  0.84040  0.26026  Biso   1.000  H
  H72      1.0000 0.22277  0.48539  0.24285  Biso   1.000  H
  H73      1.0000 0.12884  0.38269  0.20915  Biso   1.000  H
  H74      1.0000 0.15399  0.34983  0.10585  Biso   1.000  H
  H75      1.0000 0.28449  0.41238  0.03830  Biso   1.000  H
  H76      1.0000 0.35233  0.52530  0.06638  Biso   1.000  H
  H77      1.0000 0.34669  0.73620  0.00384  Biso   1.000  H
  H78      1.0000 0.23816  0.78892  0.91463  Biso   1.000  H
  H79      1.0000 0.08363  0.88288  0.92475  Biso   1.000  H
  H80      1.0000 0.01274  0.92111  0.01636  Biso   1.000  H
  H81      1.0000 0.10809  0.87111  0.10790  Biso   1.000  H
  H82      1.0000 0.34479  0.33762  0.53935  Biso   1.000  H
  H83      1.0000 0.33196  0.55141  0.44942  Biso   1.000  H
  H84      1.0000 0.14787  0.52736  0.37030  Biso   1.000  H
  H85      1.0000 0.14728  0.41748  0.33036  Biso   1.000  H
  H86      1.0000 0.27126  0.32960  0.38013  Biso   1.000  H
  H87      1.0000 0.44629  0.35324  0.45944  Biso   1.000  H
  H88      1.0000 0.83271  0.61954  0.53613  Biso   1.000  H
  H89      1.0000 0.90840  0.64369  0.63585  Biso   1.000  H
  H90      1.0000 0.82198  0.57531  0.71991  Biso   1.000  H
  H91      1.0000 0.41556  0.40563  0.79151  Biso   1.000  H
  H92      1.0000 0.33708  0.31872  0.85166  Biso   1.000  H
  H93      1.0000 0.36651  0.20773  0.81152  Biso   1.000  H
  H94      1.0000 0.46292  0.19001  0.71412  Biso   1.000  H
  H95      1.0000 0.55768  0.28251  0.65635  Biso   1.000  H
  H96      1.0000 0.85555  0.35282  0.81465  Biso   1.000  H
  H97      1.0000 0.81197  0.23808  0.82638  Biso   1.000  H
  H98      1.0000 0.93234  0.15960  0.76026  Biso   1.000  H
  H99      1.0000 0.27723  0.51461  0.74285  Biso   1.000  H
  H100     1.0000 0.37116  0.61731  0.70915  Biso   1.000  H
  H101     1.0000 0.34601  0.65017  0.60585  Biso   1.000  H
  H102     1.0000 0.21551  0.58762  0.53830  Biso   1.000  H
  H103     1.0000 0.14767  0.47470  0.56638  Biso   1.000  H
  H104     1.0000 0.15331  0.26380  0.50384  Biso   1.000  H
  H105     1.0000 0.26184  0.21108  0.41463  Biso   1.000  H
  H106     1.0000 0.41637  0.11712  0.42475  Biso   1.000  H
  H107     1.0000 0.48726  0.07889  0.51636  Biso   1.000  H
  H108     1.0000 0.39191  0.12889  0.60790  Biso   1.000  H
  C1       1.0000 0.90500  0.04550  0.53960  Biso   1.000  C
  C2       1.0000 0.82100  0.99700  0.56660  Biso   1.000  C
  C3       1.0000 0.71500  0.00900  0.61300  Biso   1.000  C
  C4       1.0000 0.70700  0.07400  0.63400  Biso   1.000  C
  C5       1.0000 0.78700  0.12400  0.60780  Biso   1.000  C
  C6       1.0000 0.88600  0.11040  0.56030  Biso   1.000  C
  C7       1.0000 0.11100  0.98000  0.49440  Biso   1.000  C
  C8       1.0000 0.18800  0.96170  0.43840  Biso   1.000  C
  C9       1.0000 0.29000  0.90800  0.42900  Biso   1.000  C
  C10      1.0000 0.34100  0.89700  0.37000  Biso   1.000  C
  C11      1.0000 0.29400  0.93600  0.32200  Biso   1.000  C
  C12      1.0000 0.19400  0.98900  0.33470  Biso   1.000  C
  C13      1.0000 0.12500  0.04100  0.29030  Biso   1.000  C
  C14      1.0000 0.99800  0.14450  0.28170  Biso   1.000  C
  C15      1.0000 0.92700  0.13800  0.22750  Biso   1.000  C
  C16      1.0000 0.88100  0.18900  0.19200  Biso   1.000  C
  C17      1.0000 0.89900  0.25500  0.21400  Biso   1.000  C
  C18      1.0000 0.96200  0.26500  0.27000  Biso   1.000  C
  C19      1.0000 0.00900  0.20900  0.30340  Biso   1.000  C
  C20      1.0000 0.68900  0.01540  0.34240  Biso   1.000  C
  C21      1.0000 0.76500  0.97400  0.30150  Biso   1.000  C
  C22      1.0000 0.82000  0.91300  0.31900  Biso   1.000  C
  C23      1.0000 0.80300  0.89200  0.37900  Biso   1.000  C
  C24      1.0000 0.73300  0.93200  0.41900  Biso   1.000  C
  C25      1.0000 0.68200  0.99410  0.40100  Biso   1.000  C
  C26      1.0000 0.55900  0.08470  0.27460  Biso   1.000  C
  C27      1.0000 0.50700  0.15780  0.26080  Biso   1.000  C
  C28      1.0000 0.40800  0.17900  0.21530  Biso   1.000  C
  C29      1.0000 0.38100  0.24800  0.20800  Biso   1.000  C
  C30      1.0000 0.45200  0.29100  0.24750  Biso   1.000  C
  C31      1.0000 0.54700  0.26700  0.29290  Biso   1.000  C
  C32      1.0000 0.63700  0.30390  0.34000  Biso   1.000  C
  C33      1.0000 0.75700  0.29820  0.43680  Biso   1.000  C
  C34      1.0000 0.72400  0.27490  0.49220  Biso   1.000  C
  C35      1.0000 0.78500  0.30500  0.54450  Biso   1.000  C
  C36      1.0000 0.87900  0.36000  0.53910  Biso   1.000  C
  C37      1.0000 0.91700  0.38100  0.48400  Biso   1.000  C
  C38      1.0000 0.86100  0.35300  0.43250  Biso   1.000  C
  C39      1.0000 0.59500  0.95450  0.03960  Biso   1.000  C
  C40      1.0000 0.67900  0.00300  0.06660  Biso   1.000  C
  C41      1.0000 0.78500  0.99100  0.11300  Biso   1.000  C
  C42      1.0000 0.79300  0.92600  0.13400  Biso   1.000  C
  C43      1.0000 0.71300  0.87600  0.10780  Biso   1.000  C
  C44      1.0000 0.61400  0.88960  0.06030  Biso   1.000  C
  C45      1.0000 0.38900  0.02000  0.99440  Biso   1.000  C
  C46      1.0000 0.31200  0.03830  0.93840  Biso   1.000  C
  C47      1.0000 0.21000  0.09200  0.92900  Biso   1.000  C
  C48      1.0000 0.15900  0.10300  0.87000  Biso   1.000  C
  C49      1.0000 0.20600  0.06400  0.82200  Biso   1.000  C
  C50      1.0000 0.30600  0.01100  0.83470  Biso   1.000  C
  C51      1.0000 0.37500  0.95900  0.79030  Biso   1.000  C
  C52      1.0000 0.50200  0.85550  0.78170  Biso   1.000  C
  C53      1.0000 0.57300  0.86200  0.72750  Biso   1.000  C
  C54      1.0000 0.61900  0.81100  0.69200  Biso   1.000  C
  C55      1.0000 0.60100  0.74500  0.71400  Biso   1.000  C
  C56      1.0000 0.53800  0.73500  0.77000  Biso   1.000  C
  C57      1.0000 0.49100  0.79100  0.80340  Biso   1.000  C
  C58      1.0000 0.81100  0.98460  0.84240  Biso   1.000  C
  C59      1.0000 0.73500  0.02600  0.80150  Biso   1.000  C
  C60      1.0000 0.68000  0.08700  0.81900  Biso   1.000  C
  C61      1.0000 0.69700  0.10800  0.87900  Biso   1.000  C
  C62      1.0000 0.76700  0.06800  0.91900  Biso   1.000  C
  C63      1.0000 0.81800  0.00590  0.90100  Biso   1.000  C
  C64      1.0000 0.94100  0.91530  0.77460  Biso   1.000  C
  C65      1.0000 0.99300  0.84220  0.76080  Biso   1.000  C
  C66      1.0000 0.09200  0.82100  0.71530  Biso   1.000  C
  C67      1.0000 0.11900  0.75200  0.70800  Biso   1.000  C
  C68      1.0000 0.04800  0.70900  0.74750  Biso   1.000  C
  C69      1.0000 0.95300  0.73300  0.79290  Biso   1.000  C
  C70      1.0000 0.86300  0.69610  0.84000  Biso   1.000  C
  C71      1.0000 0.74300  0.70180  0.93680  Biso   1.000  C
  C72      1.0000 0.77600  0.72510  0.99220  Biso   1.000  C
  C73      1.0000 0.71500  0.69500  0.04450  Biso   1.000  C
  C74      1.0000 0.62100  0.64000  0.03910  Biso   1.000  C
  C75      1.0000 0.58300  0.61900  0.98400  Biso   1.000  C
  C76      1.0000 0.63900  0.64700  0.93250  Biso   1.000  C
  C77      1.0000 0.09500  0.54550  0.96040  Biso   1.000  C
  C78      1.0000 0.17900  0.49700  0.93340  Biso   1.000  C
  C79      1.0000 0.28500  0.50900  0.88700  Biso   1.000  C
  C80      1.0000 0.29300  0.57400  0.86600  Biso   1.000  C
  C81      1.0000 0.21300  0.62400  0.89220  Biso   1.000  C
  C82      1.0000 0.11400  0.61040  0.93970  Biso   1.000  C
  C83      1.0000 0.88900  0.48000  0.00560  Biso   1.000  C
  C84      1.0000 0.81200  0.46170  0.06160  Biso   1.000  C
  C85      1.0000 0.71000  0.40800  0.07100  Biso   1.000  C
  C86      1.0000 0.65900  0.39700  0.13000  Biso   1.000  C
  C87      1.0000 0.70600  0.43600  0.17800  Biso   1.000  C
  C88      1.0000 0.80600  0.48900  0.16530  Biso   1.000  C
  C89      1.0000 0.87500  0.54100  0.20970  Biso   1.000  C
  C90      1.0000 0.00200  0.64450  0.21830  Biso   1.000  C
  C91      1.0000 0.07300  0.63800  0.27250  Biso   1.000  C
  C92      1.0000 0.11900  0.68900  0.30800  Biso   1.000  C
  C93      1.0000 0.10100  0.75500  0.28600  Biso   1.000  C
  C94      1.0000 0.03800  0.76500  0.23000  Biso   1.000  C
  C95      1.0000 0.99100  0.70900  0.19660  Biso   1.000  C
  C96      1.0000 0.31100  0.51540  0.15760  Biso   1.000  C
  C97      1.0000 0.23500  0.47400  0.19850  Biso   1.000  C
  C98      1.0000 0.18000  0.41300  0.18100  Biso   1.000  C
  C99      1.0000 0.19700  0.39200  0.12100  Biso   1.000  C
  C100     1.0000 0.26700  0.43200  0.08100  Biso   1.000  C
  C101     1.0000 0.31800  0.49410  0.09900  Biso   1.000  C
  C102     1.0000 0.44100  0.58470  0.22540  Biso   1.000  C
  C103     1.0000 0.49300  0.65780  0.23920  Biso   1.000  C
  C104     1.0000 0.59200  0.67900  0.28470  Biso   1.000  C
  C105     1.0000 0.61900  0.74800  0.29200  Biso   1.000  C
  C106     1.0000 0.54800  0.79100  0.25250  Biso   1.000  C
  C107     1.0000 0.45300  0.76700  0.20710  Biso   1.000  C
  C108     1.0000 0.36300  0.80390  0.16000  Biso   1.000  C
  C109     1.0000 0.24300  0.79820  0.06320  Biso   1.000  C
  C110     1.0000 0.27600  0.77490  0.00780  Biso   1.000  C
  C111     1.0000 0.21500  0.80500  0.95550  Biso   1.000  C
  C112     1.0000 0.12100  0.86000  0.96090  Biso   1.000  C
  C113     1.0000 0.08300  0.88100  0.01600  Biso   1.000  C
  C114     1.0000 0.13900  0.85300  0.06750  Biso   1.000  C
  C115     1.0000 0.40500  0.45450  0.46040  Biso   1.000  C
  C116     1.0000 0.32100  0.50300  0.43340  Biso   1.000  C
  C117     1.0000 0.21500  0.49100  0.38700  Biso   1.000  C
  C118     1.0000 0.20700  0.42600  0.36600  Biso   1.000  C
  C119     1.0000 0.28700  0.37600  0.39220  Biso   1.000  C
  C120     1.0000 0.38600  0.38960  0.43970  Biso   1.000  C
  C121     1.0000 0.61100  0.52000  0.50560  Biso   1.000  C
  C122     1.0000 0.68800  0.53830  0.56160  Biso   1.000  C
  C123     1.0000 0.79000  0.59200  0.57100  Biso   1.000  C
  C124     1.0000 0.84100  0.60300  0.63000  Biso   1.000  C
  C125     1.0000 0.79400  0.56400  0.67800  Biso   1.000  C
  C126     1.0000 0.69400  0.51100  0.66530  Biso   1.000  C
  C127     1.0000 0.62500  0.45900  0.70970  Biso   1.000  C
  C128     1.0000 0.49800  0.35550  0.71830  Biso   1.000  C
  C129     1.0000 0.42700  0.36200  0.77250  Biso   1.000  C
  C130     1.0000 0.38100  0.31100  0.80800  Biso   1.000  C
  C131     1.0000 0.39900  0.24500  0.78600  Biso   1.000  C
  C132     1.0000 0.46200  0.23500  0.73000  Biso   1.000  C
  C133     1.0000 0.50900  0.29100  0.69660  Biso   1.000  C
  C134     1.0000 0.18900  0.48460  0.65760  Biso   1.000  C
  C135     1.0000 0.26500  0.52600  0.69850  Biso   1.000  C
  C136     1.0000 0.32000  0.58700  0.68100  Biso   1.000  C
  C137     1.0000 0.30300  0.60800  0.62100  Biso   1.000  C
  C138     1.0000 0.23300  0.56800  0.58100  Biso   1.000  C
  C139     1.0000 0.18200  0.50590  0.59900  Biso   1.000  C
  C140     1.0000 0.05900  0.41530  0.72540  Biso   1.000  C
  C141     1.0000 0.00700  0.34220  0.73920  Biso   1.000  C
  C142     1.0000 0.90800  0.32100  0.78470  Biso   1.000  C
  C143     1.0000 0.88100  0.25200  0.79200  Biso   1.000  C
  C144     1.0000 0.95200  0.20900  0.75250  Biso   1.000  C
  C145     1.0000 0.04700  0.23300  0.70710  Biso   1.000  C
  C146     1.0000 0.13700  0.19610  0.66000  Biso   1.000  C
  C147     1.0000 0.25700  0.20180  0.56320  Biso   1.000  C
  C148     1.0000 0.22400  0.22510  0.50780  Biso   1.000  C
  C149     1.0000 0.28500  0.19500  0.45550  Biso   1.000  C
  C150     1.0000 0.37900  0.14000  0.46090  Biso   1.000  C
  C151     1.0000 0.41700  0.11900  0.51600  Biso   1.000  C
  C152     1.0000 0.36100  0.14700  0.56750  Biso   1.000  C
  N1       1.0000 0.00700  0.03070  0.48900  Biso   1.000  N
  N2       1.0000 0.14500  0.99970  0.39060  Biso   1.000  N
  N3       1.0000 0.05400  0.09140  0.31860  Biso   1.000  N
  N4       1.0000 0.63700  0.07900  0.32640  Biso   1.000  N
  N5       1.0000 0.56800  0.19950  0.29880  Biso   1.000  N
  N6       1.0000 0.68900  0.26790  0.38520  Biso   1.000  N
  N7       1.0000 0.49300  0.96930  0.98900  Biso   1.000  N
  N8       1.0000 0.35500  0.00030  0.89060  Biso   1.000  N
  N9       1.0000 0.44600  0.90860  0.81860  Biso   1.000  N
  N10      1.0000 0.86300  0.92100  0.82640  Biso   1.000  N
  N11      1.0000 0.93200  0.80050  0.79880  Biso   1.000  N
  N12      1.0000 0.81100  0.73210  0.88520  Biso   1.000  N
  N13      1.0000 0.99300  0.53070  0.01100  Biso   1.000  N
  N14      1.0000 0.85500  0.49970  0.10940  Biso   1.000  N
  N15      1.0000 0.94600  0.59140  0.18140  Biso   1.000  N
  N16      1.0000 0.36300  0.57900  0.17360  Biso   1.000  N
  N17      1.0000 0.43200  0.69950  0.20120  Biso   1.000  N
  N18      1.0000 0.31100  0.76790  0.11480  Biso   1.000  N
  N19      1.0000 0.50700  0.46930  0.51100  Biso   1.000  N
  N20      1.0000 0.64500  0.50030  0.60940  Biso   1.000  N
  N21      1.0000 0.55400  0.40860  0.68140  Biso   1.000  N
  N22      1.0000 0.13700  0.42100  0.67360  Biso   1.000  N
  N23      1.0000 0.06800  0.30050  0.70120  Biso   1.000  N
  N24      1.0000 0.18900  0.23210  0.61480  Biso   1.000  N
  O1       1.0000 0.84600  0.14040  0.42020  Biso   1.000  O
  O2       1.0000 0.14300  0.94780  0.54220  Biso   1.000  O
  O3       1.0000 0.15100  0.03090  0.23640  Biso   1.000  O
  O4       1.0000 0.52300  0.04100  0.23680  Biso   1.000  O
  O5       1.0000 0.64600  0.36690  0.33410  Biso   1.000  O
  O6       1.0000 0.65400  0.85960  0.92020  Biso   1.000  O
  O7       1.0000 0.35700  0.05220  0.04220  Biso   1.000  O
  O8       1.0000 0.34900  0.96910  0.73640  Biso   1.000  O
  O9       1.0000 0.97700  0.95900  0.73680  Biso   1.000  O
  O10      1.0000 0.85400  0.63310  0.83410  Biso   1.000  O
  O11      1.0000 0.15400  0.64040  0.07980  Biso   1.000  O
  O12      1.0000 0.85700  0.44780  0.95780  Biso   1.000  O
  O13      1.0000 0.84900  0.53090  0.26360  Biso   1.000  O
  O14      1.0000 0.47700  0.54100  0.26320  Biso   1.000  O
  O15      1.0000 0.35400  0.86690  0.16590  Biso   1.000  O
  O16      1.0000 0.34600  0.35960  0.57980  Biso   1.000  O
  O17      1.0000 0.64300  0.55220  0.45780  Biso   1.000  O
  O18      1.0000 0.65100  0.46910  0.76360  Biso   1.000  O
  O19      1.0000 0.02300  0.45900  0.76320  Biso   1.000  O
  O20      1.0000 0.14600  0.13310  0.66590  Biso   1.000  O
