data_image0
_cell_length_a       8.975
_cell_length_b       19.243
_cell_length_c       21.13
_cell_angle_alpha    90
_cell_angle_beta     90
_cell_angle_gamma    90

_symmetry_space_group_name_H-M    P 1
_symmetry_int_tables_number       1

loop_
  _symmetry_equiv_pos_as_xyz
  'x, y, z'

loop_
  _atom_site_label
  _atom_site_occupancy
  _atom_site_fract_x
  _atom_site_fract_y
  _atom_site_fract_z
  _atom_site_thermal_displace_type
  _atom_site_B_iso_or_equiv
  _atom_site_type_symbol
  Na1      1.0000 0.13600  0.00490  0.66460  Biso   1.000  Na
  Na2      1.0000 0.36400  0.99510  0.16460  Biso   1.000  Na
  Na3      1.0000 0.86400  0.50490  0.83540  Biso   1.000  Na
  Na4      1.0000 0.63600  0.49510  0.33540  Biso   1.000  Na
  Cu1      1.0000 0.00840  0.07990  0.41019  Biso   1.000  Cu
  Cu2      1.0000 0.70370  0.17460  0.36250  Biso   1.000  Cu
  Cu3      1.0000 0.49160  0.92010  0.91019  Biso   1.000  Cu
  Cu4      1.0000 0.79630  0.82540  0.86250  Biso   1.000  Cu
  Cu5      1.0000 0.99160  0.57990  0.08981  Biso   1.000  Cu
  Cu6      1.0000 0.29630  0.67460  0.13750  Biso   1.000  Cu
  Cu7      1.0000 0.50840  0.42010  0.58981  Biso   1.000  Cu
  Cu8      1.0000 0.20370  0.32540  0.63750  Biso   1.000  Cu
  H1       1.0000 0.84796  0.16923  0.46059  Biso   1.000  H
  H2       1.0000 0.85097  0.95344  0.56245  Biso   1.000  H
  H3       1.0000 0.64809  0.97897  0.63442  Biso   1.000  H
  H4       1.0000 0.62729  0.09339  0.67177  Biso   1.000  H
  H5       1.0000 0.74820  0.18449  0.62603  Biso   1.000  H
  H6       1.0000 0.93473  0.16418  0.55168  Biso   1.000  H
  H7       1.0000 0.34051  0.89288  0.48083  Biso   1.000  H
  H8       1.0000 0.44371  0.87400  0.38010  Biso   1.000  H
  H9       1.0000 0.34575  0.93058  0.29092  Biso   1.000  H
  H10      1.0000 0.96503  0.09191  0.19782  Biso   1.000  H
  H11      1.0000 0.83900  0.17921  0.13986  Biso   1.000  H
  H12      1.0000 0.84200  0.29271  0.18022  Biso   1.000  H
  H13      1.0000 0.94014  0.31626  0.28001  Biso   1.000  H
  H14      1.0000 0.03499  0.22732  0.34109  Biso   1.000  H
  H15      1.0000 0.37940  0.14707  0.17836  Biso   1.000  H
  H16      1.0000 0.31133  0.26711  0.17501  Biso   1.000  H
  H17      1.0000 0.44269  0.34930  0.24211  Biso   1.000  H
  H18      1.0000 0.78123  0.98773  0.25069  Biso   1.000  H
  H19      1.0000 0.88915  0.87959  0.28597  Biso   1.000  H
  H20      1.0000 0.88464  0.84574  0.39196  Biso   1.000  H
  H21      1.0000 0.76243  0.91801  0.46555  Biso   1.000  H
  H22      1.0000 0.65966  0.02608  0.43231  Biso   1.000  H
  H23      1.0000 0.66127  0.24363  0.50284  Biso   1.000  H
  H24      1.0000 0.76244  0.29867  0.59429  Biso   1.000  H
  H25      1.0000 0.93979  0.38296  0.58688  Biso   1.000  H
  H26      1.0000 0.00386  0.42337  0.48479  Biso   1.000  H
  H27      1.0000 0.89801  0.37724  0.39099  Biso   1.000  H
  H28      1.0000 0.65204  0.83077  0.96059  Biso   1.000  H
  H29      1.0000 0.64903  0.04656  0.06245  Biso   1.000  H
  H30      1.0000 0.85191  0.02103  0.13442  Biso   1.000  H
  H31      1.0000 0.87271  0.90661  0.17177  Biso   1.000  H
  H32      1.0000 0.75180  0.81551  0.12603  Biso   1.000  H
  H33      1.0000 0.56527  0.83582  0.05168  Biso   1.000  H
  H34      1.0000 0.15949  0.10712  0.98083  Biso   1.000  H
  H35      1.0000 0.05629  0.12600  0.88010  Biso   1.000  H
  H36      1.0000 0.15425  0.06942  0.79092  Biso   1.000  H
  H37      1.0000 0.53497  0.90809  0.69782  Biso   1.000  H
  H38      1.0000 0.66100  0.82079  0.63986  Biso   1.000  H
  H39      1.0000 0.65800  0.70729  0.68022  Biso   1.000  H
  H40      1.0000 0.55986  0.68374  0.78001  Biso   1.000  H
  H41      1.0000 0.46501  0.77268  0.84109  Biso   1.000  H
  H42      1.0000 0.12060  0.85293  0.67836  Biso   1.000  H
  H43      1.0000 0.18867  0.73289  0.67501  Biso   1.000  H
  H44      1.0000 0.05731  0.65070  0.74211  Biso   1.000  H
  H45      1.0000 0.71877  0.01227  0.75069  Biso   1.000  H
  H46      1.0000 0.61085  0.12041  0.78597  Biso   1.000  H
  H47      1.0000 0.61536  0.15426  0.89196  Biso   1.000  H
  H48      1.0000 0.73757  0.08199  0.96555  Biso   1.000  H
  H49      1.0000 0.84034  0.97392  0.93231  Biso   1.000  H
  H50      1.0000 0.83873  0.75637  0.00284  Biso   1.000  H
  H51      1.0000 0.73756  0.70133  0.09429  Biso   1.000  H
  H52      1.0000 0.56021  0.61704  0.08688  Biso   1.000  H
  H53      1.0000 0.49614  0.57663  0.98479  Biso   1.000  H
  H54      1.0000 0.60199  0.62276  0.89099  Biso   1.000  H
  H55      1.0000 0.15204  0.66923  0.03941  Biso   1.000  H
  H56      1.0000 0.14903  0.45344  0.93755  Biso   1.000  H
  H57      1.0000 0.35191  0.47897  0.86558  Biso   1.000  H
  H58      1.0000 0.37271  0.59339  0.82823  Biso   1.000  H
  H59      1.0000 0.25180  0.68449  0.87397  Biso   1.000  H
  H60      1.0000 0.06527  0.66418  0.94832  Biso   1.000  H
  H61      1.0000 0.65949  0.39288  0.01917  Biso   1.000  H
  H62      1.0000 0.55629  0.37400  0.11990  Biso   1.000  H
  H63      1.0000 0.65425  0.43058  0.20908  Biso   1.000  H
  H64      1.0000 0.03497  0.59191  0.30218  Biso   1.000  H
  H65      1.0000 0.16100  0.67921  0.36014  Biso   1.000  H
  H66      1.0000 0.15800  0.79271  0.31978  Biso   1.000  H
  H67      1.0000 0.05986  0.81626  0.21999  Biso   1.000  H
  H68      1.0000 0.96501  0.72732  0.15891  Biso   1.000  H
  H69      1.0000 0.62060  0.64707  0.32164  Biso   1.000  H
  H70      1.0000 0.68867  0.76711  0.32499  Biso   1.000  H
  H71      1.0000 0.55731  0.84930  0.25789  Biso   1.000  H
  H72      1.0000 0.21877  0.48773  0.24931  Biso   1.000  H
  H73      1.0000 0.11085  0.37959  0.21403  Biso   1.000  H
  H74      1.0000 0.11536  0.34574  0.10804  Biso   1.000  H
  H75      1.0000 0.23757  0.41801  0.03445  Biso   1.000  H
  H76      1.0000 0.34034  0.52608  0.06769  Biso   1.000  H
  H77      1.0000 0.33873  0.74363  0.99716  Biso   1.000  H
  H78      1.0000 0.23756  0.79867  0.90571  Biso   1.000  H
  H79      1.0000 0.06021  0.88296  0.91312  Biso   1.000  H
  H80      1.0000 0.99614  0.92337  0.01521  Biso   1.000  H
  H81      1.0000 0.10199  0.87724  0.10901  Biso   1.000  H
  H82      1.0000 0.34796  0.33077  0.53941  Biso   1.000  H
  H83      1.0000 0.35097  0.54656  0.43755  Biso   1.000  H
  H84      1.0000 0.14809  0.52103  0.36558  Biso   1.000  H
  H85      1.0000 0.12729  0.40661  0.32823  Biso   1.000  H
  H86      1.0000 0.24820  0.31551  0.37397  Biso   1.000  H
  H87      1.0000 0.43473  0.33582  0.44832  Biso   1.000  H
  H88      1.0000 0.84051  0.60712  0.51917  Biso   1.000  H
  H89      1.0000 0.94371  0.62600  0.61990  Biso   1.000  H
  H90      1.0000 0.84575  0.56942  0.70908  Biso   1.000  H
  H91      1.0000 0.46503  0.40809  0.80218  Biso   1.000  H
  H92      1.0000 0.33900  0.32079  0.86014  Biso   1.000  H
  H93      1.0000 0.34200  0.20729  0.81978  Biso   1.000  H
  H94      1.0000 0.44014  0.18374  0.71999  Biso   1.000  H
  H95      1.0000 0.53499  0.27268  0.65891  Biso   1.000  H
  H96      1.0000 0.87940  0.35293  0.82164  Biso   1.000  H
  H97      1.0000 0.81133  0.23289  0.82499  Biso   1.000  H
  H98      1.0000 0.94269  0.15070  0.75789  Biso   1.000  H
  H99      1.0000 0.28123  0.51227  0.74931  Biso   1.000  H
  H100     1.0000 0.38915  0.62041  0.71403  Biso   1.000  H
  H101     1.0000 0.38464  0.65426  0.60804  Biso   1.000  H
  H102     1.0000 0.26243  0.58199  0.53445  Biso   1.000  H
  H103     1.0000 0.15966  0.47392  0.56769  Biso   1.000  H
  H104     1.0000 0.16127  0.25637  0.49716  Biso   1.000  H
  H105     1.0000 0.26244  0.20133  0.40571  Biso   1.000  H
  H106     1.0000 0.43979  0.11704  0.41312  Biso   1.000  H
  H107     1.0000 0.50386  0.07663  0.51521  Biso   1.000  H
  H108     1.0000 0.39801  0.12276  0.60901  Biso   1.000  H
  C1       1.0000 0.90700  0.05500  0.54730  Biso   1.000  C
  C2       1.0000 0.82600  0.00000  0.57500  Biso   1.000  C
  C3       1.0000 0.71900  0.01500  0.61900  Biso   1.000  C
  C4       1.0000 0.69300  0.08400  0.63700  Biso   1.000  C
  C5       1.0000 0.77400  0.13500  0.61200  Biso   1.000  C
  C6       1.0000 0.87800  0.12300  0.56850  Biso   1.000  C
  C7       1.0000 0.12100  0.99390  0.50950  Biso   1.000  C
  C8       1.0000 0.19900  0.97460  0.45130  Biso   1.000  C
  C9       1.0000 0.30800  0.92100  0.44490  Biso   1.000  C
  C10      1.0000 0.36600  0.91200  0.38600  Biso   1.000  C
  C11      1.0000 0.31500  0.94500  0.33420  Biso   1.000  C
  C12      1.0000 0.20800  0.99640  0.34150  Biso   1.000  C
  C13      1.0000 0.14700  0.04550  0.29290  Biso   1.000  C
  C14      1.0000 0.00300  0.14750  0.27640  Biso   1.000  C
  C15      1.0000 0.94400  0.13600  0.21800  Biso   1.000  C
  C16      1.0000 0.88400  0.18800  0.18300  Biso   1.000  C
  C17      1.0000 0.88200  0.25500  0.20600  Biso   1.000  C
  C18      1.0000 0.94000  0.26800  0.26500  Biso   1.000  C
  C19      1.0000 0.99700  0.21570  0.29980  Biso   1.000  C
  C20      1.0000 0.70700  0.01510  0.34010  Biso   1.000  C
  C21      1.0000 0.78100  0.97320  0.29770  Biso   1.000  C
  C22      1.0000 0.84100  0.91200  0.31700  Biso   1.000  C
  C23      1.0000 0.83500  0.88990  0.38000  Biso   1.000  C
  C24      1.0000 0.76700  0.93200  0.42160  Biso   1.000  C
  C25      1.0000 0.70800  0.99400  0.40200  Biso   1.000  C
  C26      1.0000 0.57000  0.08500  0.27020  Biso   1.000  C
  C27      1.0000 0.51100  0.15980  0.25710  Biso   1.000  C
  C28      1.0000 0.41800  0.18100  0.21200  Biso   1.000  C
  C29      1.0000 0.38700  0.25000  0.20600  Biso   1.000  C
  C30      1.0000 0.45600  0.29950  0.24700  Biso   1.000  C
  C31      1.0000 0.55100  0.27440  0.28970  Biso   1.000  C
  C32      1.0000 0.63200  0.31540  0.34020  Biso   1.000  C
  C33      1.0000 0.75900  0.30730  0.43940  Biso   1.000  C
  C34      1.0000 0.72600  0.28270  0.49740  Biso   1.000  C
  C35      1.0000 0.78900  0.31300  0.55180  Biso   1.000  C
  C36      1.0000 0.89300  0.36500  0.54800  Biso   1.000  C
  C37      1.0000 0.92800  0.38800  0.48700  Biso   1.000  C
  C38      1.0000 0.86600  0.36100  0.43300  Biso   1.000  C
  C39      1.0000 0.59300  0.94500  0.04730  Biso   1.000  C
  C40      1.0000 0.67400  0.00000  0.07500  Biso   1.000  C
  C41      1.0000 0.78100  0.98500  0.11900  Biso   1.000  C
  C42      1.0000 0.80700  0.91600  0.13700  Biso   1.000  C
  C43      1.0000 0.72600  0.86500  0.11200  Biso   1.000  C
  C44      1.0000 0.62200  0.87700  0.06850  Biso   1.000  C
  C45      1.0000 0.37900  0.00610  0.00950  Biso   1.000  C
  C46      1.0000 0.30100  0.02540  0.95130  Biso   1.000  C
  C47      1.0000 0.19200  0.07900  0.94490  Biso   1.000  C
  C48      1.0000 0.13400  0.08800  0.88600  Biso   1.000  C
  C49      1.0000 0.18500  0.05500  0.83420  Biso   1.000  C
  C50      1.0000 0.29200  0.00360  0.84150  Biso   1.000  C
  C51      1.0000 0.35300  0.95450  0.79290  Biso   1.000  C
  C52      1.0000 0.49700  0.85250  0.77640  Biso   1.000  C
  C53      1.0000 0.55600  0.86400  0.71800  Biso   1.000  C
  C54      1.0000 0.61600  0.81200  0.68300  Biso   1.000  C
  C55      1.0000 0.61800  0.74500  0.70600  Biso   1.000  C
  C56      1.0000 0.56000  0.73200  0.76500  Biso   1.000  C
  C57      1.0000 0.50300  0.78430  0.79980  Biso   1.000  C
  C58      1.0000 0.79300  0.98490  0.84010  Biso   1.000  C
  C59      1.0000 0.71900  0.02680  0.79770  Biso   1.000  C
  C60      1.0000 0.65900  0.08800  0.81700  Biso   1.000  C
  C61      1.0000 0.66500  0.11010  0.88000  Biso   1.000  C
  C62      1.0000 0.73300  0.06800  0.92160  Biso   1.000  C
  C63      1.0000 0.79200  0.00600  0.90200  Biso   1.000  C
  C64      1.0000 0.93000  0.91500  0.77020  Biso   1.000  C
  C65      1.0000 0.98900  0.84020  0.75710  Biso   1.000  C
  C66      1.0000 0.08200  0.81900  0.71200  Biso   1.000  C
  C67      1.0000 0.11300  0.75000  0.70600  Biso   1.000  C
  C68      1.0000 0.04400  0.70050  0.74700  Biso   1.000  C
  C69      1.0000 0.94900  0.72560  0.78970  Biso   1.000  C
  C70      1.0000 0.86800  0.68460  0.84020  Biso   1.000  C
  C71      1.0000 0.74100  0.69270  0.93940  Biso   1.000  C
  C72      1.0000 0.77400  0.71730  0.99740  Biso   1.000  C
  C73      1.0000 0.71100  0.68700  0.05180  Biso   1.000  C
  C74      1.0000 0.60700  0.63500  0.04800  Biso   1.000  C
  C75      1.0000 0.57200  0.61200  0.98700  Biso   1.000  C
  C76      1.0000 0.63400  0.63900  0.93300  Biso   1.000  C
  C77      1.0000 0.09300  0.55500  0.95270  Biso   1.000  C
  C78      1.0000 0.17400  0.50000  0.92500  Biso   1.000  C
  C79      1.0000 0.28100  0.51500  0.88100  Biso   1.000  C
  C80      1.0000 0.30700  0.58400  0.86300  Biso   1.000  C
  C81      1.0000 0.22600  0.63500  0.88800  Biso   1.000  C
  C82      1.0000 0.12200  0.62300  0.93150  Biso   1.000  C
  C83      1.0000 0.87900  0.49390  0.99050  Biso   1.000  C
  C84      1.0000 0.80100  0.47460  0.04870  Biso   1.000  C
  C85      1.0000 0.69200  0.42100  0.05510  Biso   1.000  C
  C86      1.0000 0.63400  0.41200  0.11400  Biso   1.000  C
  C87      1.0000 0.68500  0.44500  0.16580  Biso   1.000  C
  C88      1.0000 0.79200  0.49640  0.15850  Biso   1.000  C
  C89      1.0000 0.85300  0.54550  0.20710  Biso   1.000  C
  C90      1.0000 0.99700  0.64750  0.22360  Biso   1.000  C
  C91      1.0000 0.05600  0.63600  0.28200  Biso   1.000  C
  C92      1.0000 0.11600  0.68800  0.31700  Biso   1.000  C
  C93      1.0000 0.11800  0.75500  0.29400  Biso   1.000  C
  C94      1.0000 0.06000  0.76800  0.23500  Biso   1.000  C
  C95      1.0000 0.00300  0.71570  0.20020  Biso   1.000  C
  C96      1.0000 0.29300  0.51510  0.15990  Biso   1.000  C
  C97      1.0000 0.21900  0.47320  0.20230  Biso   1.000  C
  C98      1.0000 0.15900  0.41200  0.18300  Biso   1.000  C
  C99      1.0000 0.16500  0.38990  0.12000  Biso   1.000  C
  C100     1.0000 0.23300  0.43200  0.07840  Biso   1.000  C
  C101     1.0000 0.29200  0.49400  0.09800  Biso   1.000  C
  C102     1.0000 0.43000  0.58500  0.22980  Biso   1.000  C
  C103     1.0000 0.48900  0.65980  0.24290  Biso   1.000  C
  C104     1.0000 0.58200  0.68100  0.28800  Biso   1.000  C
  C105     1.0000 0.61300  0.75000  0.29400  Biso   1.000  C
  C106     1.0000 0.54400  0.79950  0.25300  Biso   1.000  C
  C107     1.0000 0.44900  0.77440  0.21030  Biso   1.000  C
  C108     1.0000 0.36800  0.81540  0.15980  Biso   1.000  C
  C109     1.0000 0.24100  0.80730  0.06060  Biso   1.000  C
  C110     1.0000 0.27400  0.78270  0.00260  Biso   1.000  C
  C111     1.0000 0.21100  0.81300  0.94820  Biso   1.000  C
  C112     1.0000 0.10700  0.86500  0.95200  Biso   1.000  C
  C113     1.0000 0.07200  0.88800  0.01300  Biso   1.000  C
  C114     1.0000 0.13400  0.86100  0.06700  Biso   1.000  C
  C115     1.0000 0.40700  0.44500  0.45270  Biso   1.000  C
  C116     1.0000 0.32600  0.50000  0.42500  Biso   1.000  C
  C117     1.0000 0.21900  0.48500  0.38100  Biso   1.000  C
  C118     1.0000 0.19300  0.41600  0.36300  Biso   1.000  C
  C119     1.0000 0.27400  0.36500  0.38800  Biso   1.000  C
  C120     1.0000 0.37800  0.37700  0.43150  Biso   1.000  C
  C121     1.0000 0.62100  0.50610  0.49050  Biso   1.000  C
  C122     1.0000 0.69900  0.52540  0.54870  Biso   1.000  C
  C123     1.0000 0.80800  0.57900  0.55510  Biso   1.000  C
  C124     1.0000 0.86600  0.58800  0.61400  Biso   1.000  C
  C125     1.0000 0.81500  0.55500  0.66580  Biso   1.000  C
  C126     1.0000 0.70800  0.50360  0.65850  Biso   1.000  C
  C127     1.0000 0.64700  0.45450  0.70710  Biso   1.000  C
  C128     1.0000 0.50300  0.35250  0.72360  Biso   1.000  C
  C129     1.0000 0.44400  0.36400  0.78200  Biso   1.000  C
  C130     1.0000 0.38400  0.31200  0.81700  Biso   1.000  C
  C131     1.0000 0.38200  0.24500  0.79400  Biso   1.000  C
  C132     1.0000 0.44000  0.23200  0.73500  Biso   1.000  C
  C133     1.0000 0.49700  0.28430  0.70020  Biso   1.000  C
  C134     1.0000 0.20700  0.48490  0.65990  Biso   1.000  C
  C135     1.0000 0.28100  0.52680  0.70230  Biso   1.000  C
  C136     1.0000 0.34100  0.58800  0.68300  Biso   1.000  C
  C137     1.0000 0.33500  0.61010  0.62000  Biso   1.000  C
  C138     1.0000 0.26700  0.56800  0.57840  Biso   1.000  C
  C139     1.0000 0.20800  0.50600  0.59800  Biso   1.000  C
  C140     1.0000 0.07000  0.41500  0.72980  Biso   1.000  C
  C141     1.0000 0.01100  0.34020  0.74290  Biso   1.000  C
  C142     1.0000 0.91800  0.31900  0.78800  Biso   1.000  C
  C143     1.0000 0.88700  0.25000  0.79400  Biso   1.000  C
  C144     1.0000 0.95600  0.20050  0.75300  Biso   1.000  C
  C145     1.0000 0.05100  0.22560  0.71030  Biso   1.000  C
  C146     1.0000 0.13200  0.18460  0.65980  Biso   1.000  C
  C147     1.0000 0.25900  0.19270  0.56060  Biso   1.000  C
  C148     1.0000 0.22600  0.21730  0.50260  Biso   1.000  C
  C149     1.0000 0.28900  0.18700  0.44820  Biso   1.000  C
  C150     1.0000 0.39300  0.13500  0.45200  Biso   1.000  C
  C151     1.0000 0.42800  0.11200  0.51300  Biso   1.000  C
  C152     1.0000 0.36600  0.13900  0.56700  Biso   1.000  C
  N1       1.0000 0.01800  0.04200  0.49930  Biso   1.000  N
  N2       1.0000 0.15300  0.00820  0.39940  Biso   1.000  N
  N3       1.0000 0.06200  0.09590  0.31820  Biso   1.000  N
  N4       1.0000 0.64600  0.08170  0.32260  Biso   1.000  N
  N5       1.0000 0.57500  0.20710  0.29580  Biso   1.000  N
  N6       1.0000 0.68500  0.27520  0.38590  Biso   1.000  N
  N7       1.0000 0.48200  0.95800  0.99930  Biso   1.000  N
  N8       1.0000 0.34700  0.99180  0.89940  Biso   1.000  N
  N9       1.0000 0.43800  0.90410  0.81820  Biso   1.000  N
  N10      1.0000 0.85400  0.91830  0.82260  Biso   1.000  N
  N11      1.0000 0.92500  0.79290  0.79580  Biso   1.000  N
  N12      1.0000 0.81500  0.72480  0.88590  Biso   1.000  N
  N13      1.0000 0.98200  0.54200  0.00070  Biso   1.000  N
  N14      1.0000 0.84700  0.50820  0.10060  Biso   1.000  N
  N15      1.0000 0.93800  0.59590  0.18180  Biso   1.000  N
  N16      1.0000 0.35400  0.58170  0.17740  Biso   1.000  N
  N17      1.0000 0.42500  0.70710  0.20420  Biso   1.000  N
  N18      1.0000 0.31500  0.77520  0.11410  Biso   1.000  N
  N19      1.0000 0.51800  0.45800  0.50070  Biso   1.000  N
  N20      1.0000 0.65300  0.49180  0.60060  Biso   1.000  N
  N21      1.0000 0.56200  0.40410  0.68180  Biso   1.000  N
  N22      1.0000 0.14600  0.41830  0.67740  Biso   1.000  N
  N23      1.0000 0.07500  0.29290  0.70420  Biso   1.000  N
  N24      1.0000 0.18500  0.22480  0.61410  Biso   1.000  N
  O1       1.0000 0.85200  0.14560  0.41930  Biso   1.000  O
  O2       1.0000 0.15700  0.96490  0.56070  Biso   1.000  O
  O3       1.0000 0.17800  0.03700  0.23620  Biso   1.000  O
  O4       1.0000 0.53200  0.03970  0.23320  Biso   1.000  O
  O5       1.0000 0.64300  0.37960  0.33220  Biso   1.000  O
  O6       1.0000 0.64800  0.85440  0.91930  Biso   1.000  O
  O7       1.0000 0.34300  0.03510  0.06070  Biso   1.000  O
  O8       1.0000 0.32200  0.96300  0.73620  Biso   1.000  O
  O9       1.0000 0.96800  0.96030  0.73320  Biso   1.000  O
  O10      1.0000 0.85700  0.62040  0.83220  Biso   1.000  O
  O11      1.0000 0.14800  0.64560  0.08070  Biso   1.000  O
  O12      1.0000 0.84300  0.46490  0.93930  Biso   1.000  O
  O13      1.0000 0.82200  0.53700  0.26380  Biso   1.000  O
  O14      1.0000 0.46800  0.53970  0.26680  Biso   1.000  O
  O15      1.0000 0.35700  0.87960  0.16780  Biso   1.000  O
  O16      1.0000 0.35200  0.35440  0.58070  Biso   1.000  O
  O17      1.0000 0.65700  0.53510  0.43930  Biso   1.000  O
  O18      1.0000 0.67800  0.46300  0.76380  Biso   1.000  O
  O19      1.0000 0.03200  0.46030  0.76680  Biso   1.000  O
  O20      1.0000 0.14300  0.12040  0.66780  Biso   1.000  O
