data_WOJJOV_clean
_audit_creation_date              2015-05-15
_audit_creation_method            'Materials Studio'
_symmetry_space_group_name_H-M    'P1'
_symmetry_Int_Tables_number       1
_symmetry_cell_setting            triclinic
loop_
_symmetry_equiv_pos_as_xyz
  x,y,z
_cell_length_a                    21.1012
_cell_length_b                    21.1012
_cell_length_c                    6.6095
_cell_angle_alpha                 90.0000
_cell_angle_beta                  90.0000
_cell_angle_gamma                 90.0000
loop_
_atom_site_label
_atom_site_type_symbol
_atom_site_fract_x
_atom_site_fract_y
_atom_site_fract_z
_atom_site_U_iso_or_equiv
_atom_site_adp_type
_atom_site_occupancy
H1     H     0.06000   0.21000   0.53000   0.01267  Uiso   1.00
H2     H     0.12000   0.32200   0.93900   0.01267  Uiso   1.00
H3     H     0.06000   0.37000   0.65000   0.01267  Uiso   1.00
C4     C     0.13900   0.25300   0.27000   0.01267  Uiso   1.00
C5     C     0.06800   0.25700   0.26000   0.01267  Uiso   1.00
C6     C     0.03400   0.28900   0.09700   0.01267  Uiso   1.00
C7     C     0.03400   0.23000   0.41000   0.01267  Uiso   1.00
C8     C     0.06800   0.32200   0.93900   0.01267  Uiso   1.00
C9     C     0.03400   0.35000   0.77200   0.01267  Uiso   1.00
O10    O     0.17100   0.24800   0.11700   0.01267  Uiso   1.00
O11    O     0.16500   0.25100   0.44700   0.01267  Uiso   1.00
H12    H     0.94000   0.79000   0.53000   0.01267  Uiso   1.00
H13    H     0.88000   0.67800   0.93900   0.01267  Uiso   1.00
H14    H     0.94000   0.63000   0.65000   0.01267  Uiso   1.00
C15    C     0.86100   0.74700   0.27000   0.01267  Uiso   1.00
C16    C     0.93200   0.74300   0.26000   0.01267  Uiso   1.00
C17    C     0.96600   0.71100   0.09700   0.01267  Uiso   1.00
C18    C     0.96600   0.77000   0.41000   0.01267  Uiso   1.00
C19    C     0.93200   0.67800   0.93900   0.01267  Uiso   1.00
C20    C     0.96600   0.65000   0.77200   0.01267  Uiso   1.00
O21    O     0.82900   0.75200   0.11700   0.01267  Uiso   1.00
O22    O     0.83500   0.74900   0.44700   0.01267  Uiso   1.00
H23    H     0.29000   0.56000   0.53000   0.01267  Uiso   1.00
H24    H     0.17800   0.62000   0.93900   0.01267  Uiso   1.00
H25    H     0.13000   0.56000   0.65000   0.01267  Uiso   1.00
C26    C     0.24700   0.63900   0.27000   0.01267  Uiso   1.00
C27    C     0.24300   0.56800   0.26000   0.01267  Uiso   1.00
C28    C     0.21100   0.53400   0.09700   0.01267  Uiso   1.00
C29    C     0.27000   0.53400   0.41000   0.01267  Uiso   1.00
C30    C     0.17800   0.56800   0.93900   0.01267  Uiso   1.00
C31    C     0.15000   0.53400   0.77200   0.01267  Uiso   1.00
O32    O     0.25200   0.67100   0.11700   0.01267  Uiso   1.00
O33    O     0.24900   0.66500   0.44700   0.01267  Uiso   1.00
H34    H     0.71000   0.44000   0.53000   0.01267  Uiso   1.00
H35    H     0.82200   0.38000   0.93900   0.01267  Uiso   1.00
H36    H     0.87000   0.44000   0.65000   0.01267  Uiso   1.00
C37    C     0.75300   0.36100   0.27000   0.01267  Uiso   1.00
C38    C     0.75700   0.43200   0.26000   0.01267  Uiso   1.00
C39    C     0.78900   0.46600   0.09700   0.01267  Uiso   1.00
C40    C     0.73000   0.46600   0.41000   0.01267  Uiso   1.00
C41    C     0.82200   0.43200   0.93900   0.01267  Uiso   1.00
C42    C     0.85000   0.46600   0.77200   0.01267  Uiso   1.00
O43    O     0.74800   0.32900   0.11700   0.01267  Uiso   1.00
O44    O     0.75100   0.33500   0.44700   0.01267  Uiso   1.00
H45    H     0.44000   0.71000   0.47000   0.01267  Uiso   1.00
H46    H     0.38000   0.82200   0.06100   0.01267  Uiso   1.00
H47    H     0.44000   0.87000   0.35000   0.01267  Uiso   1.00
C48    C     0.36100   0.75300   0.73000   0.01267  Uiso   1.00
C49    C     0.43200   0.75700   0.74000   0.01267  Uiso   1.00
C50    C     0.46600   0.78900   0.90300   0.01267  Uiso   1.00
C51    C     0.46600   0.73000   0.59000   0.01267  Uiso   1.00
C52    C     0.43200   0.82200   0.06100   0.01267  Uiso   1.00
C53    C     0.46600   0.85000   0.22800   0.01267  Uiso   1.00
O54    O     0.32900   0.74800   0.88300   0.01267  Uiso   1.00
O55    O     0.33500   0.75100   0.55300   0.01267  Uiso   1.00
H56    H     0.56000   0.29000   0.47000   0.01267  Uiso   1.00
H57    H     0.62000   0.17800   0.06100   0.01267  Uiso   1.00
H58    H     0.56000   0.13000   0.35000   0.01267  Uiso   1.00
C59    C     0.63900   0.24700   0.73000   0.01267  Uiso   1.00
C60    C     0.56800   0.24300   0.74000   0.01267  Uiso   1.00
C61    C     0.53400   0.21100   0.90300   0.01267  Uiso   1.00
C62    C     0.53400   0.27000   0.59000   0.01267  Uiso   1.00
C63    C     0.56800   0.17800   0.06100   0.01267  Uiso   1.00
C64    C     0.53400   0.15000   0.22800   0.01267  Uiso   1.00
O65    O     0.67100   0.25200   0.88300   0.01267  Uiso   1.00
O66    O     0.66500   0.24900   0.55300   0.01267  Uiso   1.00
H67    H     0.21000   0.06000   0.47000   0.01267  Uiso   1.00
H68    H     0.32200   0.12000   0.06100   0.01267  Uiso   1.00
H69    H     0.37000   0.06000   0.35000   0.01267  Uiso   1.00
C70    C     0.25300   0.13900   0.73000   0.01267  Uiso   1.00
C71    C     0.25700   0.06800   0.74000   0.01267  Uiso   1.00
C72    C     0.28900   0.03400   0.90300   0.01267  Uiso   1.00
C73    C     0.23000   0.03400   0.59000   0.01267  Uiso   1.00
C74    C     0.32200   0.06800   0.06100   0.01267  Uiso   1.00
C75    C     0.35000   0.03400   0.22800   0.01267  Uiso   1.00
O76    O     0.24800   0.17100   0.88300   0.01267  Uiso   1.00
O77    O     0.25100   0.16500   0.55300   0.01267  Uiso   1.00
H78    H     0.79000   0.94000   0.47000   0.01267  Uiso   1.00
H79    H     0.67800   0.88000   0.06100   0.01267  Uiso   1.00
H80    H     0.63000   0.94000   0.35000   0.01267  Uiso   1.00
C81    C     0.74700   0.86100   0.73000   0.01267  Uiso   1.00
C82    C     0.74300   0.93200   0.74000   0.01267  Uiso   1.00
C83    C     0.71100   0.96600   0.90300   0.01267  Uiso   1.00
C84    C     0.77000   0.96600   0.59000   0.01267  Uiso   1.00
C85    C     0.67800   0.93200   0.06100   0.01267  Uiso   1.00
C86    C     0.65000   0.96600   0.22800   0.01267  Uiso   1.00
O87    O     0.75200   0.82900   0.88300   0.01267  Uiso   1.00
O88    O     0.74900   0.83500   0.55300   0.01267  Uiso   1.00
H89    H     0.44000   0.29000   0.47000   0.01267  Uiso   1.00
H90    H     0.38000   0.17800   0.06100   0.01267  Uiso   1.00
H91    H     0.44000   0.13000   0.35000   0.01267  Uiso   1.00
C92    C     0.36100   0.24700   0.73000   0.01267  Uiso   1.00
C93    C     0.43200   0.24300   0.74000   0.01267  Uiso   1.00
C94    C     0.46600   0.21100   0.90300   0.01267  Uiso   1.00
C95    C     0.46600   0.27000   0.59000   0.01267  Uiso   1.00
C96    C     0.43200   0.17800   0.06100   0.01267  Uiso   1.00
C97    C     0.46600   0.15000   0.22800   0.01267  Uiso   1.00
O98    O     0.32900   0.25200   0.88300   0.01267  Uiso   1.00
O99    O     0.33500   0.24900   0.55300   0.01267  Uiso   1.00
H100   H     0.56000   0.71000   0.47000   0.01267  Uiso   1.00
H101   H     0.62000   0.82200   0.06100   0.01267  Uiso   1.00
H102   H     0.56000   0.87000   0.35000   0.01267  Uiso   1.00
C103   C     0.63900   0.75300   0.73000   0.01267  Uiso   1.00
C104   C     0.56800   0.75700   0.74000   0.01267  Uiso   1.00
C105   C     0.53400   0.78900   0.90300   0.01267  Uiso   1.00
C106   C     0.53400   0.73000   0.59000   0.01267  Uiso   1.00
C107   C     0.56800   0.82200   0.06100   0.01267  Uiso   1.00
C108   C     0.53400   0.85000   0.22800   0.01267  Uiso   1.00
O109   O     0.67100   0.74800   0.88300   0.01267  Uiso   1.00
O110   O     0.66500   0.75100   0.55300   0.01267  Uiso   1.00
H111   H     0.21000   0.94000   0.47000   0.01267  Uiso   1.00
H112   H     0.32200   0.88000   0.06100   0.01267  Uiso   1.00
H113   H     0.37000   0.94000   0.35000   0.01267  Uiso   1.00
C114   C     0.25300   0.86100   0.73000   0.01267  Uiso   1.00
C115   C     0.25700   0.93200   0.74000   0.01267  Uiso   1.00
C116   C     0.28900   0.96600   0.90300   0.01267  Uiso   1.00
C117   C     0.23000   0.96600   0.59000   0.01267  Uiso   1.00
C118   C     0.32200   0.93200   0.06100   0.01267  Uiso   1.00
C119   C     0.35000   0.96600   0.22800   0.01267  Uiso   1.00
O120   O     0.24800   0.82900   0.88300   0.01267  Uiso   1.00
O121   O     0.25100   0.83500   0.55300   0.01267  Uiso   1.00
H122   H     0.79000   0.06000   0.47000   0.01267  Uiso   1.00
H123   H     0.67800   0.12000   0.06100   0.01267  Uiso   1.00
H124   H     0.63000   0.06000   0.35000   0.01267  Uiso   1.00
C125   C     0.74700   0.13900   0.73000   0.01267  Uiso   1.00
C126   C     0.74300   0.06800   0.74000   0.01267  Uiso   1.00
C127   C     0.71100   0.03400   0.90300   0.01267  Uiso   1.00
C128   C     0.77000   0.03400   0.59000   0.01267  Uiso   1.00
C129   C     0.67800   0.06800   0.06100   0.01267  Uiso   1.00
C130   C     0.65000   0.03400   0.22800   0.01267  Uiso   1.00
O131   O     0.75200   0.17100   0.88300   0.01267  Uiso   1.00
O132   O     0.74900   0.16500   0.55300   0.01267  Uiso   1.00
H133   H     0.06000   0.79000   0.53000   0.01267  Uiso   1.00
H134   H     0.12000   0.67800   0.93900   0.01267  Uiso   1.00
H135   H     0.06000   0.63000   0.65000   0.01267  Uiso   1.00
C136   C     0.13900   0.74700   0.27000   0.01267  Uiso   1.00
C137   C     0.06800   0.74300   0.26000   0.01267  Uiso   1.00
C138   C     0.03400   0.71100   0.09700   0.01267  Uiso   1.00
C139   C     0.03400   0.77000   0.41000   0.01267  Uiso   1.00
C140   C     0.06800   0.67800   0.93900   0.01267  Uiso   1.00
C141   C     0.03400   0.65000   0.77200   0.01267  Uiso   1.00
O142   O     0.17100   0.75200   0.11700   0.01267  Uiso   1.00
O143   O     0.16500   0.74900   0.44700   0.01267  Uiso   1.00
H144   H     0.94000   0.21000   0.53000   0.01267  Uiso   1.00
H145   H     0.88000   0.32200   0.93900   0.01267  Uiso   1.00
H146   H     0.94000   0.37000   0.65000   0.01267  Uiso   1.00
C147   C     0.86100   0.25300   0.27000   0.01267  Uiso   1.00
C148   C     0.93200   0.25700   0.26000   0.01267  Uiso   1.00
C149   C     0.96600   0.28900   0.09700   0.01267  Uiso   1.00
C150   C     0.96600   0.23000   0.41000   0.01267  Uiso   1.00
C151   C     0.93200   0.32200   0.93900   0.01267  Uiso   1.00
C152   C     0.96600   0.35000   0.77200   0.01267  Uiso   1.00
O153   O     0.82900   0.24800   0.11700   0.01267  Uiso   1.00
O154   O     0.83500   0.25100   0.44700   0.01267  Uiso   1.00
H155   H     0.29000   0.44000   0.53000   0.01267  Uiso   1.00
H156   H     0.17800   0.38000   0.93900   0.01267  Uiso   1.00
H157   H     0.13000   0.44000   0.65000   0.01267  Uiso   1.00
C158   C     0.24700   0.36100   0.27000   0.01267  Uiso   1.00
C159   C     0.24300   0.43200   0.26000   0.01267  Uiso   1.00
C160   C     0.21100   0.46600   0.09700   0.01267  Uiso   1.00
C161   C     0.27000   0.46600   0.41000   0.01267  Uiso   1.00
C162   C     0.17800   0.43200   0.93900   0.01267  Uiso   1.00
C163   C     0.15000   0.46600   0.77200   0.01267  Uiso   1.00
O164   O     0.25200   0.32900   0.11700   0.01267  Uiso   1.00
O165   O     0.24900   0.33500   0.44700   0.01267  Uiso   1.00
H166   H     0.71000   0.56000   0.53000   0.01267  Uiso   1.00
H167   H     0.82200   0.62000   0.93900   0.01267  Uiso   1.00
H168   H     0.87000   0.56000   0.65000   0.01267  Uiso   1.00
C169   C     0.75300   0.63900   0.27000   0.01267  Uiso   1.00
C170   C     0.75700   0.56800   0.26000   0.01267  Uiso   1.00
C171   C     0.78900   0.53400   0.09700   0.01267  Uiso   1.00
C172   C     0.73000   0.53400   0.41000   0.01267  Uiso   1.00
C173   C     0.82200   0.56800   0.93900   0.01267  Uiso   1.00
C174   C     0.85000   0.53400   0.77200   0.01267  Uiso   1.00
O175   O     0.74800   0.67100   0.11700   0.01267  Uiso   1.00
O176   O     0.75100   0.66500   0.44700   0.01267  Uiso   1.00
H177   H     0.30470   0.19530   0.28500   0.01267  Uiso   1.00
O178   O     0.28100   0.21900   0.28500   0.01267  Uiso   1.00
H179   H     0.69530   0.80470   0.28500   0.01267  Uiso   1.00
O180   O     0.71900   0.78100   0.28500   0.01267  Uiso   1.00
H181   H     0.30470   0.80470   0.28500   0.01267  Uiso   1.00
O182   O     0.28100   0.78100   0.28500   0.01267  Uiso   1.00
H183   H     0.69530   0.19530   0.28500   0.01267  Uiso   1.00
O184   O     0.71900   0.21900   0.28500   0.01267  Uiso   1.00
H185   H     0.19530   0.69530   0.71500   0.01267  Uiso   1.00
O186   O     0.21900   0.71900   0.71500   0.01267  Uiso   1.00
H187   H     0.80470   0.30470   0.71500   0.01267  Uiso   1.00
O188   O     0.78100   0.28100   0.71500   0.01267  Uiso   1.00
H189   H     0.19530   0.30470   0.71500   0.01267  Uiso   1.00
O190   O     0.21900   0.28100   0.71500   0.01267  Uiso   1.00
H191   H     0.80470   0.69530   0.71500   0.01267  Uiso   1.00
O192   O     0.78100   0.71900   0.71500   0.01267  Uiso   1.00
Al193  Al    0.25000   0.75000   0.00000   0.01267  Uiso   1.00
Al194  Al    0.75000   0.25000   0.00000   0.01267  Uiso   1.00
Al195  Al    0.75000   0.75000   0.00000   0.01267  Uiso   1.00
Al196  Al    0.25000   0.25000   0.00000   0.01267  Uiso   1.00
Al197  Al    0.25000   0.75000   0.50000   0.01267  Uiso   1.00
Al198  Al    0.75000   0.25000   0.50000   0.01267  Uiso   1.00
Al199  Al    0.75000   0.75000   0.50000   0.01267  Uiso   1.00
Al200  Al    0.25000   0.25000   0.50000   0.01267  Uiso   1.00
