data_image0
_cell_length_a       17.3714
_cell_length_b       19.3101
_cell_length_c       18.1903
_cell_angle_alpha    99.346
_cell_angle_beta     90
_cell_angle_gamma    90

_symmetry_space_group_name_H-M    P 1
_symmetry_int_tables_number       1

loop_
  _symmetry_equiv_pos_as_xyz
  'x, y, z'

loop_
  _atom_site_label
  _atom_site_occupancy
  _atom_site_fract_x
  _atom_site_fract_y
  _atom_site_fract_z
  _atom_site_thermal_displace_type
  _atom_site_B_iso_or_equiv
  _atom_site_type_symbol
  Ag1      1.0000 0.86448  0.74271  0.74470  Biso   1.000  Ag
  Ag2      1.0000 0.97894  0.61062  0.65912  Biso   1.000  Ag
  Ag3      1.0000 0.92820  0.23864  0.24021  Biso   1.000  Ag
  Ag4      1.0000 0.05295  0.10674  0.15644  Biso   1.000  Ag
  Ag5      1.0000 0.36448  0.25729  0.75530  Biso   1.000  Ag
  Ag6      1.0000 0.47894  0.38938  0.84088  Biso   1.000  Ag
  Ag7      1.0000 0.42820  0.76136  0.25979  Biso   1.000  Ag
  Ag8      1.0000 0.55295  0.89326  0.34356  Biso   1.000  Ag
  Ag9      1.0000 0.13552  0.25729  0.25530  Biso   1.000  Ag
  Ag10     1.0000 0.02106  0.38938  0.34088  Biso   1.000  Ag
  Ag11     1.0000 0.07180  0.76136  0.75979  Biso   1.000  Ag
  Ag12     1.0000 0.94705  0.89326  0.84356  Biso   1.000  Ag
  Ag13     1.0000 0.63552  0.74271  0.24470  Biso   1.000  Ag
  Ag14     1.0000 0.52106  0.61062  0.15912  Biso   1.000  Ag
  Ag15     1.0000 0.57180  0.23864  0.74021  Biso   1.000  Ag
  Ag16     1.0000 0.44705  0.10674  0.65644  Biso   1.000  Ag
  H1       1.0000 0.81420  0.68240  0.88720  Biso   1.000  H
  H2       1.0000 0.83500  0.58950  0.95110  Biso   1.000  H
  H3       1.0000 0.98070  0.51590  0.78850  Biso   1.000  H
  H4       1.0000 0.09200  0.16670  0.01090  Biso   1.000  H
  H5       1.0000 0.05970  0.25600  0.94470  Biso   1.000  H
  H6       1.0000 0.92060  0.33120  0.11160  Biso   1.000  H
  H7       1.0000 0.03490  0.46370  0.87060  Biso   1.000  H
  H8       1.0000 0.06410  0.36730  0.92730  Biso   1.000  H
  H9       1.0000 0.85880  0.38560  0.02890  Biso   1.000  H
  H10      1.0000 0.82980  0.47810  0.97190  Biso   1.000  H
  H11      1.0000 0.04230  0.33700  0.49160  Biso   1.000  H
  H12      1.0000 0.02240  0.24390  0.55340  Biso   1.000  H
  H13      1.0000 0.91950  0.14590  0.36880  Biso   1.000  H
  H14      1.0000 0.81760  0.79600  0.59780  Biso   1.000  H
  H15      1.0000 0.83620  0.88940  0.53270  Biso   1.000  H
  H16      1.0000 0.94940  0.98400  0.71230  Biso   1.000  H
  H17      1.0000 0.03950  0.13370  0.57550  Biso   1.000  H
  H18      1.0000 0.01370  0.03730  0.63290  Biso   1.000  H
  H19      1.0000 0.82230  0.99590  0.50600  Biso   1.000  H
  H20      1.0000 0.85210  0.09160  0.44650  Biso   1.000  H
  H21      1.0000 0.95430  0.45650  0.68070  Biso   1.000  H
  H22      1.0000 0.87380  0.36690  0.64470  Biso   1.000  H
  H23      1.0000 0.84530  0.42750  0.45060  Biso   1.000  H
  H24      1.0000 0.66440  0.00730  0.30030  Biso   1.000  H
  H25      1.0000 0.71810  0.10990  0.33960  Biso   1.000  H
  H26      1.0000 0.62960  0.11230  0.54240  Biso   1.000  H
  H27      1.0000 0.81330  0.31910  0.40860  Biso   1.000  H
  H28      1.0000 0.74750  0.21570  0.36840  Biso   1.000  H
  H29      1.0000 0.70770  0.19640  0.58050  Biso   1.000  H
  H30      1.0000 0.77670  0.29650  0.62140  Biso   1.000  H
  H31      1.0000 0.31420  0.31760  0.61280  Biso   1.000  H
  H32      1.0000 0.33500  0.41050  0.54890  Biso   1.000  H
  H33      1.0000 0.48070  0.48410  0.71150  Biso   1.000  H
  H34      1.0000 0.59200  0.83330  0.48910  Biso   1.000  H
  H35      1.0000 0.55970  0.74400  0.55530  Biso   1.000  H
  H36      1.0000 0.42060  0.66880  0.38840  Biso   1.000  H
  H37      1.0000 0.53490  0.53630  0.62940  Biso   1.000  H
  H38      1.0000 0.56410  0.63270  0.57270  Biso   1.000  H
  H39      1.0000 0.35880  0.61440  0.47110  Biso   1.000  H
  H40      1.0000 0.32980  0.52190  0.52810  Biso   1.000  H
  H41      1.0000 0.54230  0.66300  0.00840  Biso   1.000  H
  H42      1.0000 0.52240  0.75610  0.94660  Biso   1.000  H
  H43      1.0000 0.41950  0.85410  0.13120  Biso   1.000  H
  H44      1.0000 0.31760  0.20400  0.90220  Biso   1.000  H
  H45      1.0000 0.33620  0.11060  0.96730  Biso   1.000  H
  H46      1.0000 0.44940  0.01600  0.78770  Biso   1.000  H
  H47      1.0000 0.53950  0.86630  0.92450  Biso   1.000  H
  H48      1.0000 0.51370  0.96270  0.86710  Biso   1.000  H
  H49      1.0000 0.32230  0.00410  0.99400  Biso   1.000  H
  H50      1.0000 0.35210  0.90840  0.05350  Biso   1.000  H
  H51      1.0000 0.45430  0.54350  0.81930  Biso   1.000  H
  H52      1.0000 0.37380  0.63310  0.85530  Biso   1.000  H
  H53      1.0000 0.34530  0.57250  0.04940  Biso   1.000  H
  H54      1.0000 0.16440  0.99270  0.19970  Biso   1.000  H
  H55      1.0000 0.21810  0.89010  0.16040  Biso   1.000  H
  H56      1.0000 0.12960  0.88770  0.95760  Biso   1.000  H
  H57      1.0000 0.31330  0.68090  0.09140  Biso   1.000  H
  H58      1.0000 0.24750  0.78430  0.13160  Biso   1.000  H
  H59      1.0000 0.20770  0.80360  0.91950  Biso   1.000  H
  H60      1.0000 0.27670  0.70350  0.87860  Biso   1.000  H
  H61      1.0000 0.18580  0.31760  0.11280  Biso   1.000  H
  H62      1.0000 0.16500  0.41050  0.04890  Biso   1.000  H
  H63      1.0000 0.01930  0.48410  0.21150  Biso   1.000  H
  H64      1.0000 0.90800  0.83330  0.98910  Biso   1.000  H
  H65      1.0000 0.94030  0.74400  0.05530  Biso   1.000  H
  H66      1.0000 0.07940  0.66880  0.88840  Biso   1.000  H
  H67      1.0000 0.96510  0.53630  0.12940  Biso   1.000  H
  H68      1.0000 0.93590  0.63270  0.07270  Biso   1.000  H
  H69      1.0000 0.14120  0.61440  0.97110  Biso   1.000  H
  H70      1.0000 0.17020  0.52190  0.02810  Biso   1.000  H
  H71      1.0000 0.95770  0.66300  0.50840  Biso   1.000  H
  H72      1.0000 0.97760  0.75610  0.44660  Biso   1.000  H
  H73      1.0000 0.08050  0.85410  0.63120  Biso   1.000  H
  H74      1.0000 0.18240  0.20400  0.40220  Biso   1.000  H
  H75      1.0000 0.16380  0.11060  0.46730  Biso   1.000  H
  H76      1.0000 0.05060  0.01600  0.28770  Biso   1.000  H
  H77      1.0000 0.96050  0.86630  0.42450  Biso   1.000  H
  H78      1.0000 0.98630  0.96270  0.36710  Biso   1.000  H
  H79      1.0000 0.17770  0.00410  0.49400  Biso   1.000  H
  H80      1.0000 0.14790  0.90840  0.55350  Biso   1.000  H
  H81      1.0000 0.04570  0.54350  0.31930  Biso   1.000  H
  H82      1.0000 0.12620  0.63310  0.35530  Biso   1.000  H
  H83      1.0000 0.15470  0.57250  0.54940  Biso   1.000  H
  H84      1.0000 0.33560  0.99270  0.69970  Biso   1.000  H
  H85      1.0000 0.28190  0.89010  0.66040  Biso   1.000  H
  H86      1.0000 0.37040  0.88770  0.45760  Biso   1.000  H
  H87      1.0000 0.18670  0.68090  0.59140  Biso   1.000  H
  H88      1.0000 0.25250  0.78430  0.63160  Biso   1.000  H
  H89      1.0000 0.29230  0.80360  0.41950  Biso   1.000  H
  H90      1.0000 0.22330  0.70350  0.37860  Biso   1.000  H
  H91      1.0000 0.68580  0.68240  0.38720  Biso   1.000  H
  H92      1.0000 0.66500  0.58950  0.45110  Biso   1.000  H
  H93      1.0000 0.51930  0.51590  0.28850  Biso   1.000  H
  H94      1.0000 0.40800  0.16670  0.51090  Biso   1.000  H
  H95      1.0000 0.44030  0.25600  0.44470  Biso   1.000  H
  H96      1.0000 0.57940  0.33120  0.61160  Biso   1.000  H
  H97      1.0000 0.46510  0.46370  0.37060  Biso   1.000  H
  H98      1.0000 0.43590  0.36730  0.42730  Biso   1.000  H
  H99      1.0000 0.64120  0.38560  0.52890  Biso   1.000  H
  H100     1.0000 0.67020  0.47810  0.47190  Biso   1.000  H
  H101     1.0000 0.45770  0.33700  0.99160  Biso   1.000  H
  H102     1.0000 0.47760  0.24390  0.05340  Biso   1.000  H
  H103     1.0000 0.58050  0.14590  0.86880  Biso   1.000  H
  H104     1.0000 0.68240  0.79600  0.09780  Biso   1.000  H
  H105     1.0000 0.66380  0.88940  0.03270  Biso   1.000  H
  H106     1.0000 0.55060  0.98400  0.21230  Biso   1.000  H
  H107     1.0000 0.46050  0.13370  0.07550  Biso   1.000  H
  H108     1.0000 0.48630  0.03730  0.13290  Biso   1.000  H
  H109     1.0000 0.67770  0.99590  0.00600  Biso   1.000  H
  H110     1.0000 0.64790  0.09160  0.94650  Biso   1.000  H
  H111     1.0000 0.54570  0.45650  0.18070  Biso   1.000  H
  H112     1.0000 0.62620  0.36690  0.14470  Biso   1.000  H
  H113     1.0000 0.65470  0.42750  0.95060  Biso   1.000  H
  H114     1.0000 0.83560  0.00730  0.80030  Biso   1.000  H
  H115     1.0000 0.78190  0.10990  0.83960  Biso   1.000  H
  H116     1.0000 0.87040  0.11230  0.04240  Biso   1.000  H
  H117     1.0000 0.68670  0.31910  0.90860  Biso   1.000  H
  H118     1.0000 0.75250  0.21570  0.86840  Biso   1.000  H
  H119     1.0000 0.79230  0.19640  0.08050  Biso   1.000  H
  H120     1.0000 0.72330  0.29650  0.12140  Biso   1.000  H
  C1       1.0000 0.84950  0.64750  0.86710  Biso   1.000  C
  C2       1.0000 0.86080  0.59140  0.90610  Biso   1.000  C
  C3       1.0000 0.91010  0.54000  0.87660  Biso   1.000  C
  C4       1.0000 0.94530  0.54980  0.81050  Biso   1.000  C
  C5       1.0000 0.05540  0.20050  0.03070  Biso   1.000  C
  C6       1.0000 0.03690  0.25450  0.99130  Biso   1.000  C
  C7       1.0000 0.98550  0.30520  0.02060  Biso   1.000  C
  C8       1.0000 0.95510  0.29680  0.08880  Biso   1.000  C
  C9       1.0000 0.92770  0.47970  0.91230  Biso   1.000  C
  C10      1.0000 0.99830  0.44710  0.90170  Biso   1.000  C
  C11      1.0000 0.01620  0.38970  0.93640  Biso   1.000  C
  C12      1.0000 0.96530  0.36580  0.98330  Biso   1.000  C
  C13      1.0000 0.89460  0.40070  0.99610  Biso   1.000  C
  C14      1.0000 0.87750  0.45540  0.96190  Biso   1.000  C
  C15      1.0000 0.01790  0.29660  0.46630  Biso   1.000  C
  C16      1.0000 0.00480  0.24190  0.50420  Biso   1.000  C
  C17      1.0000 0.96540  0.18410  0.46900  Biso   1.000  C
  C18      1.0000 0.94470  0.18530  0.39530  Biso   1.000  C
  C19      1.0000 0.84640  0.83490  0.62040  Biso   1.000  C
  C20      1.0000 0.85650  0.89120  0.58090  Biso   1.000  C
  C21      1.0000 0.89600  0.94780  0.61410  Biso   1.000  C
  C22      1.0000 0.92280  0.94500  0.68670  Biso   1.000  C
  C23      1.0000 0.94860  0.12260  0.50700  Biso   1.000  C
  C24      1.0000 0.99570  0.10610  0.56160  Biso   1.000  C
  C25      1.0000 0.97980  0.04930  0.59680  Biso   1.000  C
  C26      1.0000 0.91260  0.00950  0.57820  Biso   1.000  C
  C27      1.0000 0.86560  0.02400  0.52070  Biso   1.000  C
  C28      1.0000 0.88360  0.08110  0.48520  Biso   1.000  C
  C29      1.0000 0.92570  0.45430  0.63650  Biso   1.000  C
  C30      1.0000 0.88120  0.39940  0.61210  Biso   1.000  C
  C31      1.0000 0.84460  0.38530  0.54340  Biso   1.000  C
  C32      1.0000 0.86210  0.43400  0.50030  Biso   1.000  C
  C33      1.0000 0.65490  0.03040  0.34900  Biso   1.000  C
  C34      1.0000 0.68760  0.08960  0.37310  Biso   1.000  C
  C35      1.0000 0.68030  0.12590  0.44670  Biso   1.000  C
  C36      1.0000 0.63510  0.09270  0.49190  Biso   1.000  C
  C37      1.0000 0.80120  0.31940  0.51850  Biso   1.000  C
  C38      1.0000 0.79220  0.29400  0.44400  Biso   1.000  C
  C39      1.0000 0.75260  0.23220  0.41980  Biso   1.000  C
  C40      1.0000 0.72020  0.19420  0.47120  Biso   1.000  C
  C41      1.0000 0.72980  0.22070  0.54500  Biso   1.000  C
  C42      1.0000 0.77010  0.28110  0.57000  Biso   1.000  C
  C43      1.0000 0.34950  0.35250  0.63290  Biso   1.000  C
  C44      1.0000 0.36080  0.40860  0.59390  Biso   1.000  C
  C45      1.0000 0.41010  0.46000  0.62340  Biso   1.000  C
  C46      1.0000 0.44530  0.45020  0.68950  Biso   1.000  C
  C47      1.0000 0.55540  0.79950  0.46930  Biso   1.000  C
  C48      1.0000 0.53690  0.74550  0.50870  Biso   1.000  C
  C49      1.0000 0.48550  0.69480  0.47940  Biso   1.000  C
  C50      1.0000 0.45510  0.70320  0.41120  Biso   1.000  C
  C51      1.0000 0.42770  0.52030  0.58770  Biso   1.000  C
  C52      1.0000 0.49830  0.55290  0.59830  Biso   1.000  C
  C53      1.0000 0.51620  0.61030  0.56360  Biso   1.000  C
  C54      1.0000 0.46530  0.63420  0.51670  Biso   1.000  C
  C55      1.0000 0.39460  0.59930  0.50390  Biso   1.000  C
  C56      1.0000 0.37750  0.54460  0.53810  Biso   1.000  C
  C57      1.0000 0.51790  0.70340  0.03370  Biso   1.000  C
  C58      1.0000 0.50480  0.75810  0.99580  Biso   1.000  C
  C59      1.0000 0.46540  0.81590  0.03100  Biso   1.000  C
  C60      1.0000 0.44470  0.81470  0.10470  Biso   1.000  C
  C61      1.0000 0.34640  0.16510  0.87960  Biso   1.000  C
  C62      1.0000 0.35650  0.10880  0.91910  Biso   1.000  C
  C63      1.0000 0.39600  0.05220  0.88590  Biso   1.000  C
  C64      1.0000 0.42280  0.05500  0.81330  Biso   1.000  C
  C65      1.0000 0.44860  0.87740  0.99300  Biso   1.000  C
  C66      1.0000 0.49570  0.89390  0.93840  Biso   1.000  C
  C67      1.0000 0.47980  0.95070  0.90320  Biso   1.000  C
  C68      1.0000 0.41260  0.99050  0.92180  Biso   1.000  C
  C69      1.0000 0.36560  0.97600  0.97930  Biso   1.000  C
  C70      1.0000 0.38360  0.91890  0.01480  Biso   1.000  C
  C71      1.0000 0.42570  0.54570  0.86350  Biso   1.000  C
  C72      1.0000 0.38120  0.60060  0.88790  Biso   1.000  C
  C73      1.0000 0.34460  0.61470  0.95660  Biso   1.000  C
  C74      1.0000 0.36210  0.56600  0.99970  Biso   1.000  C
  C75      1.0000 0.15490  0.96960  0.15100  Biso   1.000  C
  C76      1.0000 0.18760  0.91040  0.12690  Biso   1.000  C
  C77      1.0000 0.18030  0.87410  0.05330  Biso   1.000  C
  C78      1.0000 0.13510  0.90730  0.00810  Biso   1.000  C
  C79      1.0000 0.30120  0.68060  0.98150  Biso   1.000  C
  C80      1.0000 0.29220  0.70600  0.05600  Biso   1.000  C
  C81      1.0000 0.25260  0.76780  0.08020  Biso   1.000  C
  C82      1.0000 0.22020  0.80580  0.02880  Biso   1.000  C
  C83      1.0000 0.22980  0.77930  0.95500  Biso   1.000  C
  C84      1.0000 0.27010  0.71890  0.93000  Biso   1.000  C
  C85      1.0000 0.15050  0.35250  0.13290  Biso   1.000  C
  C86      1.0000 0.13920  0.40860  0.09390  Biso   1.000  C
  C87      1.0000 0.08990  0.46000  0.12340  Biso   1.000  C
  C88      1.0000 0.05470  0.45020  0.18950  Biso   1.000  C
  C89      1.0000 0.94460  0.79950  0.96930  Biso   1.000  C
  C90      1.0000 0.96310  0.74550  0.00870  Biso   1.000  C
  C91      1.0000 0.01450  0.69480  0.97940  Biso   1.000  C
  C92      1.0000 0.04490  0.70320  0.91120  Biso   1.000  C
  C93      1.0000 0.07230  0.52030  0.08770  Biso   1.000  C
  C94      1.0000 0.00170  0.55290  0.09830  Biso   1.000  C
  C95      1.0000 0.98380  0.61030  0.06360  Biso   1.000  C
  C96      1.0000 0.03470  0.63420  0.01670  Biso   1.000  C
  C97      1.0000 0.10540  0.59930  0.00390  Biso   1.000  C
  C98      1.0000 0.12250  0.54460  0.03810  Biso   1.000  C
  C99      1.0000 0.98210  0.70340  0.53370  Biso   1.000  C
  C100     1.0000 0.99520  0.75810  0.49580  Biso   1.000  C
  C101     1.0000 0.03460  0.81590  0.53100  Biso   1.000  C
  C102     1.0000 0.05530  0.81470  0.60470  Biso   1.000  C
  C103     1.0000 0.15360  0.16510  0.37960  Biso   1.000  C
  C104     1.0000 0.14350  0.10880  0.41910  Biso   1.000  C
  C105     1.0000 0.10400  0.05220  0.38590  Biso   1.000  C
  C106     1.0000 0.07720  0.05500  0.31330  Biso   1.000  C
  C107     1.0000 0.05140  0.87740  0.49300  Biso   1.000  C
  C108     1.0000 0.00430  0.89390  0.43840  Biso   1.000  C
  C109     1.0000 0.02020  0.95070  0.40320  Biso   1.000  C
  C110     1.0000 0.08740  0.99050  0.42180  Biso   1.000  C
  C111     1.0000 0.13440  0.97600  0.47930  Biso   1.000  C
  C112     1.0000 0.11640  0.91890  0.51480  Biso   1.000  C
  C113     1.0000 0.07430  0.54570  0.36350  Biso   1.000  C
  C114     1.0000 0.11880  0.60060  0.38790  Biso   1.000  C
  C115     1.0000 0.15540  0.61470  0.45660  Biso   1.000  C
  C116     1.0000 0.13790  0.56600  0.49970  Biso   1.000  C
  C117     1.0000 0.34510  0.96960  0.65100  Biso   1.000  C
  C118     1.0000 0.31240  0.91040  0.62690  Biso   1.000  C
  C119     1.0000 0.31970  0.87410  0.55330  Biso   1.000  C
  C120     1.0000 0.36490  0.90730  0.50810  Biso   1.000  C
  C121     1.0000 0.19880  0.68060  0.48150  Biso   1.000  C
  C122     1.0000 0.20780  0.70600  0.55600  Biso   1.000  C
  C123     1.0000 0.24740  0.76780  0.58020  Biso   1.000  C
  C124     1.0000 0.27980  0.80580  0.52880  Biso   1.000  C
  C125     1.0000 0.27020  0.77930  0.45500  Biso   1.000  C
  C126     1.0000 0.22990  0.71890  0.43000  Biso   1.000  C
  C127     1.0000 0.65050  0.64750  0.36710  Biso   1.000  C
  C128     1.0000 0.63920  0.59140  0.40610  Biso   1.000  C
  C129     1.0000 0.58990  0.54000  0.37660  Biso   1.000  C
  C130     1.0000 0.55470  0.54980  0.31050  Biso   1.000  C
  C131     1.0000 0.44460  0.20050  0.53070  Biso   1.000  C
  C132     1.0000 0.46310  0.25450  0.49130  Biso   1.000  C
  C133     1.0000 0.51450  0.30520  0.52060  Biso   1.000  C
  C134     1.0000 0.54490  0.29680  0.58880  Biso   1.000  C
  C135     1.0000 0.57230  0.47970  0.41230  Biso   1.000  C
  C136     1.0000 0.50170  0.44710  0.40170  Biso   1.000  C
  C137     1.0000 0.48380  0.38970  0.43640  Biso   1.000  C
  C138     1.0000 0.53470  0.36580  0.48330  Biso   1.000  C
  C139     1.0000 0.60540  0.40070  0.49610  Biso   1.000  C
  C140     1.0000 0.62250  0.45540  0.46190  Biso   1.000  C
  C141     1.0000 0.48210  0.29660  0.96630  Biso   1.000  C
  C142     1.0000 0.49520  0.24190  0.00420  Biso   1.000  C
  C143     1.0000 0.53460  0.18410  0.96900  Biso   1.000  C
  C144     1.0000 0.55530  0.18530  0.89530  Biso   1.000  C
  C145     1.0000 0.65360  0.83490  0.12040  Biso   1.000  C
  C146     1.0000 0.64350  0.89120  0.08090  Biso   1.000  C
  C147     1.0000 0.60400  0.94780  0.11410  Biso   1.000  C
  C148     1.0000 0.57720  0.94500  0.18670  Biso   1.000  C
  C149     1.0000 0.55140  0.12260  0.00700  Biso   1.000  C
  C150     1.0000 0.50430  0.10610  0.06160  Biso   1.000  C
  C151     1.0000 0.52020  0.04930  0.09680  Biso   1.000  C
  C152     1.0000 0.58740  0.00950  0.07820  Biso   1.000  C
  C153     1.0000 0.63440  0.02400  0.02070  Biso   1.000  C
  C154     1.0000 0.61640  0.08110  0.98520  Biso   1.000  C
  C155     1.0000 0.57430  0.45430  0.13650  Biso   1.000  C
  C156     1.0000 0.61880  0.39940  0.11210  Biso   1.000  C
  C157     1.0000 0.65540  0.38530  0.04340  Biso   1.000  C
  C158     1.0000 0.63790  0.43400  0.00030  Biso   1.000  C
  C159     1.0000 0.84510  0.03040  0.84900  Biso   1.000  C
  C160     1.0000 0.81240  0.08960  0.87310  Biso   1.000  C
  C161     1.0000 0.81970  0.12590  0.94670  Biso   1.000  C
  C162     1.0000 0.86490  0.09270  0.99190  Biso   1.000  C
  C163     1.0000 0.69880  0.31940  0.01850  Biso   1.000  C
  C164     1.0000 0.70780  0.29400  0.94400  Biso   1.000  C
  C165     1.0000 0.74740  0.23220  0.91980  Biso   1.000  C
  C166     1.0000 0.77980  0.19420  0.97120  Biso   1.000  C
  C167     1.0000 0.77020  0.22070  0.04500  Biso   1.000  C
  C168     1.0000 0.72990  0.28110  0.07000  Biso   1.000  C
  N1       1.0000 0.88320  0.65510  0.80650  Biso   1.000  N
  N2       1.0000 0.93100  0.60560  0.77640  Biso   1.000  N
  N3       1.0000 0.02240  0.19570  0.09590  Biso   1.000  N
  N4       1.0000 0.97090  0.24420  0.12430  Biso   1.000  N
  N5       1.0000 0.99790  0.29550  0.39560  Biso   1.000  N
  N6       1.0000 0.95880  0.23900  0.36070  Biso   1.000  N
  N7       1.0000 0.87450  0.83390  0.68570  Biso   1.000  N
  N8       1.0000 0.91220  0.88990  0.72050  Biso   1.000  N
  N9       1.0000 0.92860  0.50450  0.59780  Biso   1.000  N
  N10      1.0000 0.90520  0.49450  0.52880  Biso   1.000  N
  N11      1.0000 0.60700  0.00160  0.39400  Biso   1.000  N
  N12      1.0000 0.59730  0.03080  0.46460  Biso   1.000  N
  N13      1.0000 0.38320  0.34490  0.69350  Biso   1.000  N
  N14      1.0000 0.43100  0.39440  0.72360  Biso   1.000  N
  N15      1.0000 0.52240  0.80430  0.40410  Biso   1.000  N
  N16      1.0000 0.47090  0.75580  0.37570  Biso   1.000  N
  N17      1.0000 0.49790  0.70450  0.10440  Biso   1.000  N
  N18      1.0000 0.45880  0.76100  0.13930  Biso   1.000  N
  N19      1.0000 0.37450  0.16610  0.81430  Biso   1.000  N
  N20      1.0000 0.41220  0.11010  0.77950  Biso   1.000  N
  N21      1.0000 0.42860  0.49550  0.90220  Biso   1.000  N
  N22      1.0000 0.40520  0.50550  0.97120  Biso   1.000  N
  N23      1.0000 0.10700  0.99840  0.10600  Biso   1.000  N
  N24      1.0000 0.09730  0.96920  0.03540  Biso   1.000  N
  N25      1.0000 0.11680  0.34490  0.19350  Biso   1.000  N
  N26      1.0000 0.06900  0.39440  0.22360  Biso   1.000  N
  N27      1.0000 0.97760  0.80430  0.90410  Biso   1.000  N
  N28      1.0000 0.02910  0.75580  0.87570  Biso   1.000  N
  N29      1.0000 0.00210  0.70450  0.60440  Biso   1.000  N
  N30      1.0000 0.04120  0.76100  0.63930  Biso   1.000  N
  N31      1.0000 0.12550  0.16610  0.31430  Biso   1.000  N
  N32      1.0000 0.08780  0.11010  0.27950  Biso   1.000  N
  N33      1.0000 0.07140  0.49550  0.40220  Biso   1.000  N
  N34      1.0000 0.09480  0.50550  0.47120  Biso   1.000  N
  N35      1.0000 0.39300  0.99840  0.60600  Biso   1.000  N
  N36      1.0000 0.40270  0.96920  0.53540  Biso   1.000  N
  N37      1.0000 0.61680  0.65510  0.30650  Biso   1.000  N
  N38      1.0000 0.56900  0.60560  0.27640  Biso   1.000  N
  N39      1.0000 0.47760  0.19570  0.59590  Biso   1.000  N
  N40      1.0000 0.52910  0.24420  0.62430  Biso   1.000  N
  N41      1.0000 0.50210  0.29550  0.89560  Biso   1.000  N
  N42      1.0000 0.54120  0.23900  0.86070  Biso   1.000  N
  N43      1.0000 0.62550  0.83390  0.18570  Biso   1.000  N
  N44      1.0000 0.58780  0.88990  0.22050  Biso   1.000  N
  N45      1.0000 0.57140  0.50450  0.09780  Biso   1.000  N
  N46      1.0000 0.59480  0.49450  0.02880  Biso   1.000  N
  N47      1.0000 0.89300  0.00160  0.89400  Biso   1.000  N
  N48      1.0000 0.90270  0.03080  0.96460  Biso   1.000  N
