data_image0
_cell_length_a       15.5006
_cell_length_b       15.5006
_cell_length_c       18.3368
_cell_angle_alpha    115.003
_cell_angle_beta     115.003
_cell_angle_gamma    90

_symmetry_space_group_name_H-M    P 1
_symmetry_int_tables_number       1

loop_
  _symmetry_equiv_pos_as_xyz
  'x, y, z'

loop_
  _atom_site_label
  _atom_site_occupancy
  _atom_site_fract_x
  _atom_site_fract_y
  _atom_site_fract_z
  _atom_site_thermal_displace_type
  _atom_site_B_iso_or_equiv
  _atom_site_type_symbol
  Cu1      1.0000 0.88418  0.88418  0.00000  Biso   1.000  Cu
  Cu2      1.0000 0.11582  0.11582  0.00000  Biso   1.000  Cu
  Cu3      1.0000 0.88418  0.11582  0.00000  Biso   1.000  Cu
  Cu4      1.0000 0.11582  0.88418  0.00000  Biso   1.000  Cu
  Cu5      1.0000 0.88316  0.88316  0.18952  Biso   1.000  Cu
  Cu6      1.0000 0.30636  0.30636  0.18952  Biso   1.000  Cu
  Cu7      1.0000 0.88316  0.30636  0.18952  Biso   1.000  Cu
  Cu8      1.0000 0.30636  0.88316  0.18952  Biso   1.000  Cu
  Cu9      1.0000 0.69364  0.11684  0.81048  Biso   1.000  Cu
  Cu10     1.0000 0.11684  0.69364  0.81048  Biso   1.000  Cu
  Cu11     1.0000 0.69364  0.69364  0.81048  Biso   1.000  Cu
  Cu12     1.0000 0.11684  0.11684  0.81048  Biso   1.000  Cu
  H1       1.0000 0.02290  0.83720  0.30300  Biso   1.000  H
  H2       1.0000 0.08250  0.80100  0.42180  Biso   1.000  H
  H3       1.0000 0.28010  0.46580  0.30300  Biso   1.000  H
  H4       1.0000 0.33930  0.62080  0.42180  Biso   1.000  H
  H5       1.0000 0.83720  0.28010  0.30300  Biso   1.000  H
  H6       1.0000 0.80100  0.33930  0.42180  Biso   1.000  H
  H7       1.0000 0.46580  0.02290  0.30300  Biso   1.000  H
  H8       1.0000 0.62080  0.08250  0.42180  Biso   1.000  H
  H9       1.0000 0.71990  0.16280  0.69700  Biso   1.000  H
  H10      1.0000 0.66070  0.19900  0.57820  Biso   1.000  H
  H11      1.0000 0.97710  0.53420  0.69700  Biso   1.000  H
  H12      1.0000 0.91750  0.37920  0.57820  Biso   1.000  H
  H13      1.0000 0.53420  0.71990  0.69700  Biso   1.000  H
  H14      1.0000 0.37920  0.66070  0.57820  Biso   1.000  H
  H15      1.0000 0.16280  0.97710  0.69700  Biso   1.000  H
  H16      1.0000 0.19900  0.91750  0.57820  Biso   1.000  H
  H17      1.0000 0.97710  0.16280  0.69700  Biso   1.000  H
  H18      1.0000 0.91750  0.19900  0.57820  Biso   1.000  H
  H19      1.0000 0.71990  0.53420  0.69700  Biso   1.000  H
  H20      1.0000 0.66070  0.37920  0.57820  Biso   1.000  H
  H21      1.0000 0.16280  0.71990  0.69700  Biso   1.000  H
  H22      1.0000 0.19900  0.66070  0.57820  Biso   1.000  H
  H23      1.0000 0.53420  0.97710  0.69700  Biso   1.000  H
  H24      1.0000 0.37920  0.91750  0.57820  Biso   1.000  H
  H25      1.0000 0.28010  0.83720  0.30300  Biso   1.000  H
  H26      1.0000 0.33930  0.80100  0.42180  Biso   1.000  H
  H27      1.0000 0.02290  0.46580  0.30300  Biso   1.000  H
  H28      1.0000 0.08250  0.62080  0.42180  Biso   1.000  H
  H29      1.0000 0.46580  0.28010  0.30300  Biso   1.000  H
  H30      1.0000 0.62080  0.33930  0.42180  Biso   1.000  H
  H31      1.0000 0.83720  0.02290  0.30300  Biso   1.000  H
  H32      1.0000 0.80100  0.08250  0.42180  Biso   1.000  H
  C1       1.0000 0.08663  0.82893  0.32606  Biso   1.000  C
  C2       1.0000 0.12264  0.80704  0.39748  Biso   1.000  C
  C3       1.0000 0.23943  0.49713  0.32606  Biso   1.000  C
  C4       1.0000 0.27484  0.59044  0.39748  Biso   1.000  C
  C5       1.0000 0.82893  0.23943  0.32606  Biso   1.000  C
  C6       1.0000 0.80704  0.27484  0.39748  Biso   1.000  C
  C7       1.0000 0.49713  0.08663  0.32606  Biso   1.000  C
  C8       1.0000 0.59044  0.12264  0.39748  Biso   1.000  C
  C9       1.0000 0.76057  0.17107  0.67394  Biso   1.000  C
  C10      1.0000 0.72516  0.19296  0.60252  Biso   1.000  C
  C11      1.0000 0.91337  0.50287  0.67394  Biso   1.000  C
  C12      1.0000 0.87736  0.40956  0.60252  Biso   1.000  C
  C13      1.0000 0.50287  0.76057  0.67394  Biso   1.000  C
  C14      1.0000 0.40956  0.72516  0.60252  Biso   1.000  C
  C15      1.0000 0.17107  0.91337  0.67394  Biso   1.000  C
  C16      1.0000 0.19296  0.87736  0.60252  Biso   1.000  C
  C17      1.0000 0.91337  0.17107  0.67394  Biso   1.000  C
  C18      1.0000 0.87736  0.19296  0.60252  Biso   1.000  C
  C19      1.0000 0.76057  0.50287  0.67394  Biso   1.000  C
  C20      1.0000 0.72516  0.40956  0.60252  Biso   1.000  C
  C21      1.0000 0.17107  0.76057  0.67394  Biso   1.000  C
  C22      1.0000 0.19296  0.72516  0.60252  Biso   1.000  C
  C23      1.0000 0.50287  0.91337  0.67394  Biso   1.000  C
  C24      1.0000 0.40956  0.87736  0.60252  Biso   1.000  C
  C25      1.0000 0.23943  0.82893  0.32606  Biso   1.000  C
  C26      1.0000 0.27484  0.80704  0.39748  Biso   1.000  C
  C27      1.0000 0.08663  0.49713  0.32606  Biso   1.000  C
  C28      1.0000 0.12264  0.59044  0.39748  Biso   1.000  C
  C29      1.0000 0.49713  0.23943  0.32606  Biso   1.000  C
  C30      1.0000 0.59044  0.27484  0.39748  Biso   1.000  C
  C31      1.0000 0.82893  0.08663  0.32606  Biso   1.000  C
  C32      1.0000 0.80704  0.12264  0.39748  Biso   1.000  C
  C33      1.0000 0.10392  0.85472  0.20784  Biso   1.000  C
  C34      1.0000 0.14427  0.83877  0.28854  Biso   1.000  C
  C35      1.0000 0.21686  0.79386  0.43372  Biso   1.000  C
  C36      1.0000 0.10392  0.35312  0.20784  Biso   1.000  C
  C37      1.0000 0.14427  0.44977  0.28854  Biso   1.000  C
  C38      1.0000 0.21686  0.63986  0.43372  Biso   1.000  C
  C39      1.0000 0.85472  0.10392  0.20784  Biso   1.000  C
  C40      1.0000 0.83877  0.14427  0.28854  Biso   1.000  C
  C41      1.0000 0.79386  0.21686  0.43372  Biso   1.000  C
  C42      1.0000 0.35312  0.10392  0.20784  Biso   1.000  C
  C43      1.0000 0.44977  0.14427  0.28854  Biso   1.000  C
  C44      1.0000 0.63986  0.21686  0.43372  Biso   1.000  C
  C45      1.0000 0.89608  0.14528  0.79216  Biso   1.000  C
  C46      1.0000 0.85573  0.16123  0.71146  Biso   1.000  C
  C47      1.0000 0.78314  0.20614  0.56628  Biso   1.000  C
  C48      1.0000 0.89608  0.64688  0.79216  Biso   1.000  C
  C49      1.0000 0.85573  0.55023  0.71146  Biso   1.000  C
  C50      1.0000 0.78314  0.36014  0.56628  Biso   1.000  C
  C51      1.0000 0.64688  0.89608  0.79216  Biso   1.000  C
  C52      1.0000 0.55023  0.85573  0.71146  Biso   1.000  C
  C53      1.0000 0.36014  0.78314  0.56628  Biso   1.000  C
  C54      1.0000 0.14528  0.89608  0.79216  Biso   1.000  C
  C55      1.0000 0.16123  0.85573  0.71146  Biso   1.000  C
  C56      1.0000 0.20614  0.78314  0.56628  Biso   1.000  C
  C57      1.0000 0.25000  0.75000  0.50000  Biso   1.000  C
  C58      1.0000 0.75000  0.25000  0.50000  Biso   1.000  C
  N1       1.0000 0.00513  0.87128  0.09568  Biso   1.000  N
  N2       1.0000 0.01108  0.86108  0.16602  Biso   1.000  N
  N3       1.0000 0.09055  0.22440  0.09568  Biso   1.000  N
  N4       1.0000 0.15494  0.30494  0.16602  Biso   1.000  N
  N5       1.0000 0.87128  0.09055  0.09568  Biso   1.000  N
  N6       1.0000 0.86108  0.15494  0.16602  Biso   1.000  N
  N7       1.0000 0.22440  0.00513  0.09568  Biso   1.000  N
  N8       1.0000 0.30494  0.01108  0.16602  Biso   1.000  N
  N9       1.0000 0.90945  0.12872  0.90432  Biso   1.000  N
  N10      1.0000 0.84506  0.13892  0.83398  Biso   1.000  N
  N11      1.0000 0.99487  0.77560  0.90432  Biso   1.000  N
  N12      1.0000 0.98892  0.69506  0.83398  Biso   1.000  N
  N13      1.0000 0.77560  0.90945  0.90432  Biso   1.000  N
  N14      1.0000 0.69506  0.84506  0.83398  Biso   1.000  N
  N15      1.0000 0.12872  0.99487  0.90432  Biso   1.000  N
  N16      1.0000 0.13892  0.98892  0.83398  Biso   1.000  N
  N17      1.0000 0.99487  0.12872  0.90432  Biso   1.000  N
  N18      1.0000 0.98892  0.13892  0.83398  Biso   1.000  N
  N19      1.0000 0.90945  0.77560  0.90432  Biso   1.000  N
  N20      1.0000 0.84506  0.69506  0.83398  Biso   1.000  N
  N21      1.0000 0.12872  0.90945  0.90432  Biso   1.000  N
  N22      1.0000 0.13892  0.84506  0.83398  Biso   1.000  N
  N23      1.0000 0.77560  0.99487  0.90432  Biso   1.000  N
  N24      1.0000 0.69506  0.98892  0.83398  Biso   1.000  N
  N25      1.0000 0.09055  0.87128  0.09568  Biso   1.000  N
  N26      1.0000 0.15494  0.86108  0.16602  Biso   1.000  N
  N27      1.0000 0.00513  0.22440  0.09568  Biso   1.000  N
  N28      1.0000 0.01108  0.30494  0.16602  Biso   1.000  N
  N29      1.0000 0.22440  0.09055  0.09568  Biso   1.000  N
  N30      1.0000 0.30494  0.15494  0.16602  Biso   1.000  N
  N31      1.0000 0.87128  0.00513  0.09568  Biso   1.000  N
  N32      1.0000 0.86108  0.01108  0.16602  Biso   1.000  N
  Cl1      1.0000 0.00000  0.00000  0.00000  Biso   1.000  Cl
  O1       1.0000 0.78600  0.78600  0.00000  Biso   1.000  O
  O2       1.0000 0.21400  0.21400  1.00000  Biso   1.000  O
  O3       1.0000 0.78600  0.21400  0.00000  Biso   1.000  O
  O4       1.0000 0.21400  0.78600  0.00000  Biso   1.000  O
  O5       1.0000 0.97390  0.97390  0.30980  Biso   1.000  O
  O6       1.0000 0.33590  0.33590  0.30980  Biso   1.000  O
  O7       1.0000 0.97390  0.33590  0.30980  Biso   1.000  O
  O8       1.0000 0.33590  0.97390  0.30980  Biso   1.000  O
  O9       1.0000 0.66410  0.02610  0.69020  Biso   1.000  O
  O10      1.0000 0.02610  0.66410  0.69020  Biso   1.000  O
  O11      1.0000 0.66410  0.66410  0.69020  Biso   1.000  O
  O12      1.0000 0.02610  0.02610  0.69020  Biso   1.000  O
