data_image0
_cell_length_a       13.5583
_cell_length_b       13.9094
_cell_length_c       16.28
_cell_angle_alpha    107.802
_cell_angle_beta     90
_cell_angle_gamma    119.169

_symmetry_space_group_name_H-M    P 1
_symmetry_int_tables_number       1

loop_
  _symmetry_equiv_pos_as_xyz
  'x, y, z'

loop_
  _atom_site_label
  _atom_site_occupancy
  _atom_site_fract_x
  _atom_site_fract_y
  _atom_site_fract_z
  _atom_site_thermal_displace_type
  _atom_site_B_iso_or_equiv
  _atom_site_type_symbol
  Mn1      1.0000 0.97022  0.41082  0.86424  Biso   1.000  Mn
  Mn2      1.0000 0.55940  0.58918  0.63576  Biso   1.000  Mn
  Mn3      1.0000 0.02978  0.58918  0.13576  Biso   1.000  Mn
  Mn4      1.0000 0.44060  0.41082  0.36424  Biso   1.000  Mn
  H1       1.0000 0.01370  0.37140  0.31170  Biso   1.000  H
  H2       1.0000 0.01040  0.25220  0.29250  Biso   1.000  H
  H3       1.0000 0.90810  0.25380  0.24940  Biso   1.000  H
  H4       1.0000 0.79220  0.32000  0.43580  Biso   1.000  H
  H5       1.0000 0.90060  0.42620  0.42300  Biso   1.000  H
  H6       1.0000 0.80320  0.33000  0.34250  Biso   1.000  H
  H7       1.0000 0.76100  0.11920  0.30690  Biso   1.000  H
  H8       1.0000 0.85120  0.09760  0.34570  Biso   1.000  H
  H9       1.0000 0.77750  0.13580  0.40660  Biso   1.000  H
  H10      1.0000 0.19490  0.40500  0.66170  Biso   1.000  H
  H11      1.0000 0.13320  0.34400  0.40550  Biso   1.000  H
  H12      1.0000 0.88020  0.28940  0.54350  Biso   1.000  H
  H13      1.0000 0.23000  0.51520  0.84200  Biso   1.000  H
  H14      1.0000 0.39360  0.67940  0.84630  Biso   1.000  H
  H15      1.0000 0.23180  0.85800  0.91900  Biso   1.000  H
  H16      1.0000 0.07520  0.69120  0.91170  Biso   1.000  H
  H17      1.0000 0.42410  0.96260  0.89920  Biso   1.000  H
  H18      1.0000 0.54500  0.84920  0.85170  Biso   1.000  H
  H19      1.0000 0.70290  0.28420  0.86810  Biso   1.000  H
  H20      1.0000 0.55140  0.12000  0.87020  Biso   1.000  H
  H21      1.0000 0.75120  0.98120  0.86220  Biso   1.000  H
  H22      1.0000 0.90010  0.15500  0.86270  Biso   1.000  H
  H23      1.0000 0.64230  0.62860  0.18830  Biso   1.000  H
  H24      1.0000 0.75820  0.74780  0.20750  Biso   1.000  H
  H25      1.0000 0.65430  0.74620  0.25060  Biso   1.000  H
  H26      1.0000 0.47220  0.68000  0.06420  Biso   1.000  H
  H27      1.0000 0.47440  0.57380  0.07700  Biso   1.000  H
  H28      1.0000 0.47320  0.67000  0.15750  Biso   1.000  H
  H29      1.0000 0.64180  0.88080  0.19310  Biso   1.000  H
  H30      1.0000 0.75360  0.90240  0.15430  Biso   1.000  H
  H31      1.0000 0.64170  0.86420  0.09340  Biso   1.000  H
  H32      1.0000 0.78990  0.59500  0.83830  Biso   1.000  H
  H33      1.0000 0.78920  0.65600  0.09450  Biso   1.000  H
  H34      1.0000 0.59080  0.71060  0.95650  Biso   1.000  H
  H35      1.0000 0.71480  0.48480  0.65800  Biso   1.000  H
  H36      1.0000 0.71420  0.32060  0.65370  Biso   1.000  H
  H37      1.0000 0.37380  0.14200  0.58100  Biso   1.000  H
  H38      1.0000 0.38400  0.30880  0.58830  Biso   1.000  H
  H39      1.0000 0.46150  0.03740  0.60080  Biso   1.000  H
  H40      1.0000 0.69580  0.15080  0.64830  Biso   1.000  H
  H41      1.0000 0.41870  0.71580  0.63190  Biso   1.000  H
  H42      1.0000 0.43140  0.88000  0.62980  Biso   1.000  H
  H43      1.0000 0.77000  0.01880  0.63780  Biso   1.000  H
  H44      1.0000 0.74510  0.84500  0.63730  Biso   1.000  H
  H45      1.0000 0.98630  0.62860  0.68830  Biso   1.000  H
  H46      1.0000 0.98960  0.74780  0.70750  Biso   1.000  H
  H47      1.0000 0.09190  0.74620  0.75060  Biso   1.000  H
  H48      1.0000 0.20780  0.68000  0.56420  Biso   1.000  H
  H49      1.0000 0.09940  0.57380  0.57700  Biso   1.000  H
  H50      1.0000 0.19680  0.67000  0.65750  Biso   1.000  H
  H51      1.0000 0.23900  0.88080  0.69310  Biso   1.000  H
  H52      1.0000 0.14880  0.90240  0.65430  Biso   1.000  H
  H53      1.0000 0.22250  0.86420  0.59340  Biso   1.000  H
  H54      1.0000 0.80510  0.59500  0.33830  Biso   1.000  H
  H55      1.0000 0.86680  0.65600  0.59450  Biso   1.000  H
  H56      1.0000 0.11980  0.71060  0.45650  Biso   1.000  H
  H57      1.0000 0.77000  0.48480  0.15800  Biso   1.000  H
  H58      1.0000 0.60640  0.32060  0.15370  Biso   1.000  H
  H59      1.0000 0.76820  0.14200  0.08100  Biso   1.000  H
  H60      1.0000 0.92480  0.30880  0.08830  Biso   1.000  H
  H61      1.0000 0.57590  0.03740  0.10080  Biso   1.000  H
  H62      1.0000 0.45500  0.15080  0.14830  Biso   1.000  H
  H63      1.0000 0.29710  0.71580  0.13190  Biso   1.000  H
  H64      1.0000 0.44860  0.88000  0.12980  Biso   1.000  H
  H65      1.0000 0.24880  0.01880  0.13780  Biso   1.000  H
  H66      1.0000 0.09990  0.84500  0.13730  Biso   1.000  H
  H67      1.0000 0.35770  0.37140  0.81170  Biso   1.000  H
  H68      1.0000 0.24180  0.25220  0.79250  Biso   1.000  H
  H69      1.0000 0.34570  0.25380  0.74940  Biso   1.000  H
  H70      1.0000 0.52780  0.32000  0.93580  Biso   1.000  H
  H71      1.0000 0.52560  0.42620  0.92300  Biso   1.000  H
  H72      1.0000 0.52680  0.33000  0.84250  Biso   1.000  H
  H73      1.0000 0.35820  0.11920  0.80690  Biso   1.000  H
  H74      1.0000 0.24640  0.09760  0.84570  Biso   1.000  H
  H75      1.0000 0.35830  0.13580  0.90660  Biso   1.000  H
  H76      1.0000 0.21010  0.40500  0.16170  Biso   1.000  H
  H77      1.0000 0.21080  0.34400  0.90550  Biso   1.000  H
  H78      1.0000 0.40920  0.28940  0.04350  Biso   1.000  H
  H79      1.0000 0.28520  0.51520  0.34200  Biso   1.000  H
  H80      1.0000 0.28580  0.67940  0.34630  Biso   1.000  H
  H81      1.0000 0.62620  0.85800  0.41900  Biso   1.000  H
  H82      1.0000 0.61600  0.69120  0.41170  Biso   1.000  H
  H83      1.0000 0.53850  0.96260  0.39920  Biso   1.000  H
  H84      1.0000 0.30420  0.84920  0.35170  Biso   1.000  H
  H85      1.0000 0.58130  0.28420  0.36810  Biso   1.000  H
  H86      1.0000 0.56860  0.12000  0.37020  Biso   1.000  H
  H87      1.0000 0.23000  0.98120  0.36220  Biso   1.000  H
  H88      1.0000 0.25490  0.15500  0.36270  Biso   1.000  H
  C1       1.0000 0.96500  0.28900  0.30100  Biso   1.000  C
  C2       1.0000 0.84470  0.34400  0.39670  Biso   1.000  C
  C3       1.0000 0.81580  0.14460  0.35750  Biso   1.000  C
  C4       1.0000 0.03190  0.34740  0.61530  Biso   1.000  C
  C5       1.0000 0.14480  0.38380  0.61190  Biso   1.000  C
  C6       1.0000 0.18420  0.38900  0.53480  Biso   1.000  C
  C7       1.0000 0.10740  0.34860  0.45870  Biso   1.000  C
  C8       1.0000 0.99430  0.31580  0.46060  Biso   1.000  C
  C9       1.0000 0.95680  0.31380  0.54050  Biso   1.000  C
  C10      1.0000 0.98890  0.34360  0.70040  Biso   1.000  C
  C11      1.0000 0.31010  0.43600  0.53170  Biso   1.000  C
  C12      1.0000 0.90660  0.27220  0.37840  Biso   1.000  C
  C13      1.0000 0.23030  0.58560  0.85760  Biso   1.000  C
  C14      1.0000 0.32900  0.68400  0.85970  Biso   1.000  C
  C15      1.0000 0.33420  0.78900  0.88120  Biso   1.000  C
  C16      1.0000 0.23350  0.78880  0.90230  Biso   1.000  C
  C17      1.0000 0.14070  0.68860  0.89830  Biso   1.000  C
  C18      1.0000 0.43210  0.89700  0.88360  Biso   1.000  C
  C19      1.0000 0.53410  0.91300  0.86570  Biso   1.000  C
  C20      1.0000 0.71390  0.22320  0.86800  Biso   1.000  C
  C21      1.0000 0.62200  0.12440  0.86870  Biso   1.000  C
  C22      1.0000 0.63070  0.02760  0.86730  Biso   1.000  C
  C23      1.0000 0.73900  0.04200  0.86430  Biso   1.000  C
  C24      1.0000 0.82830  0.14780  0.86460  Biso   1.000  C
  C25      1.0000 0.67600  0.71100  0.19900  Biso   1.000  C
  C26      1.0000 0.50070  0.65600  0.10330  Biso   1.000  C
  C27      1.0000 0.67120  0.85540  0.14250  Biso   1.000  C
  C28      1.0000 0.68450  0.65260  0.88470  Biso   1.000  C
  C29      1.0000 0.76100  0.61620  0.88810  Biso   1.000  C
  C30      1.0000 0.79520  0.61100  0.96520  Biso   1.000  C
  C31      1.0000 0.75880  0.65140  0.04130  Biso   1.000  C
  C32      1.0000 0.67850  0.68420  0.03940  Biso   1.000  C
  C33      1.0000 0.64300  0.68620  0.95950  Biso   1.000  C
  C34      1.0000 0.64530  0.65640  0.79960  Biso   1.000  C
  C35      1.0000 0.87410  0.56400  0.96830  Biso   1.000  C
  C36      1.0000 0.63440  0.72780  0.12160  Biso   1.000  C
  C37      1.0000 0.64470  0.41440  0.64240  Biso   1.000  C
  C38      1.0000 0.64500  0.31600  0.64030  Biso   1.000  C
  C39      1.0000 0.54520  0.21100  0.61880  Biso   1.000  C
  C40      1.0000 0.44470  0.21120  0.59770  Biso   1.000  C
  C41      1.0000 0.45210  0.31140  0.60170  Biso   1.000  C
  C42      1.0000 0.53510  0.10300  0.61640  Biso   1.000  C
  C43      1.0000 0.62110  0.08700  0.63430  Biso   1.000  C
  C44      1.0000 0.49070  0.77680  0.63200  Biso   1.000  C
  C45      1.0000 0.49760  0.87560  0.63130  Biso   1.000  C
  C46      1.0000 0.60310  0.97240  0.63270  Biso   1.000  C
  C47      1.0000 0.69700  0.95800  0.63570  Biso   1.000  C
  C48      1.0000 0.68050  0.85220  0.63540  Biso   1.000  C
  C49      1.0000 0.03500  0.71100  0.69900  Biso   1.000  C
  C50      1.0000 0.15530  0.65600  0.60330  Biso   1.000  C
  C51      1.0000 0.18420  0.85540  0.64250  Biso   1.000  C
  C52      1.0000 0.96810  0.65260  0.38470  Biso   1.000  C
  C53      1.0000 0.85520  0.61620  0.38810  Biso   1.000  C
  C54      1.0000 0.81580  0.61100  0.46520  Biso   1.000  C
  C55      1.0000 0.89260  0.65140  0.54130  Biso   1.000  C
  C56      1.0000 0.00570  0.68420  0.53940  Biso   1.000  C
  C57      1.0000 0.04320  0.68620  0.45950  Biso   1.000  C
  C58      1.0000 0.01110  0.65640  0.29960  Biso   1.000  C
  C59      1.0000 0.68990  0.56400  0.46830  Biso   1.000  C
  C60      1.0000 0.09340  0.72780  0.62160  Biso   1.000  C
  C61      1.0000 0.76970  0.41440  0.14240  Biso   1.000  C
  C62      1.0000 0.67100  0.31600  0.14030  Biso   1.000  C
  C63      1.0000 0.66580  0.21100  0.11880  Biso   1.000  C
  C64      1.0000 0.76650  0.21120  0.09770  Biso   1.000  C
  C65      1.0000 0.85930  0.31140  0.10170  Biso   1.000  C
  C66      1.0000 0.56790  0.10300  0.11640  Biso   1.000  C
  C67      1.0000 0.46590  0.08700  0.13430  Biso   1.000  C
  C68      1.0000 0.28610  0.77680  0.13200  Biso   1.000  C
  C69      1.0000 0.37800  0.87560  0.13130  Biso   1.000  C
  C70      1.0000 0.36930  0.97240  0.13270  Biso   1.000  C
  C71      1.0000 0.26100  0.95800  0.13570  Biso   1.000  C
  C72      1.0000 0.17170  0.85220  0.13540  Biso   1.000  C
  C73      1.0000 0.32400  0.28900  0.80100  Biso   1.000  C
  C74      1.0000 0.49930  0.34400  0.89670  Biso   1.000  C
  C75      1.0000 0.32880  0.14460  0.85750  Biso   1.000  C
  C76      1.0000 0.31550  0.34740  0.11530  Biso   1.000  C
  C77      1.0000 0.23900  0.38380  0.11190  Biso   1.000  C
  C78      1.0000 0.20480  0.38900  0.03480  Biso   1.000  C
  C79      1.0000 0.24120  0.34860  0.95870  Biso   1.000  C
  C80      1.0000 0.32150  0.31580  0.96060  Biso   1.000  C
  C81      1.0000 0.35700  0.31380  0.04050  Biso   1.000  C
  C82      1.0000 0.35470  0.34360  0.20040  Biso   1.000  C
  C83      1.0000 0.12590  0.43600  0.03170  Biso   1.000  C
  C84      1.0000 0.36560  0.27220  0.87840  Biso   1.000  C
  C85      1.0000 0.35530  0.58560  0.35760  Biso   1.000  C
  C86      1.0000 0.35500  0.68400  0.35970  Biso   1.000  C
  C87      1.0000 0.45480  0.78900  0.38120  Biso   1.000  C
  C88      1.0000 0.55530  0.78880  0.40230  Biso   1.000  C
  C89      1.0000 0.54790  0.68860  0.39830  Biso   1.000  C
  C90      1.0000 0.46490  0.89700  0.38360  Biso   1.000  C
  C91      1.0000 0.37890  0.91300  0.36570  Biso   1.000  C
  C92      1.0000 0.50930  0.22320  0.36800  Biso   1.000  C
  C93      1.0000 0.50240  0.12440  0.36870  Biso   1.000  C
  C94      1.0000 0.39690  0.02760  0.36730  Biso   1.000  C
  C95      1.0000 0.30300  0.04200  0.36430  Biso   1.000  C
  C96      1.0000 0.31950  0.14780  0.36460  Biso   1.000  C
  N1       1.0000 0.13370  0.58400  0.87650  Biso   1.000  N
  N2       1.0000 0.82100  0.24200  0.86720  Biso   1.000  N
  N3       1.0000 0.54970  0.41600  0.62350  Biso   1.000  N
  N4       1.0000 0.57900  0.75800  0.63280  Biso   1.000  N
  N5       1.0000 0.86630  0.41600  0.12350  Biso   1.000  N
  N6       1.0000 0.17900  0.75800  0.13280  Biso   1.000  N
  N7       1.0000 0.45030  0.58400  0.37650  Biso   1.000  N
  N8       1.0000 0.42100  0.24200  0.36720  Biso   1.000  N
  O1       1.0000 0.04100  0.33000  0.75670  Biso   1.000  O
  O2       1.0000 0.90800  0.36080  0.71640  Biso   1.000  O
  O3       1.0000 0.33510  0.40000  0.45780  Biso   1.000  O
  O4       1.0000 0.38060  0.50420  0.60250  Biso   1.000  O
  O5       1.0000 0.71100  0.67000  0.74330  Biso   1.000  O
  O6       1.0000 0.54720  0.63920  0.78360  Biso   1.000  O
  O7       1.0000 0.93510  0.60000  0.04220  Biso   1.000  O
  O8       1.0000 0.87640  0.49580  0.89750  Biso   1.000  O
  O9       1.0000 0.95900  0.67000  0.24330  Biso   1.000  O
  O10      1.0000 0.09200  0.63920  0.28360  Biso   1.000  O
  O11      1.0000 0.66490  0.60000  0.54220  Biso   1.000  O
  O12      1.0000 0.61940  0.49580  0.39750  Biso   1.000  O
  O13      1.0000 0.28900  0.33000  0.25670  Biso   1.000  O
  O14      1.0000 0.45280  0.36080  0.21640  Biso   1.000  O
  O15      1.0000 0.06490  0.40000  0.95780  Biso   1.000  O
  O16      1.0000 0.12360  0.50420  0.10250  Biso   1.000  O
