data_image0
_cell_length_a       14.704
_cell_length_b       17.244
_cell_length_c       24.516
_cell_angle_alpha    105.772
_cell_angle_beta     90
_cell_angle_gamma    90

_symmetry_space_group_name_H-M    P 1
_symmetry_int_tables_number       1

loop_
  _symmetry_equiv_pos_as_xyz
  'x, y, z'

loop_
  _atom_site_label
  _atom_site_occupancy
  _atom_site_fract_x
  _atom_site_fract_y
  _atom_site_fract_z
  _atom_site_thermal_displace_type
  _atom_site_B_iso_or_equiv
  _atom_site_type_symbol
  Cr1      1.0000 0.52410  0.20996  0.59060  Biso   1.000  Cr
  Cr2      1.0000 0.50638  0.21686  0.34446  Biso   1.000  Cr
  Cr3      1.0000 0.51038  0.20675  0.84120  Biso   1.000  Cr
  Cr4      1.0000 0.01618  0.28954  0.40700  Biso   1.000  Cr
  Cr5      1.0000 0.02410  0.29004  0.90940  Biso   1.000  Cr
  Cr6      1.0000 0.00638  0.28314  0.15554  Biso   1.000  Cr
  Cr7      1.0000 0.01038  0.29325  0.65880  Biso   1.000  Cr
  Cr8      1.0000 0.51618  0.21046  0.09300  Biso   1.000  Cr
  Cr9      1.0000 0.47590  0.79004  0.40940  Biso   1.000  Cr
  Cr10     1.0000 0.49362  0.78314  0.65554  Biso   1.000  Cr
  Cr11     1.0000 0.48962  0.79325  0.15880  Biso   1.000  Cr
  Cr12     1.0000 0.98382  0.71046  0.59300  Biso   1.000  Cr
  Cr13     1.0000 0.97590  0.70996  0.09060  Biso   1.000  Cr
  Cr14     1.0000 0.99362  0.71686  0.84446  Biso   1.000  Cr
  Cr15     1.0000 0.98962  0.70675  0.34120  Biso   1.000  Cr
  Cr16     1.0000 0.48382  0.78954  0.90700  Biso   1.000  Cr
  Ag1      1.0000 0.32304  0.25412  0.75179  Biso   1.000  Ag
  Ag2      1.0000 0.71155  0.24543  0.50106  Biso   1.000  Ag
  Ag3      1.0000 0.69801  0.08260  0.36076  Biso   1.000  Ag
  Ag4      1.0000 0.32494  0.08405  0.60701  Biso   1.000  Ag
  Ag5      1.0000 0.55385  0.99383  0.62598  Biso   1.000  Ag
  Ag6      1.0000 0.81811  0.43707  0.39916  Biso   1.000  Ag
  Ag7      1.0000 0.21169  0.26834  0.50527  Biso   1.000  Ag
  Ag8      1.0000 0.31343  0.25310  0.25122  Biso   1.000  Ag
  Ag9      1.0000 0.82304  0.24588  0.74821  Biso   1.000  Ag
  Ag10     1.0000 0.21155  0.25457  0.99894  Biso   1.000  Ag
  Ag11     1.0000 0.19801  0.41740  0.13924  Biso   1.000  Ag
  Ag12     1.0000 0.82494  0.41595  0.89299  Biso   1.000  Ag
  Ag13     1.0000 0.05385  0.50617  0.87402  Biso   1.000  Ag
  Ag14     1.0000 0.31811  0.06293  0.10084  Biso   1.000  Ag
  Ag15     1.0000 0.71169  0.23166  0.99473  Biso   1.000  Ag
  Ag16     1.0000 0.81343  0.24690  0.24878  Biso   1.000  Ag
  Ag17     1.0000 0.67696  0.74588  0.24821  Biso   1.000  Ag
  Ag18     1.0000 0.28845  0.75457  0.49894  Biso   1.000  Ag
  Ag19     1.0000 0.30199  0.91740  0.63924  Biso   1.000  Ag
  Ag20     1.0000 0.67506  0.91595  0.39299  Biso   1.000  Ag
  Ag21     1.0000 0.44615  0.00617  0.37402  Biso   1.000  Ag
  Ag22     1.0000 0.18189  0.56293  0.60084  Biso   1.000  Ag
  Ag23     1.0000 0.78831  0.73166  0.49473  Biso   1.000  Ag
  Ag24     1.0000 0.68657  0.74690  0.74878  Biso   1.000  Ag
  Ag25     1.0000 0.17696  0.75412  0.25179  Biso   1.000  Ag
  Ag26     1.0000 0.78845  0.74543  0.00106  Biso   1.000  Ag
  Ag27     1.0000 0.80199  0.58260  0.86076  Biso   1.000  Ag
  Ag28     1.0000 0.17506  0.58405  0.10701  Biso   1.000  Ag
  Ag29     1.0000 0.94615  0.49383  0.12598  Biso   1.000  Ag
  Ag30     1.0000 0.68189  0.93707  0.89916  Biso   1.000  Ag
  Ag31     1.0000 0.28831  0.76834  0.00527  Biso   1.000  Ag
  Ag32     1.0000 0.18657  0.75310  0.75122  Biso   1.000  Ag
  H1       1.0000 0.74530  0.93270  0.28260  Biso   1.000  H
  H2       1.0000 0.83540  0.98510  0.29320  Biso   1.000  H
  H3       1.0000 0.24530  0.56730  0.21740  Biso   1.000  H
  H4       1.0000 0.33540  0.51490  0.20680  Biso   1.000  H
  H5       1.0000 0.25470  0.06730  0.71740  Biso   1.000  H
  H6       1.0000 0.16460  0.01490  0.70680  Biso   1.000  H
  H7       1.0000 0.75470  0.43270  0.78260  Biso   1.000  H
  H8       1.0000 0.66460  0.48510  0.79320  Biso   1.000  H
  C1       1.0000 0.38460  0.31680  0.58930  Biso   1.000  C
  C2       1.0000 0.37630  0.29290  0.64520  Biso   1.000  C
  C3       1.0000 0.67270  0.27310  0.65630  Biso   1.000  C
  C4       1.0000 0.66190  0.18500  0.66010  Biso   1.000  C
  C5       1.0000 0.55400  0.10940  0.48210  Biso   1.000  C
  C6       1.0000 0.46290  0.08260  0.50220  Biso   1.000  C
  C7       1.0000 0.35920  0.28620  0.41150  Biso   1.000  C
  C8       1.0000 0.36260  0.19650  0.41250  Biso   1.000  C
  C9       1.0000 0.65940  0.29410  0.39750  Biso   1.000  C
  C10      1.0000 0.65280  0.31540  0.34010  Biso   1.000  C
  C11      1.0000 0.55350  0.08400  0.25630  Biso   1.000  C
  C12      1.0000 0.46510  0.11860  0.23730  Biso   1.000  C
  C13      1.0000 0.46950  0.10980  0.73410  Biso   1.000  C
  C14      1.0000 0.55880  0.07520  0.75210  Biso   1.000  C
  C15      1.0000 0.65550  0.30680  0.83700  Biso   1.000  C
  C16      1.0000 0.66500  0.28370  0.89430  Biso   1.000  C
  C17      1.0000 0.36720  0.18890  0.91050  Biso   1.000  C
  C18      1.0000 0.36440  0.27720  0.90710  Biso   1.000  C
  C19      1.0000 0.86590  0.20800  0.35400  Biso   1.000  C
  C20      1.0000 0.87310  0.18820  0.41150  Biso   1.000  C
  C21      1.0000 0.95730  0.41690  0.49490  Biso   1.000  C
  C22      1.0000 0.04920  0.38900  0.51450  Biso   1.000  C
  C23      1.0000 0.16770  0.22850  0.34250  Biso   1.000  C
  C24      1.0000 0.15790  0.31690  0.33930  Biso   1.000  C
  C25      1.0000 0.88460  0.18320  0.91070  Biso   1.000  C
  C26      1.0000 0.87630  0.20710  0.85480  Biso   1.000  C
  C27      1.0000 0.17270  0.22690  0.84370  Biso   1.000  C
  C28      1.0000 0.16190  0.31500  0.83990  Biso   1.000  C
  C29      1.0000 0.05400  0.39060  0.01790  Biso   1.000  C
  C30      1.0000 0.96290  0.41740  0.99780  Biso   1.000  C
  C31      1.0000 0.85920  0.21380  0.08850  Biso   1.000  C
  C32      1.0000 0.86260  0.30350  0.08750  Biso   1.000  C
  C33      1.0000 0.15940  0.20590  0.10250  Biso   1.000  C
  C34      1.0000 0.15280  0.18460  0.15990  Biso   1.000  C
  C35      1.0000 0.05350  0.41600  0.24370  Biso   1.000  C
  C36      1.0000 0.96510  0.38140  0.26270  Biso   1.000  C
  C37      1.0000 0.96950  0.39020  0.76590  Biso   1.000  C
  C38      1.0000 0.05880  0.42480  0.74790  Biso   1.000  C
  C39      1.0000 0.15550  0.19320  0.66300  Biso   1.000  C
  C40      1.0000 0.16500  0.21630  0.60570  Biso   1.000  C
  C41      1.0000 0.86720  0.31110  0.58950  Biso   1.000  C
  C42      1.0000 0.86440  0.22280  0.59290  Biso   1.000  C
  C43      1.0000 0.36590  0.29200  0.14600  Biso   1.000  C
  C44      1.0000 0.37310  0.31180  0.08850  Biso   1.000  C
  C45      1.0000 0.45730  0.08310  0.00510  Biso   1.000  C
  C46      1.0000 0.54920  0.11100  0.98550  Biso   1.000  C
  C47      1.0000 0.66770  0.27150  0.15750  Biso   1.000  C
  C48      1.0000 0.65790  0.18310  0.16070  Biso   1.000  C
  C49      1.0000 0.61540  0.68320  0.41070  Biso   1.000  C
  C50      1.0000 0.62370  0.70710  0.35480  Biso   1.000  C
  C51      1.0000 0.32730  0.72690  0.34370  Biso   1.000  C
  C52      1.0000 0.33810  0.81500  0.33990  Biso   1.000  C
  C53      1.0000 0.44600  0.89060  0.51790  Biso   1.000  C
  C54      1.0000 0.53710  0.91740  0.49780  Biso   1.000  C
  C55      1.0000 0.64080  0.71380  0.58850  Biso   1.000  C
  C56      1.0000 0.63740  0.80350  0.58750  Biso   1.000  C
  C57      1.0000 0.34060  0.70590  0.60250  Biso   1.000  C
  C58      1.0000 0.34720  0.68460  0.65990  Biso   1.000  C
  C59      1.0000 0.44650  0.91600  0.74370  Biso   1.000  C
  C60      1.0000 0.53490  0.88140  0.76270  Biso   1.000  C
  C61      1.0000 0.53050  0.89020  0.26590  Biso   1.000  C
  C62      1.0000 0.44120  0.92480  0.24790  Biso   1.000  C
  C63      1.0000 0.34450  0.69320  0.16300  Biso   1.000  C
  C64      1.0000 0.33500  0.71630  0.10570  Biso   1.000  C
  C65      1.0000 0.63280  0.81110  0.08950  Biso   1.000  C
  C66      1.0000 0.63560  0.72280  0.09290  Biso   1.000  C
  C67      1.0000 0.13410  0.79200  0.64600  Biso   1.000  C
  C68      1.0000 0.12690  0.81180  0.58850  Biso   1.000  C
  C69      1.0000 0.04270  0.58310  0.50510  Biso   1.000  C
  C70      1.0000 0.95080  0.61100  0.48550  Biso   1.000  C
  C71      1.0000 0.83230  0.77150  0.65750  Biso   1.000  C
  C72      1.0000 0.84210  0.68310  0.66070  Biso   1.000  C
  C73      1.0000 0.11540  0.81680  0.08930  Biso   1.000  C
  C74      1.0000 0.12370  0.79290  0.14520  Biso   1.000  C
  C75      1.0000 0.82730  0.77310  0.15630  Biso   1.000  C
  C76      1.0000 0.83810  0.68500  0.16010  Biso   1.000  C
  C77      1.0000 0.94600  0.60940  0.98210  Biso   1.000  C
  C78      1.0000 0.03710  0.58260  0.00220  Biso   1.000  C
  C79      1.0000 0.14080  0.78620  0.91150  Biso   1.000  C
  C80      1.0000 0.13740  0.69650  0.91250  Biso   1.000  C
  C81      1.0000 0.84060  0.79410  0.89750  Biso   1.000  C
  C82      1.0000 0.84720  0.81540  0.84010  Biso   1.000  C
  C83      1.0000 0.94650  0.58400  0.75630  Biso   1.000  C
  C84      1.0000 0.03490  0.61860  0.73730  Biso   1.000  C
  C85      1.0000 0.03050  0.60980  0.23410  Biso   1.000  C
  C86      1.0000 0.94120  0.57520  0.25210  Biso   1.000  C
  C87      1.0000 0.84450  0.80680  0.33700  Biso   1.000  C
  C88      1.0000 0.83500  0.78370  0.39430  Biso   1.000  C
  C89      1.0000 0.13280  0.68890  0.41050  Biso   1.000  C
  C90      1.0000 0.13560  0.77720  0.40710  Biso   1.000  C
  C91      1.0000 0.63410  0.70800  0.85400  Biso   1.000  C
  C92      1.0000 0.62690  0.68820  0.91150  Biso   1.000  C
  C93      1.0000 0.54270  0.91690  0.99490  Biso   1.000  C
  C94      1.0000 0.45080  0.88900  0.01450  Biso   1.000  C
  C95      1.0000 0.33230  0.72850  0.84250  Biso   1.000  C
  C96      1.0000 0.34210  0.81690  0.83930  Biso   1.000  C
  O1       1.0000 0.45370  0.28450  0.55860  Biso   1.000  O
  O2       1.0000 0.32840  0.36100  0.57610  Biso   1.000  O
  O3       1.0000 0.43810  0.24510  0.65320  Biso   1.000  O
  O4       1.0000 0.31290  0.31920  0.67770  Biso   1.000  O
  O5       1.0000 0.61510  0.29280  0.62360  Biso   1.000  O
  O6       1.0000 0.73320  0.31540  0.68330  Biso   1.000  O
  O7       1.0000 0.59760  0.14530  0.62960  Biso   1.000  O
  O8       1.0000 0.71400  0.15730  0.68930  Biso   1.000  O
  O9       1.0000 0.59260  0.16760  0.51820  Biso   1.000  O
  O10      1.0000 0.58520  0.07290  0.43490  Biso   1.000  O
  O11      1.0000 0.44380  0.11930  0.55380  Biso   1.000  O
  O12      1.0000 0.41590  0.02940  0.47140  Biso   1.000  O
  O13      1.0000 0.42170  0.30480  0.37930  Biso   1.000  O
  O14      1.0000 0.30090  0.33100  0.43710  Biso   1.000  O
  O15      1.0000 0.42970  0.15610  0.38450  Biso   1.000  O
  O16      1.0000 0.30630  0.17060  0.43940  Biso   1.000  O
  O17      1.0000 0.59600  0.24890  0.40650  Biso   1.000  O
  O18      1.0000 0.72330  0.32010  0.42980  Biso   1.000  O
  O19      1.0000 0.58280  0.28620  0.31110  Biso   1.000  O
  O20      1.0000 0.71230  0.35650  0.32610  Biso   1.000  O
  O21      1.0000 0.57860  0.11990  0.30680  Biso   1.000  O
  O22      1.0000 0.59140  0.02590  0.22410  Biso   1.000  O
  O23      1.0000 0.43390  0.18120  0.27510  Biso   1.000  O
  O24      1.0000 0.42930  0.08670  0.19160  Biso   1.000  O
  O25      1.0000 0.43770  0.17120  0.77060  Biso   1.000  O
  O26      1.0000 0.43590  0.07700  0.68700  Biso   1.000  O
  O27      1.0000 0.58200  0.11140  0.80380  Biso   1.000  O
  O28      1.0000 0.59860  0.01830  0.72100  Biso   1.000  O
  O29      1.0000 0.58520  0.27800  0.80790  Biso   1.000  O
  O30      1.0000 0.71390  0.34930  0.82310  Biso   1.000  O
  O31      1.0000 0.59960  0.24000  0.90270  Biso   1.000  O
  O32      1.0000 0.72870  0.30780  0.92560  Biso   1.000  O
  O33      1.0000 0.43210  0.14660  0.88020  Biso   1.000  O
  O34      1.0000 0.31230  0.16410  0.93890  Biso   1.000  O
  O35      1.0000 0.42650  0.29600  0.87640  Biso   1.000  O
  O36      1.0000 0.30490  0.32290  0.93270  Biso   1.000  O
  O37      1.0000 0.92980  0.25160  0.34360  Biso   1.000  O
  O38      1.0000 0.80050  0.18310  0.32300  Biso   1.000  O
  O39      1.0000 0.94380  0.21790  0.44090  Biso   1.000  O
  O40      1.0000 0.81410  0.14790  0.42720  Biso   1.000  O
  O41      1.0000 0.93680  0.38130  0.44350  Biso   1.000  O
  O42      1.0000 0.91270  0.47030  0.52710  Biso   1.000  O
  O43      1.0000 0.08570  0.32960  0.47770  Biso   1.000  O
  O44      1.0000 0.08290  0.42430  0.56070  Biso   1.000  O
  O45      1.0000 0.10830  0.20670  0.37410  Biso   1.000  O
  O46      1.0000 0.22910  0.18620  0.31700  Biso   1.000  O
  O47      1.0000 0.08950  0.35450  0.36820  Biso   1.000  O
  O48      1.0000 0.21170  0.34640  0.31260  Biso   1.000  O
  O49      1.0000 0.77070  0.98560  0.28560  Biso   1.000  O
  O50      1.0000 0.95370  0.21550  0.94140  Biso   1.000  O
  O51      1.0000 0.82840  0.13900  0.92390  Biso   1.000  O
  O52      1.0000 0.93810  0.25490  0.84680  Biso   1.000  O
  O53      1.0000 0.81290  0.18080  0.82230  Biso   1.000  O
  O54      1.0000 0.11510  0.20720  0.87640  Biso   1.000  O
  O55      1.0000 0.23320  0.18460  0.81670  Biso   1.000  O
  O56      1.0000 0.09760  0.35470  0.87040  Biso   1.000  O
  O57      1.0000 0.21400  0.34270  0.81070  Biso   1.000  O
  O58      1.0000 0.09260  0.33240  0.98180  Biso   1.000  O
  O59      1.0000 0.08520  0.42710  0.06510  Biso   1.000  O
  O60      1.0000 0.94380  0.38070  0.94620  Biso   1.000  O
  O61      1.0000 0.91590  0.47060  0.02860  Biso   1.000  O
  O62      1.0000 0.92170  0.19520  0.12070  Biso   1.000  O
  O63      1.0000 0.80090  0.16900  0.06290  Biso   1.000  O
  O64      1.0000 0.92970  0.34390  0.11550  Biso   1.000  O
  O65      1.0000 0.80630  0.32940  0.06060  Biso   1.000  O
  O66      1.0000 0.09600  0.25110  0.09350  Biso   1.000  O
  O67      1.0000 0.22330  0.17990  0.07020  Biso   1.000  O
  O68      1.0000 0.08280  0.21380  0.18890  Biso   1.000  O
  O69      1.0000 0.21230  0.14350  0.17390  Biso   1.000  O
  O70      1.0000 0.07860  0.38010  0.19320  Biso   1.000  O
  O71      1.0000 0.09140  0.47410  0.27590  Biso   1.000  O
  O72      1.0000 0.93390  0.31880  0.22490  Biso   1.000  O
  O73      1.0000 0.92930  0.41330  0.30840  Biso   1.000  O
  O74      1.0000 0.93770  0.32880  0.72940  Biso   1.000  O
  O75      1.0000 0.93590  0.42300  0.81300  Biso   1.000  O
  O76      1.0000 0.08200  0.38860  0.69620  Biso   1.000  O
  O77      1.0000 0.09860  0.48170  0.77900  Biso   1.000  O
  O78      1.0000 0.08520  0.22200  0.69210  Biso   1.000  O
  O79      1.0000 0.21390  0.15070  0.67690  Biso   1.000  O
  O80      1.0000 0.09960  0.26000  0.59730  Biso   1.000  O
  O81      1.0000 0.22870  0.19220  0.57440  Biso   1.000  O
  O82      1.0000 0.93210  0.35340  0.61980  Biso   1.000  O
  O83      1.0000 0.81230  0.33590  0.56110  Biso   1.000  O
  O84      1.0000 0.92650  0.20400  0.62360  Biso   1.000  O
  O85      1.0000 0.80490  0.17710  0.56730  Biso   1.000  O
  O86      1.0000 0.42980  0.24840  0.15640  Biso   1.000  O
  O87      1.0000 0.30050  0.31690  0.17700  Biso   1.000  O
  O88      1.0000 0.44380  0.28210  0.05910  Biso   1.000  O
  O89      1.0000 0.31410  0.35210  0.07280  Biso   1.000  O
  O90      1.0000 0.43680  0.11870  0.05650  Biso   1.000  O
  O91      1.0000 0.41270  0.02970  0.97290  Biso   1.000  O
  O92      1.0000 0.58570  0.17040  0.02230  Biso   1.000  O
  O93      1.0000 0.58290  0.07570  0.93930  Biso   1.000  O
  O94      1.0000 0.60830  0.29330  0.12590  Biso   1.000  O
  O95      1.0000 0.72910  0.31380  0.18300  Biso   1.000  O
  O96      1.0000 0.58950  0.14550  0.13180  Biso   1.000  O
  O97      1.0000 0.71170  0.15360  0.18740  Biso   1.000  O
  O98      1.0000 0.27070  0.51440  0.21440  Biso   1.000  O
  O99      1.0000 0.54630  0.71550  0.44140  Biso   1.000  O
  O100     1.0000 0.67160  0.63900  0.42390  Biso   1.000  O
  O101     1.0000 0.56190  0.75490  0.34680  Biso   1.000  O
  O102     1.0000 0.68710  0.68080  0.32230  Biso   1.000  O
  O103     1.0000 0.38490  0.70720  0.37640  Biso   1.000  O
  O104     1.0000 0.26680  0.68460  0.31670  Biso   1.000  O
  O105     1.0000 0.40240  0.85470  0.37040  Biso   1.000  O
  O106     1.0000 0.28600  0.84270  0.31070  Biso   1.000  O
  O107     1.0000 0.40740  0.83240  0.48180  Biso   1.000  O
  O108     1.0000 0.41480  0.92710  0.56510  Biso   1.000  O
  O109     1.0000 0.55620  0.88070  0.44620  Biso   1.000  O
  O110     1.0000 0.58410  0.97060  0.52860  Biso   1.000  O
  O111     1.0000 0.57830  0.69520  0.62070  Biso   1.000  O
  O112     1.0000 0.69910  0.66900  0.56290  Biso   1.000  O
  O113     1.0000 0.57030  0.84390  0.61550  Biso   1.000  O
  O114     1.0000 0.69370  0.82940  0.56060  Biso   1.000  O
  O115     1.0000 0.40400  0.75110  0.59350  Biso   1.000  O
  O116     1.0000 0.27670  0.67990  0.57020  Biso   1.000  O
  O117     1.0000 0.41720  0.71380  0.68890  Biso   1.000  O
  O118     1.0000 0.28770  0.64350  0.67390  Biso   1.000  O
  O119     1.0000 0.42140  0.88010  0.69320  Biso   1.000  O
  O120     1.0000 0.40860  0.97410  0.77590  Biso   1.000  O
  O121     1.0000 0.56610  0.81880  0.72490  Biso   1.000  O
  O122     1.0000 0.57070  0.91330  0.80840  Biso   1.000  O
  O123     1.0000 0.56230  0.82880  0.22940  Biso   1.000  O
  O124     1.0000 0.56410  0.92300  0.31300  Biso   1.000  O
  O125     1.0000 0.41800  0.88860  0.19620  Biso   1.000  O
  O126     1.0000 0.40140  0.98170  0.27900  Biso   1.000  O
  O127     1.0000 0.41480  0.72200  0.19210  Biso   1.000  O
  O128     1.0000 0.28610  0.65070  0.17690  Biso   1.000  O
  O129     1.0000 0.40040  0.76000  0.09730  Biso   1.000  O
  O130     1.0000 0.27130  0.69220  0.07440  Biso   1.000  O
  O131     1.0000 0.56790  0.85340  0.11980  Biso   1.000  O
  O132     1.0000 0.68770  0.83590  0.06110  Biso   1.000  O
  O133     1.0000 0.57350  0.70400  0.12360  Biso   1.000  O
  O134     1.0000 0.69510  0.67710  0.06730  Biso   1.000  O
  O135     1.0000 0.07020  0.74840  0.65640  Biso   1.000  O
  O136     1.0000 0.19950  0.81690  0.67700  Biso   1.000  O
  O137     1.0000 0.05620  0.78210  0.55910  Biso   1.000  O
  O138     1.0000 0.18590  0.85210  0.57280  Biso   1.000  O
  O139     1.0000 0.06320  0.61870  0.55650  Biso   1.000  O
  O140     1.0000 0.08730  0.52970  0.47290  Biso   1.000  O
  O141     1.0000 0.91430  0.67040  0.52230  Biso   1.000  O
  O142     1.0000 0.91710  0.57570  0.43930  Biso   1.000  O
  O143     1.0000 0.89170  0.79330  0.62590  Biso   1.000  O
  O144     1.0000 0.77090  0.81380  0.68300  Biso   1.000  O
  O145     1.0000 0.91050  0.64550  0.63180  Biso   1.000  O
  O146     1.0000 0.78830  0.65360  0.68740  Biso   1.000  O
  O147     1.0000 0.22930  0.01440  0.71440  Biso   1.000  O
  O148     1.0000 0.04630  0.78450  0.05860  Biso   1.000  O
  O149     1.0000 0.17160  0.86100  0.07610  Biso   1.000  O
  O150     1.0000 0.06190  0.74510  0.15320  Biso   1.000  O
  O151     1.0000 0.18710  0.81920  0.17770  Biso   1.000  O
  O152     1.0000 0.88490  0.79280  0.12360  Biso   1.000  O
  O153     1.0000 0.76680  0.81540  0.18330  Biso   1.000  O
  O154     1.0000 0.90240  0.64530  0.12960  Biso   1.000  O
  O155     1.0000 0.78600  0.65730  0.18930  Biso   1.000  O
  O156     1.0000 0.90740  0.66760  0.01820  Biso   1.000  O
  O157     1.0000 0.91480  0.57290  0.93490  Biso   1.000  O
  O158     1.0000 0.05620  0.61930  0.05380  Biso   1.000  O
  O159     1.0000 0.08410  0.52940  0.97140  Biso   1.000  O
  O160     1.0000 0.07830  0.80480  0.87930  Biso   1.000  O
  O161     1.0000 0.19910  0.83100  0.93710  Biso   1.000  O
  O162     1.0000 0.07030  0.65610  0.88450  Biso   1.000  O
  O163     1.0000 0.19370  0.67060  0.93940  Biso   1.000  O
  O164     1.0000 0.90400  0.74890  0.90650  Biso   1.000  O
  O165     1.0000 0.77670  0.82010  0.92980  Biso   1.000  O
  O166     1.0000 0.91720  0.78620  0.81110  Biso   1.000  O
  O167     1.0000 0.78770  0.85650  0.82610  Biso   1.000  O
  O168     1.0000 0.92140  0.61990  0.80680  Biso   1.000  O
  O169     1.0000 0.90860  0.52590  0.72410  Biso   1.000  O
  O170     1.0000 0.06610  0.68120  0.77510  Biso   1.000  O
  O171     1.0000 0.07070  0.58670  0.69160  Biso   1.000  O
  O172     1.0000 0.06230  0.67120  0.27060  Biso   1.000  O
  O173     1.0000 0.06410  0.57700  0.18700  Biso   1.000  O
  O174     1.0000 0.91800  0.61140  0.30380  Biso   1.000  O
  O175     1.0000 0.90140  0.51830  0.22100  Biso   1.000  O
  O176     1.0000 0.91480  0.77800  0.30790  Biso   1.000  O
  O177     1.0000 0.78610  0.84930  0.32310  Biso   1.000  O
  O178     1.0000 0.90040  0.74000  0.40270  Biso   1.000  O
  O179     1.0000 0.77130  0.80780  0.42560  Biso   1.000  O
  O180     1.0000 0.06790  0.64660  0.38020  Biso   1.000  O
  O181     1.0000 0.18770  0.66410  0.43890  Biso   1.000  O
  O182     1.0000 0.07350  0.79600  0.37640  Biso   1.000  O
  O183     1.0000 0.19510  0.82290  0.43270  Biso   1.000  O
  O184     1.0000 0.57020  0.75160  0.84360  Biso   1.000  O
  O185     1.0000 0.69950  0.68310  0.82300  Biso   1.000  O
  O186     1.0000 0.55620  0.71790  0.94090  Biso   1.000  O
  O187     1.0000 0.68590  0.64790  0.92720  Biso   1.000  O
  O188     1.0000 0.56320  0.88130  0.94350  Biso   1.000  O
  O189     1.0000 0.58730  0.97030  0.02710  Biso   1.000  O
  O190     1.0000 0.41430  0.82960  0.97770  Biso   1.000  O
  O191     1.0000 0.41710  0.92430  0.06070  Biso   1.000  O
  O192     1.0000 0.39170  0.70670  0.87410  Biso   1.000  O
  O193     1.0000 0.27090  0.68620  0.81700  Biso   1.000  O
  O194     1.0000 0.41050  0.85450  0.86820  Biso   1.000  O
  O195     1.0000 0.28830  0.84640  0.81260  Biso   1.000  O
  O196     1.0000 0.72930  0.48560  0.78560  Biso   1.000  O
