data_image0
_cell_length_a       12.2679
_cell_length_b       13.9199
_cell_length_c       13.9199
_cell_angle_alpha    78.8032
_cell_angle_beta     63.8541
_cell_angle_gamma    63.8541

_symmetry_space_group_name_H-M    P 1
_symmetry_int_tables_number       1

loop_
  _symmetry_equiv_pos_as_xyz
  'x, y, z'

loop_
  _atom_site_label
  _atom_site_occupancy
  _atom_site_fract_x
  _atom_site_fract_y
  _atom_site_fract_z
  _atom_site_thermal_displace_type
  _atom_site_B_iso_or_equiv
  _atom_site_type_symbol
  V1       1.0000 0.66259  0.50353  0.20691  Biso   1.000  V
  V2       1.0000 0.08728  0.49904  0.79766  Biso   1.000  V
  V3       1.0000 0.65354  0.37736  0.43356  Biso   1.000  V
  V4       1.0000 0.37303  0.49647  0.79309  Biso   1.000  V
  V5       1.0000 0.38398  0.50096  0.20234  Biso   1.000  V
  V6       1.0000 0.46446  0.62264  0.56644  Biso   1.000  V
  V7       1.0000 0.86950  0.79309  0.50353  Biso   1.000  V
  V8       1.0000 0.88494  0.20234  0.49904  Biso   1.000  V
  V9       1.0000 0.08710  0.56644  0.37736  Biso   1.000  V
  V10      1.0000 0.16612  0.20691  0.49647  Biso   1.000  V
  V11      1.0000 0.58632  0.79766  0.50096  Biso   1.000  V
  V12      1.0000 0.03090  0.43356  0.62264  Biso   1.000  V
  Ni1      1.0000 0.95433  0.33243  0.00227  Biso   1.000  Ni
  Ni2      1.0000 0.62662  0.22877  0.76867  Biso   1.000  Ni
  Ni3      1.0000 0.28903  0.66757  0.99773  Biso   1.000  Ni
  Ni4      1.0000 0.62406  0.77123  0.23133  Biso   1.000  Ni
  Ni5      1.0000 0.95660  0.99773  0.33243  Biso   1.000  Ni
  Ni6      1.0000 0.39529  0.23133  0.22877  Biso   1.000  Ni
  Ni7      1.0000 0.28676  0.00227  0.66757  Biso   1.000  Ni
  Ni8      1.0000 0.85539  0.76867  0.77123  Biso   1.000  Ni
  H1       1.0000 0.66710  0.44480  0.99060  Biso   1.000  H
  H2       1.0000 0.56520  0.39950  0.91410  Biso   1.000  H
  H3       1.0000 0.89740  0.16010  0.76830  Biso   1.000  H
  H4       1.0000 0.07570  0.32000  0.30720  Biso   1.000  H
  H5       1.0000 0.93890  0.34800  0.22340  Biso   1.000  H
  H6       1.0000 0.23990  0.28660  0.94580  Biso   1.000  H
  H7       1.0000 0.10250  0.55520  0.00940  Biso   1.000  H
  H8       1.0000 0.87880  0.60050  0.08590  Biso   1.000  H
  H9       1.0000 0.82580  0.83990  0.23170  Biso   1.000  H
  H10      1.0000 0.70290  0.68000  0.69280  Biso   1.000  H
  H11      1.0000 0.51030  0.65200  0.77660  Biso   1.000  H
  H12      1.0000 0.47230  0.71340  0.05420  Biso   1.000  H
  H13      1.0000 0.65770  0.00940  0.44480  Biso   1.000  H
  H14      1.0000 0.47930  0.08590  0.39950  Biso   1.000  H
  H15      1.0000 0.66570  0.23170  0.16010  Biso   1.000  H
  H16      1.0000 0.38290  0.69280  0.32000  Biso   1.000  H
  H17      1.0000 0.16230  0.77660  0.34800  Biso   1.000  H
  H18      1.0000 0.18570  0.05420  0.28660  Biso   1.000  H
  H19      1.0000 0.11190  0.99060  0.55520  Biso   1.000  H
  H20      1.0000 0.96470  0.91410  0.60050  Biso   1.000  H
  H21      1.0000 0.05750  0.76830  0.83990  Biso   1.000  H
  H22      1.0000 0.39570  0.30720  0.68000  Biso   1.000  H
  H23      1.0000 0.28690  0.22340  0.65200  Biso   1.000  H
  H24      1.0000 0.52650  0.94580  0.71340  Biso   1.000  H
  C1       1.0000 0.71520  0.38500  0.94640  Biso   1.000  C
  C2       1.0000 0.65430  0.35800  0.89980  Biso   1.000  C
  C3       1.0000 0.84750  0.21810  0.81490  Biso   1.000  C
  C4       1.0000 0.90690  0.24530  0.86190  Biso   1.000  C
  C5       1.0000 0.05410  0.18280  0.84060  Biso   1.000  C
  C6       1.0000 0.11120  0.31270  0.23330  Biso   1.000  C
  C7       1.0000 0.02910  0.32930  0.18230  Biso   1.000  C
  C8       1.0000 0.20480  0.29300  0.01980  Biso   1.000  C
  C9       1.0000 0.28970  0.27490  0.07010  Biso   1.000  C
  C10      1.0000 0.43420  0.24120  0.01140  Biso   1.000  C
  C11      1.0000 0.04660  0.61500  0.05360  Biso   1.000  C
  C12      1.0000 0.91210  0.64200  0.10020  Biso   1.000  C
  C13      1.0000 0.88050  0.78190  0.18510  Biso   1.000  C
  C14      1.0000 0.01410  0.75470  0.13810  Biso   1.000  C
  C15      1.0000 0.07750  0.81720  0.15940  Biso   1.000  C
  C16      1.0000 0.65720  0.68730  0.76670  Biso   1.000  C
  C17      1.0000 0.54070  0.67070  0.81770  Biso   1.000  C
  C18      1.0000 0.51760  0.70700  0.98020  Biso   1.000  C
  C19      1.0000 0.63470  0.72510  0.92990  Biso   1.000  C
  C20      1.0000 0.68680  0.75880  0.98860  Biso   1.000  C
  C21      1.0000 0.66160  0.05360  0.38500  Biso   1.000  C
  C22      1.0000 0.55410  0.10020  0.35800  Biso   1.000  C
  C23      1.0000 0.66240  0.18510  0.21810  Biso   1.000  C
  C24      1.0000 0.76880  0.13810  0.24530  Biso   1.000  C
  C25      1.0000 0.89470  0.15940  0.18280  Biso   1.000  C
  C26      1.0000 0.34450  0.76670  0.31270  Biso   1.000  C
  C27      1.0000 0.21140  0.81770  0.32930  Biso   1.000  C
  C28      1.0000 0.22460  0.98020  0.29300  Biso   1.000  C
  C29      1.0000 0.35980  0.92990  0.27490  Biso   1.000  C
  C30      1.0000 0.44560  0.98860  0.24120  Biso   1.000  C
  C31      1.0000 0.10020  0.94640  0.61500  Biso   1.000  C
  C32      1.0000 0.01230  0.89980  0.64200  Biso   1.000  C
  C33      1.0000 0.06560  0.81490  0.78190  Biso   1.000  C
  C34      1.0000 0.15220  0.86190  0.75470  Biso   1.000  C
  C35      1.0000 0.23690  0.84060  0.81720  Biso   1.000  C
  C36      1.0000 0.42390  0.23330  0.68730  Biso   1.000  C
  C37      1.0000 0.35840  0.18230  0.67070  Biso   1.000  C
  C38      1.0000 0.49780  0.01980  0.70700  Biso   1.000  C
  C39      1.0000 0.56460  0.07010  0.72510  Biso   1.000  C
  C40      1.0000 0.67540  0.01140  0.75880  Biso   1.000  C
  N1       1.0000 0.84400  0.32590  0.92870  Biso   1.000  N
  N2       1.0000 0.71980  0.27300  0.83420  Biso   1.000  N
  N3       1.0000 0.23980  0.28660  0.17680  Biso   1.000  N
  N4       1.0000 0.07490  0.31920  0.07600  Biso   1.000  N
  N5       1.0000 0.09860  0.67410  0.07130  Biso   1.000  N
  N6       1.0000 0.82700  0.72700  0.16580  Biso   1.000  N
  N7       1.0000 0.70320  0.71340  0.82320  Biso   1.000  N
  N8       1.0000 0.47010  0.68080  0.92400  Biso   1.000  N
  N9       1.0000 0.77270  0.07130  0.32590  Biso   1.000  N
  N10      1.0000 0.55400  0.16580  0.27300  Biso   1.000  N
  N11      1.0000 0.41660  0.82320  0.28660  Biso   1.000  N
  N12      1.0000 0.15090  0.92400  0.31920  Biso   1.000  N
  N13      1.0000 0.16990  0.92870  0.67410  Biso   1.000  N
  N14      1.0000 0.99280  0.83420  0.72700  Biso   1.000  N
  N15      1.0000 0.52640  0.17680  0.71340  Biso   1.000  N
  N16      1.0000 0.39410  0.07600  0.68080  Biso   1.000  N
  O1       1.0000 0.09780  0.21150  0.89170  Biso   1.000  O
  O2       1.0000 0.11640  0.10950  0.77290  Biso   1.000  O
  O3       1.0000 0.50450  0.21570  0.06470  Biso   1.000  O
  O4       1.0000 0.47220  0.24230  0.91130  Biso   1.000  O
  O5       1.0000 0.79800  0.46130  0.09850  Biso   1.000  O
  O6       1.0000 0.51150  0.38800  0.74560  Biso   1.000  O
  O7       1.0000 0.67540  0.39660  0.30040  Biso   1.000  O
  O8       1.0000 0.52170  0.52890  0.18330  Biso   1.000  O
  O9       1.0000 0.99920  0.44810  0.89970  Biso   1.000  O
  O10      1.0000 0.78310  0.21480  0.62660  Biso   1.000  O
  O11      1.0000 0.13630  0.43240  0.67660  Biso   1.000  O
  O12      1.0000 0.58880  0.29360  0.48360  Biso   1.000  O
  O13      1.0000 0.20100  0.78850  0.10830  Biso   1.000  O
  O14      1.0000 0.99880  0.89050  0.22710  Biso   1.000  O
  O15      1.0000 0.78490  0.78430  0.93530  Biso   1.000  O
  O16      1.0000 0.62580  0.75770  0.08870  Biso   1.000  O
  O17      1.0000 0.35780  0.53870  0.90150  Biso   1.000  O
  O18      1.0000 0.64510  0.61200  0.25440  Biso   1.000  O
  O19      1.0000 0.37240  0.60340  0.69960  Biso   1.000  O
  O20      1.0000 0.23390  0.47110  0.81670  Biso   1.000  O
  O21      1.0000 0.34700  0.55190  0.10030  Biso   1.000  O
  O22      1.0000 0.62450  0.78520  0.37340  Biso   1.000  O
  O23      1.0000 0.24530  0.56760  0.32340  Biso   1.000  O
  O24      1.0000 0.36600  0.70640  0.51640  Biso   1.000  O
  O25      1.0000 0.98950  0.10830  0.21150  Biso   1.000  O
  O26      1.0000 0.88930  0.22710  0.10950  Biso   1.000  O
  O27      1.0000 0.56920  0.93530  0.21570  Biso   1.000  O
  O28      1.0000 0.38350  0.08870  0.24230  Biso   1.000  O
  O29      1.0000 0.89650  0.90150  0.46130  Biso   1.000  O
  O30      1.0000 0.25710  0.25440  0.38800  Biso   1.000  O
  O31      1.0000 0.97580  0.69960  0.39660  Biso   1.000  O
  O32      1.0000 0.70500  0.81670  0.52890  Biso   1.000  O
  O33      1.0000 0.89890  0.10030  0.44810  Biso   1.000  O
  O34      1.0000 0.40970  0.37340  0.21480  Biso   1.000  O
  O35      1.0000 0.81290  0.32340  0.43240  Biso   1.000  O
  O36      1.0000 0.07240  0.51640  0.29360  Biso   1.000  O
  O37      1.0000 0.30930  0.89170  0.78850  Biso   1.000  O
  O38      1.0000 0.22590  0.77290  0.89050  Biso   1.000  O
  O39      1.0000 0.72020  0.06470  0.78430  Biso   1.000  O
  O40      1.0000 0.71450  0.91130  0.75770  Biso   1.000  O
  O41      1.0000 0.25930  0.09850  0.53870  Biso   1.000  O
  O42      1.0000 0.89950  0.74560  0.61200  Biso   1.000  O
  O43      1.0000 0.07200  0.30040  0.60340  Biso   1.000  O
  O44      1.0000 0.05060  0.18330  0.47110  Biso   1.000  O
  O45      1.0000 0.44730  0.89970  0.55190  Biso   1.000  O
  O46      1.0000 0.99790  0.62660  0.78520  Biso   1.000  O
  O47      1.0000 0.56870  0.67660  0.56760  Biso   1.000  O
  O48      1.0000 0.88240  0.48360  0.70640  Biso   1.000  O
  O49      1.0000 0.54960  0.50000  0.50000  Biso   1.000  O
  O50      1.0000 0.04960  0.50000  0.50000  Biso   1.000  O
