data_image0
_cell_length_a       12.4616
_cell_length_b       13.9703
_cell_length_c       13.9703
_cell_angle_alpha    78.5262
_cell_angle_beta     63.5124
_cell_angle_gamma    63.5124

_symmetry_space_group_name_H-M    P 1
_symmetry_int_tables_number       1

loop_
  _symmetry_equiv_pos_as_xyz
  'x, y, z'

loop_
  _atom_site_label
  _atom_site_occupancy
  _atom_site_fract_x
  _atom_site_fract_y
  _atom_site_fract_z
  _atom_site_thermal_displace_type
  _atom_site_B_iso_or_equiv
  _atom_site_type_symbol
  V1       1.0000 0.24776  0.50231  0.79179  Biso   1.000  V
  V2       1.0000 0.02643  0.79652  0.49886  Biso   1.000  V
  V3       1.0000 0.37859  0.37645  0.56625  Biso   1.000  V
  V4       1.0000 0.54186  0.49769  0.20821  Biso   1.000  V
  V5       1.0000 0.32181  0.20348  0.50114  Biso   1.000  V
  V6       1.0000 0.32129  0.62355  0.43375  Biso   1.000  V
  V7       1.0000 0.03955  0.20821  0.50231  Biso   1.000  V
  V8       1.0000 0.52529  0.50114  0.79652  Biso   1.000  V
  V9       1.0000 0.94484  0.43375  0.37645  Biso   1.000  V
  V10      1.0000 0.75007  0.79179  0.49769  Biso   1.000  V
  V11      1.0000 0.82295  0.49886  0.20348  Biso   1.000  V
  V12      1.0000 0.75504  0.56625  0.62355  Biso   1.000  V
  Co1      1.0000 0.02140  0.77018  0.76730  Biso   1.000  Co
  Co2      1.0000 0.46033  0.99876  0.66740  Biso   1.000  Co
  Co3      1.0000 0.55888  0.22982  0.23270  Biso   1.000  Co
  Co4      1.0000 0.12649  0.00124  0.33260  Biso   1.000  Co
  Co5      1.0000 0.78870  0.23270  0.77018  Biso   1.000  Co
  Co6      1.0000 0.12773  0.33260  0.99876  Biso   1.000  Co
  Co7      1.0000 0.79158  0.76730  0.22982  Biso   1.000  Co
  Co8      1.0000 0.45909  0.66740  0.00124  Biso   1.000  Co
  H1       1.0000 0.34090  0.69330  0.67650  Biso   1.000  H
  H2       1.0000 0.48140  0.78440  0.64560  Biso   1.000  H
  H3       1.0000 0.17720  0.06510  0.71310  Biso   1.000  H
  H4       1.0000 0.73280  0.55690  0.01230  Biso   1.000  H
  H5       1.0000 0.93110  0.59980  0.91640  Biso   1.000  H
  H6       1.0000 0.74670  0.83480  0.77400  Biso   1.000  H
  H7       1.0000 0.71070  0.30670  0.32350  Biso   1.000  H
  H8       1.0000 0.91140  0.21560  0.35440  Biso   1.000  H
  H9       1.0000 0.95540  0.93490  0.28690  Biso   1.000  H
  H10      1.0000 0.30200  0.44310  0.98770  Biso   1.000  H
  H11      1.0000 0.44730  0.40020  0.08360  Biso   1.000  H
  H12      1.0000 0.35550  0.16520  0.22600  Biso   1.000  H
  H13      1.0000 0.01740  0.32350  0.69330  Biso   1.000  H
  H14      1.0000 0.12700  0.35440  0.78440  Biso   1.000  H
  H15      1.0000 0.89030  0.28690  0.06510  Biso   1.000  H
  H16      1.0000 0.74510  0.98770  0.55690  Biso   1.000  H
  H17      1.0000 0.84750  0.08360  0.59980  Biso   1.000  H
  H18      1.0000 0.52070  0.22600  0.83480  Biso   1.000  H
  H19      1.0000 0.03420  0.67650  0.30670  Biso   1.000  H
  H20      1.0000 0.26580  0.64560  0.21560  Biso   1.000  H
  H21      1.0000 0.24230  0.71310  0.93490  Biso   1.000  H
  H22      1.0000 0.28970  0.01230  0.44310  Biso   1.000  H
  H23      1.0000 0.53090  0.91640  0.40020  Biso   1.000  H
  H24      1.0000 0.58150  0.77400  0.16520  Biso   1.000  H
  C1       1.0000 0.30570  0.76770  0.68510  Biso   1.000  C
  C2       1.0000 0.38640  0.81700  0.67020  Biso   1.000  C
  C3       1.0000 0.20950  0.97990  0.70650  Biso   1.000  C
  C4       1.0000 0.12930  0.92980  0.72280  Biso   1.000  C
  C5       1.0000 0.98280  0.99030  0.75670  Biso   1.000  C
  C6       1.0000 0.75320  0.61290  0.94470  Biso   1.000  C
  C7       1.0000 0.86150  0.63900  0.89940  Biso   1.000  C
  C8       1.0000 0.75460  0.78050  0.81370  Biso   1.000  C
  C9       1.0000 0.64810  0.75470  0.85890  Biso   1.000  C
  C10      1.0000 0.52420  0.81760  0.83780  Biso   1.000  C
  C11      1.0000 0.75850  0.23230  0.31490  Biso   1.000  C
  C12      1.0000 0.87360  0.18300  0.32980  Biso   1.000  C
  C13      1.0000 0.89590  0.02010  0.29350  Biso   1.000  C
  C14      1.0000 0.78190  0.07020  0.27720  Biso   1.000  C
  C15      1.0000 0.72980  0.00970  0.24330  Biso   1.000  C
  C16      1.0000 0.31080  0.38710  0.05530  Biso   1.000  C
  C17      1.0000 0.39990  0.36100  0.10060  Biso   1.000  C
  C18      1.0000 0.34880  0.21950  0.18630  Biso   1.000  C
  C19      1.0000 0.26170  0.24530  0.14110  Biso   1.000  C
  C20      1.0000 0.17960  0.18240  0.16220  Biso   1.000  C
  C21      1.0000 0.99080  0.31490  0.76770  Biso   1.000  C
  C22      1.0000 0.05660  0.32980  0.81700  Biso   1.000  C
  C23      1.0000 0.91600  0.29350  0.97990  Biso   1.000  C
  C24      1.0000 0.85210  0.27720  0.92980  Biso   1.000  C
  C25      1.0000 0.73950  0.24330  0.99030  Biso   1.000  C
  C26      1.0000 0.69790  0.05530  0.61290  Biso   1.000  C
  C27      1.0000 0.76090  0.10060  0.63900  Biso   1.000  C
  C28      1.0000 0.56830  0.18630  0.78050  Biso   1.000  C
  C29      1.0000 0.50700  0.14110  0.75470  Biso   1.000  C
  C30      1.0000 0.36200  0.16220  0.81760  Biso   1.000  C
  C31      1.0000 0.07340  0.68510  0.23230  Biso   1.000  C
  C32      1.0000 0.20340  0.67020  0.18300  Biso   1.000  C
  C33      1.0000 0.18940  0.70650  0.02010  Biso   1.000  C
  C34      1.0000 0.05910  0.72280  0.07020  Biso   1.000  C
  C35      1.0000 0.97310  0.75670  0.00970  Biso   1.000  C
  C36      1.0000 0.36610  0.94470  0.38710  Biso   1.000  C
  C37      1.0000 0.50050  0.89940  0.36100  Biso   1.000  C
  C38      1.0000 0.53510  0.81370  0.21950  Biso   1.000  C
  C39      1.0000 0.40280  0.85890  0.24530  Biso   1.000  C
  C40      1.0000 0.34180  0.83780  0.18240  Biso   1.000  C
  N1       1.0000 0.17700  0.82230  0.71190  Biso   1.000  N
  N2       1.0000 0.33910  0.92360  0.68100  Biso   1.000  N
  N3       1.0000 0.64680  0.67090  0.92510  Biso   1.000  N
  N4       1.0000 0.86170  0.72450  0.83370  Biso   1.000  N
  N5       1.0000 0.71120  0.17770  0.28810  Biso   1.000  N
  N6       1.0000 0.94370  0.07640  0.31900  Biso   1.000  N
  N7       1.0000 0.24280  0.32910  0.07490  Biso   1.000  N
  N8       1.0000 0.41990  0.27550  0.16630  Biso   1.000  N
  N9       1.0000 0.88890  0.28810  0.82230  Biso   1.000  N
  N10      1.0000 0.02010  0.31900  0.92360  Biso   1.000  N
  N11      1.0000 0.57190  0.07490  0.67090  Biso   1.000  N
  N12      1.0000 0.69540  0.16630  0.72450  Biso   1.000  N
  N13      1.0000 0.99930  0.71190  0.17770  Biso   1.000  N
  N14      1.0000 0.26270  0.68100  0.07640  Biso   1.000  N
  N15      1.0000 0.31770  0.92510  0.32910  Biso   1.000  N
  N16      1.0000 0.58620  0.83370  0.27550  Biso   1.000  N
  O1       1.0000 0.91600  0.93630  0.78190  Biso   1.000  O
  O2       1.0000 0.94450  0.08950  0.75530  Biso   1.000  O
  O3       1.0000 0.43150  0.78970  0.88830  Biso   1.000  O
  O4       1.0000 0.53140  0.89000  0.77000  Biso   1.000  O
  O5       1.0000 0.15900  0.60910  0.74270  Biso   1.000  O
  O6       1.0000 0.61640  0.90240  0.53600  Biso   1.000  O
  O7       1.0000 0.34020  0.39260  0.70000  Biso   1.000  O
  O8       1.0000 0.36390  0.52670  0.81350  Biso   1.000  O
  O9       1.0000 0.40740  0.10210  0.55450  Biso   1.000  O
  O10      1.0000 0.99840  0.78720  0.62620  Biso   1.000  O
  O11      1.0000 0.16500  0.67400  0.43420  Biso   1.000  O
  O12      1.0000 0.52670  0.29140  0.51520  Biso   1.000  O
  O13      1.0000 0.63420  0.06370  0.21810  Biso   1.000  O
  O14      1.0000 0.78930  0.91050  0.24470  Biso   1.000  O
  O15      1.0000 0.10950  0.21030  0.11170  Biso   1.000  O
  O16      1.0000 0.19140  0.11000  0.23000  Biso   1.000  O
  O17      1.0000 0.51080  0.39090  0.25730  Biso   1.000  O
  O18      1.0000 0.05480  0.09760  0.46400  Biso   1.000  O
  O19      1.0000 0.43280  0.60740  0.30000  Biso   1.000  O
  O20      1.0000 0.70410  0.47330  0.18650  Biso   1.000  O
  O21      1.0000 0.06400  0.89790  0.44550  Biso   1.000  O
  O22      1.0000 0.41180  0.21280  0.37380  Biso   1.000  O
  O23      1.0000 0.27320  0.32600  0.56580  Biso   1.000  O
  O24      1.0000 0.33330  0.70860  0.48480  Biso   1.000  O
  O25      1.0000 0.69790  0.21810  0.93630  Biso   1.000  O
  O26      1.0000 0.69980  0.24470  0.08950  Biso   1.000  O
  O27      1.0000 0.31980  0.11170  0.78970  Biso   1.000  O
  O28      1.0000 0.30140  0.23000  0.89000  Biso   1.000  O
  O29      1.0000 0.90170  0.25730  0.60910  Biso   1.000  O
  O30      1.0000 0.15240  0.46400  0.90240  Biso   1.000  O
  O31      1.0000 0.04020  0.30000  0.39260  Biso   1.000  O
  O32      1.0000 0.17740  0.18650  0.52670  Biso   1.000  O
  O33      1.0000 0.96190  0.44550  0.10210  Biso   1.000  O
  O34      1.0000 0.62460  0.37380  0.78720  Biso   1.000  O
  O35      1.0000 0.59920  0.56580  0.67400  Biso   1.000  O
  O36      1.0000 0.04190  0.48480  0.29140  Biso   1.000  O
  O37      1.0000 0.85230  0.78190  0.06370  Biso   1.000  O
  O38      1.0000 0.03400  0.75530  0.91050  Biso   1.000  O
  O39      1.0000 0.22120  0.88830  0.21030  Biso   1.000  O
  O40      1.0000 0.42140  0.77000  0.11000  Biso   1.000  O
  O41      1.0000 0.76810  0.74270  0.39090  Biso   1.000  O
  O42      1.0000 0.51880  0.53600  0.09760  Biso   1.000  O
  O43      1.0000 0.73280  0.70000  0.60740  Biso   1.000  O
  O44      1.0000 0.89060  0.81350  0.47330  Biso   1.000  O
  O45      1.0000 0.50950  0.55450  0.89790  Biso   1.000  O
  O46      1.0000 0.78560  0.62620  0.21280  Biso   1.000  O
  O47      1.0000 0.83900  0.43420  0.32600  Biso   1.000  O
  O48      1.0000 0.81810  0.51520  0.70860  Biso   1.000  O
  O49      1.0000 0.36170  0.50000  0.50000  Biso   1.000  O
  O50      1.0000 0.86170  0.50000  0.50000  Biso   1.000  O
