data_WOWMEC_freeONLY
_audit_creation_date              2015-10-16
_audit_creation_method            'Materials Studio'
_symmetry_space_group_name_H-M    'P1'
_symmetry_Int_Tables_number       1
_symmetry_cell_setting            triclinic
loop_
_symmetry_equiv_pos_as_xyz
  x,y,z
_cell_length_a                    11.0460
_cell_length_b                    11.1046
_cell_length_c                    11.1046
_cell_angle_alpha                 106.7660
_cell_angle_beta                  117.9810
_cell_angle_gamma                 62.0189
loop_
_atom_site_label
_atom_site_type_symbol
_atom_site_fract_x
_atom_site_fract_y
_atom_site_fract_z
_atom_site_U_iso_or_equiv
_atom_site_adp_type
_atom_site_occupancy
Ni1    Ni    0.55148   0.79697   0.65551   0.01267  Uiso   1.00
Ni2    Ni    0.94852   0.65551   0.79697   0.01267  Uiso   1.00
Ni3    Ni    0.05148   0.34449   0.20303   0.01267  Uiso   1.00
Ni4    Ni    0.44852   0.20303   0.34449   0.01267  Uiso   1.00
H1     H     0.59880   0.40080   0.49260   0.01267  Uiso   1.00
H2     H     0.28090   0.96700   0.42640   0.01267  Uiso   1.00
H3     H     0.02600   0.78800   0.71600   0.01267  Uiso   1.00
H4     H     0.09880   0.50740   0.59920   0.01267  Uiso   1.00
H5     H     0.08770   0.94530   0.22630   0.01267  Uiso   1.00
H6     H     0.23100   0.19000   0.10460   0.01267  Uiso   1.00
H7     H     0.76900   0.81000   0.89540   0.01267  Uiso   1.00
H8     H     0.39600   0.85820   0.78980   0.01267  Uiso   1.00
H9     H     0.52600   0.28400   0.21200   0.01267  Uiso   1.00
H10    H     0.26900   0.10460   0.19000   0.01267  Uiso   1.00
H11    H     0.78090   0.57360   0.03300   0.01267  Uiso   1.00
H12    H     0.10400   0.78980   0.85820   0.01267  Uiso   1.00
H13    H     0.41230   0.22630   0.94530   0.01267  Uiso   1.00
H14    H     0.71910   0.03300   0.57360   0.01267  Uiso   1.00
H15    H     0.21910   0.42640   0.96700   0.01267  Uiso   1.00
H16    H     0.73100   0.89540   0.81000   0.01267  Uiso   1.00
H17    H     0.91230   0.05470   0.77370   0.01267  Uiso   1.00
H18    H     0.58770   0.77370   0.05470   0.01267  Uiso   1.00
H19    H     0.60400   0.14180   0.21020   0.01267  Uiso   1.00
H20    H     0.89600   0.21020   0.14180   0.01267  Uiso   1.00
H21    H     0.40120   0.59920   0.50740   0.01267  Uiso   1.00
H22    H     0.97400   0.21200   0.28400   0.01267  Uiso   1.00
H23    H     0.47400   0.71600   0.78800   0.01267  Uiso   1.00
H24    H     0.90120   0.49260   0.40080   0.01267  Uiso   1.00
C1     C     0.23269   0.64257   0.32369   0.01267  Uiso   1.00
C2     C     0.84751   0.12789   0.71971   0.01267  Uiso   1.00
C3     C     0.34751   0.28029   0.87211   0.01267  Uiso   1.00
C4     C     0.01581   0.73601   0.09843   0.01267  Uiso   1.00
C5     C     0.16043   0.44802   0.66818   0.01267  Uiso   1.00
C6     C     0.73269   0.67631   0.35743   0.01267  Uiso   1.00
C7     C     0.73350   0.71247   0.49969   0.01267  Uiso   1.00
C8     C     0.26709   0.88563   0.40237   0.01267  Uiso   1.00
C9     C     0.63442   0.76156   0.25134   0.01267  Uiso   1.00
C10    C     0.23350   0.50031   0.28753   0.01267  Uiso   1.00
C11    C     0.26650   0.28753   0.50031   0.01267  Uiso   1.00
C12    C     0.13442   0.74866   0.23844   0.01267  Uiso   1.00
C13    C     0.76650   0.49969   0.71247   0.01267  Uiso   1.00
C14    C     0.76709   0.59763   0.11437   0.01267  Uiso   1.00
C15    C     0.73291   0.11437   0.59763   0.01267  Uiso   1.00
C16    C     0.51581   0.90157   0.26399   0.01267  Uiso   1.00
C17    C     0.86558   0.25134   0.76156   0.01267  Uiso   1.00
C18    C     0.26731   0.32369   0.64257   0.01267  Uiso   1.00
C19    C     0.15249   0.87211   0.28029   0.01267  Uiso   1.00
C20    C     0.83957   0.55198   0.33182   0.01267  Uiso   1.00
C21    C     0.65249   0.71971   0.12789   0.01267  Uiso   1.00
C22    C     0.36558   0.23844   0.74866   0.01267  Uiso   1.00
C23    C     0.23291   0.40237   0.88563   0.01267  Uiso   1.00
C24    C     0.48419   0.09843   0.73601   0.01267  Uiso   1.00
C25    C     0.66043   0.33182   0.55198   0.01267  Uiso   1.00
C26    C     0.33957   0.66818   0.44802   0.01267  Uiso   1.00
C27    C     0.98419   0.26399   0.90157   0.01267  Uiso   1.00
C28    C     0.76731   0.35743   0.67631   0.01267  Uiso   1.00
N1     N     0.35903   0.78583   0.48741   0.01267  Uiso   1.00
N2     N     0.64097   0.21417   0.51259   0.01267  Uiso   1.00
N3     N     0.85903   0.51259   0.21417   0.01267  Uiso   1.00
N4     N     0.14097   0.48741   0.78583   0.01267  Uiso   1.00
O1     O     0.06370   0.67353   0.00513   0.01267  Uiso   1.00
O2     O     0.11759   0.20418   0.91646   0.01267  Uiso   1.00
O3     O     0.35404   0.40921   0.35309   0.01267  Uiso   1.00
O4     O     0.38260   0.19768   0.48598   0.01267  Uiso   1.00
O5     O     0.61759   0.08354   0.79582   0.01267  Uiso   1.00
O6     O     0.14596   0.35309   0.40921   0.01267  Uiso   1.00
O7     O     0.93630   0.32647   0.99487   0.01267  Uiso   1.00
O8     O     0.02143   0.79644   0.79190   0.01267  Uiso   1.00
O9     O     0.43630   0.00513   0.67353   0.01267  Uiso   1.00
O10    O     0.38241   0.91646   0.20418   0.01267  Uiso   1.00
O11    O     0.25000   0.18498   0.18498   0.01267  Uiso   1.00
O12    O     0.61740   0.80232   0.51402   0.01267  Uiso   1.00
O13    O     0.85404   0.64691   0.59079   0.01267  Uiso   1.00
O14    O     0.52143   0.20810   0.20356   0.01267  Uiso   1.00
O15    O     0.64596   0.59079   0.64691   0.01267  Uiso   1.00
O16    O     0.97857   0.20356   0.20810   0.01267  Uiso   1.00
O17    O     0.88260   0.51402   0.80232   0.01267  Uiso   1.00
O18    O     0.88241   0.79582   0.08354   0.01267  Uiso   1.00
O19    O     0.75000   0.81502   0.81502   0.01267  Uiso   1.00
O20    O     0.11740   0.48598   0.19768   0.01267  Uiso   1.00
O21    O     0.47857   0.79190   0.79644   0.01267  Uiso   1.00
O22    O     0.56370   0.99487   0.32647   0.01267  Uiso   1.00
