data_image0
_cell_length_a       10.85
_cell_length_b       11.534
_cell_length_c       13.608
_cell_angle_alpha    66.17
_cell_angle_beta     81.4
_cell_angle_gamma    63.15

_symmetry_space_group_name_H-M    P 1
_symmetry_int_tables_number       1

loop_
  _symmetry_equiv_pos_as_xyz
  'x, y, z'

loop_
  _atom_site_label
  _atom_site_occupancy
  _atom_site_fract_x
  _atom_site_fract_y
  _atom_site_fract_z
  _atom_site_thermal_displace_type
  _atom_site_B_iso_or_equiv
  _atom_site_type_symbol
  Co1      1.0000 0.44208  0.07515  0.79178  Biso   1.000  Co
  Co2      1.0000 0.55792  0.92485  0.20822  Biso   1.000  Co
  Co3      1.0000 0.00000  0.00000  0.00000  Biso   1.000  Co
  H1       1.0000 0.15990  0.31070  0.78720  Biso   1.000  H
  H2       1.0000 0.96830  0.46610  0.67480  Biso   1.000  H
  H3       1.0000 0.20310  0.40440  0.42980  Biso   1.000  H
  H4       1.0000 0.38500  0.24860  0.54900  Biso   1.000  H
  H5       1.0000 0.82500  0.33050  0.91270  Biso   1.000  H
  H6       1.0000 0.82200  0.52830  0.91330  Biso   1.000  H
  H7       1.0000 0.18500  0.29240  0.07540  Biso   1.000  H
  H8       1.0000 0.17910  0.10120  0.06940  Biso   1.000  H
  H9       1.0000 0.85580  0.08380  0.19350  Biso   1.000  H
  H10      1.0000 0.87320  0.01040  0.37510  Biso   1.000  H
  H11      1.0000 0.22350  0.67880  0.37620  Biso   1.000  H
  H12      1.0000 0.19610  0.76290  0.19370  Biso   1.000  H
  H13      1.0000 0.90060  0.78070  0.73320  Biso   1.000  H
  H14      1.0000 0.86740  0.87020  0.55050  Biso   1.000  H
  H15      1.0000 0.27710  0.67870  0.53140  Biso   1.000  H
  H16      1.0000 0.29340  0.59660  0.71520  Biso   1.000  H
  H17      1.0000 0.54400  0.66380  0.87010  Biso   1.000  H
  H18      1.0000 0.38360  0.71910  0.87220  Biso   1.000  H
  H19      1.0000 0.58930  0.61530  0.05140  Biso   1.000  H
  H20      1.0000 0.43460  0.64150  0.07190  Biso   1.000  H
  H21      1.0000 0.62200  0.07900  0.65500  Biso   1.000  H
  H22      1.0000 0.61210  0.16800  0.69900  Biso   1.000  H
  H23      1.0000 0.56240  0.87630  0.97200  Biso   1.000  H
  H24      1.0000 0.84010  0.68930  0.21280  Biso   1.000  H
  H25      1.0000 0.03170  0.53390  0.32520  Biso   1.000  H
  H26      1.0000 0.79690  0.59560  0.57020  Biso   1.000  H
  H27      1.0000 0.61500  0.75140  0.45100  Biso   1.000  H
  H28      1.0000 0.17500  0.66950  0.08730  Biso   1.000  H
  H29      1.0000 0.17800  0.47170  0.08670  Biso   1.000  H
  H30      1.0000 0.81500  0.70760  0.92460  Biso   1.000  H
  H31      1.0000 0.82090  0.89880  0.93060  Biso   1.000  H
  H32      1.0000 0.14420  0.91620  0.80650  Biso   1.000  H
  H33      1.0000 0.12680  0.98960  0.62490  Biso   1.000  H
  H34      1.0000 0.77650  0.32120  0.62380  Biso   1.000  H
  H35      1.0000 0.80390  0.23710  0.80630  Biso   1.000  H
  H36      1.0000 0.09940  0.21930  0.26680  Biso   1.000  H
  H37      1.0000 0.13260  0.12980  0.44950  Biso   1.000  H
  H38      1.0000 0.72290  0.32130  0.46860  Biso   1.000  H
  H39      1.0000 0.70660  0.40340  0.28480  Biso   1.000  H
  H40      1.0000 0.45600  0.33620  0.12990  Biso   1.000  H
  H41      1.0000 0.61640  0.28090  0.12780  Biso   1.000  H
  H42      1.0000 0.41070  0.38470  0.94860  Biso   1.000  H
  H43      1.0000 0.56540  0.35850  0.92810  Biso   1.000  H
  H44      1.0000 0.37800  0.92100  0.34500  Biso   1.000  H
  H45      1.0000 0.38790  0.83200  0.30100  Biso   1.000  H
  H46      1.0000 0.43760  0.12370  0.02800  Biso   1.000  H
  C1       1.0000 0.16830  0.32770  0.71430  Biso   1.000  C
  C2       1.0000 0.05220  0.42230  0.64670  Biso   1.000  C
  C3       1.0000 0.06120  0.45160  0.53770  Biso   1.000  C
  C4       1.0000 0.19010  0.38560  0.50280  Biso   1.000  C
  C5       1.0000 0.29940  0.29230  0.57510  Biso   1.000  C
  C6       1.0000 0.89870  0.32220  0.94640  Biso   1.000  C
  C7       1.0000 0.89600  0.44200  0.94700  Biso   1.000  C
  C8       1.0000 0.00190  0.43620  0.99700  Biso   1.000  C
  C9       1.0000 0.10930  0.30360  0.04200  Biso   1.000  C
  C10      1.0000 0.10510  0.18830  0.03790  Biso   1.000  C
  C11      1.0000 0.93070  0.00050  0.23070  Biso   1.000  C
  C12      1.0000 0.94100  0.95740  0.34020  Biso   1.000  C
  C13      1.0000 0.05230  0.83500  0.39920  Biso   1.000  C
  C14      1.0000 0.14730  0.76220  0.34110  Biso   1.000  C
  C15      1.0000 0.12920  0.81310  0.23090  Biso   1.000  C
  C16      1.0000 0.97800  0.75970  0.69190  Biso   1.000  C
  C17      1.0000 0.95640  0.81380  0.58150  Biso   1.000  C
  C18      1.0000 0.06910  0.78270  0.51830  Biso   1.000  C
  C19      1.0000 0.19750  0.70110  0.57030  Biso   1.000  C
  C20      1.0000 0.20590  0.65290  0.68170  Biso   1.000  C
  C21      1.0000 0.44560  0.84290  0.73870  Biso   1.000  C
  C22      1.0000 0.45780  0.74800  0.85830  Biso   1.000  C
  C23      1.0000 0.45400  0.80550  0.94310  Biso   1.000  C
  C24      1.0000 0.49710  0.68570  0.05410  Biso   1.000  C
  C25      1.0000 0.49600  0.73570  0.14280  Biso   1.000  C
  C26      1.0000 0.30750  0.92160  0.94360  Biso   1.000  C
  C27      1.0000 0.83170  0.67230  0.28570  Biso   1.000  C
  C28      1.0000 0.94780  0.57770  0.35330  Biso   1.000  C
  C29      1.0000 0.93880  0.54840  0.46230  Biso   1.000  C
  C30      1.0000 0.80990  0.61440  0.49720  Biso   1.000  C
  C31      1.0000 0.70060  0.70770  0.42490  Biso   1.000  C
  C32      1.0000 0.10130  0.67780  0.05360  Biso   1.000  C
  C33      1.0000 0.10400  0.55800  0.05300  Biso   1.000  C
  C34      1.0000 0.99810  0.56380  0.00300  Biso   1.000  C
  C35      1.0000 0.89070  0.69640  0.95800  Biso   1.000  C
  C36      1.0000 0.89490  0.81170  0.96210  Biso   1.000  C
  C37      1.0000 0.06930  0.99950  0.76930  Biso   1.000  C
  C38      1.0000 0.05900  0.04260  0.65980  Biso   1.000  C
  C39      1.0000 0.94770  0.16500  0.60080  Biso   1.000  C
  C40      1.0000 0.85270  0.23780  0.65890  Biso   1.000  C
  C41      1.0000 0.87080  0.18690  0.76910  Biso   1.000  C
  C42      1.0000 0.02200  0.24030  0.30810  Biso   1.000  C
  C43      1.0000 0.04360  0.18620  0.41850  Biso   1.000  C
  C44      1.0000 0.93090  0.21730  0.48170  Biso   1.000  C
  C45      1.0000 0.80250  0.29890  0.42970  Biso   1.000  C
  C46      1.0000 0.79410  0.34710  0.31830  Biso   1.000  C
  C47      1.0000 0.55440  0.15710  0.26130  Biso   1.000  C
  C48      1.0000 0.54220  0.25200  0.14170  Biso   1.000  C
  C49      1.0000 0.54600  0.19450  0.05690  Biso   1.000  C
  C50      1.0000 0.50290  0.31430  0.94590  Biso   1.000  C
  C51      1.0000 0.50400  0.26430  0.85720  Biso   1.000  C
  C52      1.0000 0.69250  0.07840  0.05640  Biso   1.000  C
  N1       1.0000 0.29020  0.26030  0.68090  Biso   1.000  N
  N2       1.0000 0.00240  0.19320  0.99210  Biso   1.000  N
  N3       1.0000 0.02200  0.92970  0.17460  Biso   1.000  N
  N4       1.0000 0.10030  0.68030  0.74320  Biso   1.000  N
  N5       1.0000 0.70980  0.73970  0.31910  Biso   1.000  N
  N6       1.0000 0.99760  0.80680  0.00790  Biso   1.000  N
  N7       1.0000 0.97800  0.07030  0.82540  Biso   1.000  N
  N8       1.0000 0.89970  0.31970  0.25680  Biso   1.000  N
  O1       1.0000 0.61790  0.09000  0.71150  Biso   1.000  O
  O2       1.0000 0.43870  0.96280  0.70871  Biso   1.000  O
  O3       1.0000 0.44450  0.78970  0.67600  Biso   1.000  O
  O4       1.0000 0.55070  0.86560  0.91360  Biso   1.000  O
  O5       1.0000 0.21860  0.88380  0.99821  Biso   1.000  O
  O6       1.0000 0.28630  0.04550  0.88870  Biso   1.000  O
  O7       1.0000 0.46430  0.67770  0.23500  Biso   1.000  O
  O8       1.0000 0.52930  0.83670  0.11345  Biso   1.000  O
  O9       1.0000 0.38210  0.91000  0.28850  Biso   1.000  O
  O10      1.0000 0.56130  0.03720  0.29129  Biso   1.000  O
  O11      1.0000 0.55550  0.21030  0.32400  Biso   1.000  O
  O12      1.0000 0.44930  0.13440  0.08640  Biso   1.000  O
  O13      1.0000 0.78140  0.11620  0.00179  Biso   1.000  O
  O14      1.0000 0.71370  0.95450  0.11130  Biso   1.000  O
  O15      1.0000 0.53570  0.32230  0.76500  Biso   1.000  O
  O16      1.0000 0.47070  0.16330  0.88655  Biso   1.000  O
