data_image0
_cell_length_a       13.559
_cell_length_b       13.559
_cell_length_c       14.999
_cell_angle_alpha    90
_cell_angle_beta     90
_cell_angle_gamma    120

_symmetry_space_group_name_H-M    P 1
_symmetry_int_tables_number       1

loop_
  _symmetry_equiv_pos_as_xyz
  'x, y, z'

loop_
  _atom_site_label
  _atom_site_occupancy
  _atom_site_fract_x
  _atom_site_fract_y
  _atom_site_fract_z
  _atom_site_thermal_displace_type
  _atom_site_B_iso_or_equiv
  _atom_site_type_symbol
  La1      1.0000 0.33333  0.66666  0.83048  Biso   1.000  La
  La2      1.0000 0.66667  0.33334  0.66952  Biso   1.000  La
  La3      1.0000 0.66667  0.33334  0.16952  Biso   1.000  La
  La4      1.0000 0.33333  0.66666  0.33048  Biso   1.000  La
  Cu1      1.0000 0.50000  0.50000  0.00000  Biso   1.000  Cu
  Cu2      1.0000 0.00000  0.50000  0.00000  Biso   1.000  Cu
  Cu3      1.0000 0.50000  0.00000  0.00000  Biso   1.000  Cu
  Cu4      1.0000 0.00000  0.50000  0.50000  Biso   1.000  Cu
  Cu5      1.0000 0.50000  0.50000  0.50000  Biso   1.000  Cu
  Cu6      1.0000 0.50000  0.00000  0.50000  Biso   1.000  Cu
  H1       1.0000 0.67320  0.64750  0.07640  Biso   1.000  H
  H2       1.0000 0.54250  0.72830  0.12790  Biso   1.000  H
  H3       1.0000 0.60190  0.67920  0.18850  Biso   1.000  H
  H4       1.0000 0.70730  0.74490  0.95300  Biso   1.000  H
  H5       1.0000 0.68100  0.81680  0.02080  Biso   1.000  H
  H6       1.0000 0.97430  0.32680  0.07640  Biso   1.000  H
  H7       1.0000 0.18580  0.45750  0.12790  Biso   1.000  H
  H8       1.0000 0.07730  0.39810  0.18850  Biso   1.000  H
  H9       1.0000 0.03760  0.29270  0.95300  Biso   1.000  H
  H10      1.0000 0.13580  0.31900  0.02080  Biso   1.000  H
  H11      1.0000 0.35250  0.02570  0.07640  Biso   1.000  H
  H12      1.0000 0.27170  0.81420  0.12790  Biso   1.000  H
  H13      1.0000 0.32080  0.92270  0.18850  Biso   1.000  H
  H14      1.0000 0.25510  0.96240  0.95300  Biso   1.000  H
  H15      1.0000 0.18320  0.86420  0.02080  Biso   1.000  H
  H16      1.0000 0.02570  0.35250  0.42360  Biso   1.000  H
  H17      1.0000 0.81420  0.27170  0.37210  Biso   1.000  H
  H18      1.0000 0.92270  0.32080  0.31150  Biso   1.000  H
  H19      1.0000 0.96240  0.25510  0.54700  Biso   1.000  H
  H20      1.0000 0.86420  0.18320  0.47920  Biso   1.000  H
  H21      1.0000 0.64750  0.67320  0.42360  Biso   1.000  H
  H22      1.0000 0.72830  0.54250  0.37210  Biso   1.000  H
  H23      1.0000 0.67920  0.60190  0.31150  Biso   1.000  H
  H24      1.0000 0.74490  0.70730  0.54700  Biso   1.000  H
  H25      1.0000 0.81680  0.68100  0.47920  Biso   1.000  H
  H26      1.0000 0.32680  0.97430  0.42360  Biso   1.000  H
  H27      1.0000 0.45750  0.18580  0.37210  Biso   1.000  H
  H28      1.0000 0.39810  0.07730  0.31150  Biso   1.000  H
  H29      1.0000 0.29270  0.03760  0.54700  Biso   1.000  H
  H30      1.0000 0.31900  0.13580  0.47920  Biso   1.000  H
  H31      1.0000 0.32680  0.35250  0.92360  Biso   1.000  H
  H32      1.0000 0.45750  0.27170  0.87210  Biso   1.000  H
  H33      1.0000 0.39810  0.32080  0.81150  Biso   1.000  H
  H34      1.0000 0.29270  0.25510  0.04700  Biso   1.000  H
  H35      1.0000 0.31900  0.18320  0.97920  Biso   1.000  H
  H36      1.0000 0.02570  0.67320  0.92360  Biso   1.000  H
  H37      1.0000 0.81420  0.54250  0.87210  Biso   1.000  H
  H38      1.0000 0.92270  0.60190  0.81150  Biso   1.000  H
  H39      1.0000 0.96240  0.70730  0.04700  Biso   1.000  H
  H40      1.0000 0.86420  0.68100  0.97920  Biso   1.000  H
  H41      1.0000 0.64750  0.97430  0.92360  Biso   1.000  H
  H42      1.0000 0.72830  0.18580  0.87210  Biso   1.000  H
  H43      1.0000 0.67920  0.07730  0.81150  Biso   1.000  H
  H44      1.0000 0.74490  0.03760  0.04700  Biso   1.000  H
  H45      1.0000 0.81680  0.13580  0.97920  Biso   1.000  H
  H46      1.0000 0.97430  0.64750  0.57640  Biso   1.000  H
  H47      1.0000 0.18580  0.72830  0.62790  Biso   1.000  H
  H48      1.0000 0.07730  0.67920  0.68850  Biso   1.000  H
  H49      1.0000 0.03760  0.74490  0.45300  Biso   1.000  H
  H50      1.0000 0.13580  0.81680  0.52080  Biso   1.000  H
  H51      1.0000 0.35250  0.32680  0.57640  Biso   1.000  H
  H52      1.0000 0.27170  0.45750  0.62790  Biso   1.000  H
  H53      1.0000 0.32080  0.39810  0.68850  Biso   1.000  H
  H54      1.0000 0.25510  0.29270  0.45300  Biso   1.000  H
  H55      1.0000 0.18320  0.31900  0.52080  Biso   1.000  H
  H56      1.0000 0.67320  0.02570  0.57640  Biso   1.000  H
  H57      1.0000 0.54250  0.81420  0.62790  Biso   1.000  H
  H58      1.0000 0.60190  0.92270  0.68850  Biso   1.000  H
  H59      1.0000 0.70730  0.96240  0.45300  Biso   1.000  H
  H60      1.0000 0.68100  0.86420  0.52080  Biso   1.000  H
  C1       1.0000 0.55310  0.66340  0.13690  Biso   1.000  C
  C2       1.0000 0.43860  0.55980  0.15640  Biso   1.000  C
  C3       1.0000 0.54900  0.72820  0.93200  Biso   1.000  C
  C4       1.0000 0.64850  0.74400  0.99040  Biso   1.000  C
  C5       1.0000 0.11030  0.44690  0.13690  Biso   1.000  C
  C6       1.0000 0.12120  0.56140  0.15640  Biso   1.000  C
  C7       1.0000 0.17920  0.45100  0.93200  Biso   1.000  C
  C8       1.0000 0.09550  0.35150  0.99040  Biso   1.000  C
  C9       1.0000 0.33660  0.88970  0.13690  Biso   1.000  C
  C10      1.0000 0.44020  0.87880  0.15640  Biso   1.000  C
  C11      1.0000 0.27180  0.82080  0.93200  Biso   1.000  C
  C12      1.0000 0.25600  0.90450  0.99040  Biso   1.000  C
  C13      1.0000 0.88970  0.33660  0.36310  Biso   1.000  C
  C14      1.0000 0.87880  0.44020  0.34360  Biso   1.000  C
  C15      1.0000 0.82080  0.27180  0.56800  Biso   1.000  C
  C16      1.0000 0.90450  0.25600  0.50960  Biso   1.000  C
  C17      1.0000 0.66340  0.55310  0.36310  Biso   1.000  C
  C18      1.0000 0.55980  0.43860  0.34360  Biso   1.000  C
  C19      1.0000 0.72820  0.54900  0.56800  Biso   1.000  C
  C20      1.0000 0.74400  0.64850  0.50960  Biso   1.000  C
  C21      1.0000 0.44690  0.11030  0.36310  Biso   1.000  C
  C22      1.0000 0.56140  0.12120  0.34360  Biso   1.000  C
  C23      1.0000 0.45100  0.17920  0.56800  Biso   1.000  C
  C24      1.0000 0.35150  0.09550  0.50960  Biso   1.000  C
  C25      1.0000 0.44690  0.33660  0.86310  Biso   1.000  C
  C26      1.0000 0.56140  0.44020  0.84360  Biso   1.000  C
  C27      1.0000 0.45100  0.27180  0.06800  Biso   1.000  C
  C28      1.0000 0.35150  0.25600  0.00960  Biso   1.000  C
  C29      1.0000 0.88970  0.55310  0.86310  Biso   1.000  C
  C30      1.0000 0.87880  0.43860  0.84360  Biso   1.000  C
  C31      1.0000 0.82080  0.54900  0.06800  Biso   1.000  C
  C32      1.0000 0.90450  0.64850  0.00960  Biso   1.000  C
  C33      1.0000 0.66340  0.11030  0.86310  Biso   1.000  C
  C34      1.0000 0.55980  0.12120  0.84360  Biso   1.000  C
  C35      1.0000 0.72820  0.17920  0.06800  Biso   1.000  C
  C36      1.0000 0.74400  0.09550  0.00960  Biso   1.000  C
  C37      1.0000 0.11030  0.66340  0.63690  Biso   1.000  C
  C38      1.0000 0.12120  0.55980  0.65640  Biso   1.000  C
  C39      1.0000 0.17920  0.72820  0.43200  Biso   1.000  C
  C40      1.0000 0.09550  0.74400  0.49040  Biso   1.000  C
  C41      1.0000 0.33660  0.44690  0.63690  Biso   1.000  C
  C42      1.0000 0.44020  0.56140  0.65640  Biso   1.000  C
  C43      1.0000 0.27180  0.45100  0.43200  Biso   1.000  C
  C44      1.0000 0.25600  0.35150  0.49040  Biso   1.000  C
  C45      1.0000 0.55310  0.88970  0.63690  Biso   1.000  C
  C46      1.0000 0.43860  0.87880  0.65640  Biso   1.000  C
  C47      1.0000 0.54900  0.82080  0.43200  Biso   1.000  C
  C48      1.0000 0.64850  0.90450  0.49040  Biso   1.000  C
  N1       1.0000 0.61110  0.65090  0.05780  Biso   1.000  N
  N2       1.0000 0.03980  0.38890  0.05780  Biso   1.000  N
  N3       1.0000 0.34910  0.96020  0.05780  Biso   1.000  N
  N4       1.0000 0.96020  0.34910  0.44220  Biso   1.000  N
  N5       1.0000 0.65090  0.61110  0.44220  Biso   1.000  N
  N6       1.0000 0.38890  0.03980  0.44220  Biso   1.000  N
  N7       1.0000 0.38890  0.34910  0.94220  Biso   1.000  N
  N8       1.0000 0.96020  0.61110  0.94220  Biso   1.000  N
  N9       1.0000 0.65090  0.03980  0.94220  Biso   1.000  N
  N10      1.0000 0.03980  0.65090  0.55780  Biso   1.000  N
  N11      1.0000 0.34910  0.38890  0.55780  Biso   1.000  N
  N12      1.0000 0.61110  0.96020  0.55780  Biso   1.000  N
  O1       1.0000 0.45340  0.63630  0.94320  Biso   1.000  O
  O2       1.0000 0.56220  0.80120  0.87680  Biso   1.000  O
  O3       1.0000 0.40200  0.47660  0.10450  Biso   1.000  O
  O4       1.0000 0.38830  0.56450  0.22410  Biso   1.000  O
  O5       1.0000 0.18290  0.54660  0.94320  Biso   1.000  O
  O6       1.0000 0.23900  0.43780  0.87680  Biso   1.000  O
  O7       1.0000 0.07460  0.59800  0.10450  Biso   1.000  O
  O8       1.0000 0.17620  0.61170  0.22410  Biso   1.000  O
  O9       1.0000 0.36370  0.81710  0.94320  Biso   1.000  O
  O10      1.0000 0.19880  0.76100  0.87680  Biso   1.000  O
  O11      1.0000 0.52340  0.92540  0.10450  Biso   1.000  O
  O12      1.0000 0.43550  0.82380  0.22410  Biso   1.000  O
  O13      1.0000 0.81710  0.36370  0.55680  Biso   1.000  O
  O14      1.0000 0.76100  0.19880  0.62320  Biso   1.000  O
  O15      1.0000 0.92540  0.52340  0.39550  Biso   1.000  O
  O16      1.0000 0.82380  0.43550  0.27590  Biso   1.000  O
  O17      1.0000 0.63630  0.45340  0.55680  Biso   1.000  O
  O18      1.0000 0.80120  0.56220  0.62320  Biso   1.000  O
  O19      1.0000 0.47660  0.40200  0.39550  Biso   1.000  O
  O20      1.0000 0.56450  0.38830  0.27590  Biso   1.000  O
  O21      1.0000 0.54660  0.18290  0.55680  Biso   1.000  O
  O22      1.0000 0.43780  0.23900  0.62320  Biso   1.000  O
  O23      1.0000 0.59800  0.07460  0.39550  Biso   1.000  O
  O24      1.0000 0.61170  0.17620  0.27590  Biso   1.000  O
  O25      1.0000 0.54660  0.36370  0.05680  Biso   1.000  O
  O26      1.0000 0.43780  0.19880  0.12320  Biso   1.000  O
  O27      1.0000 0.59800  0.52340  0.89550  Biso   1.000  O
  O28      1.0000 0.61170  0.43550  0.77590  Biso   1.000  O
  O29      1.0000 0.81710  0.45340  0.05680  Biso   1.000  O
  O30      1.0000 0.76100  0.56220  0.12320  Biso   1.000  O
  O31      1.0000 0.92540  0.40200  0.89550  Biso   1.000  O
  O32      1.0000 0.82380  0.38830  0.77590  Biso   1.000  O
  O33      1.0000 0.63630  0.18290  0.05680  Biso   1.000  O
  O34      1.0000 0.80120  0.23900  0.12320  Biso   1.000  O
  O35      1.0000 0.47660  0.07460  0.89550  Biso   1.000  O
  O36      1.0000 0.56450  0.17620  0.77590  Biso   1.000  O
  O37      1.0000 0.18290  0.63630  0.44320  Biso   1.000  O
  O38      1.0000 0.23900  0.80120  0.37680  Biso   1.000  O
  O39      1.0000 0.07460  0.47660  0.60450  Biso   1.000  O
  O40      1.0000 0.17620  0.56450  0.72410  Biso   1.000  O
  O41      1.0000 0.36370  0.54660  0.44320  Biso   1.000  O
  O42      1.0000 0.19880  0.43780  0.37680  Biso   1.000  O
  O43      1.0000 0.52340  0.59800  0.60450  Biso   1.000  O
  O44      1.0000 0.43550  0.61170  0.72410  Biso   1.000  O
  O45      1.0000 0.45340  0.81710  0.44320  Biso   1.000  O
  O46      1.0000 0.56220  0.76100  0.37680  Biso   1.000  O
  O47      1.0000 0.40200  0.92540  0.60450  Biso   1.000  O
  O48      1.0000 0.38830  0.82380  0.72410  Biso   1.000  O
