data_image0
_cell_length_a       13.4713
_cell_length_b       13.4713
_cell_length_c       14.922
_cell_angle_alpha    90
_cell_angle_beta     90
_cell_angle_gamma    120

_symmetry_space_group_name_H-M    P 1
_symmetry_int_tables_number       1

loop_
  _symmetry_equiv_pos_as_xyz
  'x, y, z'

loop_
  _atom_site_label
  _atom_site_occupancy
  _atom_site_fract_x
  _atom_site_fract_y
  _atom_site_fract_z
  _atom_site_thermal_displace_type
  _atom_site_B_iso_or_equiv
  _atom_site_type_symbol
  La1      1.0000 0.66667  0.33334  0.16956  Biso   1.000  La
  La2      1.0000 0.33333  0.66666  0.33044  Biso   1.000  La
  La3      1.0000 0.33333  0.66666  0.83044  Biso   1.000  La
  La4      1.0000 0.66667  0.33334  0.66956  Biso   1.000  La
  Cu1      1.0000 0.50000  0.50000  0.00000  Biso   1.000  Cu
  Cu2      1.0000 0.00000  0.50000  0.00000  Biso   1.000  Cu
  Cu3      1.0000 0.50000  0.00000  0.00000  Biso   1.000  Cu
  Cu4      1.0000 0.00000  0.50000  0.50000  Biso   1.000  Cu
  Cu5      1.0000 0.50000  0.50000  0.50000  Biso   1.000  Cu
  Cu6      1.0000 0.50000  0.00000  0.50000  Biso   1.000  Cu
  H1       1.0000 0.32010  0.18250  0.97760  Biso   1.000  H
  H2       1.0000 0.29220  0.25340  0.04640  Biso   1.000  H
  H3       1.0000 0.39630  0.31680  0.81150  Biso   1.000  H
  H4       1.0000 0.45730  0.26930  0.87320  Biso   1.000  H
  H5       1.0000 0.32590  0.35190  0.92390  Biso   1.000  H
  H6       1.0000 0.86240  0.67990  0.97760  Biso   1.000  H
  H7       1.0000 0.96120  0.70780  0.04640  Biso   1.000  H
  H8       1.0000 0.92050  0.60370  0.81150  Biso   1.000  H
  H9       1.0000 0.81200  0.54270  0.87320  Biso   1.000  H
  H10      1.0000 0.02600  0.67410  0.92390  Biso   1.000  H
  H11      1.0000 0.81750  0.13760  0.97760  Biso   1.000  H
  H12      1.0000 0.74660  0.03880  0.04640  Biso   1.000  H
  H13      1.0000 0.68320  0.07950  0.81150  Biso   1.000  H
  H14      1.0000 0.73070  0.18800  0.87320  Biso   1.000  H
  H15      1.0000 0.64810  0.97400  0.92390  Biso   1.000  H
  H16      1.0000 0.13760  0.81750  0.52240  Biso   1.000  H
  H17      1.0000 0.03880  0.74660  0.45360  Biso   1.000  H
  H18      1.0000 0.07950  0.68320  0.68850  Biso   1.000  H
  H19      1.0000 0.18800  0.73070  0.62680  Biso   1.000  H
  H20      1.0000 0.97400  0.64810  0.57610  Biso   1.000  H
  H21      1.0000 0.18250  0.32010  0.52240  Biso   1.000  H
  H22      1.0000 0.25340  0.29220  0.45360  Biso   1.000  H
  H23      1.0000 0.31680  0.39630  0.68850  Biso   1.000  H
  H24      1.0000 0.26930  0.45730  0.62680  Biso   1.000  H
  H25      1.0000 0.35190  0.32590  0.57610  Biso   1.000  H
  H26      1.0000 0.67990  0.86240  0.52240  Biso   1.000  H
  H27      1.0000 0.70780  0.96120  0.45360  Biso   1.000  H
  H28      1.0000 0.60370  0.92050  0.68850  Biso   1.000  H
  H29      1.0000 0.54270  0.81200  0.62680  Biso   1.000  H
  H30      1.0000 0.67410  0.02600  0.57610  Biso   1.000  H
  H31      1.0000 0.67990  0.81750  0.02240  Biso   1.000  H
  H32      1.0000 0.70780  0.74660  0.95360  Biso   1.000  H
  H33      1.0000 0.60370  0.68320  0.18850  Biso   1.000  H
  H34      1.0000 0.54270  0.73070  0.12680  Biso   1.000  H
  H35      1.0000 0.67410  0.64810  0.07610  Biso   1.000  H
  H36      1.0000 0.13760  0.32010  0.02240  Biso   1.000  H
  H37      1.0000 0.03880  0.29220  0.95360  Biso   1.000  H
  H38      1.0000 0.07950  0.39630  0.18850  Biso   1.000  H
  H39      1.0000 0.18800  0.45730  0.12680  Biso   1.000  H
  H40      1.0000 0.97400  0.32590  0.07610  Biso   1.000  H
  H41      1.0000 0.18250  0.86240  0.02240  Biso   1.000  H
  H42      1.0000 0.25340  0.96120  0.95360  Biso   1.000  H
  H43      1.0000 0.31680  0.92050  0.18850  Biso   1.000  H
  H44      1.0000 0.26930  0.81200  0.12680  Biso   1.000  H
  H45      1.0000 0.35190  0.02600  0.07610  Biso   1.000  H
  H46      1.0000 0.86240  0.18250  0.47760  Biso   1.000  H
  H47      1.0000 0.96120  0.25340  0.54640  Biso   1.000  H
  H48      1.0000 0.92050  0.31680  0.31150  Biso   1.000  H
  H49      1.0000 0.81200  0.26930  0.37320  Biso   1.000  H
  H50      1.0000 0.02600  0.35190  0.42390  Biso   1.000  H
  H51      1.0000 0.81750  0.67990  0.47760  Biso   1.000  H
  H52      1.0000 0.74660  0.70780  0.54640  Biso   1.000  H
  H53      1.0000 0.68320  0.60370  0.31150  Biso   1.000  H
  H54      1.0000 0.73070  0.54270  0.37320  Biso   1.000  H
  H55      1.0000 0.64810  0.67410  0.42390  Biso   1.000  H
  H56      1.0000 0.32010  0.13760  0.47760  Biso   1.000  H
  H57      1.0000 0.29220  0.03880  0.54640  Biso   1.000  H
  H58      1.0000 0.39630  0.07950  0.31150  Biso   1.000  H
  H59      1.0000 0.45730  0.18800  0.37320  Biso   1.000  H
  H60      1.0000 0.32590  0.97400  0.42390  Biso   1.000  H
  C1       1.0000 0.45150  0.27190  0.06680  Biso   1.000  C
  C2       1.0000 0.35180  0.25530  0.00870  Biso   1.000  C
  C3       1.0000 0.44580  0.33400  0.86330  Biso   1.000  C
  C4       1.0000 0.55970  0.43880  0.84370  Biso   1.000  C
  C5       1.0000 0.82040  0.54850  0.06680  Biso   1.000  C
  C6       1.0000 0.90350  0.64820  0.00870  Biso   1.000  C
  C7       1.0000 0.88820  0.55420  0.86330  Biso   1.000  C
  C8       1.0000 0.87910  0.44030  0.84370  Biso   1.000  C
  C9       1.0000 0.72810  0.17960  0.06680  Biso   1.000  C
  C10      1.0000 0.74470  0.09650  0.00870  Biso   1.000  C
  C11      1.0000 0.66600  0.11180  0.86330  Biso   1.000  C
  C12      1.0000 0.56120  0.12090  0.84370  Biso   1.000  C
  C13      1.0000 0.17960  0.72810  0.43320  Biso   1.000  C
  C14      1.0000 0.09650  0.74470  0.49130  Biso   1.000  C
  C15      1.0000 0.11180  0.66600  0.63670  Biso   1.000  C
  C16      1.0000 0.12090  0.56120  0.65630  Biso   1.000  C
  C17      1.0000 0.27190  0.45150  0.43320  Biso   1.000  C
  C18      1.0000 0.25530  0.35180  0.49130  Biso   1.000  C
  C19      1.0000 0.33400  0.44580  0.63670  Biso   1.000  C
  C20      1.0000 0.43880  0.55970  0.65630  Biso   1.000  C
  C21      1.0000 0.54850  0.82040  0.43320  Biso   1.000  C
  C22      1.0000 0.64820  0.90350  0.49130  Biso   1.000  C
  C23      1.0000 0.55420  0.88820  0.63670  Biso   1.000  C
  C24      1.0000 0.44030  0.87910  0.65630  Biso   1.000  C
  C25      1.0000 0.54850  0.72810  0.93320  Biso   1.000  C
  C26      1.0000 0.64820  0.74470  0.99130  Biso   1.000  C
  C27      1.0000 0.55420  0.66600  0.13670  Biso   1.000  C
  C28      1.0000 0.44030  0.56120  0.15630  Biso   1.000  C
  C29      1.0000 0.17960  0.45150  0.93320  Biso   1.000  C
  C30      1.0000 0.09650  0.35180  0.99130  Biso   1.000  C
  C31      1.0000 0.11180  0.44580  0.13670  Biso   1.000  C
  C32      1.0000 0.12090  0.55970  0.15630  Biso   1.000  C
  C33      1.0000 0.27190  0.82040  0.93320  Biso   1.000  C
  C34      1.0000 0.25530  0.90350  0.99130  Biso   1.000  C
  C35      1.0000 0.33400  0.88820  0.13670  Biso   1.000  C
  C36      1.0000 0.43880  0.87910  0.15630  Biso   1.000  C
  C37      1.0000 0.82040  0.27190  0.56680  Biso   1.000  C
  C38      1.0000 0.90350  0.25530  0.50870  Biso   1.000  C
  C39      1.0000 0.88820  0.33400  0.36330  Biso   1.000  C
  C40      1.0000 0.87910  0.43880  0.34370  Biso   1.000  C
  C41      1.0000 0.72810  0.54850  0.56680  Biso   1.000  C
  C42      1.0000 0.74470  0.64820  0.50870  Biso   1.000  C
  C43      1.0000 0.66600  0.55420  0.36330  Biso   1.000  C
  C44      1.0000 0.56120  0.44030  0.34370  Biso   1.000  C
  C45      1.0000 0.45150  0.17960  0.56680  Biso   1.000  C
  C46      1.0000 0.35180  0.09650  0.50870  Biso   1.000  C
  C47      1.0000 0.44580  0.11180  0.36330  Biso   1.000  C
  C48      1.0000 0.55970  0.12090  0.34370  Biso   1.000  C
  N1       1.0000 0.38850  0.34860  0.94247  Biso   1.000  N
  N2       1.0000 0.96010  0.61150  0.94247  Biso   1.000  N
  N3       1.0000 0.65140  0.03990  0.94247  Biso   1.000  N
  N4       1.0000 0.03990  0.65140  0.55753  Biso   1.000  N
  N5       1.0000 0.34860  0.38850  0.55753  Biso   1.000  N
  N6       1.0000 0.61150  0.96010  0.55753  Biso   1.000  N
  N7       1.0000 0.61150  0.65140  0.05753  Biso   1.000  N
  N8       1.0000 0.03990  0.38850  0.05753  Biso   1.000  N
  N9       1.0000 0.34860  0.96010  0.05753  Biso   1.000  N
  N10      1.0000 0.96010  0.34860  0.44247  Biso   1.000  N
  N11      1.0000 0.65140  0.61150  0.44247  Biso   1.000  N
  N12      1.0000 0.38850  0.03990  0.44247  Biso   1.000  N
  O1       1.0000 0.43780  0.19700  0.12298  Biso   1.000  O
  O2       1.0000 0.54600  0.36330  0.05682  Biso   1.000  O
  O3       1.0000 0.59740  0.52340  0.89543  Biso   1.000  O
  O4       1.0000 0.61340  0.43760  0.77561  Biso   1.000  O
  O5       1.0000 0.75920  0.56220  0.12298  Biso   1.000  O
  O6       1.0000 0.81730  0.45400  0.05682  Biso   1.000  O
  O7       1.0000 0.92600  0.40260  0.89543  Biso   1.000  O
  O8       1.0000 0.82420  0.38660  0.77561  Biso   1.000  O
  O9       1.0000 0.80300  0.24080  0.12298  Biso   1.000  O
  O10      1.0000 0.63670  0.18270  0.05682  Biso   1.000  O
  O11      1.0000 0.47660  0.07400  0.89543  Biso   1.000  O
  O12      1.0000 0.56240  0.17580  0.77561  Biso   1.000  O
  O13      1.0000 0.24080  0.80300  0.37702  Biso   1.000  O
  O14      1.0000 0.18270  0.63670  0.44318  Biso   1.000  O
  O15      1.0000 0.07400  0.47660  0.60457  Biso   1.000  O
  O16      1.0000 0.17580  0.56240  0.72439  Biso   1.000  O
  O17      1.0000 0.19700  0.43780  0.37702  Biso   1.000  O
  O18      1.0000 0.36330  0.54600  0.44318  Biso   1.000  O
  O19      1.0000 0.52340  0.59740  0.60457  Biso   1.000  O
  O20      1.0000 0.43760  0.61340  0.72439  Biso   1.000  O
  O21      1.0000 0.56220  0.75920  0.37702  Biso   1.000  O
  O22      1.0000 0.45400  0.81730  0.44318  Biso   1.000  O
  O23      1.0000 0.40260  0.92600  0.60457  Biso   1.000  O
  O24      1.0000 0.38660  0.82420  0.72439  Biso   1.000  O
  O25      1.0000 0.56220  0.80300  0.87702  Biso   1.000  O
  O26      1.0000 0.45400  0.63670  0.94318  Biso   1.000  O
  O27      1.0000 0.40260  0.47660  0.10457  Biso   1.000  O
  O28      1.0000 0.38660  0.56240  0.22439  Biso   1.000  O
  O29      1.0000 0.24080  0.43780  0.87702  Biso   1.000  O
  O30      1.0000 0.18270  0.54600  0.94318  Biso   1.000  O
  O31      1.0000 0.07400  0.59740  0.10457  Biso   1.000  O
  O32      1.0000 0.17580  0.61340  0.22439  Biso   1.000  O
  O33      1.0000 0.19700  0.75920  0.87702  Biso   1.000  O
  O34      1.0000 0.36330  0.81730  0.94318  Biso   1.000  O
  O35      1.0000 0.52340  0.92600  0.10457  Biso   1.000  O
  O36      1.0000 0.43760  0.82420  0.22439  Biso   1.000  O
  O37      1.0000 0.75920  0.19700  0.62298  Biso   1.000  O
  O38      1.0000 0.81730  0.36330  0.55682  Biso   1.000  O
  O39      1.0000 0.92600  0.52340  0.39543  Biso   1.000  O
  O40      1.0000 0.82420  0.43760  0.27561  Biso   1.000  O
  O41      1.0000 0.80300  0.56220  0.62298  Biso   1.000  O
  O42      1.0000 0.63670  0.45400  0.55682  Biso   1.000  O
  O43      1.0000 0.47660  0.40260  0.39543  Biso   1.000  O
  O44      1.0000 0.56240  0.38660  0.27561  Biso   1.000  O
  O45      1.0000 0.43780  0.24080  0.62298  Biso   1.000  O
  O46      1.0000 0.54600  0.18270  0.55682  Biso   1.000  O
  O47      1.0000 0.59740  0.07400  0.39543  Biso   1.000  O
  O48      1.0000 0.61340  0.17580  0.27561  Biso   1.000  O
