data_image0
_cell_length_a       14.285
_cell_length_b       18.7158
_cell_length_c       18.7158
_cell_angle_alpha    66.24
_cell_angle_beta     75.2608
_cell_angle_gamma    104.739

_symmetry_space_group_name_H-M    P 1
_symmetry_int_tables_number       1

loop_
  _symmetry_equiv_pos_as_xyz
  'x, y, z'

loop_
  _atom_site_label
  _atom_site_occupancy
  _atom_site_fract_x
  _atom_site_fract_y
  _atom_site_fract_z
  _atom_site_thermal_displace_type
  _atom_site_B_iso_or_equiv
  _atom_site_type_symbol
  Cu1      1.0000 0.40337  0.44059  0.00743  Biso   1.000  Cu
  Cu2      1.0000 0.46757  0.52714  0.33119  Biso   1.000  Cu
  Cu3      1.0000 0.41080  0.00743  0.55198  Biso   1.000  Cu
  Cu4      1.0000 0.79876  0.33119  0.14167  Biso   1.000  Cu
  Cu5      1.0000 0.96278  0.55198  0.44059  Biso   1.000  Cu
  Cu6      1.0000 0.94043  0.14167  0.52714  Biso   1.000  Cu
  Cu7      1.0000 0.59663  0.55941  0.99257  Biso   1.000  Cu
  Cu8      1.0000 0.53243  0.47286  0.66881  Biso   1.000  Cu
  Cu9      1.0000 0.58920  0.99257  0.44802  Biso   1.000  Cu
  Cu10     1.0000 0.20124  0.66881  0.85833  Biso   1.000  Cu
  Cu11     1.0000 0.03722  0.44802  0.55941  Biso   1.000  Cu
  Cu12     1.0000 0.05957  0.85833  0.47286  Biso   1.000  Cu
  H1       1.0000 0.20630  0.32140  0.04640  Biso   1.000  H
  H2       1.0000 0.26340  0.33380  0.97420  Biso   1.000  H
  H3       1.0000 0.19900  0.31530  0.17110  Biso   1.000  H
  H4       1.0000 0.59280  0.57850  0.15140  Biso   1.000  H
  H5       1.0000 0.26840  0.37040  0.40500  Biso   1.000  H
  H6       1.0000 0.17060  0.30540  0.41800  Biso   1.000  H
  H7       1.0000 0.34510  0.25520  0.08760  Biso   1.000  H
  H8       1.0000 0.75860  0.49770  0.05110  Biso   1.000  H
  H9       1.0000 0.52720  0.11570  0.18240  Biso   1.000  H
  H10      1.0000 0.62880  0.17830  0.16730  Biso   1.000  H
  H11      1.0000 0.25270  0.04640  0.63220  Biso   1.000  H
  H12      1.0000 0.23760  0.97420  0.69200  Biso   1.000  H
  H13      1.0000 0.37010  0.17110  0.51360  Biso   1.000  H
  H14      1.0000 0.74420  0.15140  0.27010  Biso   1.000  H
  H15      1.0000 0.67340  0.40500  0.22460  Biso   1.000  H
  H16      1.0000 0.58860  0.41800  0.27660  Biso   1.000  H
  H17      1.0000 0.43270  0.08760  0.65720  Biso   1.000  H
  H18      1.0000 0.80970  0.05110  0.45120  Biso   1.000  H
  H19      1.0000 0.70960  0.18240  0.70190  Biso   1.000  H
  H20      1.0000 0.79610  0.16730  0.65440  Biso   1.000  H
  H21      1.0000 0.88490  0.63220  0.32140  Biso   1.000  H
  H22      1.0000 0.92960  0.69200  0.33380  Biso   1.000  H
  H23      1.0000 0.88370  0.51360  0.31530  Biso   1.000  H
  H24      1.0000 0.01430  0.27010  0.57850  Biso   1.000  H
  H25      1.0000 0.89800  0.22460  0.37040  Biso   1.000  H
  H26      1.0000 0.86520  0.27660  0.30540  Biso   1.000  H
  H27      1.0000 0.08990  0.65720  0.25520  Biso   1.000  H
  H28      1.0000 0.26090  0.45120  0.49770  Biso   1.000  H
  H29      1.0000 0.41150  0.70190  0.11570  Biso   1.000  H
  H30      1.0000 0.45050  0.65440  0.17830  Biso   1.000  H
  H31      1.0000 0.79370  0.67860  0.95360  Biso   1.000  H
  H32      1.0000 0.73660  0.66620  0.02580  Biso   1.000  H
  H33      1.0000 0.80100  0.68470  0.82890  Biso   1.000  H
  H34      1.0000 0.40720  0.42150  0.84860  Biso   1.000  H
  H35      1.0000 0.73160  0.62960  0.59500  Biso   1.000  H
  H36      1.0000 0.82940  0.69460  0.58200  Biso   1.000  H
  H37      1.0000 0.65490  0.74480  0.91240  Biso   1.000  H
  H38      1.0000 0.24140  0.50230  0.94890  Biso   1.000  H
  H39      1.0000 0.47280  0.88430  0.81760  Biso   1.000  H
  H40      1.0000 0.37120  0.82170  0.83270  Biso   1.000  H
  H41      1.0000 0.74730  0.95360  0.36780  Biso   1.000  H
  H42      1.0000 0.76240  0.02580  0.30800  Biso   1.000  H
  H43      1.0000 0.62990  0.82890  0.48640  Biso   1.000  H
  H44      1.0000 0.25580  0.84860  0.72990  Biso   1.000  H
  H45      1.0000 0.32660  0.59500  0.77540  Biso   1.000  H
  H46      1.0000 0.41140  0.58200  0.72340  Biso   1.000  H
  H47      1.0000 0.56730  0.91240  0.34280  Biso   1.000  H
  H48      1.0000 0.19030  0.94890  0.54880  Biso   1.000  H
  H49      1.0000 0.29040  0.81760  0.29810  Biso   1.000  H
  H50      1.0000 0.20390  0.83270  0.34560  Biso   1.000  H
  H51      1.0000 0.11510  0.36780  0.67860  Biso   1.000  H
  H52      1.0000 0.07040  0.30800  0.66620  Biso   1.000  H
  H53      1.0000 0.11630  0.48640  0.68470  Biso   1.000  H
  H54      1.0000 0.98570  0.72990  0.42150  Biso   1.000  H
  H55      1.0000 0.10200  0.77540  0.62960  Biso   1.000  H
  H56      1.0000 0.13480  0.72340  0.69460  Biso   1.000  H
  H57      1.0000 0.91010  0.34280  0.74480  Biso   1.000  H
  H58      1.0000 0.73910  0.54880  0.50230  Biso   1.000  H
  H59      1.0000 0.58850  0.29810  0.88430  Biso   1.000  H
  H60      1.0000 0.54950  0.34560  0.82170  Biso   1.000  H
  C1       1.0000 0.66940  0.56830  0.32000  Biso   1.000  C
  C2       1.0000 0.61240  0.59280  0.38350  Biso   1.000  C
  C3       1.0000 0.24180  0.35550  0.19210  Biso   1.000  C
  C4       1.0000 0.39710  0.45730  0.15590  Biso   1.000  C
  C5       1.0000 0.36440  0.44050  0.24080  Biso   1.000  C
  C6       1.0000 0.26750  0.37390  0.30170  Biso   1.000  C
  C7       1.0000 0.52100  0.53610  0.16780  Biso   1.000  C
  C8       1.0000 0.41290  0.27280  0.08720  Biso   1.000  C
  C9       1.0000 0.55610  0.37580  0.06180  Biso   1.000  C
  C10      1.0000 0.59980  0.31660  0.09800  Biso   1.000  C
  C11      1.0000 0.53700  0.23050  0.13010  Biso   1.000  C
  C12      1.0000 0.70430  0.44050  0.05690  Biso   1.000  C
  C13      1.0000 0.98940  0.32000  0.11170  Biso   1.000  C
  C14      1.0000 0.99590  0.38350  0.02370  Biso   1.000  C
  C15      1.0000 0.43390  0.19210  0.45240  Biso   1.000  C
  C16      1.0000 0.55300  0.15590  0.38680  Biso   1.000  C
  C17      1.0000 0.60520  0.24080  0.31870  Biso   1.000  C
  C18      1.0000 0.56920  0.30170  0.32440  Biso   1.000  C
  C19      1.0000 0.68880  0.16780  0.29610  Biso   1.000  C
  C20      1.0000 0.50010  0.08720  0.64000  Biso   1.000  C
  C21      1.0000 0.61790  0.06180  0.56240  Biso   1.000  C
  C22      1.0000 0.69780  0.09800  0.58540  Biso   1.000  C
  C23      1.0000 0.66710  0.13010  0.63940  Biso   1.000  C
  C24      1.0000 0.76120  0.05690  0.50260  Biso   1.000  C
  C25      1.0000 0.10110  0.11170  0.56830  Biso   1.000  C
  C26      1.0000 0.01960  0.02370  0.59280  Biso   1.000  C
  C27      1.0000 0.88630  0.45240  0.35550  Biso   1.000  C
  C28      1.0000 0.93980  0.38680  0.45730  Biso   1.000  C
  C29      1.0000 0.92390  0.31870  0.44050  Biso   1.000  C
  C30      1.0000 0.89360  0.32440  0.37390  Biso   1.000  C
  C31      1.0000 0.98490  0.29610  0.53610  Biso   1.000  C
  C32      1.0000 0.14010  0.64000  0.27280  Biso   1.000  C
  C33      1.0000 0.18030  0.56240  0.37580  Biso   1.000  C
  C34      1.0000 0.28320  0.58540  0.31660  Biso   1.000  C
  C35      1.0000 0.30650  0.63940  0.23050  Biso   1.000  C
  C36      1.0000 0.26380  0.50260  0.44050  Biso   1.000  C
  C37      1.0000 0.33060  0.43170  0.68000  Biso   1.000  C
  C38      1.0000 0.38760  0.40720  0.61650  Biso   1.000  C
  C39      1.0000 0.75820  0.64450  0.80790  Biso   1.000  C
  C40      1.0000 0.60290  0.54270  0.84410  Biso   1.000  C
  C41      1.0000 0.63560  0.55950  0.75920  Biso   1.000  C
  C42      1.0000 0.73250  0.62610  0.69830  Biso   1.000  C
  C43      1.0000 0.47900  0.46390  0.83220  Biso   1.000  C
  C44      1.0000 0.58710  0.72720  0.91280  Biso   1.000  C
  C45      1.0000 0.44390  0.62420  0.93820  Biso   1.000  C
  C46      1.0000 0.40020  0.68340  0.90200  Biso   1.000  C
  C47      1.0000 0.46300  0.76950  0.86990  Biso   1.000  C
  C48      1.0000 0.29570  0.55950  0.94310  Biso   1.000  C
  C49      1.0000 0.01060  0.68000  0.88830  Biso   1.000  C
  C50      1.0000 0.00410  0.61650  0.97630  Biso   1.000  C
  C51      1.0000 0.56610  0.80790  0.54760  Biso   1.000  C
  C52      1.0000 0.44700  0.84410  0.61320  Biso   1.000  C
  C53      1.0000 0.39480  0.75920  0.68130  Biso   1.000  C
  C54      1.0000 0.43080  0.69830  0.67560  Biso   1.000  C
  C55      1.0000 0.31120  0.83220  0.70390  Biso   1.000  C
  C56      1.0000 0.49990  0.91280  0.36000  Biso   1.000  C
  C57      1.0000 0.38210  0.93820  0.43760  Biso   1.000  C
  C58      1.0000 0.30220  0.90200  0.41460  Biso   1.000  C
  C59      1.0000 0.33290  0.86990  0.36060  Biso   1.000  C
  C60      1.0000 0.23880  0.94310  0.49740  Biso   1.000  C
  C61      1.0000 0.89890  0.88830  0.43170  Biso   1.000  C
  C62      1.0000 0.98040  0.97630  0.40720  Biso   1.000  C
  C63      1.0000 0.11370  0.54760  0.64450  Biso   1.000  C
  C64      1.0000 0.06020  0.61320  0.54270  Biso   1.000  C
  C65      1.0000 0.07610  0.68130  0.55950  Biso   1.000  C
  C66      1.0000 0.10640  0.67560  0.62610  Biso   1.000  C
  C67      1.0000 0.01510  0.70390  0.46390  Biso   1.000  C
  C68      1.0000 0.85990  0.36000  0.72720  Biso   1.000  C
  C69      1.0000 0.81970  0.43760  0.62420  Biso   1.000  C
  C70      1.0000 0.71680  0.41460  0.68340  Biso   1.000  C
  C71      1.0000 0.69350  0.36060  0.76950  Biso   1.000  C
  C72      1.0000 0.73620  0.49740  0.55950  Biso   1.000  C
  N1       1.0000 0.20670  0.33380  0.27150  Biso   1.000  N
  N2       1.0000 0.33690  0.41550  0.12730  Biso   1.000  N
  N3       1.0000 0.44440  0.49430  0.24660  Biso   1.000  N
  N4       1.0000 0.49480  0.51760  0.11150  Biso   1.000  N
  N5       1.0000 0.23260  0.34780  0.38420  Biso   1.000  N
  N6       1.0000 0.43960  0.20750  0.12840  Biso   1.000  N
  N7       1.0000 0.46250  0.35330  0.05310  Biso   1.000  N
  N8       1.0000 0.69550  0.36120  0.09370  Biso   1.000  N
  N9       1.0000 0.62290  0.45280  0.03620  Biso   1.000  N
  N10      1.0000 0.56850  0.16720  0.16310  Biso   1.000  N
  N11      1.0000 0.47820  0.27150  0.39470  Biso   1.000  N
  N12      1.0000 0.46420  0.12730  0.45720  Biso   1.000  N
  N13      1.0000 0.69100  0.24660  0.25910  Biso   1.000  N
  N14      1.0000 0.60630  0.11150  0.37090  Biso   1.000  N
  N15      1.0000 0.61680  0.38420  0.26800  Biso   1.000  N
  N16      1.0000 0.56800  0.12840  0.66410  Biso   1.000  N
  N17      1.0000 0.51560  0.05310  0.59360  Biso   1.000  N
  N18      1.0000 0.78920  0.09370  0.54510  Biso   1.000  N
  N19      1.0000 0.65910  0.03620  0.51100  Biso   1.000  N
  N20      1.0000 0.73160  0.16310  0.66970  Biso   1.000  N
  N21      1.0000 0.87290  0.39470  0.33380  Biso   1.000  N
  N22      1.0000 0.92140  0.45720  0.41550  Biso   1.000  N
  N23      1.0000 0.95010  0.25910  0.49430  Biso   1.000  N
  N24      1.0000 0.97720  0.37090  0.51760  Biso   1.000  N
  N25      1.0000 0.88480  0.26800  0.34780  Biso   1.000  N
  N26      1.0000 0.23210  0.66410  0.20750  Biso   1.000  N
  N27      1.0000 0.10920  0.59360  0.35330  Biso   1.000  N
  N28      1.0000 0.33430  0.54510  0.36120  Biso   1.000  N
  N29      1.0000 0.17010  0.51100  0.45280  Biso   1.000  N
  N30      1.0000 0.40130  0.66970  0.16720  Biso   1.000  N
  N31      1.0000 0.79330  0.66620  0.72850  Biso   1.000  N
  N32      1.0000 0.66310  0.58450  0.87270  Biso   1.000  N
  N33      1.0000 0.55560  0.50570  0.75340  Biso   1.000  N
  N34      1.0000 0.50520  0.48240  0.88850  Biso   1.000  N
  N35      1.0000 0.76740  0.65220  0.61580  Biso   1.000  N
  N36      1.0000 0.56040  0.79250  0.87160  Biso   1.000  N
  N37      1.0000 0.53750  0.64670  0.94690  Biso   1.000  N
  N38      1.0000 0.30450  0.63880  0.90630  Biso   1.000  N
  N39      1.0000 0.37710  0.54720  0.96380  Biso   1.000  N
  N40      1.0000 0.43150  0.83280  0.83690  Biso   1.000  N
  N41      1.0000 0.52180  0.72850  0.60530  Biso   1.000  N
  N42      1.0000 0.53580  0.87270  0.54280  Biso   1.000  N
  N43      1.0000 0.30900  0.75340  0.74090  Biso   1.000  N
  N44      1.0000 0.39370  0.88850  0.62910  Biso   1.000  N
  N45      1.0000 0.38320  0.61580  0.73200  Biso   1.000  N
  N46      1.0000 0.43200  0.87160  0.33590  Biso   1.000  N
  N47      1.0000 0.48440  0.94690  0.40640  Biso   1.000  N
  N48      1.0000 0.21080  0.90630  0.45490  Biso   1.000  N
  N49      1.0000 0.34090  0.96380  0.48900  Biso   1.000  N
  N50      1.0000 0.26840  0.83690  0.33030  Biso   1.000  N
  N51      1.0000 0.12710  0.60530  0.66620  Biso   1.000  N
  N52      1.0000 0.07860  0.54280  0.58450  Biso   1.000  N
  N53      1.0000 0.04990  0.74090  0.50570  Biso   1.000  N
  N54      1.0000 0.02280  0.62910  0.48240  Biso   1.000  N
  N55      1.0000 0.11520  0.73200  0.65220  Biso   1.000  N
  N56      1.0000 0.76790  0.33590  0.79250  Biso   1.000  N
  N57      1.0000 0.89080  0.40640  0.64670  Biso   1.000  N
  N58      1.0000 0.66570  0.45490  0.63880  Biso   1.000  N
  N59      1.0000 0.82990  0.48900  0.54720  Biso   1.000  N
  N60      1.0000 0.59870  0.33030  0.83280  Biso   1.000  N
  O1       1.0000 0.26710  0.35790  0.00580  Biso   1.000  O
  O2       1.0000 0.61200  0.53470  0.29150  Biso   1.000  O
  O3       1.0000 0.51310  0.57330  0.39790  Biso   1.000  O
  O4       1.0000 0.76340  0.58300  0.30080  Biso   1.000  O
  O5       1.0000 0.66340  0.62830  0.41180  Biso   1.000  O
  O6       1.0000 0.27290  0.00580  0.63630  Biso   1.000  O
  O7       1.0000 0.90350  0.29150  0.17380  Biso   1.000  O
  O8       1.0000 0.91100  0.39790  0.02880  Biso   1.000  O
  O9       1.0000 0.06420  0.30080  0.11620  Biso   1.000  O
  O10      1.0000 0.07520  0.41180  0.95990  Biso   1.000  O
  O11      1.0000 0.90920  0.63630  0.35790  Biso   1.000  O
  O12      1.0000 0.07730  0.17380  0.53470  Biso   1.000  O
  O13      1.0000 0.93980  0.02880  0.57330  Biso   1.000  O
  O14      1.0000 0.18040  0.11620  0.58300  Biso   1.000  O
  O15      1.0000 0.03510  0.95990  0.62830  Biso   1.000  O
  O16      1.0000 0.73290  0.64210  0.99420  Biso   1.000  O
  O17      1.0000 0.38800  0.46530  0.70850  Biso   1.000  O
  O18      1.0000 0.48690  0.42670  0.60210  Biso   1.000  O
  O19      1.0000 0.23660  0.41700  0.69920  Biso   1.000  O
  O20      1.0000 0.33660  0.37170  0.58820  Biso   1.000  O
  O21      1.0000 0.72710  0.99420  0.36370  Biso   1.000  O
  O22      1.0000 0.09650  0.70850  0.82620  Biso   1.000  O
  O23      1.0000 0.08900  0.60210  0.97120  Biso   1.000  O
  O24      1.0000 0.93580  0.69920  0.88380  Biso   1.000  O
  O25      1.0000 0.92480  0.58820  0.04010  Biso   1.000  O
  O26      1.0000 0.09080  0.36370  0.64210  Biso   1.000  O
  O27      1.0000 0.92270  0.82620  0.46530  Biso   1.000  O
  O28      1.0000 0.06020  0.97120  0.42670  Biso   1.000  O
  O29      1.0000 0.81960  0.88380  0.41700  Biso   1.000  O
  O30      1.0000 0.96490  0.04010  0.37170  Biso   1.000  O
