data_image0
_cell_length_a       10.8969
_cell_length_b       21.024
_cell_length_c       28.741
_cell_angle_alpha    90
_cell_angle_beta     90
_cell_angle_gamma    90

_symmetry_space_group_name_H-M    P 1
_symmetry_int_tables_number       1

loop_
  _symmetry_equiv_pos_as_xyz
  'x, y, z'

loop_
  _atom_site_label
  _atom_site_occupancy
  _atom_site_fract_x
  _atom_site_fract_y
  _atom_site_fract_z
  _atom_site_thermal_displace_type
  _atom_site_B_iso_or_equiv
  _atom_site_type_symbol
  Co1      1.0000 0.84811  0.53497  0.29630  Biso   1.000  Co
  Co2      1.0000 0.28964  0.95667  0.29318  Biso   1.000  Co
  Co3      1.0000 0.56844  0.54350  0.11956  Biso   1.000  Co
  Co4      1.0000 0.97818  0.45671  0.38625  Biso   1.000  Co
  Co5      1.0000 0.84893  0.58264  0.16201  Biso   1.000  Co
  Co6      1.0000 0.70428  0.39557  0.33614  Biso   1.000  Co
  Co7      1.0000 0.84811  0.46503  0.70370  Biso   1.000  Co
  Co8      1.0000 0.28964  0.04333  0.70682  Biso   1.000  Co
  Co9      1.0000 0.56844  0.45650  0.88044  Biso   1.000  Co
  Co10     1.0000 0.97818  0.54329  0.61375  Biso   1.000  Co
  Co11     1.0000 0.84893  0.41736  0.83799  Biso   1.000  Co
  Co12     1.0000 0.70428  0.60443  0.66386  Biso   1.000  Co
  Co13     1.0000 0.15189  0.96503  0.79630  Biso   1.000  Co
  Co14     1.0000 0.71036  0.54333  0.79318  Biso   1.000  Co
  Co15     1.0000 0.43156  0.95650  0.61956  Biso   1.000  Co
  Co16     1.0000 0.02182  0.04329  0.88625  Biso   1.000  Co
  Co17     1.0000 0.15107  0.91736  0.66201  Biso   1.000  Co
  Co18     1.0000 0.29572  0.10443  0.83614  Biso   1.000  Co
  Co19     1.0000 0.15189  0.03497  0.20370  Biso   1.000  Co
  Co20     1.0000 0.71036  0.45667  0.20682  Biso   1.000  Co
  Co21     1.0000 0.43156  0.04350  0.38044  Biso   1.000  Co
  Co22     1.0000 0.02182  0.95671  0.11375  Biso   1.000  Co
  Co23     1.0000 0.15107  0.08264  0.33799  Biso   1.000  Co
  Co24     1.0000 0.29572  0.89557  0.16386  Biso   1.000  Co
  H1       1.0000 0.90910  0.42340  0.30780  Biso   1.000  H
  H2       1.0000 0.34920  0.07440  0.30110  Biso   1.000  H
  H3       1.0000 0.59570  0.63430  0.39370  Biso   1.000  H
  H4       1.0000 0.47960  0.67050  0.45660  Biso   1.000  H
  H5       1.0000 0.55410  0.65900  0.53170  Biso   1.000  H
  H6       1.0000 0.84520  0.56680  0.48300  Biso   1.000  H
  H7       1.0000 0.91630  0.67730  0.32780  Biso   1.000  H
  H8       1.0000 0.03820  0.74700  0.36700  Biso   1.000  H
  H9       1.0000 0.17790  0.81280  0.32850  Biso   1.000  H
  H10      1.0000 0.05310  0.74250  0.20670  Biso   1.000  H
  H11      1.0000 0.18280  0.63460  0.26720  Biso   1.000  H
  H12      1.0000 0.36950  0.67010  0.24180  Biso   1.000  H
  H13      1.0000 0.54570  0.61090  0.25460  Biso   1.000  H
  H14      1.0000 0.34690  0.48400  0.32530  Biso   1.000  H
  H15      1.0000 0.02510  0.38550  0.25970  Biso   1.000  H
  H16      1.0000 0.20100  0.32890  0.27360  Biso   1.000  H
  H17      1.0000 0.38600  0.36310  0.24550  Biso   1.000  H
  H18      1.0000 0.21330  0.50340  0.17630  Biso   1.000  H
  H19      1.0000 0.04860  0.87040  0.39610  Biso   1.000  H
  H20      1.0000 0.92570  0.84530  0.45650  Biso   1.000  H
  H21      1.0000 0.99970  0.84900  0.53260  Biso   1.000  H
  H22      1.0000 0.30440  0.93300  0.48340  Biso   1.000  H
  H23      1.0000 0.53970  0.64810  0.16400  Biso   1.000  H
  H24      1.0000 0.42460  0.63210  0.14690  Biso   1.000  H
  H25      1.0000 0.44850  0.50910  0.05020  Biso   1.000  H
  H26      1.0000 0.45230  0.57500  0.04780  Biso   1.000  H
  H27      1.0000 0.03690  0.34250  0.39210  Biso   1.000  H
  H28      1.0000 0.12570  0.37140  0.36470  Biso   1.000  H
  H29      1.0000 0.17120  0.46060  0.43640  Biso   1.000  H
  H30      1.0000 0.08240  0.43170  0.46380  Biso   1.000  H
  H31      1.0000 0.90910  0.57660  0.69220  Biso   1.000  H
  H32      1.0000 0.34920  0.92560  0.69890  Biso   1.000  H
  H33      1.0000 0.59570  0.36570  0.60630  Biso   1.000  H
  H34      1.0000 0.47960  0.32950  0.54340  Biso   1.000  H
  H35      1.0000 0.55410  0.34100  0.46830  Biso   1.000  H
  H36      1.0000 0.84520  0.43320  0.51700  Biso   1.000  H
  H37      1.0000 0.91630  0.32270  0.67220  Biso   1.000  H
  H38      1.0000 0.03820  0.25300  0.63300  Biso   1.000  H
  H39      1.0000 0.17790  0.18720  0.67150  Biso   1.000  H
  H40      1.0000 0.05310  0.25750  0.79330  Biso   1.000  H
  H41      1.0000 0.18280  0.36540  0.73280  Biso   1.000  H
  H42      1.0000 0.36950  0.32990  0.75820  Biso   1.000  H
  H43      1.0000 0.54570  0.38910  0.74540  Biso   1.000  H
  H44      1.0000 0.34690  0.51600  0.67470  Biso   1.000  H
  H45      1.0000 0.02510  0.61450  0.74030  Biso   1.000  H
  H46      1.0000 0.20100  0.67110  0.72640  Biso   1.000  H
  H47      1.0000 0.38600  0.63690  0.75450  Biso   1.000  H
  H48      1.0000 0.21330  0.49660  0.82370  Biso   1.000  H
  H49      1.0000 0.04860  0.12960  0.60390  Biso   1.000  H
  H50      1.0000 0.92570  0.15470  0.54350  Biso   1.000  H
  H51      1.0000 0.99970  0.15100  0.46740  Biso   1.000  H
  H52      1.0000 0.30440  0.06700  0.51660  Biso   1.000  H
  H53      1.0000 0.53970  0.35190  0.83600  Biso   1.000  H
  H54      1.0000 0.42460  0.36790  0.85310  Biso   1.000  H
  H55      1.0000 0.44850  0.49090  0.94980  Biso   1.000  H
  H56      1.0000 0.45230  0.42500  0.95220  Biso   1.000  H
  H57      1.0000 0.03690  0.65750  0.60790  Biso   1.000  H
  H58      1.0000 0.12570  0.62860  0.63530  Biso   1.000  H
  H59      1.0000 0.17120  0.53940  0.56360  Biso   1.000  H
  H60      1.0000 0.08240  0.56830  0.53620  Biso   1.000  H
  H61      1.0000 0.09090  0.07660  0.80780  Biso   1.000  H
  H62      1.0000 0.65080  0.42560  0.80110  Biso   1.000  H
  H63      1.0000 0.40430  0.86570  0.89370  Biso   1.000  H
  H64      1.0000 0.52040  0.82950  0.95660  Biso   1.000  H
  H65      1.0000 0.44590  0.84100  0.03170  Biso   1.000  H
  H66      1.0000 0.15480  0.93320  0.98300  Biso   1.000  H
  H67      1.0000 0.08370  0.82270  0.82780  Biso   1.000  H
  H68      1.0000 0.96180  0.75300  0.86700  Biso   1.000  H
  H69      1.0000 0.82210  0.68720  0.82850  Biso   1.000  H
  H70      1.0000 0.94690  0.75750  0.70670  Biso   1.000  H
  H71      1.0000 0.81720  0.86540  0.76720  Biso   1.000  H
  H72      1.0000 0.63050  0.82990  0.74180  Biso   1.000  H
  H73      1.0000 0.45430  0.88910  0.75460  Biso   1.000  H
  H74      1.0000 0.65310  0.01600  0.82530  Biso   1.000  H
  H75      1.0000 0.97490  0.11450  0.75970  Biso   1.000  H
  H76      1.0000 0.79900  0.17110  0.77360  Biso   1.000  H
  H77      1.0000 0.61400  0.13690  0.74550  Biso   1.000  H
  H78      1.0000 0.78670  0.99660  0.67630  Biso   1.000  H
  H79      1.0000 0.95140  0.62960  0.89610  Biso   1.000  H
  H80      1.0000 0.07430  0.65470  0.95650  Biso   1.000  H
  H81      1.0000 0.00030  0.65100  0.03260  Biso   1.000  H
  H82      1.0000 0.69560  0.56700  0.98340  Biso   1.000  H
  H83      1.0000 0.46030  0.85190  0.66400  Biso   1.000  H
  H84      1.0000 0.57540  0.86790  0.64690  Biso   1.000  H
  H85      1.0000 0.55150  0.99090  0.55020  Biso   1.000  H
  H86      1.0000 0.54770  0.92500  0.54780  Biso   1.000  H
  H87      1.0000 0.96310  0.15750  0.89210  Biso   1.000  H
  H88      1.0000 0.87430  0.12860  0.86470  Biso   1.000  H
  H89      1.0000 0.82880  0.03940  0.93640  Biso   1.000  H
  H90      1.0000 0.91760  0.06830  0.96380  Biso   1.000  H
  H91      1.0000 0.09090  0.92340  0.19220  Biso   1.000  H
  H92      1.0000 0.65080  0.57440  0.19890  Biso   1.000  H
  H93      1.0000 0.40430  0.13430  0.10630  Biso   1.000  H
  H94      1.0000 0.52040  0.17050  0.04340  Biso   1.000  H
  H95      1.0000 0.44590  0.15900  0.96830  Biso   1.000  H
  H96      1.0000 0.15480  0.06680  0.01700  Biso   1.000  H
  H97      1.0000 0.08370  0.17730  0.17220  Biso   1.000  H
  H98      1.0000 0.96180  0.24700  0.13300  Biso   1.000  H
  H99      1.0000 0.82210  0.31280  0.17150  Biso   1.000  H
  H100     1.0000 0.94690  0.24250  0.29330  Biso   1.000  H
  H101     1.0000 0.81720  0.13460  0.23280  Biso   1.000  H
  H102     1.0000 0.63050  0.17010  0.25820  Biso   1.000  H
  H103     1.0000 0.45430  0.11090  0.24540  Biso   1.000  H
  H104     1.0000 0.65310  0.98400  0.17470  Biso   1.000  H
  H105     1.0000 0.97490  0.88550  0.24030  Biso   1.000  H
  H106     1.0000 0.79900  0.82890  0.22640  Biso   1.000  H
  H107     1.0000 0.61400  0.86310  0.25450  Biso   1.000  H
  H108     1.0000 0.78670  0.00340  0.32370  Biso   1.000  H
  H109     1.0000 0.95140  0.37040  0.10390  Biso   1.000  H
  H110     1.0000 0.07430  0.34530  0.04350  Biso   1.000  H
  H111     1.0000 0.00030  0.34900  0.96740  Biso   1.000  H
  H112     1.0000 0.69560  0.43300  0.01660  Biso   1.000  H
  H113     1.0000 0.46030  0.14810  0.33600  Biso   1.000  H
  H114     1.0000 0.57540  0.13210  0.35310  Biso   1.000  H
  H115     1.0000 0.55150  0.00910  0.44980  Biso   1.000  H
  H116     1.0000 0.54770  0.07500  0.45220  Biso   1.000  H
  H117     1.0000 0.96310  0.84250  0.10790  Biso   1.000  H
  H118     1.0000 0.87430  0.87140  0.13530  Biso   1.000  H
  H119     1.0000 0.82880  0.96060  0.06360  Biso   1.000  H
  H120     1.0000 0.91760  0.93170  0.03620  Biso   1.000  H
  C1       1.0000 0.80890  0.57160  0.39350  Biso   1.000  C
  C2       1.0000 0.73650  0.59830  0.43220  Biso   1.000  C
  C3       1.0000 0.62400  0.62880  0.42390  Biso   1.000  C
  C4       1.0000 0.55480  0.65080  0.46160  Biso   1.000  C
  C5       1.0000 0.59880  0.64290  0.50670  Biso   1.000  C
  C6       1.0000 0.70620  0.61220  0.51480  Biso   1.000  C
  C7       1.0000 0.77310  0.58920  0.47730  Biso   1.000  C
  C8       1.0000 0.75300  0.60210  0.56290  Biso   1.000  C
  C9       1.0000 0.89350  0.65630  0.23600  Biso   1.000  C
  C10      1.0000 0.97310  0.70340  0.26260  Biso   1.000  C
  C11      1.0000 0.96880  0.70430  0.31170  Biso   1.000  C
  C12      1.0000 0.04290  0.74530  0.33470  Biso   1.000  C
  C13      1.0000 0.12700  0.78570  0.31180  Biso   1.000  C
  C14      1.0000 0.13140  0.78360  0.26340  Biso   1.000  C
  C15      1.0000 0.05210  0.74280  0.23910  Biso   1.000  C
  C16      1.0000 0.21200  0.82750  0.23650  Biso   1.000  C
  C17      1.0000 0.12440  0.53320  0.31720  Biso   1.000  C
  C18      1.0000 0.24570  0.55560  0.30000  Biso   1.000  C
  C19      1.0000 0.25340  0.61150  0.27390  Biso   1.000  C
  C20      1.0000 0.36450  0.63200  0.25810  Biso   1.000  C
  C21      1.0000 0.47060  0.59670  0.26600  Biso   1.000  C
  C22      1.0000 0.46420  0.54190  0.29030  Biso   1.000  C
  C23      1.0000 0.35080  0.52130  0.30801  Biso   1.000  C
  C24      1.0000 0.57520  0.50120  0.29650  Biso   1.000  C
  C25      1.0000 0.98790  0.48700  0.20680  Biso   1.000  C
  C26      1.0000 0.10020  0.44970  0.21640  Biso   1.000  C
  C27      1.0000 0.09840  0.39810  0.24590  Biso   1.000  C
  C28      1.0000 0.20430  0.36510  0.25500  Biso   1.000  C
  C29      1.0000 0.31410  0.38430  0.23740  Biso   1.000  C
  C30      1.0000 0.31790  0.43630  0.20690  Biso   1.000  C
  C31      1.0000 0.21120  0.46880  0.19650  Biso   1.000  C
  C32      1.0000 0.43800  0.45820  0.18730  Biso   1.000  C
  C33      1.0000 0.26150  0.93150  0.39380  Biso   1.000  C
  C34      1.0000 0.18400  0.90770  0.43360  Biso   1.000  C
  C35      1.0000 0.07480  0.87840  0.42640  Biso   1.000  C
  C36      1.0000 0.00420  0.86080  0.46220  Biso   1.000  C
  C37      1.0000 0.04580  0.86520  0.50810  Biso   1.000  C
  C38      1.0000 0.15860  0.89450  0.51590  Biso   1.000  C
  C39      1.0000 0.22780  0.91460  0.47840  Biso   1.000  C
  C40      1.0000 0.20500  0.90490  0.56530  Biso   1.000  C
  C41      1.0000 0.80890  0.42840  0.60650  Biso   1.000  C
  C42      1.0000 0.73650  0.40170  0.56780  Biso   1.000  C
  C43      1.0000 0.62400  0.37120  0.57610  Biso   1.000  C
  C44      1.0000 0.55480  0.34920  0.53840  Biso   1.000  C
  C45      1.0000 0.59880  0.35710  0.49330  Biso   1.000  C
  C46      1.0000 0.70620  0.38780  0.48520  Biso   1.000  C
  C47      1.0000 0.77310  0.41080  0.52270  Biso   1.000  C
  C48      1.0000 0.75300  0.39790  0.43710  Biso   1.000  C
  C49      1.0000 0.89350  0.34370  0.76400  Biso   1.000  C
  C50      1.0000 0.97310  0.29660  0.73740  Biso   1.000  C
  C51      1.0000 0.96880  0.29570  0.68830  Biso   1.000  C
  C52      1.0000 0.04290  0.25470  0.66530  Biso   1.000  C
  C53      1.0000 0.12700  0.21430  0.68820  Biso   1.000  C
  C54      1.0000 0.13140  0.21640  0.73660  Biso   1.000  C
  C55      1.0000 0.05210  0.25720  0.76090  Biso   1.000  C
  C56      1.0000 0.21200  0.17250  0.76350  Biso   1.000  C
  C57      1.0000 0.12440  0.46680  0.68280  Biso   1.000  C
  C58      1.0000 0.24570  0.44440  0.70000  Biso   1.000  C
  C59      1.0000 0.25340  0.38850  0.72610  Biso   1.000  C
  C60      1.0000 0.36450  0.36800  0.74190  Biso   1.000  C
  C61      1.0000 0.47060  0.40330  0.73400  Biso   1.000  C
  C62      1.0000 0.46420  0.45810  0.70970  Biso   1.000  C
  C63      1.0000 0.35080  0.47870  0.69199  Biso   1.000  C
  C64      1.0000 0.57520  0.49880  0.70350  Biso   1.000  C
  C65      1.0000 0.98790  0.51300  0.79320  Biso   1.000  C
  C66      1.0000 0.10020  0.55030  0.78360  Biso   1.000  C
  C67      1.0000 0.09840  0.60190  0.75410  Biso   1.000  C
  C68      1.0000 0.20430  0.63490  0.74500  Biso   1.000  C
  C69      1.0000 0.31410  0.61570  0.76260  Biso   1.000  C
  C70      1.0000 0.31790  0.56370  0.79310  Biso   1.000  C
  C71      1.0000 0.21120  0.53120  0.80350  Biso   1.000  C
  C72      1.0000 0.43800  0.54180  0.81270  Biso   1.000  C
  C73      1.0000 0.26150  0.06850  0.60620  Biso   1.000  C
  C74      1.0000 0.18400  0.09230  0.56640  Biso   1.000  C
  C75      1.0000 0.07480  0.12160  0.57360  Biso   1.000  C
  C76      1.0000 0.00420  0.13920  0.53780  Biso   1.000  C
  C77      1.0000 0.04580  0.13480  0.49190  Biso   1.000  C
  C78      1.0000 0.15860  0.10550  0.48410  Biso   1.000  C
  C79      1.0000 0.22780  0.08540  0.52160  Biso   1.000  C
  C80      1.0000 0.20500  0.09510  0.43470  Biso   1.000  C
  C81      1.0000 0.19110  0.92840  0.89350  Biso   1.000  C
  C82      1.0000 0.26350  0.90170  0.93220  Biso   1.000  C
  C83      1.0000 0.37600  0.87120  0.92390  Biso   1.000  C
  C84      1.0000 0.44520  0.84920  0.96160  Biso   1.000  C
  C85      1.0000 0.40120  0.85710  0.00670  Biso   1.000  C
  C86      1.0000 0.29380  0.88780  0.01480  Biso   1.000  C
  C87      1.0000 0.22690  0.91080  0.97730  Biso   1.000  C
  C88      1.0000 0.24700  0.89790  0.06290  Biso   1.000  C
  C89      1.0000 0.10650  0.84370  0.73600  Biso   1.000  C
  C90      1.0000 0.02690  0.79660  0.76260  Biso   1.000  C
  C91      1.0000 0.03120  0.79570  0.81170  Biso   1.000  C
  C92      1.0000 0.95710  0.75470  0.83470  Biso   1.000  C
  C93      1.0000 0.87300  0.71430  0.81180  Biso   1.000  C
  C94      1.0000 0.86860  0.71640  0.76340  Biso   1.000  C
  C95      1.0000 0.94790  0.75720  0.73910  Biso   1.000  C
  C96      1.0000 0.78800  0.67250  0.73650  Biso   1.000  C
  C97      1.0000 0.87560  0.96680  0.81720  Biso   1.000  C
  C98      1.0000 0.75430  0.94440  0.80000  Biso   1.000  C
  C99      1.0000 0.74660  0.88850  0.77390  Biso   1.000  C
  C100     1.0000 0.63550  0.86800  0.75810  Biso   1.000  C
  C101     1.0000 0.52940  0.90330  0.76600  Biso   1.000  C
  C102     1.0000 0.53580  0.95810  0.79030  Biso   1.000  C
  C103     1.0000 0.64920  0.97870  0.80801  Biso   1.000  C
  C104     1.0000 0.42480  0.99880  0.79650  Biso   1.000  C
  C105     1.0000 0.01210  0.01300  0.70680  Biso   1.000  C
  C106     1.0000 0.89980  0.05030  0.71640  Biso   1.000  C
  C107     1.0000 0.90160  0.10190  0.74590  Biso   1.000  C
  C108     1.0000 0.79570  0.13490  0.75500  Biso   1.000  C
  C109     1.0000 0.68590  0.11570  0.73740  Biso   1.000  C
  C110     1.0000 0.68210  0.06370  0.70690  Biso   1.000  C
  C111     1.0000 0.78880  0.03120  0.69650  Biso   1.000  C
  C112     1.0000 0.56200  0.04180  0.68730  Biso   1.000  C
  C113     1.0000 0.73850  0.56850  0.89380  Biso   1.000  C
  C114     1.0000 0.81600  0.59230  0.93360  Biso   1.000  C
  C115     1.0000 0.92520  0.62160  0.92640  Biso   1.000  C
  C116     1.0000 0.99580  0.63920  0.96220  Biso   1.000  C
  C117     1.0000 0.95420  0.63480  0.00810  Biso   1.000  C
  C118     1.0000 0.84140  0.60550  0.01590  Biso   1.000  C
  C119     1.0000 0.77220  0.58540  0.97840  Biso   1.000  C
  C120     1.0000 0.79500  0.59510  0.06530  Biso   1.000  C
  C121     1.0000 0.19110  0.07160  0.10650  Biso   1.000  C
  C122     1.0000 0.26350  0.09830  0.06780  Biso   1.000  C
  C123     1.0000 0.37600  0.12880  0.07610  Biso   1.000  C
  C124     1.0000 0.44520  0.15080  0.03840  Biso   1.000  C
  C125     1.0000 0.40120  0.14290  0.99330  Biso   1.000  C
  C126     1.0000 0.29380  0.11220  0.98520  Biso   1.000  C
  C127     1.0000 0.22690  0.08920  0.02270  Biso   1.000  C
  C128     1.0000 0.24700  0.10210  0.93710  Biso   1.000  C
  C129     1.0000 0.10650  0.15630  0.26400  Biso   1.000  C
  C130     1.0000 0.02690  0.20340  0.23740  Biso   1.000  C
  C131     1.0000 0.03120  0.20430  0.18830  Biso   1.000  C
  C132     1.0000 0.95710  0.24530  0.16530  Biso   1.000  C
  C133     1.0000 0.87300  0.28570  0.18820  Biso   1.000  C
  C134     1.0000 0.86860  0.28360  0.23660  Biso   1.000  C
  C135     1.0000 0.94790  0.24280  0.26090  Biso   1.000  C
  C136     1.0000 0.78800  0.32750  0.26350  Biso   1.000  C
  C137     1.0000 0.87560  0.03320  0.18280  Biso   1.000  C
  C138     1.0000 0.75430  0.05560  0.20000  Biso   1.000  C
  C139     1.0000 0.74660  0.11150  0.22610  Biso   1.000  C
  C140     1.0000 0.63550  0.13200  0.24190  Biso   1.000  C
  C141     1.0000 0.52940  0.09670  0.23400  Biso   1.000  C
  C142     1.0000 0.53580  0.04190  0.20970  Biso   1.000  C
  C143     1.0000 0.64920  0.02130  0.19199  Biso   1.000  C
  C144     1.0000 0.42480  0.00120  0.20350  Biso   1.000  C
  C145     1.0000 0.01210  0.98700  0.29320  Biso   1.000  C
  C146     1.0000 0.89980  0.94970  0.28360  Biso   1.000  C
  C147     1.0000 0.90160  0.89810  0.25410  Biso   1.000  C
  C148     1.0000 0.79570  0.86510  0.24500  Biso   1.000  C
  C149     1.0000 0.68590  0.88430  0.26260  Biso   1.000  C
  C150     1.0000 0.68210  0.93630  0.29310  Biso   1.000  C
  C151     1.0000 0.78880  0.96880  0.30350  Biso   1.000  C
  C152     1.0000 0.56200  0.95820  0.31270  Biso   1.000  C
  C153     1.0000 0.73850  0.43150  0.10620  Biso   1.000  C
  C154     1.0000 0.81600  0.40770  0.06640  Biso   1.000  C
  C155     1.0000 0.92520  0.37840  0.07360  Biso   1.000  C
  C156     1.0000 0.99580  0.36080  0.03780  Biso   1.000  C
  C157     1.0000 0.95420  0.36520  0.99190  Biso   1.000  C
  C158     1.0000 0.84140  0.39450  0.98410  Biso   1.000  C
  C159     1.0000 0.77220  0.41460  0.02160  Biso   1.000  C
  C160     1.0000 0.79500  0.40490  0.93470  Biso   1.000  C
  O1       1.0000 0.86040  0.44860  0.32974  Biso   1.000  O
  O2       1.0000 0.31140  0.04670  0.32450  Biso   1.000  O
  O3       1.0000 0.90940  0.54510  0.40250  Biso   1.000  O
  O4       1.0000 0.76740  0.57710  0.35224  Biso   1.000  O
  O5       1.0000 0.85850  0.58520  0.56768  Biso   1.000  O
  O6       1.0000 0.68190  0.61340  0.59512  Biso   1.000  O
  O7       1.0000 0.83100  0.61740  0.25562  Biso   1.000  O
  O8       1.0000 0.89790  0.66140  0.19195  Biso   1.000  O
  O9       1.0000 0.21780  0.81970  0.19267  Biso   1.000  O
  O10      1.0000 0.27010  0.87030  0.25550  Biso   1.000  O
  O11      1.0000 0.12490  0.49270  0.35037  Biso   1.000  O
  O12      1.0000 0.03070  0.55620  0.29822  Biso   1.000  O
  O13      1.0000 0.66690  0.51120  0.27111  Biso   1.000  O
  O14      1.0000 0.57150  0.45910  0.32724  Biso   1.000  O
  O15      1.0000 0.89170  0.47680  0.23132  Biso   1.000  O
  O16      1.0000 0.98970  0.52710  0.17464  Biso   1.000  O
  O17      1.0000 0.53300  0.43160  0.20178  Biso   1.000  O
  O18      1.0000 0.43250  0.50400  0.15880  Biso   1.000  O
  O19      1.0000 0.21710  0.92520  0.35364  Biso   1.000  O
  O20      1.0000 0.36100  0.95810  0.40300  Biso   1.000  O
  O21      1.0000 0.12330  0.90500  0.59582  Biso   1.000  O
  O22      1.0000 0.31580  0.91170  0.57190  Biso   1.000  O
  O23      1.0000 0.50040  0.63540  0.14020  Biso   1.000  O
  O24      1.0000 0.43990  0.54330  0.06560  Biso   1.000  O
  O25      1.0000 0.04900  0.36780  0.36960  Biso   1.000  O
  O26      1.0000 0.09700  0.46250  0.44550  Biso   1.000  O
  O27      1.0000 0.86040  0.55140  0.67026  Biso   1.000  O
  O28      1.0000 0.31140  0.95330  0.67550  Biso   1.000  O
  O29      1.0000 0.90940  0.45490  0.59750  Biso   1.000  O
  O30      1.0000 0.76740  0.42290  0.64776  Biso   1.000  O
  O31      1.0000 0.85850  0.41480  0.43232  Biso   1.000  O
  O32      1.0000 0.68190  0.38660  0.40488  Biso   1.000  O
  O33      1.0000 0.83100  0.38260  0.74438  Biso   1.000  O
  O34      1.0000 0.89790  0.33860  0.80805  Biso   1.000  O
  O35      1.0000 0.21780  0.18030  0.80733  Biso   1.000  O
  O36      1.0000 0.27010  0.12970  0.74450  Biso   1.000  O
  O37      1.0000 0.12490  0.50730  0.64963  Biso   1.000  O
  O38      1.0000 0.03070  0.44380  0.70178  Biso   1.000  O
  O39      1.0000 0.66690  0.48880  0.72889  Biso   1.000  O
  O40      1.0000 0.57150  0.54090  0.67276  Biso   1.000  O
  O41      1.0000 0.89170  0.52320  0.76868  Biso   1.000  O
  O42      1.0000 0.98970  0.47290  0.82536  Biso   1.000  O
  O43      1.0000 0.53300  0.56840  0.79822  Biso   1.000  O
  O44      1.0000 0.43250  0.49600  0.84120  Biso   1.000  O
  O45      1.0000 0.21710  0.07480  0.64636  Biso   1.000  O
  O46      1.0000 0.36100  0.04190  0.59700  Biso   1.000  O
  O47      1.0000 0.12330  0.09500  0.40418  Biso   1.000  O
  O48      1.0000 0.31580  0.08830  0.42810  Biso   1.000  O
  O49      1.0000 0.50040  0.36460  0.85980  Biso   1.000  O
  O50      1.0000 0.43990  0.45670  0.93440  Biso   1.000  O
  O51      1.0000 0.04900  0.63220  0.63040  Biso   1.000  O
  O52      1.0000 0.09700  0.53750  0.55450  Biso   1.000  O
  O53      1.0000 0.13960  0.05140  0.82974  Biso   1.000  O
  O54      1.0000 0.68860  0.45330  0.82450  Biso   1.000  O
  O55      1.0000 0.09060  0.95490  0.90250  Biso   1.000  O
  O56      1.0000 0.23260  0.92290  0.85224  Biso   1.000  O
  O57      1.0000 0.14150  0.91480  0.06768  Biso   1.000  O
  O58      1.0000 0.31810  0.88660  0.09512  Biso   1.000  O
  O59      1.0000 0.16900  0.88260  0.75562  Biso   1.000  O
  O60      1.0000 0.10210  0.83860  0.69195  Biso   1.000  O
  O61      1.0000 0.78220  0.68030  0.69267  Biso   1.000  O
  O62      1.0000 0.72990  0.62970  0.75550  Biso   1.000  O
  O63      1.0000 0.87510  0.00730  0.85037  Biso   1.000  O
  O64      1.0000 0.96930  0.94380  0.79822  Biso   1.000  O
  O65      1.0000 0.33310  0.98880  0.77111  Biso   1.000  O
  O66      1.0000 0.42850  0.04090  0.82724  Biso   1.000  O
  O67      1.0000 0.10830  0.02320  0.73132  Biso   1.000  O
  O68      1.0000 0.01030  0.97290  0.67464  Biso   1.000  O
  O69      1.0000 0.46700  0.06840  0.70178  Biso   1.000  O
  O70      1.0000 0.56750  0.99600  0.65880  Biso   1.000  O
  O71      1.0000 0.78290  0.57480  0.85364  Biso   1.000  O
  O72      1.0000 0.63900  0.54190  0.90300  Biso   1.000  O
  O73      1.0000 0.87670  0.59500  0.09582  Biso   1.000  O
  O74      1.0000 0.68420  0.58830  0.07190  Biso   1.000  O
  O75      1.0000 0.49960  0.86460  0.64020  Biso   1.000  O
  O76      1.0000 0.56010  0.95670  0.56560  Biso   1.000  O
  O77      1.0000 0.95100  0.13220  0.86960  Biso   1.000  O
  O78      1.0000 0.90300  0.03750  0.94550  Biso   1.000  O
  O79      1.0000 0.13960  0.94860  0.17026  Biso   1.000  O
  O80      1.0000 0.68860  0.54670  0.17550  Biso   1.000  O
  O81      1.0000 0.09060  0.04510  0.09750  Biso   1.000  O
  O82      1.0000 0.23260  0.07710  0.14776  Biso   1.000  O
  O83      1.0000 0.14150  0.08520  0.93232  Biso   1.000  O
  O84      1.0000 0.31810  0.11340  0.90488  Biso   1.000  O
  O85      1.0000 0.16900  0.11740  0.24438  Biso   1.000  O
  O86      1.0000 0.10210  0.16140  0.30805  Biso   1.000  O
  O87      1.0000 0.78220  0.31970  0.30733  Biso   1.000  O
  O88      1.0000 0.72990  0.37030  0.24450  Biso   1.000  O
  O89      1.0000 0.87510  0.99270  0.14963  Biso   1.000  O
  O90      1.0000 0.96930  0.05620  0.20178  Biso   1.000  O
  O91      1.0000 0.33310  0.01120  0.22889  Biso   1.000  O
  O92      1.0000 0.42850  0.95910  0.17276  Biso   1.000  O
  O93      1.0000 0.10830  0.97680  0.26868  Biso   1.000  O
  O94      1.0000 0.01030  0.02710  0.32536  Biso   1.000  O
  O95      1.0000 0.46700  0.93160  0.29822  Biso   1.000  O
  O96      1.0000 0.56750  0.00400  0.34120  Biso   1.000  O
  O97      1.0000 0.78290  0.42520  0.14636  Biso   1.000  O
  O98      1.0000 0.63900  0.45810  0.09700  Biso   1.000  O
  O99      1.0000 0.87670  0.40500  0.90418  Biso   1.000  O
  O100     1.0000 0.68420  0.41170  0.92810  Biso   1.000  O
  O101     1.0000 0.49960  0.13540  0.35980  Biso   1.000  O
  O102     1.0000 0.56010  0.04330  0.43440  Biso   1.000  O
  O103     1.0000 0.95100  0.86780  0.13040  Biso   1.000  O
  O104     1.0000 0.90300  0.96250  0.05450  Biso   1.000  O
