data_image0
_cell_length_a       12.6804
_cell_length_b       13.844
_cell_length_c       27.865
_cell_angle_alpha    104.246
_cell_angle_beta     97.317
_cell_angle_gamma    94.456

_symmetry_space_group_name_H-M    P 1
_symmetry_int_tables_number       1

loop_
  _symmetry_equiv_pos_as_xyz
  'x, y, z'

loop_
  _atom_site_label
  _atom_site_occupancy
  _atom_site_fract_x
  _atom_site_fract_y
  _atom_site_fract_z
  _atom_site_thermal_displace_type
  _atom_site_B_iso_or_equiv
  _atom_site_type_symbol
  Tb1      1.0000 0.03600  0.56599  0.93992  Biso   1.000  Tb
  Tb2      1.0000 0.12156  0.07335  0.55197  Biso   1.000  Tb
  Tb3      1.0000 0.46399  0.54780  0.58547  Biso   1.000  Tb
  Tb4      1.0000 0.48915  0.89152  0.91347  Biso   1.000  Tb
  Tb5      1.0000 0.96400  0.43401  0.06008  Biso   1.000  Tb
  Tb6      1.0000 0.87844  0.92665  0.44803  Biso   1.000  Tb
  Tb7      1.0000 0.53601  0.45220  0.41453  Biso   1.000  Tb
  Tb8      1.0000 0.51085  0.10848  0.08653  Biso   1.000  Tb
  H1       1.0000 0.73730  0.20530  0.94250  Biso   1.000  H
  H2       1.0000 0.76030  0.37120  0.84340  Biso   1.000  H
  H3       1.0000 0.02690  0.89380  0.65480  Biso   1.000  H
  H4       1.0000 0.55290  0.12190  0.80780  Biso   1.000  H
  H5       1.0000 0.06120  0.21420  0.80870  Biso   1.000  H
  H6       1.0000 0.74620  0.79430  0.56560  Biso   1.000  H
  H7       1.0000 0.50710  0.16960  0.65280  Biso   1.000  H
  H8       1.0000 0.61680  0.42420  0.79750  Biso   1.000  H
  H9       1.0000 0.25400  0.23970  0.01150  Biso   1.000  H
  H10      1.0000 0.35770  0.13280  0.80740  Biso   1.000  H
  H11      1.0000 0.54770  0.46220  0.72500  Biso   1.000  H
  H12      1.0000 0.07500  0.94380  0.74490  Biso   1.000  H
  H13      1.0000 0.13820  0.31390  0.88610  Biso   1.000  H
  H14      1.0000 0.20580  0.93210  0.80830  Biso   1.000  H
  H15      1.0000 0.32320  0.08760  0.87880  Biso   1.000  H
  H16      1.0000 0.33240  0.09680  0.72100  Biso   1.000  H
  H17      1.0000 0.80990  0.71060  0.69340  Biso   1.000  H
  H18      1.0000 0.03740  0.18000  0.72230  Biso   1.000  H
  H19      1.0000 0.57620  0.13040  0.72590  Biso   1.000  H
  H20      1.0000 0.09640  0.64340  0.78840  Biso   1.000  H
  H21      1.0000 0.96640  0.65440  0.72440  Biso   1.000  H
  H22      1.0000 0.72910  0.45110  0.61630  Biso   1.000  H
  H23      1.0000 0.06130  0.38350  0.76570  Biso   1.000  H
  H24      1.0000 0.91500  0.22660  0.61080  Biso   1.000  H
  H25      1.0000 0.72200  0.24170  0.48700  Biso   1.000  H
  H26      1.0000 0.74850  0.47110  0.69330  Biso   1.000  H
  H27      1.0000 0.00360  0.32040  0.68080  Biso   1.000  H
  H28      1.0000 0.80950  0.54000  0.77780  Biso   1.000  H
  H29      1.0000 0.26270  0.79470  0.05750  Biso   1.000  H
  H30      1.0000 0.23970  0.62880  0.15660  Biso   1.000  H
  H31      1.0000 0.97310  0.10620  0.34520  Biso   1.000  H
  H32      1.0000 0.44710  0.87810  0.19220  Biso   1.000  H
  H33      1.0000 0.93880  0.78580  0.19130  Biso   1.000  H
  H34      1.0000 0.25380  0.20570  0.43440  Biso   1.000  H
  H35      1.0000 0.49290  0.83040  0.34720  Biso   1.000  H
  H36      1.0000 0.38320  0.57580  0.20250  Biso   1.000  H
  H37      1.0000 0.74600  0.76030  0.98850  Biso   1.000  H
  H38      1.0000 0.64230  0.86720  0.19260  Biso   1.000  H
  H39      1.0000 0.45230  0.53780  0.27500  Biso   1.000  H
  H40      1.0000 0.92500  0.05620  0.25510  Biso   1.000  H
  H41      1.0000 0.86180  0.68610  0.11390  Biso   1.000  H
  H42      1.0000 0.79420  0.06790  0.19170  Biso   1.000  H
  H43      1.0000 0.67680  0.91240  0.12120  Biso   1.000  H
  H44      1.0000 0.66760  0.90320  0.27900  Biso   1.000  H
  H45      1.0000 0.19010  0.28940  0.30660  Biso   1.000  H
  H46      1.0000 0.96260  0.82000  0.27770  Biso   1.000  H
  H47      1.0000 0.42380  0.86960  0.27410  Biso   1.000  H
  H48      1.0000 0.90360  0.35660  0.21160  Biso   1.000  H
  H49      1.0000 0.03360  0.34560  0.27560  Biso   1.000  H
  H50      1.0000 0.27090  0.54890  0.38370  Biso   1.000  H
  H51      1.0000 0.93870  0.61650  0.23430  Biso   1.000  H
  H52      1.0000 0.08500  0.77340  0.38920  Biso   1.000  H
  H53      1.0000 0.27800  0.75830  0.51300  Biso   1.000  H
  H54      1.0000 0.25150  0.52890  0.30670  Biso   1.000  H
  H55      1.0000 0.99640  0.67960  0.31920  Biso   1.000  H
  H56      1.0000 0.19050  0.46000  0.22220  Biso   1.000  H
  C1       1.0000 0.71630  0.21590  0.91116  Biso   1.000  C
  C2       1.0000 0.72900  0.31580  0.85175  Biso   1.000  C
  C3       1.0000 0.96080  0.85520  0.64799  Biso   1.000  C
  C4       1.0000 0.60500  0.16710  0.83068  Biso   1.000  C
  C5       1.0000 0.11610  0.19080  0.79135  Biso   1.000  C
  C6       1.0000 0.58610  0.06140  0.89077  Biso   1.000  C
  C7       1.0000 0.18060  0.13430  0.71273  Biso   1.000  C
  C8       1.0000 0.79240  0.79650  0.59470  Biso   1.000  C
  C9       1.0000 0.16520  0.11550  0.65697  Biso   1.000  C
  C10      1.0000 0.52950  0.22080  0.68180  Biso   1.000  C
  C11      1.0000 0.76070  0.74510  0.62818  Biso   1.000  C
  C12      1.0000 0.59520  0.37290  0.76850  Biso   1.000  C
  C13      1.0000 0.24820  0.22960  0.97698  Biso   1.000  C
  C14      1.0000 0.63790  0.14890  0.87728  Biso   1.000  C
  C15      1.0000 0.60480  0.27340  0.76952  Biso   1.000  C
  C16      1.0000 0.00910  0.79900  0.72683  Biso   1.000  C
  C17      1.0000 0.29280  0.14190  0.79036  Biso   1.000  C
  C18      1.0000 0.30120  0.15630  0.94939  Biso   1.000  C
  C19      1.0000 0.93130  0.80230  0.68188  Biso   1.000  C
  C20      1.0000 0.76400  0.29880  0.89881  Biso   1.000  C
  C21      1.0000 0.55380  0.39560  0.72490  Biso   1.000  C
  C22      1.0000 0.08020  0.88290  0.75300  Biso   1.000  C
  C23      1.0000 0.17750  0.27310  0.90163  Biso   1.000  C
  C24      1.0000 0.52100  0.32050  0.68062  Biso   1.000  C
  C25      1.0000 0.64830  0.25100  0.81760  Biso   1.000  C
  C26      1.0000 0.15870  0.87590  0.79105  Biso   1.000  C
  C27      1.0000 0.22730  0.19690  0.87297  Biso   1.000  C
  C28      1.0000 0.28970  0.13830  0.89732  Biso   1.000  C
  C29      1.0000 0.89190  0.85080  0.60408  Biso   1.000  C
  C30      1.0000 0.27790  0.12040  0.73860  Biso   1.000  C
  C31      1.0000 0.83060  0.74680  0.67143  Biso   1.000  C
  C32      1.0000 0.08360  0.81270  0.97690  Biso   1.000  C
  C33      1.0000 0.16750  0.78470  0.80373  Biso   1.000  C
  C34      1.0000 0.13920  0.98850  0.02110  Biso   1.000  C
  C35      1.0000 0.10180  0.16980  0.73935  Biso   1.000  C
  C36      1.0000 0.57100  0.19700  0.72580  Biso   1.000  C
  C37      1.0000 0.21230  0.17690  0.81755  Biso   1.000  C
  C38      1.0000 0.12270  0.92800  0.92660  Biso   1.000  C
  C39      1.0000 0.25920  0.77350  0.84151  Biso   1.000  C
  C40      1.0000 0.09370  0.70340  0.77920  Biso   1.000  C
  C41      1.0000 0.01510  0.71000  0.74080  Biso   1.000  C
  C42      1.0000 0.84860  0.37150  0.93638  Biso   1.000  C
  C43      1.0000 0.92970  0.90050  0.56519  Biso   1.000  C
  C44      1.0000 0.36810  0.09660  0.97673  Biso   1.000  C
  C45      1.0000 0.97960  0.50690  0.83578  Biso   1.000  C
  C46      1.0000 0.75390  0.39350  0.59849  Biso   1.000  C
  C47      1.0000 0.94170  0.46690  0.78065  Biso   1.000  C
  C48      1.0000 0.65270  0.68400  0.61726  Biso   1.000  C
  C49      1.0000 0.12590  0.36380  0.98332  Biso   1.000  C
  C50      1.0000 0.99840  0.40210  0.75122  Biso   1.000  C
  C51      1.0000 0.82310  0.21890  0.54453  Biso   1.000  C
  C52      1.0000 0.71590  0.35560  0.54764  Biso   1.000  C
  C53      1.0000 0.86400  0.25850  0.59532  Biso   1.000  C
  C54      1.0000 0.48020  0.34810  0.63349  Biso   1.000  C
  C55      1.0000 0.85680  0.12440  0.51474  Biso   1.000  C
  C56      1.0000 0.82910  0.34590  0.62328  Biso   1.000  C
  C57      1.0000 0.74920  0.26780  0.52079  Biso   1.000  C
  C58      1.0000 0.81230  0.45400  0.70758  Biso   1.000  C
  C59      1.0000 0.18670  0.28770  0.95339  Biso   1.000  C
  C60      1.0000 0.96350  0.36360  0.70014  Biso   1.000  C
  C61      1.0000 0.84800  0.49470  0.75868  Biso   1.000  C
  C62      1.0000 0.86910  0.38930  0.67782  Biso   1.000  C
  C63      1.0000 0.64230  0.41260  0.52144  Biso   1.000  C
  C64      1.0000 0.43620  0.74590  0.68280  Biso   1.000  C
  C65      1.0000 0.28860  0.84300  0.66700  Biso   1.000  C
  C66      1.0000 0.42620  0.89970  0.74660  Biso   1.000  C
  C67      1.0000 0.28370  0.78410  0.08884  Biso   1.000  C
  C68      1.0000 0.27100  0.68420  0.14825  Biso   1.000  C
  C69      1.0000 0.03920  0.14480  0.35201  Biso   1.000  C
  C70      1.0000 0.39500  0.83290  0.16932  Biso   1.000  C
  C71      1.0000 0.88390  0.80920  0.20865  Biso   1.000  C
  C72      1.0000 0.41390  0.93860  0.10923  Biso   1.000  C
  C73      1.0000 0.81940  0.86570  0.28727  Biso   1.000  C
  C74      1.0000 0.20760  0.20350  0.40530  Biso   1.000  C
  C75      1.0000 0.83480  0.88450  0.34303  Biso   1.000  C
  C76      1.0000 0.47050  0.77920  0.31820  Biso   1.000  C
  C77      1.0000 0.23930  0.25490  0.37182  Biso   1.000  C
  C78      1.0000 0.40480  0.62710  0.23150  Biso   1.000  C
  C79      1.0000 0.75180  0.77040  0.02302  Biso   1.000  C
  C80      1.0000 0.36210  0.85110  0.12272  Biso   1.000  C
  C81      1.0000 0.39520  0.72660  0.23048  Biso   1.000  C
  C82      1.0000 0.99090  0.20100  0.27317  Biso   1.000  C
  C83      1.0000 0.70720  0.85810  0.20964  Biso   1.000  C
  C84      1.0000 0.69880  0.84370  0.05061  Biso   1.000  C
  C85      1.0000 0.06870  0.19770  0.31812  Biso   1.000  C
  C86      1.0000 0.23600  0.70120  0.10119  Biso   1.000  C
  C87      1.0000 0.44620  0.60440  0.27510  Biso   1.000  C
  C88      1.0000 0.91980  0.11710  0.24700  Biso   1.000  C
  C89      1.0000 0.82250  0.72690  0.09837  Biso   1.000  C
  C90      1.0000 0.47900  0.67950  0.31938  Biso   1.000  C
  C91      1.0000 0.35170  0.74900  0.18240  Biso   1.000  C
  C92      1.0000 0.84130  0.12410  0.20895  Biso   1.000  C
  C93      1.0000 0.77270  0.80310  0.12703  Biso   1.000  C
  C94      1.0000 0.71030  0.86170  0.10268  Biso   1.000  C
  C95      1.0000 0.10810  0.14920  0.39592  Biso   1.000  C
  C96      1.0000 0.72210  0.87960  0.26140  Biso   1.000  C
  C97      1.0000 0.16940  0.25320  0.32857  Biso   1.000  C
  C98      1.0000 0.91640  0.18730  0.02310  Biso   1.000  C
  C99      1.0000 0.83250  0.21530  0.19627  Biso   1.000  C
  C100     1.0000 0.86080  0.01150  0.97890  Biso   1.000  C
  C101     1.0000 0.89820  0.83020  0.26065  Biso   1.000  C
  C102     1.0000 0.42900  0.80300  0.27420  Biso   1.000  C
  C103     1.0000 0.78770  0.82310  0.18245  Biso   1.000  C
  C104     1.0000 0.87730  0.07200  0.07340  Biso   1.000  C
  C105     1.0000 0.74080  0.22650  0.15849  Biso   1.000  C
  C106     1.0000 0.90630  0.29660  0.22080  Biso   1.000  C
  C107     1.0000 0.98490  0.29000  0.25920  Biso   1.000  C
  C108     1.0000 0.15140  0.62850  0.06362  Biso   1.000  C
  C109     1.0000 0.07030  0.09950  0.43481  Biso   1.000  C
  C110     1.0000 0.63190  0.90340  0.02327  Biso   1.000  C
  C111     1.0000 0.02040  0.49310  0.16422  Biso   1.000  C
  C112     1.0000 0.24610  0.60650  0.40151  Biso   1.000  C
  C113     1.0000 0.05830  0.53310  0.21935  Biso   1.000  C
  C114     1.0000 0.34730  0.31600  0.38274  Biso   1.000  C
  C115     1.0000 0.87410  0.63620  0.01668  Biso   1.000  C
  C116     1.0000 0.00160  0.59790  0.24878  Biso   1.000  C
  C117     1.0000 0.17690  0.78110  0.45547  Biso   1.000  C
  C118     1.0000 0.28410  0.64440  0.45236  Biso   1.000  C
  C119     1.0000 0.13600  0.74150  0.40468  Biso   1.000  C
  C120     1.0000 0.51980  0.65190  0.36651  Biso   1.000  C
  C121     1.0000 0.14320  0.87560  0.48526  Biso   1.000  C
  C122     1.0000 0.17090  0.65410  0.37672  Biso   1.000  C
  C123     1.0000 0.25080  0.73220  0.47921  Biso   1.000  C
  C124     1.0000 0.18770  0.54600  0.29242  Biso   1.000  C
  C125     1.0000 0.81330  0.71230  0.04661  Biso   1.000  C
  C126     1.0000 0.03650  0.63640  0.29986  Biso   1.000  C
  C127     1.0000 0.15200  0.50530  0.24132  Biso   1.000  C
  C128     1.0000 0.13090  0.61070  0.32218  Biso   1.000  C
  C129     1.0000 0.35770  0.58740  0.47856  Biso   1.000  C
  C130     1.0000 0.56380  0.25410  0.31720  Biso   1.000  C
  C131     1.0000 0.71140  0.15700  0.33300  Biso   1.000  C
  C132     1.0000 0.57380  0.10030  0.25340  Biso   1.000  C
  N1       1.0000 0.11010  0.90700  0.97514  Biso   1.000  N
  N2       1.0000 0.38400  0.82360  0.69830  Biso   1.000  N
  N3       1.0000 0.88990  0.09300  0.02486  Biso   1.000  N
  N4       1.0000 0.61600  0.17640  0.30170  Biso   1.000  N
  O1       1.0000 0.51460  0.00120  0.85909  Biso   1.000  O
  O2       1.0000 0.06690  0.73920  0.93966  Biso   1.000  O
  O3       1.0000 0.61470  0.04700  0.93329  Biso   1.000  O
  O4       1.0000 0.22490  0.06170  0.63196  Biso   1.000  O
  O5       1.0000 0.08990  0.15360  0.63638  Biso   1.000  O
  O6       1.0000 0.10340  0.34940  0.02441  Biso   1.000  O
  O7       1.0000 0.02120  0.95070  0.57742  Biso   1.000  O
  O8       1.0000 0.58820  0.68670  0.57930  Biso   1.000  O
  O9       1.0000 0.60340  0.48370  0.54742  Biso   1.000  O
  O10      1.0000 0.27710  0.50780  0.59137  Biso   1.000  O
  O11      1.0000 0.94030  0.58060  0.86086  Biso   1.000  O
  O12      1.0000 0.21960  0.59240  0.92658  Biso   1.000  O
  O13      1.0000 0.88920  0.44420  0.92219  Biso   1.000  O
  O14      1.0000 0.79320  0.07460  0.47632  Biso   1.000  O
  O15      1.0000 0.87490  0.35340  0.97773  Biso   1.000  O
  O16      1.0000 0.94470  0.09430  0.52823  Biso   1.000  O
  O17      1.0000 0.09900  0.43550  0.96663  Biso   1.000  O
  O18      1.0000 0.38410  0.83110  0.96992  Biso   1.000  O
  O19      1.0000 0.86700  0.89110  0.52597  Biso   1.000  O
  O20      1.0000 0.48310  0.44120  0.63620  Biso   1.000  O
  O21      1.0000 0.62530  0.38560  0.47419  Biso   1.000  O
  O22      1.0000 0.39230  0.38560  0.52652  Biso   1.000  O
  O23      1.0000 0.40260  0.02010  0.95176  Biso   1.000  O
  O24      1.0000 0.32990  0.84880  0.85854  Biso   1.000  O
  O25      1.0000 0.62900  0.62910  0.64518  Biso   1.000  O
  O26      1.0000 0.38570  0.12830  0.02373  Biso   1.000  O
  O27      1.0000 0.47120  0.71210  0.88956  Biso   1.000  O
  O28      1.0000 0.40900  0.68150  0.64245  Biso   1.000  O
  O29      1.0000 0.26300  0.69090  0.85225  Biso   1.000  O
  O30      1.0000 0.64370  0.84500  0.87352  Biso   1.000  O
  O31      1.0000 0.14720  0.25210  0.56644  Biso   1.000  O
  O32      1.0000 0.44730  0.28000  0.59431  Biso   1.000  O
  O33      1.0000 0.31550  0.11140  0.55380  Biso   1.000  O
  O34      1.0000 0.05070  0.46530  0.85658  Biso   1.000  O
  O35      1.0000 0.48540  0.99880  0.14091  Biso   1.000  O
  O36      1.0000 0.93310  0.26080  0.06034  Biso   1.000  O
  O37      1.0000 0.38530  0.95300  0.06671  Biso   1.000  O
  O38      1.0000 0.77510  0.93830  0.36804  Biso   1.000  O
  O39      1.0000 0.91010  0.84640  0.36362  Biso   1.000  O
  O40      1.0000 0.89660  0.65060  0.97559  Biso   1.000  O
  O41      1.0000 0.97880  0.04930  0.42258  Biso   1.000  O
  O42      1.0000 0.41180  0.31330  0.42070  Biso   1.000  O
  O43      1.0000 0.39660  0.51630  0.45258  Biso   1.000  O
  O44      1.0000 0.72290  0.49220  0.40863  Biso   1.000  O
  O45      1.0000 0.05970  0.41940  0.13914  Biso   1.000  O
  O46      1.0000 0.78040  0.40760  0.07342  Biso   1.000  O
  O47      1.0000 0.11080  0.55580  0.07781  Biso   1.000  O
  O48      1.0000 0.20680  0.92540  0.52368  Biso   1.000  O
  O49      1.0000 0.12510  0.64660  0.02227  Biso   1.000  O
  O50      1.0000 0.05530  0.90570  0.47177  Biso   1.000  O
  O51      1.0000 0.90100  0.56450  0.03337  Biso   1.000  O
  O52      1.0000 0.61590  0.16890  0.03008  Biso   1.000  O
  O53      1.0000 0.13300  0.10890  0.47403  Biso   1.000  O
  O54      1.0000 0.51690  0.55880  0.36380  Biso   1.000  O
  O55      1.0000 0.37470  0.61440  0.52581  Biso   1.000  O
  O56      1.0000 0.60770  0.61440  0.47348  Biso   1.000  O
  O57      1.0000 0.59740  0.97990  0.04824  Biso   1.000  O
  O58      1.0000 0.67010  0.15120  0.14146  Biso   1.000  O
  O59      1.0000 0.37100  0.37090  0.35482  Biso   1.000  O
  O60      1.0000 0.61430  0.87170  0.97627  Biso   1.000  O
  O61      1.0000 0.52880  0.28790  0.11044  Biso   1.000  O
  O62      1.0000 0.59100  0.31850  0.35755  Biso   1.000  O
  O63      1.0000 0.73700  0.30910  0.14775  Biso   1.000  O
  O64      1.0000 0.35630  0.15500  0.12648  Biso   1.000  O
  O65      1.0000 0.85280  0.74790  0.43356  Biso   1.000  O
  O66      1.0000 0.55270  0.72000  0.40569  Biso   1.000  O
  O67      1.0000 0.68450  0.88860  0.44620  Biso   1.000  O
  O68      1.0000 0.94930  0.53470  0.14342  Biso   1.000  O
