data_image0
_cell_length_a       11.2072
_cell_length_b       22.3034
_cell_length_c       22.3034
_cell_angle_alpha    86.3809
_cell_angle_beta     75.4488
_cell_angle_gamma    75.4488

_symmetry_space_group_name_H-M    P 1
_symmetry_int_tables_number       1

loop_
  _symmetry_equiv_pos_as_xyz
  'x, y, z'

loop_
  _atom_site_label
  _atom_site_occupancy
  _atom_site_fract_x
  _atom_site_fract_y
  _atom_site_fract_z
  _atom_site_thermal_displace_type
  _atom_site_B_iso_or_equiv
  _atom_site_type_symbol
  Co1      1.0000 0.03606  0.40346  0.86828  Biso   1.000  Co
  Co2      1.0000 0.25532  0.39862  0.72996  Biso   1.000  Co
  Co3      1.0000 0.80780  0.09654  0.63172  Biso   1.000  Co
  Co4      1.0000 0.88390  0.10138  0.77004  Biso   1.000  Co
  Co5      1.0000 0.90434  0.13172  0.90346  Biso   1.000  Co
  Co6      1.0000 0.98528  0.27004  0.89862  Biso   1.000  Co
  Co7      1.0000 0.43952  0.36828  0.59654  Biso   1.000  Co
  Co8      1.0000 0.65394  0.22996  0.60138  Biso   1.000  Co
  Co9      1.0000 0.96394  0.59654  0.13172  Biso   1.000  Co
  Co10     1.0000 0.74468  0.60138  0.27004  Biso   1.000  Co
  Co11     1.0000 0.19220  0.90346  0.36828  Biso   1.000  Co
  Co12     1.0000 0.11610  0.89862  0.22996  Biso   1.000  Co
  Co13     1.0000 0.09566  0.86828  0.09654  Biso   1.000  Co
  Co14     1.0000 0.01472  0.72996  0.10138  Biso   1.000  Co
  Co15     1.0000 0.56048  0.63172  0.40346  Biso   1.000  Co
  Co16     1.0000 0.34606  0.77004  0.39862  Biso   1.000  Co
  H1       1.0000 0.39590  0.54730  0.79510  Biso   1.000  H
  H2       1.0000 0.43120  0.62840  0.84200  Biso   1.000  H
  H3       1.0000 0.30450  0.66520  0.93720  Biso   1.000  H
  H4       1.0000 0.12060  0.53140  0.94520  Biso   1.000  H
  H5       1.0000 0.28240  0.21470  0.92730  Biso   1.000  H
  H6       1.0000 0.43430  0.12290  0.92910  Biso   1.000  H
  H7       1.0000 0.58990  0.08680  0.84040  Biso   1.000  H
  H8       1.0000 0.43350  0.23130  0.74590  Biso   1.000  H
  H9       1.0000 0.83110  0.48340  0.88100  Biso   1.000  H
  H10      1.0000 0.91320  0.51200  0.89640  Biso   1.000  H
  H11      1.0000 0.78470  0.55330  0.75510  Biso   1.000  H
  H12      1.0000 0.79920  0.48540  0.78100  Biso   1.000  H
  H13      1.0000 0.71450  0.54150  0.82330  Biso   1.000  H
  H14      1.0000 0.91970  0.61620  0.78100  Biso   1.000  H
  H15      1.0000 0.85370  0.61580  0.85180  Biso   1.000  H
  H16      1.0000 0.00070  0.58840  0.82860  Biso   1.000  H
  H17      1.0000 0.23830  0.95270  0.70490  Biso   1.000  H
  H18      1.0000 0.40160  0.87160  0.65800  Biso   1.000  H
  H19      1.0000 0.40690  0.83480  0.56280  Biso   1.000  H
  H20      1.0000 0.09720  0.96860  0.55480  Biso   1.000  H
  H21      1.0000 0.92440  0.28530  0.57270  Biso   1.000  H
  H22      1.0000 0.98630  0.37710  0.57090  Biso   1.000  H
  H23      1.0000 0.01710  0.41320  0.65960  Biso   1.000  H
  H24      1.0000 0.91070  0.26870  0.75410  Biso   1.000  H
  H25      1.0000 0.69550  0.01660  0.61900  Biso   1.000  H
  H26      1.0000 0.82160  0.98800  0.60360  Biso   1.000  H
  H27      1.0000 0.59310  0.94670  0.74490  Biso   1.000  H
  H28      1.0000 0.56560  0.01460  0.71900  Biso   1.000  H
  H29      1.0000 0.57930  0.95850  0.67670  Biso   1.000  H
  H30      1.0000 0.81690  0.88380  0.71900  Biso   1.000  H
  H31      1.0000 0.82130  0.88420  0.64820  Biso   1.000  H
  H32      1.0000 0.91770  0.91160  0.67140  Biso   1.000  H
  H33      1.0000 0.19100  0.20490  0.04730  Biso   1.000  H
  H34      1.0000 0.27320  0.15800  0.12840  Biso   1.000  H
  H35      1.0000 0.24170  0.06280  0.16520  Biso   1.000  H
  H36      1.0000 0.06580  0.05480  0.03140  Biso   1.000  H
  H37      1.0000 0.20970  0.07270  0.71470  Biso   1.000  H
  H38      1.0000 0.36340  0.07090  0.62290  Biso   1.000  H
  H39      1.0000 0.43030  0.15960  0.58680  Biso   1.000  H
  H40      1.0000 0.17940  0.25410  0.73130  Biso   1.000  H
  H41      1.0000 0.71210  0.11900  0.98340  Biso   1.000  H
  H42      1.0000 0.80960  0.10360  0.01200  Biso   1.000  H
  H43      1.0000 0.53980  0.24490  0.05330  Biso   1.000  H
  H44      1.0000 0.58020  0.21900  0.98540  Biso   1.000  H
  H45      1.0000 0.53780  0.17670  0.04150  Biso   1.000  H
  H46      1.0000 0.70070  0.21900  0.11620  Biso   1.000  H
  H47      1.0000 0.70550  0.14820  0.11580  Biso   1.000  H
  H48      1.0000 0.82930  0.17140  0.08840  Biso   1.000  H
  H49      1.0000 0.94320  0.29510  0.45270  Biso   1.000  H
  H50      1.0000 0.05960  0.34200  0.37160  Biso   1.000  H
  H51      1.0000 0.96970  0.43720  0.33480  Biso   1.000  H
  H52      1.0000 0.65200  0.44520  0.46860  Biso   1.000  H
  H53      1.0000 0.49710  0.42730  0.78530  Biso   1.000  H
  H54      1.0000 0.55720  0.42910  0.87710  Biso   1.000  H
  H55      1.0000 0.67670  0.34040  0.91320  Biso   1.000  H
  H56      1.0000 0.66480  0.24590  0.76870  Biso   1.000  H
  H57      1.0000 0.31450  0.38100  0.51660  Biso   1.000  H
  H58      1.0000 0.42520  0.39640  0.48800  Biso   1.000  H
  H59      1.0000 0.33800  0.25510  0.44670  Biso   1.000  H
  H60      1.0000 0.28460  0.28100  0.51460  Biso   1.000  H
  H61      1.0000 0.25600  0.32330  0.45850  Biso   1.000  H
  H62      1.0000 0.53590  0.28100  0.38380  Biso   1.000  H
  H63      1.0000 0.46950  0.35180  0.38420  Biso   1.000  H
  H64      1.0000 0.58910  0.32860  0.41160  Biso   1.000  H
  H65      1.0000 0.60410  0.45270  0.20490  Biso   1.000  H
  H66      1.0000 0.56880  0.37160  0.15800  Biso   1.000  H
  H67      1.0000 0.69550  0.33480  0.06280  Biso   1.000  H
  H68      1.0000 0.87940  0.46860  0.05480  Biso   1.000  H
  H69      1.0000 0.71760  0.78530  0.07270  Biso   1.000  H
  H70      1.0000 0.56570  0.87710  0.07090  Biso   1.000  H
  H71      1.0000 0.41010  0.91320  0.15960  Biso   1.000  H
  H72      1.0000 0.56650  0.76870  0.25410  Biso   1.000  H
  H73      1.0000 0.16890  0.51660  0.11900  Biso   1.000  H
  H74      1.0000 0.08680  0.48800  0.10360  Biso   1.000  H
  H75      1.0000 0.21530  0.44670  0.24490  Biso   1.000  H
  H76      1.0000 0.20080  0.51460  0.21900  Biso   1.000  H
  H77      1.0000 0.28550  0.45850  0.17670  Biso   1.000  H
  H78      1.0000 0.08030  0.38380  0.21900  Biso   1.000  H
  H79      1.0000 0.14630  0.38420  0.14820  Biso   1.000  H
  H80      1.0000 0.99930  0.41160  0.17140  Biso   1.000  H
  H81      1.0000 0.76170  0.04730  0.29510  Biso   1.000  H
  H82      1.0000 0.59840  0.12840  0.34200  Biso   1.000  H
  H83      1.0000 0.59310  0.16520  0.43720  Biso   1.000  H
  H84      1.0000 0.90280  0.03140  0.44520  Biso   1.000  H
  H85      1.0000 0.07560  0.71470  0.42730  Biso   1.000  H
  H86      1.0000 0.01370  0.62290  0.42910  Biso   1.000  H
  H87      1.0000 0.98290  0.58680  0.34040  Biso   1.000  H
  H88      1.0000 0.08930  0.73130  0.24590  Biso   1.000  H
  H89      1.0000 0.30450  0.98340  0.38100  Biso   1.000  H
  H90      1.0000 0.17840  0.01200  0.39640  Biso   1.000  H
  H91      1.0000 0.40690  0.05330  0.25510  Biso   1.000  H
  H92      1.0000 0.43440  0.98540  0.28100  Biso   1.000  H
  H93      1.0000 0.42070  0.04150  0.32330  Biso   1.000  H
  H94      1.0000 0.18310  0.11620  0.28100  Biso   1.000  H
  H95      1.0000 0.17870  0.11580  0.35180  Biso   1.000  H
  H96      1.0000 0.08230  0.08840  0.32860  Biso   1.000  H
  H97      1.0000 0.80900  0.79510  0.95270  Biso   1.000  H
  H98      1.0000 0.72680  0.84200  0.87160  Biso   1.000  H
  H99      1.0000 0.75830  0.93720  0.83480  Biso   1.000  H
  H100     1.0000 0.93420  0.94520  0.96860  Biso   1.000  H
  H101     1.0000 0.79030  0.92730  0.28530  Biso   1.000  H
  H102     1.0000 0.63660  0.92910  0.37710  Biso   1.000  H
  H103     1.0000 0.56970  0.84040  0.41320  Biso   1.000  H
  H104     1.0000 0.82060  0.74590  0.26870  Biso   1.000  H
  H105     1.0000 0.28790  0.88100  0.01660  Biso   1.000  H
  H106     1.0000 0.19040  0.89640  0.98800  Biso   1.000  H
  H107     1.0000 0.46020  0.75510  0.94670  Biso   1.000  H
  H108     1.0000 0.41980  0.78100  0.01460  Biso   1.000  H
  H109     1.0000 0.46220  0.82330  0.95850  Biso   1.000  H
  H110     1.0000 0.29930  0.78100  0.88380  Biso   1.000  H
  H111     1.0000 0.29450  0.85180  0.88420  Biso   1.000  H
  H112     1.0000 0.17070  0.82860  0.91160  Biso   1.000  H
  H113     1.0000 0.05680  0.70490  0.54730  Biso   1.000  H
  H114     1.0000 0.94040  0.65800  0.62840  Biso   1.000  H
  H115     1.0000 0.03030  0.56280  0.66520  Biso   1.000  H
  H116     1.0000 0.34800  0.55480  0.53140  Biso   1.000  H
  H117     1.0000 0.50290  0.57270  0.21470  Biso   1.000  H
  H118     1.0000 0.44280  0.57090  0.12290  Biso   1.000  H
  H119     1.0000 0.32330  0.65960  0.08680  Biso   1.000  H
  H120     1.0000 0.33520  0.75410  0.23130  Biso   1.000  H
  H121     1.0000 0.68550  0.61900  0.48340  Biso   1.000  H
  H122     1.0000 0.57480  0.60360  0.51200  Biso   1.000  H
  H123     1.0000 0.66200  0.74490  0.55330  Biso   1.000  H
  H124     1.0000 0.71540  0.71900  0.48540  Biso   1.000  H
  H125     1.0000 0.74400  0.67670  0.54150  Biso   1.000  H
  H126     1.0000 0.46410  0.71900  0.61620  Biso   1.000  H
  H127     1.0000 0.53050  0.64820  0.61580  Biso   1.000  H
  H128     1.0000 0.41090  0.67140  0.58840  Biso   1.000  H
  C1       1.0000 0.22834  0.47773  0.83779  Biso   1.000  C
  C2       1.0000 0.25397  0.53130  0.86556  Biso   1.000  C
  C3       1.0000 0.34710  0.56056  0.83444  Biso   1.000  C
  C4       1.0000 0.36680  0.60960  0.86220  Biso   1.000  C
  C5       1.0000 0.29222  0.63115  0.91961  Biso   1.000  C
  C6       1.0000 0.19932  0.60200  0.95076  Biso   1.000  C
  C7       1.0000 0.18168  0.55175  0.92389  Biso   1.000  C
  C8       1.0000 0.11642  0.62421  0.01335  Biso   1.000  C
  C9       1.0000 0.25450  0.29480  0.83260  Biso   1.000  C
  C10      1.0000 0.34392  0.23315  0.83641  Biso   1.000  C
  C11      1.0000 0.34356  0.20009  0.89139  Biso   1.000  C
  C12      1.0000 0.43505  0.14514  0.89236  Biso   1.000  C
  C13      1.0000 0.52760  0.12293  0.83907  Biso   1.000  C
  C14      1.0000 0.52616  0.15526  0.78382  Biso   1.000  C
  C15      1.0000 0.43440  0.20985  0.78295  Biso   1.000  C
  C16      1.0000 0.62623  0.13518  0.72616  Biso   1.000  C
  C17      1.0000 0.79020  0.52780  0.79120  Biso   1.000  C
  C18      1.0000 0.89820  0.53270  0.81210  Biso   1.000  C
  C19      1.0000 0.92000  0.59350  0.81890  Biso   1.000  C
  C20      1.0000 0.04386  0.02227  0.66221  Biso   1.000  C
  C21      1.0000 0.15083  0.96870  0.63444  Biso   1.000  C
  C22      1.0000 0.24210  0.93944  0.66556  Biso   1.000  C
  C23      1.0000 0.33860  0.89040  0.63780  Biso   1.000  C
  C24      1.0000 0.34298  0.86885  0.58039  Biso   1.000  C
  C25      1.0000 0.25208  0.89800  0.54924  Biso   1.000  C
  C26      1.0000 0.15732  0.94825  0.57611  Biso   1.000  C
  C27      1.0000 0.25398  0.87579  0.48665  Biso   1.000  C
  C28      1.0000 0.88190  0.20520  0.66740  Biso   1.000  C
  C29      1.0000 0.91348  0.26685  0.66359  Biso   1.000  C
  C30      1.0000 0.93504  0.29991  0.60861  Biso   1.000  C
  C31      1.0000 0.97255  0.35486  0.60764  Biso   1.000  C
  C32      1.0000 0.98960  0.37707  0.66093  Biso   1.000  C
  C33      1.0000 0.96524  0.34474  0.71618  Biso   1.000  C
  C34      1.0000 0.92720  0.29015  0.71705  Biso   1.000  C
  C35      1.0000 0.98757  0.36482  0.77384  Biso   1.000  C
  C36      1.0000 0.60920  0.97220  0.70880  Biso   1.000  C
  C37      1.0000 0.74300  0.96730  0.68790  Biso   1.000  C
  C38      1.0000 0.83240  0.90650  0.68110  Biso   1.000  C
  C39      1.0000 0.06613  0.16221  0.97773  Biso   1.000  C
  C40      1.0000 0.11953  0.13444  0.03130  Biso   1.000  C
  C41      1.0000 0.18154  0.16556  0.06056  Biso   1.000  C
  C42      1.0000 0.22900  0.13780  0.10960  Biso   1.000  C
  C43      1.0000 0.21183  0.08039  0.13115  Biso   1.000  C
  C44      1.0000 0.15008  0.04924  0.10200  Biso   1.000  C
  C45      1.0000 0.10557  0.07611  0.05175  Biso   1.000  C
  C46      1.0000 0.12977  0.98665  0.12421  Biso   1.000  C
  C47      1.0000 0.08710  0.16740  0.79480  Biso   1.000  C
  C48      1.0000 0.18033  0.16359  0.73315  Biso   1.000  C
  C49      1.0000 0.23495  0.10861  0.70009  Biso   1.000  C
  C50      1.0000 0.32741  0.10764  0.64514  Biso   1.000  C
  C51      1.0000 0.36667  0.16093  0.62293  Biso   1.000  C
  C52      1.0000 0.30998  0.21618  0.65526  Biso   1.000  C
  C53      1.0000 0.21735  0.21705  0.70985  Biso   1.000  C
  C54      1.0000 0.35239  0.27384  0.63518  Biso   1.000  C
  C55      1.0000 0.58140  0.20880  0.02780  Biso   1.000  C
  C56      1.0000 0.71030  0.18790  0.03270  Biso   1.000  C
  C57      1.0000 0.73890  0.18110  0.09350  Biso   1.000  C
  C58      1.0000 0.70607  0.33779  0.52227  Biso   1.000  C
  C59      1.0000 0.78527  0.36556  0.46870  Biso   1.000  C
  C60      1.0000 0.90766  0.33444  0.43944  Biso   1.000  C
  C61      1.0000 0.97640  0.36220  0.39040  Biso   1.000  C
  C62      1.0000 0.92337  0.41961  0.36885  Biso   1.000  C
  C63      1.0000 0.80132  0.45076  0.39800  Biso   1.000  C
  C64      1.0000 0.73343  0.42389  0.44825  Biso   1.000  C
  C65      1.0000 0.74063  0.51335  0.37579  Biso   1.000  C
  C66      1.0000 0.54930  0.33260  0.70520  Biso   1.000  C
  C67      1.0000 0.57707  0.33641  0.76685  Biso   1.000  C
  C68      1.0000 0.54365  0.39139  0.79991  Biso   1.000  C
  C69      1.0000 0.58019  0.39236  0.85486  Biso   1.000  C
  C70      1.0000 0.65053  0.33907  0.87707  Biso   1.000  C
  C71      1.0000 0.68142  0.28382  0.84474  Biso   1.000  C
  C72      1.0000 0.64425  0.28295  0.79015  Biso   1.000  C
  C73      1.0000 0.76141  0.22616  0.86482  Biso   1.000  C
  C74      1.0000 0.31800  0.29120  0.47220  Biso   1.000  C
  C75      1.0000 0.43090  0.31210  0.46730  Biso   1.000  C
  C76      1.0000 0.51350  0.31890  0.40650  Biso   1.000  C
  C77      1.0000 0.77166  0.52227  0.16221  Biso   1.000  C
  C78      1.0000 0.74603  0.46870  0.13444  Biso   1.000  C
  C79      1.0000 0.65290  0.43944  0.16556  Biso   1.000  C
  C80      1.0000 0.63320  0.39040  0.13780  Biso   1.000  C
  C81      1.0000 0.70778  0.36885  0.08039  Biso   1.000  C
  C82      1.0000 0.80068  0.39800  0.04924  Biso   1.000  C
  C83      1.0000 0.81832  0.44825  0.07611  Biso   1.000  C
  C84      1.0000 0.88358  0.37579  0.98665  Biso   1.000  C
  C85      1.0000 0.74550  0.70520  0.16740  Biso   1.000  C
  C86      1.0000 0.65608  0.76685  0.16359  Biso   1.000  C
  C87      1.0000 0.65644  0.79991  0.10861  Biso   1.000  C
  C88      1.0000 0.56495  0.85486  0.10764  Biso   1.000  C
  C89      1.0000 0.47240  0.87707  0.16093  Biso   1.000  C
  C90      1.0000 0.47384  0.84474  0.21618  Biso   1.000  C
  C91      1.0000 0.56560  0.79015  0.21705  Biso   1.000  C
  C92      1.0000 0.37377  0.86482  0.27384  Biso   1.000  C
  C93      1.0000 0.20980  0.47220  0.20880  Biso   1.000  C
  C94      1.0000 0.10180  0.46730  0.18790  Biso   1.000  C
  C95      1.0000 0.08000  0.40650  0.18110  Biso   1.000  C
  C96      1.0000 0.95614  0.97773  0.33779  Biso   1.000  C
  C97      1.0000 0.84917  0.03130  0.36556  Biso   1.000  C
  C98      1.0000 0.75790  0.06056  0.33444  Biso   1.000  C
  C99      1.0000 0.66140  0.10960  0.36220  Biso   1.000  C
  C100     1.0000 0.65702  0.13115  0.41961  Biso   1.000  C
  C101     1.0000 0.74792  0.10200  0.45076  Biso   1.000  C
  C102     1.0000 0.84268  0.05175  0.42389  Biso   1.000  C
  C103     1.0000 0.74602  0.12421  0.51335  Biso   1.000  C
  C104     1.0000 0.11810  0.79480  0.33260  Biso   1.000  C
  C105     1.0000 0.08652  0.73315  0.33641  Biso   1.000  C
  C106     1.0000 0.06496  0.70009  0.39139  Biso   1.000  C
  C107     1.0000 0.02745  0.64514  0.39236  Biso   1.000  C
  C108     1.0000 0.01040  0.62293  0.33907  Biso   1.000  C
  C109     1.0000 0.03476  0.65526  0.28382  Biso   1.000  C
  C110     1.0000 0.07280  0.70985  0.28295  Biso   1.000  C
  C111     1.0000 0.01243  0.63518  0.22616  Biso   1.000  C
  C112     1.0000 0.39080  0.02780  0.29120  Biso   1.000  C
  C113     1.0000 0.25700  0.03270  0.31210  Biso   1.000  C
  C114     1.0000 0.16760  0.09350  0.31890  Biso   1.000  C
  C115     1.0000 0.93387  0.83779  0.02227  Biso   1.000  C
  C116     1.0000 0.88047  0.86556  0.96870  Biso   1.000  C
  C117     1.0000 0.81846  0.83444  0.93944  Biso   1.000  C
  C118     1.0000 0.77100  0.86220  0.89040  Biso   1.000  C
  C119     1.0000 0.78817  0.91961  0.86885  Biso   1.000  C
  C120     1.0000 0.84992  0.95076  0.89800  Biso   1.000  C
  C121     1.0000 0.89443  0.92389  0.94825  Biso   1.000  C
  C122     1.0000 0.87023  0.01335  0.87579  Biso   1.000  C
  C123     1.0000 0.91290  0.83260  0.20520  Biso   1.000  C
  C124     1.0000 0.81967  0.83641  0.26685  Biso   1.000  C
  C125     1.0000 0.76505  0.89139  0.29991  Biso   1.000  C
  C126     1.0000 0.67259  0.89236  0.35486  Biso   1.000  C
  C127     1.0000 0.63333  0.83907  0.37707  Biso   1.000  C
  C128     1.0000 0.69002  0.78382  0.34474  Biso   1.000  C
  C129     1.0000 0.78265  0.78295  0.29015  Biso   1.000  C
  C130     1.0000 0.64761  0.72616  0.36482  Biso   1.000  C
  C131     1.0000 0.41860  0.79120  0.97220  Biso   1.000  C
  C132     1.0000 0.28970  0.81210  0.96730  Biso   1.000  C
  C133     1.0000 0.26110  0.81890  0.90650  Biso   1.000  C
  C134     1.0000 0.29393  0.66221  0.47773  Biso   1.000  C
  C135     1.0000 0.21473  0.63444  0.53130  Biso   1.000  C
  C136     1.0000 0.09234  0.66556  0.56056  Biso   1.000  C
  C137     1.0000 0.02360  0.63780  0.60960  Biso   1.000  C
  C138     1.0000 0.07663  0.58039  0.63115  Biso   1.000  C
  C139     1.0000 0.19868  0.54924  0.60200  Biso   1.000  C
  C140     1.0000 0.26657  0.57611  0.55175  Biso   1.000  C
  C141     1.0000 0.25937  0.48665  0.62421  Biso   1.000  C
  C142     1.0000 0.45070  0.66740  0.29480  Biso   1.000  C
  C143     1.0000 0.42293  0.66359  0.23315  Biso   1.000  C
  C144     1.0000 0.45635  0.60861  0.20009  Biso   1.000  C
  C145     1.0000 0.41981  0.60764  0.14514  Biso   1.000  C
  C146     1.0000 0.34947  0.66093  0.12293  Biso   1.000  C
  C147     1.0000 0.31858  0.71618  0.15526  Biso   1.000  C
  C148     1.0000 0.35575  0.71705  0.20985  Biso   1.000  C
  C149     1.0000 0.23859  0.77384  0.13518  Biso   1.000  C
  C150     1.0000 0.68200  0.70880  0.52780  Biso   1.000  C
  C151     1.0000 0.56910  0.68790  0.53270  Biso   1.000  C
  C152     1.0000 0.48650  0.68110  0.59350  Biso   1.000  C
  O1       1.0000 0.16900  0.44489  0.87551  Biso   1.000  O
  O2       1.0000 0.26759  0.46896  0.78066  Biso   1.000  O
  O3       1.0000 0.03422  0.59505  0.03871  Biso   1.000  O
  O4       1.0000 0.13485  0.66987  0.03643  Biso   1.000  O
  O5       1.0000 0.15076  0.31170  0.87398  Biso   1.000  O
  O6       1.0000 0.29075  0.32721  0.78709  Biso   1.000  O
  O7       1.0000 0.61046  0.15401  0.67387  Biso   1.000  O
  O8       1.0000 0.73122  0.09727  0.72969  Biso   1.000  O
  O9       1.0000 0.90447  0.49047  0.86839  Biso   1.000  O
  O10      1.0000 0.98940  0.05511  0.62449  Biso   1.000  O
  O11      1.0000 0.01721  0.03104  0.71934  Biso   1.000  O
  O12      1.0000 0.16798  0.90495  0.46129  Biso   1.000  O
  O13      1.0000 0.34115  0.83013  0.46357  Biso   1.000  O
  O14      1.0000 0.83644  0.18830  0.62602  Biso   1.000  O
  O15      1.0000 0.90505  0.17279  0.71291  Biso   1.000  O
  O16      1.0000 0.93834  0.34599  0.82613  Biso   1.000  O
  O17      1.0000 0.05818  0.40273  0.77031  Biso   1.000  O
  O18      1.0000 0.76333  0.00953  0.63161  Biso   1.000  O
  O19      1.0000 0.04451  0.12449  0.94489  Biso   1.000  O
  O20      1.0000 0.04825  0.21934  0.96896  Biso   1.000  O
  O21      1.0000 0.07293  0.96129  0.09505  Biso   1.000  O
  O22      1.0000 0.17128  0.96357  0.16987  Biso   1.000  O
  O23      1.0000 0.02474  0.12602  0.81170  Biso   1.000  O
  O24      1.0000 0.07784  0.21291  0.82721  Biso   1.000  O
  O25      1.0000 0.28433  0.32613  0.65401  Biso   1.000  O
  O26      1.0000 0.46091  0.27031  0.59727  Biso   1.000  O
  O27      1.0000 0.77286  0.13161  0.99047  Biso   1.000  O
  O28      1.0000 0.61389  0.37551  0.55511  Biso   1.000  O
  O29      1.0000 0.73655  0.28066  0.53104  Biso   1.000  O
  O30      1.0000 0.62927  0.53871  0.40495  Biso   1.000  O
  O31      1.0000 0.80472  0.53643  0.33013  Biso   1.000  O
  O32      1.0000 0.46246  0.37398  0.68830  Biso   1.000  O
  O33      1.0000 0.61796  0.28709  0.67279  Biso   1.000  O
  O34      1.0000 0.76447  0.17387  0.84599  Biso   1.000  O
  O35      1.0000 0.82849  0.22969  0.90273  Biso   1.000  O
  O36      1.0000 0.39494  0.36839  0.50953  Biso   1.000  O
  O37      1.0000 0.83100  0.55511  0.12449  Biso   1.000  O
  O38      1.0000 0.73241  0.53104  0.21934  Biso   1.000  O
  O39      1.0000 0.96578  0.40495  0.96129  Biso   1.000  O
  O40      1.0000 0.86515  0.33013  0.96357  Biso   1.000  O
  O41      1.0000 0.84924  0.68830  0.12602  Biso   1.000  O
  O42      1.0000 0.70925  0.67279  0.21291  Biso   1.000  O
  O43      1.0000 0.38954  0.84599  0.32613  Biso   1.000  O
  O44      1.0000 0.26878  0.90273  0.27031  Biso   1.000  O
  O45      1.0000 0.09553  0.50953  0.13161  Biso   1.000  O
  O46      1.0000 0.01060  0.94489  0.37551  Biso   1.000  O
  O47      1.0000 0.98279  0.96896  0.28066  Biso   1.000  O
  O48      1.0000 0.83202  0.09505  0.53871  Biso   1.000  O
  O49      1.0000 0.65885  0.16987  0.53643  Biso   1.000  O
  O50      1.0000 0.16356  0.81170  0.37398  Biso   1.000  O
  O51      1.0000 0.09495  0.82721  0.28709  Biso   1.000  O
  O52      1.0000 0.06166  0.65401  0.17387  Biso   1.000  O
  O53      1.0000 0.94182  0.59727  0.22969  Biso   1.000  O
  O54      1.0000 0.23667  0.99047  0.36839  Biso   1.000  O
  O55      1.0000 0.95549  0.87551  0.05511  Biso   1.000  O
  O56      1.0000 0.95175  0.78066  0.03104  Biso   1.000  O
  O57      1.0000 0.92707  0.03871  0.90495  Biso   1.000  O
  O58      1.0000 0.82872  0.03643  0.83013  Biso   1.000  O
  O59      1.0000 0.97526  0.87398  0.18830  Biso   1.000  O
  O60      1.0000 0.92216  0.78709  0.17279  Biso   1.000  O
  O61      1.0000 0.71567  0.67387  0.34599  Biso   1.000  O
  O62      1.0000 0.53909  0.72969  0.40273  Biso   1.000  O
  O63      1.0000 0.22714  0.86839  0.00953  Biso   1.000  O
  O64      1.0000 0.38611  0.62449  0.44489  Biso   1.000  O
  O65      1.0000 0.26345  0.71934  0.46896  Biso   1.000  O
  O66      1.0000 0.37073  0.46129  0.59505  Biso   1.000  O
  O67      1.0000 0.19528  0.46357  0.66987  Biso   1.000  O
  O68      1.0000 0.53754  0.62602  0.31170  Biso   1.000  O
  O69      1.0000 0.38204  0.71291  0.32721  Biso   1.000  O
  O70      1.0000 0.23553  0.82613  0.15401  Biso   1.000  O
  O71      1.0000 0.17151  0.77031  0.09727  Biso   1.000  O
  O72      1.0000 0.60506  0.63161  0.49047  Biso   1.000  O
