data_image0
_cell_length_a       9.9498
_cell_length_b       9.9498
_cell_length_c       14.376
_cell_angle_alpha    98.3515
_cell_angle_beta     98.3515
_cell_angle_gamma    107.677

_symmetry_space_group_name_H-M    P 1
_symmetry_int_tables_number       1

loop_
  _symmetry_equiv_pos_as_xyz
  'x, y, z'

loop_
  _atom_site_label
  _atom_site_occupancy
  _atom_site_fract_x
  _atom_site_fract_y
  _atom_site_fract_z
  _atom_site_thermal_displace_type
  _atom_site_B_iso_or_equiv
  _atom_site_type_symbol
  Ni1      1.0000 0.00236  0.50008  0.25466  Biso   1.000  Ni
  Ni2      1.0000 0.49992  0.99764  0.24534  Biso   1.000  Ni
  Ni3      1.0000 0.99764  0.49992  0.74534  Biso   1.000  Ni
  Ni4      1.0000 0.50008  0.00236  0.75466  Biso   1.000  Ni
  H1       1.0000 0.08460  0.48180  0.42740  Biso   1.000  H
  H2       1.0000 0.99770  0.33430  0.39210  Biso   1.000  H
  H3       1.0000 0.90640  0.65080  0.15000  Biso   1.000  H
  H4       1.0000 0.99220  0.60520  0.09270  Biso   1.000  H
  H5       1.0000 0.27220  0.39960  0.26460  Biso   1.000  H
  H6       1.0000 0.73620  0.60500  0.25570  Biso   1.000  H
  H7       1.0000 0.84440  0.82740  0.37480  Biso   1.000  H
  H8       1.0000 0.51820  0.91540  0.07260  Biso   1.000  H
  H9       1.0000 0.66570  0.00230  0.10790  Biso   1.000  H
  H10      1.0000 0.34920  0.09360  0.35000  Biso   1.000  H
  H11      1.0000 0.39480  0.00780  0.40730  Biso   1.000  H
  H12      1.0000 0.60040  0.72780  0.23540  Biso   1.000  H
  H13      1.0000 0.39500  0.26380  0.24430  Biso   1.000  H
  H14      1.0000 0.17260  0.15560  0.12520  Biso   1.000  H
  H15      1.0000 0.91540  0.51820  0.57260  Biso   1.000  H
  H16      1.0000 0.00230  0.66570  0.60790  Biso   1.000  H
  H17      1.0000 0.09360  0.34920  0.85000  Biso   1.000  H
  H18      1.0000 0.00780  0.39480  0.90730  Biso   1.000  H
  H19      1.0000 0.72780  0.60040  0.73540  Biso   1.000  H
  H20      1.0000 0.26380  0.39500  0.74430  Biso   1.000  H
  H21      1.0000 0.15560  0.17260  0.62520  Biso   1.000  H
  H22      1.0000 0.48180  0.08460  0.92740  Biso   1.000  H
  H23      1.0000 0.33430  0.99770  0.89210  Biso   1.000  H
  H24      1.0000 0.65080  0.90640  0.65000  Biso   1.000  H
  H25      1.0000 0.60520  0.99220  0.59270  Biso   1.000  H
  H26      1.0000 0.39960  0.27220  0.76460  Biso   1.000  H
  H27      1.0000 0.60500  0.73620  0.75570  Biso   1.000  H
  H28      1.0000 0.82740  0.84440  0.87480  Biso   1.000  H
  H29      1.0000 0.23100  0.76900  0.25000  Biso   1.000  H
  H30      1.0000 0.77220  0.22780  0.25000  Biso   1.000  H
  H31      1.0000 0.76900  0.23100  0.75000  Biso   1.000  H
  H32      1.0000 0.22780  0.77220  0.75000  Biso   1.000  H
  C1       1.0000 0.31060  0.49440  0.25770  Biso   1.000  C
  C2       1.0000 0.69390  0.50710  0.25320  Biso   1.000  C
  C3       1.0000 0.03470  0.87670  0.46540  Biso   1.000  C
  C4       1.0000 0.13050  0.98510  0.54160  Biso   1.000  C
  C5       1.0000 0.90710  0.89710  0.42580  Biso   1.000  C
  C6       1.0000 0.05900  0.74020  0.42780  Biso   1.000  C
  C7       1.0000 0.27740  0.98100  0.58230  Biso   1.000  C
  C8       1.0000 0.50560  0.68940  0.24230  Biso   1.000  C
  C9       1.0000 0.49290  0.30610  0.24680  Biso   1.000  C
  C10      1.0000 0.12330  0.96530  0.03460  Biso   1.000  C
  C11      1.0000 0.01490  0.86950  0.95840  Biso   1.000  C
  C12      1.0000 0.10290  0.09290  0.07420  Biso   1.000  C
  C13      1.0000 0.25980  0.94100  0.07220  Biso   1.000  C
  C14      1.0000 0.01900  0.72260  0.91770  Biso   1.000  C
  C15      1.0000 0.68940  0.50560  0.74230  Biso   1.000  C
  C16      1.0000 0.30610  0.49290  0.74680  Biso   1.000  C
  C17      1.0000 0.96530  0.12330  0.53460  Biso   1.000  C
  C18      1.0000 0.86950  0.01490  0.45840  Biso   1.000  C
  C19      1.0000 0.09290  0.10290  0.57420  Biso   1.000  C
  C20      1.0000 0.94100  0.25980  0.57220  Biso   1.000  C
  C21      1.0000 0.72260  0.01900  0.41770  Biso   1.000  C
  C22      1.0000 0.49440  0.31060  0.75770  Biso   1.000  C
  C23      1.0000 0.50710  0.69390  0.75320  Biso   1.000  C
  C24      1.0000 0.87670  0.03470  0.96540  Biso   1.000  C
  C25      1.0000 0.98510  0.13050  0.04160  Biso   1.000  C
  C26      1.0000 0.89710  0.90710  0.92580  Biso   1.000  C
  C27      1.0000 0.74020  0.05900  0.92780  Biso   1.000  C
  C28      1.0000 0.98100  0.27740  0.08230  Biso   1.000  C
  C29      1.0000 0.45400  0.54600  0.25000  Biso   1.000  C
  C30      1.0000 0.28890  0.71110  0.25000  Biso   1.000  C
  C31      1.0000 0.54580  0.45420  0.25000  Biso   1.000  C
  C32      1.0000 0.71430  0.28570  0.25000  Biso   1.000  C
  C33      1.0000 0.54600  0.45400  0.75000  Biso   1.000  C
  C34      1.0000 0.71110  0.28890  0.75000  Biso   1.000  C
  C35      1.0000 0.45420  0.54580  0.75000  Biso   1.000  C
  C36      1.0000 0.28570  0.71430  0.75000  Biso   1.000  C
  N1       1.0000 0.22630  0.57530  0.25540  Biso   1.000  N
  N2       1.0000 0.77800  0.42520  0.25280  Biso   1.000  N
  N3       1.0000 0.42470  0.77370  0.24460  Biso   1.000  N
  N4       1.0000 0.57480  0.22200  0.24720  Biso   1.000  N
  N5       1.0000 0.77370  0.42470  0.74460  Biso   1.000  N
  N6       1.0000 0.22200  0.57480  0.74720  Biso   1.000  N
  N7       1.0000 0.57530  0.22630  0.75540  Biso   1.000  N
  N8       1.0000 0.42520  0.77800  0.75280  Biso   1.000  N
  O1       1.0000 0.01390  0.68850  0.33940  Biso   1.000  O
  O2       1.0000 0.11860  0.68360  0.48640  Biso   1.000  O
  O3       1.0000 0.30510  0.98430  0.67190  Biso   1.000  O
  O4       1.0000 0.36340  0.98060  0.52960  Biso   1.000  O
  O5       1.0000 0.04780  0.41640  0.37610  Biso   1.000  O
  O6       1.0000 0.96510  0.60290  0.14660  Biso   1.000  O
  O7       1.0000 0.31150  0.98610  0.16060  Biso   1.000  O
  O8       1.0000 0.31640  0.88140  0.01360  Biso   1.000  O
  O9       1.0000 0.01570  0.69490  0.82810  Biso   1.000  O
  O10      1.0000 0.01940  0.63660  0.97040  Biso   1.000  O
  O11      1.0000 0.58360  0.95220  0.12390  Biso   1.000  O
  O12      1.0000 0.39710  0.03490  0.35340  Biso   1.000  O
  O13      1.0000 0.98610  0.31150  0.66060  Biso   1.000  O
  O14      1.0000 0.88140  0.31640  0.51360  Biso   1.000  O
  O15      1.0000 0.69490  0.01570  0.32810  Biso   1.000  O
  O16      1.0000 0.63660  0.01940  0.47040  Biso   1.000  O
  O17      1.0000 0.95220  0.58360  0.62390  Biso   1.000  O
  O18      1.0000 0.03490  0.39710  0.85340  Biso   1.000  O
  O19      1.0000 0.68850  0.01390  0.83940  Biso   1.000  O
  O20      1.0000 0.68360  0.11860  0.98640  Biso   1.000  O
  O21      1.0000 0.98430  0.30510  0.17190  Biso   1.000  O
  O22      1.0000 0.98060  0.36340  0.02960  Biso   1.000  O
  O23      1.0000 0.41640  0.04780  0.87610  Biso   1.000  O
  O24      1.0000 0.60290  0.96510  0.64660  Biso   1.000  O
