data_image0
_cell_length_a       9.747
_cell_length_b       9.747
_cell_length_c       14.7695
_cell_angle_alpha    100.16
_cell_angle_beta     100.16
_cell_angle_gamma    107.053

_symmetry_space_group_name_H-M    P 1
_symmetry_int_tables_number       1

loop_
  _symmetry_equiv_pos_as_xyz
  'x, y, z'

loop_
  _atom_site_label
  _atom_site_occupancy
  _atom_site_fract_x
  _atom_site_fract_y
  _atom_site_fract_z
  _atom_site_thermal_displace_type
  _atom_site_B_iso_or_equiv
  _atom_site_type_symbol
  Cu1      1.0000 0.49662  0.00644  0.75704  Biso   1.000  Cu
  Cu2      1.0000 0.99356  0.50338  0.74296  Biso   1.000  Cu
  Cu3      1.0000 0.50338  0.99356  0.24296  Biso   1.000  Cu
  Cu4      1.0000 0.00644  0.49662  0.25704  Biso   1.000  Cu
  H1       1.0000 0.83390  0.83090  0.86860  Biso   1.000  H
  H2       1.0000 0.39740  0.27320  0.76570  Biso   1.000  H
  H3       1.0000 0.25980  0.39900  0.75260  Biso   1.000  H
  H4       1.0000 0.16910  0.16610  0.63140  Biso   1.000  H
  H5       1.0000 0.72680  0.60260  0.73430  Biso   1.000  H
  H6       1.0000 0.60100  0.74020  0.74740  Biso   1.000  H
  H7       1.0000 0.16610  0.16910  0.13140  Biso   1.000  H
  H8       1.0000 0.60260  0.72680  0.23430  Biso   1.000  H
  H9       1.0000 0.74020  0.60100  0.24740  Biso   1.000  H
  H10      1.0000 0.83090  0.83390  0.36860  Biso   1.000  H
  H11      1.0000 0.27320  0.39740  0.26570  Biso   1.000  H
  H12      1.0000 0.39900  0.25980  0.25260  Biso   1.000  H
  H13      1.0000 0.21800  0.78200  0.75000  Biso   1.000  H
  H14      1.0000 0.77600  0.22400  0.75000  Biso   1.000  H
  H15      1.0000 0.78200  0.21800  0.25000  Biso   1.000  H
  H16      1.0000 0.22400  0.77600  0.25000  Biso   1.000  H
  C1       1.0000 0.72116  0.03484  0.91890  Biso   1.000  C
  C2       1.0000 0.86932  0.02328  0.96070  Biso   1.000  C
  C3       1.0000 0.90073  0.89907  0.92180  Biso   1.000  C
  C4       1.0000 0.97084  0.12656  0.03990  Biso   1.000  C
  C5       1.0000 0.94960  0.26840  0.08330  Biso   1.000  C
  C6       1.0000 0.49310  0.31150  0.75860  Biso   1.000  C
  C7       1.0000 0.30077  0.49743  0.75120  Biso   1.000  C
  C8       1.0000 0.96516  0.27884  0.58110  Biso   1.000  C
  C9       1.0000 0.97672  0.13068  0.53930  Biso   1.000  C
  C10      1.0000 0.10093  0.09927  0.57820  Biso   1.000  C
  C11      1.0000 0.87344  0.02916  0.46010  Biso   1.000  C
  C12      1.0000 0.73160  0.05040  0.41670  Biso   1.000  C
  C13      1.0000 0.68850  0.50690  0.74140  Biso   1.000  C
  C14      1.0000 0.50257  0.69923  0.74880  Biso   1.000  C
  C15      1.0000 0.27884  0.96516  0.08110  Biso   1.000  C
  C16      1.0000 0.13068  0.97672  0.03930  Biso   1.000  C
  C17      1.0000 0.09927  0.10093  0.07820  Biso   1.000  C
  C18      1.0000 0.02916  0.87344  0.96010  Biso   1.000  C
  C19      1.0000 0.05040  0.73160  0.91670  Biso   1.000  C
  C20      1.0000 0.50690  0.68850  0.24140  Biso   1.000  C
  C21      1.0000 0.69923  0.50257  0.24880  Biso   1.000  C
  C22      1.0000 0.03484  0.72116  0.41890  Biso   1.000  C
  C23      1.0000 0.02328  0.86932  0.46070  Biso   1.000  C
  C24      1.0000 0.89907  0.90073  0.42180  Biso   1.000  C
  C25      1.0000 0.12656  0.97084  0.53990  Biso   1.000  C
  C26      1.0000 0.26840  0.94960  0.58330  Biso   1.000  C
  C27      1.0000 0.31150  0.49310  0.25860  Biso   1.000  C
  C28      1.0000 0.49743  0.30077  0.25120  Biso   1.000  C
  C29      1.0000 0.71630  0.28370  0.75000  Biso   1.000  C
  C30      1.0000 0.54360  0.45640  0.75000  Biso   1.000  C
  C31      1.0000 0.44890  0.55110  0.75000  Biso   1.000  C
  C32      1.0000 0.27660  0.72340  0.75000  Biso   1.000  C
  C33      1.0000 0.28370  0.71630  0.25000  Biso   1.000  C
  C34      1.0000 0.45640  0.54360  0.25000  Biso   1.000  C
  C35      1.0000 0.55110  0.44890  0.25000  Biso   1.000  C
  C36      1.0000 0.72340  0.27660  0.25000  Biso   1.000  C
  N1       1.0000 0.57754  0.22526  0.75681  Biso   1.000  N
  N2       1.0000 0.21488  0.58232  0.75051  Biso   1.000  N
  N3       1.0000 0.77474  0.42246  0.74319  Biso   1.000  N
  N4       1.0000 0.41768  0.78512  0.74949  Biso   1.000  N
  N5       1.0000 0.42246  0.77474  0.24319  Biso   1.000  N
  N6       1.0000 0.78512  0.41768  0.24949  Biso   1.000  N
  N7       1.0000 0.22526  0.57754  0.25681  Biso   1.000  N
  N8       1.0000 0.58232  0.21488  0.25051  Biso   1.000  N
  O1       1.0000 0.68892  0.01968  0.83058  Biso   1.000  O
  O2       1.0000 0.64020  0.05080  0.97000  Biso   1.000  O
  O3       1.0000 0.99312  0.31196  0.17200  Biso   1.000  O
  O4       1.0000 0.89130  0.33090  0.03120  Biso   1.000  O
  O5       1.0000 0.98032  0.31108  0.66942  Biso   1.000  O
  O6       1.0000 0.94920  0.35980  0.53000  Biso   1.000  O
  O7       1.0000 0.68804  0.00688  0.32800  Biso   1.000  O
  O8       1.0000 0.66910  0.10870  0.46880  Biso   1.000  O
  O9       1.0000 0.31108  0.98032  0.16942  Biso   1.000  O
  O10      1.0000 0.35980  0.94920  0.03000  Biso   1.000  O
  O11      1.0000 0.00688  0.68804  0.82800  Biso   1.000  O
  O12      1.0000 0.10870  0.66910  0.96880  Biso   1.000  O
  O13      1.0000 0.01968  0.68892  0.33058  Biso   1.000  O
  O14      1.0000 0.05080  0.64020  0.47000  Biso   1.000  O
  O15      1.0000 0.31196  0.99312  0.67200  Biso   1.000  O
  O16      1.0000 0.33090  0.89130  0.53120  Biso   1.000  O
