data_image0
_cell_length_a       10.9838
_cell_length_b       14.4336
_cell_length_c       16.1229
_cell_angle_alpha    90
_cell_angle_beta     92.8671
_cell_angle_gamma    90

_symmetry_space_group_name_H-M    P 1
_symmetry_int_tables_number       1

loop_
  _symmetry_equiv_pos_as_xyz
  'x, y, z'

loop_
  _atom_site_label
  _atom_site_occupancy
  _atom_site_fract_x
  _atom_site_fract_y
  _atom_site_fract_z
  _atom_site_thermal_displace_type
  _atom_site_B_iso_or_equiv
  _atom_site_type_symbol
  Zn1      1.0000 0.96689  0.62474  0.96584  Biso   1.000  Zn
  Zn2      1.0000 0.47637  0.14760  0.58883  Biso   1.000  Zn
  H1       1.0000 0.69550  0.89920  0.91940  Biso   1.000  H
  H2       1.0000 0.58740  0.00030  0.83260  Biso   1.000  H
  H3       1.0000 0.72270  0.93500  0.57250  Biso   1.000  H
  H4       1.0000 0.85190  0.82780  0.51630  Biso   1.000  H
  H5       1.0000 0.95290  0.71820  0.60580  Biso   1.000  H
  H6       1.0000 0.93360  0.72520  0.74340  Biso   1.000  H
  H7       1.0000 0.37640  0.26400  0.83660  Biso   1.000  H
  H8       1.0000 0.27380  0.35620  0.92920  Biso   1.000  H
  H9       1.0000 0.11020  0.59680  0.76410  Biso   1.000  H
  H10      1.0000 0.12240  0.63240  0.62550  Biso   1.000  H
  H11      1.0000 0.21660  0.53580  0.53650  Biso   1.000  H
  H12      1.0000 0.30490  0.40180  0.58260  Biso   1.000  H
  H13      1.0000 0.50940  0.98450  0.47730  Biso   1.000  H
  H14      1.0000 0.41740  0.90720  0.36730  Biso   1.000  H
  H15      1.0000 0.10970  0.03620  0.41320  Biso   1.000  H
  H16      1.0000 0.21230  0.11730  0.51780  Biso   1.000  H
  H17      1.0000 0.28110  0.67900  0.20440  Biso   1.000  H
  H18      1.0000 0.18910  0.60320  0.09420  Biso   1.000  H
  H19      1.0000 0.97110  0.80920  0.04570  Biso   1.000  H
  H20      1.0000 0.05710  0.89740  0.15160  Biso   1.000  H
  H21      1.0000 0.41600  0.24810  0.42360  Biso   1.000  H
  H22      1.0000 0.51330  0.32360  0.31990  Biso   1.000  H
  H23      1.0000 0.82800  0.29390  0.45330  Biso   1.000  H
  H24      1.0000 0.73040  0.21780  0.55160  Biso   1.000  H
  H25      1.0000 0.62530  0.53370  0.14020  Biso   1.000  H
  H26      1.0000 0.72560  0.61850  0.04340  Biso   1.000  H
  H27      1.0000 0.01410  0.45680  0.07650  Biso   1.000  H
  H28      1.0000 0.92620  0.38600  0.18800  Biso   1.000  H
  C1       1.0000 0.84150  0.76140  0.89050  Biso   1.000  C
  C2       1.0000 0.78210  0.83170  0.83370  Biso   1.000  C
  C3       1.0000 0.70610  0.89640  0.86260  Biso   1.000  C
  C4       1.0000 0.64250  0.95930  0.81060  Biso   1.000  C
  C5       1.0000 0.66150  0.96040  0.72640  Biso   1.000  C
  C6       1.0000 0.76350  0.89220  0.60690  Biso   1.000  C
  C7       1.0000 0.84040  0.82840  0.57310  Biso   1.000  C
  C8       1.0000 0.90250  0.76280  0.62770  Biso   1.000  C
  C9       1.0000 0.88850  0.76550  0.70900  Biso   1.000  C
  C10      1.0000 0.80540  0.82890  0.74530  Biso   1.000  C
  C11      1.0000 0.74610  0.89330  0.69220  Biso   1.000  C
  C12      1.0000 0.58850  0.03060  0.67320  Biso   1.000  C
  C13      1.0000 0.38840  0.26870  0.67630  Biso   1.000  C
  C14      1.0000 0.32720  0.33420  0.73450  Biso   1.000  C
  C15      1.0000 0.33220  0.31510  0.81680  Biso   1.000  C
  C16      1.0000 0.27090  0.37170  0.87310  Biso   1.000  C
  C17      1.0000 0.20700  0.44960  0.84650  Biso   1.000  C
  C18      1.0000 0.15050  0.55700  0.72930  Biso   1.000  C
  C19      1.0000 0.15740  0.57780  0.64590  Biso   1.000  C
  C20      1.0000 0.21450  0.52000  0.59240  Biso   1.000  C
  C21      1.0000 0.26770  0.44040  0.62000  Biso   1.000  C
  C22      1.0000 0.26730  0.41490  0.70450  Biso   1.000  C
  C23      1.0000 0.20520  0.47510  0.76150  Biso   1.000  C
  C24      1.0000 0.14290  0.50100  0.91270  Biso   1.000  C
  C25      1.0000 0.42860  0.99850  0.46240  Biso   1.000  C
  C26      1.0000 0.37270  0.94920  0.39730  Biso   1.000  C
  C27      1.0000 0.25650  0.96190  0.37800  Biso   1.000  C
  C28      1.0000 0.19260  0.02640  0.42430  Biso   1.000  C
  C29      1.0000 0.25540  0.07510  0.48700  Biso   1.000  C
  C30      1.0000 0.18430  0.91610  0.30860  Biso   1.000  C
  C31      1.0000 0.23420  0.84270  0.26900  Biso   1.000  C
  C32      1.0000 0.17510  0.79670  0.19580  Biso   1.000  C
  C33      1.0000 0.21700  0.70670  0.17390  Biso   1.000  C
  C34      1.0000 0.16170  0.66210  0.10770  Biso   1.000  C
  C35      1.0000 0.03410  0.78320  0.07860  Biso   1.000  C
  C36      1.0000 0.08350  0.83710  0.14330  Biso   1.000  C
  C37      1.0000 0.49970  0.25750  0.42930  Biso   1.000  C
  C38      1.0000 0.55830  0.30220  0.36640  Biso   1.000  C
  C39      1.0000 0.68670  0.31540  0.37270  Biso   1.000  C
  C40      1.0000 0.74450  0.28410  0.44530  Biso   1.000  C
  C41      1.0000 0.68570  0.23990  0.50520  Biso   1.000  C
  C42      1.0000 0.75550  0.35360  0.30640  Biso   1.000  C
  C43      1.0000 0.69820  0.40380  0.24500  Biso   1.000  C
  C44      1.0000 0.76850  0.45110  0.17850  Biso   1.000  C
  C45      1.0000 0.70640  0.52070  0.13090  Biso   1.000  C
  C46      1.0000 0.76540  0.56960  0.07080  Biso   1.000  C
  C47      1.0000 0.93780  0.47580  0.09230  Biso   1.000  C
  C48      1.0000 0.88260  0.43100  0.15790  Biso   1.000  C
  N1       1.0000 0.37460  0.06470  0.50530  Biso   1.000  N
  N2       1.0000 0.06770  0.70030  0.06010  Biso   1.000  N
  N3       1.0000 0.56200  0.22670  0.49970  Biso   1.000  N
  N4       1.0000 0.87970  0.54730  0.05150  Biso   1.000  N
  O1       1.0000 0.95170  0.73950  0.88340  Biso   1.000  O
  O2       1.0000 0.78200  0.73650  0.95150  Biso   1.000  O
  O3       1.0000 0.63600  0.06910  0.61370  Biso   1.000  O
  O4       1.0000 0.48330  0.04890  0.69340  Biso   1.000  O
  O5       1.0000 0.50330  0.25590  0.68860  Biso   1.000  O
  O6       1.0000 0.32860  0.23140  0.61960  Biso   1.000  O
  O7       1.0000 0.17320  0.49100  0.98460  Biso   1.000  O
  O8       1.0000 0.05420  0.55220  0.88700  Biso   1.000  O
  Zn3      1.0000 0.03311  0.12474  0.03416  Biso   1.000  Zn
  Zn4      1.0000 0.52363  0.64760  0.41117  Biso   1.000  Zn
  H29      1.0000 0.30450  0.39920  0.08060  Biso   1.000  H
  H30      1.0000 0.41260  0.50030  0.16740  Biso   1.000  H
  H31      1.0000 0.27730  0.43500  0.42750  Biso   1.000  H
  H32      1.0000 0.14810  0.32780  0.48370  Biso   1.000  H
  H33      1.0000 0.04710  0.21820  0.39420  Biso   1.000  H
  H34      1.0000 0.06640  0.22520  0.25660  Biso   1.000  H
  H35      1.0000 0.62360  0.76400  0.16340  Biso   1.000  H
  H36      1.0000 0.72620  0.85620  0.07080  Biso   1.000  H
  H37      1.0000 0.88980  0.09680  0.23590  Biso   1.000  H
  H38      1.0000 0.87760  0.13240  0.37450  Biso   1.000  H
  H39      1.0000 0.78340  0.03580  0.46350  Biso   1.000  H
  H40      1.0000 0.69510  0.90180  0.41740  Biso   1.000  H
  H41      1.0000 0.49060  0.48450  0.52270  Biso   1.000  H
  H42      1.0000 0.58260  0.40720  0.63270  Biso   1.000  H
  H43      1.0000 0.89030  0.53620  0.58680  Biso   1.000  H
  H44      1.0000 0.78770  0.61730  0.48220  Biso   1.000  H
  H45      1.0000 0.71890  0.17900  0.79560  Biso   1.000  H
  H46      1.0000 0.81090  0.10320  0.90580  Biso   1.000  H
  H47      1.0000 0.02890  0.30920  0.95430  Biso   1.000  H
  H48      1.0000 0.94290  0.39740  0.84840  Biso   1.000  H
  H49      1.0000 0.58400  0.74810  0.57640  Biso   1.000  H
  H50      1.0000 0.48670  0.82360  0.68010  Biso   1.000  H
  H51      1.0000 0.17200  0.79390  0.54670  Biso   1.000  H
  H52      1.0000 0.26960  0.71780  0.44840  Biso   1.000  H
  H53      1.0000 0.37470  0.03370  0.85980  Biso   1.000  H
  H54      1.0000 0.27440  0.11850  0.95660  Biso   1.000  H
  H55      1.0000 0.98590  0.95680  0.92350  Biso   1.000  H
  H56      1.0000 0.07380  0.88600  0.81200  Biso   1.000  H
  C49      1.0000 0.15850  0.26140  0.10950  Biso   1.000  C
  C50      1.0000 0.21790  0.33170  0.16630  Biso   1.000  C
  C51      1.0000 0.29390  0.39640  0.13740  Biso   1.000  C
  C52      1.0000 0.35750  0.45930  0.18940  Biso   1.000  C
  C53      1.0000 0.33850  0.46040  0.27360  Biso   1.000  C
  C54      1.0000 0.23650  0.39220  0.39310  Biso   1.000  C
  C55      1.0000 0.15960  0.32840  0.42690  Biso   1.000  C
  C56      1.0000 0.09750  0.26280  0.37230  Biso   1.000  C
  C57      1.0000 0.11150  0.26550  0.29100  Biso   1.000  C
  C58      1.0000 0.19460  0.32890  0.25470  Biso   1.000  C
  C59      1.0000 0.25390  0.39330  0.30780  Biso   1.000  C
  C60      1.0000 0.41150  0.53060  0.32680  Biso   1.000  C
  C61      1.0000 0.61160  0.76870  0.32370  Biso   1.000  C
  C62      1.0000 0.67280  0.83420  0.26550  Biso   1.000  C
  C63      1.0000 0.66780  0.81510  0.18320  Biso   1.000  C
  C64      1.0000 0.72910  0.87170  0.12690  Biso   1.000  C
  C65      1.0000 0.79300  0.94960  0.15350  Biso   1.000  C
  C66      1.0000 0.84950  0.05700  0.27070  Biso   1.000  C
  C67      1.0000 0.84260  0.07780  0.35410  Biso   1.000  C
  C68      1.0000 0.78550  0.02000  0.40760  Biso   1.000  C
  C69      1.0000 0.73230  0.94040  0.38000  Biso   1.000  C
  C70      1.0000 0.73270  0.91490  0.29550  Biso   1.000  C
  C71      1.0000 0.79480  0.97510  0.23850  Biso   1.000  C
  C72      1.0000 0.85710  0.00100  0.08730  Biso   1.000  C
  C73      1.0000 0.57140  0.49850  0.53760  Biso   1.000  C
  C74      1.0000 0.62730  0.44920  0.60270  Biso   1.000  C
  C75      1.0000 0.74350  0.46190  0.62200  Biso   1.000  C
  C76      1.0000 0.80740  0.52640  0.57570  Biso   1.000  C
  C77      1.0000 0.74460  0.57510  0.51300  Biso   1.000  C
  C78      1.0000 0.81570  0.41610  0.69140  Biso   1.000  C
  C79      1.0000 0.76580  0.34270  0.73100  Biso   1.000  C
  C80      1.0000 0.82490  0.29670  0.80420  Biso   1.000  C
  C81      1.0000 0.78300  0.20670  0.82610  Biso   1.000  C
  C82      1.0000 0.83830  0.16210  0.89230  Biso   1.000  C
  C83      1.0000 0.96590  0.28320  0.92140  Biso   1.000  C
  C84      1.0000 0.91650  0.33710  0.85670  Biso   1.000  C
  C85      1.0000 0.50030  0.75750  0.57070  Biso   1.000  C
  C86      1.0000 0.44170  0.80220  0.63360  Biso   1.000  C
  C87      1.0000 0.31330  0.81540  0.62730  Biso   1.000  C
  C88      1.0000 0.25550  0.78410  0.55470  Biso   1.000  C
  C89      1.0000 0.31430  0.73990  0.49480  Biso   1.000  C
  C90      1.0000 0.24450  0.85360  0.69360  Biso   1.000  C
  C91      1.0000 0.30180  0.90380  0.75500  Biso   1.000  C
  C92      1.0000 0.23150  0.95110  0.82150  Biso   1.000  C
  C93      1.0000 0.29360  0.02070  0.86910  Biso   1.000  C
  C94      1.0000 0.23460  0.06960  0.92920  Biso   1.000  C
  C95      1.0000 0.06220  0.97580  0.90770  Biso   1.000  C
  C96      1.0000 0.11740  0.93100  0.84210  Biso   1.000  C
  N5       1.0000 0.62540  0.56470  0.49470  Biso   1.000  N
  N6       1.0000 0.93230  0.20030  0.93990  Biso   1.000  N
  N7       1.0000 0.43800  0.72670  0.50030  Biso   1.000  N
  N8       1.0000 0.12030  0.04730  0.94850  Biso   1.000  N
  O9       1.0000 0.04830  0.23950  0.11660  Biso   1.000  O
  O10      1.0000 0.21800  0.23650  0.04850  Biso   1.000  O
  O11      1.0000 0.36400  0.56910  0.38630  Biso   1.000  O
  O12      1.0000 0.51670  0.54890  0.30660  Biso   1.000  O
  O13      1.0000 0.49670  0.75590  0.31140  Biso   1.000  O
  O14      1.0000 0.67140  0.73140  0.38040  Biso   1.000  O
  O15      1.0000 0.82680  0.99100  0.01540  Biso   1.000  O
  O16      1.0000 0.94580  0.05220  0.11300  Biso   1.000  O
