data_image0
_cell_length_a       4.5588
_cell_length_b       11.9018
_cell_length_c       15.8005
_cell_angle_alpha    85.912
_cell_angle_beta     84.811
_cell_angle_gamma    83.249

_symmetry_space_group_name_H-M    P 1
_symmetry_int_tables_number       1

loop_
  _symmetry_equiv_pos_as_xyz
  'x, y, z'

loop_
  _atom_site_label
  _atom_site_occupancy
  _atom_site_fract_x
  _atom_site_fract_y
  _atom_site_fract_z
  _atom_site_thermal_displace_type
  _atom_site_B_iso_or_equiv
  _atom_site_type_symbol
  La1      1.0000 0.80833  0.77574  0.67367  Biso   1.000  La
  La2      1.0000 0.19167  0.22426  0.32633  Biso   1.000  La
  H1       1.0000 0.44270  0.10710  0.56130  Biso   1.000  H
  H2       1.0000 0.46320  0.10100  0.66200  Biso   1.000  H
  H3       1.0000 0.89220  0.14930  0.73910  Biso   1.000  H
  H4       1.0000 0.13330  0.23540  0.74250  Biso   1.000  H
  H5       1.0000 0.56030  0.30840  0.53020  Biso   1.000  H
  H6       1.0000 0.79130  0.39940  0.52920  Biso   1.000  H
  H7       1.0000 0.23600  0.45020  0.60790  Biso   1.000  H
  H8       1.0000 0.26750  0.45170  0.70780  Biso   1.000  H
  H9       1.0000 0.03060  0.85160  0.92280  Biso   1.000  H
  H10      1.0000 0.96960  0.97230  0.87240  Biso   1.000  H
  H11      1.0000 0.57280  0.82180  0.97270  Biso   1.000  H
  H12      1.0000 0.30680  0.84550  0.04420  Biso   1.000  H
  H13      1.0000 0.82270  0.66000  0.84580  Biso   1.000  H
  H14      1.0000 0.85260  0.56320  0.79170  Biso   1.000  H
  H15      1.0000 0.55730  0.89290  0.43870  Biso   1.000  H
  H16      1.0000 0.53680  0.89900  0.33800  Biso   1.000  H
  H17      1.0000 0.10780  0.85070  0.26090  Biso   1.000  H
  H18      1.0000 0.86670  0.76460  0.25750  Biso   1.000  H
  H19      1.0000 0.43970  0.69160  0.46980  Biso   1.000  H
  H20      1.0000 0.20870  0.60060  0.47080  Biso   1.000  H
  H21      1.0000 0.76400  0.54980  0.39210  Biso   1.000  H
  H22      1.0000 0.73250  0.54830  0.29220  Biso   1.000  H
  H23      1.0000 0.96940  0.14840  0.07720  Biso   1.000  H
  H24      1.0000 0.03040  0.02770  0.12760  Biso   1.000  H
  H25      1.0000 0.42720  0.17820  0.02730  Biso   1.000  H
  H26      1.0000 0.69320  0.15450  0.95580  Biso   1.000  H
  H27      1.0000 0.17730  0.34000  0.15420  Biso   1.000  H
  H28      1.0000 0.14740  0.43680  0.20830  Biso   1.000  H
  C1       1.0000 0.21430  0.98160  0.62450  Biso   1.000  C
  C2       1.0000 0.32750  0.09760  0.61700  Biso   1.000  C
  C3       1.0000 0.96910  0.21790  0.71050  Biso   1.000  C
  C4       1.0000 0.72560  0.31480  0.71690  Biso   1.000  C
  C5       1.0000 0.97540  0.23750  0.55437  Biso   1.000  C
  C6       1.0000 0.72430  0.33050  0.56020  Biso   1.000  C
  C7       1.0000 0.37780  0.45580  0.65090  Biso   1.000  C
  C8       1.0000 0.49940  0.56950  0.63659  Biso   1.000  C
  C9       1.0000 0.30960  0.86770  0.81280  Biso   1.000  C
  C10      1.0000 0.12750  0.91380  0.89100  Biso   1.000  C
  C11      1.0000 0.33600  0.07250  0.93950  Biso   1.000  C
  C12      1.0000 0.45770  0.88180  0.00620  Biso   1.000  C
  C13      1.0000 0.78570  0.01840  0.37550  Biso   1.000  C
  C14      1.0000 0.67250  0.90240  0.38300  Biso   1.000  C
  C15      1.0000 0.03090  0.78210  0.28950  Biso   1.000  C
  C16      1.0000 0.27440  0.68520  0.28310  Biso   1.000  C
  C17      1.0000 0.02460  0.76250  0.44563  Biso   1.000  C
  C18      1.0000 0.27570  0.66950  0.43980  Biso   1.000  C
  C19      1.0000 0.62220  0.54420  0.34910  Biso   1.000  C
  C20      1.0000 0.50060  0.43050  0.36341  Biso   1.000  C
  C21      1.0000 0.69040  0.13230  0.18720  Biso   1.000  C
  C22      1.0000 0.87250  0.08620  0.10900  Biso   1.000  C
  C23      1.0000 0.66400  0.92750  0.06050  Biso   1.000  C
  C24      1.0000 0.54230  0.11820  0.99380  Biso   1.000  C
  N1       1.0000 0.09070  0.19090  0.62454  Biso   1.000  N
  N2       1.0000 0.60750  0.35960  0.64560  Biso   1.000  N
  N3       1.0000 0.30460  0.96300  0.94744  Biso   1.000  N
  N4       1.0000 0.90930  0.80910  0.37546  Biso   1.000  N
  N5       1.0000 0.39250  0.64040  0.35440  Biso   1.000  N
  N6       1.0000 0.69540  0.03700  0.05256  Biso   1.000  N
  O1       1.0000 0.39870  0.89788  0.60700  Biso   1.000  O
  O2       1.0000 0.94840  0.97597  0.64874  Biso   1.000  O
  O3       1.0000 0.07480  0.20812  0.48274  Biso   1.000  O
  O4       1.0000 0.63660  0.34740  0.78774  Biso   1.000  O
  O5       1.0000 0.76540  0.57447  0.61213  Biso   1.000  O
  O6       1.0000 0.32220  0.65697  0.65137  Biso   1.000  O
  O7       1.0000 0.19610  0.79867  0.77374  Biso   1.000  O
  O8       1.0000 0.55910  0.90020  0.79347  Biso   1.000  O
  O9       1.0000 0.20020  0.13960  0.88961  Biso   1.000  O
  O10      1.0000 0.75010  0.63590  0.80452  Biso   1.000  O
  O11      1.0000 0.60130  0.10212  0.39300  Biso   1.000  O
  O12      1.0000 0.05160  0.02403  0.35126  Biso   1.000  O
  O13      1.0000 0.92520  0.79188  0.51726  Biso   1.000  O
  O14      1.0000 0.36340  0.65260  0.21226  Biso   1.000  O
  O15      1.0000 0.23460  0.42553  0.38787  Biso   1.000  O
  O16      1.0000 0.67780  0.34303  0.34863  Biso   1.000  O
  O17      1.0000 0.80390  0.20133  0.22626  Biso   1.000  O
  O18      1.0000 0.44090  0.09980  0.20653  Biso   1.000  O
  O19      1.0000 0.79980  0.86040  0.11039  Biso   1.000  O
  O20      1.0000 0.24990  0.36410  0.19548  Biso   1.000  O
