data_image0
_cell_length_a       20.483
_cell_length_b       20.483
_cell_length_c       20.483
_cell_angle_alpha    90
_cell_angle_beta     90
_cell_angle_gamma    90

_symmetry_space_group_name_H-M    P 1
_symmetry_int_tables_number       1

loop_
  _symmetry_equiv_pos_as_xyz
  'x, y, z'

loop_
  _atom_site_label
  _atom_site_occupancy
  _atom_site_fract_x
  _atom_site_fract_y
  _atom_site_fract_z
  _atom_site_thermal_displace_type
  _atom_site_B_iso_or_equiv
  _atom_site_type_symbol
  Zn1      1.0000 0.60872  0.84965  0.82729  Biso   1.000  Zn
  Zn2      1.0000 0.44002  0.75388  0.98928  Biso   1.000  Zn
  Zn3      1.0000 0.48448  0.88522  0.90397  Biso   1.000  Zn
  Zn4      1.0000 0.89128  0.15035  0.32729  Biso   1.000  Zn
  Zn5      1.0000 0.05998  0.24612  0.48928  Biso   1.000  Zn
  Zn6      1.0000 0.01552  0.11478  0.40397  Biso   1.000  Zn
  Zn7      1.0000 0.39128  0.34965  0.67271  Biso   1.000  Zn
  Zn8      1.0000 0.55998  0.25388  0.51072  Biso   1.000  Zn
  Zn9      1.0000 0.51552  0.38522  0.59603  Biso   1.000  Zn
  Zn10     1.0000 0.10872  0.65035  0.17271  Biso   1.000  Zn
  Zn11     1.0000 0.94002  0.74612  0.01072  Biso   1.000  Zn
  Zn12     1.0000 0.98448  0.61478  0.09603  Biso   1.000  Zn
  Zn13     1.0000 0.82729  0.60872  0.84965  Biso   1.000  Zn
  Zn14     1.0000 0.98928  0.44002  0.75388  Biso   1.000  Zn
  Zn15     1.0000 0.90397  0.48448  0.88522  Biso   1.000  Zn
  Zn16     1.0000 0.32729  0.89128  0.15035  Biso   1.000  Zn
  Zn17     1.0000 0.48928  0.05998  0.24612  Biso   1.000  Zn
  Zn18     1.0000 0.40397  0.01552  0.11478  Biso   1.000  Zn
  Zn19     1.0000 0.67271  0.39128  0.34965  Biso   1.000  Zn
  Zn20     1.0000 0.51072  0.55998  0.25388  Biso   1.000  Zn
  Zn21     1.0000 0.59603  0.51552  0.38522  Biso   1.000  Zn
  Zn22     1.0000 0.17271  0.10872  0.65035  Biso   1.000  Zn
  Zn23     1.0000 0.01072  0.94002  0.74612  Biso   1.000  Zn
  Zn24     1.0000 0.09603  0.98448  0.61478  Biso   1.000  Zn
  Zn25     1.0000 0.84965  0.82729  0.60872  Biso   1.000  Zn
  Zn26     1.0000 0.75388  0.98928  0.44002  Biso   1.000  Zn
  Zn27     1.0000 0.88522  0.90397  0.48448  Biso   1.000  Zn
  Zn28     1.0000 0.15035  0.32729  0.89128  Biso   1.000  Zn
  Zn29     1.0000 0.24612  0.48928  0.05998  Biso   1.000  Zn
  Zn30     1.0000 0.11478  0.40397  0.01552  Biso   1.000  Zn
  Zn31     1.0000 0.34965  0.67271  0.39128  Biso   1.000  Zn
  Zn32     1.0000 0.25388  0.51072  0.55998  Biso   1.000  Zn
  Zn33     1.0000 0.38522  0.59603  0.51552  Biso   1.000  Zn
  Zn34     1.0000 0.65035  0.17271  0.10872  Biso   1.000  Zn
  Zn35     1.0000 0.74612  0.01072  0.94002  Biso   1.000  Zn
  Zn36     1.0000 0.61478  0.09603  0.98448  Biso   1.000  Zn
  Zn37     1.0000 0.39128  0.15035  0.17271  Biso   1.000  Zn
  Zn38     1.0000 0.55998  0.24612  0.01072  Biso   1.000  Zn
  Zn39     1.0000 0.51552  0.11478  0.09603  Biso   1.000  Zn
  Zn40     1.0000 0.10872  0.84965  0.67271  Biso   1.000  Zn
  Zn41     1.0000 0.94002  0.75388  0.51072  Biso   1.000  Zn
  Zn42     1.0000 0.98448  0.88522  0.59603  Biso   1.000  Zn
  Zn43     1.0000 0.60872  0.65035  0.32729  Biso   1.000  Zn
  Zn44     1.0000 0.44002  0.74612  0.48928  Biso   1.000  Zn
  Zn45     1.0000 0.48448  0.61478  0.40397  Biso   1.000  Zn
  Zn46     1.0000 0.89128  0.34965  0.82729  Biso   1.000  Zn
  Zn47     1.0000 0.05998  0.25388  0.98928  Biso   1.000  Zn
  Zn48     1.0000 0.01552  0.38522  0.90397  Biso   1.000  Zn
  Zn49     1.0000 0.17271  0.39128  0.15035  Biso   1.000  Zn
  Zn50     1.0000 0.01072  0.55998  0.24612  Biso   1.000  Zn
  Zn51     1.0000 0.09603  0.51552  0.11478  Biso   1.000  Zn
  Zn52     1.0000 0.67271  0.10872  0.84965  Biso   1.000  Zn
  Zn53     1.0000 0.51072  0.94002  0.75388  Biso   1.000  Zn
  Zn54     1.0000 0.59603  0.98448  0.88522  Biso   1.000  Zn
  Zn55     1.0000 0.32729  0.60872  0.65035  Biso   1.000  Zn
  Zn56     1.0000 0.48928  0.44002  0.74612  Biso   1.000  Zn
  Zn57     1.0000 0.40397  0.48448  0.61478  Biso   1.000  Zn
  Zn58     1.0000 0.82729  0.89128  0.34965  Biso   1.000  Zn
  Zn59     1.0000 0.98928  0.05998  0.25388  Biso   1.000  Zn
  Zn60     1.0000 0.90397  0.01552  0.38522  Biso   1.000  Zn
  Zn61     1.0000 0.15035  0.17271  0.39128  Biso   1.000  Zn
  Zn62     1.0000 0.24612  0.01072  0.55998  Biso   1.000  Zn
  Zn63     1.0000 0.11478  0.09603  0.51552  Biso   1.000  Zn
  Zn64     1.0000 0.84965  0.67271  0.10872  Biso   1.000  Zn
  Zn65     1.0000 0.75388  0.51072  0.94002  Biso   1.000  Zn
  Zn66     1.0000 0.88522  0.59603  0.98448  Biso   1.000  Zn
  Zn67     1.0000 0.65035  0.32729  0.60872  Biso   1.000  Zn
  Zn68     1.0000 0.74612  0.48928  0.44002  Biso   1.000  Zn
  Zn69     1.0000 0.61478  0.40397  0.48448  Biso   1.000  Zn
  Zn70     1.0000 0.34965  0.82729  0.89128  Biso   1.000  Zn
  Zn71     1.0000 0.25388  0.98928  0.05998  Biso   1.000  Zn
  Zn72     1.0000 0.38522  0.90397  0.01552  Biso   1.000  Zn
  H1       1.0000 0.62220  0.69570  0.88740  Biso   1.000  H
  H2       1.0000 0.65950  0.69050  0.00470  Biso   1.000  H
  H3       1.0000 0.69390  0.79690  0.00980  Biso   1.000  H
  H4       1.0000 0.76800  0.79510  0.89370  Biso   1.000  H
  H5       1.0000 0.87780  0.30430  0.38740  Biso   1.000  H
  H6       1.0000 0.84050  0.30950  0.50470  Biso   1.000  H
  H7       1.0000 0.80610  0.20310  0.50980  Biso   1.000  H
  H8       1.0000 0.73200  0.20490  0.39370  Biso   1.000  H
  H9       1.0000 0.37780  0.19570  0.61260  Biso   1.000  H
  H10      1.0000 0.34050  0.19050  0.49530  Biso   1.000  H
  H11      1.0000 0.30610  0.29690  0.49020  Biso   1.000  H
  H12      1.0000 0.23200  0.29510  0.60630  Biso   1.000  H
  H13      1.0000 0.12220  0.80430  0.11260  Biso   1.000  H
  H14      1.0000 0.15950  0.80950  0.99530  Biso   1.000  H
  H15      1.0000 0.19390  0.70310  0.99020  Biso   1.000  H
  H16      1.0000 0.26800  0.70490  0.10630  Biso   1.000  H
  H17      1.0000 0.88740  0.62220  0.69570  Biso   1.000  H
  H18      1.0000 0.00470  0.65950  0.69050  Biso   1.000  H
  H19      1.0000 0.00980  0.69390  0.79690  Biso   1.000  H
  H20      1.0000 0.89370  0.76800  0.79510  Biso   1.000  H
  H21      1.0000 0.38740  0.87780  0.30430  Biso   1.000  H
  H22      1.0000 0.50470  0.84050  0.30950  Biso   1.000  H
  H23      1.0000 0.50980  0.80610  0.20310  Biso   1.000  H
  H24      1.0000 0.39370  0.73200  0.20490  Biso   1.000  H
  H25      1.0000 0.61260  0.37780  0.19570  Biso   1.000  H
  H26      1.0000 0.49530  0.34050  0.19050  Biso   1.000  H
  H27      1.0000 0.49020  0.30610  0.29690  Biso   1.000  H
  H28      1.0000 0.60630  0.23200  0.29510  Biso   1.000  H
  H29      1.0000 0.11260  0.12220  0.80430  Biso   1.000  H
  H30      1.0000 0.99530  0.15950  0.80950  Biso   1.000  H
  H31      1.0000 0.99020  0.19390  0.70310  Biso   1.000  H
  H32      1.0000 0.10630  0.26800  0.70490  Biso   1.000  H
  H33      1.0000 0.69570  0.88740  0.62220  Biso   1.000  H
  H34      1.0000 0.69050  0.00470  0.65950  Biso   1.000  H
  H35      1.0000 0.79690  0.00980  0.69390  Biso   1.000  H
  H36      1.0000 0.79510  0.89370  0.76800  Biso   1.000  H
  H37      1.0000 0.30430  0.38740  0.87780  Biso   1.000  H
  H38      1.0000 0.30950  0.50470  0.84050  Biso   1.000  H
  H39      1.0000 0.20310  0.50980  0.80610  Biso   1.000  H
  H40      1.0000 0.20490  0.39370  0.73200  Biso   1.000  H
  H41      1.0000 0.19570  0.61260  0.37780  Biso   1.000  H
  H42      1.0000 0.19050  0.49530  0.34050  Biso   1.000  H
  H43      1.0000 0.29690  0.49020  0.30610  Biso   1.000  H
  H44      1.0000 0.29510  0.60630  0.23200  Biso   1.000  H
  H45      1.0000 0.80430  0.11260  0.12220  Biso   1.000  H
  H46      1.0000 0.80950  0.99530  0.15950  Biso   1.000  H
  H47      1.0000 0.70310  0.99020  0.19390  Biso   1.000  H
  H48      1.0000 0.70490  0.10630  0.26800  Biso   1.000  H
  H49      1.0000 0.37780  0.30430  0.11260  Biso   1.000  H
  H50      1.0000 0.34050  0.30950  0.99530  Biso   1.000  H
  H51      1.0000 0.30610  0.20310  0.99020  Biso   1.000  H
  H52      1.0000 0.23200  0.20490  0.10630  Biso   1.000  H
  H53      1.0000 0.12220  0.69570  0.61260  Biso   1.000  H
  H54      1.0000 0.15950  0.69050  0.49530  Biso   1.000  H
  H55      1.0000 0.19390  0.79690  0.49020  Biso   1.000  H
  H56      1.0000 0.26800  0.79510  0.60630  Biso   1.000  H
  H57      1.0000 0.62220  0.80430  0.38740  Biso   1.000  H
  H58      1.0000 0.65950  0.80950  0.50470  Biso   1.000  H
  H59      1.0000 0.69390  0.70310  0.50980  Biso   1.000  H
  H60      1.0000 0.76800  0.70490  0.39370  Biso   1.000  H
  H61      1.0000 0.87780  0.19570  0.88740  Biso   1.000  H
  H62      1.0000 0.84050  0.19050  0.00470  Biso   1.000  H
  H63      1.0000 0.80610  0.29690  0.00980  Biso   1.000  H
  H64      1.0000 0.73200  0.29510  0.89370  Biso   1.000  H
  H65      1.0000 0.11260  0.37780  0.30430  Biso   1.000  H
  H66      1.0000 0.99530  0.34050  0.30950  Biso   1.000  H
  H67      1.0000 0.99020  0.30610  0.20310  Biso   1.000  H
  H68      1.0000 0.10630  0.23200  0.20490  Biso   1.000  H
  H69      1.0000 0.61260  0.12220  0.69570  Biso   1.000  H
  H70      1.0000 0.49530  0.15950  0.69050  Biso   1.000  H
  H71      1.0000 0.49020  0.19390  0.79690  Biso   1.000  H
  H72      1.0000 0.60630  0.26800  0.79510  Biso   1.000  H
  H73      1.0000 0.38740  0.62220  0.80430  Biso   1.000  H
  H74      1.0000 0.50470  0.65950  0.80950  Biso   1.000  H
  H75      1.0000 0.50980  0.69390  0.70310  Biso   1.000  H
  H76      1.0000 0.39370  0.76800  0.70490  Biso   1.000  H
  H77      1.0000 0.88740  0.87780  0.19570  Biso   1.000  H
  H78      1.0000 0.00470  0.84050  0.19050  Biso   1.000  H
  H79      1.0000 0.00980  0.80610  0.29690  Biso   1.000  H
  H80      1.0000 0.89370  0.73200  0.29510  Biso   1.000  H
  H81      1.0000 0.30430  0.11260  0.37780  Biso   1.000  H
  H82      1.0000 0.30950  0.99530  0.34050  Biso   1.000  H
  H83      1.0000 0.20310  0.99020  0.30610  Biso   1.000  H
  H84      1.0000 0.20490  0.10630  0.23200  Biso   1.000  H
  H85      1.0000 0.69570  0.61260  0.12220  Biso   1.000  H
  H86      1.0000 0.69050  0.49530  0.15950  Biso   1.000  H
  H87      1.0000 0.79690  0.49020  0.19390  Biso   1.000  H
  H88      1.0000 0.79510  0.60630  0.26800  Biso   1.000  H
  H89      1.0000 0.80430  0.38740  0.62220  Biso   1.000  H
  H90      1.0000 0.80950  0.50470  0.65950  Biso   1.000  H
  H91      1.0000 0.70310  0.50980  0.69390  Biso   1.000  H
  H92      1.0000 0.70490  0.39370  0.76800  Biso   1.000  H
  H93      1.0000 0.19570  0.88740  0.87780  Biso   1.000  H
  H94      1.0000 0.19050  0.00470  0.84050  Biso   1.000  H
  H95      1.0000 0.29690  0.00980  0.80610  Biso   1.000  H
  H96      1.0000 0.29510  0.89370  0.73200  Biso   1.000  H
  C1       1.0000 0.63530  0.73200  0.91570  Biso   1.000  C
  C2       1.0000 0.57410  0.76490  0.94280  Biso   1.000  C
  C3       1.0000 0.68200  0.70740  0.96590  Biso   1.000  C
  C4       1.0000 0.72230  0.65490  0.93220  Biso   1.000  C
  C5       1.0000 0.72040  0.76960  0.98080  Biso   1.000  C
  C6       1.0000 0.78590  0.75610  0.01500  Biso   1.000  C
  C7       1.0000 0.72620  0.80460  0.91480  Biso   1.000  C
  C8       1.0000 0.71500  0.87790  0.92080  Biso   1.000  C
  C9       1.0000 0.86470  0.26800  0.41570  Biso   1.000  C
  C10      1.0000 0.92590  0.23510  0.44280  Biso   1.000  C
  C11      1.0000 0.81800  0.29260  0.46590  Biso   1.000  C
  C12      1.0000 0.77770  0.34510  0.43220  Biso   1.000  C
  C13      1.0000 0.77960  0.23040  0.48080  Biso   1.000  C
  C14      1.0000 0.71410  0.24390  0.51500  Biso   1.000  C
  C15      1.0000 0.77380  0.19540  0.41480  Biso   1.000  C
  C16      1.0000 0.78500  0.12210  0.42080  Biso   1.000  C
  C17      1.0000 0.36470  0.23200  0.58430  Biso   1.000  C
  C18      1.0000 0.42590  0.26490  0.55720  Biso   1.000  C
  C19      1.0000 0.31800  0.20740  0.53410  Biso   1.000  C
  C20      1.0000 0.27770  0.15490  0.56780  Biso   1.000  C
  C21      1.0000 0.27960  0.26960  0.51920  Biso   1.000  C
  C22      1.0000 0.21410  0.25610  0.48500  Biso   1.000  C
  C23      1.0000 0.27380  0.30460  0.58520  Biso   1.000  C
  C24      1.0000 0.28500  0.37790  0.57920  Biso   1.000  C
  C25      1.0000 0.13530  0.76800  0.08430  Biso   1.000  C
  C26      1.0000 0.07410  0.73510  0.05720  Biso   1.000  C
  C27      1.0000 0.18200  0.79260  0.03410  Biso   1.000  C
  C28      1.0000 0.22230  0.84510  0.06780  Biso   1.000  C
  C29      1.0000 0.22040  0.73040  0.01920  Biso   1.000  C
  C30      1.0000 0.28590  0.74390  0.98500  Biso   1.000  C
  C31      1.0000 0.22620  0.69540  0.08520  Biso   1.000  C
  C32      1.0000 0.21500  0.62210  0.07920  Biso   1.000  C
  C33      1.0000 0.91570  0.63530  0.73200  Biso   1.000  C
  C34      1.0000 0.94280  0.57410  0.76490  Biso   1.000  C
  C35      1.0000 0.96590  0.68200  0.70740  Biso   1.000  C
  C36      1.0000 0.93220  0.72230  0.65490  Biso   1.000  C
  C37      1.0000 0.98080  0.72040  0.76960  Biso   1.000  C
  C38      1.0000 0.01500  0.78590  0.75610  Biso   1.000  C
  C39      1.0000 0.91480  0.72620  0.80460  Biso   1.000  C
  C40      1.0000 0.92080  0.71500  0.87790  Biso   1.000  C
  C41      1.0000 0.41570  0.86470  0.26800  Biso   1.000  C
  C42      1.0000 0.44280  0.92590  0.23510  Biso   1.000  C
  C43      1.0000 0.46590  0.81800  0.29260  Biso   1.000  C
  C44      1.0000 0.43220  0.77770  0.34510  Biso   1.000  C
  C45      1.0000 0.48080  0.77960  0.23040  Biso   1.000  C
  C46      1.0000 0.51500  0.71410  0.24390  Biso   1.000  C
  C47      1.0000 0.41480  0.77380  0.19540  Biso   1.000  C
  C48      1.0000 0.42080  0.78500  0.12210  Biso   1.000  C
  C49      1.0000 0.58430  0.36470  0.23200  Biso   1.000  C
  C50      1.0000 0.55720  0.42590  0.26490  Biso   1.000  C
  C51      1.0000 0.53410  0.31800  0.20740  Biso   1.000  C
  C52      1.0000 0.56780  0.27770  0.15490  Biso   1.000  C
  C53      1.0000 0.51920  0.27960  0.26960  Biso   1.000  C
  C54      1.0000 0.48500  0.21410  0.25610  Biso   1.000  C
  C55      1.0000 0.58520  0.27380  0.30460  Biso   1.000  C
  C56      1.0000 0.57920  0.28500  0.37790  Biso   1.000  C
  C57      1.0000 0.08430  0.13530  0.76800  Biso   1.000  C
  C58      1.0000 0.05720  0.07410  0.73510  Biso   1.000  C
  C59      1.0000 0.03410  0.18200  0.79260  Biso   1.000  C
  C60      1.0000 0.06780  0.22230  0.84510  Biso   1.000  C
  C61      1.0000 0.01920  0.22040  0.73040  Biso   1.000  C
  C62      1.0000 0.98500  0.28590  0.74390  Biso   1.000  C
  C63      1.0000 0.08520  0.22620  0.69540  Biso   1.000  C
  C64      1.0000 0.07920  0.21500  0.62210  Biso   1.000  C
  C65      1.0000 0.73200  0.91570  0.63530  Biso   1.000  C
  C66      1.0000 0.76490  0.94280  0.57410  Biso   1.000  C
  C67      1.0000 0.70740  0.96590  0.68200  Biso   1.000  C
  C68      1.0000 0.65490  0.93220  0.72230  Biso   1.000  C
  C69      1.0000 0.76960  0.98080  0.72040  Biso   1.000  C
  C70      1.0000 0.75610  0.01500  0.78590  Biso   1.000  C
  C71      1.0000 0.80460  0.91480  0.72620  Biso   1.000  C
  C72      1.0000 0.87790  0.92080  0.71500  Biso   1.000  C
  C73      1.0000 0.26800  0.41570  0.86470  Biso   1.000  C
  C74      1.0000 0.23510  0.44280  0.92590  Biso   1.000  C
  C75      1.0000 0.29260  0.46590  0.81800  Biso   1.000  C
  C76      1.0000 0.34510  0.43220  0.77770  Biso   1.000  C
  C77      1.0000 0.23040  0.48080  0.77960  Biso   1.000  C
  C78      1.0000 0.24390  0.51500  0.71410  Biso   1.000  C
  C79      1.0000 0.19540  0.41480  0.77380  Biso   1.000  C
  C80      1.0000 0.12210  0.42080  0.78500  Biso   1.000  C
  C81      1.0000 0.23200  0.58430  0.36470  Biso   1.000  C
  C82      1.0000 0.26490  0.55720  0.42590  Biso   1.000  C
  C83      1.0000 0.20740  0.53410  0.31800  Biso   1.000  C
  C84      1.0000 0.15490  0.56780  0.27770  Biso   1.000  C
  C85      1.0000 0.26960  0.51920  0.27960  Biso   1.000  C
  C86      1.0000 0.25610  0.48500  0.21410  Biso   1.000  C
  C87      1.0000 0.30460  0.58520  0.27380  Biso   1.000  C
  C88      1.0000 0.37790  0.57920  0.28500  Biso   1.000  C
  C89      1.0000 0.76800  0.08430  0.13530  Biso   1.000  C
  C90      1.0000 0.73510  0.05720  0.07410  Biso   1.000  C
  C91      1.0000 0.79260  0.03410  0.18200  Biso   1.000  C
  C92      1.0000 0.84510  0.06780  0.22230  Biso   1.000  C
  C93      1.0000 0.73040  0.01920  0.22040  Biso   1.000  C
  C94      1.0000 0.74390  0.98500  0.28590  Biso   1.000  C
  C95      1.0000 0.69540  0.08520  0.22620  Biso   1.000  C
  C96      1.0000 0.62210  0.07920  0.21500  Biso   1.000  C
  C97      1.0000 0.36470  0.26800  0.08430  Biso   1.000  C
  C98      1.0000 0.42590  0.23510  0.05720  Biso   1.000  C
  C99      1.0000 0.31800  0.29260  0.03410  Biso   1.000  C
  C100     1.0000 0.27770  0.34510  0.06780  Biso   1.000  C
  C101     1.0000 0.27960  0.23040  0.01920  Biso   1.000  C
  C102     1.0000 0.21410  0.24390  0.98500  Biso   1.000  C
  C103     1.0000 0.27380  0.19540  0.08520  Biso   1.000  C
  C104     1.0000 0.28500  0.12210  0.07920  Biso   1.000  C
  C105     1.0000 0.13530  0.73200  0.58430  Biso   1.000  C
  C106     1.0000 0.07410  0.76490  0.55720  Biso   1.000  C
  C107     1.0000 0.18200  0.70740  0.53410  Biso   1.000  C
  C108     1.0000 0.22230  0.65490  0.56780  Biso   1.000  C
  C109     1.0000 0.22040  0.76960  0.51920  Biso   1.000  C
  C110     1.0000 0.28590  0.75610  0.48500  Biso   1.000  C
  C111     1.0000 0.22620  0.80460  0.58520  Biso   1.000  C
  C112     1.0000 0.21500  0.87790  0.57920  Biso   1.000  C
  C113     1.0000 0.63530  0.76800  0.41570  Biso   1.000  C
  C114     1.0000 0.57410  0.73510  0.44280  Biso   1.000  C
  C115     1.0000 0.68200  0.79260  0.46590  Biso   1.000  C
  C116     1.0000 0.72230  0.84510  0.43220  Biso   1.000  C
  C117     1.0000 0.72040  0.73040  0.48080  Biso   1.000  C
  C118     1.0000 0.78590  0.74390  0.51500  Biso   1.000  C
  C119     1.0000 0.72620  0.69540  0.41480  Biso   1.000  C
  C120     1.0000 0.71500  0.62210  0.42080  Biso   1.000  C
  C121     1.0000 0.86470  0.23200  0.91570  Biso   1.000  C
  C122     1.0000 0.92590  0.26490  0.94280  Biso   1.000  C
  C123     1.0000 0.81800  0.20740  0.96590  Biso   1.000  C
  C124     1.0000 0.77770  0.15490  0.93220  Biso   1.000  C
  C125     1.0000 0.77960  0.26960  0.98080  Biso   1.000  C
  C126     1.0000 0.71410  0.25610  0.01500  Biso   1.000  C
  C127     1.0000 0.77380  0.30460  0.91480  Biso   1.000  C
  C128     1.0000 0.78500  0.37790  0.92080  Biso   1.000  C
  C129     1.0000 0.08430  0.36470  0.26800  Biso   1.000  C
  C130     1.0000 0.05720  0.42590  0.23510  Biso   1.000  C
  C131     1.0000 0.03410  0.31800  0.29260  Biso   1.000  C
  C132     1.0000 0.06780  0.27770  0.34510  Biso   1.000  C
  C133     1.0000 0.01920  0.27960  0.23040  Biso   1.000  C
  C134     1.0000 0.98500  0.21410  0.24390  Biso   1.000  C
  C135     1.0000 0.08520  0.27380  0.19540  Biso   1.000  C
  C136     1.0000 0.07920  0.28500  0.12210  Biso   1.000  C
  C137     1.0000 0.58430  0.13530  0.73200  Biso   1.000  C
  C138     1.0000 0.55720  0.07410  0.76490  Biso   1.000  C
  C139     1.0000 0.53410  0.18200  0.70740  Biso   1.000  C
  C140     1.0000 0.56780  0.22230  0.65490  Biso   1.000  C
  C141     1.0000 0.51920  0.22040  0.76960  Biso   1.000  C
  C142     1.0000 0.48500  0.28590  0.75610  Biso   1.000  C
  C143     1.0000 0.58520  0.22620  0.80460  Biso   1.000  C
  C144     1.0000 0.57920  0.21500  0.87790  Biso   1.000  C
  C145     1.0000 0.41570  0.63530  0.76800  Biso   1.000  C
  C146     1.0000 0.44280  0.57410  0.73510  Biso   1.000  C
  C147     1.0000 0.46590  0.68200  0.79260  Biso   1.000  C
  C148     1.0000 0.43220  0.72230  0.84510  Biso   1.000  C
  C149     1.0000 0.48080  0.72040  0.73040  Biso   1.000  C
  C150     1.0000 0.51500  0.78590  0.74390  Biso   1.000  C
  C151     1.0000 0.41480  0.72620  0.69540  Biso   1.000  C
  C152     1.0000 0.42080  0.71500  0.62210  Biso   1.000  C
  C153     1.0000 0.91570  0.86470  0.23200  Biso   1.000  C
  C154     1.0000 0.94280  0.92590  0.26490  Biso   1.000  C
  C155     1.0000 0.96590  0.81800  0.20740  Biso   1.000  C
  C156     1.0000 0.93220  0.77770  0.15490  Biso   1.000  C
  C157     1.0000 0.98080  0.77960  0.26960  Biso   1.000  C
  C158     1.0000 0.01500  0.71410  0.25610  Biso   1.000  C
  C159     1.0000 0.91480  0.77380  0.30460  Biso   1.000  C
  C160     1.0000 0.92080  0.78500  0.37790  Biso   1.000  C
  C161     1.0000 0.26800  0.08430  0.36470  Biso   1.000  C
  C162     1.0000 0.23510  0.05720  0.42590  Biso   1.000  C
  C163     1.0000 0.29260  0.03410  0.31800  Biso   1.000  C
  C164     1.0000 0.34510  0.06780  0.27770  Biso   1.000  C
  C165     1.0000 0.23040  0.01920  0.27960  Biso   1.000  C
  C166     1.0000 0.24390  0.98500  0.21410  Biso   1.000  C
  C167     1.0000 0.19540  0.08520  0.27380  Biso   1.000  C
  C168     1.0000 0.12210  0.07920  0.28500  Biso   1.000  C
  C169     1.0000 0.73200  0.58430  0.13530  Biso   1.000  C
  C170     1.0000 0.76490  0.55720  0.07410  Biso   1.000  C
  C171     1.0000 0.70740  0.53410  0.18200  Biso   1.000  C
  C172     1.0000 0.65490  0.56780  0.22230  Biso   1.000  C
  C173     1.0000 0.76960  0.51920  0.22040  Biso   1.000  C
  C174     1.0000 0.75610  0.48500  0.28590  Biso   1.000  C
  C175     1.0000 0.80460  0.58520  0.22620  Biso   1.000  C
  C176     1.0000 0.87790  0.57920  0.21500  Biso   1.000  C
  C177     1.0000 0.76800  0.41570  0.63530  Biso   1.000  C
  C178     1.0000 0.73510  0.44280  0.57410  Biso   1.000  C
  C179     1.0000 0.79260  0.46590  0.68200  Biso   1.000  C
  C180     1.0000 0.84510  0.43220  0.72230  Biso   1.000  C
  C181     1.0000 0.73040  0.48080  0.72040  Biso   1.000  C
  C182     1.0000 0.74390  0.51500  0.78590  Biso   1.000  C
  C183     1.0000 0.69540  0.41480  0.72620  Biso   1.000  C
  C184     1.0000 0.62210  0.42080  0.71500  Biso   1.000  C
  C185     1.0000 0.23200  0.91570  0.86470  Biso   1.000  C
  C186     1.0000 0.26490  0.94280  0.92590  Biso   1.000  C
  C187     1.0000 0.20740  0.96590  0.81800  Biso   1.000  C
  C188     1.0000 0.15490  0.93220  0.77770  Biso   1.000  C
  C189     1.0000 0.26960  0.98080  0.77960  Biso   1.000  C
  C190     1.0000 0.25610  0.01500  0.71410  Biso   1.000  C
  C191     1.0000 0.30460  0.91480  0.77380  Biso   1.000  C
  C192     1.0000 0.37790  0.92080  0.78500  Biso   1.000  C
  O1       1.0000 0.67170  0.78010  0.87660  Biso   1.000  O
  O2       1.0000 0.55640  0.81440  0.91350  Biso   1.000  O
  O3       1.0000 0.54310  0.73680  0.98620  Biso   1.000  O
  O4       1.0000 0.70180  0.59490  0.94380  Biso   1.000  O
  O5       1.0000 0.76730  0.66830  0.89790  Biso   1.000  O
  O6       1.0000 0.78050  0.72240  0.06570  Biso   1.000  O
  O7       1.0000 0.83900  0.77740  0.99300  Biso   1.000  O
  O8       1.0000 0.75890  0.91250  0.94800  Biso   1.000  O
  O9       1.0000 0.66330  0.90260  0.90180  Biso   1.000  O
  O10      1.0000 0.54370  0.92150  0.84140  Biso   1.000  O
  O11      1.0000 0.82830  0.21990  0.37660  Biso   1.000  O
  O12      1.0000 0.94360  0.18560  0.41350  Biso   1.000  O
  O13      1.0000 0.95690  0.26320  0.48620  Biso   1.000  O
  O14      1.0000 0.79820  0.40510  0.44380  Biso   1.000  O
  O15      1.0000 0.73270  0.33170  0.39790  Biso   1.000  O
  O16      1.0000 0.71950  0.27760  0.56570  Biso   1.000  O
  O17      1.0000 0.66100  0.22260  0.49300  Biso   1.000  O
  O18      1.0000 0.74110  0.08750  0.44800  Biso   1.000  O
  O19      1.0000 0.83670  0.09740  0.40180  Biso   1.000  O
  O20      1.0000 0.95630  0.07850  0.34140  Biso   1.000  O
  O21      1.0000 0.32830  0.28010  0.62340  Biso   1.000  O
  O22      1.0000 0.44360  0.31440  0.58650  Biso   1.000  O
  O23      1.0000 0.45690  0.23680  0.51380  Biso   1.000  O
  O24      1.0000 0.29820  0.09490  0.55620  Biso   1.000  O
  O25      1.0000 0.23270  0.16830  0.60210  Biso   1.000  O
  O26      1.0000 0.21950  0.22240  0.43430  Biso   1.000  O
  O27      1.0000 0.16100  0.27740  0.50700  Biso   1.000  O
  O28      1.0000 0.24110  0.41250  0.55200  Biso   1.000  O
  O29      1.0000 0.33670  0.40260  0.59820  Biso   1.000  O
  O30      1.0000 0.45630  0.42150  0.65860  Biso   1.000  O
  O31      1.0000 0.17170  0.71990  0.12340  Biso   1.000  O
  O32      1.0000 0.05640  0.68560  0.08650  Biso   1.000  O
  O33      1.0000 0.04310  0.76320  0.01380  Biso   1.000  O
  O34      1.0000 0.20180  0.90510  0.05620  Biso   1.000  O
  O35      1.0000 0.26730  0.83170  0.10210  Biso   1.000  O
  O36      1.0000 0.28050  0.77760  0.93430  Biso   1.000  O
  O37      1.0000 0.33900  0.72260  0.00700  Biso   1.000  O
  O38      1.0000 0.25890  0.58750  0.05200  Biso   1.000  O
  O39      1.0000 0.16330  0.59740  0.09820  Biso   1.000  O
  O40      1.0000 0.04370  0.57850  0.15860  Biso   1.000  O
  O41      1.0000 0.87660  0.67170  0.78010  Biso   1.000  O
  O42      1.0000 0.91350  0.55640  0.81440  Biso   1.000  O
  O43      1.0000 0.98620  0.54310  0.73680  Biso   1.000  O
  O44      1.0000 0.94380  0.70180  0.59490  Biso   1.000  O
  O45      1.0000 0.89790  0.76730  0.66830  Biso   1.000  O
  O46      1.0000 0.06570  0.78050  0.72240  Biso   1.000  O
  O47      1.0000 0.99300  0.83900  0.77740  Biso   1.000  O
  O48      1.0000 0.94800  0.75890  0.91250  Biso   1.000  O
  O49      1.0000 0.90180  0.66330  0.90260  Biso   1.000  O
  O50      1.0000 0.84140  0.54370  0.92150  Biso   1.000  O
  O51      1.0000 0.37660  0.82830  0.21990  Biso   1.000  O
  O52      1.0000 0.41350  0.94360  0.18560  Biso   1.000  O
  O53      1.0000 0.48620  0.95690  0.26320  Biso   1.000  O
  O54      1.0000 0.44380  0.79820  0.40510  Biso   1.000  O
  O55      1.0000 0.39790  0.73270  0.33170  Biso   1.000  O
  O56      1.0000 0.56570  0.71950  0.27760  Biso   1.000  O
  O57      1.0000 0.49300  0.66100  0.22260  Biso   1.000  O
  O58      1.0000 0.44800  0.74110  0.08750  Biso   1.000  O
  O59      1.0000 0.40180  0.83670  0.09740  Biso   1.000  O
  O60      1.0000 0.34140  0.95630  0.07850  Biso   1.000  O
  O61      1.0000 0.62340  0.32830  0.28010  Biso   1.000  O
  O62      1.0000 0.58650  0.44360  0.31440  Biso   1.000  O
  O63      1.0000 0.51380  0.45690  0.23680  Biso   1.000  O
  O64      1.0000 0.55620  0.29820  0.09490  Biso   1.000  O
  O65      1.0000 0.60210  0.23270  0.16830  Biso   1.000  O
  O66      1.0000 0.43430  0.21950  0.22240  Biso   1.000  O
  O67      1.0000 0.50700  0.16100  0.27740  Biso   1.000  O
  O68      1.0000 0.55200  0.24110  0.41250  Biso   1.000  O
  O69      1.0000 0.59820  0.33670  0.40260  Biso   1.000  O
  O70      1.0000 0.65860  0.45630  0.42150  Biso   1.000  O
  O71      1.0000 0.12340  0.17170  0.71990  Biso   1.000  O
  O72      1.0000 0.08650  0.05640  0.68560  Biso   1.000  O
  O73      1.0000 0.01380  0.04310  0.76320  Biso   1.000  O
  O74      1.0000 0.05620  0.20180  0.90510  Biso   1.000  O
  O75      1.0000 0.10210  0.26730  0.83170  Biso   1.000  O
  O76      1.0000 0.93430  0.28050  0.77760  Biso   1.000  O
  O77      1.0000 0.00700  0.33900  0.72260  Biso   1.000  O
  O78      1.0000 0.05200  0.25890  0.58750  Biso   1.000  O
  O79      1.0000 0.09820  0.16330  0.59740  Biso   1.000  O
  O80      1.0000 0.15860  0.04370  0.57850  Biso   1.000  O
  O81      1.0000 0.78010  0.87660  0.67170  Biso   1.000  O
  O82      1.0000 0.81440  0.91350  0.55640  Biso   1.000  O
  O83      1.0000 0.73680  0.98620  0.54310  Biso   1.000  O
  O84      1.0000 0.59490  0.94380  0.70180  Biso   1.000  O
  O85      1.0000 0.66830  0.89790  0.76730  Biso   1.000  O
  O86      1.0000 0.72240  0.06570  0.78050  Biso   1.000  O
  O87      1.0000 0.77740  0.99300  0.83900  Biso   1.000  O
  O88      1.0000 0.91250  0.94800  0.75890  Biso   1.000  O
  O89      1.0000 0.90260  0.90180  0.66330  Biso   1.000  O
  O90      1.0000 0.92150  0.84140  0.54370  Biso   1.000  O
  O91      1.0000 0.21990  0.37660  0.82830  Biso   1.000  O
  O92      1.0000 0.18560  0.41350  0.94360  Biso   1.000  O
  O93      1.0000 0.26320  0.48620  0.95690  Biso   1.000  O
  O94      1.0000 0.40510  0.44380  0.79820  Biso   1.000  O
  O95      1.0000 0.33170  0.39790  0.73270  Biso   1.000  O
  O96      1.0000 0.27760  0.56570  0.71950  Biso   1.000  O
  O97      1.0000 0.22260  0.49300  0.66100  Biso   1.000  O
  O98      1.0000 0.08750  0.44800  0.74110  Biso   1.000  O
  O99      1.0000 0.09740  0.40180  0.83670  Biso   1.000  O
  O100     1.0000 0.07850  0.34140  0.95630  Biso   1.000  O
  O101     1.0000 0.28010  0.62340  0.32830  Biso   1.000  O
  O102     1.0000 0.31440  0.58650  0.44360  Biso   1.000  O
  O103     1.0000 0.23680  0.51380  0.45690  Biso   1.000  O
  O104     1.0000 0.09490  0.55620  0.29820  Biso   1.000  O
  O105     1.0000 0.16830  0.60210  0.23270  Biso   1.000  O
  O106     1.0000 0.22240  0.43430  0.21950  Biso   1.000  O
  O107     1.0000 0.27740  0.50700  0.16100  Biso   1.000  O
  O108     1.0000 0.41250  0.55200  0.24110  Biso   1.000  O
  O109     1.0000 0.40260  0.59820  0.33670  Biso   1.000  O
  O110     1.0000 0.42150  0.65860  0.45630  Biso   1.000  O
  O111     1.0000 0.71990  0.12340  0.17170  Biso   1.000  O
  O112     1.0000 0.68560  0.08650  0.05640  Biso   1.000  O
  O113     1.0000 0.76320  0.01380  0.04310  Biso   1.000  O
  O114     1.0000 0.90510  0.05620  0.20180  Biso   1.000  O
  O115     1.0000 0.83170  0.10210  0.26730  Biso   1.000  O
  O116     1.0000 0.77760  0.93430  0.28050  Biso   1.000  O
  O117     1.0000 0.72260  0.00700  0.33900  Biso   1.000  O
  O118     1.0000 0.58750  0.05200  0.25890  Biso   1.000  O
  O119     1.0000 0.59740  0.09820  0.16330  Biso   1.000  O
  O120     1.0000 0.57850  0.15860  0.04370  Biso   1.000  O
  O121     1.0000 0.32830  0.21990  0.12340  Biso   1.000  O
  O122     1.0000 0.44360  0.18560  0.08650  Biso   1.000  O
  O123     1.0000 0.45690  0.26320  0.01380  Biso   1.000  O
  O124     1.0000 0.29820  0.40510  0.05620  Biso   1.000  O
  O125     1.0000 0.23270  0.33170  0.10210  Biso   1.000  O
  O126     1.0000 0.21950  0.27760  0.93430  Biso   1.000  O
  O127     1.0000 0.16100  0.22260  0.00700  Biso   1.000  O
  O128     1.0000 0.24110  0.08750  0.05200  Biso   1.000  O
  O129     1.0000 0.33670  0.09740  0.09820  Biso   1.000  O
  O130     1.0000 0.45630  0.07850  0.15860  Biso   1.000  O
  O131     1.0000 0.17170  0.78010  0.62340  Biso   1.000  O
  O132     1.0000 0.05640  0.81440  0.58650  Biso   1.000  O
  O133     1.0000 0.04310  0.73680  0.51380  Biso   1.000  O
  O134     1.0000 0.20180  0.59490  0.55620  Biso   1.000  O
  O135     1.0000 0.26730  0.66830  0.60210  Biso   1.000  O
  O136     1.0000 0.28050  0.72240  0.43430  Biso   1.000  O
  O137     1.0000 0.33900  0.77740  0.50700  Biso   1.000  O
  O138     1.0000 0.25890  0.91250  0.55200  Biso   1.000  O
  O139     1.0000 0.16330  0.90260  0.59820  Biso   1.000  O
  O140     1.0000 0.04370  0.92150  0.65860  Biso   1.000  O
  O141     1.0000 0.67170  0.71990  0.37660  Biso   1.000  O
  O142     1.0000 0.55640  0.68560  0.41350  Biso   1.000  O
  O143     1.0000 0.54310  0.76320  0.48620  Biso   1.000  O
  O144     1.0000 0.70180  0.90510  0.44380  Biso   1.000  O
  O145     1.0000 0.76730  0.83170  0.39790  Biso   1.000  O
  O146     1.0000 0.78050  0.77760  0.56570  Biso   1.000  O
  O147     1.0000 0.83900  0.72260  0.49300  Biso   1.000  O
  O148     1.0000 0.75890  0.58750  0.44800  Biso   1.000  O
  O149     1.0000 0.66330  0.59740  0.40180  Biso   1.000  O
  O150     1.0000 0.54370  0.57850  0.34140  Biso   1.000  O
  O151     1.0000 0.82830  0.28010  0.87660  Biso   1.000  O
  O152     1.0000 0.94360  0.31440  0.91350  Biso   1.000  O
  O153     1.0000 0.95690  0.23680  0.98620  Biso   1.000  O
  O154     1.0000 0.79820  0.09490  0.94380  Biso   1.000  O
  O155     1.0000 0.73270  0.16830  0.89790  Biso   1.000  O
  O156     1.0000 0.71950  0.22240  0.06570  Biso   1.000  O
  O157     1.0000 0.66100  0.27740  0.99300  Biso   1.000  O
  O158     1.0000 0.74110  0.41250  0.94800  Biso   1.000  O
  O159     1.0000 0.83670  0.40260  0.90180  Biso   1.000  O
  O160     1.0000 0.95630  0.42150  0.84140  Biso   1.000  O
  O161     1.0000 0.12340  0.32830  0.21990  Biso   1.000  O
  O162     1.0000 0.08650  0.44360  0.18560  Biso   1.000  O
  O163     1.0000 0.01380  0.45690  0.26320  Biso   1.000  O
  O164     1.0000 0.05620  0.29820  0.40510  Biso   1.000  O
  O165     1.0000 0.10210  0.23270  0.33170  Biso   1.000  O
  O166     1.0000 0.93430  0.21950  0.27760  Biso   1.000  O
  O167     1.0000 0.00700  0.16100  0.22260  Biso   1.000  O
  O168     1.0000 0.05200  0.24110  0.08750  Biso   1.000  O
  O169     1.0000 0.09820  0.33670  0.09740  Biso   1.000  O
  O170     1.0000 0.15860  0.45630  0.07850  Biso   1.000  O
  O171     1.0000 0.62340  0.17170  0.78010  Biso   1.000  O
  O172     1.0000 0.58650  0.05640  0.81440  Biso   1.000  O
  O173     1.0000 0.51380  0.04310  0.73680  Biso   1.000  O
  O174     1.0000 0.55620  0.20180  0.59490  Biso   1.000  O
  O175     1.0000 0.60210  0.26730  0.66830  Biso   1.000  O
  O176     1.0000 0.43430  0.28050  0.72240  Biso   1.000  O
  O177     1.0000 0.50700  0.33900  0.77740  Biso   1.000  O
  O178     1.0000 0.55200  0.25890  0.91250  Biso   1.000  O
  O179     1.0000 0.59820  0.16330  0.90260  Biso   1.000  O
  O180     1.0000 0.65860  0.04370  0.92150  Biso   1.000  O
  O181     1.0000 0.37660  0.67170  0.71990  Biso   1.000  O
  O182     1.0000 0.41350  0.55640  0.68560  Biso   1.000  O
  O183     1.0000 0.48620  0.54310  0.76320  Biso   1.000  O
  O184     1.0000 0.44380  0.70180  0.90510  Biso   1.000  O
  O185     1.0000 0.39790  0.76730  0.83170  Biso   1.000  O
  O186     1.0000 0.56570  0.78050  0.77760  Biso   1.000  O
  O187     1.0000 0.49300  0.83900  0.72260  Biso   1.000  O
  O188     1.0000 0.44800  0.75890  0.58750  Biso   1.000  O
  O189     1.0000 0.40180  0.66330  0.59740  Biso   1.000  O
  O190     1.0000 0.34140  0.54370  0.57850  Biso   1.000  O
  O191     1.0000 0.87660  0.82830  0.28010  Biso   1.000  O
  O192     1.0000 0.91350  0.94360  0.31440  Biso   1.000  O
  O193     1.0000 0.98620  0.95690  0.23680  Biso   1.000  O
  O194     1.0000 0.94380  0.79820  0.09490  Biso   1.000  O
  O195     1.0000 0.89790  0.73270  0.16830  Biso   1.000  O
  O196     1.0000 0.06570  0.71950  0.22240  Biso   1.000  O
  O197     1.0000 0.99300  0.66100  0.27740  Biso   1.000  O
  O198     1.0000 0.94800  0.74110  0.41250  Biso   1.000  O
  O199     1.0000 0.90180  0.83670  0.40260  Biso   1.000  O
  O200     1.0000 0.84140  0.95630  0.42150  Biso   1.000  O
  O201     1.0000 0.21990  0.12340  0.32830  Biso   1.000  O
  O202     1.0000 0.18560  0.08650  0.44360  Biso   1.000  O
  O203     1.0000 0.26320  0.01380  0.45690  Biso   1.000  O
  O204     1.0000 0.40510  0.05620  0.29820  Biso   1.000  O
  O205     1.0000 0.33170  0.10210  0.23270  Biso   1.000  O
  O206     1.0000 0.27760  0.93430  0.21950  Biso   1.000  O
  O207     1.0000 0.22260  0.00700  0.16100  Biso   1.000  O
  O208     1.0000 0.08750  0.05200  0.24110  Biso   1.000  O
  O209     1.0000 0.09740  0.09820  0.33670  Biso   1.000  O
  O210     1.0000 0.07850  0.15860  0.45630  Biso   1.000  O
  O211     1.0000 0.78010  0.62340  0.17170  Biso   1.000  O
  O212     1.0000 0.81440  0.58650  0.05640  Biso   1.000  O
  O213     1.0000 0.73680  0.51380  0.04310  Biso   1.000  O
  O214     1.0000 0.59490  0.55620  0.20180  Biso   1.000  O
  O215     1.0000 0.66830  0.60210  0.26730  Biso   1.000  O
  O216     1.0000 0.72240  0.43430  0.28050  Biso   1.000  O
  O217     1.0000 0.77740  0.50700  0.33900  Biso   1.000  O
  O218     1.0000 0.91250  0.55200  0.25890  Biso   1.000  O
  O219     1.0000 0.90260  0.59820  0.16330  Biso   1.000  O
  O220     1.0000 0.92150  0.65860  0.04370  Biso   1.000  O
  O221     1.0000 0.71990  0.37660  0.67170  Biso   1.000  O
  O222     1.0000 0.68560  0.41350  0.55640  Biso   1.000  O
  O223     1.0000 0.76320  0.48620  0.54310  Biso   1.000  O
  O224     1.0000 0.90510  0.44380  0.70180  Biso   1.000  O
  O225     1.0000 0.83170  0.39790  0.76730  Biso   1.000  O
  O226     1.0000 0.77760  0.56570  0.78050  Biso   1.000  O
  O227     1.0000 0.72260  0.49300  0.83900  Biso   1.000  O
  O228     1.0000 0.58750  0.44800  0.75890  Biso   1.000  O
  O229     1.0000 0.59740  0.40180  0.66330  Biso   1.000  O
  O230     1.0000 0.57850  0.34140  0.54370  Biso   1.000  O
  O231     1.0000 0.28010  0.87660  0.82830  Biso   1.000  O
  O232     1.0000 0.31440  0.91350  0.94360  Biso   1.000  O
  O233     1.0000 0.23680  0.98620  0.95690  Biso   1.000  O
  O234     1.0000 0.09490  0.94380  0.79820  Biso   1.000  O
  O235     1.0000 0.16830  0.89790  0.73270  Biso   1.000  O
  O236     1.0000 0.22240  0.06570  0.71950  Biso   1.000  O
  O237     1.0000 0.27740  0.99300  0.66100  Biso   1.000  O
  O238     1.0000 0.41250  0.94800  0.74110  Biso   1.000  O
  O239     1.0000 0.40260  0.90180  0.83670  Biso   1.000  O
  O240     1.0000 0.42150  0.84140  0.95630  Biso   1.000  O
