data_image0
_cell_length_a       15.7125
_cell_length_b       15.7125
_cell_length_c       26.1359
_cell_angle_alpha    107.493
_cell_angle_beta     107.493
_cell_angle_gamma    90

_symmetry_space_group_name_H-M    P 1
_symmetry_int_tables_number       1

loop_
  _symmetry_equiv_pos_as_xyz
  'x, y, z'

loop_
  _atom_site_label
  _atom_site_occupancy
  _atom_site_fract_x
  _atom_site_fract_y
  _atom_site_fract_z
  _atom_site_thermal_displace_type
  _atom_site_B_iso_or_equiv
  _atom_site_type_symbol
  Cu1      1.0000 0.30330  0.29646  0.71826  Biso   1.000  Cu
  Cu2      1.0000 0.41496  0.42180  0.71826  Biso   1.000  Cu
  Cu3      1.0000 0.54646  0.16496  0.21826  Biso   1.000  Cu
  Cu4      1.0000 0.67180  0.05330  0.21826  Biso   1.000  Cu
  Cu5      1.0000 0.83504  0.45354  0.78174  Biso   1.000  Cu
  Cu6      1.0000 0.94670  0.32820  0.78174  Biso   1.000  Cu
  Cu7      1.0000 0.57820  0.58504  0.28174  Biso   1.000  Cu
  Cu8      1.0000 0.70354  0.69670  0.28174  Biso   1.000  Cu
  H1       1.0000 0.40270  0.60690  0.87860  Biso   1.000  H
  H2       1.0000 0.00750  0.64180  0.93760  Biso   1.000  H
  H3       1.0000 0.15740  0.47270  0.82000  Biso   1.000  H
  H4       1.0000 0.36910  0.70070  0.95280  Biso   1.000  H
  H5       1.0000 0.47590  0.27170  0.87860  Biso   1.000  H
  H6       1.0000 0.93010  0.29580  0.93760  Biso   1.000  H
  H7       1.0000 0.66260  0.34730  0.82000  Biso   1.000  H
  H8       1.0000 0.58370  0.25210  0.95280  Biso   1.000  H
  H9       1.0000 0.85690  0.22590  0.37860  Biso   1.000  H
  H10      1.0000 0.89180  0.68010  0.43760  Biso   1.000  H
  H11      1.0000 0.72270  0.41260  0.32000  Biso   1.000  H
  H12      1.0000 0.95070  0.33370  0.45280  Biso   1.000  H
  H13      1.0000 0.52170  0.15270  0.37860  Biso   1.000  H
  H14      1.0000 0.54580  0.75750  0.43760  Biso   1.000  H
  H15      1.0000 0.59730  0.90740  0.32000  Biso   1.000  H
  H16      1.0000 0.50210  0.11910  0.45280  Biso   1.000  H
  H17      1.0000 0.77410  0.14310  0.62140  Biso   1.000  H
  H18      1.0000 0.31990  0.10820  0.56240  Biso   1.000  H
  H19      1.0000 0.58740  0.27730  0.68000  Biso   1.000  H
  H20      1.0000 0.66630  0.04930  0.54720  Biso   1.000  H
  H21      1.0000 0.84730  0.47830  0.62140  Biso   1.000  H
  H22      1.0000 0.24250  0.45420  0.56240  Biso   1.000  H
  H23      1.0000 0.09260  0.40270  0.68000  Biso   1.000  H
  H24      1.0000 0.88090  0.49790  0.54720  Biso   1.000  H
  H25      1.0000 0.72830  0.52410  0.12140  Biso   1.000  H
  H26      1.0000 0.70420  0.06990  0.06240  Biso   1.000  H
  H27      1.0000 0.65270  0.33740  0.18000  Biso   1.000  H
  H28      1.0000 0.74790  0.41630  0.04720  Biso   1.000  H
  H29      1.0000 0.39310  0.59730  0.12140  Biso   1.000  H
  H30      1.0000 0.35820  0.99250  0.06240  Biso   1.000  H
  H31      1.0000 0.52730  0.84260  0.18000  Biso   1.000  H
  H32      1.0000 0.29930  0.63090  0.04720  Biso   1.000  H
  C1       1.0000 0.34630  0.59980  0.88220  Biso   1.000  C
  C2       1.0000 0.28274  0.52974  0.84188  Biso   1.000  C
  C3       1.0000 0.08757  0.57747  0.89574  Biso   1.000  C
  C4       1.0000 0.21757  0.71207  0.97694  Biso   1.000  C
  C5       1.0000 0.17446  0.58026  0.89092  Biso   1.000  C
  C6       1.0000 0.23983  0.65123  0.93226  Biso   1.000  C
  C7       1.0000 0.13063  0.70773  0.97826  Biso   1.000  C
  C8       1.0000 0.06645  0.64205  0.93710  Biso   1.000  C
  C9       1.0000 0.01322  0.50712  0.85464  Biso   1.000  C
  C10      1.0000 0.19870  0.51960  0.84640  Biso   1.000  C
  C11      1.0000 0.32536  0.65656  0.92592  Biso   1.000  C
  C12      1.0000 0.30864  0.46634  0.79468  Biso   1.000  C
  C13      1.0000 0.12925  0.19495  0.68910  Biso   1.000  C
  C14      1.0000 0.02230  0.80300  0.01280  Biso   1.000  C
  C15      1.0000 0.02300  0.88850  0.05780  Biso   1.000  C
  C16      1.0000 0.97750  0.12220  0.65240  Biso   1.000  C
  C17      1.0000 0.95280  0.11480  0.58960  Biso   1.000  C
  C18      1.0000 0.12040  0.02740  0.58880  Biso   1.000  C
  C19      1.0000 0.10540  0.03210  0.64480  Biso   1.000  C
  C20      1.0000 0.53590  0.28240  0.88220  Biso   1.000  C
  C21      1.0000 0.55914  0.31214  0.84188  Biso   1.000  C
  C22      1.0000 0.80817  0.31827  0.89574  Biso   1.000  C
  C23      1.0000 0.75937  0.26487  0.97694  Biso   1.000  C
  C24      1.0000 0.71646  0.31066  0.89092  Biso   1.000  C
  C25      1.0000 0.69243  0.28103  0.93226  Biso   1.000  C
  C26      1.0000 0.84763  0.27053  0.97826  Biso   1.000  C
  C27      1.0000 0.87065  0.29505  0.93710  Biso   1.000  C
  C28      1.0000 0.84142  0.34752  0.85464  Biso   1.000  C
  C29      1.0000 0.64770  0.32680  0.84640  Biso   1.000  C
  C30      1.0000 0.60056  0.26936  0.92592  Biso   1.000  C
  C31      1.0000 0.48604  0.32834  0.79468  Biso   1.000  C
  C32      1.0000 0.55985  0.49415  0.68910  Biso   1.000  C
  C33      1.0000 0.99050  0.20980  0.01280  Biso   1.000  C
  C34      1.0000 0.03480  0.16930  0.05780  Biso   1.000  C
  C35      1.0000 0.67490  0.53020  0.65240  Biso   1.000  C
  C36      1.0000 0.63680  0.47480  0.58960  Biso   1.000  C
  C37      1.0000 0.46840  0.56140  0.58880  Biso   1.000  C
  C38      1.0000 0.53940  0.61270  0.64480  Biso   1.000  C
  C39      1.0000 0.84980  0.28590  0.38220  Biso   1.000  C
  C40      1.0000 0.77974  0.30914  0.34188  Biso   1.000  C
  C41      1.0000 0.82747  0.55817  0.39574  Biso   1.000  C
  C42      1.0000 0.96207  0.50937  0.47694  Biso   1.000  C
  C43      1.0000 0.83026  0.46646  0.39092  Biso   1.000  C
  C44      1.0000 0.90123  0.44243  0.43226  Biso   1.000  C
  C45      1.0000 0.95773  0.59763  0.47826  Biso   1.000  C
  C46      1.0000 0.89205  0.62065  0.43710  Biso   1.000  C
  C47      1.0000 0.75712  0.59142  0.35464  Biso   1.000  C
  C48      1.0000 0.76960  0.39770  0.34640  Biso   1.000  C
  C49      1.0000 0.90656  0.35056  0.42592  Biso   1.000  C
  C50      1.0000 0.71634  0.23604  0.29468  Biso   1.000  C
  C51      1.0000 0.44495  0.30985  0.18910  Biso   1.000  C
  C52      1.0000 0.05300  0.74050  0.51280  Biso   1.000  C
  C53      1.0000 0.13850  0.78480  0.55780  Biso   1.000  C
  C54      1.0000 0.37220  0.42490  0.15240  Biso   1.000  C
  C55      1.0000 0.36480  0.38680  0.08960  Biso   1.000  C
  C56      1.0000 0.27740  0.21840  0.08880  Biso   1.000  C
  C57      1.0000 0.28210  0.28940  0.14480  Biso   1.000  C
  C58      1.0000 0.53240  0.09630  0.38220  Biso   1.000  C
  C59      1.0000 0.56214  0.03274  0.34188  Biso   1.000  C
  C60      1.0000 0.56827  0.83757  0.39574  Biso   1.000  C
  C61      1.0000 0.51487  0.96757  0.47694  Biso   1.000  C
  C62      1.0000 0.56066  0.92446  0.39092  Biso   1.000  C
  C63      1.0000 0.53103  0.98983  0.43226  Biso   1.000  C
  C64      1.0000 0.52053  0.88063  0.47826  Biso   1.000  C
  C65      1.0000 0.54505  0.81645  0.43710  Biso   1.000  C
  C66      1.0000 0.59752  0.76322  0.35464  Biso   1.000  C
  C67      1.0000 0.57680  0.94870  0.34640  Biso   1.000  C
  C68      1.0000 0.51936  0.07536  0.42592  Biso   1.000  C
  C69      1.0000 0.57834  0.05864  0.29468  Biso   1.000  C
  C70      1.0000 0.74415  0.87925  0.18910  Biso   1.000  C
  C71      1.0000 0.45980  0.77230  0.51280  Biso   1.000  C
  C72      1.0000 0.41930  0.77300  0.55780  Biso   1.000  C
  C73      1.0000 0.78020  0.72750  0.15240  Biso   1.000  C
  C74      1.0000 0.72480  0.70280  0.08960  Biso   1.000  C
  C75      1.0000 0.81140  0.87040  0.08880  Biso   1.000  C
  C76      1.0000 0.86270  0.85540  0.14480  Biso   1.000  C
  C77      1.0000 0.71410  0.15020  0.61780  Biso   1.000  C
  C78      1.0000 0.69086  0.22026  0.65812  Biso   1.000  C
  C79      1.0000 0.44183  0.17253  0.60426  Biso   1.000  C
  C80      1.0000 0.49063  0.03793  0.52306  Biso   1.000  C
  C81      1.0000 0.53354  0.16974  0.60908  Biso   1.000  C
  C82      1.0000 0.55757  0.09877  0.56774  Biso   1.000  C
  C83      1.0000 0.40237  0.04227  0.52174  Biso   1.000  C
  C84      1.0000 0.37935  0.10795  0.56290  Biso   1.000  C
  C85      1.0000 0.40858  0.24288  0.64536  Biso   1.000  C
  C86      1.0000 0.60230  0.23040  0.65360  Biso   1.000  C
  C87      1.0000 0.64944  0.09344  0.57408  Biso   1.000  C
  C88      1.0000 0.76396  0.28366  0.70532  Biso   1.000  C
  C89      1.0000 0.69015  0.55505  0.81090  Biso   1.000  C
  C90      1.0000 0.25950  0.94700  0.48720  Biso   1.000  C
  C91      1.0000 0.21520  0.86150  0.44220  Biso   1.000  C
  C92      1.0000 0.57510  0.62780  0.84760  Biso   1.000  C
  C93      1.0000 0.61320  0.63520  0.91040  Biso   1.000  C
  C94      1.0000 0.78160  0.72260  0.91120  Biso   1.000  C
  C95      1.0000 0.71060  0.71790  0.85520  Biso   1.000  C
  C96      1.0000 0.90370  0.46760  0.61780  Biso   1.000  C
  C97      1.0000 0.96726  0.43786  0.65812  Biso   1.000  C
  C98      1.0000 0.16243  0.43173  0.60426  Biso   1.000  C
  C99      1.0000 0.03243  0.48513  0.52306  Biso   1.000  C
  C100     1.0000 0.07554  0.43934  0.60908  Biso   1.000  C
  C101     1.0000 0.01017  0.46897  0.56774  Biso   1.000  C
  C102     1.0000 0.11937  0.47947  0.52174  Biso   1.000  C
  C103     1.0000 0.18355  0.45495  0.56290  Biso   1.000  C
  C104     1.0000 0.23678  0.40248  0.64536  Biso   1.000  C
  C105     1.0000 0.05130  0.42320  0.65360  Biso   1.000  C
  C106     1.0000 0.92464  0.48064  0.57408  Biso   1.000  C
  C107     1.0000 0.94136  0.42166  0.70532  Biso   1.000  C
  C108     1.0000 0.12075  0.25585  0.81090  Biso   1.000  C
  C109     1.0000 0.22770  0.54020  0.48720  Biso   1.000  C
  C110     1.0000 0.22700  0.58070  0.44220  Biso   1.000  C
  C111     1.0000 0.27250  0.21980  0.84760  Biso   1.000  C
  C112     1.0000 0.29720  0.27520  0.91040  Biso   1.000  C
  C113     1.0000 0.12960  0.18860  0.91120  Biso   1.000  C
  C114     1.0000 0.14460  0.13730  0.85520  Biso   1.000  C
  C115     1.0000 0.71760  0.46410  0.11780  Biso   1.000  C
  C116     1.0000 0.68786  0.44086  0.15812  Biso   1.000  C
  C117     1.0000 0.68173  0.19183  0.10426  Biso   1.000  C
  C118     1.0000 0.73513  0.24063  0.02306  Biso   1.000  C
  C119     1.0000 0.68934  0.28354  0.10908  Biso   1.000  C
  C120     1.0000 0.71897  0.30757  0.06774  Biso   1.000  C
  C121     1.0000 0.72947  0.15237  0.02174  Biso   1.000  C
  C122     1.0000 0.70495  0.12935  0.06290  Biso   1.000  C
  C123     1.0000 0.65248  0.15858  0.14536  Biso   1.000  C
  C124     1.0000 0.67320  0.35230  0.15360  Biso   1.000  C
  C125     1.0000 0.73064  0.39944  0.07408  Biso   1.000  C
  C126     1.0000 0.67166  0.51396  0.20532  Biso   1.000  C
  C127     1.0000 0.50585  0.44015  0.31090  Biso   1.000  C
  C128     1.0000 0.79020  0.00950  0.98720  Biso   1.000  C
  C129     1.0000 0.83070  0.96520  0.94220  Biso   1.000  C
  C130     1.0000 0.46980  0.32510  0.34760  Biso   1.000  C
  C131     1.0000 0.52520  0.36320  0.41040  Biso   1.000  C
  C132     1.0000 0.43860  0.53160  0.41120  Biso   1.000  C
  C133     1.0000 0.38730  0.46060  0.35520  Biso   1.000  C
  C134     1.0000 0.40020  0.65370  0.11780  Biso   1.000  C
  C135     1.0000 0.47026  0.71726  0.15812  Biso   1.000  C
  C136     1.0000 0.42253  0.91243  0.10426  Biso   1.000  C
  C137     1.0000 0.28793  0.78243  0.02306  Biso   1.000  C
  C138     1.0000 0.41974  0.82554  0.10908  Biso   1.000  C
  C139     1.0000 0.34877  0.76017  0.06774  Biso   1.000  C
  C140     1.0000 0.29227  0.86937  0.02174  Biso   1.000  C
  C141     1.0000 0.35795  0.93355  0.06290  Biso   1.000  C
  C142     1.0000 0.49288  0.98678  0.14536  Biso   1.000  C
  C143     1.0000 0.48040  0.80130  0.15360  Biso   1.000  C
  C144     1.0000 0.34344  0.67464  0.07408  Biso   1.000  C
  C145     1.0000 0.53366  0.69136  0.20532  Biso   1.000  C
  C146     1.0000 0.80505  0.87075  0.31090  Biso   1.000  C
  C147     1.0000 0.19700  0.97770  0.98720  Biso   1.000  C
  C148     1.0000 0.11150  0.97700  0.94220  Biso   1.000  C
  C149     1.0000 0.87780  0.02250  0.34760  Biso   1.000  C
  C150     1.0000 0.88520  0.04720  0.41040  Biso   1.000  C
  C151     1.0000 0.97260  0.87960  0.41120  Biso   1.000  C
  C152     1.0000 0.96790  0.89460  0.35520  Biso   1.000  C
  N1       1.0000 0.07340  0.11300  0.67460  Biso   1.000  N
  N2       1.0000 0.60120  0.56160  0.67460  Biso   1.000  N
  N3       1.0000 0.36300  0.35120  0.17460  Biso   1.000  N
  N4       1.0000 0.81160  0.82340  0.17460  Biso   1.000  N
  N5       1.0000 0.64880  0.63700  0.82540  Biso   1.000  N
  N6       1.0000 0.17660  0.18840  0.82540  Biso   1.000  N
  N7       1.0000 0.43840  0.39880  0.32540  Biso   1.000  N
  N8       1.0000 0.88700  0.92660  0.32540  Biso   1.000  N
  O1       1.0000 0.26283  0.39090  0.77064  Biso   1.000  O
  O2       1.0000 0.37387  0.49038  0.78260  Biso   1.000  O
  O3       1.0000 0.03023  0.42723  0.84444  Biso   1.000  O
  O4       1.0000 0.93958  0.53470  0.83458  Biso   1.000  O
  O5       1.0000 0.11353  0.77083  0.02246  Biso   1.000  O
  O6       1.0000 0.21154  0.19214  0.71208  Biso   1.000  O
  O7       1.0000 0.50781  0.37974  0.77064  Biso   1.000  O
  O8       1.0000 0.40873  0.29222  0.78260  Biso   1.000  O
  O9       1.0000 0.81421  0.41721  0.84444  Biso   1.000  O
  O10      1.0000 0.89500  0.29988  0.83458  Biso   1.000  O
  O11      1.0000 0.90893  0.25163  0.02246  Biso   1.000  O
  O12      1.0000 0.50054  0.51994  0.71208  Biso   1.000  O
  O13      1.0000 0.64090  0.25781  0.27064  Biso   1.000  O
  O14      1.0000 0.74038  0.15873  0.28260  Biso   1.000  O
  O15      1.0000 0.67723  0.56421  0.34444  Biso   1.000  O
  O16      1.0000 0.78470  0.64500  0.33458  Biso   1.000  O
  O17      1.0000 0.02083  0.65893  0.52246  Biso   1.000  O
  O18      1.0000 0.44214  0.25054  0.21208  Biso   1.000  O
  O19      1.0000 0.62974  0.01283  0.27064  Biso   1.000  O
  O20      1.0000 0.54222  0.12387  0.28260  Biso   1.000  O
  O21      1.0000 0.66721  0.78023  0.34444  Biso   1.000  O
  O22      1.0000 0.54988  0.68958  0.33458  Biso   1.000  O
  O23      1.0000 0.50163  0.86353  0.52246  Biso   1.000  O
  O24      1.0000 0.76994  0.96154  0.21208  Biso   1.000  O
  O25      1.0000 0.74219  0.35910  0.72936  Biso   1.000  O
  O26      1.0000 0.84127  0.25962  0.71740  Biso   1.000  O
  O27      1.0000 0.43579  0.32277  0.65556  Biso   1.000  O
  O28      1.0000 0.35500  0.21530  0.66542  Biso   1.000  O
  O29      1.0000 0.34107  0.97917  0.47754  Biso   1.000  O
  O30      1.0000 0.74946  0.55786  0.78792  Biso   1.000  O
  O31      1.0000 0.98717  0.37026  0.72936  Biso   1.000  O
  O32      1.0000 0.87613  0.45778  0.71740  Biso   1.000  O
  O33      1.0000 0.21977  0.33279  0.65556  Biso   1.000  O
  O34      1.0000 0.31042  0.45012  0.66542  Biso   1.000  O
  O35      1.0000 0.13647  0.49837  0.47754  Biso   1.000  O
  O36      1.0000 0.03846  0.23006  0.78792  Biso   1.000  O
  O37      1.0000 0.62026  0.49219  0.22936  Biso   1.000  O
  O38      1.0000 0.70778  0.59127  0.21740  Biso   1.000  O
  O39      1.0000 0.58279  0.18579  0.15556  Biso   1.000  O
  O40      1.0000 0.70012  0.10500  0.16542  Biso   1.000  O
  O41      1.0000 0.74837  0.09107  0.97754  Biso   1.000  O
  O42      1.0000 0.48006  0.49946  0.28792  Biso   1.000  O
  O43      1.0000 0.60910  0.73717  0.22936  Biso   1.000  O
  O44      1.0000 0.50962  0.62613  0.21740  Biso   1.000  O
  O45      1.0000 0.57277  0.96977  0.15556  Biso   1.000  O
  O46      1.0000 0.46530  0.06042  0.16542  Biso   1.000  O
  O47      1.0000 0.22917  0.88647  0.97754  Biso   1.000  O
  O48      1.0000 0.80786  0.78846  0.28792  Biso   1.000  O
