data_image0
_cell_length_a       21.9168
_cell_length_b       21.9168
_cell_length_c       21.9168
_cell_angle_alpha    60
_cell_angle_beta     60
_cell_angle_gamma    60

_symmetry_space_group_name_H-M    P 1
_symmetry_int_tables_number       1

loop_
  _symmetry_equiv_pos_as_xyz
  'x, y, z'

loop_
  _atom_site_label
  _atom_site_occupancy
  _atom_site_fract_x
  _atom_site_fract_y
  _atom_site_fract_z
  _atom_site_thermal_displace_type
  _atom_site_B_iso_or_equiv
  _atom_site_type_symbol
  Zn1      1.0000 0.25000  0.25000  0.25000  Biso   1.000  Zn
  Zn2      1.0000 0.75000  0.75000  0.75000  Biso   1.000  Zn
  Co1      1.0000 0.18152  0.45546  0.18151  Biso   1.000  Co
  Co2      1.0000 0.45547  0.18151  0.18151  Biso   1.000  Co
  Co3      1.0000 0.18152  0.18151  0.18151  Biso   1.000  Co
  Co4      1.0000 0.18152  0.18151  0.45546  Biso   1.000  Co
  Co5      1.0000 0.54453  0.81849  0.81849  Biso   1.000  Co
  Co6      1.0000 0.81848  0.54454  0.81849  Biso   1.000  Co
  Co7      1.0000 0.81848  0.81849  0.81849  Biso   1.000  Co
  Co8      1.0000 0.81848  0.81849  0.54454  Biso   1.000  Co
  H1       1.0000 0.07873  0.52901  0.31353  Biso   1.000  H
  H2       1.0000 0.52901  0.07873  0.07873  Biso   1.000  H
  H3       1.0000 0.31353  0.07873  0.07873  Biso   1.000  H
  H4       1.0000 0.07873  0.31353  0.52901  Biso   1.000  H
  H5       1.0000 0.07873  0.31353  0.07873  Biso   1.000  H
  H6       1.0000 0.52901  0.07873  0.31353  Biso   1.000  H
  H7       1.0000 0.31353  0.07873  0.52901  Biso   1.000  H
  H8       1.0000 0.07873  0.52901  0.07873  Biso   1.000  H
  H9       1.0000 0.07873  0.07873  0.52901  Biso   1.000  H
  H10      1.0000 0.52901  0.31353  0.07873  Biso   1.000  H
  H11      1.0000 0.31353  0.52901  0.07873  Biso   1.000  H
  H12      1.0000 0.07873  0.07873  0.31353  Biso   1.000  H
  H13      1.0000 0.47099  0.92127  0.68647  Biso   1.000  H
  H14      1.0000 0.92127  0.47099  0.92127  Biso   1.000  H
  H15      1.0000 0.92127  0.68647  0.92127  Biso   1.000  H
  H16      1.0000 0.68647  0.92127  0.47099  Biso   1.000  H
  H17      1.0000 0.68647  0.92127  0.92127  Biso   1.000  H
  H18      1.0000 0.92127  0.47099  0.68647  Biso   1.000  H
  H19      1.0000 0.92127  0.68647  0.47099  Biso   1.000  H
  H20      1.0000 0.47099  0.92127  0.92127  Biso   1.000  H
  H21      1.0000 0.92127  0.92127  0.47099  Biso   1.000  H
  H22      1.0000 0.68647  0.47099  0.92127  Biso   1.000  H
  H23      1.0000 0.47099  0.68647  0.92127  Biso   1.000  H
  H24      1.0000 0.92127  0.92127  0.68647  Biso   1.000  H
  C1       1.0000 0.11733  0.41571  0.34963  Biso   1.000  C
  C2       1.0000 0.07850  0.48675  0.35625  Biso   1.000  C
  C3       1.0000 0.03880  0.49496  0.42744  Biso   1.000  C
  C4       1.0000 0.41571  0.11733  0.11733  Biso   1.000  C
  C5       1.0000 0.48675  0.07850  0.07850  Biso   1.000  C
  C6       1.0000 0.49496  0.03880  0.03880  Biso   1.000  C
  C7       1.0000 0.34963  0.11733  0.11733  Biso   1.000  C
  C8       1.0000 0.35625  0.07850  0.07850  Biso   1.000  C
  C9       1.0000 0.42744  0.03880  0.03880  Biso   1.000  C
  C10      1.0000 0.11733  0.34963  0.41571  Biso   1.000  C
  C11      1.0000 0.07850  0.35625  0.48675  Biso   1.000  C
  C12      1.0000 0.03880  0.42744  0.49496  Biso   1.000  C
  C13      1.0000 0.11733  0.34963  0.11733  Biso   1.000  C
  C14      1.0000 0.07850  0.35625  0.07850  Biso   1.000  C
  C15      1.0000 0.03880  0.42744  0.03880  Biso   1.000  C
  C16      1.0000 0.41571  0.11733  0.34963  Biso   1.000  C
  C17      1.0000 0.48675  0.07850  0.35625  Biso   1.000  C
  C18      1.0000 0.49496  0.03880  0.42744  Biso   1.000  C
  C19      1.0000 0.34963  0.11733  0.41571  Biso   1.000  C
  C20      1.0000 0.35625  0.07850  0.48675  Biso   1.000  C
  C21      1.0000 0.42744  0.03880  0.49496  Biso   1.000  C
  C22      1.0000 0.11733  0.41571  0.11733  Biso   1.000  C
  C23      1.0000 0.07850  0.48675  0.07850  Biso   1.000  C
  C24      1.0000 0.03880  0.49496  0.03880  Biso   1.000  C
  C25      1.0000 0.11733  0.11733  0.41571  Biso   1.000  C
  C26      1.0000 0.07850  0.07850  0.48675  Biso   1.000  C
  C27      1.0000 0.03880  0.03880  0.49496  Biso   1.000  C
  C28      1.0000 0.41571  0.34963  0.11733  Biso   1.000  C
  C29      1.0000 0.48675  0.35625  0.07850  Biso   1.000  C
  C30      1.0000 0.49496  0.42744  0.03880  Biso   1.000  C
  C31      1.0000 0.34963  0.41571  0.11733  Biso   1.000  C
  C32      1.0000 0.35625  0.48675  0.07850  Biso   1.000  C
  C33      1.0000 0.42744  0.49496  0.03880  Biso   1.000  C
  C34      1.0000 0.11733  0.11733  0.34963  Biso   1.000  C
  C35      1.0000 0.07850  0.07850  0.35625  Biso   1.000  C
  C36      1.0000 0.03880  0.03880  0.42744  Biso   1.000  C
  C37      1.0000 0.58429  0.88267  0.65037  Biso   1.000  C
  C38      1.0000 0.51325  0.92150  0.64375  Biso   1.000  C
  C39      1.0000 0.50504  0.96120  0.57256  Biso   1.000  C
  C40      1.0000 0.88267  0.58429  0.88267  Biso   1.000  C
  C41      1.0000 0.92150  0.51325  0.92150  Biso   1.000  C
  C42      1.0000 0.96120  0.50504  0.96120  Biso   1.000  C
  C43      1.0000 0.88267  0.65037  0.88267  Biso   1.000  C
  C44      1.0000 0.92150  0.64375  0.92150  Biso   1.000  C
  C45      1.0000 0.96120  0.57256  0.96120  Biso   1.000  C
  C46      1.0000 0.65037  0.88267  0.58429  Biso   1.000  C
  C47      1.0000 0.64375  0.92150  0.51325  Biso   1.000  C
  C48      1.0000 0.57256  0.96120  0.50504  Biso   1.000  C
  C49      1.0000 0.65037  0.88267  0.88267  Biso   1.000  C
  C50      1.0000 0.64375  0.92150  0.92150  Biso   1.000  C
  C51      1.0000 0.57256  0.96120  0.96120  Biso   1.000  C
  C52      1.0000 0.88267  0.58429  0.65037  Biso   1.000  C
  C53      1.0000 0.92150  0.51325  0.64375  Biso   1.000  C
  C54      1.0000 0.96120  0.50504  0.57256  Biso   1.000  C
  C55      1.0000 0.88267  0.65037  0.58429  Biso   1.000  C
  C56      1.0000 0.92150  0.64375  0.51325  Biso   1.000  C
  C57      1.0000 0.96120  0.57256  0.50504  Biso   1.000  C
  C58      1.0000 0.58429  0.88267  0.88267  Biso   1.000  C
  C59      1.0000 0.51325  0.92150  0.92150  Biso   1.000  C
  C60      1.0000 0.50504  0.96120  0.96120  Biso   1.000  C
  C61      1.0000 0.88267  0.88267  0.58429  Biso   1.000  C
  C62      1.0000 0.92150  0.92150  0.51325  Biso   1.000  C
  C63      1.0000 0.96120  0.96120  0.50504  Biso   1.000  C
  C64      1.0000 0.65037  0.58429  0.88267  Biso   1.000  C
  C65      1.0000 0.64375  0.51325  0.92150  Biso   1.000  C
  C66      1.0000 0.57256  0.50504  0.96120  Biso   1.000  C
  C67      1.0000 0.58429  0.65037  0.88267  Biso   1.000  C
  C68      1.0000 0.51325  0.64375  0.92150  Biso   1.000  C
  C69      1.0000 0.50504  0.57256  0.96120  Biso   1.000  C
  C70      1.0000 0.88267  0.88267  0.65037  Biso   1.000  C
  C71      1.0000 0.92150  0.92150  0.64375  Biso   1.000  C
  C72      1.0000 0.96120  0.96120  0.57256  Biso   1.000  C
  N1       1.0000 0.16010  0.39029  0.28951  Biso   1.000  N
  N2       1.0000 0.39029  0.16010  0.16010  Biso   1.000  N
  N3       1.0000 0.28951  0.16010  0.16010  Biso   1.000  N
  N4       1.0000 0.16010  0.28951  0.39029  Biso   1.000  N
  N5       1.0000 0.16010  0.28951  0.16010  Biso   1.000  N
  N6       1.0000 0.39029  0.16010  0.28951  Biso   1.000  N
  N7       1.0000 0.28951  0.16010  0.39029  Biso   1.000  N
  N8       1.0000 0.16010  0.39029  0.16010  Biso   1.000  N
  N9       1.0000 0.16010  0.16010  0.39029  Biso   1.000  N
  N10      1.0000 0.39029  0.28951  0.16010  Biso   1.000  N
  N11      1.0000 0.28951  0.39029  0.16010  Biso   1.000  N
  N12      1.0000 0.16010  0.16010  0.28951  Biso   1.000  N
  N13      1.0000 0.60971  0.83990  0.71049  Biso   1.000  N
  N14      1.0000 0.83990  0.60971  0.83990  Biso   1.000  N
  N15      1.0000 0.83990  0.71049  0.83990  Biso   1.000  N
  N16      1.0000 0.71049  0.83990  0.60971  Biso   1.000  N
  N17      1.0000 0.71049  0.83990  0.83990  Biso   1.000  N
  N18      1.0000 0.83990  0.60971  0.71049  Biso   1.000  N
  N19      1.0000 0.83990  0.71049  0.60971  Biso   1.000  N
  N20      1.0000 0.60971  0.83990  0.83990  Biso   1.000  N
  N21      1.0000 0.83990  0.83990  0.60971  Biso   1.000  N
  N22      1.0000 0.71049  0.60971  0.83990  Biso   1.000  N
  N23      1.0000 0.60971  0.71049  0.83990  Biso   1.000  N
  N24      1.0000 0.83990  0.83990  0.71049  Biso   1.000  N
  N25      1.0000 0.18540  0.31460  0.31460  Biso   1.000  N
  N26      1.0000 0.31460  0.18540  0.18540  Biso   1.000  N
  N27      1.0000 0.18540  0.31460  0.18540  Biso   1.000  N
  N28      1.0000 0.31460  0.18540  0.31460  Biso   1.000  N
  N29      1.0000 0.18540  0.18540  0.31460  Biso   1.000  N
  N30      1.0000 0.31460  0.31460  0.18540  Biso   1.000  N
  N31      1.0000 0.68540  0.81460  0.68540  Biso   1.000  N
  N32      1.0000 0.81460  0.68540  0.81460  Biso   1.000  N
  N33      1.0000 0.68540  0.81460  0.81460  Biso   1.000  N
  N34      1.0000 0.81460  0.68540  0.68540  Biso   1.000  N
  N35      1.0000 0.81460  0.81460  0.68540  Biso   1.000  N
  N36      1.0000 0.68540  0.68540  0.81460  Biso   1.000  N
  Cl1      1.0000 0.14412  0.56764  0.14412  Biso   1.000  Cl
  Cl2      1.0000 0.56764  0.14412  0.14412  Biso   1.000  Cl
  Cl3      1.0000 0.14412  0.14412  0.14412  Biso   1.000  Cl
  Cl4      1.0000 0.14412  0.14412  0.56764  Biso   1.000  Cl
  Cl5      1.0000 0.43236  0.85588  0.85588  Biso   1.000  Cl
  Cl6      1.0000 0.85588  0.43236  0.85588  Biso   1.000  Cl
  Cl7      1.0000 0.85588  0.85588  0.85588  Biso   1.000  Cl
  Cl8      1.0000 0.85588  0.85588  0.43236  Biso   1.000  Cl
  O1       1.0000 1.00000  0.56681  0.43319  Biso   1.000  O
  O2       1.0000 0.56681  0.00000  0.00000  Biso   1.000  O
  O3       1.0000 0.43319  0.00000  0.00000  Biso   1.000  O
  O4       1.0000 1.00000  0.43319  0.56681  Biso   1.000  O
  O5       1.0000 0.00000  0.43319  0.00000  Biso   1.000  O
  O6       1.0000 0.56681  0.00000  0.43319  Biso   1.000  O
  O7       1.0000 0.43319  0.00000  0.56681  Biso   1.000  O
  O8       1.0000 0.00000  0.56681  0.00000  Biso   1.000  O
  O9       1.0000 0.00000  0.00000  0.56681  Biso   1.000  O
  O10      1.0000 0.56681  0.43319  0.00000  Biso   1.000  O
  O11      1.0000 0.43319  0.56681  0.00000  Biso   1.000  O
  O12      1.0000 0.00000  0.00000  0.43319  Biso   1.000  O
