data_image0
_cell_length_a       8.7388
_cell_length_b       11.7417
_cell_length_c       15.1238
_cell_angle_alpha    90
_cell_angle_beta     92.605
_cell_angle_gamma    90

_symmetry_space_group_name_H-M    P 1
_symmetry_int_tables_number       1

loop_
  _symmetry_equiv_pos_as_xyz
  'x, y, z'

loop_
  _atom_site_label
  _atom_site_occupancy
  _atom_site_fract_x
  _atom_site_fract_y
  _atom_site_fract_z
  _atom_site_thermal_displace_type
  _atom_site_B_iso_or_equiv
  _atom_site_type_symbol
  Cu1      1.0000 0.31041  0.15542  0.75167  Biso   1.000  Cu
  Cu2      1.0000 0.50136  0.34154  0.86407  Biso   1.000  Cu
  Cu3      1.0000 0.68959  0.15542  0.74833  Biso   1.000  Cu
  Cu4      1.0000 0.49864  0.34154  0.63593  Biso   1.000  Cu
  Cu5      1.0000 0.68959  0.84458  0.24833  Biso   1.000  Cu
  Cu6      1.0000 0.49864  0.65846  0.13593  Biso   1.000  Cu
  Cu7      1.0000 0.31041  0.84458  0.25167  Biso   1.000  Cu
  Cu8      1.0000 0.50136  0.65846  0.36407  Biso   1.000  Cu
  H1       1.0000 0.32500  0.12900  0.55040  Biso   1.000  H
  H2       1.0000 0.50030  0.09950  0.54580  Biso   1.000  H
  H3       1.0000 0.48030  0.95600  0.65080  Biso   1.000  H
  H4       1.0000 0.34650  0.93490  0.57940  Biso   1.000  H
  H5       1.0000 0.48010  0.55290  0.85120  Biso   1.000  H
  H6       1.0000 0.38630  0.51850  0.92390  Biso   1.000  H
  H7       1.0000 0.13090  0.38530  0.74810  Biso   1.000  H
  H8       1.0000 0.15920  0.36330  0.85030  Biso   1.000  H
  H9       1.0000 0.19580  0.55610  0.83290  Biso   1.000  H
  H10      1.0000 0.29750  0.53690  0.75100  Biso   1.000  H
  H11      1.0000 0.17640  0.00210  0.66840  Biso   1.000  H
  H12      1.0000 0.28040  0.94800  0.73390  Biso   1.000  H
  H13      1.0000 0.67500  0.12900  0.94960  Biso   1.000  H
  H14      1.0000 0.49970  0.09950  0.95420  Biso   1.000  H
  H15      1.0000 0.51970  0.95600  0.84920  Biso   1.000  H
  H16      1.0000 0.65350  0.93490  0.92060  Biso   1.000  H
  H17      1.0000 0.51990  0.55290  0.64880  Biso   1.000  H
  H18      1.0000 0.61370  0.51850  0.57610  Biso   1.000  H
  H19      1.0000 0.86910  0.38530  0.75190  Biso   1.000  H
  H20      1.0000 0.84080  0.36330  0.64970  Biso   1.000  H
  H21      1.0000 0.80420  0.55610  0.66710  Biso   1.000  H
  H22      1.0000 0.70250  0.53690  0.74900  Biso   1.000  H
  H23      1.0000 0.82360  0.00210  0.83160  Biso   1.000  H
  H24      1.0000 0.71960  0.94800  0.76610  Biso   1.000  H
  H25      1.0000 0.67500  0.87100  0.44960  Biso   1.000  H
  H26      1.0000 0.49970  0.90050  0.45420  Biso   1.000  H
  H27      1.0000 0.51970  0.04400  0.34920  Biso   1.000  H
  H28      1.0000 0.65350  0.06510  0.42060  Biso   1.000  H
  H29      1.0000 0.51990  0.44710  0.14880  Biso   1.000  H
  H30      1.0000 0.61370  0.48150  0.07610  Biso   1.000  H
  H31      1.0000 0.86910  0.61470  0.25190  Biso   1.000  H
  H32      1.0000 0.84080  0.63670  0.14970  Biso   1.000  H
  H33      1.0000 0.80420  0.44390  0.16710  Biso   1.000  H
  H34      1.0000 0.70250  0.46310  0.24900  Biso   1.000  H
  H35      1.0000 0.82360  0.99790  0.33160  Biso   1.000  H
  H36      1.0000 0.71960  0.05200  0.26610  Biso   1.000  H
  H37      1.0000 0.32500  0.87100  0.05040  Biso   1.000  H
  H38      1.0000 0.50030  0.90050  0.04580  Biso   1.000  H
  H39      1.0000 0.48030  0.04400  0.15080  Biso   1.000  H
  H40      1.0000 0.34650  0.06510  0.07940  Biso   1.000  H
  H41      1.0000 0.48010  0.44710  0.35120  Biso   1.000  H
  H42      1.0000 0.38630  0.48150  0.42390  Biso   1.000  H
  H43      1.0000 0.13090  0.61470  0.24810  Biso   1.000  H
  H44      1.0000 0.15920  0.63670  0.35030  Biso   1.000  H
  H45      1.0000 0.19580  0.44390  0.33290  Biso   1.000  H
  H46      1.0000 0.29750  0.46310  0.25100  Biso   1.000  H
  H47      1.0000 0.17640  0.99790  0.16840  Biso   1.000  H
  H48      1.0000 0.28040  0.05200  0.23390  Biso   1.000  H
  Au1      1.0000 0.00000  0.00000  0.00000  Biso   1.000  Au
  Au2      1.0000 0.00000  0.00000  0.50000  Biso   1.000  Au
  Au3      1.0000 0.00000  0.50000  0.00000  Biso   1.000  Au
  Au4      1.0000 0.00000  0.50000  0.50000  Biso   1.000  Au
  C1       1.0000 0.10680  0.07480  0.90230  Biso   1.000  C
  C2       1.0000 0.81230  0.42450  0.95005  Biso   1.000  C
  C3       1.0000 0.41500  0.10320  0.58460  Biso   1.000  C
  C4       1.0000 0.38600  0.98710  0.62450  Biso   1.000  C
  C5       1.0000 0.20700  0.38740  0.79680  Biso   1.000  C
  C6       1.0000 0.27160  0.50650  0.80810  Biso   1.000  C
  C7       1.0000 0.89320  0.07480  0.59770  Biso   1.000  C
  C8       1.0000 0.18770  0.42450  0.54995  Biso   1.000  C
  C9       1.0000 0.58500  0.10320  0.91540  Biso   1.000  C
  C10      1.0000 0.61400  0.98710  0.87550  Biso   1.000  C
  C11      1.0000 0.79300  0.38740  0.70320  Biso   1.000  C
  C12      1.0000 0.72840  0.50650  0.69190  Biso   1.000  C
  C13      1.0000 0.89320  0.92520  0.09770  Biso   1.000  C
  C14      1.0000 0.18770  0.57550  0.04995  Biso   1.000  C
  C15      1.0000 0.58500  0.89680  0.41540  Biso   1.000  C
  C16      1.0000 0.61400  0.01290  0.37550  Biso   1.000  C
  C17      1.0000 0.79300  0.61260  0.20320  Biso   1.000  C
  C18      1.0000 0.72840  0.49350  0.19190  Biso   1.000  C
  C19      1.0000 0.10680  0.92520  0.40230  Biso   1.000  C
  C20      1.0000 0.81230  0.57550  0.45005  Biso   1.000  C
  C21      1.0000 0.41500  0.89680  0.08460  Biso   1.000  C
  C22      1.0000 0.38600  0.01290  0.12450  Biso   1.000  C
  C23      1.0000 0.20700  0.61260  0.29680  Biso   1.000  C
  C24      1.0000 0.27160  0.49350  0.30810  Biso   1.000  C
  N1       1.0000 0.17160  0.11620  0.84594  Biso   1.000  N
  N2       1.0000 0.69960  0.38500  0.92229  Biso   1.000  N
  N3       1.0000 0.41090  0.50164  0.86826  Biso   1.000  N
  N4       1.0000 0.27180  0.00400  0.69335  Biso   1.000  N
  N5       1.0000 0.82840  0.11620  0.65406  Biso   1.000  N
  N6       1.0000 0.30040  0.38500  0.57771  Biso   1.000  N
  N7       1.0000 0.58910  0.50164  0.63174  Biso   1.000  N
  N8       1.0000 0.72820  0.00400  0.80665  Biso   1.000  N
  N9       1.0000 0.82840  0.88380  0.15406  Biso   1.000  N
  N10      1.0000 0.30040  0.61500  0.07771  Biso   1.000  N
  N11      1.0000 0.58910  0.49836  0.13174  Biso   1.000  N
  N12      1.0000 0.72820  0.99600  0.30665  Biso   1.000  N
  N13      1.0000 0.17160  0.88380  0.34594  Biso   1.000  N
  N14      1.0000 0.69960  0.61500  0.42229  Biso   1.000  N
  N15      1.0000 0.41090  0.49836  0.36826  Biso   1.000  N
  N16      1.0000 0.27180  0.99600  0.19335  Biso   1.000  N
  O1       1.0000 0.33220  0.31504  0.77894  Biso   1.000  O
  O2       1.0000 0.44920  0.17901  0.65623  Biso   1.000  O
  O3       1.0000 0.66780  0.31504  0.72106  Biso   1.000  O
  O4       1.0000 0.55080  0.17901  0.84377  Biso   1.000  O
  O5       1.0000 0.66780  0.68496  0.22106  Biso   1.000  O
  O6       1.0000 0.55080  0.82099  0.34377  Biso   1.000  O
  O7       1.0000 0.33220  0.68496  0.27894  Biso   1.000  O
  O8       1.0000 0.44920  0.82099  0.15623  Biso   1.000  O
