data_image0
_cell_length_a       15.3661
_cell_length_b       15.3661
_cell_length_c       15.3661
_cell_angle_alpha    60
_cell_angle_beta     60
_cell_angle_gamma    60

_symmetry_space_group_name_H-M    P 1
_symmetry_int_tables_number       1

loop_
  _symmetry_equiv_pos_as_xyz
  'x, y, z'

loop_
  _atom_site_label
  _atom_site_occupancy
  _atom_site_fract_x
  _atom_site_fract_y
  _atom_site_fract_z
  _atom_site_thermal_displace_type
  _atom_site_B_iso_or_equiv
  _atom_site_type_symbol
  Co1      1.0000 0.02330  0.65890  0.65890  Biso   1.000  Co
  Co2      1.0000 0.65890  0.02330  0.65890  Biso   1.000  Co
  Co3      1.0000 0.65890  0.65890  0.02330  Biso   1.000  Co
  Co4      1.0000 0.65890  0.65890  0.65890  Biso   1.000  Co
  Co5      1.0000 0.34110  0.97670  0.34110  Biso   1.000  Co
  Co6      1.0000 0.97670  0.34110  0.34110  Biso   1.000  Co
  Co7      1.0000 0.34110  0.34110  0.97670  Biso   1.000  Co
  Co8      1.0000 0.34110  0.34110  0.34110  Biso   1.000  Co
  H1       1.0000 0.16040  0.83960  0.50000  Biso   1.000  H
  H2       1.0000 0.83960  0.16040  0.50000  Biso   1.000  H
  H3       1.0000 0.50000  0.50000  0.16040  Biso   1.000  H
  H4       1.0000 0.50000  0.50000  0.83960  Biso   1.000  H
  H5       1.0000 0.16040  0.50000  0.50000  Biso   1.000  H
  H6       1.0000 0.83960  0.50000  0.50000  Biso   1.000  H
  H7       1.0000 0.50000  0.16040  0.83960  Biso   1.000  H
  H8       1.0000 0.50000  0.83960  0.16040  Biso   1.000  H
  H9       1.0000 0.16040  0.50000  0.83960  Biso   1.000  H
  H10      1.0000 0.83960  0.50000  0.16040  Biso   1.000  H
  H11      1.0000 0.50000  0.83960  0.50000  Biso   1.000  H
  H12      1.0000 0.50000  0.16040  0.50000  Biso   1.000  H
  C1       1.0000 0.99560  0.89920  0.55260  Biso   1.000  C
  C2       1.0000 0.89920  0.99560  0.55260  Biso   1.000  C
  C3       1.0000 0.55260  0.55260  0.99560  Biso   1.000  C
  C4       1.0000 0.55260  0.55260  0.89920  Biso   1.000  C
  C5       1.0000 0.99560  0.55260  0.55260  Biso   1.000  C
  C6       1.0000 0.89920  0.55260  0.55260  Biso   1.000  C
  C7       1.0000 0.55260  0.99560  0.89920  Biso   1.000  C
  C8       1.0000 0.55260  0.89920  0.99560  Biso   1.000  C
  C9       1.0000 0.99560  0.55260  0.89920  Biso   1.000  C
  C10      1.0000 0.89920  0.55260  0.99560  Biso   1.000  C
  C11      1.0000 0.55260  0.89920  0.55260  Biso   1.000  C
  C12      1.0000 0.55260  0.99560  0.55260  Biso   1.000  C
  C13      1.0000 0.10080  0.00440  0.44740  Biso   1.000  C
  C14      1.0000 0.00440  0.10080  0.44740  Biso   1.000  C
  C15      1.0000 0.44740  0.44740  0.00440  Biso   1.000  C
  C16      1.0000 0.44740  0.44740  0.10080  Biso   1.000  C
  C17      1.0000 0.44740  0.00440  0.44740  Biso   1.000  C
  C18      1.0000 0.44740  0.10080  0.44740  Biso   1.000  C
  C19      1.0000 0.00440  0.44740  0.10080  Biso   1.000  C
  C20      1.0000 0.10080  0.44740  0.00440  Biso   1.000  C
  C21      1.0000 0.44740  0.00440  0.10080  Biso   1.000  C
  C22      1.0000 0.44740  0.10080  0.00440  Biso   1.000  C
  C23      1.0000 0.10080  0.44740  0.44740  Biso   1.000  C
  C24      1.0000 0.00440  0.44740  0.44740  Biso   1.000  C
  C25      1.0000 0.09980  0.90020  0.50000  Biso   1.000  C
  C26      1.0000 0.90020  0.09980  0.50000  Biso   1.000  C
  C27      1.0000 0.50000  0.50000  0.09980  Biso   1.000  C
  C28      1.0000 0.50000  0.50000  0.90020  Biso   1.000  C
  C29      1.0000 0.09980  0.50000  0.50000  Biso   1.000  C
  C30      1.0000 0.90020  0.50000  0.50000  Biso   1.000  C
  C31      1.0000 0.50000  0.09980  0.90020  Biso   1.000  C
  C32      1.0000 0.50000  0.90020  0.09980  Biso   1.000  C
  C33      1.0000 0.09980  0.50000  0.90020  Biso   1.000  C
  C34      1.0000 0.90020  0.50000  0.09980  Biso   1.000  C
  C35      1.0000 0.50000  0.90020  0.50000  Biso   1.000  C
  C36      1.0000 0.50000  0.09980  0.50000  Biso   1.000  C
  N1       1.0000 0.96030  0.81510  0.61230  Biso   1.000  N
  N2       1.0000 0.81510  0.96030  0.61230  Biso   1.000  N
  N3       1.0000 0.61230  0.61230  0.96030  Biso   1.000  N
  N4       1.0000 0.61230  0.61230  0.81510  Biso   1.000  N
  N5       1.0000 0.96030  0.61230  0.61230  Biso   1.000  N
  N6       1.0000 0.81510  0.61230  0.61230  Biso   1.000  N
  N7       1.0000 0.61230  0.96030  0.81510  Biso   1.000  N
  N8       1.0000 0.61230  0.81510  0.96030  Biso   1.000  N
  N9       1.0000 0.96030  0.61230  0.81510  Biso   1.000  N
  N10      1.0000 0.81510  0.61230  0.96030  Biso   1.000  N
  N11      1.0000 0.61230  0.81510  0.61230  Biso   1.000  N
  N12      1.0000 0.61230  0.96030  0.61230  Biso   1.000  N
  N13      1.0000 0.18490  0.03970  0.38770  Biso   1.000  N
  N14      1.0000 0.03970  0.18490  0.38770  Biso   1.000  N
  N15      1.0000 0.38770  0.38770  0.03970  Biso   1.000  N
  N16      1.0000 0.38770  0.38770  0.18490  Biso   1.000  N
  N17      1.0000 0.38770  0.03970  0.38770  Biso   1.000  N
  N18      1.0000 0.38770  0.18490  0.38770  Biso   1.000  N
  N19      1.0000 0.03970  0.38770  0.18490  Biso   1.000  N
  N20      1.0000 0.18490  0.38770  0.03970  Biso   1.000  N
  N21      1.0000 0.38770  0.03970  0.18490  Biso   1.000  N
  N22      1.0000 0.38770  0.18490  0.03970  Biso   1.000  N
  N23      1.0000 0.18490  0.38770  0.38770  Biso   1.000  N
  N24      1.0000 0.03970  0.38770  0.38770  Biso   1.000  N
  N25      1.0000 0.85536  0.85536  0.64464  Biso   1.000  N
  N26      1.0000 0.64464  0.64464  0.85536  Biso   1.000  N
  N27      1.0000 0.85536  0.64464  0.64464  Biso   1.000  N
  N28      1.0000 0.64464  0.85536  0.85536  Biso   1.000  N
  N29      1.0000 0.85536  0.64464  0.85536  Biso   1.000  N
  N30      1.0000 0.64464  0.85536  0.64464  Biso   1.000  N
  N31      1.0000 0.14464  0.14464  0.35536  Biso   1.000  N
  N32      1.0000 0.35536  0.35536  0.14464  Biso   1.000  N
  N33      1.0000 0.35536  0.14464  0.35536  Biso   1.000  N
  N34      1.0000 0.14464  0.35536  0.14464  Biso   1.000  N
  N35      1.0000 0.35536  0.14464  0.14464  Biso   1.000  N
  N36      1.0000 0.14464  0.35536  0.35536  Biso   1.000  N
  Cl1      1.0000 0.18380  0.60540  0.60540  Biso   1.000  Cl
  Cl2      1.0000 0.60540  0.18380  0.60540  Biso   1.000  Cl
  Cl3      1.0000 0.60540  0.60540  0.18380  Biso   1.000  Cl
  Cl4      1.0000 0.60540  0.60540  0.60540  Biso   1.000  Cl
  Cl5      1.0000 0.39460  0.81620  0.39460  Biso   1.000  Cl
  Cl6      1.0000 0.81620  0.39460  0.39460  Biso   1.000  Cl
  Cl7      1.0000 0.39460  0.39460  0.81620  Biso   1.000  Cl
  Cl8      1.0000 0.39460  0.39460  0.39460  Biso   1.000  Cl
