data_XAMHEA_clean5b
_audit_creation_date              2014-07-02
_audit_creation_method            'Materials Studio'
_symmetry_space_group_name_H-M    'P1'
_symmetry_Int_Tables_number       1
_symmetry_cell_setting            triclinic
loop_
_symmetry_equiv_pos_as_xyz
  x,y,z
_cell_length_a                    17.1168
_cell_length_b                    17.2215
_cell_length_c                    17.2215
_cell_angle_alpha                 90.0000
_cell_angle_beta                  90.0000
_cell_angle_gamma                 90.0000
loop_
_atom_site_label
_atom_site_type_symbol
_atom_site_fract_x
_atom_site_fract_y
_atom_site_fract_z
_atom_site_U_iso_or_equiv
_atom_site_adp_type
_atom_site_occupancy
Zn1    Zn    0.05519   0.93462   0.43462   0.01267  Uiso   1.00
Zn2    Zn    0.05519   0.06538   0.56538   0.01267  Uiso   1.00
Zn3    Zn    0.18439   0.93437   0.56563   0.01267  Uiso   1.00
Zn4    Zn    0.18439   0.06563   0.43437   0.01267  Uiso   1.00
H5     H     0.04505   0.89789   0.19781   0.01267  Uiso   1.00
H6     H     0.04846   0.89642   0.05068   0.01267  Uiso   1.00
H7     H     0.18544   0.10013   0.20162   0.01267  Uiso   1.00
H8     H     0.50465   0.88967   0.69860   0.01267  Uiso   1.00
H9     H     0.26401   0.21327   0.04224   0.01267  Uiso   1.00
H10    H     0.26992   0.14597   0.12663   0.01267  Uiso   1.00
H11    H     0.18226   0.20856   0.11338   0.01267  Uiso   1.00
H12    H     0.04505   0.10211   0.80219   0.01267  Uiso   1.00
H13    H     0.04846   0.10358   0.94932   0.01267  Uiso   1.00
H14    H     0.18603   0.89909   0.80007   0.01267  Uiso   1.00
H15    H     0.20754   0.76744   0.93846   0.01267  Uiso   1.00
H16    H     0.29520   0.83003   0.92521   0.01267  Uiso   1.00
H17    H     0.21345   0.83474   0.85407   0.01267  Uiso   1.00
H18    H     0.04505   0.30219   0.60211   0.01267  Uiso   1.00
H19    H     0.04846   0.44932   0.60358   0.01267  Uiso   1.00
H20    H     0.18603   0.30007   0.39909   0.01267  Uiso   1.00
H21    H     0.54635   0.79894   0.65693   0.01267  Uiso   1.00
H22    H     0.21345   0.35407   0.33474   0.01267  Uiso   1.00
H23    H     0.29520   0.42521   0.33003   0.01267  Uiso   1.00
H24    H     0.20754   0.43846   0.26744   0.01267  Uiso   1.00
H25    H     0.04505   0.69781   0.39789   0.01267  Uiso   1.00
H26    H     0.04846   0.55068   0.39642   0.01267  Uiso   1.00
H27    H     0.18544   0.70162   0.60013   0.01267  Uiso   1.00
H28    H     0.81840   0.09066   0.59066   0.01267  Uiso   1.00
H29    H     0.66990   0.08921   0.58921   0.01267  Uiso   1.00
H30    H     0.81840   0.90934   0.40934   0.01267  Uiso   1.00
H31    H     0.66990   0.91079   0.41079   0.01267  Uiso   1.00
H32    H     0.41865   0.90881   0.59119   0.01267  Uiso   1.00
H33    H     0.46295   0.84800   0.60787   0.01267  Uiso   1.00
H34    H     0.41865   0.09119   0.40881   0.01267  Uiso   1.00
C35    C     0.11730   0.00050   0.29080   0.01267  Uiso   1.00
C36    C     0.11530   0.99950   0.20450   0.01267  Uiso   1.00
C37    C     0.07870   0.94500   0.16550   0.01267  Uiso   1.00
C38    C     0.08050   0.94400   0.08390   0.01267  Uiso   1.00
C39    C     0.11860   0.99710   0.04420   0.01267  Uiso   1.00
C40    C     0.15430   0.05060   0.08170   0.01267  Uiso   1.00
C41    C     0.15350   0.05290   0.16780   0.01267  Uiso   1.00
C42    C     0.22910   0.17340   0.08210   0.01267  Uiso   1.00
C43    C     0.11730   0.99950   0.70920   0.01267  Uiso   1.00
C44    C     0.11530   0.00050   0.79550   0.01267  Uiso   1.00
C45    C     0.07870   0.05500   0.83450   0.01267  Uiso   1.00
C46    C     0.08050   0.05600   0.91610   0.01267  Uiso   1.00
C47    C     0.11860   0.00290   0.95580   0.01267  Uiso   1.00
C48    C     0.15430   0.94940   0.91830   0.01267  Uiso   1.00
C49    C     0.15350   0.94710   0.83220   0.01267  Uiso   1.00
C50    C     0.22910   0.82660   0.91790   0.01267  Uiso   1.00
C51    C     0.11730   0.20920   0.49950   0.01267  Uiso   1.00
C52    C     0.11530   0.29550   0.50050   0.01267  Uiso   1.00
C53    C     0.07870   0.33450   0.55500   0.01267  Uiso   1.00
C54    C     0.08050   0.41610   0.55600   0.01267  Uiso   1.00
C55    C     0.11860   0.45580   0.50290   0.01267  Uiso   1.00
C56    C     0.15430   0.41830   0.44940   0.01267  Uiso   1.00
C57    C     0.15350   0.33220   0.44710   0.01267  Uiso   1.00
C58    C     0.22910   0.41790   0.32660   0.01267  Uiso   1.00
C59    C     0.11730   0.79080   0.50050   0.01267  Uiso   1.00
C60    C     0.11530   0.70450   0.49950   0.01267  Uiso   1.00
C61    C     0.07870   0.66550   0.44500   0.01267  Uiso   1.00
C62    C     0.08050   0.58390   0.44400   0.01267  Uiso   1.00
C63    C     0.11860   0.54420   0.49710   0.01267  Uiso   1.00
C64    C     0.15430   0.58170   0.55060   0.01267  Uiso   1.00
C65    C     0.15350   0.66780   0.55290   0.01267  Uiso   1.00
C66    C     0.78590   0.04980   0.54980   0.01267  Uiso   1.00
C67    C     0.70400   0.04900   0.54900   0.01267  Uiso   1.00
C68    C     0.78590   0.95020   0.45020   0.01267  Uiso   1.00
C69    C     0.70400   0.95100   0.45100   0.01267  Uiso   1.00
C70    C     0.53240   0.95094   0.54906   0.01267  Uiso   1.00
C71    C     0.45080   0.94980   0.55020   0.01267  Uiso   1.00
C72    C     0.51890   0.85750   0.64250   0.01267  Uiso   1.00
C73    C     0.53240   0.04906   0.45094   0.01267  Uiso   1.00
C74    C     0.45080   0.05020   0.44980   0.01267  Uiso   1.00
C75    C     0.90860   0.00000   0.50000   0.01267  Uiso   1.00
C76    C     0.82820   0.00000   0.50000   0.01267  Uiso   1.00
C77    C     0.65980   0.00000   0.50000   0.01267  Uiso   1.00
C78    C     0.57850   0.00000   0.50000   0.01267  Uiso   1.00
C79    C     0.41530   0.00000   0.50000   0.01267  Uiso   1.00
C80    C     0.32370   0.00000   0.50000   0.01267  Uiso   1.00
O81    O     0.07200   0.95040   0.32523   0.01267  Uiso   1.00
O82    O     0.15770   0.04830   0.32540   0.01267  Uiso   1.00
O83    O     0.19310   0.11410   0.03730   0.01267  Uiso   1.00
O84    O     0.07200   0.04960   0.67477   0.01267  Uiso   1.00
O85    O     0.15770   0.95170   0.67460   0.01267  Uiso   1.00
O86    O     0.19310   0.88590   0.96270   0.01267  Uiso   1.00
O87    O     0.07200   0.17477   0.54960   0.01267  Uiso   1.00
O88    O     0.15770   0.17460   0.45170   0.01267  Uiso   1.00
O89    O     0.19310   0.46270   0.38590   0.01267  Uiso   1.00
O90    O     0.07200   0.82523   0.45040   0.01267  Uiso   1.00
O91    O     0.15770   0.82540   0.54830   0.01267  Uiso   1.00
O92    O     0.94420   0.94750   0.44750   0.01267  Uiso   1.00
O93    O     0.94420   0.05250   0.55250   0.01267  Uiso   1.00
O94    O     0.29100   0.94600   0.55400   0.01267  Uiso   1.00
O95    O     0.57070   0.90100   0.59900   0.01267  Uiso   1.00
O96    O     0.29100   0.05400   0.44600   0.01267  Uiso   1.00
O97    O     0.11900   0.00000   0.50000   0.01267  Uiso   1.00
Zn98   Zn    0.94481   0.43462   0.06538   0.01267  Uiso   1.00
Zn99   Zn    0.94481   0.56538   0.93462   0.01267  Uiso   1.00
Zn100  Zn    0.81561   0.56563   0.06563   0.01267  Uiso   1.00
Zn101  Zn    0.81561   0.43437   0.93437   0.01267  Uiso   1.00
H102   H     0.95495   0.19781   0.10211   0.01267  Uiso   1.00
H103   H     0.95154   0.05068   0.10358   0.01267  Uiso   1.00
H104   H     0.81397   0.19993   0.89909   0.01267  Uiso   1.00
H105   H     0.51943   0.67852   0.10209   0.01267  Uiso   1.00
H106   H     0.81657   0.09951   0.78167   0.01267  Uiso   1.00
H107   H     0.74397   0.13651   0.85316   0.01267  Uiso   1.00
H108   H     0.72327   0.04623   0.79738   0.01267  Uiso   1.00
H109   H     0.95495   0.80219   0.89789   0.01267  Uiso   1.00
H110   H     0.95154   0.94932   0.89642   0.01267  Uiso   1.00
H111   H     0.81397   0.80007   0.10091   0.01267  Uiso   1.00
H112   H     0.79927   0.85806   0.17590   0.01267  Uiso   1.00
H113   H     0.70597   0.91134   0.16020   0.01267  Uiso   1.00
H114   H     0.77857   0.94834   0.23169   0.01267  Uiso   1.00
H115   H     0.95495   0.60211   0.69781   0.01267  Uiso   1.00
H116   H     0.95154   0.60358   0.55068   0.01267  Uiso   1.00
H117   H     0.81456   0.39987   0.70162   0.01267  Uiso   1.00
H118   H     0.44719   0.68279   0.18279   0.01267  Uiso   1.00
H119   H     0.95495   0.39789   0.30219   0.01267  Uiso   1.00
H120   H     0.95154   0.39642   0.44932   0.01267  Uiso   1.00
H121   H     0.81397   0.60091   0.30007   0.01267  Uiso   1.00
H122   H     0.70597   0.66020   0.41134   0.01267  Uiso   1.00
H123   H     0.79927   0.67590   0.35806   0.01267  Uiso   1.00
H124   H     0.77857   0.73169   0.44834   0.01267  Uiso   1.00
H125   H     0.18160   0.59066   0.90934   0.01267  Uiso   1.00
H126   H     0.33010   0.58921   0.91079   0.01267  Uiso   1.00
H127   H     0.18160   0.40934   0.09066   0.01267  Uiso   1.00
H128   H     0.33010   0.41079   0.08921   0.01267  Uiso   1.00
H129   H     0.58135   0.59119   0.09119   0.01267  Uiso   1.00
H130   H     0.51943   0.60209   0.17852   0.01267  Uiso   1.00
H131   H     0.58135   0.40881   0.90881   0.01267  Uiso   1.00
C132   C     0.88270   0.29080   0.99950   0.01267  Uiso   1.00
C133   C     0.88470   0.20450   0.00050   0.01267  Uiso   1.00
C134   C     0.92130   0.16550   0.05500   0.01267  Uiso   1.00
C135   C     0.91950   0.08390   0.05600   0.01267  Uiso   1.00
C136   C     0.88140   0.04420   0.00290   0.01267  Uiso   1.00
C137   C     0.84570   0.08170   0.94940   0.01267  Uiso   1.00
C138   C     0.84650   0.16780   0.94710   0.01267  Uiso   1.00
C139   C     0.77090   0.08210   0.82660   0.01267  Uiso   1.00
C140   C     0.88270   0.70920   0.00050   0.01267  Uiso   1.00
C141   C     0.88470   0.79550   0.99950   0.01267  Uiso   1.00
C142   C     0.92130   0.83450   0.94500   0.01267  Uiso   1.00
C143   C     0.91950   0.91610   0.94400   0.01267  Uiso   1.00
C144   C     0.88140   0.95580   0.99710   0.01267  Uiso   1.00
C145   C     0.84570   0.91830   0.05060   0.01267  Uiso   1.00
C146   C     0.84650   0.83220   0.05290   0.01267  Uiso   1.00
C147   C     0.77090   0.91790   0.17340   0.01267  Uiso   1.00
C148   C     0.88270   0.49950   0.79080   0.01267  Uiso   1.00
C149   C     0.88470   0.50050   0.70450   0.01267  Uiso   1.00
C150   C     0.92130   0.55500   0.66550   0.01267  Uiso   1.00
C151   C     0.91950   0.55600   0.58390   0.01267  Uiso   1.00
C152   C     0.88140   0.50290   0.54420   0.01267  Uiso   1.00
C153   C     0.84570   0.44940   0.58170   0.01267  Uiso   1.00
C154   C     0.84650   0.44710   0.66780   0.01267  Uiso   1.00
C155   C     0.88270   0.50050   0.20920   0.01267  Uiso   1.00
C156   C     0.88470   0.49950   0.29550   0.01267  Uiso   1.00
C157   C     0.92130   0.44500   0.33450   0.01267  Uiso   1.00
C158   C     0.91950   0.44400   0.41610   0.01267  Uiso   1.00
C159   C     0.88140   0.49710   0.45580   0.01267  Uiso   1.00
C160   C     0.84570   0.55060   0.41830   0.01267  Uiso   1.00
C161   C     0.84650   0.55290   0.33220   0.01267  Uiso   1.00
C162   C     0.77090   0.67340   0.41790   0.01267  Uiso   1.00
C163   C     0.21410   0.54980   0.95020   0.01267  Uiso   1.00
C164   C     0.29600   0.54900   0.95100   0.01267  Uiso   1.00
C165   C     0.21410   0.45020   0.04980   0.01267  Uiso   1.00
C166   C     0.29600   0.45100   0.04900   0.01267  Uiso   1.00
C167   C     0.46760   0.54906   0.04906   0.01267  Uiso   1.00
C168   C     0.54920   0.55020   0.05020   0.01267  Uiso   1.00
C169   C     0.48110   0.64250   0.14250   0.01267  Uiso   1.00
C170   C     0.46760   0.45094   0.95094   0.01267  Uiso   1.00
C171   C     0.54920   0.44980   0.94980   0.01267  Uiso   1.00
C172   C     0.09140   0.50000   0.00000   0.01267  Uiso   1.00
C173   C     0.17180   0.50000   0.00000   0.01267  Uiso   1.00
C174   C     0.34020   0.50000   0.00000   0.01267  Uiso   1.00
C175   C     0.42150   0.50000   0.00000   0.01267  Uiso   1.00
C176   C     0.58470   0.50000   0.00000   0.01267  Uiso   1.00
C177   C     0.67630   0.50000   0.00000   0.01267  Uiso   1.00
O178   O     0.92800   0.32523   0.04960   0.01267  Uiso   1.00
O179   O     0.84230   0.32540   0.95170   0.01267  Uiso   1.00
O180   O     0.80690   0.03730   0.88590   0.01267  Uiso   1.00
O181   O     0.92800   0.67477   0.95040   0.01267  Uiso   1.00
O182   O     0.84230   0.67460   0.04830   0.01267  Uiso   1.00
O183   O     0.80690   0.96270   0.11410   0.01267  Uiso   1.00
O184   O     0.92800   0.54960   0.82523   0.01267  Uiso   1.00
O185   O     0.84230   0.45170   0.82540   0.01267  Uiso   1.00
O186   O     0.92800   0.45040   0.17477   0.01267  Uiso   1.00
O187   O     0.84230   0.54830   0.17460   0.01267  Uiso   1.00
O188   O     0.80690   0.61410   0.46270   0.01267  Uiso   1.00
O189   O     0.05580   0.44750   0.05250   0.01267  Uiso   1.00
O190   O     0.05580   0.55250   0.94750   0.01267  Uiso   1.00
O191   O     0.70900   0.55400   0.05400   0.01267  Uiso   1.00
O192   O     0.42930   0.59900   0.09900   0.01267  Uiso   1.00
O193   O     0.70900   0.44600   0.94600   0.01267  Uiso   1.00
O194   O     0.88100   0.50000   0.00000   0.01267  Uiso   1.00
H195   H     0.18753   0.54891   0.59767   0.00000  Uiso   1.00
H196   H     0.56684   0.08912   0.41088   0.00000  Uiso   1.00
H197   H     0.81247   0.40233   0.54891   0.00000  Uiso   1.00
H198   H     0.43316   0.41088   0.91088   0.00000  Uiso   1.00
loop_
_geom_bond_atom_site_label_1
_geom_bond_atom_site_label_2
_geom_bond_distance
_geom_bond_site_symmetry_2
_ccdc_geom_bond_type
Zn1    O81     1.925   .     S
Zn1    O90     1.925   .     S
Zn1    O92     1.926   1_455 S
Zn1    O97     1.931   1_565 S
Zn2    O84     1.925   .     S
Zn2    O87     1.925   .     S
Zn2    O97     1.931   .     S
Zn2    O93     1.926   1_455 S
Zn3    O85     1.954   .     S
Zn3    O91     1.954   .     S
Zn3    O94     1.847   .     S
Zn3    O97     1.951   1_565 S
Zn4    O82     1.954   .     S
Zn4    O88     1.954   .     S
Zn4    O96     1.847   .     S
Zn4    O97     1.951   .     S
H5     C37     1.140   .     S
H6     C38     1.140   .     S
H7     C41     1.140   .     S
H8     C72     1.140   .     S
H9     C42     1.140   .     S
H10    C42     1.140   .     S
H11    C42     1.140   .     S
H12    C45     1.140   .     S
H13    C46     1.140   .     S
H14    C49     1.140   .     S
H15    C50     1.140   .     S
H16    C50     1.140   .     S
H17    C50     1.140   .     S
H18    C53     1.140   .     S
H19    C54     1.140   .     S
H20    C57     1.140   .     S
H21    C72     1.140   .     S
H22    C58     1.140   .     S
H23    C58     1.140   .     S
H24    C58     1.140   .     S
H25    C61     1.140   .     S
H26    C62     1.140   .     S
H27    C65     1.140   .     S
H28    C66     1.140   .     S
H29    C67     1.140   .     S
H30    C68     1.140   .     S
H31    C69     1.140   .     S
H32    C71     1.140   .     S
H33    C72     1.140   .     S
H34    C74     1.140   .     S
C35    O82     1.229   .     A
C35    C36     1.487   1_545 S
C35    O81     1.303   1_545 S
C36    C37     1.313   .     A
C36    C35     1.487   1_565 S
C36    C41     1.293   1_565 S
C37    C38     1.406   .     A
C38    C39     1.315   .     A
C39    C40     1.280   1_565 S
C39    C47     1.526   1_564 S
C40    C41     1.483   .     A
C40    O83     1.491   .     S
C40    C39     1.280   1_545 S
C41    C36     1.293   1_545 S
C42    O83     1.421   .     S
C43    O85     1.229   .     A
C43    C44     1.487   1_565 S
C43    O84     1.303   1_565 S
C44    C45     1.313   .     A
C44    C43     1.487   1_545 S
C44    C49     1.293   1_545 S
C45    C46     1.406   .     A
C46    C47     1.315   .     A
C47    C39     1.526   1_546 S
C47    C48     1.280   1_545 S
C48    C49     1.483   .     A
C48    O86     1.491   .     S
C48    C47     1.280   1_565 S
C49    C44     1.293   1_565 S
C50    O86     1.421   .     S
C51    C52     1.487   .     S
C51    O87     1.303   .     A
C51    O88     1.229   .     A
C52    C53     1.313   .     A
C52    C57     1.293   .     A
C53    C54     1.406   .     A
C54    C55     1.315   .     A
C55    C56     1.280   .     A
C55    C63     1.526   .     S
C56    C57     1.483   .     A
C56    O89     1.491   .     S
C58    O89     1.421   .     S
C59    C60     1.487   .     S
C59    O90     1.303   .     A
C59    O91     1.229   .     A
C60    C61     1.313   .     A
C60    C65     1.293   .     A
C61    C62     1.406   .     A
C62    C63     1.315   .     A
C63    C64     1.280   .     A
C64    C65     1.483   .     A
C64    H195    1.140   .     S
C66    C67     1.402   .     A
C66    C76     1.413   .     A
C67    C77     1.413   .     A
C68    C69     1.402   .     A
C68    C76     1.413   1_565 S
C69    C77     1.413   1_565 S
C70    C71     1.397   .     A
C70    O95     1.382   .     S
C70    C78     1.432   1_565 S
C71    C79     1.365   1_565 S
C72    O95     1.382   .     S
C73    C74     1.397   .     A
C73    C78     1.432   .     A
C73    H196    1.140   .     S
C74    C79     1.365   .     A
C75    C76     1.376   .     S
C75    O93     1.416   .     A
C75    O92     1.416   1_545 S
C76    C68     1.413   1_545 S
C77    C78     1.392   .     S
C77    C69     1.413   1_545 S
C78    C70     1.432   1_545 S
C79    C80     1.568   .     S
C79    C71     1.365   1_545 S
C80    O96     1.429   .     A
C80    O94     1.429   1_545 S
O81    C35     1.303   1_565 S
O84    C43     1.303   1_545 S
O92    Zn1     1.926   1_655 S
O92    C75     1.416   1_565 S
O93    Zn2     1.926   1_655 S
O94    C80     1.429   1_565 S
O97    Zn1     1.931   1_545 S
O97    Zn3     1.951   1_545 S
Zn98   O178    1.925   .     S
Zn98   O186    1.925   .     S
Zn98   O194    1.931   .     S
Zn98   O189    1.926   1_655 S
Zn99   O181    1.925   .     S
Zn99   O184    1.925   .     S
Zn99   O190    1.926   1_655 S
Zn99   O194    1.931   1_556 S
Zn100  O182    1.954   .     S
Zn100  O187    1.954   .     S
Zn100  O191    1.847   .     S
Zn100  O194    1.951   .     S
Zn101  O179    1.954   .     S
Zn101  O185    1.954   .     S
Zn101  O193    1.847   .     S
Zn101  O194    1.951   1_556 S
H102   C134    1.140   .     S
H103   C135    1.140   .     S
H104   C138    1.140   .     S
H105   C169    1.140   .     S
H106   C139    1.140   .     S
H107   C139    1.140   .     S
H108   C139    1.140   .     S
H109   C142    1.140   .     S
H110   C143    1.140   .     S
H111   C146    1.140   .     S
H112   C147    1.140   .     S
H113   C147    1.140   .     S
H114   C147    1.140   .     S
H115   C150    1.140   .     S
H116   C151    1.140   .     S
H117   C154    1.140   .     S
H118   C169    1.140   .     S
H119   C157    1.140   .     S
H120   C158    1.140   .     S
H121   C161    1.140   .     S
H122   C162    1.140   .     S
H123   C162    1.140   .     S
H124   C162    1.140   .     S
H125   C163    1.140   .     S
H126   C164    1.140   .     S
H127   C165    1.140   .     S
H128   C166    1.140   .     S
H129   C168    1.140   .     S
H130   C169    1.140   .     S
H131   C171    1.140   .     S
C132   O179    1.229   .     A
C132   C133    1.487   1_556 A
C132   O178    1.303   1_556 A
C133   C134    1.313   .     A
C133   C132    1.487   1_554 A
C133   C138    1.293   1_554 A
C134   C135    1.406   .     A
C135   C136    1.315   .     A
C136   C137    1.280   1_554 A
C136   C144    1.526   1_544 S
C137   C138    1.483   .     A
C137   O180    1.491   .     S
C137   C136    1.280   1_556 A
C138   C133    1.293   1_556 A
C139   O180    1.421   .     S
C140   O182    1.229   .     A
C140   C141    1.487   1_554 A
C140   O181    1.303   1_554 A
C141   C142    1.313   .     A
C141   C140    1.487   1_556 A
C141   C146    1.293   1_556 A
C142   C143    1.406   .     A
C143   C144    1.315   .     A
C144   C136    1.526   1_566 S
C144   C145    1.280   1_556 S
C145   C146    1.483   .     A
C145   O183    1.491   .     S
C145   C144    1.280   1_554 S
C146   C141    1.293   1_554 A
C147   O183    1.421   .     S
C148   C149    1.487   .     S
C148   O184    1.303   .     A
C148   O185    1.229   .     A
C149   C150    1.313   .     A
C149   C154    1.293   .     A
C150   C151    1.406   .     A
C151   C152    1.315   .     A
C152   C153    1.280   .     A
C152   C159    1.526   .     S
C153   C154    1.483   .     A
C153   H197    1.140   .     S
C155   C156    1.487   .     S
C155   O186    1.303   .     A
C155   O187    1.229   .     A
C156   C157    1.313   .     A
C156   C161    1.293   .     A
C157   C158    1.406   .     A
C158   C159    1.315   .     A
C159   C160    1.280   .     A
C160   C161    1.483   .     A
C160   O188    1.491   .     S
C162   O188    1.421   .     S
C163   C164    1.402   .     A
C163   C173    1.413   1_556 A
C164   C174    1.413   1_556 A
C165   C166    1.402   .     A
C165   C173    1.413   .     A
C166   C174    1.413   .     A
C167   C168    1.397   .     A
C167   C175    1.432   .     A
C167   O192    1.382   .     S
C168   C176    1.365   .     A
C169   O192    1.382   .     S
C170   C171    1.397   .     A
C170   H198    1.140   .     S
C170   C175    1.432   1_556 A
C171   C176    1.365   1_556 A
C172   C173    1.376   .     S
C172   O189    1.416   .     A
C172   O190    1.416   1_554 A
C173   C163    1.413   1_554 A
C174   C175    1.392   .     S
C174   C164    1.413   1_554 A
C175   C170    1.432   1_554 A
C176   C177    1.568   .     S
C176   C171    1.365   1_554 A
C177   O191    1.429   .     A
C177   O193    1.429   1_554 S
O178   C132    1.303   1_554 A
O181   C140    1.303   1_556 A
O189   Zn98    1.926   1_455 S
O190   Zn99    1.926   1_455 S
O190   C172    1.416   1_556 A
O193   C177    1.429   1_556 S
O194   Zn99    1.931   1_554 S
O194   Zn101   1.951   1_554 S
