data_image0
_cell_length_a       7.0472
_cell_length_b       13.4919
_cell_length_c       13.4919
_cell_angle_alpha    97.1364
_cell_angle_beta     98.6585
_cell_angle_gamma    98.6585

_symmetry_space_group_name_H-M    P 1
_symmetry_int_tables_number       1

loop_
  _symmetry_equiv_pos_as_xyz
  'x, y, z'

loop_
  _atom_site_label
  _atom_site_occupancy
  _atom_site_fract_x
  _atom_site_fract_y
  _atom_site_fract_z
  _atom_site_thermal_displace_type
  _atom_site_B_iso_or_equiv
  _atom_site_type_symbol
  Co1      1.0000 0.00000  0.00000  0.00000  Biso   1.000  Co
  Co2      1.0000 0.50000  0.00000  0.50000  Biso   1.000  Co
  Co3      1.0000 0.50000  0.50000  0.00000  Biso   1.000  Co
  H1       1.0000 0.06140  0.00280  0.77460  Biso   1.000  H
  H2       1.0000 0.58190  0.00610  0.88430  Biso   1.000  H
  H3       1.0000 0.41450  0.00720  0.72540  Biso   1.000  H
  H4       1.0000 0.93860  0.22540  0.99720  Biso   1.000  H
  H5       1.0000 0.41810  0.11570  0.99390  Biso   1.000  H
  H6       1.0000 0.58550  0.27460  0.99280  Biso   1.000  H
  H7       1.0000 0.93860  0.99720  0.22540  Biso   1.000  H
  H8       1.0000 0.41810  0.99390  0.11570  Biso   1.000  H
  H9       1.0000 0.58550  0.99280  0.27460  Biso   1.000  H
  H10      1.0000 0.06140  0.77460  0.00280  Biso   1.000  H
  H11      1.0000 0.58190  0.88430  0.00610  Biso   1.000  H
  H12      1.0000 0.41450  0.72540  0.00720  Biso   1.000  H
  C1       1.0000 0.82770  0.00256  0.66966  Biso   1.000  C
  C2       1.0000 0.92810  0.00321  0.76587  Biso   1.000  C
  C3       1.0000 0.64890  0.00542  0.82996  Biso   1.000  C
  C4       1.0000 0.54730  0.00561  0.73365  Biso   1.000  C
  C5       1.0000 0.92130  0.00078  0.57988  Biso   1.000  C
  C6       1.0000 0.17230  0.33034  0.99744  Biso   1.000  C
  C7       1.0000 0.07190  0.23413  0.99679  Biso   1.000  C
  C8       1.0000 0.35110  0.17004  0.99458  Biso   1.000  C
  C9       1.0000 0.45270  0.26635  0.99439  Biso   1.000  C
  C10      1.0000 0.07870  0.42012  0.99922  Biso   1.000  C
  C11      1.0000 0.17230  0.99744  0.33034  Biso   1.000  C
  C12      1.0000 0.07190  0.99679  0.23413  Biso   1.000  C
  C13      1.0000 0.35110  0.99458  0.17004  Biso   1.000  C
  C14      1.0000 0.45270  0.99439  0.26635  Biso   1.000  C
  C15      1.0000 0.07870  0.99922  0.42012  Biso   1.000  C
  C16      1.0000 0.82770  0.66966  0.00256  Biso   1.000  C
  C17      1.0000 0.92810  0.76587  0.00321  Biso   1.000  C
  C18      1.0000 0.64890  0.82996  0.00542  Biso   1.000  C
  C19      1.0000 0.54730  0.73365  0.00561  Biso   1.000  C
  C20      1.0000 0.92130  0.57988  0.00078  Biso   1.000  C
  N1       1.0000 0.63380  0.00357  0.65287  Biso   1.000  N
  N2       1.0000 0.83990  0.00436  0.84696  Biso   1.000  N
  N3       1.0000 0.80670  0.99985  0.49081  Biso   1.000  N
  N4       1.0000 0.11400  0.00020  0.59182  Biso   1.000  N
  N5       1.0000 0.36620  0.34713  0.99643  Biso   1.000  N
  N6       1.0000 0.16010  0.15304  0.99564  Biso   1.000  N
  N7       1.0000 0.19330  0.50919  0.00015  Biso   1.000  N
  N8       1.0000 0.88600  0.40818  0.99980  Biso   1.000  N
  N9       1.0000 0.36620  0.99643  0.34713  Biso   1.000  N
  N10      1.0000 0.16010  0.99564  0.15304  Biso   1.000  N
  N11      1.0000 0.19330  0.00015  0.50919  Biso   1.000  N
  N12      1.0000 0.88600  0.99980  0.40818  Biso   1.000  N
  N13      1.0000 0.63380  0.65287  0.00357  Biso   1.000  N
  N14      1.0000 0.83990  0.84696  0.00436  Biso   1.000  N
  N15      1.0000 0.80670  0.49081  0.99985  Biso   1.000  N
  N16      1.0000 0.11400  0.59182  0.00020  Biso   1.000  N
  Cl1      1.0000 0.60430  0.17652  0.52468  Biso   1.000  Cl
  Cl2      1.0000 0.39570  0.47532  0.82348  Biso   1.000  Cl
  Cl3      1.0000 0.39570  0.82348  0.47532  Biso   1.000  Cl
  Cl4      1.0000 0.60430  0.52468  0.17652  Biso   1.000  Cl
  Cl5      1.0000 0.76422  0.07688  0.07688  Biso   1.000  Cl
  Cl6      1.0000 0.23578  0.92312  0.92312  Biso   1.000  Cl
