data_image0
_cell_length_a       10.31
_cell_length_b       20.002
_cell_length_c       22.95
_cell_angle_alpha    90
_cell_angle_beta     90
_cell_angle_gamma    90.49

_symmetry_space_group_name_H-M    P 1
_symmetry_int_tables_number       1

loop_
  _symmetry_equiv_pos_as_xyz
  'x, y, z'

loop_
  _atom_site_label
  _atom_site_occupancy
  _atom_site_fract_x
  _atom_site_fract_y
  _atom_site_fract_z
  _atom_site_thermal_displace_type
  _atom_site_B_iso_or_equiv
  _atom_site_type_symbol
  Ag1      1.0000 0.47806  0.33983  0.33136  Biso   1.000  Ag
  Ag2      1.0000 0.90383  0.88409  0.24219  Biso   1.000  Ag
  Ag3      1.0000 0.90146  0.93443  0.51079  Biso   1.000  Ag
  Ag4      1.0000 0.90807  0.42581  0.88205  Biso   1.000  Ag
  Ag5      1.0000 0.52310  0.16854  0.56374  Biso   1.000  Ag
  Ag6      1.0000 0.00548  0.33177  0.55334  Biso   1.000  Ag
  Ag7      1.0000 0.40377  0.95257  0.37278  Biso   1.000  Ag
  Ag8      1.0000 0.41091  0.87592  0.64860  Biso   1.000  Ag
  Ag9      1.0000 0.08777  0.62151  0.65288  Biso   1.000  Ag
  Ag10     1.0000 0.60366  0.55726  0.51496  Biso   1.000  Ag
  Ag11     1.0000 0.39734  0.38329  0.74740  Biso   1.000  Ag
  Ag12     1.0000 0.97656  0.17338  0.34909  Biso   1.000  Ag
  Ag13     1.0000 0.52194  0.66017  0.83136  Biso   1.000  Ag
  Ag14     1.0000 0.09617  0.11591  0.74219  Biso   1.000  Ag
  Ag15     1.0000 0.09854  0.06557  0.01079  Biso   1.000  Ag
  Ag16     1.0000 0.09193  0.57419  0.38205  Biso   1.000  Ag
  Ag17     1.0000 0.47690  0.83146  0.06374  Biso   1.000  Ag
  Ag18     1.0000 0.99452  0.66823  0.05334  Biso   1.000  Ag
  Ag19     1.0000 0.59623  0.04743  0.87278  Biso   1.000  Ag
  Ag20     1.0000 0.58909  0.12408  0.14860  Biso   1.000  Ag
  Ag21     1.0000 0.91223  0.37849  0.15288  Biso   1.000  Ag
  Ag22     1.0000 0.39634  0.44274  0.01496  Biso   1.000  Ag
  Ag23     1.0000 0.60266  0.61671  0.24740  Biso   1.000  Ag
  Ag24     1.0000 0.02344  0.82662  0.84909  Biso   1.000  Ag
  P1       1.0000 0.50980  0.71300  0.53930  Biso   1.000  P
  P2       1.0000 0.09060  0.30565  0.41792  Biso   1.000  P
  P3       1.0000 0.96130  0.26760  0.83481  Biso   1.000  P
  P4       1.0000 0.43830  0.49870  0.62660  Biso   1.000  P
  P5       1.0000 0.90590  0.79300  0.59050  Biso   1.000  P
  P6       1.0000 0.44540  0.21750  0.43115  Biso   1.000  P
  P7       1.0000 0.08320  0.47630  0.76385  Biso   1.000  P
  P8       1.0000 0.49020  0.28700  0.03930  Biso   1.000  P
  P9       1.0000 0.90940  0.69435  0.91792  Biso   1.000  P
  P10      1.0000 0.03870  0.73240  0.33481  Biso   1.000  P
  P11      1.0000 0.56170  0.50130  0.12660  Biso   1.000  P
  P12      1.0000 0.09410  0.20700  0.09050  Biso   1.000  P
  P13      1.0000 0.55460  0.78250  0.93115  Biso   1.000  P
  P14      1.0000 0.91680  0.52370  0.26385  Biso   1.000  P
  H1       1.0000 0.40380  0.61500  0.59340  Biso   1.000  H
  H2       1.0000 0.26140  0.20390  0.43090  Biso   1.000  H
  H3       1.0000 0.49560  0.06520  0.45620  Biso   1.000  H
  H4       1.0000 0.36880  0.04690  0.48970  Biso   1.000  H
  H5       1.0000 0.37420  0.01820  0.58820  Biso   1.000  H
  H6       1.0000 0.50220  0.01990  0.62400  Biso   1.000  H
  H7       1.0000 0.70810  0.04600  0.57000  Biso   1.000  H
  H8       1.0000 0.69830  0.06220  0.50400  Biso   1.000  H
  H9       1.0000 0.62430  0.90400  0.45550  Biso   1.000  H
  H10      1.0000 0.64990  0.97720  0.43540  Biso   1.000  H
  H11      1.0000 0.66920  0.93190  0.60220  Biso   1.000  H
  H12      1.0000 0.63480  0.87710  0.55670  Biso   1.000  H
  H13      1.0000 0.42060  0.87790  0.50980  Biso   1.000  H
  H14      1.0000 0.32630  0.93650  0.52240  Biso   1.000  H
  H15      1.0000 0.05680  0.62910  0.51760  Biso   1.000  H
  H16      1.0000 0.16760  0.57780  0.52660  Biso   1.000  H
  H17      1.0000 0.85360  0.53230  0.43790  Biso   1.000  H
  H18      1.0000 0.87390  0.60250  0.46550  Biso   1.000  H
  H19      1.0000 0.80420  0.43590  0.50290  Biso   1.000  H
  H20      1.0000 0.80110  0.44660  0.57010  Biso   1.000  H
  H21      1.0000 0.14210  0.46490  0.48700  Biso   1.000  H
  H22      1.0000 0.01850  0.44720  0.45100  Biso   1.000  H
  H23      1.0000 0.82580  0.55820  0.60890  Biso   1.000  H
  H24      1.0000 0.85340  0.61750  0.56680  Biso   1.000  H
  H25      1.0000 0.12830  0.48150  0.59030  Biso   1.000  H
  H26      1.0000 0.99670  0.47310  0.62270  Biso   1.000  H
  H27      1.0000 0.06240  0.69210  0.77250  Biso   1.000  H
  H28      1.0000 0.02750  0.74660  0.72680  Biso   1.000  H
  H29      1.0000 0.31340  0.72890  0.64380  Biso   1.000  H
  H30      1.0000 0.18760  0.77080  0.64690  Biso   1.000  H
  H31      1.0000 0.15560  0.84910  0.72220  Biso   1.000  H
  H32      1.0000 0.26360  0.86240  0.76790  Biso   1.000  H
  H33      1.0000 0.25690  0.62920  0.76520  Biso   1.000  H
  H34      1.0000 0.35550  0.64220  0.71490  Biso   1.000  H
  H35      1.0000 0.31200  0.77780  0.84040  Biso   1.000  H
  H36      1.0000 0.23150  0.71180  0.84250  Biso   1.000  H
  H37      1.0000 0.46700  0.79760  0.76290  Biso   1.000  H
  H38      1.0000 0.48470  0.74520  0.71350  Biso   1.000  H
  H39      1.0000 0.56920  0.62320  0.38670  Biso   1.000  H
  H40      1.0000 0.66440  0.56520  0.37410  Biso   1.000  H
  H41      1.0000 0.60430  0.45110  0.40830  Biso   1.000  H
  H42      1.0000 0.47280  0.44270  0.44040  Biso   1.000  H
  H43      1.0000 0.32350  0.57260  0.29130  Biso   1.000  H
  H44      1.0000 0.36400  0.62870  0.33460  Biso   1.000  H
  H45      1.0000 0.36950  0.60500  0.43690  Biso   1.000  H
  H46      1.0000 0.33210  0.53390  0.45860  Biso   1.000  H
  H47      1.0000 0.60070  0.47580  0.30280  Biso   1.000  H
  H48      1.0000 0.46700  0.48070  0.27190  Biso   1.000  H
  H49      1.0000 0.27620  0.44930  0.39130  Biso   1.000  H
  H50      1.0000 0.27060  0.46530  0.32520  Biso   1.000  H
  H51      1.0000 0.35890  0.15190  0.67570  Biso   1.000  H
  H52      1.0000 0.25930  0.13760  0.62650  Biso   1.000  H
  H53      1.0000 0.45550  0.30780  0.62930  Biso   1.000  H
  H54      1.0000 0.47870  0.25440  0.67720  Biso   1.000  H
  H55      1.0000 0.31300  0.23030  0.74970  Biso   1.000  H
  H56      1.0000 0.18320  0.26920  0.74840  Biso   1.000  H
  H57      1.0000 0.15270  0.35480  0.67240  Biso   1.000  H
  H58      1.0000 0.26060  0.36750  0.62630  Biso   1.000  H
  H59      1.0000 0.22370  0.21910  0.55230  Biso   1.000  H
  H60      1.0000 0.30230  0.28580  0.55280  Biso   1.000  H
  H61      1.0000 0.05380  0.19860  0.62570  Biso   1.000  H
  H62      1.0000 0.03170  0.25190  0.67400  Biso   1.000  H
  H63      1.0000 0.88000  0.03600  0.40600  Biso   1.000  H
  H64      1.0000 0.02400  0.06200  0.44500  Biso   1.000  H
  H65      1.0000 0.17300  0.97400  0.28800  Biso   1.000  H
  H66      1.0000 0.13500  0.90000  0.32900  Biso   1.000  H
  H67      1.0000 0.16600  0.98400  0.45300  Biso   1.000  H
  H68      1.0000 0.15700  0.90900  0.42700  Biso   1.000  H
  H69      1.0000 0.18000  0.07000  0.39000  Biso   1.000  H
  H70      1.0000 0.21300  0.06000  0.32200  Biso   1.000  H
  H71      1.0000 0.02000  0.04100  0.26700  Biso   1.000  H
  H72      1.0000 0.88000  0.03600  0.30600  Biso   1.000  H
  H73      1.0000 0.93800  0.87600  0.37500  Biso   1.000  H
  H74      1.0000 0.84300  0.92500  0.36600  Biso   1.000  H
  H75      1.0000 0.59620  0.38500  0.09340  Biso   1.000  H
  H76      1.0000 0.73860  0.79610  0.93090  Biso   1.000  H
  H77      1.0000 0.50440  0.93480  0.95620  Biso   1.000  H
  H78      1.0000 0.63120  0.95310  0.98970  Biso   1.000  H
  H79      1.0000 0.62580  0.98180  0.08820  Biso   1.000  H
  H80      1.0000 0.49780  0.98010  0.12400  Biso   1.000  H
  H81      1.0000 0.29190  0.95400  0.07000  Biso   1.000  H
  H82      1.0000 0.30170  0.93780  0.00400  Biso   1.000  H
  H83      1.0000 0.37570  0.09600  0.95550  Biso   1.000  H
  H84      1.0000 0.35010  0.02280  0.93540  Biso   1.000  H
  H85      1.0000 0.33080  0.06810  0.10220  Biso   1.000  H
  H86      1.0000 0.36520  0.12290  0.05670  Biso   1.000  H
  H87      1.0000 0.57940  0.12210  0.00980  Biso   1.000  H
  H88      1.0000 0.67370  0.06350  0.02240  Biso   1.000  H
  H89      1.0000 0.94320  0.37090  0.01760  Biso   1.000  H
  H90      1.0000 0.83240  0.42220  0.02660  Biso   1.000  H
  H91      1.0000 0.14640  0.46770  0.93790  Biso   1.000  H
  H92      1.0000 0.12610  0.39750  0.96550  Biso   1.000  H
  H93      1.0000 0.19580  0.56410  0.00290  Biso   1.000  H
  H94      1.0000 0.19890  0.55340  0.07010  Biso   1.000  H
  H95      1.0000 0.85790  0.53510  0.98700  Biso   1.000  H
  H96      1.0000 0.98150  0.55280  0.95100  Biso   1.000  H
  H97      1.0000 0.17420  0.44180  0.10890  Biso   1.000  H
  H98      1.0000 0.14660  0.38250  0.06680  Biso   1.000  H
  H99      1.0000 0.87170  0.51850  0.09030  Biso   1.000  H
  H100     1.0000 0.00330  0.52690  0.12270  Biso   1.000  H
  H101     1.0000 0.93760  0.30790  0.27250  Biso   1.000  H
  H102     1.0000 0.97250  0.25340  0.22680  Biso   1.000  H
  H103     1.0000 0.68660  0.27110  0.14380  Biso   1.000  H
  H104     1.0000 0.81240  0.22920  0.14690  Biso   1.000  H
  H105     1.0000 0.84440  0.15090  0.22220  Biso   1.000  H
  H106     1.0000 0.73640  0.13760  0.26790  Biso   1.000  H
  H107     1.0000 0.74310  0.37080  0.26520  Biso   1.000  H
  H108     1.0000 0.64450  0.35780  0.21490  Biso   1.000  H
  H109     1.0000 0.68800  0.22220  0.34040  Biso   1.000  H
  H110     1.0000 0.76850  0.28820  0.34250  Biso   1.000  H
  H111     1.0000 0.53300  0.20240  0.26290  Biso   1.000  H
  H112     1.0000 0.51530  0.25480  0.21350  Biso   1.000  H
  H113     1.0000 0.43080  0.37680  0.88670  Biso   1.000  H
  H114     1.0000 0.33560  0.43480  0.87410  Biso   1.000  H
  H115     1.0000 0.39570  0.54890  0.90830  Biso   1.000  H
  H116     1.0000 0.52720  0.55730  0.94040  Biso   1.000  H
  H117     1.0000 0.67650  0.42740  0.79130  Biso   1.000  H
  H118     1.0000 0.63600  0.37130  0.83460  Biso   1.000  H
  H119     1.0000 0.63050  0.39500  0.93690  Biso   1.000  H
  H120     1.0000 0.66790  0.46610  0.95860  Biso   1.000  H
  H121     1.0000 0.39930  0.52420  0.80280  Biso   1.000  H
  H122     1.0000 0.53300  0.51930  0.77190  Biso   1.000  H
  H123     1.0000 0.72380  0.55070  0.89130  Biso   1.000  H
  H124     1.0000 0.72940  0.53470  0.82520  Biso   1.000  H
  H125     1.0000 0.64110  0.84810  0.17570  Biso   1.000  H
  H126     1.0000 0.74070  0.86240  0.12650  Biso   1.000  H
  H127     1.0000 0.54450  0.69220  0.12930  Biso   1.000  H
  H128     1.0000 0.52130  0.74560  0.17720  Biso   1.000  H
  H129     1.0000 0.68700  0.76970  0.24970  Biso   1.000  H
  H130     1.0000 0.81680  0.73080  0.24840  Biso   1.000  H
  H131     1.0000 0.84730  0.64520  0.17240  Biso   1.000  H
  H132     1.0000 0.73940  0.63250  0.12630  Biso   1.000  H
  H133     1.0000 0.77630  0.78090  0.05230  Biso   1.000  H
  H134     1.0000 0.69770  0.71420  0.05280  Biso   1.000  H
  H135     1.0000 0.94620  0.80140  0.12570  Biso   1.000  H
  H136     1.0000 0.96830  0.74810  0.17400  Biso   1.000  H
  H137     1.0000 0.12000  0.96400  0.90600  Biso   1.000  H
  H138     1.0000 0.97600  0.93800  0.94500  Biso   1.000  H
  H139     1.0000 0.82700  0.02600  0.78800  Biso   1.000  H
  H140     1.0000 0.86500  0.10000  0.82900  Biso   1.000  H
  H141     1.0000 0.83400  0.01600  0.95300  Biso   1.000  H
  H142     1.0000 0.84300  0.09100  0.92700  Biso   1.000  H
  H143     1.0000 0.82000  0.93000  0.89000  Biso   1.000  H
  H144     1.0000 0.78700  0.94000  0.82200  Biso   1.000  H
  H145     1.0000 0.98000  0.95900  0.76700  Biso   1.000  H
  H146     1.0000 0.12000  0.96400  0.80600  Biso   1.000  H
  H147     1.0000 0.06200  0.12400  0.87500  Biso   1.000  H
  H148     1.0000 0.15700  0.07500  0.86600  Biso   1.000  H
  C1       1.0000 0.45960  0.03740  0.48630  Biso   1.000  C
  C2       1.0000 0.46550  0.00930  0.58660  Biso   1.000  C
  C3       1.0000 0.66250  0.03530  0.53470  Biso   1.000  C
  C4       1.0000 0.61320  0.95010  0.46580  Biso   1.000  C
  C5       1.0000 0.62440  0.92350  0.56630  Biso   1.000  C
  C6       1.0000 0.41600  0.92470  0.51880  Biso   1.000  C
  C7       1.0000 0.07530  0.58260  0.52390  Biso   1.000  C
  C8       1.0000 0.88810  0.55550  0.47110  Biso   1.000  C
  C9       1.0000 0.84120  0.46120  0.53450  Biso   1.000  C
  C10      1.0000 0.05040  0.47210  0.48380  Biso   1.000  C
  C11      1.0000 0.86910  0.57090  0.57350  Biso   1.000  C
  C12      1.0000 0.03650  0.48840  0.58730  Biso   1.000  C
  C13      1.0000 0.09760  0.72670  0.74800  Biso   1.000  C
  C14      1.0000 0.25300  0.74950  0.66990  Biso   1.000  C
  C15      1.0000 0.22260  0.82840  0.74470  Biso   1.000  C
  C16      1.0000 0.29490  0.66310  0.74080  Biso   1.000  C
  C17      1.0000 0.26780  0.74500  0.81700  Biso   1.000  C
  C18      1.0000 0.42240  0.76530  0.73910  Biso   1.000  C
  C19      1.0000 0.57430  0.57640  0.37740  Biso   1.000  C
  C20      1.0000 0.51650  0.46670  0.40980  Biso   1.000  C
  C21      1.0000 0.36960  0.58170  0.32690  Biso   1.000  C
  C22      1.0000 0.37450  0.55830  0.42790  Biso   1.000  C
  C23      1.0000 0.51240  0.48970  0.30770  Biso   1.000  C
  C24      1.0000 0.31730  0.47420  0.36060  Biso   1.000  C
  C25      1.0000 0.29520  0.17200  0.65080  Biso   1.000  C
  C26      1.0000 0.41420  0.27390  0.65250  Biso   1.000  C
  C27      1.0000 0.24980  0.25020  0.72450  Biso   1.000  C
  C28      1.0000 0.21920  0.33380  0.64970  Biso   1.000  C
  C29      1.0000 0.26180  0.25260  0.57700  Biso   1.000  C
  C30      1.0000 0.09610  0.23140  0.64980  Biso   1.000  C
  C31      1.0000 0.96510  0.03770  0.41340  Biso   1.000  C
  C32      1.0000 0.12220  0.93880  0.31850  Biso   1.000  C
  C33      1.0000 0.12840  0.95480  0.42240  Biso   1.000  C
  C34      1.0000 0.15780  0.04850  0.35990  Biso   1.000  C
  C35      1.0000 0.96400  0.02290  0.30810  Biso   1.000  C
  C36      1.0000 0.92670  0.92790  0.37130  Biso   1.000  C
  C37      1.0000 0.54040  0.96260  0.98630  Biso   1.000  C
  C38      1.0000 0.53450  0.99070  0.08660  Biso   1.000  C
  C39      1.0000 0.33750  0.96470  0.03470  Biso   1.000  C
  C40      1.0000 0.38680  0.04990  0.96580  Biso   1.000  C
  C41      1.0000 0.37560  0.07650  0.06630  Biso   1.000  C
  C42      1.0000 0.58400  0.07530  0.01880  Biso   1.000  C
  C43      1.0000 0.92470  0.41740  0.02390  Biso   1.000  C
  C44      1.0000 0.11190  0.44450  0.97110  Biso   1.000  C
  C45      1.0000 0.15880  0.53880  0.03450  Biso   1.000  C
  C46      1.0000 0.94960  0.52790  0.98380  Biso   1.000  C
  C47      1.0000 0.13090  0.42910  0.07350  Biso   1.000  C
  C48      1.0000 0.96350  0.51160  0.08730  Biso   1.000  C
  C49      1.0000 0.90240  0.27330  0.24800  Biso   1.000  C
  C50      1.0000 0.74700  0.25050  0.16990  Biso   1.000  C
  C51      1.0000 0.77740  0.17160  0.24470  Biso   1.000  C
  C52      1.0000 0.70510  0.33690  0.24080  Biso   1.000  C
  C53      1.0000 0.73220  0.25500  0.31700  Biso   1.000  C
  C54      1.0000 0.57760  0.23470  0.23910  Biso   1.000  C
  C55      1.0000 0.42570  0.42360  0.87740  Biso   1.000  C
  C56      1.0000 0.48350  0.53330  0.90980  Biso   1.000  C
  C57      1.0000 0.63040  0.41830  0.82690  Biso   1.000  C
  C58      1.0000 0.62550  0.44170  0.92790  Biso   1.000  C
  C59      1.0000 0.48760  0.51030  0.80770  Biso   1.000  C
  C60      1.0000 0.68270  0.52580  0.86060  Biso   1.000  C
  C61      1.0000 0.70480  0.82800  0.15080  Biso   1.000  C
  C62      1.0000 0.58580  0.72610  0.15250  Biso   1.000  C
  C63      1.0000 0.75020  0.74980  0.22450  Biso   1.000  C
  C64      1.0000 0.78080  0.66620  0.14970  Biso   1.000  C
  C65      1.0000 0.73820  0.74740  0.07700  Biso   1.000  C
  C66      1.0000 0.90390  0.76860  0.14980  Biso   1.000  C
  C67      1.0000 0.03490  0.96230  0.91340  Biso   1.000  C
  C68      1.0000 0.87780  0.06120  0.81850  Biso   1.000  C
  C69      1.0000 0.87160  0.04520  0.92240  Biso   1.000  C
  C70      1.0000 0.84220  0.95150  0.85990  Biso   1.000  C
  C71      1.0000 0.03600  0.97710  0.80810  Biso   1.000  C
  C72      1.0000 0.07330  0.07210  0.87130  Biso   1.000  C
  N1       1.0000 0.52550  0.05100  0.54210  Biso   1.000  N
  N2       1.0000 0.68150  0.96430  0.52080  Biso   1.000  N
  N3       1.0000 0.47750  0.96450  0.47120  Biso   1.000  N
  N4       1.0000 0.48490  0.93780  0.57370  Biso   1.000  N
  N5       1.0000 0.02580  0.54340  0.47550  Biso   1.000  N
  N6       1.0000 0.81730  0.53220  0.52550  Biso   1.000  N
  N7       1.0000 0.98500  0.44950  0.53730  Biso   1.000  N
  N8       1.0000 0.01260  0.55980  0.57930  Biso   1.000  N
  N9       1.0000 0.31990  0.79900  0.70410  Biso   1.000  N
  N10      1.0000 0.36160  0.71290  0.77690  Biso   1.000  N
  N11      1.0000 0.19190  0.69730  0.70670  Biso   1.000  N
  N12      1.0000 0.16280  0.77720  0.78390  Biso   1.000  N
  N13      1.0000 0.50950  0.56300  0.31980  Biso   1.000  N
  N14      1.0000 0.45290  0.45070  0.35460  Biso   1.000  N
  N15      1.0000 0.51730  0.53730  0.42470  Biso   1.000  N
  N16      1.0000 0.31020  0.54500  0.37420  Biso   1.000  N
  N17      1.0000 0.36030  0.22240  0.61410  Biso   1.000  N
  N18      1.0000 0.16040  0.28360  0.61200  Biso   1.000  N
  N19      1.0000 0.19320  0.19890  0.68660  Biso   1.000  N
  N20      1.0000 0.31330  0.30450  0.68840  Biso   1.000  N
  N21      1.0000 0.02070  0.06110  0.35620  Biso   1.000  N
  N22      1.0000 0.98440  0.94970  0.31610  Biso   1.000  N
  N23      1.0000 0.18710  0.97740  0.36730  Biso   1.000  N
  N24      1.0000 0.98490  0.96490  0.42120  Biso   1.000  N
  N25      1.0000 0.47450  0.94900  0.04210  Biso   1.000  N
  N26      1.0000 0.31850  0.03570  0.02080  Biso   1.000  N
  N27      1.0000 0.52250  0.03550  0.97120  Biso   1.000  N
  N28      1.0000 0.51510  0.06220  0.07370  Biso   1.000  N
  N29      1.0000 0.97420  0.45660  0.97550  Biso   1.000  N
  N30      1.0000 0.18270  0.46780  0.02550  Biso   1.000  N
  N31      1.0000 0.01500  0.55050  0.03730  Biso   1.000  N
  N32      1.0000 0.98740  0.44020  0.07930  Biso   1.000  N
  N33      1.0000 0.68010  0.20100  0.20410  Biso   1.000  N
  N34      1.0000 0.63840  0.28710  0.27690  Biso   1.000  N
  N35      1.0000 0.80810  0.30270  0.20670  Biso   1.000  N
  N36      1.0000 0.83720  0.22280  0.28390  Biso   1.000  N
  N37      1.0000 0.49050  0.43700  0.81980  Biso   1.000  N
  N38      1.0000 0.54710  0.54930  0.85460  Biso   1.000  N
  N39      1.0000 0.48270  0.46270  0.92470  Biso   1.000  N
  N40      1.0000 0.68980  0.45500  0.87420  Biso   1.000  N
  N41      1.0000 0.63970  0.77760  0.11410  Biso   1.000  N
  N42      1.0000 0.83960  0.71640  0.11200  Biso   1.000  N
  N43      1.0000 0.80680  0.80110  0.18660  Biso   1.000  N
  N44      1.0000 0.68670  0.69550  0.18840  Biso   1.000  N
  N45      1.0000 0.97930  0.93890  0.85620  Biso   1.000  N
  N46      1.0000 0.01560  0.05030  0.81610  Biso   1.000  N
  N47      1.0000 0.81290  0.02260  0.86730  Biso   1.000  N
  N48      1.0000 0.01510  0.03510  0.92120  Biso   1.000  N
  O1       1.0000 0.55170  0.75810  0.59250  Biso   1.000  O
  O2       1.0000 0.43470  0.75590  0.49710  Biso   1.000  O
  O3       1.0000 0.62160  0.67650  0.51640  Biso   1.000  O
  O4       1.0000 0.40570  0.66240  0.56580  Biso   1.000  O
  O5       1.0000 0.96920  0.32080  0.44940  Biso   1.000  O
  O6       1.0000 0.08000  0.34060  0.35710  Biso   1.000  O
  O7       1.0000 0.12000  0.23240  0.40950  Biso   1.000  O
  O8       1.0000 0.20520  0.33950  0.44970  Biso   1.000  O
  O9       1.0000 0.95250  0.22390  0.77830  Biso   1.000  O
  O10      1.0000 0.92360  0.33750  0.82120  Biso   1.000  O
  O11      1.0000 0.88160  0.23740  0.88360  Biso   1.000  O
  O12      1.0000 0.10580  0.26170  0.85070  Biso   1.000  O
  O13      1.0000 0.52390  0.55510  0.61320  Biso   1.000  O
  O14      1.0000 0.50500  0.44890  0.66820  Biso   1.000  O
  O15      1.0000 0.31240  0.52200  0.65210  Biso   1.000  O
  O16      1.0000 0.40080  0.46270  0.56830  Biso   1.000  O
  O17      1.0000 0.86480  0.82550  0.53550  Biso   1.000  O
  O18      1.0000 0.00160  0.73450  0.57910  Biso   1.000  O
  O19      1.0000 0.79470  0.76400  0.62610  Biso   1.000  O
  O20      1.0000 0.97660  0.84360  0.63270  Biso   1.000  O
  O21      1.0000 0.56110  0.19350  0.46270  Biso   1.000  O
  O22      1.0000 0.32310  0.18150  0.45640  Biso   1.000  O
  O23      1.0000 0.45530  0.19260  0.36540  Biso   1.000  O
  O24      1.0000 0.42970  0.29140  0.43090  Biso   1.000  O
  O25      1.0000 0.02570  0.53610  0.73210  Biso   1.000  O
  O26      1.0000 0.21890  0.46900  0.74040  Biso   1.000  O
  O27      1.0000 0.99870  0.41410  0.74110  Biso   1.000  O
  O28      1.0000 0.07400  0.48230  0.82860  Biso   1.000  O
  O29      1.0000 0.44830  0.24190  0.09250  Biso   1.000  O
  O30      1.0000 0.56530  0.24410  0.99710  Biso   1.000  O
  O31      1.0000 0.37840  0.32350  0.01640  Biso   1.000  O
  O32      1.0000 0.59430  0.33760  0.06580  Biso   1.000  O
  O33      1.0000 0.03080  0.67920  0.94940  Biso   1.000  O
  O34      1.0000 0.92000  0.65940  0.85710  Biso   1.000  O
  O35      1.0000 0.88000  0.76760  0.90950  Biso   1.000  O
  O36      1.0000 0.79480  0.66050  0.94970  Biso   1.000  O
  O37      1.0000 0.04750  0.77610  0.27830  Biso   1.000  O
  O38      1.0000 0.07640  0.66250  0.32120  Biso   1.000  O
  O39      1.0000 0.11840  0.76260  0.38360  Biso   1.000  O
  O40      1.0000 0.89420  0.73830  0.35070  Biso   1.000  O
  O41      1.0000 0.47610  0.44490  0.11320  Biso   1.000  O
  O42      1.0000 0.49500  0.55110  0.16820  Biso   1.000  O
  O43      1.0000 0.68760  0.47800  0.15210  Biso   1.000  O
  O44      1.0000 0.59920  0.53730  0.06830  Biso   1.000  O
  O45      1.0000 0.13520  0.17450  0.03550  Biso   1.000  O
  O46      1.0000 0.99840  0.26550  0.07910  Biso   1.000  O
  O47      1.0000 0.20530  0.23600  0.12610  Biso   1.000  O
  O48      1.0000 0.02340  0.15640  0.13270  Biso   1.000  O
  O49      1.0000 0.43890  0.80650  0.96270  Biso   1.000  O
  O50      1.0000 0.67690  0.81850  0.95640  Biso   1.000  O
  O51      1.0000 0.54470  0.80740  0.86540  Biso   1.000  O
  O52      1.0000 0.57030  0.70860  0.93090  Biso   1.000  O
  O53      1.0000 0.97430  0.46390  0.23210  Biso   1.000  O
  O54      1.0000 0.78110  0.53100  0.24040  Biso   1.000  O
  O55      1.0000 0.00130  0.58590  0.24110  Biso   1.000  O
  O56      1.0000 0.92600  0.51770  0.32860  Biso   1.000  O
