data_image0
_cell_length_a       14.306
_cell_length_b       19.509
_cell_length_c       36.482
_cell_angle_alpha    90
_cell_angle_beta     99.629
_cell_angle_gamma    90

_symmetry_space_group_name_H-M    P 1
_symmetry_int_tables_number       1

loop_
  _symmetry_equiv_pos_as_xyz
  'x, y, z'

loop_
  _atom_site_label
  _atom_site_occupancy
  _atom_site_fract_x
  _atom_site_fract_y
  _atom_site_fract_z
  _atom_site_thermal_displace_type
  _atom_site_B_iso_or_equiv
  _atom_site_type_symbol
  Cd1      1.0000 0.68217  0.98032  0.69507  Biso   1.000  Cd
  Cd2      1.0000 0.44687  0.00011  0.66267  Biso   1.000  Cd
  Cd3      1.0000 0.18127  0.44562  0.16345  Biso   1.000  Cd
  Cd4      1.0000 0.68217  0.51968  0.19507  Biso   1.000  Cd
  Cd5      1.0000 0.44687  0.49989  0.16267  Biso   1.000  Cd
  Cd6      1.0000 0.18127  0.05438  0.66345  Biso   1.000  Cd
  H1       1.0000 0.69560  0.12690  0.58880  Biso   1.000  H
  H2       1.0000 0.50620  0.30140  0.62510  Biso   1.000  H
  H3       1.0000 0.52400  0.20010  0.65680  Biso   1.000  H
  H4       1.0000 0.55550  0.37800  0.57650  Biso   1.000  H
  H5       1.0000 0.71410  0.30070  0.50400  Biso   1.000  H
  H6       1.0000 0.72640  0.19770  0.53520  Biso   1.000  H
  H7       1.0000 0.48720  0.86550  0.56720  Biso   1.000  H
  H8       1.0000 0.48740  0.77860  0.52520  Biso   1.000  H
  H9       1.0000 0.69180  0.77300  0.64040  Biso   1.000  H
  H10      1.0000 0.55110  0.66430  0.50910  Biso   1.000  H
  H11      1.0000 0.75220  0.56960  0.58330  Biso   1.000  H
  H12      1.0000 0.75680  0.65940  0.62360  Biso   1.000  H
  H13      1.0000 0.46450  0.43860  0.28930  Biso   1.000  H
  H14      1.0000 0.65840  0.61510  0.34670  Biso   1.000  H
  H15      1.0000 0.61980  0.60800  0.28190  Biso   1.000  H
  H16      1.0000 0.45460  0.39120  0.35160  Biso   1.000  H
  H17      1.0000 0.49540  0.39660  0.41570  Biso   1.000  H
  H18      1.0000 0.64560  0.57090  0.40950  Biso   1.000  H
  H19      1.0000 0.65700  0.47730  0.56420  Biso   1.000  H
  H20      1.0000 0.60550  0.58650  0.46870  Biso   1.000  H
  H21      1.0000 0.60750  0.37900  0.46550  Biso   1.000  H
  H22      1.0000 0.38060  0.36400  0.05300  Biso   1.000  H
  H23      1.0000 0.32820  0.27070  0.01500  Biso   1.000  H
  H24      1.0000 0.25250  0.28960  0.13510  Biso   1.000  H
  H25      1.0000 0.16360  0.17930  0.12550  Biso   1.000  H
  H26      1.0000 0.11420  0.08570  0.08850  Biso   1.000  H
  H27      1.0000 0.23640  0.16220  0.00590  Biso   1.000  H
  H28      1.0000 0.12820  0.63340  0.08800  Biso   1.000  H
  H29      1.0000 0.35920  0.80100  0.12210  Biso   1.000  H
  H30      1.0000 0.37410  0.69460  0.15020  Biso   1.000  H
  H31      1.0000 0.04110  0.71030  0.04040  Biso   1.000  H
  H32      1.0000 0.02980  0.81390  0.00930  Biso   1.000  H
  H33      1.0000 0.26800  0.88120  0.07570  Biso   1.000  H
  H34      1.0000 0.78020  0.10120  0.80980  Biso   1.000  H
  H35      1.0000 0.86440  0.11830  0.86880  Biso   1.000  H
  H36      1.0000 0.93700  0.93130  0.79700  Biso   1.000  H
  H37      1.0000 0.98950  0.07840  0.92090  Biso   1.000  H
  H38      1.0000 0.13510  0.90520  0.90930  Biso   1.000  H
  H39      1.0000 0.06080  0.89520  0.84810  Biso   1.000  H
  H40      1.0000 0.17730  0.98660  0.06570  Biso   1.000  H
  H41      1.0000 0.09550  0.88890  0.96820  Biso   1.000  H
  H42      1.0000 0.11360  0.09450  0.97080  Biso   1.000  H
  H43      1.0000 0.93340  0.25710  0.10690  Biso   1.000  H
  H44      1.0000 0.97330  0.21500  0.07510  Biso   1.000  H
  H45      1.0000 0.88960  0.26940  0.06400  Biso   1.000  H
  H46      1.0000 0.09760  0.36010  0.04520  Biso   1.000  H
  H47      1.0000 0.99390  0.33920  0.02460  Biso   1.000  H
  H48      1.0000 0.07390  0.28170  0.03450  Biso   1.000  H
  H49      1.0000 0.02510  0.34340  0.13080  Biso   1.000  H
  H50      1.0000 0.69560  0.37310  0.08880  Biso   1.000  H
  H51      1.0000 0.50620  0.19860  0.12510  Biso   1.000  H
  H52      1.0000 0.52400  0.29990  0.15680  Biso   1.000  H
  H53      1.0000 0.55550  0.12200  0.07650  Biso   1.000  H
  H54      1.0000 0.71410  0.19930  0.00400  Biso   1.000  H
  H55      1.0000 0.72640  0.30230  0.03520  Biso   1.000  H
  H56      1.0000 0.48720  0.63450  0.06720  Biso   1.000  H
  H57      1.0000 0.48740  0.72140  0.02520  Biso   1.000  H
  H58      1.0000 0.69180  0.72700  0.14040  Biso   1.000  H
  H59      1.0000 0.55110  0.83570  0.00910  Biso   1.000  H
  H60      1.0000 0.75220  0.93040  0.08330  Biso   1.000  H
  H61      1.0000 0.75680  0.84060  0.12360  Biso   1.000  H
  H62      1.0000 0.46450  0.06140  0.78930  Biso   1.000  H
  H63      1.0000 0.65840  0.88490  0.84670  Biso   1.000  H
  H64      1.0000 0.61980  0.89200  0.78190  Biso   1.000  H
  H65      1.0000 0.45460  0.10880  0.85160  Biso   1.000  H
  H66      1.0000 0.49540  0.10340  0.91570  Biso   1.000  H
  H67      1.0000 0.64560  0.92910  0.90950  Biso   1.000  H
  H68      1.0000 0.65700  0.02270  0.06420  Biso   1.000  H
  H69      1.0000 0.60550  0.91350  0.96870  Biso   1.000  H
  H70      1.0000 0.60750  0.12100  0.96550  Biso   1.000  H
  H71      1.0000 0.38060  0.13600  0.55300  Biso   1.000  H
  H72      1.0000 0.32820  0.22930  0.51500  Biso   1.000  H
  H73      1.0000 0.25250  0.21040  0.63510  Biso   1.000  H
  H74      1.0000 0.16360  0.32070  0.62550  Biso   1.000  H
  H75      1.0000 0.11420  0.41430  0.58850  Biso   1.000  H
  H76      1.0000 0.23640  0.33780  0.50590  Biso   1.000  H
  H77      1.0000 0.12820  0.86660  0.58800  Biso   1.000  H
  H78      1.0000 0.35920  0.69900  0.62210  Biso   1.000  H
  H79      1.0000 0.37410  0.80540  0.65020  Biso   1.000  H
  H80      1.0000 0.04110  0.78970  0.54040  Biso   1.000  H
  H81      1.0000 0.02980  0.68610  0.50930  Biso   1.000  H
  H82      1.0000 0.26800  0.61880  0.57570  Biso   1.000  H
  H83      1.0000 0.78020  0.39880  0.30980  Biso   1.000  H
  H84      1.0000 0.86440  0.38170  0.36880  Biso   1.000  H
  H85      1.0000 0.93700  0.56870  0.29700  Biso   1.000  H
  H86      1.0000 0.98950  0.42160  0.42090  Biso   1.000  H
  H87      1.0000 0.13510  0.59480  0.40930  Biso   1.000  H
  H88      1.0000 0.06080  0.60480  0.34810  Biso   1.000  H
  H89      1.0000 0.17730  0.51340  0.56570  Biso   1.000  H
  H90      1.0000 0.09550  0.61110  0.46820  Biso   1.000  H
  H91      1.0000 0.11360  0.40550  0.47080  Biso   1.000  H
  H92      1.0000 0.93340  0.24290  0.60690  Biso   1.000  H
  H93      1.0000 0.97330  0.28500  0.57510  Biso   1.000  H
  H94      1.0000 0.88960  0.23060  0.56400  Biso   1.000  H
  H95      1.0000 0.09760  0.13990  0.54520  Biso   1.000  H
  H96      1.0000 0.99390  0.16080  0.52460  Biso   1.000  H
  H97      1.0000 0.07390  0.21830  0.53450  Biso   1.000  H
  H98      1.0000 0.02510  0.15660  0.63080  Biso   1.000  H
  C1       1.0000 0.63360  0.09060  0.65010  Biso   1.000  C
  C2       1.0000 0.61600  0.15400  0.62636  Biso   1.000  C
  C3       1.0000 0.65860  0.16320  0.59619  Biso   1.000  C
  C4       1.0000 0.65010  0.22490  0.57530  Biso   1.000  C
  C5       1.0000 0.59580  0.27850  0.58688  Biso   1.000  C
  C6       1.0000 0.54620  0.26680  0.61788  Biso   1.000  C
  C7       1.0000 0.55670  0.20710  0.63649  Biso   1.000  C
  C8       1.0000 0.59040  0.34140  0.56820  Biso   1.000  C
  C9       1.0000 0.63510  0.35110  0.53792  Biso   1.000  C
  C10      1.0000 0.68510  0.29540  0.52548  Biso   1.000  C
  C11      1.0000 0.69220  0.23430  0.54387  Biso   1.000  C
  C12      1.0000 0.59210  0.88640  0.63509  Biso   1.000  C
  C13      1.0000 0.59080  0.82790  0.60869  Biso   1.000  C
  C14      1.0000 0.52930  0.82810  0.57331  Biso   1.000  C
  C15      1.0000 0.52930  0.77680  0.54828  Biso   1.000  C
  C16      1.0000 0.59160  0.72050  0.55655  Biso   1.000  C
  C17      1.0000 0.65370  0.71830  0.59173  Biso   1.000  C
  C18      1.0000 0.65070  0.77380  0.61703  Biso   1.000  C
  C19      1.0000 0.59100  0.66340  0.53269  Biso   1.000  C
  C20      1.0000 0.64610  0.60640  0.54251  Biso   1.000  C
  C21      1.0000 0.71070  0.60730  0.57702  Biso   1.000  C
  C22      1.0000 0.71400  0.66040  0.60068  Biso   1.000  C
  C23      1.0000 0.51140  0.51820  0.23809  Biso   1.000  C
  C24      1.0000 0.53670  0.52300  0.28072  Biso   1.000  C
  C25      1.0000 0.50330  0.47420  0.30122  Biso   1.000  C
  C26      1.0000 0.52620  0.47570  0.34103  Biso   1.000  C
  C27      1.0000 0.58460  0.53010  0.35729  Biso   1.000  C
  C28      1.0000 0.61900  0.57910  0.33546  Biso   1.000  C
  C29      1.0000 0.59560  0.57510  0.29706  Biso   1.000  C
  C30      1.0000 0.49390  0.42740  0.36270  Biso   1.000  C
  C31      1.0000 0.51850  0.43090  0.40101  Biso   1.000  C
  C32      1.0000 0.57610  0.48310  0.41898  Biso   1.000  C
  C33      1.0000 0.60850  0.53410  0.39792  Biso   1.000  C
  C34      1.0000 0.63020  0.41910  0.51823  Biso   1.000  C
  C35      1.0000 0.64260  0.47910  0.53785  Biso   1.000  C
  C36      1.0000 0.63450  0.54340  0.52002  Biso   1.000  C
  C37      1.0000 0.61250  0.54370  0.48136  Biso   1.000  C
  C38      1.0000 0.60030  0.48310  0.46037  Biso   1.000  C
  C39      1.0000 0.61190  0.42070  0.47914  Biso   1.000  C
  C40      1.0000 0.35090  0.39790  0.12039  Biso   1.000  C
  C41      1.0000 0.31770  0.33620  0.09764  Biso   1.000  C
  C42      1.0000 0.34250  0.32970  0.06168  Biso   1.000  C
  C43      1.0000 0.31200  0.27420  0.03915  Biso   1.000  C
  C44      1.0000 0.25650  0.22280  0.05239  Biso   1.000  C
  C45      1.0000 0.23580  0.22810  0.08878  Biso   1.000  C
  C46      1.0000 0.26720  0.28590  0.11069  Biso   1.000  C
  C47      1.0000 0.18040  0.17590  0.10143  Biso   1.000  C
  C48      1.0000 0.15050  0.12050  0.07935  Biso   1.000  C
  C49      1.0000 0.17260  0.11440  0.04368  Biso   1.000  C
  C50      1.0000 0.22330  0.16540  0.03050  Biso   1.000  C
  C51      1.0000 0.25680  0.58660  0.14205  Biso   1.000  C
  C52      1.0000 0.25100  0.65410  0.12250  Biso   1.000  C
  C53      1.0000 0.17480  0.66790  0.09463  Biso   1.000  C
  C54      1.0000 0.16420  0.73060  0.07594  Biso   1.000  C
  C55      1.0000 0.23270  0.78180  0.08640  Biso   1.000  C
  C56      1.0000 0.31210  0.76700  0.11491  Biso   1.000  C
  C57      1.0000 0.32030  0.70420  0.13181  Biso   1.000  C
  C58      1.0000 0.08820  0.74430  0.04735  Biso   1.000  C
  C59      1.0000 0.08090  0.80640  0.02919  Biso   1.000  C
  C60      1.0000 0.14820  0.85950  0.03948  Biso   1.000  C
  C61      1.0000 0.22260  0.84630  0.06808  Biso   1.000  C
  C62      1.0000 0.79110  0.00550  0.75952  Biso   1.000  C
  C63      1.0000 0.84910  0.01490  0.79717  Biso   1.000  C
  C64      1.0000 0.82930  0.07010  0.81936  Biso   1.000  C
  C65      1.0000 0.87890  0.08030  0.85453  Biso   1.000  C
  C66      1.0000 0.95240  0.03360  0.86958  Biso   1.000  C
  C67      1.0000 0.97400  0.97790  0.84720  Biso   1.000  C
  C68      1.0000 0.92270  0.96880  0.81169  Biso   1.000  C
  C69      1.0000 0.00130  0.03980  0.90656  Biso   1.000  C
  C70      1.0000 0.06460  0.99190  0.92188  Biso   1.000  C
  C71      1.0000 0.08820  0.93770  0.89929  Biso   1.000  C
  C72      1.0000 0.04360  0.93170  0.86289  Biso   1.000  C
  C73      1.0000 0.14880  0.05010  0.02149  Biso   1.000  C
  C74      1.0000 0.15790  0.98770  0.03948  Biso   1.000  C
  C75      1.0000 0.13910  0.92610  0.02019  Biso   1.000  C
  C76      1.0000 0.10950  0.93020  0.98182  Biso   1.000  C
  C77      1.0000 0.09960  0.99210  0.96263  Biso   1.000  C
  C78      1.0000 0.11970  0.05150  0.98319  Biso   1.000  C
  C79      1.0000 0.94770  0.25920  0.08150  Biso   1.000  C
  C80      1.0000 0.04850  0.32460  0.04280  Biso   1.000  C
  C81      1.0000 0.04900  0.35240  0.10860  Biso   1.000  C
  C82      1.0000 0.63360  0.40940  0.15010  Biso   1.000  C
  C83      1.0000 0.61600  0.34600  0.12636  Biso   1.000  C
  C84      1.0000 0.65860  0.33680  0.09619  Biso   1.000  C
  C85      1.0000 0.65010  0.27510  0.07530  Biso   1.000  C
  C86      1.0000 0.59580  0.22150  0.08688  Biso   1.000  C
  C87      1.0000 0.54620  0.23320  0.11788  Biso   1.000  C
  C88      1.0000 0.55670  0.29290  0.13649  Biso   1.000  C
  C89      1.0000 0.59040  0.15860  0.06820  Biso   1.000  C
  C90      1.0000 0.63510  0.14890  0.03792  Biso   1.000  C
  C91      1.0000 0.68510  0.20460  0.02548  Biso   1.000  C
  C92      1.0000 0.69220  0.26570  0.04387  Biso   1.000  C
  C93      1.0000 0.59210  0.61360  0.13509  Biso   1.000  C
  C94      1.0000 0.59080  0.67210  0.10869  Biso   1.000  C
  C95      1.0000 0.52930  0.67190  0.07331  Biso   1.000  C
  C96      1.0000 0.52930  0.72320  0.04828  Biso   1.000  C
  C97      1.0000 0.59160  0.77950  0.05655  Biso   1.000  C
  C98      1.0000 0.65370  0.78170  0.09173  Biso   1.000  C
  C99      1.0000 0.65070  0.72620  0.11703  Biso   1.000  C
  C100     1.0000 0.59100  0.83660  0.03269  Biso   1.000  C
  C101     1.0000 0.64610  0.89360  0.04251  Biso   1.000  C
  C102     1.0000 0.71070  0.89270  0.07702  Biso   1.000  C
  C103     1.0000 0.71400  0.83960  0.10068  Biso   1.000  C
  C104     1.0000 0.51140  0.98180  0.73809  Biso   1.000  C
  C105     1.0000 0.53670  0.97700  0.78072  Biso   1.000  C
  C106     1.0000 0.50330  0.02580  0.80122  Biso   1.000  C
  C107     1.0000 0.52620  0.02430  0.84103  Biso   1.000  C
  C108     1.0000 0.58460  0.96990  0.85729  Biso   1.000  C
  C109     1.0000 0.61900  0.92090  0.83546  Biso   1.000  C
  C110     1.0000 0.59560  0.92490  0.79706  Biso   1.000  C
  C111     1.0000 0.49390  0.07260  0.86270  Biso   1.000  C
  C112     1.0000 0.51850  0.06910  0.90101  Biso   1.000  C
  C113     1.0000 0.57610  0.01690  0.91898  Biso   1.000  C
  C114     1.0000 0.60850  0.96590  0.89792  Biso   1.000  C
  C115     1.0000 0.63020  0.08090  0.01823  Biso   1.000  C
  C116     1.0000 0.64260  0.02090  0.03785  Biso   1.000  C
  C117     1.0000 0.63450  0.95660  0.02002  Biso   1.000  C
  C118     1.0000 0.61250  0.95630  0.98136  Biso   1.000  C
  C119     1.0000 0.60030  0.01690  0.96037  Biso   1.000  C
  C120     1.0000 0.61190  0.07930  0.97914  Biso   1.000  C
  C121     1.0000 0.35090  0.10210  0.62039  Biso   1.000  C
  C122     1.0000 0.31770  0.16380  0.59764  Biso   1.000  C
  C123     1.0000 0.34250  0.17030  0.56168  Biso   1.000  C
  C124     1.0000 0.31200  0.22580  0.53915  Biso   1.000  C
  C125     1.0000 0.25650  0.27720  0.55239  Biso   1.000  C
  C126     1.0000 0.23580  0.27190  0.58878  Biso   1.000  C
  C127     1.0000 0.26720  0.21410  0.61069  Biso   1.000  C
  C128     1.0000 0.18040  0.32410  0.60143  Biso   1.000  C
  C129     1.0000 0.15050  0.37950  0.57935  Biso   1.000  C
  C130     1.0000 0.17260  0.38560  0.54368  Biso   1.000  C
  C131     1.0000 0.22330  0.33460  0.53050  Biso   1.000  C
  C132     1.0000 0.25680  0.91340  0.64205  Biso   1.000  C
  C133     1.0000 0.25100  0.84590  0.62250  Biso   1.000  C
  C134     1.0000 0.17480  0.83210  0.59463  Biso   1.000  C
  C135     1.0000 0.16420  0.76940  0.57594  Biso   1.000  C
  C136     1.0000 0.23270  0.71820  0.58640  Biso   1.000  C
  C137     1.0000 0.31210  0.73300  0.61491  Biso   1.000  C
  C138     1.0000 0.32030  0.79580  0.63181  Biso   1.000  C
  C139     1.0000 0.08820  0.75570  0.54735  Biso   1.000  C
  C140     1.0000 0.08090  0.69360  0.52919  Biso   1.000  C
  C141     1.0000 0.14820  0.64050  0.53948  Biso   1.000  C
  C142     1.0000 0.22260  0.65370  0.56808  Biso   1.000  C
  C143     1.0000 0.79110  0.49450  0.25952  Biso   1.000  C
  C144     1.0000 0.84910  0.48510  0.29717  Biso   1.000  C
  C145     1.0000 0.82930  0.42990  0.31936  Biso   1.000  C
  C146     1.0000 0.87890  0.41970  0.35453  Biso   1.000  C
  C147     1.0000 0.95240  0.46640  0.36958  Biso   1.000  C
  C148     1.0000 0.97400  0.52210  0.34720  Biso   1.000  C
  C149     1.0000 0.92270  0.53120  0.31169  Biso   1.000  C
  C150     1.0000 0.00130  0.46020  0.40656  Biso   1.000  C
  C151     1.0000 0.06460  0.50810  0.42188  Biso   1.000  C
  C152     1.0000 0.08820  0.56230  0.39929  Biso   1.000  C
  C153     1.0000 0.04360  0.56830  0.36289  Biso   1.000  C
  C154     1.0000 0.14880  0.44990  0.52149  Biso   1.000  C
  C155     1.0000 0.15790  0.51230  0.53948  Biso   1.000  C
  C156     1.0000 0.13910  0.57390  0.52019  Biso   1.000  C
  C157     1.0000 0.10950  0.56980  0.48182  Biso   1.000  C
  C158     1.0000 0.09960  0.50790  0.46263  Biso   1.000  C
  C159     1.0000 0.11970  0.44850  0.48319  Biso   1.000  C
  C160     1.0000 0.94770  0.24080  0.58150  Biso   1.000  C
  C161     1.0000 0.04850  0.17540  0.54280  Biso   1.000  C
  C162     1.0000 0.04900  0.14760  0.60860  Biso   1.000  C
  N1       1.0000 0.01820  0.31350  0.07938  Biso   1.000  N
  N2       1.0000 0.01820  0.18650  0.57938  Biso   1.000  N
  O1       1.0000 0.57760  0.07580  0.67193  Biso   1.000  O
  O2       1.0000 0.70720  0.05500  0.64820  Biso   1.000  O
  O3       1.0000 0.66360  0.88810  0.66116  Biso   1.000  O
  O4       1.0000 0.52620  0.92920  0.62990  Biso   1.000  O
  O5       1.0000 0.55320  0.55640  0.21865  Biso   1.000  O
  O6       1.0000 0.44660  0.47570  0.22436  Biso   1.000  O
  O7       1.0000 0.32560  0.40605  0.15174  Biso   1.000  O
  O8       1.0000 0.40510  0.43971  0.10815  Biso   1.000  O
  O9       1.0000 0.33330  0.57710  0.16572  Biso   1.000  O
  O10      1.0000 0.19010  0.54480  0.13524  Biso   1.000  O
  O11      1.0000 0.80950  0.95330  0.73981  Biso   1.000  O
  O12      1.0000 0.72790  0.04700  0.74819  Biso   1.000  O
  O13      1.0000 0.10650  0.39950  0.10889  Biso   1.000  O
  O14      1.0000 0.16750  0.33680  0.18991  Biso   1.000  O
  O15      1.0000 0.23810  0.47690  0.22308  Biso   1.000  O
  O16      1.0000 0.02800  0.46970  0.17270  Biso   1.000  O
  O17      1.0000 0.57760  0.42420  0.17193  Biso   1.000  O
  O18      1.0000 0.70720  0.44500  0.14820  Biso   1.000  O
  O19      1.0000 0.66360  0.61190  0.16116  Biso   1.000  O
  O20      1.0000 0.52620  0.57080  0.12990  Biso   1.000  O
  O21      1.0000 0.55320  0.94360  0.71865  Biso   1.000  O
  O22      1.0000 0.44660  0.02430  0.72436  Biso   1.000  O
  O23      1.0000 0.32560  0.09395  0.65174  Biso   1.000  O
  O24      1.0000 0.40510  0.06029  0.60815  Biso   1.000  O
  O25      1.0000 0.33330  0.92290  0.66572  Biso   1.000  O
  O26      1.0000 0.19010  0.95520  0.63524  Biso   1.000  O
  O27      1.0000 0.80950  0.54670  0.23981  Biso   1.000  O
  O28      1.0000 0.72790  0.45300  0.24819  Biso   1.000  O
  O29      1.0000 0.10650  0.10050  0.60889  Biso   1.000  O
  O30      1.0000 0.16750  0.16320  0.68991  Biso   1.000  O
  O31      1.0000 0.23810  0.02310  0.72308  Biso   1.000  O
  O32      1.0000 0.02800  0.03030  0.67270  Biso   1.000  O
  Cd7      1.0000 0.31783  0.48032  0.80493  Biso   1.000  Cd
  Cd8      1.0000 0.55313  0.50011  0.83733  Biso   1.000  Cd
  Cd9      1.0000 0.81873  0.94562  0.33655  Biso   1.000  Cd
  Cd10     1.0000 0.31783  0.01968  0.30493  Biso   1.000  Cd
  Cd11     1.0000 0.55313  0.99989  0.33733  Biso   1.000  Cd
  Cd12     1.0000 0.81873  0.55438  0.83655  Biso   1.000  Cd
  H99      1.0000 0.30440  0.62690  0.91120  Biso   1.000  H
  H100     1.0000 0.49380  0.80140  0.87490  Biso   1.000  H
  H101     1.0000 0.47600  0.70010  0.84320  Biso   1.000  H
  H102     1.0000 0.44450  0.87800  0.92350  Biso   1.000  H
  H103     1.0000 0.28590  0.80070  0.99600  Biso   1.000  H
  H104     1.0000 0.27360  0.69770  0.96480  Biso   1.000  H
  H105     1.0000 0.51280  0.36550  0.93280  Biso   1.000  H
  H106     1.0000 0.51260  0.27860  0.97480  Biso   1.000  H
  H107     1.0000 0.30820  0.27300  0.85960  Biso   1.000  H
  H108     1.0000 0.44890  0.16430  0.99090  Biso   1.000  H
  H109     1.0000 0.24780  0.06960  0.91670  Biso   1.000  H
  H110     1.0000 0.24320  0.15940  0.87640  Biso   1.000  H
  H111     1.0000 0.53550  0.93860  0.21070  Biso   1.000  H
  H112     1.0000 0.34160  0.11510  0.15330  Biso   1.000  H
  H113     1.0000 0.38020  0.10800  0.21810  Biso   1.000  H
  H114     1.0000 0.54540  0.89120  0.14840  Biso   1.000  H
  H115     1.0000 0.50460  0.89660  0.08430  Biso   1.000  H
  H116     1.0000 0.35440  0.07090  0.09050  Biso   1.000  H
  H117     1.0000 0.34300  0.97730  0.93580  Biso   1.000  H
  H118     1.0000 0.39450  0.08650  0.03130  Biso   1.000  H
  H119     1.0000 0.39250  0.87900  0.03450  Biso   1.000  H
  H120     1.0000 0.61940  0.86400  0.44700  Biso   1.000  H
  H121     1.0000 0.67180  0.77070  0.48500  Biso   1.000  H
  H122     1.0000 0.74750  0.78960  0.36490  Biso   1.000  H
  H123     1.0000 0.83640  0.67930  0.37450  Biso   1.000  H
  H124     1.0000 0.88580  0.58570  0.41150  Biso   1.000  H
  H125     1.0000 0.76360  0.66220  0.49410  Biso   1.000  H
  H126     1.0000 0.87180  0.13340  0.41200  Biso   1.000  H
  H127     1.0000 0.64080  0.30100  0.37790  Biso   1.000  H
  H128     1.0000 0.62590  0.19460  0.34980  Biso   1.000  H
  H129     1.0000 0.95890  0.21030  0.45960  Biso   1.000  H
  H130     1.0000 0.97020  0.31390  0.49070  Biso   1.000  H
  H131     1.0000 0.73200  0.38120  0.42430  Biso   1.000  H
  H132     1.0000 0.21980  0.60120  0.69020  Biso   1.000  H
  H133     1.0000 0.13560  0.61830  0.63120  Biso   1.000  H
  H134     1.0000 0.06300  0.43130  0.70300  Biso   1.000  H
  H135     1.0000 0.01050  0.57840  0.57910  Biso   1.000  H
  H136     1.0000 0.86490  0.40520  0.59070  Biso   1.000  H
  H137     1.0000 0.93920  0.39520  0.65190  Biso   1.000  H
  H138     1.0000 0.82270  0.48660  0.43430  Biso   1.000  H
  H139     1.0000 0.90450  0.38890  0.53180  Biso   1.000  H
  H140     1.0000 0.88640  0.59450  0.52920  Biso   1.000  H
  H141     1.0000 0.06660  0.75710  0.39310  Biso   1.000  H
  H142     1.0000 0.02670  0.71500  0.42490  Biso   1.000  H
  H143     1.0000 0.11040  0.76940  0.43600  Biso   1.000  H
  H144     1.0000 0.90240  0.86010  0.45480  Biso   1.000  H
  H145     1.0000 0.00610  0.83920  0.47540  Biso   1.000  H
  H146     1.0000 0.92610  0.78170  0.46550  Biso   1.000  H
  H147     1.0000 0.97490  0.84340  0.36920  Biso   1.000  H
  H148     1.0000 0.30440  0.87310  0.41120  Biso   1.000  H
  H149     1.0000 0.49380  0.69860  0.37490  Biso   1.000  H
  H150     1.0000 0.47600  0.79990  0.34320  Biso   1.000  H
  H151     1.0000 0.44450  0.62200  0.42350  Biso   1.000  H
  H152     1.0000 0.28590  0.69930  0.49600  Biso   1.000  H
  H153     1.0000 0.27360  0.80230  0.46480  Biso   1.000  H
  H154     1.0000 0.51280  0.13450  0.43280  Biso   1.000  H
  H155     1.0000 0.51260  0.22140  0.47480  Biso   1.000  H
  H156     1.0000 0.30820  0.22700  0.35960  Biso   1.000  H
  H157     1.0000 0.44890  0.33570  0.49090  Biso   1.000  H
  H158     1.0000 0.24780  0.43040  0.41670  Biso   1.000  H
  H159     1.0000 0.24320  0.34060  0.37640  Biso   1.000  H
  H160     1.0000 0.53550  0.56140  0.71070  Biso   1.000  H
  H161     1.0000 0.34160  0.38490  0.65330  Biso   1.000  H
  H162     1.0000 0.38020  0.39200  0.71810  Biso   1.000  H
  H163     1.0000 0.54540  0.60880  0.64840  Biso   1.000  H
  H164     1.0000 0.50460  0.60340  0.58430  Biso   1.000  H
  H165     1.0000 0.35440  0.42910  0.59050  Biso   1.000  H
  H166     1.0000 0.34300  0.52270  0.43580  Biso   1.000  H
  H167     1.0000 0.39450  0.41350  0.53130  Biso   1.000  H
  H168     1.0000 0.39250  0.62100  0.53450  Biso   1.000  H
  H169     1.0000 0.61940  0.63600  0.94700  Biso   1.000  H
  H170     1.0000 0.67180  0.72930  0.98500  Biso   1.000  H
  H171     1.0000 0.74750  0.71040  0.86490  Biso   1.000  H
  H172     1.0000 0.83640  0.82070  0.87450  Biso   1.000  H
  H173     1.0000 0.88580  0.91430  0.91150  Biso   1.000  H
  H174     1.0000 0.76360  0.83780  0.99410  Biso   1.000  H
  H175     1.0000 0.87180  0.36660  0.91200  Biso   1.000  H
  H176     1.0000 0.64080  0.19900  0.87790  Biso   1.000  H
  H177     1.0000 0.62590  0.30540  0.84980  Biso   1.000  H
  H178     1.0000 0.95890  0.28970  0.95960  Biso   1.000  H
  H179     1.0000 0.97020  0.18610  0.99070  Biso   1.000  H
  H180     1.0000 0.73200  0.11880  0.92430  Biso   1.000  H
  H181     1.0000 0.21980  0.89880  0.19020  Biso   1.000  H
  H182     1.0000 0.13560  0.88170  0.13120  Biso   1.000  H
  H183     1.0000 0.06300  0.06870  0.20300  Biso   1.000  H
  H184     1.0000 0.01050  0.92160  0.07910  Biso   1.000  H
  H185     1.0000 0.86490  0.09480  0.09070  Biso   1.000  H
  H186     1.0000 0.93920  0.10480  0.15190  Biso   1.000  H
  H187     1.0000 0.82270  0.01340  0.93430  Biso   1.000  H
  H188     1.0000 0.90450  0.11110  0.03180  Biso   1.000  H
  H189     1.0000 0.88640  0.90550  0.02920  Biso   1.000  H
  H190     1.0000 0.06660  0.74290  0.89310  Biso   1.000  H
  H191     1.0000 0.02670  0.78500  0.92490  Biso   1.000  H
  H192     1.0000 0.11040  0.73060  0.93600  Biso   1.000  H
  H193     1.0000 0.90240  0.63990  0.95480  Biso   1.000  H
  H194     1.0000 0.00610  0.66080  0.97540  Biso   1.000  H
  H195     1.0000 0.92610  0.71830  0.96550  Biso   1.000  H
  H196     1.0000 0.97490  0.65660  0.86920  Biso   1.000  H
  C163     1.0000 0.36640  0.59060  0.84990  Biso   1.000  C
  C164     1.0000 0.38400  0.65400  0.87364  Biso   1.000  C
  C165     1.0000 0.34140  0.66320  0.90381  Biso   1.000  C
  C166     1.0000 0.34990  0.72490  0.92470  Biso   1.000  C
  C167     1.0000 0.40420  0.77850  0.91312  Biso   1.000  C
  C168     1.0000 0.45380  0.76680  0.88212  Biso   1.000  C
  C169     1.0000 0.44330  0.70710  0.86351  Biso   1.000  C
  C170     1.0000 0.40960  0.84140  0.93180  Biso   1.000  C
  C171     1.0000 0.36490  0.85110  0.96208  Biso   1.000  C
  C172     1.0000 0.31490  0.79540  0.97452  Biso   1.000  C
  C173     1.0000 0.30780  0.73430  0.95613  Biso   1.000  C
  C174     1.0000 0.40790  0.38640  0.86491  Biso   1.000  C
  C175     1.0000 0.40920  0.32790  0.89131  Biso   1.000  C
  C176     1.0000 0.47070  0.32810  0.92669  Biso   1.000  C
  C177     1.0000 0.47070  0.27680  0.95172  Biso   1.000  C
  C178     1.0000 0.40840  0.22050  0.94345  Biso   1.000  C
  C179     1.0000 0.34630  0.21830  0.90827  Biso   1.000  C
  C180     1.0000 0.34930  0.27380  0.88297  Biso   1.000  C
  C181     1.0000 0.40900  0.16340  0.96731  Biso   1.000  C
  C182     1.0000 0.35390  0.10640  0.95749  Biso   1.000  C
  C183     1.0000 0.28930  0.10730  0.92298  Biso   1.000  C
  C184     1.0000 0.28600  0.16040  0.89932  Biso   1.000  C
  C185     1.0000 0.48860  0.01820  0.26191  Biso   1.000  C
  C186     1.0000 0.46330  0.02300  0.21928  Biso   1.000  C
  C187     1.0000 0.49670  0.97420  0.19878  Biso   1.000  C
  C188     1.0000 0.47380  0.97570  0.15897  Biso   1.000  C
  C189     1.0000 0.41540  0.03010  0.14271  Biso   1.000  C
  C190     1.0000 0.38100  0.07910  0.16454  Biso   1.000  C
  C191     1.0000 0.40440  0.07510  0.20294  Biso   1.000  C
  C192     1.0000 0.50610  0.92740  0.13730  Biso   1.000  C
  C193     1.0000 0.48150  0.93090  0.09899  Biso   1.000  C
  C194     1.0000 0.42390  0.98310  0.08102  Biso   1.000  C
  C195     1.0000 0.39150  0.03410  0.10208  Biso   1.000  C
  C196     1.0000 0.36980  0.91910  0.98177  Biso   1.000  C
  C197     1.0000 0.35740  0.97910  0.96215  Biso   1.000  C
  C198     1.0000 0.36550  0.04340  0.97998  Biso   1.000  C
  C199     1.0000 0.38750  0.04370  0.01864  Biso   1.000  C
  C200     1.0000 0.39970  0.98310  0.03963  Biso   1.000  C
  C201     1.0000 0.38810  0.92070  0.02086  Biso   1.000  C
  C202     1.0000 0.64910  0.89790  0.37961  Biso   1.000  C
  C203     1.0000 0.68230  0.83620  0.40236  Biso   1.000  C
  C204     1.0000 0.65750  0.82970  0.43832  Biso   1.000  C
  C205     1.0000 0.68800  0.77420  0.46085  Biso   1.000  C
  C206     1.0000 0.74350  0.72280  0.44761  Biso   1.000  C
  C207     1.0000 0.76420  0.72810  0.41122  Biso   1.000  C
  C208     1.0000 0.73280  0.78590  0.38931  Biso   1.000  C
  C209     1.0000 0.81960  0.67590  0.39857  Biso   1.000  C
  C210     1.0000 0.84950  0.62050  0.42065  Biso   1.000  C
  C211     1.0000 0.82740  0.61440  0.45632  Biso   1.000  C
  C212     1.0000 0.77670  0.66540  0.46950  Biso   1.000  C
  C213     1.0000 0.74320  0.08660  0.35795  Biso   1.000  C
  C214     1.0000 0.74900  0.15410  0.37750  Biso   1.000  C
  C215     1.0000 0.82520  0.16790  0.40537  Biso   1.000  C
  C216     1.0000 0.83580  0.23060  0.42406  Biso   1.000  C
  C217     1.0000 0.76730  0.28180  0.41360  Biso   1.000  C
  C218     1.0000 0.68790  0.26700  0.38509  Biso   1.000  C
  C219     1.0000 0.67970  0.20420  0.36819  Biso   1.000  C
  C220     1.0000 0.91180  0.24430  0.45265  Biso   1.000  C
  C221     1.0000 0.91910  0.30640  0.47081  Biso   1.000  C
  C222     1.0000 0.85180  0.35950  0.46052  Biso   1.000  C
  C223     1.0000 0.77740  0.34630  0.43192  Biso   1.000  C
  C224     1.0000 0.20890  0.50550  0.74048  Biso   1.000  C
  C225     1.0000 0.15090  0.51490  0.70283  Biso   1.000  C
  C226     1.0000 0.17070  0.57010  0.68064  Biso   1.000  C
  C227     1.0000 0.12110  0.58030  0.64547  Biso   1.000  C
  C228     1.0000 0.04760  0.53360  0.63042  Biso   1.000  C
  C229     1.0000 0.02600  0.47790  0.65280  Biso   1.000  C
  C230     1.0000 0.07730  0.46880  0.68831  Biso   1.000  C
  C231     1.0000 0.99870  0.53980  0.59344  Biso   1.000  C
  C232     1.0000 0.93540  0.49190  0.57812  Biso   1.000  C
  C233     1.0000 0.91180  0.43770  0.60071  Biso   1.000  C
  C234     1.0000 0.95640  0.43170  0.63711  Biso   1.000  C
  C235     1.0000 0.85120  0.55010  0.47851  Biso   1.000  C
  C236     1.0000 0.84210  0.48770  0.46052  Biso   1.000  C
  C237     1.0000 0.86090  0.42610  0.47981  Biso   1.000  C
  C238     1.0000 0.89050  0.43020  0.51818  Biso   1.000  C
  C239     1.0000 0.90040  0.49210  0.53737  Biso   1.000  C
  C240     1.0000 0.88030  0.55150  0.51681  Biso   1.000  C
  C241     1.0000 0.05230  0.75920  0.41850  Biso   1.000  C
  C242     1.0000 0.95150  0.82460  0.45720  Biso   1.000  C
  C243     1.0000 0.95100  0.85240  0.39140  Biso   1.000  C
  C244     1.0000 0.36640  0.90940  0.34990  Biso   1.000  C
  C245     1.0000 0.38400  0.84600  0.37364  Biso   1.000  C
  C246     1.0000 0.34140  0.83680  0.40381  Biso   1.000  C
  C247     1.0000 0.34990  0.77510  0.42470  Biso   1.000  C
  C248     1.0000 0.40420  0.72150  0.41312  Biso   1.000  C
  C249     1.0000 0.45380  0.73320  0.38212  Biso   1.000  C
  C250     1.0000 0.44330  0.79290  0.36351  Biso   1.000  C
  C251     1.0000 0.40960  0.65860  0.43180  Biso   1.000  C
  C252     1.0000 0.36490  0.64890  0.46208  Biso   1.000  C
  C253     1.0000 0.31490  0.70460  0.47452  Biso   1.000  C
  C254     1.0000 0.30780  0.76570  0.45613  Biso   1.000  C
  C255     1.0000 0.40790  0.11360  0.36491  Biso   1.000  C
  C256     1.0000 0.40920  0.17210  0.39131  Biso   1.000  C
  C257     1.0000 0.47070  0.17190  0.42669  Biso   1.000  C
  C258     1.0000 0.47070  0.22320  0.45172  Biso   1.000  C
  C259     1.0000 0.40840  0.27950  0.44345  Biso   1.000  C
  C260     1.0000 0.34630  0.28170  0.40827  Biso   1.000  C
  C261     1.0000 0.34930  0.22620  0.38297  Biso   1.000  C
  C262     1.0000 0.40900  0.33660  0.46731  Biso   1.000  C
  C263     1.0000 0.35390  0.39360  0.45749  Biso   1.000  C
  C264     1.0000 0.28930  0.39270  0.42298  Biso   1.000  C
  C265     1.0000 0.28600  0.33960  0.39932  Biso   1.000  C
  C266     1.0000 0.48860  0.48180  0.76191  Biso   1.000  C
  C267     1.0000 0.46330  0.47700  0.71928  Biso   1.000  C
  C268     1.0000 0.49670  0.52580  0.69878  Biso   1.000  C
  C269     1.0000 0.47380  0.52430  0.65897  Biso   1.000  C
  C270     1.0000 0.41540  0.46990  0.64271  Biso   1.000  C
  C271     1.0000 0.38100  0.42090  0.66454  Biso   1.000  C
  C272     1.0000 0.40440  0.42490  0.70294  Biso   1.000  C
  C273     1.0000 0.50610  0.57260  0.63730  Biso   1.000  C
  C274     1.0000 0.48150  0.56910  0.59899  Biso   1.000  C
  C275     1.0000 0.42390  0.51690  0.58102  Biso   1.000  C
  C276     1.0000 0.39150  0.46590  0.60208  Biso   1.000  C
  C277     1.0000 0.36980  0.58090  0.48177  Biso   1.000  C
  C278     1.0000 0.35740  0.52090  0.46215  Biso   1.000  C
  C279     1.0000 0.36550  0.45660  0.47998  Biso   1.000  C
  C280     1.0000 0.38750  0.45630  0.51864  Biso   1.000  C
  C281     1.0000 0.39970  0.51690  0.53963  Biso   1.000  C
  C282     1.0000 0.38810  0.57930  0.52086  Biso   1.000  C
  C283     1.0000 0.64910  0.60210  0.87961  Biso   1.000  C
  C284     1.0000 0.68230  0.66380  0.90236  Biso   1.000  C
  C285     1.0000 0.65750  0.67030  0.93832  Biso   1.000  C
  C286     1.0000 0.68800  0.72580  0.96085  Biso   1.000  C
  C287     1.0000 0.74350  0.77720  0.94761  Biso   1.000  C
  C288     1.0000 0.76420  0.77190  0.91122  Biso   1.000  C
  C289     1.0000 0.73280  0.71410  0.88931  Biso   1.000  C
  C290     1.0000 0.81960  0.82410  0.89857  Biso   1.000  C
  C291     1.0000 0.84950  0.87950  0.92065  Biso   1.000  C
  C292     1.0000 0.82740  0.88560  0.95632  Biso   1.000  C
  C293     1.0000 0.77670  0.83460  0.96950  Biso   1.000  C
  C294     1.0000 0.74320  0.41340  0.85795  Biso   1.000  C
  C295     1.0000 0.74900  0.34590  0.87750  Biso   1.000  C
  C296     1.0000 0.82520  0.33210  0.90537  Biso   1.000  C
  C297     1.0000 0.83580  0.26940  0.92406  Biso   1.000  C
  C298     1.0000 0.76730  0.21820  0.91360  Biso   1.000  C
  C299     1.0000 0.68790  0.23300  0.88509  Biso   1.000  C
  C300     1.0000 0.67970  0.29580  0.86819  Biso   1.000  C
  C301     1.0000 0.91180  0.25570  0.95265  Biso   1.000  C
  C302     1.0000 0.91910  0.19360  0.97081  Biso   1.000  C
  C303     1.0000 0.85180  0.14050  0.96052  Biso   1.000  C
  C304     1.0000 0.77740  0.15370  0.93192  Biso   1.000  C
  C305     1.0000 0.20890  0.99450  0.24048  Biso   1.000  C
  C306     1.0000 0.15090  0.98510  0.20283  Biso   1.000  C
  C307     1.0000 0.17070  0.92990  0.18064  Biso   1.000  C
  C308     1.0000 0.12110  0.91970  0.14547  Biso   1.000  C
  C309     1.0000 0.04760  0.96640  0.13042  Biso   1.000  C
  C310     1.0000 0.02600  0.02210  0.15280  Biso   1.000  C
  C311     1.0000 0.07730  0.03120  0.18831  Biso   1.000  C
  C312     1.0000 0.99870  0.96020  0.09344  Biso   1.000  C
  C313     1.0000 0.93540  0.00810  0.07812  Biso   1.000  C
  C314     1.0000 0.91180  0.06230  0.10071  Biso   1.000  C
  C315     1.0000 0.95640  0.06830  0.13711  Biso   1.000  C
  C316     1.0000 0.85120  0.94990  0.97851  Biso   1.000  C
  C317     1.0000 0.84210  0.01230  0.96052  Biso   1.000  C
  C318     1.0000 0.86090  0.07390  0.97981  Biso   1.000  C
  C319     1.0000 0.89050  0.06980  0.01818  Biso   1.000  C
  C320     1.0000 0.90040  0.00790  0.03737  Biso   1.000  C
  C321     1.0000 0.88030  0.94850  0.01681  Biso   1.000  C
  C322     1.0000 0.05230  0.74080  0.91850  Biso   1.000  C
  C323     1.0000 0.95150  0.67540  0.95720  Biso   1.000  C
  C324     1.0000 0.95100  0.64760  0.89140  Biso   1.000  C
  N3       1.0000 0.98180  0.81350  0.42062  Biso   1.000  N
  N4       1.0000 0.98180  0.68650  0.92062  Biso   1.000  N
  O33      1.0000 0.42240  0.57580  0.82807  Biso   1.000  O
  O34      1.0000 0.29280  0.55500  0.85180  Biso   1.000  O
  O35      1.0000 0.33640  0.38810  0.83884  Biso   1.000  O
  O36      1.0000 0.47380  0.42920  0.87010  Biso   1.000  O
  O37      1.0000 0.44680  0.05640  0.28135  Biso   1.000  O
  O38      1.0000 0.55340  0.97570  0.27564  Biso   1.000  O
  O39      1.0000 0.67440  0.90605  0.34826  Biso   1.000  O
  O40      1.0000 0.59490  0.93971  0.39185  Biso   1.000  O
  O41      1.0000 0.66670  0.07710  0.33428  Biso   1.000  O
  O42      1.0000 0.80990  0.04480  0.36476  Biso   1.000  O
  O43      1.0000 0.19050  0.45330  0.76019  Biso   1.000  O
  O44      1.0000 0.27210  0.54700  0.75181  Biso   1.000  O
  O45      1.0000 0.89350  0.89950  0.39111  Biso   1.000  O
  O46      1.0000 0.83250  0.83680  0.31009  Biso   1.000  O
  O47      1.0000 0.76190  0.97690  0.27692  Biso   1.000  O
  O48      1.0000 0.97200  0.96970  0.32730  Biso   1.000  O
  O49      1.0000 0.42240  0.92420  0.32807  Biso   1.000  O
  O50      1.0000 0.29280  0.94500  0.35180  Biso   1.000  O
  O51      1.0000 0.33640  0.11190  0.33884  Biso   1.000  O
  O52      1.0000 0.47380  0.07080  0.37010  Biso   1.000  O
  O53      1.0000 0.44680  0.44360  0.78135  Biso   1.000  O
  O54      1.0000 0.55340  0.52430  0.77564  Biso   1.000  O
  O55      1.0000 0.67440  0.59395  0.84826  Biso   1.000  O
  O56      1.0000 0.59490  0.56029  0.89185  Biso   1.000  O
  O57      1.0000 0.66670  0.42290  0.83428  Biso   1.000  O
  O58      1.0000 0.80990  0.45520  0.86476  Biso   1.000  O
  O59      1.0000 0.19050  0.04670  0.26019  Biso   1.000  O
  O60      1.0000 0.27210  0.95300  0.25181  Biso   1.000  O
  O61      1.0000 0.89350  0.60050  0.89111  Biso   1.000  O
  O62      1.0000 0.83250  0.66320  0.81009  Biso   1.000  O
  O63      1.0000 0.76190  0.52310  0.77692  Biso   1.000  O
  O64      1.0000 0.97200  0.53030  0.82730  Biso   1.000  O
