data_image0
_cell_length_a       10.209
_cell_length_b       13.636
_cell_length_c       14.124
_cell_angle_alpha    91.568
_cell_angle_beta     90
_cell_angle_gamma    90

_symmetry_space_group_name_H-M    P 1
_symmetry_int_tables_number       1

loop_
  _symmetry_equiv_pos_as_xyz
  'x, y, z'

loop_
  _atom_site_label
  _atom_site_occupancy
  _atom_site_fract_x
  _atom_site_fract_y
  _atom_site_fract_z
  _atom_site_thermal_displace_type
  _atom_site_B_iso_or_equiv
  _atom_site_type_symbol
  Zn1      1.0000 0.91487  0.33746  0.32673  Biso   1.000  Zn
  Zn2      1.0000 0.49603  0.30791  0.65462  Biso   1.000  Zn
  Zn3      1.0000 0.41487  0.16254  0.17327  Biso   1.000  Zn
  Zn4      1.0000 0.99603  0.19209  0.84538  Biso   1.000  Zn
  Zn5      1.0000 0.08513  0.66254  0.67327  Biso   1.000  Zn
  Zn6      1.0000 0.50397  0.69209  0.34538  Biso   1.000  Zn
  Zn7      1.0000 0.58513  0.83746  0.82673  Biso   1.000  Zn
  Zn8      1.0000 0.00397  0.80791  0.15462  Biso   1.000  Zn
  H1       1.0000 0.08890  0.26320  0.47640  Biso   1.000  H
  H2       1.0000 0.70440  0.24720  0.81100  Biso   1.000  H
  H3       1.0000 0.70660  0.31490  0.47820  Biso   1.000  H
  H4       1.0000 0.32230  0.53080  0.29110  Biso   1.000  H
  H5       1.0000 0.70850  0.18870  0.23720  Biso   1.000  H
  H6       1.0000 0.70180  0.52590  0.35030  Biso   1.000  H
  H7       1.0000 0.58890  0.23680  0.02360  Biso   1.000  H
  H8       1.0000 0.20440  0.25280  0.68900  Biso   1.000  H
  H9       1.0000 0.20660  0.18510  0.02180  Biso   1.000  H
  H10      1.0000 0.82230  0.96920  0.20890  Biso   1.000  H
  H11      1.0000 0.20850  0.31130  0.26280  Biso   1.000  H
  H12      1.0000 0.20180  0.97410  0.14970  Biso   1.000  H
  H13      1.0000 0.91110  0.73680  0.52360  Biso   1.000  H
  H14      1.0000 0.29560  0.75280  0.18900  Biso   1.000  H
  H15      1.0000 0.29340  0.68510  0.52180  Biso   1.000  H
  H16      1.0000 0.67770  0.46920  0.70890  Biso   1.000  H
  H17      1.0000 0.29150  0.81130  0.76280  Biso   1.000  H
  H18      1.0000 0.29820  0.47410  0.64970  Biso   1.000  H
  H19      1.0000 0.41110  0.76320  0.97640  Biso   1.000  H
  H20      1.0000 0.79560  0.74720  0.31100  Biso   1.000  H
  H21      1.0000 0.79340  0.81490  0.97820  Biso   1.000  H
  H22      1.0000 0.17770  0.03080  0.79110  Biso   1.000  H
  H23      1.0000 0.79150  0.68870  0.73720  Biso   1.000  H
  H24      1.0000 0.79820  0.02590  0.85030  Biso   1.000  H
  C1       1.0000 0.00950  0.26610  0.51140  Biso   1.000  C
  C2       1.0000 0.90120  0.25010  0.64760  Biso   1.000  C
  C3       1.0000 0.74800  0.25210  0.75190  Biso   1.000  C
  C4       1.0000 0.78220  0.27530  0.60430  Biso   1.000  C
  C5       1.0000 0.78460  0.29710  0.51020  Biso   1.000  C
  C6       1.0000 0.40180  0.49460  0.29090  Biso   1.000  C
  C7       1.0000 0.51110  0.35540  0.26250  Biso   1.000  C
  C8       1.0000 0.66440  0.24880  0.25040  Biso   1.000  C
  C9       1.0000 0.62910  0.39820  0.29450  Biso   1.000  C
  C10      1.0000 0.62530  0.49420  0.32640  Biso   1.000  C
  C11      1.0000 0.50950  0.23390  0.98860  Biso   1.000  C
  C12      1.0000 0.40120  0.24990  0.85240  Biso   1.000  C
  C13      1.0000 0.24800  0.24790  0.74810  Biso   1.000  C
  C14      1.0000 0.28220  0.22470  0.89570  Biso   1.000  C
  C15      1.0000 0.28460  0.20290  0.98980  Biso   1.000  C
  C16      1.0000 0.90180  0.00540  0.20910  Biso   1.000  C
  C17      1.0000 0.01110  0.14460  0.23750  Biso   1.000  C
  C18      1.0000 0.16440  0.25120  0.24960  Biso   1.000  C
  C19      1.0000 0.12910  0.10180  0.20550  Biso   1.000  C
  C20      1.0000 0.12530  0.00580  0.17360  Biso   1.000  C
  C21      1.0000 0.99050  0.73390  0.48860  Biso   1.000  C
  C22      1.0000 0.09880  0.74990  0.35240  Biso   1.000  C
  C23      1.0000 0.25200  0.74790  0.24810  Biso   1.000  C
  C24      1.0000 0.21780  0.72470  0.39570  Biso   1.000  C
  C25      1.0000 0.21540  0.70290  0.48980  Biso   1.000  C
  C26      1.0000 0.59820  0.50540  0.70910  Biso   1.000  C
  C27      1.0000 0.48890  0.64460  0.73750  Biso   1.000  C
  C28      1.0000 0.33560  0.75120  0.74960  Biso   1.000  C
  C29      1.0000 0.37090  0.60180  0.70550  Biso   1.000  C
  C30      1.0000 0.37470  0.50580  0.67360  Biso   1.000  C
  C31      1.0000 0.49050  0.76610  0.01140  Biso   1.000  C
  C32      1.0000 0.59880  0.75010  0.14760  Biso   1.000  C
  C33      1.0000 0.75200  0.75210  0.25190  Biso   1.000  C
  C34      1.0000 0.71780  0.77530  0.10430  Biso   1.000  C
  C35      1.0000 0.71540  0.79710  0.01020  Biso   1.000  C
  C36      1.0000 0.09820  0.99460  0.79090  Biso   1.000  C
  C37      1.0000 0.98890  0.85540  0.76250  Biso   1.000  C
  C38      1.0000 0.83560  0.74880  0.75040  Biso   1.000  C
  C39      1.0000 0.87090  0.89820  0.79450  Biso   1.000  C
  C40      1.0000 0.87470  0.99420  0.82640  Biso   1.000  C
  Br1      1.0000 0.00700  0.49529  0.32341  Biso   1.000  Br
  Br2      1.0000 0.40893  0.27136  0.50410  Biso   1.000  Br
  Br3      1.0000 0.50700  0.00471  0.17659  Biso   1.000  Br
  Br4      1.0000 0.90893  0.22864  0.99590  Biso   1.000  Br
  Br5      1.0000 0.99300  0.50471  0.67659  Biso   1.000  Br
  Br6      1.0000 0.59107  0.72864  0.49590  Biso   1.000  Br
  Br7      1.0000 0.49300  0.99529  0.82341  Biso   1.000  Br
  Br8      1.0000 0.09107  0.77136  0.00410  Biso   1.000  Br
  N1       1.0000 0.89970  0.29280  0.46400  Biso   1.000  N
  N2       1.0000 0.01550  0.24360  0.60250  Biso   1.000  N
  N3       1.0000 0.87900  0.23610  0.74210  Biso   1.000  N
  N4       1.0000 0.68510  0.27510  0.67280  Biso   1.000  N
  N5       1.0000 0.51060  0.54210  0.32290  Biso   1.000  N
  N6       1.0000 0.39630  0.40200  0.25920  Biso   1.000  N
  N7       1.0000 0.53490  0.26030  0.23430  Biso   1.000  N
  N8       1.0000 0.72650  0.32810  0.28650  Biso   1.000  N
  N9       1.0000 0.39970  0.20720  0.03600  Biso   1.000  N
  N10      1.0000 0.51550  0.25640  0.89750  Biso   1.000  N
  N11      1.0000 0.37900  0.26390  0.75790  Biso   1.000  N
  N12      1.0000 0.18510  0.22490  0.82720  Biso   1.000  N
  N13      1.0000 0.01060  0.95790  0.17710  Biso   1.000  N
  N14      1.0000 0.89630  0.09800  0.24080  Biso   1.000  N
  N15      1.0000 0.03490  0.23970  0.26570  Biso   1.000  N
  N16      1.0000 0.22650  0.17190  0.21350  Biso   1.000  N
  N17      1.0000 0.10030  0.70720  0.53600  Biso   1.000  N
  N18      1.0000 0.98450  0.75640  0.39750  Biso   1.000  N
  N19      1.0000 0.12100  0.76390  0.25790  Biso   1.000  N
  N20      1.0000 0.31490  0.72490  0.32720  Biso   1.000  N
  N21      1.0000 0.48940  0.45790  0.67710  Biso   1.000  N
  N22      1.0000 0.60370  0.59800  0.74080  Biso   1.000  N
  N23      1.0000 0.46510  0.73970  0.76570  Biso   1.000  N
  N24      1.0000 0.27350  0.67190  0.71350  Biso   1.000  N
  N25      1.0000 0.60030  0.79280  0.96400  Biso   1.000  N
  N26      1.0000 0.48450  0.74360  0.10250  Biso   1.000  N
  N27      1.0000 0.62100  0.73610  0.24210  Biso   1.000  N
  N28      1.0000 0.81490  0.77510  0.17280  Biso   1.000  N
  N29      1.0000 0.98940  0.04210  0.82290  Biso   1.000  N
  N30      1.0000 0.10370  0.90200  0.75920  Biso   1.000  N
  N31      1.0000 0.96510  0.76030  0.73430  Biso   1.000  N
  N32      1.0000 0.77350  0.82810  0.78650  Biso   1.000  N
