data_image0
_cell_length_a       18.121
_cell_length_b       26.884
_cell_length_c       26.884
_cell_angle_alpha    120
_cell_angle_beta     90
_cell_angle_gamma    90

_symmetry_space_group_name_H-M    P 1
_symmetry_int_tables_number       1

loop_
  _symmetry_equiv_pos_as_xyz
  'x, y, z'

loop_
  _atom_site_label
  _atom_site_occupancy
  _atom_site_fract_x
  _atom_site_fract_y
  _atom_site_fract_z
  _atom_site_thermal_displace_type
  _atom_site_B_iso_or_equiv
  _atom_site_type_symbol
  Zn1      1.0000 0.41605  0.88943  0.33165  Biso   1.000  Zn
  Zn2      1.0000 0.41605  0.44222  0.11057  Biso   1.000  Zn
  Zn3      1.0000 0.41605  0.66835  0.55778  Biso   1.000  Zn
  Zn4      1.0000 0.91605  0.11057  0.66835  Biso   1.000  Zn
  Zn5      1.0000 0.91605  0.55778  0.88943  Biso   1.000  Zn
  Zn6      1.0000 0.91605  0.33165  0.44222  Biso   1.000  Zn
  Zn7      1.0000 0.58395  0.55778  0.66835  Biso   1.000  Zn
  Zn8      1.0000 0.58395  0.33165  0.88943  Biso   1.000  Zn
  Zn9      1.0000 0.58395  0.11057  0.44222  Biso   1.000  Zn
  Zn10     1.0000 0.08395  0.44222  0.33165  Biso   1.000  Zn
  Zn11     1.0000 0.08395  0.66835  0.11057  Biso   1.000  Zn
  Zn12     1.0000 0.08395  0.88943  0.55778  Biso   1.000  Zn
  Zn13     1.0000 0.58395  0.11057  0.66835  Biso   1.000  Zn
  Zn14     1.0000 0.58395  0.55778  0.88943  Biso   1.000  Zn
  Zn15     1.0000 0.58395  0.33165  0.44222  Biso   1.000  Zn
  Zn16     1.0000 0.08395  0.88943  0.33165  Biso   1.000  Zn
  Zn17     1.0000 0.08395  0.44222  0.11057  Biso   1.000  Zn
  Zn18     1.0000 0.08395  0.66835  0.55778  Biso   1.000  Zn
  Zn19     1.0000 0.41605  0.44222  0.33165  Biso   1.000  Zn
  Zn20     1.0000 0.41605  0.66835  0.11057  Biso   1.000  Zn
  Zn21     1.0000 0.41605  0.88943  0.55778  Biso   1.000  Zn
  Zn22     1.0000 0.91605  0.55778  0.66835  Biso   1.000  Zn
  Zn23     1.0000 0.91605  0.33165  0.88943  Biso   1.000  Zn
  Zn24     1.0000 0.91605  0.11057  0.44222  Biso   1.000  Zn
  H1       1.0000 0.59430  0.87090  0.30160  Biso   1.000  H
  H2       1.0000 0.70000  0.82510  0.25960  Biso   1.000  H
  H3       1.0000 0.44610  0.91020  0.22240  Biso   1.000  H
  H4       1.0000 0.46180  0.96280  0.17620  Biso   1.000  H
  H5       1.0000 0.31770  0.97570  0.30860  Biso   1.000  H
  H6       1.0000 0.52320  0.81520  0.36110  Biso   1.000  H
  H7       1.0000 0.59430  0.43070  0.12910  Biso   1.000  H
  H8       1.0000 0.70000  0.43450  0.17490  Biso   1.000  H
  H9       1.0000 0.44610  0.31220  0.08980  Biso   1.000  H
  H10      1.0000 0.46180  0.21340  0.03720  Biso   1.000  H
  H11      1.0000 0.31770  0.33290  0.02430  Biso   1.000  H
  H12      1.0000 0.52320  0.54590  0.18480  Biso   1.000  H
  H13      1.0000 0.59430  0.69840  0.56930  Biso   1.000  H
  H14      1.0000 0.70000  0.74040  0.56550  Biso   1.000  H
  H15      1.0000 0.44610  0.77760  0.68780  Biso   1.000  H
  H16      1.0000 0.46180  0.82380  0.78660  Biso   1.000  H
  H17      1.0000 0.31770  0.69140  0.66710  Biso   1.000  H
  H18      1.0000 0.52320  0.63890  0.45410  Biso   1.000  H
  H19      1.0000 0.09430  0.12910  0.69840  Biso   1.000  H
  H20      1.0000 0.20000  0.17490  0.74040  Biso   1.000  H
  H21      1.0000 0.94610  0.08980  0.77760  Biso   1.000  H
  H22      1.0000 0.96180  0.03720  0.82380  Biso   1.000  H
  H23      1.0000 0.81770  0.02430  0.69140  Biso   1.000  H
  H24      1.0000 0.02320  0.18480  0.63890  Biso   1.000  H
  H25      1.0000 0.09430  0.56930  0.87090  Biso   1.000  H
  H26      1.0000 0.20000  0.56550  0.82510  Biso   1.000  H
  H27      1.0000 0.94610  0.68780  0.91020  Biso   1.000  H
  H28      1.0000 0.96180  0.78660  0.96280  Biso   1.000  H
  H29      1.0000 0.81770  0.66710  0.97570  Biso   1.000  H
  H30      1.0000 0.02320  0.45410  0.81520  Biso   1.000  H
  H31      1.0000 0.09430  0.30160  0.43070  Biso   1.000  H
  H32      1.0000 0.20000  0.25960  0.43450  Biso   1.000  H
  H33      1.0000 0.94610  0.22240  0.31220  Biso   1.000  H
  H34      1.0000 0.96180  0.17620  0.21340  Biso   1.000  H
  H35      1.0000 0.81770  0.30860  0.33290  Biso   1.000  H
  H36      1.0000 0.02320  0.36110  0.54590  Biso   1.000  H
  H37      1.0000 0.40570  0.56930  0.69840  Biso   1.000  H
  H38      1.0000 0.30000  0.56550  0.74040  Biso   1.000  H
  H39      1.0000 0.55390  0.68780  0.77760  Biso   1.000  H
  H40      1.0000 0.53820  0.78660  0.82380  Biso   1.000  H
  H41      1.0000 0.68230  0.66710  0.69140  Biso   1.000  H
  H42      1.0000 0.47680  0.45410  0.63890  Biso   1.000  H
  H43      1.0000 0.40570  0.30160  0.87090  Biso   1.000  H
  H44      1.0000 0.30000  0.25960  0.82510  Biso   1.000  H
  H45      1.0000 0.55390  0.22240  0.91020  Biso   1.000  H
  H46      1.0000 0.53820  0.17620  0.96280  Biso   1.000  H
  H47      1.0000 0.68230  0.30860  0.97570  Biso   1.000  H
  H48      1.0000 0.47680  0.36110  0.81520  Biso   1.000  H
  H49      1.0000 0.40570  0.12910  0.43070  Biso   1.000  H
  H50      1.0000 0.30000  0.17490  0.43450  Biso   1.000  H
  H51      1.0000 0.55390  0.08980  0.31220  Biso   1.000  H
  H52      1.0000 0.53820  0.03720  0.21340  Biso   1.000  H
  H53      1.0000 0.68230  0.02430  0.33290  Biso   1.000  H
  H54      1.0000 0.47680  0.18480  0.54590  Biso   1.000  H
  H55      1.0000 0.90570  0.43070  0.30160  Biso   1.000  H
  H56      1.0000 0.80000  0.43450  0.25960  Biso   1.000  H
  H57      1.0000 0.05390  0.31220  0.22240  Biso   1.000  H
  H58      1.0000 0.03820  0.21340  0.17620  Biso   1.000  H
  H59      1.0000 0.18230  0.33290  0.30860  Biso   1.000  H
  H60      1.0000 0.97680  0.54590  0.36110  Biso   1.000  H
  H61      1.0000 0.90570  0.69840  0.12910  Biso   1.000  H
  H62      1.0000 0.80000  0.74040  0.17490  Biso   1.000  H
  H63      1.0000 0.05390  0.77760  0.08980  Biso   1.000  H
  H64      1.0000 0.03820  0.82380  0.03720  Biso   1.000  H
  H65      1.0000 0.18230  0.69140  0.02430  Biso   1.000  H
  H66      1.0000 0.97680  0.63890  0.18480  Biso   1.000  H
  H67      1.0000 0.90570  0.87090  0.56930  Biso   1.000  H
  H68      1.0000 0.80000  0.82510  0.56550  Biso   1.000  H
  H69      1.0000 0.05390  0.91020  0.68780  Biso   1.000  H
  H70      1.0000 0.03820  0.96280  0.78660  Biso   1.000  H
  H71      1.0000 0.18230  0.97570  0.66710  Biso   1.000  H
  H72      1.0000 0.97680  0.81520  0.45410  Biso   1.000  H
  H73      1.0000 0.40570  0.12910  0.69840  Biso   1.000  H
  H74      1.0000 0.30000  0.17490  0.74040  Biso   1.000  H
  H75      1.0000 0.55390  0.08980  0.77760  Biso   1.000  H
  H76      1.0000 0.53820  0.03720  0.82380  Biso   1.000  H
  H77      1.0000 0.68230  0.02430  0.69140  Biso   1.000  H
  H78      1.0000 0.47680  0.18480  0.63890  Biso   1.000  H
  H79      1.0000 0.40570  0.56930  0.87090  Biso   1.000  H
  H80      1.0000 0.30000  0.56550  0.82510  Biso   1.000  H
  H81      1.0000 0.55390  0.68780  0.91020  Biso   1.000  H
  H82      1.0000 0.53820  0.78660  0.96280  Biso   1.000  H
  H83      1.0000 0.68230  0.66710  0.97570  Biso   1.000  H
  H84      1.0000 0.47680  0.45410  0.81520  Biso   1.000  H
  H85      1.0000 0.40570  0.30160  0.43070  Biso   1.000  H
  H86      1.0000 0.30000  0.25960  0.43450  Biso   1.000  H
  H87      1.0000 0.55390  0.22240  0.31220  Biso   1.000  H
  H88      1.0000 0.53820  0.17620  0.21340  Biso   1.000  H
  H89      1.0000 0.68230  0.30860  0.33290  Biso   1.000  H
  H90      1.0000 0.47680  0.36110  0.54590  Biso   1.000  H
  H91      1.0000 0.90570  0.87090  0.30160  Biso   1.000  H
  H92      1.0000 0.80000  0.82510  0.25960  Biso   1.000  H
  H93      1.0000 0.05390  0.91020  0.22240  Biso   1.000  H
  H94      1.0000 0.03820  0.96280  0.17620  Biso   1.000  H
  H95      1.0000 0.18230  0.97570  0.30860  Biso   1.000  H
  H96      1.0000 0.97680  0.81520  0.36110  Biso   1.000  H
  H97      1.0000 0.90570  0.43070  0.12910  Biso   1.000  H
  H98      1.0000 0.80000  0.43450  0.17490  Biso   1.000  H
  H99      1.0000 0.05390  0.31220  0.08980  Biso   1.000  H
  H100     1.0000 0.03820  0.21340  0.03720  Biso   1.000  H
  H101     1.0000 0.18230  0.33290  0.02430  Biso   1.000  H
  H102     1.0000 0.97680  0.54590  0.18480  Biso   1.000  H
  H103     1.0000 0.90570  0.69840  0.56930  Biso   1.000  H
  H104     1.0000 0.80000  0.74040  0.56550  Biso   1.000  H
  H105     1.0000 0.05390  0.77760  0.68780  Biso   1.000  H
  H106     1.0000 0.03820  0.82380  0.78660  Biso   1.000  H
  H107     1.0000 0.18230  0.69140  0.66710  Biso   1.000  H
  H108     1.0000 0.97680  0.63890  0.45410  Biso   1.000  H
  H109     1.0000 0.59430  0.43070  0.30160  Biso   1.000  H
  H110     1.0000 0.70000  0.43450  0.25960  Biso   1.000  H
  H111     1.0000 0.44610  0.31220  0.22240  Biso   1.000  H
  H112     1.0000 0.46180  0.21340  0.17620  Biso   1.000  H
  H113     1.0000 0.31770  0.33290  0.30860  Biso   1.000  H
  H114     1.0000 0.52320  0.54590  0.36110  Biso   1.000  H
  H115     1.0000 0.59430  0.69840  0.12910  Biso   1.000  H
  H116     1.0000 0.70000  0.74040  0.17490  Biso   1.000  H
  H117     1.0000 0.44610  0.77760  0.08980  Biso   1.000  H
  H118     1.0000 0.46180  0.82380  0.03720  Biso   1.000  H
  H119     1.0000 0.31770  0.69140  0.02430  Biso   1.000  H
  H120     1.0000 0.52320  0.63890  0.18480  Biso   1.000  H
  H121     1.0000 0.59430  0.87090  0.56930  Biso   1.000  H
  H122     1.0000 0.70000  0.82510  0.56550  Biso   1.000  H
  H123     1.0000 0.44610  0.91020  0.68780  Biso   1.000  H
  H124     1.0000 0.46180  0.96280  0.78660  Biso   1.000  H
  H125     1.0000 0.31770  0.97570  0.66710  Biso   1.000  H
  H126     1.0000 0.52320  0.81520  0.45410  Biso   1.000  H
  H127     1.0000 0.09430  0.56930  0.69840  Biso   1.000  H
  H128     1.0000 0.20000  0.56550  0.74040  Biso   1.000  H
  H129     1.0000 0.94610  0.68780  0.77760  Biso   1.000  H
  H130     1.0000 0.96180  0.78660  0.82380  Biso   1.000  H
  H131     1.0000 0.81770  0.66710  0.69140  Biso   1.000  H
  H132     1.0000 0.02320  0.45410  0.63890  Biso   1.000  H
  H133     1.0000 0.09430  0.30160  0.87090  Biso   1.000  H
  H134     1.0000 0.20000  0.25960  0.82510  Biso   1.000  H
  H135     1.0000 0.94610  0.22240  0.91020  Biso   1.000  H
  H136     1.0000 0.96180  0.17620  0.96280  Biso   1.000  H
  H137     1.0000 0.81770  0.30860  0.97570  Biso   1.000  H
  H138     1.0000 0.02320  0.36110  0.81520  Biso   1.000  H
  H139     1.0000 0.09430  0.12910  0.43070  Biso   1.000  H
  H140     1.0000 0.20000  0.17490  0.43450  Biso   1.000  H
  H141     1.0000 0.94610  0.08980  0.31220  Biso   1.000  H
  H142     1.0000 0.96180  0.03720  0.21340  Biso   1.000  H
  H143     1.0000 0.81770  0.02430  0.33290  Biso   1.000  H
  H144     1.0000 0.02320  0.18480  0.54590  Biso   1.000  H
  H145     1.0000 0.36650  0.77510  0.22490  Biso   1.000  H
  H146     1.0000 0.36650  0.44980  0.22490  Biso   1.000  H
  H147     1.0000 0.36650  0.77510  0.55020  Biso   1.000  H
  H148     1.0000 0.86650  0.22490  0.77510  Biso   1.000  H
  H149     1.0000 0.86650  0.55020  0.77510  Biso   1.000  H
  H150     1.0000 0.86650  0.22490  0.44980  Biso   1.000  H
  H151     1.0000 0.63350  0.55020  0.77510  Biso   1.000  H
  H152     1.0000 0.63350  0.22490  0.77510  Biso   1.000  H
  H153     1.0000 0.63350  0.22490  0.44980  Biso   1.000  H
  H154     1.0000 0.13350  0.44980  0.22490  Biso   1.000  H
  H155     1.0000 0.13350  0.77510  0.22490  Biso   1.000  H
  H156     1.0000 0.13350  0.77510  0.55020  Biso   1.000  H
  H157     1.0000 0.50000  0.00000  0.42280  Biso   1.000  H
  H158     1.0000 0.50000  0.42280  0.00000  Biso   1.000  H
  H159     1.0000 0.50000  0.57720  0.57720  Biso   1.000  H
  H160     1.0000 0.00000  0.00000  0.57720  Biso   1.000  H
  H161     1.0000 0.00000  0.57720  0.00000  Biso   1.000  H
  H162     1.0000 0.00000  0.42280  0.42280  Biso   1.000  H
  H163     1.0000 0.50000  0.00000  0.57720  Biso   1.000  H
  H164     1.0000 0.50000  0.57720  0.00000  Biso   1.000  H
  H165     1.0000 0.50000  0.42280  0.42280  Biso   1.000  H
  H166     1.0000 0.00000  0.00000  0.42280  Biso   1.000  H
  H167     1.0000 0.00000  0.42280  0.00000  Biso   1.000  H
  H168     1.0000 0.00000  0.57720  0.57720  Biso   1.000  H
  C1       1.0000 0.52780  0.80880  0.24440  Biso   1.000  C
  C2       1.0000 0.59290  0.83450  0.26750  Biso   1.000  C
  C3       1.0000 0.65420  0.80820  0.24200  Biso   1.000  C
  C4       1.0000 0.47920  0.97470  0.29780  Biso   1.000  C
  C5       1.0000 0.46560  0.94810  0.24200  Biso   1.000  C
  C6       1.0000 0.48060  0.97700  0.21400  Biso   1.000  C
  C7       1.0000 0.28740  0.94870  0.31190  Biso   1.000  C
  C8       1.0000 0.49360  0.83910  0.39370  Biso   1.000  C
  C9       1.0000 0.52780  0.43560  0.19120  Biso   1.000  C
  C10      1.0000 0.59290  0.43300  0.16550  Biso   1.000  C
  C11      1.0000 0.65420  0.43380  0.19180  Biso   1.000  C
  C12      1.0000 0.47920  0.32310  0.02530  Biso   1.000  C
  C13      1.0000 0.46560  0.29390  0.05190  Biso   1.000  C
  C14      1.0000 0.48060  0.23700  0.02300  Biso   1.000  C
  C15      1.0000 0.28740  0.36320  0.05130  Biso   1.000  C
  C16      1.0000 0.49360  0.55460  0.16090  Biso   1.000  C
  C17      1.0000 0.52780  0.75560  0.56440  Biso   1.000  C
  C18      1.0000 0.59290  0.73250  0.56700  Biso   1.000  C
  C19      1.0000 0.65420  0.75800  0.56620  Biso   1.000  C
  C20      1.0000 0.47920  0.70220  0.67690  Biso   1.000  C
  C21      1.0000 0.46560  0.75800  0.70610  Biso   1.000  C
  C22      1.0000 0.48060  0.78600  0.76300  Biso   1.000  C
  C23      1.0000 0.28740  0.68810  0.63680  Biso   1.000  C
  C24      1.0000 0.49360  0.60630  0.44540  Biso   1.000  C
  C25      1.0000 0.02780  0.19120  0.75560  Biso   1.000  C
  C26      1.0000 0.09290  0.16550  0.73250  Biso   1.000  C
  C27      1.0000 0.15420  0.19180  0.75800  Biso   1.000  C
  C28      1.0000 0.97920  0.02530  0.70220  Biso   1.000  C
  C29      1.0000 0.96560  0.05190  0.75800  Biso   1.000  C
  C30      1.0000 0.98060  0.02300  0.78600  Biso   1.000  C
  C31      1.0000 0.78740  0.05130  0.68810  Biso   1.000  C
  C32      1.0000 0.99360  0.16090  0.60630  Biso   1.000  C
  C33      1.0000 0.02780  0.56440  0.80880  Biso   1.000  C
  C34      1.0000 0.09290  0.56700  0.83450  Biso   1.000  C
  C35      1.0000 0.15420  0.56620  0.80820  Biso   1.000  C
  C36      1.0000 0.97920  0.67690  0.97470  Biso   1.000  C
  C37      1.0000 0.96560  0.70610  0.94810  Biso   1.000  C
  C38      1.0000 0.98060  0.76300  0.97700  Biso   1.000  C
  C39      1.0000 0.78740  0.63680  0.94870  Biso   1.000  C
  C40      1.0000 0.99360  0.44540  0.83910  Biso   1.000  C
  C41      1.0000 0.02780  0.24440  0.43560  Biso   1.000  C
  C42      1.0000 0.09290  0.26750  0.43300  Biso   1.000  C
  C43      1.0000 0.15420  0.24200  0.43380  Biso   1.000  C
  C44      1.0000 0.97920  0.29780  0.32310  Biso   1.000  C
  C45      1.0000 0.96560  0.24200  0.29390  Biso   1.000  C
  C46      1.0000 0.98060  0.21400  0.23700  Biso   1.000  C
  C47      1.0000 0.78740  0.31190  0.36320  Biso   1.000  C
  C48      1.0000 0.99360  0.39370  0.55460  Biso   1.000  C
  C49      1.0000 0.47220  0.56440  0.75560  Biso   1.000  C
  C50      1.0000 0.40710  0.56700  0.73250  Biso   1.000  C
  C51      1.0000 0.34580  0.56620  0.75800  Biso   1.000  C
  C52      1.0000 0.52080  0.67690  0.70220  Biso   1.000  C
  C53      1.0000 0.53440  0.70610  0.75800  Biso   1.000  C
  C54      1.0000 0.51940  0.76300  0.78600  Biso   1.000  C
  C55      1.0000 0.71260  0.63680  0.68810  Biso   1.000  C
  C56      1.0000 0.50640  0.44540  0.60630  Biso   1.000  C
  C57      1.0000 0.47220  0.24440  0.80880  Biso   1.000  C
  C58      1.0000 0.40710  0.26750  0.83450  Biso   1.000  C
  C59      1.0000 0.34580  0.24200  0.80820  Biso   1.000  C
  C60      1.0000 0.52080  0.29780  0.97470  Biso   1.000  C
  C61      1.0000 0.53440  0.24200  0.94810  Biso   1.000  C
  C62      1.0000 0.51940  0.21400  0.97700  Biso   1.000  C
  C63      1.0000 0.71260  0.31190  0.94870  Biso   1.000  C
  C64      1.0000 0.50640  0.39370  0.83910  Biso   1.000  C
  C65      1.0000 0.47220  0.19120  0.43560  Biso   1.000  C
  C66      1.0000 0.40710  0.16550  0.43300  Biso   1.000  C
  C67      1.0000 0.34580  0.19180  0.43380  Biso   1.000  C
  C68      1.0000 0.52080  0.02530  0.32310  Biso   1.000  C
  C69      1.0000 0.53440  0.05190  0.29390  Biso   1.000  C
  C70      1.0000 0.51940  0.02300  0.23700  Biso   1.000  C
  C71      1.0000 0.71260  0.05130  0.36320  Biso   1.000  C
  C72      1.0000 0.50640  0.16090  0.55460  Biso   1.000  C
  C73      1.0000 0.97220  0.43560  0.24440  Biso   1.000  C
  C74      1.0000 0.90710  0.43300  0.26750  Biso   1.000  C
  C75      1.0000 0.84580  0.43380  0.24200  Biso   1.000  C
  C76      1.0000 0.02080  0.32310  0.29780  Biso   1.000  C
  C77      1.0000 0.03440  0.29390  0.24200  Biso   1.000  C
  C78      1.0000 0.01940  0.23700  0.21400  Biso   1.000  C
  C79      1.0000 0.21260  0.36320  0.31190  Biso   1.000  C
  C80      1.0000 0.00640  0.55460  0.39370  Biso   1.000  C
  C81      1.0000 0.97220  0.75560  0.19120  Biso   1.000  C
  C82      1.0000 0.90710  0.73250  0.16550  Biso   1.000  C
  C83      1.0000 0.84580  0.75800  0.19180  Biso   1.000  C
  C84      1.0000 0.02080  0.70220  0.02530  Biso   1.000  C
  C85      1.0000 0.03440  0.75800  0.05190  Biso   1.000  C
  C86      1.0000 0.01940  0.78600  0.02300  Biso   1.000  C
  C87      1.0000 0.21260  0.68810  0.05130  Biso   1.000  C
  C88      1.0000 0.00640  0.60630  0.16090  Biso   1.000  C
  C89      1.0000 0.97220  0.80880  0.56440  Biso   1.000  C
  C90      1.0000 0.90710  0.83450  0.56700  Biso   1.000  C
  C91      1.0000 0.84580  0.80820  0.56620  Biso   1.000  C
  C92      1.0000 0.02080  0.97470  0.67690  Biso   1.000  C
  C93      1.0000 0.03440  0.94810  0.70610  Biso   1.000  C
  C94      1.0000 0.01940  0.97700  0.76300  Biso   1.000  C
  C95      1.0000 0.21260  0.94870  0.63680  Biso   1.000  C
  C96      1.0000 0.00640  0.83910  0.44540  Biso   1.000  C
  C97      1.0000 0.47220  0.19120  0.75560  Biso   1.000  C
  C98      1.0000 0.40710  0.16550  0.73250  Biso   1.000  C
  C99      1.0000 0.34580  0.19180  0.75800  Biso   1.000  C
  C100     1.0000 0.52080  0.02530  0.70220  Biso   1.000  C
  C101     1.0000 0.53440  0.05190  0.75800  Biso   1.000  C
  C102     1.0000 0.51940  0.02300  0.78600  Biso   1.000  C
  C103     1.0000 0.71260  0.05130  0.68810  Biso   1.000  C
  C104     1.0000 0.50640  0.16090  0.60630  Biso   1.000  C
  C105     1.0000 0.47220  0.56440  0.80880  Biso   1.000  C
  C106     1.0000 0.40710  0.56700  0.83450  Biso   1.000  C
  C107     1.0000 0.34580  0.56620  0.80820  Biso   1.000  C
  C108     1.0000 0.52080  0.67690  0.97470  Biso   1.000  C
  C109     1.0000 0.53440  0.70610  0.94810  Biso   1.000  C
  C110     1.0000 0.51940  0.76300  0.97700  Biso   1.000  C
  C111     1.0000 0.71260  0.63680  0.94870  Biso   1.000  C
  C112     1.0000 0.50640  0.44540  0.83910  Biso   1.000  C
  C113     1.0000 0.47220  0.24440  0.43560  Biso   1.000  C
  C114     1.0000 0.40710  0.26750  0.43300  Biso   1.000  C
  C115     1.0000 0.34580  0.24200  0.43380  Biso   1.000  C
  C116     1.0000 0.52080  0.29780  0.32310  Biso   1.000  C
  C117     1.0000 0.53440  0.24200  0.29390  Biso   1.000  C
  C118     1.0000 0.51940  0.21400  0.23700  Biso   1.000  C
  C119     1.0000 0.71260  0.31190  0.36320  Biso   1.000  C
  C120     1.0000 0.50640  0.39370  0.55460  Biso   1.000  C
  C121     1.0000 0.97220  0.80880  0.24440  Biso   1.000  C
  C122     1.0000 0.90710  0.83450  0.26750  Biso   1.000  C
  C123     1.0000 0.84580  0.80820  0.24200  Biso   1.000  C
  C124     1.0000 0.02080  0.97470  0.29780  Biso   1.000  C
  C125     1.0000 0.03440  0.94810  0.24200  Biso   1.000  C
  C126     1.0000 0.01940  0.97700  0.21400  Biso   1.000  C
  C127     1.0000 0.21260  0.94870  0.31190  Biso   1.000  C
  C128     1.0000 0.00640  0.83910  0.39370  Biso   1.000  C
  C129     1.0000 0.97220  0.43560  0.19120  Biso   1.000  C
  C130     1.0000 0.90710  0.43300  0.16550  Biso   1.000  C
  C131     1.0000 0.84580  0.43380  0.19180  Biso   1.000  C
  C132     1.0000 0.02080  0.32310  0.02530  Biso   1.000  C
  C133     1.0000 0.03440  0.29390  0.05190  Biso   1.000  C
  C134     1.0000 0.01940  0.23700  0.02300  Biso   1.000  C
  C135     1.0000 0.21260  0.36320  0.05130  Biso   1.000  C
  C136     1.0000 0.00640  0.55460  0.16090  Biso   1.000  C
  C137     1.0000 0.97220  0.75560  0.56440  Biso   1.000  C
  C138     1.0000 0.90710  0.73250  0.56700  Biso   1.000  C
  C139     1.0000 0.84580  0.75800  0.56620  Biso   1.000  C
  C140     1.0000 0.02080  0.70220  0.67690  Biso   1.000  C
  C141     1.0000 0.03440  0.75800  0.70610  Biso   1.000  C
  C142     1.0000 0.01940  0.78600  0.76300  Biso   1.000  C
  C143     1.0000 0.21260  0.68810  0.63680  Biso   1.000  C
  C144     1.0000 0.00640  0.60630  0.44540  Biso   1.000  C
  C145     1.0000 0.52780  0.43560  0.24440  Biso   1.000  C
  C146     1.0000 0.59290  0.43300  0.26750  Biso   1.000  C
  C147     1.0000 0.65420  0.43380  0.24200  Biso   1.000  C
  C148     1.0000 0.47920  0.32310  0.29780  Biso   1.000  C
  C149     1.0000 0.46560  0.29390  0.24200  Biso   1.000  C
  C150     1.0000 0.48060  0.23700  0.21400  Biso   1.000  C
  C151     1.0000 0.28740  0.36320  0.31190  Biso   1.000  C
  C152     1.0000 0.49360  0.55460  0.39370  Biso   1.000  C
  C153     1.0000 0.52780  0.75560  0.19120  Biso   1.000  C
  C154     1.0000 0.59290  0.73250  0.16550  Biso   1.000  C
  C155     1.0000 0.65420  0.75800  0.19180  Biso   1.000  C
  C156     1.0000 0.47920  0.70220  0.02530  Biso   1.000  C
  C157     1.0000 0.46560  0.75800  0.05190  Biso   1.000  C
  C158     1.0000 0.48060  0.78600  0.02300  Biso   1.000  C
  C159     1.0000 0.28740  0.68810  0.05130  Biso   1.000  C
  C160     1.0000 0.49360  0.60630  0.16090  Biso   1.000  C
  C161     1.0000 0.52780  0.80880  0.56440  Biso   1.000  C
  C162     1.0000 0.59290  0.83450  0.56700  Biso   1.000  C
  C163     1.0000 0.65420  0.80820  0.56620  Biso   1.000  C
  C164     1.0000 0.47920  0.97470  0.67690  Biso   1.000  C
  C165     1.0000 0.46560  0.94810  0.70610  Biso   1.000  C
  C166     1.0000 0.48060  0.97700  0.76300  Biso   1.000  C
  C167     1.0000 0.28740  0.94870  0.63680  Biso   1.000  C
  C168     1.0000 0.49360  0.83910  0.44540  Biso   1.000  C
  C169     1.0000 0.02780  0.56440  0.75560  Biso   1.000  C
  C170     1.0000 0.09290  0.56700  0.73250  Biso   1.000  C
  C171     1.0000 0.15420  0.56620  0.75800  Biso   1.000  C
  C172     1.0000 0.97920  0.67690  0.70220  Biso   1.000  C
  C173     1.0000 0.96560  0.70610  0.75800  Biso   1.000  C
  C174     1.0000 0.98060  0.76300  0.78600  Biso   1.000  C
  C175     1.0000 0.78740  0.63680  0.68810  Biso   1.000  C
  C176     1.0000 0.99360  0.44540  0.60630  Biso   1.000  C
  C177     1.0000 0.02780  0.24440  0.80880  Biso   1.000  C
  C178     1.0000 0.09290  0.26750  0.83450  Biso   1.000  C
  C179     1.0000 0.15420  0.24200  0.80820  Biso   1.000  C
  C180     1.0000 0.97920  0.29780  0.97470  Biso   1.000  C
  C181     1.0000 0.96560  0.24200  0.94810  Biso   1.000  C
  C182     1.0000 0.98060  0.21400  0.97700  Biso   1.000  C
  C183     1.0000 0.78740  0.31190  0.94870  Biso   1.000  C
  C184     1.0000 0.99360  0.39370  0.83910  Biso   1.000  C
  C185     1.0000 0.02780  0.19120  0.43560  Biso   1.000  C
  C186     1.0000 0.09290  0.16550  0.43300  Biso   1.000  C
  C187     1.0000 0.15420  0.19180  0.43380  Biso   1.000  C
  C188     1.0000 0.97920  0.02530  0.32310  Biso   1.000  C
  C189     1.0000 0.96560  0.05190  0.29390  Biso   1.000  C
  C190     1.0000 0.98060  0.02300  0.23700  Biso   1.000  C
  C191     1.0000 0.78740  0.05130  0.36320  Biso   1.000  C
  C192     1.0000 0.99360  0.16090  0.55460  Biso   1.000  C
  C193     1.0000 0.41860  0.77755  0.22245  Biso   1.000  C
  C194     1.0000 0.41860  0.44490  0.22245  Biso   1.000  C
  C195     1.0000 0.41860  0.77755  0.55510  Biso   1.000  C
  C196     1.0000 0.91860  0.22245  0.77755  Biso   1.000  C
  C197     1.0000 0.91860  0.55510  0.77755  Biso   1.000  C
  C198     1.0000 0.91860  0.22245  0.44490  Biso   1.000  C
  C199     1.0000 0.58140  0.55510  0.77755  Biso   1.000  C
  C200     1.0000 0.58140  0.22245  0.77755  Biso   1.000  C
  C201     1.0000 0.58140  0.22245  0.44490  Biso   1.000  C
  C202     1.0000 0.08140  0.44490  0.22245  Biso   1.000  C
  C203     1.0000 0.08140  0.77755  0.22245  Biso   1.000  C
  C204     1.0000 0.08140  0.77755  0.55510  Biso   1.000  C
  C205     1.0000 0.50000  0.00000  0.38740  Biso   1.000  C
  C206     1.0000 0.50000  0.38740  0.00000  Biso   1.000  C
  C207     1.0000 0.50000  0.61260  0.61260  Biso   1.000  C
  C208     1.0000 0.00000  0.00000  0.61260  Biso   1.000  C
  C209     1.0000 0.00000  0.61260  0.00000  Biso   1.000  C
  C210     1.0000 0.00000  0.38740  0.38740  Biso   1.000  C
  C211     1.0000 0.50000  0.00000  0.61260  Biso   1.000  C
  C212     1.0000 0.50000  0.61260  0.00000  Biso   1.000  C
  C213     1.0000 0.50000  0.38740  0.38740  Biso   1.000  C
  C214     1.0000 0.00000  0.00000  0.38740  Biso   1.000  C
  C215     1.0000 0.00000  0.38740  0.00000  Biso   1.000  C
  C216     1.0000 0.00000  0.61260  0.61260  Biso   1.000  C
  C217     1.0000 0.25000  0.87910  0.31930  Biso   1.000  C
  C218     1.0000 0.25000  0.44020  0.12090  Biso   1.000  C
  C219     1.0000 0.25000  0.68070  0.55980  Biso   1.000  C
  C220     1.0000 0.75000  0.12090  0.68070  Biso   1.000  C
  C221     1.0000 0.75000  0.55980  0.87910  Biso   1.000  C
  C222     1.0000 0.75000  0.31930  0.44020  Biso   1.000  C
  C223     1.0000 0.75000  0.55980  0.68070  Biso   1.000  C
  C224     1.0000 0.75000  0.31930  0.87910  Biso   1.000  C
  C225     1.0000 0.75000  0.12090  0.44020  Biso   1.000  C
  C226     1.0000 0.25000  0.44020  0.31930  Biso   1.000  C
  C227     1.0000 0.25000  0.68070  0.12090  Biso   1.000  C
  C228     1.0000 0.25000  0.87910  0.55980  Biso   1.000  C
  C229     1.0000 0.41890  0.90080  0.45040  Biso   1.000  C
  C230     1.0000 0.41890  0.54960  0.09920  Biso   1.000  C
  C231     1.0000 0.41890  0.54960  0.45040  Biso   1.000  C
  C232     1.0000 0.91890  0.09920  0.54960  Biso   1.000  C
  C233     1.0000 0.91890  0.45040  0.90080  Biso   1.000  C
  C234     1.0000 0.91890  0.45040  0.54960  Biso   1.000  C
  C235     1.0000 0.58110  0.45040  0.54960  Biso   1.000  C
  C236     1.0000 0.58110  0.45040  0.90080  Biso   1.000  C
  C237     1.0000 0.58110  0.09920  0.54960  Biso   1.000  C
  C238     1.0000 0.08110  0.54960  0.45040  Biso   1.000  C
  C239     1.0000 0.08110  0.54960  0.09920  Biso   1.000  C
  C240     1.0000 0.08110  0.90080  0.45040  Biso   1.000  C
  N1       1.0000 0.45830  0.82100  0.26230  Biso   1.000  N
  N2       1.0000 0.47130  0.95880  0.33800  Biso   1.000  N
  N3       1.0000 0.31150  0.90550  0.31730  Biso   1.000  N
  N4       1.0000 0.44590  0.87750  0.39730  Biso   1.000  N
  N5       1.0000 0.45830  0.44130  0.17900  Biso   1.000  N
  N6       1.0000 0.47130  0.37920  0.04120  Biso   1.000  N
  N7       1.0000 0.31150  0.41180  0.09450  Biso   1.000  N
  N8       1.0000 0.44590  0.51980  0.12250  Biso   1.000  N
  N9       1.0000 0.45830  0.73770  0.55870  Biso   1.000  N
  N10      1.0000 0.47130  0.66200  0.62080  Biso   1.000  N
  N11      1.0000 0.31150  0.68270  0.58820  Biso   1.000  N
  N12      1.0000 0.44590  0.60270  0.48020  Biso   1.000  N
  N13      1.0000 0.95830  0.17900  0.73770  Biso   1.000  N
  N14      1.0000 0.97130  0.04120  0.66200  Biso   1.000  N
  N15      1.0000 0.81150  0.09450  0.68270  Biso   1.000  N
  N16      1.0000 0.94590  0.12250  0.60270  Biso   1.000  N
  N17      1.0000 0.95830  0.55870  0.82100  Biso   1.000  N
  N18      1.0000 0.97130  0.62080  0.95880  Biso   1.000  N
  N19      1.0000 0.81150  0.58820  0.90550  Biso   1.000  N
  N20      1.0000 0.94590  0.48020  0.87750  Biso   1.000  N
  N21      1.0000 0.95830  0.26230  0.44130  Biso   1.000  N
  N22      1.0000 0.97130  0.33800  0.37920  Biso   1.000  N
  N23      1.0000 0.81150  0.31730  0.41180  Biso   1.000  N
  N24      1.0000 0.94590  0.39730  0.51980  Biso   1.000  N
  N25      1.0000 0.54170  0.55870  0.73770  Biso   1.000  N
  N26      1.0000 0.52870  0.62080  0.66200  Biso   1.000  N
  N27      1.0000 0.68850  0.58820  0.68270  Biso   1.000  N
  N28      1.0000 0.55410  0.48020  0.60270  Biso   1.000  N
  N29      1.0000 0.54170  0.26230  0.82100  Biso   1.000  N
  N30      1.0000 0.52870  0.33800  0.95880  Biso   1.000  N
  N31      1.0000 0.68850  0.31730  0.90550  Biso   1.000  N
  N32      1.0000 0.55410  0.39730  0.87750  Biso   1.000  N
  N33      1.0000 0.54170  0.17900  0.44130  Biso   1.000  N
  N34      1.0000 0.52870  0.04120  0.37920  Biso   1.000  N
  N35      1.0000 0.68850  0.09450  0.41180  Biso   1.000  N
  N36      1.0000 0.55410  0.12250  0.51980  Biso   1.000  N
  N37      1.0000 0.04170  0.44130  0.26230  Biso   1.000  N
  N38      1.0000 0.02870  0.37920  0.33800  Biso   1.000  N
  N39      1.0000 0.18850  0.41180  0.31730  Biso   1.000  N
  N40      1.0000 0.05410  0.51980  0.39730  Biso   1.000  N
  N41      1.0000 0.04170  0.73770  0.17900  Biso   1.000  N
  N42      1.0000 0.02870  0.66200  0.04120  Biso   1.000  N
  N43      1.0000 0.18850  0.68270  0.09450  Biso   1.000  N
  N44      1.0000 0.05410  0.60270  0.12250  Biso   1.000  N
  N45      1.0000 0.04170  0.82100  0.55870  Biso   1.000  N
  N46      1.0000 0.02870  0.95880  0.62080  Biso   1.000  N
  N47      1.0000 0.18850  0.90550  0.58820  Biso   1.000  N
  N48      1.0000 0.05410  0.87750  0.48020  Biso   1.000  N
  N49      1.0000 0.54170  0.17900  0.73770  Biso   1.000  N
  N50      1.0000 0.52870  0.04120  0.66200  Biso   1.000  N
  N51      1.0000 0.68850  0.09450  0.68270  Biso   1.000  N
  N52      1.0000 0.55410  0.12250  0.60270  Biso   1.000  N
  N53      1.0000 0.54170  0.55870  0.82100  Biso   1.000  N
  N54      1.0000 0.52870  0.62080  0.95880  Biso   1.000  N
  N55      1.0000 0.68850  0.58820  0.90550  Biso   1.000  N
  N56      1.0000 0.55410  0.48020  0.87750  Biso   1.000  N
  N57      1.0000 0.54170  0.26230  0.44130  Biso   1.000  N
  N58      1.0000 0.52870  0.33800  0.37920  Biso   1.000  N
  N59      1.0000 0.68850  0.31730  0.41180  Biso   1.000  N
  N60      1.0000 0.55410  0.39730  0.51980  Biso   1.000  N
  N61      1.0000 0.04170  0.82100  0.26230  Biso   1.000  N
  N62      1.0000 0.02870  0.95880  0.33800  Biso   1.000  N
  N63      1.0000 0.18850  0.90550  0.31730  Biso   1.000  N
  N64      1.0000 0.05410  0.87750  0.39730  Biso   1.000  N
  N65      1.0000 0.04170  0.44130  0.17900  Biso   1.000  N
  N66      1.0000 0.02870  0.37920  0.04120  Biso   1.000  N
  N67      1.0000 0.18850  0.41180  0.09450  Biso   1.000  N
  N68      1.0000 0.05410  0.51980  0.12250  Biso   1.000  N
  N69      1.0000 0.04170  0.73770  0.55870  Biso   1.000  N
  N70      1.0000 0.02870  0.66200  0.62080  Biso   1.000  N
  N71      1.0000 0.18850  0.68270  0.58820  Biso   1.000  N
  N72      1.0000 0.05410  0.60270  0.48020  Biso   1.000  N
  N73      1.0000 0.45830  0.44130  0.26230  Biso   1.000  N
  N74      1.0000 0.47130  0.37920  0.33800  Biso   1.000  N
  N75      1.0000 0.31150  0.41180  0.31730  Biso   1.000  N
  N76      1.0000 0.44590  0.51980  0.39730  Biso   1.000  N
  N77      1.0000 0.45830  0.73770  0.17900  Biso   1.000  N
  N78      1.0000 0.47130  0.66200  0.04120  Biso   1.000  N
  N79      1.0000 0.31150  0.68270  0.09450  Biso   1.000  N
  N80      1.0000 0.44590  0.60270  0.12250  Biso   1.000  N
  N81      1.0000 0.45830  0.82100  0.55870  Biso   1.000  N
  N82      1.0000 0.47130  0.95880  0.62080  Biso   1.000  N
  N83      1.0000 0.31150  0.90550  0.58820  Biso   1.000  N
  N84      1.0000 0.44590  0.87750  0.48020  Biso   1.000  N
  N85      1.0000 0.95830  0.55870  0.73770  Biso   1.000  N
  N86      1.0000 0.97130  0.62080  0.66200  Biso   1.000  N
  N87      1.0000 0.81150  0.58820  0.68270  Biso   1.000  N
  N88      1.0000 0.94590  0.48020  0.60270  Biso   1.000  N
  N89      1.0000 0.95830  0.26230  0.82100  Biso   1.000  N
  N90      1.0000 0.97130  0.33800  0.95880  Biso   1.000  N
  N91      1.0000 0.81150  0.31730  0.90550  Biso   1.000  N
  N92      1.0000 0.94590  0.39730  0.87750  Biso   1.000  N
  N93      1.0000 0.95830  0.17900  0.44130  Biso   1.000  N
  N94      1.0000 0.97130  0.04120  0.37920  Biso   1.000  N
  N95      1.0000 0.81150  0.09450  0.41180  Biso   1.000  N
  N96      1.0000 0.94590  0.12250  0.51980  Biso   1.000  N
  N97      1.0000 0.25000  0.82940  0.32570  Biso   1.000  N
  N98      1.0000 0.25000  0.49630  0.17060  Biso   1.000  N
  N99      1.0000 0.25000  0.67430  0.50370  Biso   1.000  N
  N100     1.0000 0.75000  0.17060  0.67430  Biso   1.000  N
  N101     1.0000 0.75000  0.50370  0.82940  Biso   1.000  N
  N102     1.0000 0.75000  0.32570  0.49630  Biso   1.000  N
  N103     1.0000 0.75000  0.50370  0.67430  Biso   1.000  N
  N104     1.0000 0.75000  0.32570  0.82940  Biso   1.000  N
  N105     1.0000 0.75000  0.17060  0.49630  Biso   1.000  N
  N106     1.0000 0.25000  0.49630  0.32570  Biso   1.000  N
  N107     1.0000 0.25000  0.67430  0.17060  Biso   1.000  N
  N108     1.0000 0.25000  0.82940  0.50370  Biso   1.000  N
  N109     1.0000 0.36500  0.94570  0.47285  Biso   1.000  N
  N110     1.0000 0.36500  0.52715  0.05430  Biso   1.000  N
  N111     1.0000 0.36500  0.52715  0.47285  Biso   1.000  N
  N112     1.0000 0.86500  0.05430  0.52715  Biso   1.000  N
  N113     1.0000 0.86500  0.47285  0.94570  Biso   1.000  N
  N114     1.0000 0.86500  0.47285  0.52715  Biso   1.000  N
  N115     1.0000 0.63500  0.47285  0.52715  Biso   1.000  N
  N116     1.0000 0.63500  0.47285  0.94570  Biso   1.000  N
  N117     1.0000 0.63500  0.05430  0.52715  Biso   1.000  N
  N118     1.0000 0.13500  0.52715  0.47285  Biso   1.000  N
  N119     1.0000 0.13500  0.52715  0.05430  Biso   1.000  N
  N120     1.0000 0.13500  0.94570  0.47285  Biso   1.000  N
  O1       1.0000 0.31030  0.81120  0.32930  Biso   1.000  O
  O2       1.0000 0.34630  0.96130  0.43810  Biso   1.000  O
  O3       1.0000 0.31030  0.51810  0.18880  Biso   1.000  O
  O4       1.0000 0.34630  0.47680  0.03870  Biso   1.000  O
  O5       1.0000 0.31030  0.67070  0.48190  Biso   1.000  O
  O6       1.0000 0.34630  0.56190  0.52320  Biso   1.000  O
  O7       1.0000 0.81030  0.18880  0.67070  Biso   1.000  O
  O8       1.0000 0.84630  0.03870  0.56190  Biso   1.000  O
  O9       1.0000 0.81030  0.48190  0.81120  Biso   1.000  O
  O10      1.0000 0.84630  0.52320  0.96130  Biso   1.000  O
  O11      1.0000 0.81030  0.32930  0.51810  Biso   1.000  O
  O12      1.0000 0.84630  0.43810  0.47680  Biso   1.000  O
  O13      1.0000 0.68970  0.48190  0.67070  Biso   1.000  O
  O14      1.0000 0.65370  0.52320  0.56190  Biso   1.000  O
  O15      1.0000 0.68970  0.32930  0.81120  Biso   1.000  O
  O16      1.0000 0.65370  0.43810  0.96130  Biso   1.000  O
  O17      1.0000 0.68970  0.18880  0.51810  Biso   1.000  O
  O18      1.0000 0.65370  0.03870  0.47680  Biso   1.000  O
  O19      1.0000 0.18970  0.51810  0.32930  Biso   1.000  O
  O20      1.0000 0.15370  0.47680  0.43810  Biso   1.000  O
  O21      1.0000 0.18970  0.67070  0.18880  Biso   1.000  O
  O22      1.0000 0.15370  0.56190  0.03870  Biso   1.000  O
  O23      1.0000 0.18970  0.81120  0.48190  Biso   1.000  O
  O24      1.0000 0.15370  0.96130  0.52320  Biso   1.000  O
  O25      1.0000 0.68970  0.18880  0.67070  Biso   1.000  O
  O26      1.0000 0.65370  0.03870  0.56190  Biso   1.000  O
  O27      1.0000 0.68970  0.48190  0.81120  Biso   1.000  O
  O28      1.0000 0.65370  0.52320  0.96130  Biso   1.000  O
  O29      1.0000 0.68970  0.32930  0.51810  Biso   1.000  O
  O30      1.0000 0.65370  0.43810  0.47680  Biso   1.000  O
  O31      1.0000 0.18970  0.81120  0.32930  Biso   1.000  O
  O32      1.0000 0.15370  0.96130  0.43810  Biso   1.000  O
  O33      1.0000 0.18970  0.51810  0.18880  Biso   1.000  O
  O34      1.0000 0.15370  0.47680  0.03870  Biso   1.000  O
  O35      1.0000 0.18970  0.67070  0.48190  Biso   1.000  O
  O36      1.0000 0.15370  0.56190  0.52320  Biso   1.000  O
  O37      1.0000 0.31030  0.51810  0.32930  Biso   1.000  O
  O38      1.0000 0.34630  0.47680  0.43810  Biso   1.000  O
  O39      1.0000 0.31030  0.67070  0.18880  Biso   1.000  O
  O40      1.0000 0.34630  0.56190  0.03870  Biso   1.000  O
  O41      1.0000 0.31030  0.81120  0.48190  Biso   1.000  O
  O42      1.0000 0.34630  0.96130  0.52320  Biso   1.000  O
  O43      1.0000 0.81030  0.48190  0.67070  Biso   1.000  O
  O44      1.0000 0.84630  0.52320  0.56190  Biso   1.000  O
  O45      1.0000 0.81030  0.32930  0.81120  Biso   1.000  O
  O46      1.0000 0.84630  0.43810  0.96130  Biso   1.000  O
  O47      1.0000 0.81030  0.18880  0.51810  Biso   1.000  O
  O48      1.0000 0.84630  0.03870  0.47680  Biso   1.000  O
