data_image0
_cell_length_a       13.356
_cell_length_b       19.4413
_cell_length_c       19.4413
_cell_angle_alpha    102.158
_cell_angle_beta     93.8474
_cell_angle_gamma    93.8474

_symmetry_space_group_name_H-M    P 1
_symmetry_int_tables_number       1

loop_
  _symmetry_equiv_pos_as_xyz
  'x, y, z'

loop_
  _atom_site_label
  _atom_site_occupancy
  _atom_site_fract_x
  _atom_site_fract_y
  _atom_site_fract_z
  _atom_site_thermal_displace_type
  _atom_site_B_iso_or_equiv
  _atom_site_type_symbol
  Gd1      1.0000 0.35247  0.98479  0.46126  Biso   1.000  Gd
  Gd2      1.0000 0.14753  0.53874  0.01521  Biso   1.000  Gd
  Gd3      1.0000 0.64753  0.01521  0.53874  Biso   1.000  Gd
  Gd4      1.0000 0.85247  0.46126  0.98479  Biso   1.000  Gd
  H1       1.0000 0.29590  0.83070  0.59810  Biso   1.000  H
  H2       1.0000 0.57010  0.88360  0.69640  Biso   1.000  H
  H3       1.0000 0.34020  0.57340  0.81180  Biso   1.000  H
  H4       1.0000 0.28470  0.74950  0.94370  Biso   1.000  H
  H5       1.0000 0.32230  0.14660  0.56980  Biso   1.000  H
  H6       1.0000 0.50640  0.16330  0.74310  Biso   1.000  H
  H7       1.0000 0.25170  0.95990  0.61930  Biso   1.000  H
  H8       1.0000 0.13820  0.96630  0.71630  Biso   1.000  H
  H9       1.0000 0.02310  0.95770  0.69130  Biso   1.000  H
  H10      1.0000 0.09270  0.89860  0.66120  Biso   1.000  H
  H11      1.0000 0.01510  0.05970  0.63270  Biso   1.000  H
  H12      1.0000 0.04070  0.03440  0.55420  Biso   1.000  H
  H13      1.0000 0.96540  0.98760  0.58720  Biso   1.000  H
  H14      1.0000 0.24110  0.84310  0.34570  Biso   1.000  H
  H15      1.0000 0.12550  0.70690  0.30070  Biso   1.000  H
  H16      1.0000 0.21980  0.69710  0.34910  Biso   1.000  H
  H17      1.0000 0.11120  0.67640  0.36820  Biso   1.000  H
  H18      1.0000 0.17690  0.76980  0.49020  Biso   1.000  H
  H19      1.0000 0.06780  0.79190  0.47650  Biso   1.000  H
  H20      1.0000 0.09300  0.71400  0.44720  Biso   1.000  H
  H21      1.0000 0.20410  0.40190  0.16930  Biso   1.000  H
  H22      1.0000 0.92990  0.30360  0.11640  Biso   1.000  H
  H23      1.0000 0.15980  0.18820  0.42660  Biso   1.000  H
  H24      1.0000 0.21530  0.05630  0.25050  Biso   1.000  H
  H25      1.0000 0.17770  0.43020  0.85340  Biso   1.000  H
  H26      1.0000 0.99360  0.25690  0.83670  Biso   1.000  H
  H27      1.0000 0.24830  0.38070  0.04010  Biso   1.000  H
  H28      1.0000 0.36180  0.28370  0.03370  Biso   1.000  H
  H29      1.0000 0.47690  0.30870  0.04230  Biso   1.000  H
  H30      1.0000 0.40730  0.33880  0.10140  Biso   1.000  H
  H31      1.0000 0.48490  0.36730  0.94030  Biso   1.000  H
  H32      1.0000 0.45930  0.44580  0.96560  Biso   1.000  H
  H33      1.0000 0.53460  0.41280  0.01240  Biso   1.000  H
  H34      1.0000 0.25890  0.65430  0.15690  Biso   1.000  H
  H35      1.0000 0.37450  0.69930  0.29310  Biso   1.000  H
  H36      1.0000 0.28020  0.65090  0.30290  Biso   1.000  H
  H37      1.0000 0.38880  0.63180  0.32360  Biso   1.000  H
  H38      1.0000 0.32310  0.50980  0.23020  Biso   1.000  H
  H39      1.0000 0.43220  0.52350  0.20810  Biso   1.000  H
  H40      1.0000 0.40700  0.55280  0.28600  Biso   1.000  H
  H41      1.0000 0.70410  0.16930  0.40190  Biso   1.000  H
  H42      1.0000 0.42990  0.11640  0.30360  Biso   1.000  H
  H43      1.0000 0.65980  0.42660  0.18820  Biso   1.000  H
  H44      1.0000 0.71530  0.25050  0.05630  Biso   1.000  H
  H45      1.0000 0.67770  0.85340  0.43020  Biso   1.000  H
  H46      1.0000 0.49360  0.83670  0.25690  Biso   1.000  H
  H47      1.0000 0.74830  0.04010  0.38070  Biso   1.000  H
  H48      1.0000 0.86180  0.03370  0.28370  Biso   1.000  H
  H49      1.0000 0.97690  0.04230  0.30870  Biso   1.000  H
  H50      1.0000 0.90730  0.10140  0.33880  Biso   1.000  H
  H51      1.0000 0.98490  0.94030  0.36730  Biso   1.000  H
  H52      1.0000 0.95930  0.96560  0.44580  Biso   1.000  H
  H53      1.0000 0.03460  0.01240  0.41280  Biso   1.000  H
  H54      1.0000 0.75890  0.15690  0.65430  Biso   1.000  H
  H55      1.0000 0.87450  0.29310  0.69930  Biso   1.000  H
  H56      1.0000 0.78020  0.30290  0.65090  Biso   1.000  H
  H57      1.0000 0.88880  0.32360  0.63180  Biso   1.000  H
  H58      1.0000 0.82310  0.23020  0.50980  Biso   1.000  H
  H59      1.0000 0.93220  0.20810  0.52350  Biso   1.000  H
  H60      1.0000 0.90700  0.28600  0.55280  Biso   1.000  H
  H61      1.0000 0.79590  0.59810  0.83070  Biso   1.000  H
  H62      1.0000 0.07010  0.69640  0.88360  Biso   1.000  H
  H63      1.0000 0.84020  0.81180  0.57340  Biso   1.000  H
  H64      1.0000 0.78470  0.94370  0.74950  Biso   1.000  H
  H65      1.0000 0.82230  0.56980  0.14660  Biso   1.000  H
  H66      1.0000 0.00640  0.74310  0.16330  Biso   1.000  H
  H67      1.0000 0.75170  0.61930  0.95990  Biso   1.000  H
  H68      1.0000 0.63820  0.71630  0.96630  Biso   1.000  H
  H69      1.0000 0.52310  0.69130  0.95770  Biso   1.000  H
  H70      1.0000 0.59270  0.66120  0.89860  Biso   1.000  H
  H71      1.0000 0.51510  0.63270  0.05970  Biso   1.000  H
  H72      1.0000 0.54070  0.55420  0.03440  Biso   1.000  H
  H73      1.0000 0.46540  0.58720  0.98760  Biso   1.000  H
  H74      1.0000 0.74110  0.34570  0.84310  Biso   1.000  H
  H75      1.0000 0.62550  0.30070  0.70690  Biso   1.000  H
  H76      1.0000 0.71980  0.34910  0.69710  Biso   1.000  H
  H77      1.0000 0.61120  0.36820  0.67640  Biso   1.000  H
  H78      1.0000 0.67690  0.49020  0.76980  Biso   1.000  H
  H79      1.0000 0.56780  0.47650  0.79190  Biso   1.000  H
  H80      1.0000 0.59300  0.44720  0.71400  Biso   1.000  H
  C1       1.0000 0.45810  0.90880  0.58520  Biso   1.000  C
  C2       1.0000 0.43750  0.86190  0.63670  Biso   1.000  C
  C3       1.0000 0.34440  0.82640  0.63320  Biso   1.000  C
  C4       1.0000 0.32040  0.78550  0.67890  Biso   1.000  C
  C5       1.0000 0.38860  0.77680  0.73280  Biso   1.000  C
  C6       1.0000 0.48040  0.81460  0.73720  Biso   1.000  C
  C7       1.0000 0.50740  0.85830  0.69070  Biso   1.000  C
  C8       1.0000 0.36480  0.73350  0.78710  Biso   1.000  C
  C9       1.0000 0.36780  0.66090  0.77570  Biso   1.000  C
  C10      1.0000 0.33750  0.62210  0.82210  Biso   1.000  C
  C11      1.0000 0.30300  0.65550  0.88410  Biso   1.000  C
  C12      1.0000 0.30380  0.72660  0.90020  Biso   1.000  C
  C13      1.0000 0.33320  0.76560  0.85180  Biso   1.000  C
  C14      1.0000 0.26260  0.61200  0.93440  Biso   1.000  C
  C15      1.0000 0.49540  0.09890  0.60850  Biso   1.000  C
  C16      1.0000 0.42050  0.14180  0.65060  Biso   1.000  C
  C17      1.0000 0.33570  0.16080  0.61860  Biso   1.000  C
  C18      1.0000 0.26940  0.20130  0.65830  Biso   1.000  C
  C19      1.0000 0.28480  0.22310  0.73070  Biso   1.000  C
  C20      1.0000 0.37600  0.20790  0.76230  Biso   1.000  C
  C21      1.0000 0.44420  0.16980  0.72200  Biso   1.000  C
  C22      1.0000 0.20540  0.98270  0.59610  Biso   1.000  C
  C23      1.0000 0.08900  0.94860  0.67700  Biso   1.000  C
  C24      1.0000 0.02500  0.01930  0.59670  Biso   1.000  C
  C25      1.0000 0.21100  0.84180  0.38720  Biso   1.000  C
  C26      1.0000 0.15100  0.70900  0.34900  Biso   1.000  C
  C27      1.0000 0.11900  0.76280  0.45700  Biso   1.000  C
  C28      1.0000 0.04190  0.41480  0.09120  Biso   1.000  C
  C29      1.0000 0.06250  0.36330  0.13810  Biso   1.000  C
  C30      1.0000 0.15560  0.36680  0.17360  Biso   1.000  C
  C31      1.0000 0.17960  0.32110  0.21450  Biso   1.000  C
  C32      1.0000 0.11140  0.26720  0.22320  Biso   1.000  C
  C33      1.0000 0.01960  0.26280  0.18540  Biso   1.000  C
  C34      1.0000 0.99260  0.30930  0.14170  Biso   1.000  C
  C35      1.0000 0.13520  0.21290  0.26650  Biso   1.000  C
  C36      1.0000 0.13220  0.22430  0.33910  Biso   1.000  C
  C37      1.0000 0.16250  0.17790  0.37790  Biso   1.000  C
  C38      1.0000 0.19700  0.11590  0.34450  Biso   1.000  C
  C39      1.0000 0.19620  0.09980  0.27340  Biso   1.000  C
  C40      1.0000 0.16680  0.14820  0.23440  Biso   1.000  C
  C41      1.0000 0.23740  0.06560  0.38800  Biso   1.000  C
  C42      1.0000 0.00460  0.39150  0.90110  Biso   1.000  C
  C43      1.0000 0.07950  0.34940  0.85820  Biso   1.000  C
  C44      1.0000 0.16430  0.38140  0.83920  Biso   1.000  C
  C45      1.0000 0.23060  0.34170  0.79870  Biso   1.000  C
  C46      1.0000 0.21520  0.26930  0.77690  Biso   1.000  C
  C47      1.0000 0.12400  0.23770  0.79210  Biso   1.000  C
  C48      1.0000 0.05580  0.27800  0.83020  Biso   1.000  C
  C49      1.0000 0.29460  0.40390  0.01730  Biso   1.000  C
  C50      1.0000 0.41100  0.32300  0.05140  Biso   1.000  C
  C51      1.0000 0.47500  0.40330  0.98070  Biso   1.000  C
  C52      1.0000 0.28900  0.61280  0.15820  Biso   1.000  C
  C53      1.0000 0.34900  0.65100  0.29100  Biso   1.000  C
  C54      1.0000 0.38100  0.54300  0.23720  Biso   1.000  C
  C55      1.0000 0.54190  0.09120  0.41480  Biso   1.000  C
  C56      1.0000 0.56250  0.13810  0.36330  Biso   1.000  C
  C57      1.0000 0.65560  0.17360  0.36680  Biso   1.000  C
  C58      1.0000 0.67960  0.21450  0.32110  Biso   1.000  C
  C59      1.0000 0.61140  0.22320  0.26720  Biso   1.000  C
  C60      1.0000 0.51960  0.18540  0.26280  Biso   1.000  C
  C61      1.0000 0.49260  0.14170  0.30930  Biso   1.000  C
  C62      1.0000 0.63520  0.26650  0.21290  Biso   1.000  C
  C63      1.0000 0.63220  0.33910  0.22430  Biso   1.000  C
  C64      1.0000 0.66250  0.37790  0.17790  Biso   1.000  C
  C65      1.0000 0.69700  0.34450  0.11590  Biso   1.000  C
  C66      1.0000 0.69620  0.27340  0.09980  Biso   1.000  C
  C67      1.0000 0.66680  0.23440  0.14820  Biso   1.000  C
  C68      1.0000 0.73740  0.38800  0.06560  Biso   1.000  C
  C69      1.0000 0.50460  0.90110  0.39150  Biso   1.000  C
  C70      1.0000 0.57950  0.85820  0.34940  Biso   1.000  C
  C71      1.0000 0.66430  0.83920  0.38140  Biso   1.000  C
  C72      1.0000 0.73060  0.79870  0.34170  Biso   1.000  C
  C73      1.0000 0.71520  0.77690  0.26930  Biso   1.000  C
  C74      1.0000 0.62400  0.79210  0.23770  Biso   1.000  C
  C75      1.0000 0.55580  0.83020  0.27800  Biso   1.000  C
  C76      1.0000 0.79460  0.01730  0.40390  Biso   1.000  C
  C77      1.0000 0.91100  0.05140  0.32300  Biso   1.000  C
  C78      1.0000 0.97500  0.98070  0.40330  Biso   1.000  C
  C79      1.0000 0.78900  0.15820  0.61280  Biso   1.000  C
  C80      1.0000 0.84900  0.29100  0.65100  Biso   1.000  C
  C81      1.0000 0.88100  0.23720  0.54300  Biso   1.000  C
  C82      1.0000 0.95810  0.58520  0.90880  Biso   1.000  C
  C83      1.0000 0.93750  0.63670  0.86190  Biso   1.000  C
  C84      1.0000 0.84440  0.63320  0.82640  Biso   1.000  C
  C85      1.0000 0.82040  0.67890  0.78550  Biso   1.000  C
  C86      1.0000 0.88860  0.73280  0.77680  Biso   1.000  C
  C87      1.0000 0.98040  0.73720  0.81460  Biso   1.000  C
  C88      1.0000 0.00740  0.69070  0.85830  Biso   1.000  C
  C89      1.0000 0.86480  0.78710  0.73350  Biso   1.000  C
  C90      1.0000 0.86780  0.77570  0.66090  Biso   1.000  C
  C91      1.0000 0.83750  0.82210  0.62210  Biso   1.000  C
  C92      1.0000 0.80300  0.88410  0.65550  Biso   1.000  C
  C93      1.0000 0.80380  0.90020  0.72660  Biso   1.000  C
  C94      1.0000 0.83320  0.85180  0.76560  Biso   1.000  C
  C95      1.0000 0.76260  0.93440  0.61200  Biso   1.000  C
  C96      1.0000 0.99540  0.60850  0.09890  Biso   1.000  C
  C97      1.0000 0.92050  0.65060  0.14180  Biso   1.000  C
  C98      1.0000 0.83570  0.61860  0.16080  Biso   1.000  C
  C99      1.0000 0.76940  0.65830  0.20130  Biso   1.000  C
  C100     1.0000 0.78480  0.73070  0.22310  Biso   1.000  C
  C101     1.0000 0.87600  0.76230  0.20790  Biso   1.000  C
  C102     1.0000 0.94420  0.72200  0.16980  Biso   1.000  C
  C103     1.0000 0.70540  0.59610  0.98270  Biso   1.000  C
  C104     1.0000 0.58900  0.67700  0.94860  Biso   1.000  C
  C105     1.0000 0.52500  0.59670  0.01930  Biso   1.000  C
  C106     1.0000 0.71100  0.38720  0.84180  Biso   1.000  C
  C107     1.0000 0.65100  0.34900  0.70900  Biso   1.000  C
  C108     1.0000 0.61900  0.45700  0.76280  Biso   1.000  C
  N1       1.0000 0.22050  0.75210  0.67190  Biso   1.000  N
  N2       1.0000 0.55730  0.81450  0.79590  Biso   1.000  N
  N3       1.0000 0.40710  0.62280  0.71000  Biso   1.000  N
  N4       1.0000 0.32840  0.84140  0.87040  Biso   1.000  N
  N5       1.0000 0.18370  0.21980  0.62260  Biso   1.000  N
  N6       1.0000 0.39970  0.22890  0.83690  Biso   1.000  N
  N7       1.0000 0.10950  0.98300  0.62060  Biso   1.000  N
  N8       1.0000 0.14670  0.78200  0.39100  Biso   1.000  N
  N9       1.0000 0.27950  0.32810  0.24790  Biso   1.000  N
  N10      1.0000 0.94270  0.20410  0.18550  Biso   1.000  N
  N11      1.0000 0.09290  0.29000  0.37720  Biso   1.000  N
  N12      1.0000 0.17160  0.12960  0.15860  Biso   1.000  N
  N13      1.0000 0.31630  0.37740  0.78020  Biso   1.000  N
  N14      1.0000 0.10030  0.16310  0.77110  Biso   1.000  N
  N15      1.0000 0.39050  0.37940  0.01700  Biso   1.000  N
  N16      1.0000 0.35330  0.60900  0.21800  Biso   1.000  N
  N17      1.0000 0.77950  0.24790  0.32810  Biso   1.000  N
  N18      1.0000 0.44270  0.18550  0.20410  Biso   1.000  N
  N19      1.0000 0.59290  0.37720  0.29000  Biso   1.000  N
  N20      1.0000 0.67160  0.15860  0.12960  Biso   1.000  N
  N21      1.0000 0.81630  0.78020  0.37740  Biso   1.000  N
  N22      1.0000 0.60030  0.77110  0.16310  Biso   1.000  N
  N23      1.0000 0.89050  0.01700  0.37940  Biso   1.000  N
  N24      1.0000 0.85330  0.21800  0.60900  Biso   1.000  N
  N25      1.0000 0.72050  0.67190  0.75210  Biso   1.000  N
  N26      1.0000 0.05730  0.79590  0.81450  Biso   1.000  N
  N27      1.0000 0.90710  0.71000  0.62280  Biso   1.000  N
  N28      1.0000 0.82840  0.87040  0.84140  Biso   1.000  N
  N29      1.0000 0.68370  0.62260  0.21980  Biso   1.000  N
  N30      1.0000 0.89970  0.83690  0.22890  Biso   1.000  N
  N31      1.0000 0.60950  0.62060  0.98300  Biso   1.000  N
  N32      1.0000 0.64670  0.39100  0.78200  Biso   1.000  N
  O1       1.0000 0.39160  0.91030  0.53890  Biso   1.000  O
  O2       1.0000 0.54450  0.94320  0.59760  Biso   1.000  O
  O3       1.0000 0.23880  0.54750  0.90970  Biso   1.000  O
  O4       1.0000 0.24880  0.64180  0.99560  Biso   1.000  O
  O5       1.0000 0.15710  0.76800  0.63380  Biso   1.000  O
  O6       1.0000 0.19620  0.71110  0.70630  Biso   1.000  O
  O7       1.0000 0.61920  0.87060  0.81420  Biso   1.000  O
  O8       1.0000 0.55540  0.77460  0.83060  Biso   1.000  O
  O9       1.0000 0.43760  0.65550  0.66890  Biso   1.000  O
  O10      1.0000 0.42040  0.56290  0.70690  Biso   1.000  O
  O11      1.0000 0.31450  0.87440  0.82420  Biso   1.000  O
  O12      1.0000 0.33170  0.87020  0.93420  Biso   1.000  O
  O13      1.0000 0.45970  0.05970  0.55090  Biso   1.000  O
  O14      1.0000 0.58220  0.10250  0.63250  Biso   1.000  O
  O15      1.0000 0.11000  0.23620  0.64900  Biso   1.000  O
  O16      1.0000 0.15900  0.19910  0.56090  Biso   1.000  O
  O17      1.0000 0.33820  0.23930  0.87790  Biso   1.000  O
  O18      1.0000 0.48990  0.23940  0.85640  Biso   1.000  O
  O19      1.0000 0.23560  0.00690  0.55070  Biso   1.000  O
  O20      1.0000 0.22750  0.89030  0.43670  Biso   1.000  O
  O21      1.0000 0.10840  0.46110  0.08970  Biso   1.000  O
  O22      1.0000 0.95550  0.40240  0.05680  Biso   1.000  O
  O23      1.0000 0.26120  0.09030  0.45250  Biso   1.000  O
  O24      1.0000 0.25120  0.00440  0.35820  Biso   1.000  O
  O25      1.0000 0.34290  0.36620  0.23200  Biso   1.000  O
  O26      1.0000 0.30380  0.29370  0.28890  Biso   1.000  O
  O27      1.0000 0.88080  0.18580  0.12940  Biso   1.000  O
  O28      1.0000 0.94460  0.16940  0.22540  Biso   1.000  O
  O29      1.0000 0.06240  0.33110  0.34450  Biso   1.000  O
  O30      1.0000 0.07960  0.29310  0.43710  Biso   1.000  O
  O31      1.0000 0.18550  0.17580  0.12560  Biso   1.000  O
  O32      1.0000 0.16830  0.06580  0.12980  Biso   1.000  O
  O33      1.0000 0.04030  0.44910  0.94030  Biso   1.000  O
  O34      1.0000 0.91780  0.36750  0.89750  Biso   1.000  O
  O35      1.0000 0.39000  0.35100  0.76380  Biso   1.000  O
  O36      1.0000 0.34100  0.43910  0.80090  Biso   1.000  O
  O37      1.0000 0.16180  0.12210  0.76070  Biso   1.000  O
  O38      1.0000 0.01010  0.14360  0.76060  Biso   1.000  O
  O39      1.0000 0.26440  0.44930  0.99310  Biso   1.000  O
  O40      1.0000 0.27250  0.56330  0.10970  Biso   1.000  O
  O41      1.0000 0.60840  0.08970  0.46110  Biso   1.000  O
  O42      1.0000 0.45550  0.05680  0.40240  Biso   1.000  O
  O43      1.0000 0.76120  0.45250  0.09030  Biso   1.000  O
  O44      1.0000 0.75120  0.35820  0.00440  Biso   1.000  O
  O45      1.0000 0.84290  0.23200  0.36620  Biso   1.000  O
  O46      1.0000 0.80380  0.28890  0.29370  Biso   1.000  O
  O47      1.0000 0.38080  0.12940  0.18580  Biso   1.000  O
  O48      1.0000 0.44460  0.22540  0.16940  Biso   1.000  O
  O49      1.0000 0.56240  0.34450  0.33110  Biso   1.000  O
  O50      1.0000 0.57960  0.43710  0.29310  Biso   1.000  O
  O51      1.0000 0.68550  0.12560  0.17580  Biso   1.000  O
  O52      1.0000 0.66830  0.12980  0.06580  Biso   1.000  O
  O53      1.0000 0.54030  0.94030  0.44910  Biso   1.000  O
  O54      1.0000 0.41780  0.89750  0.36750  Biso   1.000  O
  O55      1.0000 0.89000  0.76380  0.35100  Biso   1.000  O
  O56      1.0000 0.84100  0.80090  0.43910  Biso   1.000  O
  O57      1.0000 0.66180  0.76070  0.12210  Biso   1.000  O
  O58      1.0000 0.51010  0.76060  0.14360  Biso   1.000  O
  O59      1.0000 0.76440  0.99310  0.44930  Biso   1.000  O
  O60      1.0000 0.77250  0.10970  0.56330  Biso   1.000  O
  O61      1.0000 0.89160  0.53890  0.91030  Biso   1.000  O
  O62      1.0000 0.04450  0.59760  0.94320  Biso   1.000  O
  O63      1.0000 0.73880  0.90970  0.54750  Biso   1.000  O
  O64      1.0000 0.74880  0.99560  0.64180  Biso   1.000  O
  O65      1.0000 0.65710  0.63380  0.76800  Biso   1.000  O
  O66      1.0000 0.69620  0.70630  0.71110  Biso   1.000  O
  O67      1.0000 0.11920  0.81420  0.87060  Biso   1.000  O
  O68      1.0000 0.05540  0.83060  0.77460  Biso   1.000  O
  O69      1.0000 0.93760  0.66890  0.65550  Biso   1.000  O
  O70      1.0000 0.92040  0.70690  0.56290  Biso   1.000  O
  O71      1.0000 0.81450  0.82420  0.87440  Biso   1.000  O
  O72      1.0000 0.83170  0.93420  0.87020  Biso   1.000  O
  O73      1.0000 0.95970  0.55090  0.05970  Biso   1.000  O
  O74      1.0000 0.08220  0.63250  0.10250  Biso   1.000  O
  O75      1.0000 0.61000  0.64900  0.23620  Biso   1.000  O
  O76      1.0000 0.65900  0.56090  0.19910  Biso   1.000  O
  O77      1.0000 0.83820  0.87790  0.23930  Biso   1.000  O
  O78      1.0000 0.98990  0.85640  0.23940  Biso   1.000  O
  O79      1.0000 0.73560  0.55070  0.00690  Biso   1.000  O
  O80      1.0000 0.72750  0.43670  0.89030  Biso   1.000  O
