data_image0
_cell_length_a       13.103
_cell_length_b       23.434
_cell_length_c       30.424
_cell_angle_alpha    90
_cell_angle_beta     90
_cell_angle_gamma    101.392

_symmetry_space_group_name_H-M    P 1
_symmetry_int_tables_number       1

loop_
  _symmetry_equiv_pos_as_xyz
  'x, y, z'

loop_
  _atom_site_label
  _atom_site_occupancy
  _atom_site_fract_x
  _atom_site_fract_y
  _atom_site_fract_z
  _atom_site_thermal_displace_type
  _atom_site_B_iso_or_equiv
  _atom_site_type_symbol
  Gd1      1.0000 0.85047  0.72851  0.76933  Biso   1.000  Gd
  Gd2      1.0000 0.15218  0.79659  0.74169  Biso   1.000  Gd
  Gd3      1.0000 0.64953  0.77149  0.26933  Biso   1.000  Gd
  Gd4      1.0000 0.34782  0.70341  0.24169  Biso   1.000  Gd
  Gd5      1.0000 0.14953  0.27149  0.23067  Biso   1.000  Gd
  Gd6      1.0000 0.84782  0.20341  0.25831  Biso   1.000  Gd
  Gd7      1.0000 0.35047  0.22851  0.73067  Biso   1.000  Gd
  Gd8      1.0000 0.65218  0.29659  0.75831  Biso   1.000  Gd
  H1       1.0000 0.18980  0.65590  0.72890  Biso   1.000  H
  H2       1.0000 0.96840  0.54620  0.79490  Biso   1.000  H
  H3       1.0000 0.48580  0.46140  0.80800  Biso   1.000  H
  H4       1.0000 0.31940  0.36720  0.71310  Biso   1.000  H
  H5       1.0000 0.07200  0.78470  0.59870  Biso   1.000  H
  H6       1.0000 0.78810  0.69180  0.62460  Biso   1.000  H
  H7       1.0000 0.82540  0.67810  0.38570  Biso   1.000  H
  H8       1.0000 0.79660  0.84110  0.41360  Biso   1.000  H
  H9       1.0000 0.93080  0.72800  0.91250  Biso   1.000  H
  H10      1.0000 0.22320  0.80840  0.88870  Biso   1.000  H
  H11      1.0000 0.18760  0.64780  0.09650  Biso   1.000  H
  H12      1.0000 0.19530  0.81510  0.12630  Biso   1.000  H
  H13      1.0000 0.69200  0.59190  0.76820  Biso   1.000  H
  H14      1.0000 0.62970  0.64890  0.67210  Biso   1.000  H
  H15      1.0000 0.53830  0.59640  0.66220  Biso   1.000  H
  H16      1.0000 0.65110  0.59520  0.64550  Biso   1.000  H
  H17      1.0000 0.62550  0.50320  0.73980  Biso   1.000  H
  H18      1.0000 0.64690  0.50080  0.68920  Biso   1.000  H
  H19      1.0000 0.53480  0.50310  0.70620  Biso   1.000  H
  H20      1.0000 0.62220  0.75110  0.72130  Biso   1.000  H
  H21      1.0000 0.72900  0.87220  0.64780  Biso   1.000  H
  H22      1.0000 0.71820  0.82240  0.61270  Biso   1.000  H
  H23      1.0000 0.79550  0.82370  0.65220  Biso   1.000  H
  H24      1.0000 0.49750  0.76810  0.67150  Biso   1.000  H
  H25      1.0000 0.54900  0.75940  0.62620  Biso   1.000  H
  H26      1.0000 0.53380  0.82150  0.64030  Biso   1.000  H
  H27      1.0000 0.29330  0.95000  0.75030  Biso   1.000  H
  H28      1.0000 0.33470  0.92740  0.87150  Biso   1.000  H
  H29      1.0000 0.44840  0.93100  0.85410  Biso   1.000  H
  H30      1.0000 0.35960  0.87940  0.83960  Biso   1.000  H
  H31      1.0000 0.37040  0.03300  0.78270  Biso   1.000  H
  H32      1.0000 0.45720  0.02770  0.81700  Biso   1.000  H
  H33      1.0000 0.34540  0.03230  0.83310  Biso   1.000  H
  H34      1.0000 0.24130  0.71210  0.82350  Biso   1.000  H
  H35      1.0000 0.33440  0.68430  0.87910  Biso   1.000  H
  H36      1.0000 0.43640  0.73000  0.88910  Biso   1.000  H
  H37      1.0000 0.44240  0.67290  0.86320  Biso   1.000  H
  H38      1.0000 0.46490  0.78660  0.78280  Biso   1.000  H
  H39      1.0000 0.52550  0.73810  0.79680  Biso   1.000  H
  H40      1.0000 0.52120  0.79030  0.82850  Biso   1.000  H
  H41      1.0000 0.31020  0.84410  0.22890  Biso   1.000  H
  H42      1.0000 0.53160  0.95380  0.29490  Biso   1.000  H
  H43      1.0000 0.01420  0.03860  0.30800  Biso   1.000  H
  H44      1.0000 0.18060  0.13280  0.21310  Biso   1.000  H
  H45      1.0000 0.42800  0.71530  0.09870  Biso   1.000  H
  H46      1.0000 0.71190  0.80820  0.12460  Biso   1.000  H
  H47      1.0000 0.67460  0.82190  0.88570  Biso   1.000  H
  H48      1.0000 0.70340  0.65890  0.91360  Biso   1.000  H
  H49      1.0000 0.56920  0.77200  0.41250  Biso   1.000  H
  H50      1.0000 0.27680  0.69160  0.38870  Biso   1.000  H
  H51      1.0000 0.31240  0.85220  0.59650  Biso   1.000  H
  H52      1.0000 0.30470  0.68490  0.62630  Biso   1.000  H
  H53      1.0000 0.80800  0.90810  0.26820  Biso   1.000  H
  H54      1.0000 0.87030  0.85110  0.17210  Biso   1.000  H
  H55      1.0000 0.96170  0.90360  0.16220  Biso   1.000  H
  H56      1.0000 0.84890  0.90480  0.14550  Biso   1.000  H
  H57      1.0000 0.87450  0.99680  0.23980  Biso   1.000  H
  H58      1.0000 0.85310  0.99920  0.18920  Biso   1.000  H
  H59      1.0000 0.96520  0.99690  0.20620  Biso   1.000  H
  H60      1.0000 0.87780  0.74890  0.22130  Biso   1.000  H
  H61      1.0000 0.77100  0.62780  0.14780  Biso   1.000  H
  H62      1.0000 0.78180  0.67760  0.11270  Biso   1.000  H
  H63      1.0000 0.70450  0.67630  0.15220  Biso   1.000  H
  H64      1.0000 0.00250  0.73190  0.17150  Biso   1.000  H
  H65      1.0000 0.95100  0.74060  0.12620  Biso   1.000  H
  H66      1.0000 0.96620  0.67850  0.14030  Biso   1.000  H
  H67      1.0000 0.20670  0.55000  0.25030  Biso   1.000  H
  H68      1.0000 0.16530  0.57260  0.37150  Biso   1.000  H
  H69      1.0000 0.05160  0.56900  0.35410  Biso   1.000  H
  H70      1.0000 0.14040  0.62060  0.33960  Biso   1.000  H
  H71      1.0000 0.12960  0.46700  0.28270  Biso   1.000  H
  H72      1.0000 0.04280  0.47230  0.31700  Biso   1.000  H
  H73      1.0000 0.15460  0.46770  0.33310  Biso   1.000  H
  H74      1.0000 0.25870  0.78790  0.32350  Biso   1.000  H
  H75      1.0000 0.16560  0.81570  0.37910  Biso   1.000  H
  H76      1.0000 0.06360  0.77000  0.38910  Biso   1.000  H
  H77      1.0000 0.05760  0.82710  0.36320  Biso   1.000  H
  H78      1.0000 0.03510  0.71340  0.28280  Biso   1.000  H
  H79      1.0000 0.97450  0.76190  0.29680  Biso   1.000  H
  H80      1.0000 0.97880  0.70970  0.32850  Biso   1.000  H
  H81      1.0000 0.81020  0.34410  0.27110  Biso   1.000  H
  H82      1.0000 0.03160  0.45380  0.20510  Biso   1.000  H
  H83      1.0000 0.51420  0.53860  0.19200  Biso   1.000  H
  H84      1.0000 0.68060  0.63280  0.28690  Biso   1.000  H
  H85      1.0000 0.92800  0.21530  0.40130  Biso   1.000  H
  H86      1.0000 0.21190  0.30820  0.37540  Biso   1.000  H
  H87      1.0000 0.17460  0.32190  0.61430  Biso   1.000  H
  H88      1.0000 0.20340  0.15890  0.58640  Biso   1.000  H
  H89      1.0000 0.06920  0.27200  0.08750  Biso   1.000  H
  H90      1.0000 0.77680  0.19160  0.11130  Biso   1.000  H
  H91      1.0000 0.81240  0.35220  0.90350  Biso   1.000  H
  H92      1.0000 0.80470  0.18490  0.87370  Biso   1.000  H
  H93      1.0000 0.30800  0.40810  0.23180  Biso   1.000  H
  H94      1.0000 0.37030  0.35110  0.32790  Biso   1.000  H
  H95      1.0000 0.46170  0.40360  0.33780  Biso   1.000  H
  H96      1.0000 0.34890  0.40480  0.35450  Biso   1.000  H
  H97      1.0000 0.37450  0.49680  0.26020  Biso   1.000  H
  H98      1.0000 0.35310  0.49920  0.31080  Biso   1.000  H
  H99      1.0000 0.46520  0.49690  0.29380  Biso   1.000  H
  H100     1.0000 0.37780  0.24890  0.27870  Biso   1.000  H
  H101     1.0000 0.27100  0.12780  0.35220  Biso   1.000  H
  H102     1.0000 0.28180  0.17760  0.38730  Biso   1.000  H
  H103     1.0000 0.20450  0.17630  0.34780  Biso   1.000  H
  H104     1.0000 0.50250  0.23190  0.32850  Biso   1.000  H
  H105     1.0000 0.45100  0.24060  0.37380  Biso   1.000  H
  H106     1.0000 0.46620  0.17850  0.35970  Biso   1.000  H
  H107     1.0000 0.70670  0.05000  0.24970  Biso   1.000  H
  H108     1.0000 0.66530  0.07260  0.12850  Biso   1.000  H
  H109     1.0000 0.55160  0.06900  0.14590  Biso   1.000  H
  H110     1.0000 0.64040  0.12060  0.16040  Biso   1.000  H
  H111     1.0000 0.62960  0.96700  0.21730  Biso   1.000  H
  H112     1.0000 0.54280  0.97230  0.18300  Biso   1.000  H
  H113     1.0000 0.65460  0.96770  0.16690  Biso   1.000  H
  H114     1.0000 0.75870  0.28790  0.17650  Biso   1.000  H
  H115     1.0000 0.66560  0.31570  0.12090  Biso   1.000  H
  H116     1.0000 0.56360  0.27000  0.11090  Biso   1.000  H
  H117     1.0000 0.55760  0.32710  0.13680  Biso   1.000  H
  H118     1.0000 0.53510  0.21340  0.21720  Biso   1.000  H
  H119     1.0000 0.47450  0.26190  0.20320  Biso   1.000  H
  H120     1.0000 0.47880  0.20970  0.17150  Biso   1.000  H
  H121     1.0000 0.68980  0.15590  0.77110  Biso   1.000  H
  H122     1.0000 0.46840  0.04620  0.70510  Biso   1.000  H
  H123     1.0000 0.98580  0.96140  0.69200  Biso   1.000  H
  H124     1.0000 0.81940  0.86720  0.78690  Biso   1.000  H
  H125     1.0000 0.57200  0.28470  0.90130  Biso   1.000  H
  H126     1.0000 0.28810  0.19180  0.87540  Biso   1.000  H
  H127     1.0000 0.32540  0.17810  0.11430  Biso   1.000  H
  H128     1.0000 0.29660  0.34110  0.08640  Biso   1.000  H
  H129     1.0000 0.43080  0.22800  0.58750  Biso   1.000  H
  H130     1.0000 0.72320  0.30840  0.61130  Biso   1.000  H
  H131     1.0000 0.68760  0.14780  0.40350  Biso   1.000  H
  H132     1.0000 0.69530  0.31510  0.37370  Biso   1.000  H
  H133     1.0000 0.19200  0.09190  0.73180  Biso   1.000  H
  H134     1.0000 0.12970  0.14890  0.82790  Biso   1.000  H
  H135     1.0000 0.03830  0.09640  0.83780  Biso   1.000  H
  H136     1.0000 0.15110  0.09520  0.85450  Biso   1.000  H
  H137     1.0000 0.12550  0.00320  0.76020  Biso   1.000  H
  H138     1.0000 0.14690  0.00080  0.81080  Biso   1.000  H
  H139     1.0000 0.03480  0.00310  0.79380  Biso   1.000  H
  H140     1.0000 0.12220  0.25110  0.77870  Biso   1.000  H
  H141     1.0000 0.22900  0.37220  0.85220  Biso   1.000  H
  H142     1.0000 0.21820  0.32240  0.88730  Biso   1.000  H
  H143     1.0000 0.29550  0.32370  0.84780  Biso   1.000  H
  H144     1.0000 0.99750  0.26810  0.82850  Biso   1.000  H
  H145     1.0000 0.04900  0.25940  0.87380  Biso   1.000  H
  H146     1.0000 0.03380  0.32150  0.85970  Biso   1.000  H
  H147     1.0000 0.79330  0.45000  0.74970  Biso   1.000  H
  H148     1.0000 0.83470  0.42740  0.62850  Biso   1.000  H
  H149     1.0000 0.94840  0.43100  0.64590  Biso   1.000  H
  H150     1.0000 0.85960  0.37940  0.66040  Biso   1.000  H
  H151     1.0000 0.87040  0.53300  0.71730  Biso   1.000  H
  H152     1.0000 0.95720  0.52770  0.68300  Biso   1.000  H
  H153     1.0000 0.84540  0.53230  0.66690  Biso   1.000  H
  H154     1.0000 0.74130  0.21210  0.67650  Biso   1.000  H
  H155     1.0000 0.83440  0.18430  0.62090  Biso   1.000  H
  H156     1.0000 0.93640  0.23000  0.61090  Biso   1.000  H
  H157     1.0000 0.94240  0.17290  0.63680  Biso   1.000  H
  H158     1.0000 0.96490  0.28660  0.71720  Biso   1.000  H
  H159     1.0000 0.02550  0.23810  0.70320  Biso   1.000  H
  H160     1.0000 0.02120  0.29030  0.67150  Biso   1.000  H
  C1       1.0000 0.00270  0.65340  0.76417  Biso   1.000  C
  C2       1.0000 0.07000  0.60880  0.76286  Biso   1.000  C
  C3       1.0000 0.16600  0.62020  0.74243  Biso   1.000  C
  C4       1.0000 0.22660  0.57800  0.74226  Biso   1.000  C
  C5       1.0000 0.19630  0.52410  0.76357  Biso   1.000  C
  C6       1.0000 0.09910  0.51440  0.78337  Biso   1.000  C
  C7       1.0000 0.03450  0.55500  0.78250  Biso   1.000  C
  C8       1.0000 0.26720  0.48090  0.76452  Biso   1.000  C
  C9       1.0000 0.35460  0.48920  0.79116  Biso   1.000  C
  C10      1.0000 0.42770  0.45400  0.78982  Biso   1.000  C
  C11      1.0000 0.41270  0.40710  0.76069  Biso   1.000  C
  C12      1.0000 0.32850  0.39770  0.73317  Biso   1.000  C
  C13      1.0000 0.25670  0.43400  0.73536  Biso   1.000  C
  C14      1.0000 0.49280  0.36830  0.75868  Biso   1.000  C
  C15      1.0000 0.95610  0.74360  0.66808  Biso   1.000  C
  C16      1.0000 0.93250  0.73880  0.61916  Biso   1.000  C
  C17      1.0000 0.00670  0.76570  0.58918  Biso   1.000  C
  C18      1.0000 0.98220  0.76380  0.54502  Biso   1.000  C
  C19      1.0000 0.88620  0.73720  0.52833  Biso   1.000  C
  C20      1.0000 0.81400  0.71070  0.56002  Biso   1.000  C
  C21      1.0000 0.83730  0.71080  0.60477  Biso   1.000  C
  C22      1.0000 0.85810  0.74460  0.48099  Biso   1.000  C
  C23      1.0000 0.85570  0.70090  0.44872  Biso   1.000  C
  C24      1.0000 0.82770  0.70820  0.40587  Biso   1.000  C
  C25      1.0000 0.80300  0.76030  0.39265  Biso   1.000  C
  C26      1.0000 0.80970  0.80530  0.42244  Biso   1.000  C
  C27      1.0000 0.83600  0.79650  0.46587  Biso   1.000  C
  C28      1.0000 0.76580  0.76810  0.34683  Biso   1.000  C
  C29      1.0000 0.04730  0.77040  0.84444  Biso   1.000  C
  C30      1.0000 0.07330  0.76950  0.89335  Biso   1.000  C
  C31      1.0000 0.99780  0.74320  0.92236  Biso   1.000  C
  C32      1.0000 0.02250  0.73960  0.96644  Biso   1.000  C
  C33      1.0000 0.12170  0.76100  0.98358  Biso   1.000  C
  C34      1.0000 0.19500  0.78630  0.95247  Biso   1.000  C
  C35      1.0000 0.17180  0.79090  0.90815  Biso   1.000  C
  C36      1.0000 0.14610  0.75090  0.03066  Biso   1.000  C
  C37      1.0000 0.15840  0.69670  0.04528  Biso   1.000  C
  C38      1.0000 0.18330  0.68540  0.08811  Biso   1.000  C
  C39      1.0000 0.20170  0.73010  0.11838  Biso   1.000  C
  C40      1.0000 0.18570  0.78480  0.10609  Biso   1.000  C
  C41      1.0000 0.15540  0.79370  0.06369  Biso   1.000  C
  C42      1.0000 0.24180  0.72060  0.16374  Biso   1.000  C
  C43      1.0000 0.67760  0.61120  0.74290  Biso   1.000  C
  C44      1.0000 0.61120  0.60740  0.66890  Biso   1.000  C
  C45      1.0000 0.60790  0.51630  0.71140  Biso   1.000  C
  C46      1.0000 0.67440  0.77680  0.70660  Biso   1.000  C
  C47      1.0000 0.72940  0.83170  0.64330  Biso   1.000  C
  C48      1.0000 0.54920  0.78540  0.65060  Biso   1.000  C
  C49      1.0000 0.30430  0.92730  0.77420  Biso   1.000  C
  C50      1.0000 0.37590  0.92000  0.84680  Biso   1.000  C
  C51      1.0000 0.38420  0.01710  0.81060  Biso   1.000  C
  C52      1.0000 0.30010  0.73150  0.80870  Biso   1.000  C
  C53      1.0000 0.40180  0.70220  0.86810  Biso   1.000  C
  C54      1.0000 0.48310  0.76440  0.80710  Biso   1.000  C
  C55      1.0000 0.49730  0.84660  0.26417  Biso   1.000  C
  C56      1.0000 0.43000  0.89120  0.26286  Biso   1.000  C
  C57      1.0000 0.33400  0.87980  0.24243  Biso   1.000  C
  C58      1.0000 0.27340  0.92200  0.24226  Biso   1.000  C
  C59      1.0000 0.30370  0.97590  0.26357  Biso   1.000  C
  C60      1.0000 0.40090  0.98560  0.28337  Biso   1.000  C
  C61      1.0000 0.46550  0.94500  0.28250  Biso   1.000  C
  C62      1.0000 0.23280  0.01910  0.26452  Biso   1.000  C
  C63      1.0000 0.14540  0.01080  0.29116  Biso   1.000  C
  C64      1.0000 0.07230  0.04600  0.28982  Biso   1.000  C
  C65      1.0000 0.08730  0.09290  0.26069  Biso   1.000  C
  C66      1.0000 0.17150  0.10230  0.23317  Biso   1.000  C
  C67      1.0000 0.24330  0.06600  0.23536  Biso   1.000  C
  C68      1.0000 0.00720  0.13170  0.25868  Biso   1.000  C
  C69      1.0000 0.54390  0.75640  0.16808  Biso   1.000  C
  C70      1.0000 0.56750  0.76120  0.11916  Biso   1.000  C
  C71      1.0000 0.49330  0.73430  0.08918  Biso   1.000  C
  C72      1.0000 0.51780  0.73620  0.04502  Biso   1.000  C
  C73      1.0000 0.61380  0.76280  0.02833  Biso   1.000  C
  C74      1.0000 0.68600  0.78930  0.06002  Biso   1.000  C
  C75      1.0000 0.66270  0.78920  0.10477  Biso   1.000  C
  C76      1.0000 0.64190  0.75540  0.98099  Biso   1.000  C
  C77      1.0000 0.64430  0.79910  0.94872  Biso   1.000  C
  C78      1.0000 0.67230  0.79180  0.90587  Biso   1.000  C
  C79      1.0000 0.69700  0.73970  0.89265  Biso   1.000  C
  C80      1.0000 0.69030  0.69470  0.92244  Biso   1.000  C
  C81      1.0000 0.66400  0.70350  0.96587  Biso   1.000  C
  C82      1.0000 0.73420  0.73190  0.84683  Biso   1.000  C
  C83      1.0000 0.45270  0.72960  0.34444  Biso   1.000  C
  C84      1.0000 0.42670  0.73050  0.39335  Biso   1.000  C
  C85      1.0000 0.50220  0.75680  0.42236  Biso   1.000  C
  C86      1.0000 0.47750  0.76040  0.46644  Biso   1.000  C
  C87      1.0000 0.37830  0.73900  0.48358  Biso   1.000  C
  C88      1.0000 0.30500  0.71370  0.45247  Biso   1.000  C
  C89      1.0000 0.32820  0.70910  0.40815  Biso   1.000  C
  C90      1.0000 0.35390  0.74910  0.53066  Biso   1.000  C
  C91      1.0000 0.34160  0.80330  0.54528  Biso   1.000  C
  C92      1.0000 0.31670  0.81460  0.58811  Biso   1.000  C
  C93      1.0000 0.29830  0.76990  0.61838  Biso   1.000  C
  C94      1.0000 0.31430  0.71520  0.60609  Biso   1.000  C
  C95      1.0000 0.34460  0.70630  0.56369  Biso   1.000  C
  C96      1.0000 0.25820  0.77940  0.66374  Biso   1.000  C
  C97      1.0000 0.82240  0.88880  0.24290  Biso   1.000  C
  C98      1.0000 0.88880  0.89260  0.16890  Biso   1.000  C
  C99      1.0000 0.89210  0.98370  0.21140  Biso   1.000  C
  C100     1.0000 0.82560  0.72320  0.20660  Biso   1.000  C
  C101     1.0000 0.77060  0.66830  0.14330  Biso   1.000  C
  C102     1.0000 0.95080  0.71460  0.15060  Biso   1.000  C
  C103     1.0000 0.19570  0.57270  0.27420  Biso   1.000  C
  C104     1.0000 0.12410  0.58000  0.34680  Biso   1.000  C
  C105     1.0000 0.11580  0.48290  0.31060  Biso   1.000  C
  C106     1.0000 0.19990  0.76850  0.30870  Biso   1.000  C
  C107     1.0000 0.09820  0.79780  0.36810  Biso   1.000  C
  C108     1.0000 0.01690  0.73560  0.30710  Biso   1.000  C
  C109     1.0000 0.99730  0.34660  0.23583  Biso   1.000  C
  C110     1.0000 0.93000  0.39120  0.23714  Biso   1.000  C
  C111     1.0000 0.83400  0.37980  0.25757  Biso   1.000  C
  C112     1.0000 0.77340  0.42200  0.25774  Biso   1.000  C
  C113     1.0000 0.80370  0.47590  0.23643  Biso   1.000  C
  C114     1.0000 0.90090  0.48560  0.21663  Biso   1.000  C
  C115     1.0000 0.96550  0.44500  0.21750  Biso   1.000  C
  C116     1.0000 0.73280  0.51910  0.23548  Biso   1.000  C
  C117     1.0000 0.64540  0.51080  0.20884  Biso   1.000  C
  C118     1.0000 0.57230  0.54600  0.21018  Biso   1.000  C
  C119     1.0000 0.58730  0.59290  0.23931  Biso   1.000  C
  C120     1.0000 0.67150  0.60230  0.26683  Biso   1.000  C
  C121     1.0000 0.74330  0.56600  0.26464  Biso   1.000  C
  C122     1.0000 0.50720  0.63170  0.24132  Biso   1.000  C
  C123     1.0000 0.04390  0.25640  0.33192  Biso   1.000  C
  C124     1.0000 0.06750  0.26120  0.38084  Biso   1.000  C
  C125     1.0000 0.99330  0.23430  0.41082  Biso   1.000  C
  C126     1.0000 0.01780  0.23620  0.45498  Biso   1.000  C
  C127     1.0000 0.11380  0.26280  0.47167  Biso   1.000  C
  C128     1.0000 0.18600  0.28930  0.43998  Biso   1.000  C
  C129     1.0000 0.16270  0.28920  0.39523  Biso   1.000  C
  C130     1.0000 0.14190  0.25540  0.51901  Biso   1.000  C
  C131     1.0000 0.14430  0.29910  0.55128  Biso   1.000  C
  C132     1.0000 0.17230  0.29180  0.59413  Biso   1.000  C
  C133     1.0000 0.19700  0.23970  0.60735  Biso   1.000  C
  C134     1.0000 0.19030  0.19470  0.57756  Biso   1.000  C
  C135     1.0000 0.16400  0.20350  0.53413  Biso   1.000  C
  C136     1.0000 0.23420  0.23190  0.65317  Biso   1.000  C
  C137     1.0000 0.95270  0.22960  0.15556  Biso   1.000  C
  C138     1.0000 0.92670  0.23050  0.10665  Biso   1.000  C
  C139     1.0000 0.00220  0.25680  0.07764  Biso   1.000  C
  C140     1.0000 0.97750  0.26040  0.03356  Biso   1.000  C
  C141     1.0000 0.87830  0.23900  0.01642  Biso   1.000  C
  C142     1.0000 0.80500  0.21370  0.04753  Biso   1.000  C
  C143     1.0000 0.82820  0.20910  0.09185  Biso   1.000  C
  C144     1.0000 0.85390  0.24910  0.96934  Biso   1.000  C
  C145     1.0000 0.84160  0.30330  0.95472  Biso   1.000  C
  C146     1.0000 0.81670  0.31460  0.91189  Biso   1.000  C
  C147     1.0000 0.79830  0.26990  0.88162  Biso   1.000  C
  C148     1.0000 0.81430  0.21520  0.89391  Biso   1.000  C
  C149     1.0000 0.84460  0.20630  0.93631  Biso   1.000  C
  C150     1.0000 0.75820  0.27940  0.83626  Biso   1.000  C
  C151     1.0000 0.32240  0.38880  0.25710  Biso   1.000  C
  C152     1.0000 0.38880  0.39260  0.33110  Biso   1.000  C
  C153     1.0000 0.39210  0.48370  0.28860  Biso   1.000  C
  C154     1.0000 0.32560  0.22320  0.29340  Biso   1.000  C
  C155     1.0000 0.27060  0.16830  0.35670  Biso   1.000  C
  C156     1.0000 0.45080  0.21460  0.34940  Biso   1.000  C
  C157     1.0000 0.69570  0.07270  0.22580  Biso   1.000  C
  C158     1.0000 0.62410  0.08000  0.15320  Biso   1.000  C
  C159     1.0000 0.61580  0.98290  0.18940  Biso   1.000  C
  C160     1.0000 0.69990  0.26850  0.19130  Biso   1.000  C
  C161     1.0000 0.59820  0.29780  0.13190  Biso   1.000  C
  C162     1.0000 0.51690  0.23560  0.19290  Biso   1.000  C
  C163     1.0000 0.50270  0.15340  0.73583  Biso   1.000  C
  C164     1.0000 0.57000  0.10880  0.73714  Biso   1.000  C
  C165     1.0000 0.66600  0.12020  0.75757  Biso   1.000  C
  C166     1.0000 0.72660  0.07800  0.75774  Biso   1.000  C
  C167     1.0000 0.69630  0.02410  0.73643  Biso   1.000  C
  C168     1.0000 0.59910  0.01440  0.71663  Biso   1.000  C
  C169     1.0000 0.53450  0.05500  0.71750  Biso   1.000  C
  C170     1.0000 0.76720  0.98090  0.73548  Biso   1.000  C
  C171     1.0000 0.85460  0.98920  0.70884  Biso   1.000  C
  C172     1.0000 0.92770  0.95400  0.71018  Biso   1.000  C
  C173     1.0000 0.91270  0.90710  0.73931  Biso   1.000  C
  C174     1.0000 0.82850  0.89770  0.76683  Biso   1.000  C
  C175     1.0000 0.75670  0.93400  0.76464  Biso   1.000  C
  C176     1.0000 0.99280  0.86830  0.74132  Biso   1.000  C
  C177     1.0000 0.45610  0.24360  0.83192  Biso   1.000  C
  C178     1.0000 0.43250  0.23880  0.88084  Biso   1.000  C
  C179     1.0000 0.50670  0.26570  0.91082  Biso   1.000  C
  C180     1.0000 0.48220  0.26380  0.95498  Biso   1.000  C
  C181     1.0000 0.38620  0.23720  0.97167  Biso   1.000  C
  C182     1.0000 0.31400  0.21070  0.93998  Biso   1.000  C
  C183     1.0000 0.33730  0.21080  0.89523  Biso   1.000  C
  C184     1.0000 0.35810  0.24460  0.01901  Biso   1.000  C
  C185     1.0000 0.35570  0.20090  0.05128  Biso   1.000  C
  C186     1.0000 0.32770  0.20820  0.09413  Biso   1.000  C
  C187     1.0000 0.30300  0.26030  0.10735  Biso   1.000  C
  C188     1.0000 0.30970  0.30530  0.07756  Biso   1.000  C
  C189     1.0000 0.33600  0.29650  0.03413  Biso   1.000  C
  C190     1.0000 0.26580  0.26810  0.15317  Biso   1.000  C
  C191     1.0000 0.54730  0.27040  0.65556  Biso   1.000  C
  C192     1.0000 0.57330  0.26950  0.60665  Biso   1.000  C
  C193     1.0000 0.49780  0.24320  0.57764  Biso   1.000  C
  C194     1.0000 0.52250  0.23960  0.53356  Biso   1.000  C
  C195     1.0000 0.62170  0.26100  0.51642  Biso   1.000  C
  C196     1.0000 0.69500  0.28630  0.54753  Biso   1.000  C
  C197     1.0000 0.67180  0.29090  0.59185  Biso   1.000  C
  C198     1.0000 0.64610  0.25090  0.46934  Biso   1.000  C
  C199     1.0000 0.65840  0.19670  0.45472  Biso   1.000  C
  C200     1.0000 0.68330  0.18540  0.41189  Biso   1.000  C
  C201     1.0000 0.70170  0.23010  0.38162  Biso   1.000  C
  C202     1.0000 0.68570  0.28480  0.39391  Biso   1.000  C
  C203     1.0000 0.65540  0.29370  0.43631  Biso   1.000  C
  C204     1.0000 0.74180  0.22060  0.33626  Biso   1.000  C
  C205     1.0000 0.17760  0.11120  0.75710  Biso   1.000  C
  C206     1.0000 0.11120  0.10740  0.83110  Biso   1.000  C
  C207     1.0000 0.10790  0.01630  0.78860  Biso   1.000  C
  C208     1.0000 0.17440  0.27680  0.79340  Biso   1.000  C
  C209     1.0000 0.22940  0.33170  0.85670  Biso   1.000  C
  C210     1.0000 0.04920  0.28540  0.84940  Biso   1.000  C
  C211     1.0000 0.80430  0.42730  0.72580  Biso   1.000  C
  C212     1.0000 0.87590  0.42000  0.65320  Biso   1.000  C
  C213     1.0000 0.88420  0.51710  0.68940  Biso   1.000  C
  C214     1.0000 0.80010  0.23150  0.69130  Biso   1.000  C
  C215     1.0000 0.90180  0.20220  0.63190  Biso   1.000  C
  C216     1.0000 0.98310  0.26440  0.69290  Biso   1.000  C
  N1       1.0000 0.32560  0.59200  0.71792  Biso   1.000  N
  N2       1.0000 0.06040  0.46130  0.80838  Biso   1.000  N
  N3       1.0000 0.37510  0.53960  0.82078  Biso   1.000  N
  N4       1.0000 0.16860  0.42230  0.70450  Biso   1.000  N
  N5       1.0000 0.06360  0.79520  0.51540  Biso   1.000  N
  N6       1.0000 0.70670  0.68440  0.54736  Biso   1.000  N
  N7       1.0000 0.88350  0.64500  0.46047  Biso   1.000  N
  N8       1.0000 0.83930  0.84590  0.49593  Biso   1.000  N
  N9       1.0000 0.93930  0.70920  0.99534  Biso   1.000  N
  N10      1.0000 0.30400  0.81040  0.96531  Biso   1.000  N
  N11      1.0000 0.14450  0.64610  0.01454  Biso   1.000  N
  N12      1.0000 0.13480  0.85180  0.05281  Biso   1.000  N
  N13      1.0000 0.63300  0.57960  0.70992  Biso   1.000  N
  N14      1.0000 0.64470  0.79550  0.67000  Biso   1.000  N
  N15      1.0000 0.35300  0.95390  0.80930  Biso   1.000  N
  N16      1.0000 0.38990  0.73180  0.82685  Biso   1.000  N
  N17      1.0000 0.17440  0.90800  0.21792  Biso   1.000  N
  N18      1.0000 0.43960  0.03870  0.30838  Biso   1.000  N
  N19      1.0000 0.12490  0.96040  0.32078  Biso   1.000  N
  N20      1.0000 0.33140  0.07770  0.20450  Biso   1.000  N
  N21      1.0000 0.43640  0.70480  0.01540  Biso   1.000  N
  N22      1.0000 0.79330  0.81560  0.04736  Biso   1.000  N
  N23      1.0000 0.61650  0.85500  0.96047  Biso   1.000  N
  N24      1.0000 0.66070  0.65410  0.99593  Biso   1.000  N
  N25      1.0000 0.56070  0.79080  0.49534  Biso   1.000  N
  N26      1.0000 0.19600  0.68960  0.46531  Biso   1.000  N
  N27      1.0000 0.35550  0.85390  0.51454  Biso   1.000  N
  N28      1.0000 0.36520  0.64820  0.55281  Biso   1.000  N
  N29      1.0000 0.86700  0.92040  0.20992  Biso   1.000  N
  N30      1.0000 0.85530  0.70450  0.17000  Biso   1.000  N
  N31      1.0000 0.14700  0.54610  0.30930  Biso   1.000  N
  N32      1.0000 0.11010  0.76820  0.32685  Biso   1.000  N
  N33      1.0000 0.67440  0.40800  0.28208  Biso   1.000  N
  N34      1.0000 0.93960  0.53870  0.19162  Biso   1.000  N
  N35      1.0000 0.62490  0.46040  0.17922  Biso   1.000  N
  N36      1.0000 0.83140  0.57770  0.29550  Biso   1.000  N
  N37      1.0000 0.93640  0.20480  0.48460  Biso   1.000  N
  N38      1.0000 0.29330  0.31560  0.45264  Biso   1.000  N
  N39      1.0000 0.11650  0.35500  0.53953  Biso   1.000  N
  N40      1.0000 0.16070  0.15410  0.50407  Biso   1.000  N
  N41      1.0000 0.06070  0.29080  0.00466  Biso   1.000  N
  N42      1.0000 0.69600  0.18960  0.03469  Biso   1.000  N
  N43      1.0000 0.85550  0.35390  0.98546  Biso   1.000  N
  N44      1.0000 0.86520  0.14820  0.94719  Biso   1.000  N
  N45      1.0000 0.36700  0.42040  0.29008  Biso   1.000  N
  N46      1.0000 0.35530  0.20450  0.33000  Biso   1.000  N
  N47      1.0000 0.64700  0.04610  0.19070  Biso   1.000  N
  N48      1.0000 0.61010  0.26820  0.17315  Biso   1.000  N
  N49      1.0000 0.82560  0.09200  0.78208  Biso   1.000  N
  N50      1.0000 0.56040  0.96130  0.69162  Biso   1.000  N
  N51      1.0000 0.87510  0.03960  0.67922  Biso   1.000  N
  N52      1.0000 0.66860  0.92230  0.79550  Biso   1.000  N
  N53      1.0000 0.56360  0.29520  0.98460  Biso   1.000  N
  N54      1.0000 0.20670  0.18440  0.95264  Biso   1.000  N
  N55      1.0000 0.38350  0.14500  0.03953  Biso   1.000  N
  N56      1.0000 0.33930  0.34590  0.00407  Biso   1.000  N
  N57      1.0000 0.43930  0.20920  0.50466  Biso   1.000  N
  N58      1.0000 0.80400  0.31040  0.53469  Biso   1.000  N
  N59      1.0000 0.64450  0.14610  0.48546  Biso   1.000  N
  N60      1.0000 0.63480  0.35180  0.44719  Biso   1.000  N
  N61      1.0000 0.13300  0.07960  0.79008  Biso   1.000  N
  N62      1.0000 0.14470  0.29550  0.83000  Biso   1.000  N
  N63      1.0000 0.85300  0.45390  0.69070  Biso   1.000  N
  N64      1.0000 0.88990  0.23180  0.67315  Biso   1.000  N
  O1       1.0000 0.90770  0.63734  0.77227  Biso   1.000  O
  O2       1.0000 0.04340  0.70594  0.75622  Biso   1.000  O
  O3       1.0000 0.46600  0.31853  0.74132  Biso   1.000  O
  O4       1.0000 0.58120  0.38650  0.77359  Biso   1.000  O
  O5       1.0000 0.36390  0.64180  0.71280  Biso   1.000  O
  O6       1.0000 0.36330  0.55220  0.70400  Biso   1.000  O
  O7       1.0000 0.12310  0.43510  0.82440  Biso   1.000  O
  O8       1.0000 0.96800  0.44580  0.81410  Biso   1.000  O
  O9       1.0000 0.30220  0.55480  0.83875  Biso   1.000  O
  O10      1.0000 0.46640  0.56470  0.82462  Biso   1.000  O
  O11      1.0000 0.08220  0.42590  0.71930  Biso   1.000  O
  O12      1.0000 0.18180  0.40410  0.66916  Biso   1.000  O
  O13      1.0000 0.88870  0.71537  0.69307  Biso   1.000  O
  O14      1.0000 0.03940  0.77699  0.67863  Biso   1.000  O
  O15      1.0000 0.74760  0.81704  0.33602  Biso   1.000  O
  O16      1.0000 0.74930  0.72503  0.32133  Biso   1.000  O
  O17      1.0000 0.12950  0.83384  0.53159  Biso   1.000  O
  O18      1.0000 0.06190  0.78150  0.47684  Biso   1.000  O
  O19      1.0000 0.64060  0.67450  0.57656  Biso   1.000  O
  O20      1.0000 0.68760  0.67210  0.50932  Biso   1.000  O
  O21      1.0000 0.92100  0.63960  0.49645  Biso   1.000  O
  O22      1.0000 0.86920  0.60650  0.43315  Biso   1.000  O
  O23      1.0000 0.81900  0.83700  0.53451  Biso   1.000  O
  O24      1.0000 0.86460  0.89460  0.48021  Biso   1.000  O
  O25      1.0000 0.95710  0.74741  0.83385  Biso   1.000  O
  O26      1.0000 0.11980  0.79495  0.81995  Biso   1.000  O
  O27      1.0000 0.24140  0.66889  0.17612  Biso   1.000  O
  O28      1.0000 0.27640  0.76451  0.18666  Biso   1.000  O
  O29      1.0000 0.87740  0.66710  0.97980  Biso   1.000  O
  O30      1.0000 0.93650  0.72470  0.03295  Biso   1.000  O
  O31      1.0000 0.36730  0.82560  0.93616  Biso   1.000  O
  O32      1.0000 0.32600  0.81160  0.00414  Biso   1.000  O
  O33      1.0000 0.17090  0.65480  0.97650  Biso   1.000  O
  O34      1.0000 0.10680  0.59820  0.02998  Biso   1.000  O
  O35      1.0000 0.10390  0.86100  0.01754  Biso   1.000  O
  O36      1.0000 0.14200  0.88620  0.08120  Biso   1.000  O
  O37      1.0000 0.70190  0.66497  0.74265  Biso   1.000  O
  O38      1.0000 0.75540  0.78577  0.72540  Biso   1.000  O
  O39      1.0000 0.27330  0.87420  0.77172  Biso   1.000  O
  O40      1.0000 0.28630  0.75490  0.77338  Biso   1.000  O
  O41      1.0000 0.59230  0.86266  0.27227  Biso   1.000  O
  O42      1.0000 0.45660  0.79406  0.25622  Biso   1.000  O
  O43      1.0000 0.03400  0.18147  0.24132  Biso   1.000  O
  O44      1.0000 0.91880  0.11350  0.27359  Biso   1.000  O
  O45      1.0000 0.13610  0.85820  0.21280  Biso   1.000  O
  O46      1.0000 0.13670  0.94780  0.20400  Biso   1.000  O
  O47      1.0000 0.37690  0.06490  0.32440  Biso   1.000  O
  O48      1.0000 0.53200  0.05420  0.31410  Biso   1.000  O
  O49      1.0000 0.19780  0.94520  0.33875  Biso   1.000  O
  O50      1.0000 0.03360  0.93530  0.32462  Biso   1.000  O
  O51      1.0000 0.41780  0.07410  0.21930  Biso   1.000  O
  O52      1.0000 0.31820  0.09590  0.16916  Biso   1.000  O
  O53      1.0000 0.61130  0.78463  0.19307  Biso   1.000  O
  O54      1.0000 0.46060  0.72301  0.17863  Biso   1.000  O
  O55      1.0000 0.75240  0.68296  0.83602  Biso   1.000  O
  O56      1.0000 0.75070  0.77497  0.82133  Biso   1.000  O
  O57      1.0000 0.37050  0.66616  0.03159  Biso   1.000  O
  O58      1.0000 0.43810  0.71850  0.97684  Biso   1.000  O
  O59      1.0000 0.85940  0.82550  0.07656  Biso   1.000  O
  O60      1.0000 0.81240  0.82790  0.00932  Biso   1.000  O
  O61      1.0000 0.57900  0.86040  0.99645  Biso   1.000  O
  O62      1.0000 0.63080  0.89350  0.93315  Biso   1.000  O
  O63      1.0000 0.68100  0.66300  0.03451  Biso   1.000  O
  O64      1.0000 0.63540  0.60540  0.98021  Biso   1.000  O
  O65      1.0000 0.54290  0.75259  0.33385  Biso   1.000  O
  O66      1.0000 0.38020  0.70505  0.31995  Biso   1.000  O
  O67      1.0000 0.25860  0.83111  0.67612  Biso   1.000  O
  O68      1.0000 0.22360  0.73549  0.68666  Biso   1.000  O
  O69      1.0000 0.62260  0.83290  0.47980  Biso   1.000  O
  O70      1.0000 0.56350  0.77530  0.53295  Biso   1.000  O
  O71      1.0000 0.13270  0.67440  0.43616  Biso   1.000  O
  O72      1.0000 0.17400  0.68840  0.50414  Biso   1.000  O
  O73      1.0000 0.32910  0.84520  0.47650  Biso   1.000  O
  O74      1.0000 0.39320  0.90180  0.52998  Biso   1.000  O
  O75      1.0000 0.39610  0.63900  0.51754  Biso   1.000  O
  O76      1.0000 0.35800  0.61380  0.58120  Biso   1.000  O
  O77      1.0000 0.79810  0.83503  0.24265  Biso   1.000  O
  O78      1.0000 0.74460  0.71423  0.22540  Biso   1.000  O
  O79      1.0000 0.22670  0.62580  0.27172  Biso   1.000  O
  O80      1.0000 0.21370  0.74510  0.27338  Biso   1.000  O
  O81      1.0000 0.09230  0.36266  0.22773  Biso   1.000  O
  O82      1.0000 0.95660  0.29406  0.24378  Biso   1.000  O
  O83      1.0000 0.53400  0.68147  0.25868  Biso   1.000  O
  O84      1.0000 0.41880  0.61350  0.22641  Biso   1.000  O
  O85      1.0000 0.63610  0.35820  0.28720  Biso   1.000  O
  O86      1.0000 0.63670  0.44780  0.29600  Biso   1.000  O
  O87      1.0000 0.87690  0.56490  0.17560  Biso   1.000  O
  O88      1.0000 0.03200  0.55420  0.18590  Biso   1.000  O
  O89      1.0000 0.69780  0.44520  0.16125  Biso   1.000  O
  O90      1.0000 0.53360  0.43530  0.17538  Biso   1.000  O
  O91      1.0000 0.91780  0.57410  0.28070  Biso   1.000  O
  O92      1.0000 0.81820  0.59590  0.33084  Biso   1.000  O
  O93      1.0000 0.11130  0.28463  0.30693  Biso   1.000  O
  O94      1.0000 0.96060  0.22301  0.32137  Biso   1.000  O
  O95      1.0000 0.25240  0.18296  0.66398  Biso   1.000  O
  O96      1.0000 0.25070  0.27497  0.67867  Biso   1.000  O
  O97      1.0000 0.87050  0.16616  0.46841  Biso   1.000  O
  O98      1.0000 0.93810  0.21850  0.52316  Biso   1.000  O
  O99      1.0000 0.35940  0.32550  0.42344  Biso   1.000  O
  O100     1.0000 0.31240  0.32790  0.49068  Biso   1.000  O
  O101     1.0000 0.07900  0.36040  0.50355  Biso   1.000  O
  O102     1.0000 0.13080  0.39350  0.56685  Biso   1.000  O
  O103     1.0000 0.18100  0.16300  0.46549  Biso   1.000  O
  O104     1.0000 0.13540  0.10540  0.51979  Biso   1.000  O
  O105     1.0000 0.04290  0.25259  0.16615  Biso   1.000  O
  O106     1.0000 0.88020  0.20505  0.18005  Biso   1.000  O
  O107     1.0000 0.75860  0.33111  0.82388  Biso   1.000  O
  O108     1.0000 0.72360  0.23549  0.81334  Biso   1.000  O
  O109     1.0000 0.12260  0.33290  0.02020  Biso   1.000  O
  O110     1.0000 0.06350  0.27530  0.96705  Biso   1.000  O
  O111     1.0000 0.63270  0.17440  0.06384  Biso   1.000  O
  O112     1.0000 0.67400  0.18840  0.99586  Biso   1.000  O
  O113     1.0000 0.82910  0.34520  0.02350  Biso   1.000  O
  O114     1.0000 0.89320  0.40180  0.97002  Biso   1.000  O
  O115     1.0000 0.89610  0.13900  0.98246  Biso   1.000  O
  O116     1.0000 0.85800  0.11380  0.91880  Biso   1.000  O
  O117     1.0000 0.29810  0.33503  0.25735  Biso   1.000  O
  O118     1.0000 0.24460  0.21423  0.27460  Biso   1.000  O
  O119     1.0000 0.72670  0.12580  0.22828  Biso   1.000  O
  O120     1.0000 0.71370  0.24510  0.22662  Biso   1.000  O
  O121     1.0000 0.40770  0.13734  0.72773  Biso   1.000  O
  O122     1.0000 0.54340  0.20594  0.74378  Biso   1.000  O
  O123     1.0000 0.96600  0.81853  0.75868  Biso   1.000  O
  O124     1.0000 0.08120  0.88650  0.72641  Biso   1.000  O
  O125     1.0000 0.86390  0.14180  0.78720  Biso   1.000  O
  O126     1.0000 0.86330  0.05220  0.79600  Biso   1.000  O
  O127     1.0000 0.62310  0.93510  0.67560  Biso   1.000  O
  O128     1.0000 0.46800  0.94580  0.68590  Biso   1.000  O
  O129     1.0000 0.80220  0.05480  0.66125  Biso   1.000  O
  O130     1.0000 0.96640  0.06470  0.67538  Biso   1.000  O
  O131     1.0000 0.58220  0.92590  0.78070  Biso   1.000  O
  O132     1.0000 0.68180  0.90410  0.83084  Biso   1.000  O
  O133     1.0000 0.38870  0.21537  0.80693  Biso   1.000  O
  O134     1.0000 0.53940  0.27699  0.82137  Biso   1.000  O
  O135     1.0000 0.24760  0.31704  0.16398  Biso   1.000  O
  O136     1.0000 0.24930  0.22503  0.17867  Biso   1.000  O
  O137     1.0000 0.62950  0.33384  0.96841  Biso   1.000  O
  O138     1.0000 0.56190  0.28150  0.02316  Biso   1.000  O
  O139     1.0000 0.14060  0.17450  0.92344  Biso   1.000  O
  O140     1.0000 0.18760  0.17210  0.99068  Biso   1.000  O
  O141     1.0000 0.42100  0.13960  0.00355  Biso   1.000  O
  O142     1.0000 0.36920  0.10650  0.06685  Biso   1.000  O
  O143     1.0000 0.31900  0.33700  0.96549  Biso   1.000  O
  O144     1.0000 0.36460  0.39460  0.01979  Biso   1.000  O
  O145     1.0000 0.45710  0.24741  0.66615  Biso   1.000  O
  O146     1.0000 0.61980  0.29495  0.68005  Biso   1.000  O
  O147     1.0000 0.74140  0.16889  0.32388  Biso   1.000  O
  O148     1.0000 0.77640  0.26451  0.31334  Biso   1.000  O
  O149     1.0000 0.37740  0.16710  0.52020  Biso   1.000  O
  O150     1.0000 0.43650  0.22470  0.46705  Biso   1.000  O
  O151     1.0000 0.86730  0.32560  0.56384  Biso   1.000  O
  O152     1.0000 0.82600  0.31160  0.49586  Biso   1.000  O
  O153     1.0000 0.67090  0.15480  0.52350  Biso   1.000  O
  O154     1.0000 0.60680  0.09820  0.47002  Biso   1.000  O
  O155     1.0000 0.60390  0.36100  0.48246  Biso   1.000  O
  O156     1.0000 0.64200  0.38620  0.41880  Biso   1.000  O
  O157     1.0000 0.20190  0.16497  0.75735  Biso   1.000  O
  O158     1.0000 0.25540  0.28577  0.77460  Biso   1.000  O
  O159     1.0000 0.77330  0.37420  0.72828  Biso   1.000  O
  O160     1.0000 0.78630  0.25490  0.72662  Biso   1.000  O
