data_image0
_cell_length_a       13.307
_cell_length_b       23.947
_cell_length_c       30.217
_cell_angle_alpha    90
_cell_angle_beta     90
_cell_angle_gamma    98.155

_symmetry_space_group_name_H-M    P 1
_symmetry_int_tables_number       1

loop_
  _symmetry_equiv_pos_as_xyz
  'x, y, z'

loop_
  _atom_site_label
  _atom_site_occupancy
  _atom_site_fract_x
  _atom_site_fract_y
  _atom_site_fract_z
  _atom_site_thermal_displace_type
  _atom_site_B_iso_or_equiv
  _atom_site_type_symbol
  Gd1      1.0000 0.85481  0.72965  0.77127  Biso   1.000  Gd
  Gd2      1.0000 0.15186  0.79020  0.74855  Biso   1.000  Gd
  Gd3      1.0000 0.64519  0.77035  0.27127  Biso   1.000  Gd
  Gd4      1.0000 0.34814  0.70980  0.24855  Biso   1.000  Gd
  Gd5      1.0000 0.14519  0.27035  0.22873  Biso   1.000  Gd
  Gd6      1.0000 0.84814  0.20980  0.25145  Biso   1.000  Gd
  Gd7      1.0000 0.35481  0.22965  0.72873  Biso   1.000  Gd
  Gd8      1.0000 0.65186  0.29020  0.75145  Biso   1.000  Gd
  H1       1.0000 0.18000  0.65330  0.72260  Biso   1.000  H
  H2       1.0000 0.99060  0.54930  0.79750  Biso   1.000  H
  H3       1.0000 0.50120  0.46160  0.79370  Biso   1.000  H
  H4       1.0000 0.32210  0.36570  0.70680  Biso   1.000  H
  H5       1.0000 0.83460  0.68170  0.39020  Biso   1.000  H
  H6       1.0000 0.78710  0.83980  0.41210  Biso   1.000  H
  H7       1.0000 0.80310  0.70700  0.62650  Biso   1.000  H
  H8       1.0000 0.07660  0.78910  0.60040  Biso   1.000  H
  H9       1.0000 0.92740  0.72480  0.91740  Biso   1.000  H
  H10      1.0000 0.20970  0.79860  0.89430  Biso   1.000  H
  H11      1.0000 0.20630  0.64450  0.10220  Biso   1.000  H
  H12      1.0000 0.16700  0.80180  0.13290  Biso   1.000  H
  H13      1.0000 0.72220  0.59490  0.76030  Biso   1.000  H
  H14      1.0000 0.67030  0.51110  0.72400  Biso   1.000  H
  H15      1.0000 0.62940  0.51360  0.67550  Biso   1.000  H
  H16      1.0000 0.55550  0.51560  0.71570  Biso   1.000  H
  H17      1.0000 0.62410  0.65760  0.67330  Biso   1.000  H
  H18      1.0000 0.53780  0.60660  0.66600  Biso   1.000  H
  H19      1.0000 0.64270  0.60760  0.64220  Biso   1.000  H
  H20      1.0000 0.75990  0.79250  0.68260  Biso   1.000  H
  H21      1.0000 0.55810  0.78380  0.74010  Biso   1.000  H
  H22      1.0000 0.48690  0.77050  0.69900  Biso   1.000  H
  H23      1.0000 0.51950  0.83310  0.71390  Biso   1.000  H
  H24      1.0000 0.65240  0.79340  0.61720  Biso   1.000  H
  H25      1.0000 0.60780  0.84820  0.63060  Biso   1.000  H
  H26      1.0000 0.53810  0.78960  0.63100  Biso   1.000  H
  H27      1.0000 0.24570  0.69780  0.83170  Biso   1.000  H
  H28      1.0000 0.45300  0.69280  0.77820  Biso   1.000  H
  H29      1.0000 0.51050  0.68290  0.82220  Biso   1.000  H
  H30      1.0000 0.51230  0.74420  0.80380  Biso   1.000  H
  H31      1.0000 0.43080  0.65850  0.87250  Biso   1.000  H
  H32      1.0000 0.32890  0.67790  0.88800  Biso   1.000  H
  H33      1.0000 0.43160  0.71820  0.89380  Biso   1.000  H
  H34      1.0000 0.28630  0.91970  0.75140  Biso   1.000  H
  H35      1.0000 0.35420  0.93080  0.87740  Biso   1.000  H
  H36      1.0000 0.45190  0.91130  0.85710  Biso   1.000  H
  H37      1.0000 0.34770  0.87160  0.85460  Biso   1.000  H
  H38      1.0000 0.46080  0.00950  0.79800  Biso   1.000  H
  H39      1.0000 0.36960  0.02170  0.82760  Biso   1.000  H
  H40      1.0000 0.35480  0.01320  0.77640  Biso   1.000  H
  H41      1.0000 0.32000  0.84670  0.22260  Biso   1.000  H
  H42      1.0000 0.50940  0.95070  0.29750  Biso   1.000  H
  H43      1.0000 0.99880  0.03840  0.29370  Biso   1.000  H
  H44      1.0000 0.17790  0.13430  0.20680  Biso   1.000  H
  H45      1.0000 0.66540  0.81830  0.89020  Biso   1.000  H
  H46      1.0000 0.71290  0.66020  0.91210  Biso   1.000  H
  H47      1.0000 0.69690  0.79300  0.12650  Biso   1.000  H
  H48      1.0000 0.42340  0.71090  0.10040  Biso   1.000  H
  H49      1.0000 0.57260  0.77520  0.41740  Biso   1.000  H
  H50      1.0000 0.29030  0.70140  0.39430  Biso   1.000  H
  H51      1.0000 0.29370  0.85550  0.60220  Biso   1.000  H
  H52      1.0000 0.33300  0.69820  0.63290  Biso   1.000  H
  H53      1.0000 0.77780  0.90510  0.26030  Biso   1.000  H
  H54      1.0000 0.82970  0.98890  0.22400  Biso   1.000  H
  H55      1.0000 0.87060  0.98640  0.17550  Biso   1.000  H
  H56      1.0000 0.94450  0.98440  0.21570  Biso   1.000  H
  H57      1.0000 0.87590  0.84240  0.17330  Biso   1.000  H
  H58      1.0000 0.96220  0.89340  0.16600  Biso   1.000  H
  H59      1.0000 0.85730  0.89240  0.14220  Biso   1.000  H
  H60      1.0000 0.74010  0.70750  0.18260  Biso   1.000  H
  H61      1.0000 0.94190  0.71620  0.24010  Biso   1.000  H
  H62      1.0000 0.01310  0.72950  0.19900  Biso   1.000  H
  H63      1.0000 0.98050  0.66690  0.21390  Biso   1.000  H
  H64      1.0000 0.84760  0.70660  0.11720  Biso   1.000  H
  H65      1.0000 0.89220  0.65180  0.13060  Biso   1.000  H
  H66      1.0000 0.96190  0.71040  0.13100  Biso   1.000  H
  H67      1.0000 0.25430  0.80220  0.33170  Biso   1.000  H
  H68      1.0000 0.04700  0.80720  0.27820  Biso   1.000  H
  H69      1.0000 0.98950  0.81710  0.32220  Biso   1.000  H
  H70      1.0000 0.98770  0.75580  0.30380  Biso   1.000  H
  H71      1.0000 0.06920  0.84150  0.37250  Biso   1.000  H
  H72      1.0000 0.17110  0.82210  0.38800  Biso   1.000  H
  H73      1.0000 0.06840  0.78180  0.39380  Biso   1.000  H
  H74      1.0000 0.21370  0.58030  0.25140  Biso   1.000  H
  H75      1.0000 0.14580  0.56920  0.37740  Biso   1.000  H
  H76      1.0000 0.04810  0.58870  0.35710  Biso   1.000  H
  H77      1.0000 0.15230  0.62840  0.35460  Biso   1.000  H
  H78      1.0000 0.03920  0.49050  0.29800  Biso   1.000  H
  H79      1.0000 0.13040  0.47830  0.32760  Biso   1.000  H
  H80      1.0000 0.14520  0.48680  0.27640  Biso   1.000  H
  H81      1.0000 0.82000  0.34670  0.27740  Biso   1.000  H
  H82      1.0000 0.00940  0.45070  0.20250  Biso   1.000  H
  H83      1.0000 0.49880  0.53840  0.20630  Biso   1.000  H
  H84      1.0000 0.67790  0.63430  0.29320  Biso   1.000  H
  H85      1.0000 0.16540  0.31830  0.60980  Biso   1.000  H
  H86      1.0000 0.21290  0.16020  0.58790  Biso   1.000  H
  H87      1.0000 0.19690  0.29300  0.37350  Biso   1.000  H
  H88      1.0000 0.92340  0.21090  0.39960  Biso   1.000  H
  H89      1.0000 0.07260  0.27520  0.08260  Biso   1.000  H
  H90      1.0000 0.79030  0.20140  0.10570  Biso   1.000  H
  H91      1.0000 0.79370  0.35550  0.89780  Biso   1.000  H
  H92      1.0000 0.83300  0.19820  0.86710  Biso   1.000  H
  H93      1.0000 0.27780  0.40510  0.23970  Biso   1.000  H
  H94      1.0000 0.32970  0.48890  0.27600  Biso   1.000  H
  H95      1.0000 0.37060  0.48640  0.32450  Biso   1.000  H
  H96      1.0000 0.44450  0.48440  0.28430  Biso   1.000  H
  H97      1.0000 0.37590  0.34240  0.32670  Biso   1.000  H
  H98      1.0000 0.46220  0.39340  0.33400  Biso   1.000  H
  H99      1.0000 0.35730  0.39240  0.35780  Biso   1.000  H
  H100     1.0000 0.24010  0.20750  0.31740  Biso   1.000  H
  H101     1.0000 0.44190  0.21620  0.25990  Biso   1.000  H
  H102     1.0000 0.51310  0.22950  0.30100  Biso   1.000  H
  H103     1.0000 0.48050  0.16690  0.28610  Biso   1.000  H
  H104     1.0000 0.34760  0.20660  0.38280  Biso   1.000  H
  H105     1.0000 0.39220  0.15180  0.36940  Biso   1.000  H
  H106     1.0000 0.46190  0.21040  0.36900  Biso   1.000  H
  H107     1.0000 0.75430  0.30220  0.16830  Biso   1.000  H
  H108     1.0000 0.54700  0.30720  0.22180  Biso   1.000  H
  H109     1.0000 0.48950  0.31710  0.17780  Biso   1.000  H
  H110     1.0000 0.48770  0.25580  0.19620  Biso   1.000  H
  H111     1.0000 0.56920  0.34150  0.12750  Biso   1.000  H
  H112     1.0000 0.67110  0.32210  0.11200  Biso   1.000  H
  H113     1.0000 0.56840  0.28180  0.10620  Biso   1.000  H
  H114     1.0000 0.71370  0.08030  0.24860  Biso   1.000  H
  H115     1.0000 0.64580  0.06920  0.12260  Biso   1.000  H
  H116     1.0000 0.54810  0.08870  0.14290  Biso   1.000  H
  H117     1.0000 0.65230  0.12840  0.14540  Biso   1.000  H
  H118     1.0000 0.53920  0.99050  0.20200  Biso   1.000  H
  H119     1.0000 0.63040  0.97830  0.17240  Biso   1.000  H
  H120     1.0000 0.64520  0.98680  0.22360  Biso   1.000  H
  H121     1.0000 0.68000  0.15330  0.77740  Biso   1.000  H
  H122     1.0000 0.49060  0.04930  0.70250  Biso   1.000  H
  H123     1.0000 0.00120  0.96160  0.70630  Biso   1.000  H
  H124     1.0000 0.82210  0.86570  0.79320  Biso   1.000  H
  H125     1.0000 0.33460  0.18170  0.10980  Biso   1.000  H
  H126     1.0000 0.28710  0.33980  0.08790  Biso   1.000  H
  H127     1.0000 0.30310  0.20700  0.87350  Biso   1.000  H
  H128     1.0000 0.57660  0.28910  0.89960  Biso   1.000  H
  H129     1.0000 0.42740  0.22480  0.58260  Biso   1.000  H
  H130     1.0000 0.70970  0.29860  0.60570  Biso   1.000  H
  H131     1.0000 0.70630  0.14450  0.39780  Biso   1.000  H
  H132     1.0000 0.66700  0.30180  0.36710  Biso   1.000  H
  H133     1.0000 0.22220  0.09490  0.73970  Biso   1.000  H
  H134     1.0000 0.17030  0.01110  0.77600  Biso   1.000  H
  H135     1.0000 0.12940  0.01360  0.82450  Biso   1.000  H
  H136     1.0000 0.05550  0.01560  0.78430  Biso   1.000  H
  H137     1.0000 0.12410  0.15760  0.82670  Biso   1.000  H
  H138     1.0000 0.03780  0.10660  0.83400  Biso   1.000  H
  H139     1.0000 0.14270  0.10760  0.85780  Biso   1.000  H
  H140     1.0000 0.25990  0.29250  0.81740  Biso   1.000  H
  H141     1.0000 0.05810  0.28380  0.75990  Biso   1.000  H
  H142     1.0000 0.98690  0.27050  0.80100  Biso   1.000  H
  H143     1.0000 0.01950  0.33310  0.78610  Biso   1.000  H
  H144     1.0000 0.15240  0.29340  0.88280  Biso   1.000  H
  H145     1.0000 0.10780  0.34820  0.86940  Biso   1.000  H
  H146     1.0000 0.03810  0.28960  0.86900  Biso   1.000  H
  H147     1.0000 0.74570  0.19780  0.66830  Biso   1.000  H
  H148     1.0000 0.95300  0.19280  0.72180  Biso   1.000  H
  H149     1.0000 0.01050  0.18290  0.67780  Biso   1.000  H
  H150     1.0000 0.01230  0.24420  0.69620  Biso   1.000  H
  H151     1.0000 0.93080  0.15850  0.62750  Biso   1.000  H
  H152     1.0000 0.82890  0.17790  0.61200  Biso   1.000  H
  H153     1.0000 0.93160  0.21820  0.60620  Biso   1.000  H
  H154     1.0000 0.78630  0.41970  0.74860  Biso   1.000  H
  H155     1.0000 0.85420  0.43080  0.62260  Biso   1.000  H
  H156     1.0000 0.95190  0.41130  0.64290  Biso   1.000  H
  H157     1.0000 0.84770  0.37160  0.64540  Biso   1.000  H
  H158     1.0000 0.96080  0.50950  0.70200  Biso   1.000  H
  H159     1.0000 0.86960  0.52170  0.67240  Biso   1.000  H
  H160     1.0000 0.85480  0.51320  0.72360  Biso   1.000  H
  C1       1.0000 0.00680  0.65260  0.76580  Biso   1.000  C
  C2       1.0000 0.07530  0.60890  0.76120  Biso   1.000  C
  C3       1.0000 0.16300  0.61910  0.73730  Biso   1.000  C
  C4       1.0000 0.22810  0.57710  0.73500  Biso   1.000  C
  C5       1.0000 0.20470  0.52590  0.75630  Biso   1.000  C
  C6       1.0000 0.11770  0.51840  0.77990  Biso   1.000  C
  C7       1.0000 0.05130  0.55750  0.78200  Biso   1.000  C
  C8       1.0000 0.27820  0.48200  0.75450  Biso   1.000  C
  C9       1.0000 0.37060  0.48970  0.77830  Biso   1.000  C
  C10      1.0000 0.44180  0.45410  0.77720  Biso   1.000  C
  C11      1.0000 0.42300  0.40580  0.75040  Biso   1.000  C
  C12      1.0000 0.33510  0.39700  0.72520  Biso   1.000  C
  C13      1.0000 0.26630  0.43590  0.72780  Biso   1.000  C
  C14      1.0000 0.49540  0.36540  0.74930  Biso   1.000  C
  C15      1.0000 0.76260  0.76650  0.34750  Biso   1.000  C
  C16      1.0000 0.80230  0.76170  0.39280  Biso   1.000  C
  C17      1.0000 0.83480  0.71270  0.40870  Biso   1.000  C
  C18      1.0000 0.86800  0.71030  0.45300  Biso   1.000  C
  C19      1.0000 0.86700  0.75290  0.48260  Biso   1.000  C
  C20      1.0000 0.83710  0.80210  0.46570  Biso   1.000  C
  C21      1.0000 0.80600  0.80600  0.42200  Biso   1.000  C
  C22      1.0000 0.89700  0.74920  0.53120  Biso   1.000  C
  C23      1.0000 0.82640  0.72590  0.56270  Biso   1.000  C
  C24      1.0000 0.85090  0.72420  0.60660  Biso   1.000  C
  C25      1.0000 0.94440  0.74730  0.62150  Biso   1.000  C
  C26      1.0000 0.01280  0.77210  0.59120  Biso   1.000  C
  C27      1.0000 0.98720  0.77190  0.54720  Biso   1.000  C
  C28      1.0000 0.97210  0.75110  0.67040  Biso   1.000  C
  C29      1.0000 0.04180  0.76740  0.84920  Biso   1.000  C
  C30      1.0000 0.06470  0.76390  0.89800  Biso   1.000  C
  C31      1.0000 0.99250  0.73830  0.92730  Biso   1.000  C
  C32      1.0000 0.01670  0.73310  0.97040  Biso   1.000  C
  C33      1.0000 0.11140  0.75070  0.98930  Biso   1.000  C
  C34      1.0000 0.18090  0.77530  0.95810  Biso   1.000  C
  C35      1.0000 0.15940  0.78190  0.91340  Biso   1.000  C
  C36      1.0000 0.13670  0.74090  0.03670  Biso   1.000  C
  C37      1.0000 0.16170  0.69020  0.05090  Biso   1.000  C
  C38      1.0000 0.19010  0.67970  0.09430  Biso   1.000  C
  C39      1.0000 0.19350  0.72210  0.12470  Biso   1.000  C
  C40      1.0000 0.16560  0.77280  0.11230  Biso   1.000  C
  C41      1.0000 0.13560  0.78080  0.06990  Biso   1.000  C
  C42      1.0000 0.23060  0.71410  0.17040  Biso   1.000  C
  C43      1.0000 0.70040  0.61600  0.73730  Biso   1.000  C
  C44      1.0000 0.62350  0.52690  0.70520  Biso   1.000  C
  C45      1.0000 0.60970  0.61750  0.66880  Biso   1.000  C
  C46      1.0000 0.70800  0.79220  0.70340  Biso   1.000  C
  C47      1.0000 0.54100  0.79660  0.71130  Biso   1.000  C
  C48      1.0000 0.60500  0.80860  0.63630  Biso   1.000  C
  C49      1.0000 0.29800  0.71760  0.81510  Biso   1.000  C
  C50      1.0000 0.47200  0.70790  0.80700  Biso   1.000  C
  C51      1.0000 0.39400  0.69000  0.87520  Biso   1.000  C
  C52      1.0000 0.30410  0.90240  0.77720  Biso   1.000  C
  C53      1.0000 0.38000  0.91010  0.85380  Biso   1.000  C
  C54      1.0000 0.38900  0.00160  0.80220  Biso   1.000  C
  C55      1.0000 0.49320  0.84740  0.26580  Biso   1.000  C
  C56      1.0000 0.42470  0.89110  0.26120  Biso   1.000  C
  C57      1.0000 0.33700  0.88090  0.23730  Biso   1.000  C
  C58      1.0000 0.27190  0.92290  0.23500  Biso   1.000  C
  C59      1.0000 0.29530  0.97410  0.25630  Biso   1.000  C
  C60      1.0000 0.38230  0.98160  0.27990  Biso   1.000  C
  C61      1.0000 0.44870  0.94250  0.28200  Biso   1.000  C
  C62      1.0000 0.22180  0.01800  0.25450  Biso   1.000  C
  C63      1.0000 0.12940  0.01030  0.27830  Biso   1.000  C
  C64      1.0000 0.05820  0.04590  0.27720  Biso   1.000  C
  C65      1.0000 0.07700  0.09420  0.25040  Biso   1.000  C
  C66      1.0000 0.16490  0.10300  0.22520  Biso   1.000  C
  C67      1.0000 0.23370  0.06410  0.22780  Biso   1.000  C
  C68      1.0000 0.00460  0.13460  0.24930  Biso   1.000  C
  C69      1.0000 0.73740  0.73350  0.84750  Biso   1.000  C
  C70      1.0000 0.69770  0.73830  0.89280  Biso   1.000  C
  C71      1.0000 0.66520  0.78730  0.90870  Biso   1.000  C
  C72      1.0000 0.63200  0.78970  0.95300  Biso   1.000  C
  C73      1.0000 0.63300  0.74710  0.98260  Biso   1.000  C
  C74      1.0000 0.66290  0.69790  0.96570  Biso   1.000  C
  C75      1.0000 0.69400  0.69400  0.92200  Biso   1.000  C
  C76      1.0000 0.60300  0.75080  0.03120  Biso   1.000  C
  C77      1.0000 0.67360  0.77410  0.06270  Biso   1.000  C
  C78      1.0000 0.64910  0.77580  0.10660  Biso   1.000  C
  C79      1.0000 0.55560  0.75270  0.12150  Biso   1.000  C
  C80      1.0000 0.48720  0.72790  0.09120  Biso   1.000  C
  C81      1.0000 0.51280  0.72810  0.04720  Biso   1.000  C
  C82      1.0000 0.52790  0.74890  0.17040  Biso   1.000  C
  C83      1.0000 0.45820  0.73260  0.34920  Biso   1.000  C
  C84      1.0000 0.43530  0.73610  0.39800  Biso   1.000  C
  C85      1.0000 0.50750  0.76170  0.42730  Biso   1.000  C
  C86      1.0000 0.48330  0.76690  0.47040  Biso   1.000  C
  C87      1.0000 0.38860  0.74930  0.48930  Biso   1.000  C
  C88      1.0000 0.31910  0.72470  0.45810  Biso   1.000  C
  C89      1.0000 0.34060  0.71810  0.41340  Biso   1.000  C
  C90      1.0000 0.36330  0.75910  0.53670  Biso   1.000  C
  C91      1.0000 0.33830  0.80980  0.55090  Biso   1.000  C
  C92      1.0000 0.30990  0.82030  0.59430  Biso   1.000  C
  C93      1.0000 0.30650  0.77790  0.62470  Biso   1.000  C
  C94      1.0000 0.33440  0.72720  0.61230  Biso   1.000  C
  C95      1.0000 0.36440  0.71920  0.56990  Biso   1.000  C
  C96      1.0000 0.26940  0.78590  0.67040  Biso   1.000  C
  C97      1.0000 0.79960  0.88400  0.23730  Biso   1.000  C
  C98      1.0000 0.87650  0.97310  0.20520  Biso   1.000  C
  C99      1.0000 0.89030  0.88250  0.16880  Biso   1.000  C
  C100     1.0000 0.79200  0.70780  0.20340  Biso   1.000  C
  C101     1.0000 0.95900  0.70340  0.21130  Biso   1.000  C
  C102     1.0000 0.89500  0.69140  0.13630  Biso   1.000  C
  C103     1.0000 0.20200  0.78240  0.31510  Biso   1.000  C
  C104     1.0000 0.02800  0.79210  0.30700  Biso   1.000  C
  C105     1.0000 0.10600  0.81000  0.37520  Biso   1.000  C
  C106     1.0000 0.19590  0.59760  0.27720  Biso   1.000  C
  C107     1.0000 0.12000  0.58990  0.35380  Biso   1.000  C
  C108     1.0000 0.11100  0.49840  0.30220  Biso   1.000  C
  C109     1.0000 0.99320  0.34740  0.23420  Biso   1.000  C
  C110     1.0000 0.92470  0.39110  0.23880  Biso   1.000  C
  C111     1.0000 0.83700  0.38090  0.26270  Biso   1.000  C
  C112     1.0000 0.77190  0.42290  0.26500  Biso   1.000  C
  C113     1.0000 0.79530  0.47410  0.24370  Biso   1.000  C
  C114     1.0000 0.88230  0.48160  0.22010  Biso   1.000  C
  C115     1.0000 0.94870  0.44250  0.21800  Biso   1.000  C
  C116     1.0000 0.72180  0.51800  0.24550  Biso   1.000  C
  C117     1.0000 0.62940  0.51030  0.22170  Biso   1.000  C
  C118     1.0000 0.55820  0.54590  0.22280  Biso   1.000  C
  C119     1.0000 0.57700  0.59420  0.24960  Biso   1.000  C
  C120     1.0000 0.66490  0.60300  0.27480  Biso   1.000  C
  C121     1.0000 0.73370  0.56410  0.27220  Biso   1.000  C
  C122     1.0000 0.50460  0.63460  0.25070  Biso   1.000  C
  C123     1.0000 0.23740  0.23350  0.65250  Biso   1.000  C
  C124     1.0000 0.19770  0.23830  0.60720  Biso   1.000  C
  C125     1.0000 0.16520  0.28730  0.59130  Biso   1.000  C
  C126     1.0000 0.13200  0.28970  0.54700  Biso   1.000  C
  C127     1.0000 0.13300  0.24710  0.51740  Biso   1.000  C
  C128     1.0000 0.16290  0.19790  0.53430  Biso   1.000  C
  C129     1.0000 0.19400  0.19400  0.57800  Biso   1.000  C
  C130     1.0000 0.10300  0.25080  0.46880  Biso   1.000  C
  C131     1.0000 0.17360  0.27410  0.43730  Biso   1.000  C
  C132     1.0000 0.14910  0.27580  0.39340  Biso   1.000  C
  C133     1.0000 0.05560  0.25270  0.37850  Biso   1.000  C
  C134     1.0000 0.98720  0.22790  0.40880  Biso   1.000  C
  C135     1.0000 0.01280  0.22810  0.45280  Biso   1.000  C
  C136     1.0000 0.02790  0.24890  0.32960  Biso   1.000  C
  C137     1.0000 0.95820  0.23260  0.15080  Biso   1.000  C
  C138     1.0000 0.93530  0.23610  0.10200  Biso   1.000  C
  C139     1.0000 0.00750  0.26170  0.07270  Biso   1.000  C
  C140     1.0000 0.98330  0.26690  0.02960  Biso   1.000  C
  C141     1.0000 0.88860  0.24930  0.01070  Biso   1.000  C
  C142     1.0000 0.81910  0.22470  0.04190  Biso   1.000  C
  C143     1.0000 0.84060  0.21810  0.08660  Biso   1.000  C
  C144     1.0000 0.86330  0.25910  0.96330  Biso   1.000  C
  C145     1.0000 0.83830  0.30980  0.94910  Biso   1.000  C
  C146     1.0000 0.80990  0.32030  0.90570  Biso   1.000  C
  C147     1.0000 0.80650  0.27790  0.87530  Biso   1.000  C
  C148     1.0000 0.83440  0.22720  0.88770  Biso   1.000  C
  C149     1.0000 0.86440  0.21920  0.93010  Biso   1.000  C
  C150     1.0000 0.76940  0.28590  0.82960  Biso   1.000  C
  C151     1.0000 0.29960  0.38400  0.26270  Biso   1.000  C
  C152     1.0000 0.37650  0.47310  0.29480  Biso   1.000  C
  C153     1.0000 0.39030  0.38250  0.33120  Biso   1.000  C
  C154     1.0000 0.29200  0.20780  0.29660  Biso   1.000  C
  C155     1.0000 0.45900  0.20340  0.28870  Biso   1.000  C
  C156     1.0000 0.39500  0.19140  0.36370  Biso   1.000  C
  C157     1.0000 0.70200  0.28240  0.18490  Biso   1.000  C
  C158     1.0000 0.52800  0.29210  0.19300  Biso   1.000  C
  C159     1.0000 0.60600  0.31000  0.12480  Biso   1.000  C
  C160     1.0000 0.69590  0.09760  0.22280  Biso   1.000  C
  C161     1.0000 0.62000  0.08990  0.14620  Biso   1.000  C
  C162     1.0000 0.61100  0.99840  0.19780  Biso   1.000  C
  C163     1.0000 0.50680  0.15260  0.73420  Biso   1.000  C
  C164     1.0000 0.57530  0.10890  0.73880  Biso   1.000  C
  C165     1.0000 0.66300  0.11910  0.76270  Biso   1.000  C
  C166     1.0000 0.72810  0.07710  0.76500  Biso   1.000  C
  C167     1.0000 0.70470  0.02590  0.74370  Biso   1.000  C
  C168     1.0000 0.61770  0.01840  0.72010  Biso   1.000  C
  C169     1.0000 0.55130  0.05750  0.71800  Biso   1.000  C
  C170     1.0000 0.77820  0.98200  0.74550  Biso   1.000  C
  C171     1.0000 0.87060  0.98970  0.72170  Biso   1.000  C
  C172     1.0000 0.94180  0.95410  0.72280  Biso   1.000  C
  C173     1.0000 0.92300  0.90580  0.74960  Biso   1.000  C
  C174     1.0000 0.83510  0.89700  0.77480  Biso   1.000  C
  C175     1.0000 0.76630  0.93590  0.77220  Biso   1.000  C
  C176     1.0000 0.99540  0.86540  0.75070  Biso   1.000  C
  C177     1.0000 0.26260  0.26650  0.15250  Biso   1.000  C
  C178     1.0000 0.30230  0.26170  0.10720  Biso   1.000  C
  C179     1.0000 0.33480  0.21270  0.09130  Biso   1.000  C
  C180     1.0000 0.36800  0.21030  0.04700  Biso   1.000  C
  C181     1.0000 0.36700  0.25290  0.01740  Biso   1.000  C
  C182     1.0000 0.33710  0.30210  0.03430  Biso   1.000  C
  C183     1.0000 0.30600  0.30600  0.07800  Biso   1.000  C
  C184     1.0000 0.39700  0.24920  0.96880  Biso   1.000  C
  C185     1.0000 0.32640  0.22590  0.93730  Biso   1.000  C
  C186     1.0000 0.35090  0.22420  0.89340  Biso   1.000  C
  C187     1.0000 0.44440  0.24730  0.87850  Biso   1.000  C
  C188     1.0000 0.51280  0.27210  0.90880  Biso   1.000  C
  C189     1.0000 0.48720  0.27190  0.95280  Biso   1.000  C
  C190     1.0000 0.47210  0.25110  0.82960  Biso   1.000  C
  C191     1.0000 0.54180  0.26740  0.65080  Biso   1.000  C
  C192     1.0000 0.56470  0.26390  0.60200  Biso   1.000  C
  C193     1.0000 0.49250  0.23830  0.57270  Biso   1.000  C
  C194     1.0000 0.51670  0.23310  0.52960  Biso   1.000  C
  C195     1.0000 0.61140  0.25070  0.51070  Biso   1.000  C
  C196     1.0000 0.68090  0.27530  0.54190  Biso   1.000  C
  C197     1.0000 0.65940  0.28190  0.58660  Biso   1.000  C
  C198     1.0000 0.63670  0.24090  0.46330  Biso   1.000  C
  C199     1.0000 0.66170  0.19020  0.44910  Biso   1.000  C
  C200     1.0000 0.69010  0.17970  0.40570  Biso   1.000  C
  C201     1.0000 0.69350  0.22210  0.37530  Biso   1.000  C
  C202     1.0000 0.66560  0.27280  0.38770  Biso   1.000  C
  C203     1.0000 0.63560  0.28080  0.43010  Biso   1.000  C
  C204     1.0000 0.73060  0.21410  0.32960  Biso   1.000  C
  C205     1.0000 0.20040  0.11600  0.76270  Biso   1.000  C
  C206     1.0000 0.12350  0.02690  0.79480  Biso   1.000  C
  C207     1.0000 0.10970  0.11750  0.83120  Biso   1.000  C
  C208     1.0000 0.20800  0.29220  0.79660  Biso   1.000  C
  C209     1.0000 0.04100  0.29660  0.78870  Biso   1.000  C
  C210     1.0000 0.10500  0.30860  0.86370  Biso   1.000  C
  C211     1.0000 0.79800  0.21760  0.68490  Biso   1.000  C
  C212     1.0000 0.97200  0.20790  0.69300  Biso   1.000  C
  C213     1.0000 0.89400  0.19000  0.62480  Biso   1.000  C
  C214     1.0000 0.80410  0.40240  0.72280  Biso   1.000  C
  C215     1.0000 0.88000  0.41010  0.64620  Biso   1.000  C
  C216     1.0000 0.88900  0.50160  0.69780  Biso   1.000  C
  N1       1.0000 0.32260  0.58860  0.70880  Biso   1.000  N
  N2       1.0000 0.08950  0.46560  0.80440  Biso   1.000  N
  N3       1.0000 0.39620  0.54060  0.80810  Biso   1.000  N
  N4       1.0000 0.17630  0.42380  0.69980  Biso   1.000  N
  N5       1.0000 0.90280  0.65580  0.46570  Biso   1.000  N
  N6       1.0000 0.84070  0.85160  0.49330  Biso   1.000  N
  N7       1.0000 0.72200  0.70120  0.55090  Biso   1.000  N
  N8       1.0000 0.06510  0.80380  0.51810  Biso   1.000  N
  N9       1.0000 0.93820  0.70210  0.00060  Biso   1.000  N
  N10      1.0000 0.28590  0.79680  0.97320  Biso   1.000  N
  N11      1.0000 0.15870  0.64180  0.02070  Biso   1.000  N
  N12      1.0000 0.10240  0.83570  0.05910  Biso   1.000  N
  N13      1.0000 0.64680  0.58880  0.70600  Biso   1.000  N
  N14      1.0000 0.63270  0.80050  0.68160  Biso   1.000  N
  N15      1.0000 0.38200  0.71360  0.83210  Biso   1.000  N
  N16      1.0000 0.35730  0.93650  0.80950  Biso   1.000  N
  N17      1.0000 0.17740  0.91140  0.20880  Biso   1.000  N
  N18      1.0000 0.41050  0.03440  0.30440  Biso   1.000  N
  N19      1.0000 0.10380  0.95940  0.30810  Biso   1.000  N
  N20      1.0000 0.32370  0.07620  0.19980  Biso   1.000  N
  N21      1.0000 0.59720  0.84420  0.96570  Biso   1.000  N
  N22      1.0000 0.65930  0.64840  0.99330  Biso   1.000  N
  N23      1.0000 0.77800  0.79880  0.05090  Biso   1.000  N
  N24      1.0000 0.43490  0.69620  0.01810  Biso   1.000  N
  N25      1.0000 0.56180  0.79790  0.50060  Biso   1.000  N
  N26      1.0000 0.21410  0.70320  0.47320  Biso   1.000  N
  N27      1.0000 0.34130  0.85820  0.52070  Biso   1.000  N
  N28      1.0000 0.39760  0.66430  0.55910  Biso   1.000  N
  N29      1.0000 0.85320  0.91120  0.20600  Biso   1.000  N
  N30      1.0000 0.86730  0.69950  0.18160  Biso   1.000  N
  N31      1.0000 0.11800  0.78640  0.33210  Biso   1.000  N
  N32      1.0000 0.14270  0.56350  0.30950  Biso   1.000  N
  N33      1.0000 0.67740  0.41140  0.29120  Biso   1.000  N
  N34      1.0000 0.91050  0.53440  0.19560  Biso   1.000  N
  N35      1.0000 0.60380  0.45940  0.19190  Biso   1.000  N
  N36      1.0000 0.82370  0.57620  0.30020  Biso   1.000  N
  N37      1.0000 0.09720  0.34420  0.53430  Biso   1.000  N
  N38      1.0000 0.15930  0.14840  0.50670  Biso   1.000  N
  N39      1.0000 0.27800  0.29880  0.44910  Biso   1.000  N
  N40      1.0000 0.93490  0.19620  0.48190  Biso   1.000  N
  N41      1.0000 0.06180  0.29790  0.99940  Biso   1.000  N
  N42      1.0000 0.71410  0.20320  0.02680  Biso   1.000  N
  N43      1.0000 0.84130  0.35820  0.97930  Biso   1.000  N
  N44      1.0000 0.89760  0.16430  0.94090  Biso   1.000  N
  N45      1.0000 0.35320  0.41120  0.29400  Biso   1.000  N
  N46      1.0000 0.36730  0.19950  0.31840  Biso   1.000  N
  N47      1.0000 0.61800  0.28640  0.16790  Biso   1.000  N
  N48      1.0000 0.64270  0.06350  0.19050  Biso   1.000  N
  N49      1.0000 0.82260  0.08860  0.79120  Biso   1.000  N
  N50      1.0000 0.58950  0.96560  0.69560  Biso   1.000  N
  N51      1.0000 0.89620  0.04060  0.69190  Biso   1.000  N
  N52      1.0000 0.67630  0.92380  0.80020  Biso   1.000  N
  N53      1.0000 0.40280  0.15580  0.03430  Biso   1.000  N
  N54      1.0000 0.34070  0.35160  0.00670  Biso   1.000  N
  N55      1.0000 0.22200  0.20120  0.94910  Biso   1.000  N
  N56      1.0000 0.56510  0.30380  0.98190  Biso   1.000  N
  N57      1.0000 0.43820  0.20210  0.49940  Biso   1.000  N
  N58      1.0000 0.78590  0.29680  0.52680  Biso   1.000  N
  N59      1.0000 0.65870  0.14180  0.47930  Biso   1.000  N
  N60      1.0000 0.60240  0.33570  0.44090  Biso   1.000  N
  N61      1.0000 0.14680  0.08880  0.79400  Biso   1.000  N
  N62      1.0000 0.13270  0.30050  0.81840  Biso   1.000  N
  N63      1.0000 0.88200  0.21360  0.66790  Biso   1.000  N
  N64      1.0000 0.85730  0.43650  0.69050  Biso   1.000  N
  O1       1.0000 0.91700  0.63830  0.77520  Biso   1.000  O
  O2       1.0000 0.04600  0.70390  0.75800  Biso   1.000  O
  O3       1.0000 0.58760  0.38130  0.75890  Biso   1.000  O
  O4       1.0000 0.46480  0.31490  0.73800  Biso   1.000  O
  O5       1.0000 0.35860  0.63510  0.70350  Biso   1.000  O
  O6       1.0000 0.35380  0.55230  0.68890  Biso   1.000  O
  O7       1.0000 0.00030  0.45130  0.81230  Biso   1.000  O
  O8       1.0000 0.15100  0.43800  0.81740  Biso   1.000  O
  O9       1.0000 0.33080  0.55950  0.82530  Biso   1.000  O
  O10      1.0000 0.48270  0.55820  0.81160  Biso   1.000  O
  O11      1.0000 0.09930  0.43510  0.71170  Biso   1.000  O
  O12      1.0000 0.17540  0.39920  0.66800  Biso   1.000  O
  O13      1.0000 0.73810  0.72160  0.32610  Biso   1.000  O
  O14      1.0000 0.74820  0.81380  0.33390  Biso   1.000  O
  O15      1.0000 0.89860  0.72640  0.69570  Biso   1.000  O
  O16      1.0000 0.05220  0.77630  0.68120  Biso   1.000  O
  O17      1.0000 0.90380  0.62000  0.43810  Biso   1.000  O
  O18      1.0000 0.93540  0.65180  0.50200  Biso   1.000  O
  O19      1.0000 0.83660  0.84910  0.53220  Biso   1.000  O
  O20      1.0000 0.85160  0.89540  0.47730  Biso   1.000  O
  O21      1.0000 0.70070  0.69690  0.51350  Biso   1.000  O
  O22      1.0000 0.65840  0.69190  0.57840  Biso   1.000  O
  O23      1.0000 0.06230  0.79520  0.47850  Biso   1.000  O
  O24      1.0000 0.12750  0.84060  0.53450  Biso   1.000  O
  O25      1.0000 0.95630  0.74260  0.83680  Biso   1.000  O
  O26      1.0000 0.11000  0.79150  0.82500  Biso   1.000  O
  O27      1.0000 0.25330  0.75780  0.19430  Biso   1.000  O
  O28      1.0000 0.24800  0.66760  0.18360  Biso   1.000  O
  O29      1.0000 0.87680  0.66220  0.97970  Biso   1.000  O
  O30      1.0000 0.93940  0.70250  0.03730  Biso   1.000  O
  O31      1.0000 0.34940  0.81370  0.94350  Biso   1.000  O
  O32      1.0000 0.31040  0.79330  0.01130  Biso   1.000  O
  O33      1.0000 0.16910  0.65040  0.98140  Biso   1.000  O
  O34      1.0000 0.15000  0.59520  0.03570  Biso   1.000  O
  O35      1.0000 0.08450  0.84790  0.02260  Biso   1.000  O
  O36      1.0000 0.07840  0.86240  0.09030  Biso   1.000  O
  O37      1.0000 0.72400  0.66650  0.73870  Biso   1.000  O
  O38      1.0000 0.74280  0.78510  0.73380  Biso   1.000  O
  O39      1.0000 0.26670  0.73790  0.78590  Biso   1.000  O
  O40      1.0000 0.28070  0.85390  0.78040  Biso   1.000  O
  O41      1.0000 0.58300  0.86170  0.27520  Biso   1.000  O
  O42      1.0000 0.45400  0.79610  0.25800  Biso   1.000  O
  O43      1.0000 0.91240  0.11870  0.25890  Biso   1.000  O
  O44      1.0000 0.03520  0.18510  0.23800  Biso   1.000  O
  O45      1.0000 0.14140  0.86490  0.20350  Biso   1.000  O
  O46      1.0000 0.14620  0.94770  0.18890  Biso   1.000  O
  O47      1.0000 0.49970  0.04870  0.31230  Biso   1.000  O
  O48      1.0000 0.34900  0.06200  0.31740  Biso   1.000  O
  O49      1.0000 0.16920  0.94050  0.32530  Biso   1.000  O
  O50      1.0000 0.01730  0.94180  0.31160  Biso   1.000  O
  O51      1.0000 0.40070  0.06490  0.21170  Biso   1.000  O
  O52      1.0000 0.32460  0.10080  0.16800  Biso   1.000  O
  O53      1.0000 0.76190  0.77840  0.82610  Biso   1.000  O
  O54      1.0000 0.75180  0.68620  0.83390  Biso   1.000  O
  O55      1.0000 0.60140  0.77360  0.19570  Biso   1.000  O
  O56      1.0000 0.44780  0.72370  0.18120  Biso   1.000  O
  O57      1.0000 0.59620  0.88000  0.93810  Biso   1.000  O
  O58      1.0000 0.56460  0.84820  0.00200  Biso   1.000  O
  O59      1.0000 0.66340  0.65090  0.03220  Biso   1.000  O
  O60      1.0000 0.64840  0.60460  0.97730  Biso   1.000  O
  O61      1.0000 0.79930  0.80310  0.01350  Biso   1.000  O
  O62      1.0000 0.84160  0.80810  0.07840  Biso   1.000  O
  O63      1.0000 0.43770  0.70480  0.97850  Biso   1.000  O
  O64      1.0000 0.37250  0.65940  0.03450  Biso   1.000  O
  O65      1.0000 0.54370  0.75740  0.33680  Biso   1.000  O
  O66      1.0000 0.39000  0.70850  0.32500  Biso   1.000  O
  O67      1.0000 0.24670  0.74220  0.69430  Biso   1.000  O
  O68      1.0000 0.25200  0.83240  0.68360  Biso   1.000  O
  O69      1.0000 0.62320  0.83780  0.47970  Biso   1.000  O
  O70      1.0000 0.56060  0.79750  0.53730  Biso   1.000  O
  O71      1.0000 0.15060  0.68630  0.44350  Biso   1.000  O
  O72      1.0000 0.18960  0.70670  0.51130  Biso   1.000  O
  O73      1.0000 0.33090  0.84960  0.48140  Biso   1.000  O
  O74      1.0000 0.35000  0.90480  0.53570  Biso   1.000  O
  O75      1.0000 0.41550  0.65210  0.52260  Biso   1.000  O
  O76      1.0000 0.42160  0.63760  0.59030  Biso   1.000  O
  O77      1.0000 0.77600  0.83350  0.23870  Biso   1.000  O
  O78      1.0000 0.75720  0.71490  0.23380  Biso   1.000  O
  O79      1.0000 0.23330  0.76210  0.28590  Biso   1.000  O
  O80      1.0000 0.21930  0.64610  0.28040  Biso   1.000  O
  O81      1.0000 0.08300  0.36170  0.22480  Biso   1.000  O
  O82      1.0000 0.95400  0.29610  0.24200  Biso   1.000  O
  O83      1.0000 0.41240  0.61870  0.24110  Biso   1.000  O
  O84      1.0000 0.53520  0.68510  0.26200  Biso   1.000  O
  O85      1.0000 0.64140  0.36490  0.29650  Biso   1.000  O
  O86      1.0000 0.64620  0.44770  0.31110  Biso   1.000  O
  O87      1.0000 0.99970  0.54870  0.18770  Biso   1.000  O
  O88      1.0000 0.84900  0.56200  0.18260  Biso   1.000  O
  O89      1.0000 0.66920  0.44050  0.17470  Biso   1.000  O
  O90      1.0000 0.51730  0.44180  0.18840  Biso   1.000  O
  O91      1.0000 0.90070  0.56490  0.28830  Biso   1.000  O
  O92      1.0000 0.82460  0.60080  0.33200  Biso   1.000  O
  O93      1.0000 0.26190  0.27840  0.67390  Biso   1.000  O
  O94      1.0000 0.25180  0.18620  0.66610  Biso   1.000  O
  O95      1.0000 0.10140  0.27360  0.30430  Biso   1.000  O
  O96      1.0000 0.94780  0.22370  0.31880  Biso   1.000  O
  O97      1.0000 0.09620  0.38000  0.56190  Biso   1.000  O
  O98      1.0000 0.06460  0.34820  0.49800  Biso   1.000  O
  O99      1.0000 0.16340  0.15090  0.46780  Biso   1.000  O
  O100     1.0000 0.14840  0.10460  0.52270  Biso   1.000  O
  O101     1.0000 0.29930  0.30310  0.48650  Biso   1.000  O
  O102     1.0000 0.34160  0.30810  0.42160  Biso   1.000  O
  O103     1.0000 0.93770  0.20480  0.52150  Biso   1.000  O
  O104     1.0000 0.87250  0.15940  0.46550  Biso   1.000  O
  O105     1.0000 0.04370  0.25740  0.16320  Biso   1.000  O
  O106     1.0000 0.89000  0.20850  0.17500  Biso   1.000  O
  O107     1.0000 0.74670  0.24220  0.80570  Biso   1.000  O
  O108     1.0000 0.75200  0.33240  0.81640  Biso   1.000  O
  O109     1.0000 0.12320  0.33780  0.02030  Biso   1.000  O
  O110     1.0000 0.06060  0.29750  0.96270  Biso   1.000  O
  O111     1.0000 0.65060  0.18630  0.05650  Biso   1.000  O
  O112     1.0000 0.68960  0.20670  0.98870  Biso   1.000  O
  O113     1.0000 0.83090  0.34960  0.01860  Biso   1.000  O
  O114     1.0000 0.85000  0.40480  0.96430  Biso   1.000  O
  O115     1.0000 0.91550  0.15210  0.97740  Biso   1.000  O
  O116     1.0000 0.92160  0.13760  0.90970  Biso   1.000  O
  O117     1.0000 0.27600  0.33350  0.26130  Biso   1.000  O
  O118     1.0000 0.25720  0.21490  0.26620  Biso   1.000  O
  O119     1.0000 0.73330  0.26210  0.21410  Biso   1.000  O
  O120     1.0000 0.71930  0.14610  0.21960  Biso   1.000  O
  O121     1.0000 0.41700  0.13830  0.72480  Biso   1.000  O
  O122     1.0000 0.54600  0.20390  0.74200  Biso   1.000  O
  O123     1.0000 0.08760  0.88130  0.74110  Biso   1.000  O
  O124     1.0000 0.96480  0.81490  0.76200  Biso   1.000  O
  O125     1.0000 0.85860  0.13510  0.79650  Biso   1.000  O
  O126     1.0000 0.85380  0.05230  0.81110  Biso   1.000  O
  O127     1.0000 0.50030  0.95130  0.68770  Biso   1.000  O
  O128     1.0000 0.65100  0.93800  0.68260  Biso   1.000  O
  O129     1.0000 0.83080  0.05950  0.67470  Biso   1.000  O
  O130     1.0000 0.98270  0.05820  0.68840  Biso   1.000  O
  O131     1.0000 0.59930  0.93510  0.78830  Biso   1.000  O
  O132     1.0000 0.67540  0.89920  0.83200  Biso   1.000  O
  O133     1.0000 0.23810  0.22160  0.17390  Biso   1.000  O
  O134     1.0000 0.24820  0.31380  0.16610  Biso   1.000  O
  O135     1.0000 0.39860  0.22640  0.80430  Biso   1.000  O
  O136     1.0000 0.55220  0.27630  0.81880  Biso   1.000  O
  O137     1.0000 0.40380  0.12000  0.06190  Biso   1.000  O
  O138     1.0000 0.43540  0.15180  0.99800  Biso   1.000  O
  O139     1.0000 0.33660  0.34910  0.96780  Biso   1.000  O
  O140     1.0000 0.35160  0.39540  0.02270  Biso   1.000  O
  O141     1.0000 0.20070  0.19690  0.98650  Biso   1.000  O
  O142     1.0000 0.15840  0.19190  0.92160  Biso   1.000  O
  O143     1.0000 0.56230  0.29520  0.02150  Biso   1.000  O
  O144     1.0000 0.62750  0.34060  0.96550  Biso   1.000  O
  O145     1.0000 0.45630  0.24260  0.66320  Biso   1.000  O
  O146     1.0000 0.61000  0.29150  0.67500  Biso   1.000  O
  O147     1.0000 0.75330  0.25780  0.30570  Biso   1.000  O
  O148     1.0000 0.74800  0.16760  0.31640  Biso   1.000  O
  O149     1.0000 0.37680  0.16220  0.52030  Biso   1.000  O
  O150     1.0000 0.43940  0.20250  0.46270  Biso   1.000  O
  O151     1.0000 0.84940  0.31370  0.55650  Biso   1.000  O
  O152     1.0000 0.81040  0.29330  0.48870  Biso   1.000  O
  O153     1.0000 0.66910  0.15040  0.51860  Biso   1.000  O
  O154     1.0000 0.65000  0.09520  0.46430  Biso   1.000  O
  O155     1.0000 0.58450  0.34790  0.47740  Biso   1.000  O
  O156     1.0000 0.57840  0.36240  0.40970  Biso   1.000  O
  O157     1.0000 0.22400  0.16650  0.76130  Biso   1.000  O
  O158     1.0000 0.24280  0.28510  0.76620  Biso   1.000  O
  O159     1.0000 0.76670  0.23790  0.71410  Biso   1.000  O
  O160     1.0000 0.78070  0.35390  0.71960  Biso   1.000  O
