data_image0
_cell_length_a       14.392
_cell_length_b       16.669
_cell_length_c       19.637
_cell_angle_alpha    105.471
_cell_angle_beta     96.286
_cell_angle_gamma    95.1

_symmetry_space_group_name_H-M    P 1
_symmetry_int_tables_number       1

loop_
  _symmetry_equiv_pos_as_xyz
  'x, y, z'

loop_
  _atom_site_label
  _atom_site_occupancy
  _atom_site_fract_x
  _atom_site_fract_y
  _atom_site_fract_z
  _atom_site_thermal_displace_type
  _atom_site_B_iso_or_equiv
  _atom_site_type_symbol
  Gd1      1.0000 0.87328  0.95328  0.94255  Biso   1.000  Gd
  Gd2      1.0000 0.36170  0.45887  0.49040  Biso   1.000  Gd
  Gd3      1.0000 0.12672  0.04672  0.05745  Biso   1.000  Gd
  Gd4      1.0000 0.63830  0.54113  0.50960  Biso   1.000  Gd
  H1       1.0000 0.92430  0.13080  0.81550  Biso   1.000  H
  H2       1.0000 0.15650  0.24580  0.94930  Biso   1.000  H
  H3       1.0000 0.24520  0.24460  0.59720  Biso   1.000  H
  H4       1.0000 0.14800  0.46360  0.67480  Biso   1.000  H
  H5       1.0000 0.78640  0.10280  0.07390  Biso   1.000  H
  H6       1.0000 0.92560  0.08220  0.25620  Biso   1.000  H
  H7       1.0000 0.65070  0.39160  0.37160  Biso   1.000  H
  H8       1.0000 0.45400  0.19690  0.33810  Biso   1.000  H
  H9       1.0000 0.70520  0.42940  0.67870  Biso   1.000  H
  H10      1.0000 0.43330  0.35260  0.67910  Biso   1.000  H
  H11      1.0000 0.70150  0.03640  0.75460  Biso   1.000  H
  H12      1.0000 0.69370  0.19500  0.94570  Biso   1.000  H
  H13      1.0000 0.63000  0.90000  0.96440  Biso   1.000  H
  H14      1.0000 0.51280  0.83370  0.07620  Biso   1.000  H
  H15      1.0000 0.51590  0.93130  0.09210  Biso   1.000  H
  H16      1.0000 0.50200  0.87470  0.01300  Biso   1.000  H
  H17      1.0000 0.75380  0.91600  0.12660  Biso   1.000  H
  H18      1.0000 0.66510  0.92970  0.16610  Biso   1.000  H
  H19      1.0000 0.68950  0.83870  0.13390  Biso   1.000  H
  H20      1.0000 0.71800  0.83960  0.79710  Biso   1.000  H
  H21      1.0000 0.66050  0.71230  0.71940  Biso   1.000  H
  H22      1.0000 0.70820  0.59230  0.74240  Biso   1.000  H
  H23      1.0000 0.87990  0.74200  0.91160  Biso   1.000  H
  H24      1.0000 0.89630  0.59520  0.88030  Biso   1.000  H
  H25      1.0000 0.19340  0.29880  0.39160  Biso   1.000  H
  H26      1.0000 0.01270  0.42860  0.35060  Biso   1.000  H
  H27      1.0000 0.03040  0.39030  0.27180  Biso   1.000  H
  H28      1.0000 0.10960  0.45220  0.32680  Biso   1.000  H
  H29      1.0000 0.03040  0.24580  0.25660  Biso   1.000  H
  H30      1.0000 0.98190  0.25350  0.32530  Biso   1.000  H
  H31      1.0000 0.07570  0.21270  0.31850  Biso   1.000  H
  H32      1.0000 0.37190  0.66940  0.47610  Biso   1.000  H
  H33      1.0000 0.28510  0.77430  0.46130  Biso   1.000  H
  H34      1.0000 0.12500  0.75680  0.46210  Biso   1.000  H
  H35      1.0000 0.14890  0.53500  0.50130  Biso   1.000  H
  H36      1.0000 0.98840  0.69770  0.49010  Biso   1.000  H
  H37      1.0000 0.07570  0.86920  0.18450  Biso   1.000  H
  H38      1.0000 0.84350  0.75420  0.05070  Biso   1.000  H
  H39      1.0000 0.75480  0.75540  0.40280  Biso   1.000  H
  H40      1.0000 0.85200  0.53640  0.32520  Biso   1.000  H
  H41      1.0000 0.21360  0.89720  0.92610  Biso   1.000  H
  H42      1.0000 0.07440  0.91780  0.74380  Biso   1.000  H
  H43      1.0000 0.34930  0.60840  0.62840  Biso   1.000  H
  H44      1.0000 0.54600  0.80310  0.66190  Biso   1.000  H
  H45      1.0000 0.29480  0.57060  0.32130  Biso   1.000  H
  H46      1.0000 0.56670  0.64740  0.32090  Biso   1.000  H
  H47      1.0000 0.29850  0.96360  0.24540  Biso   1.000  H
  H48      1.0000 0.30630  0.80500  0.05430  Biso   1.000  H
  H49      1.0000 0.37000  0.10000  0.03560  Biso   1.000  H
  H50      1.0000 0.48720  0.16630  0.92380  Biso   1.000  H
  H51      1.0000 0.48410  0.06870  0.90790  Biso   1.000  H
  H52      1.0000 0.49800  0.12530  0.98700  Biso   1.000  H
  H53      1.0000 0.24620  0.08400  0.87340  Biso   1.000  H
  H54      1.0000 0.33490  0.07030  0.83390  Biso   1.000  H
  H55      1.0000 0.31050  0.16130  0.86610  Biso   1.000  H
  H56      1.0000 0.28200  0.16040  0.20290  Biso   1.000  H
  H57      1.0000 0.33950  0.28770  0.28060  Biso   1.000  H
  H58      1.0000 0.29180  0.40770  0.25760  Biso   1.000  H
  H59      1.0000 0.12010  0.25800  0.08840  Biso   1.000  H
  H60      1.0000 0.10370  0.40480  0.11970  Biso   1.000  H
  H61      1.0000 0.80660  0.70120  0.60840  Biso   1.000  H
  H62      1.0000 0.98730  0.57140  0.64940  Biso   1.000  H
  H63      1.0000 0.96960  0.60970  0.72820  Biso   1.000  H
  H64      1.0000 0.89040  0.54780  0.67320  Biso   1.000  H
  H65      1.0000 0.96960  0.75420  0.74340  Biso   1.000  H
  H66      1.0000 0.01810  0.74650  0.67470  Biso   1.000  H
  H67      1.0000 0.92430  0.78730  0.68150  Biso   1.000  H
  H68      1.0000 0.62810  0.33060  0.52390  Biso   1.000  H
  H69      1.0000 0.71490  0.22570  0.53870  Biso   1.000  H
  H70      1.0000 0.87500  0.24320  0.53790  Biso   1.000  H
  H71      1.0000 0.85110  0.46500  0.49870  Biso   1.000  H
  H72      1.0000 0.01160  0.30230  0.50990  Biso   1.000  H
  C1       1.0000 0.01200  0.13000  0.94000  Biso   1.000  C
  C2       1.0000 0.03700  0.18000  0.89000  Biso   1.000  C
  C3       1.0000 0.98000  0.16700  0.82600  Biso   1.000  C
  C4       1.0000 0.00600  0.20800  0.77700  Biso   1.000  C
  C5       1.0000 0.09000  0.26200  0.78900  Biso   1.000  C
  C6       1.0000 0.14500  0.27300  0.85500  Biso   1.000  C
  C7       1.0000 0.11900  0.23500  0.90500  Biso   1.000  C
  C8       1.0000 0.12600  0.29700  0.73200  Biso   1.000  C
  C9       1.0000 0.17500  0.24800  0.68100  Biso   1.000  C
  C10      1.0000 0.21300  0.27900  0.63000  Biso   1.000  C
  C11      1.0000 0.20400  0.35900  0.62800  Biso   1.000  C
  C12      1.0000 0.15500  0.40900  0.67700  Biso   1.000  C
  C13      1.0000 0.11700  0.37800  0.72800  Biso   1.000  C
  C14      1.0000 0.24900  0.39300  0.57400  Biso   1.000  C
  C15      1.0000 0.95500  0.07200  0.12300  Biso   1.000  C
  C16      1.0000 0.86900  0.09100  0.15900  Biso   1.000  C
  C17      1.0000 0.79100  0.10900  0.12300  Biso   1.000  C
  C18      1.0000 0.71700  0.13800  0.16200  Biso   1.000  C
  C19      1.0000 0.71900  0.14900  0.23100  Biso   1.000  C
  C20      1.0000 0.79800  0.12000  0.26600  Biso   1.000  C
  C21      1.0000 0.87300  0.09600  0.23200  Biso   1.000  C
  C22      1.0000 0.65500  0.19900  0.27600  Biso   1.000  C
  C23      1.0000 0.68100  0.28100  0.30700  Biso   1.000  C
  C24      1.0000 0.62900  0.33500  0.35200  Biso   1.000  C
  C25      1.0000 0.54500  0.30000  0.36400  Biso   1.000  C
  C26      1.0000 0.51300  0.21900  0.33200  Biso   1.000  C
  C27      1.0000 0.56800  0.16900  0.28900  Biso   1.000  C
  C28      1.0000 0.48700  0.35400  0.41300  Biso   1.000  C
  C29      1.0000 0.53700  0.45200  0.62200  Biso   1.000  C
  C30      1.0000 0.56400  0.40100  0.67200  Biso   1.000  C
  C31      1.0000 0.65900  0.39700  0.69300  Biso   1.000  C
  C32      1.0000 0.68400  0.34500  0.73400  Biso   1.000  C
  C33      1.0000 0.61800  0.29200  0.75400  Biso   1.000  C
  C34      1.0000 0.52500  0.29900  0.73200  Biso   1.000  C
  C35      1.0000 0.49700  0.35100  0.69200  Biso   1.000  C
  C36      1.0000 0.64600  0.22700  0.79000  Biso   1.000  C
  C37      1.0000 0.66400  0.14800  0.75100  Biso   1.000  C
  C38      1.0000 0.69200  0.08900  0.78300  Biso   1.000  C
  C39      1.0000 0.70500  0.10500  0.85500  Biso   1.000  C
  C40      1.0000 0.68600  0.18300  0.89600  Biso   1.000  C
  C41      1.0000 0.65800  0.24000  0.86300  Biso   1.000  C
  C42      1.0000 0.74500  0.04400  0.89000  Biso   1.000  C
  C43      1.0000 0.67100  0.90200  0.00500  Biso   1.000  C
  C44      1.0000 0.53300  0.88200  0.06100  Biso   1.000  C
  C45      1.0000 0.69000  0.89400  0.12700  Biso   1.000  C
  C46      1.0000 0.74000  0.79200  0.80600  Biso   1.000  C
  C47      1.0000 0.70400  0.71600  0.75900  Biso   1.000  C
  C48      1.0000 0.73300  0.64500  0.77100  Biso   1.000  C
  C49      1.0000 0.80100  0.65600  0.82900  Biso   1.000  C
  C50      1.0000 0.83400  0.73600  0.87300  Biso   1.000  C
  C51      1.0000 0.84500  0.58500  0.84500  Biso   1.000  C
  C52      1.0000 0.17300  0.34600  0.38200  Biso   1.000  C
  C53      1.0000 0.05900  0.40800  0.32100  Biso   1.000  C
  C54      1.0000 0.04100  0.25500  0.30700  Biso   1.000  C
  C55      1.0000 0.30700  0.66200  0.47700  Biso   1.000  C
  C56      1.0000 0.25600  0.72600  0.46900  Biso   1.000  C
  C57      1.0000 0.16200  0.71600  0.47100  Biso   1.000  C
  C58      1.0000 0.12300  0.64900  0.48500  Biso   1.000  C
  C59      1.0000 0.17900  0.58300  0.49300  Biso   1.000  C
  C60      1.0000 0.02000  0.65200  0.49100  Biso   1.000  C
  C61      1.0000 0.98800  0.87000  0.06000  Biso   1.000  C
  C62      1.0000 0.96300  0.82000  0.11000  Biso   1.000  C
  C63      1.0000 0.02000  0.83300  0.17400  Biso   1.000  C
  C64      1.0000 0.99400  0.79200  0.22300  Biso   1.000  C
  C65      1.0000 0.91000  0.73800  0.21100  Biso   1.000  C
  C66      1.0000 0.85500  0.72700  0.14500  Biso   1.000  C
  C67      1.0000 0.88100  0.76500  0.09500  Biso   1.000  C
  C68      1.0000 0.87400  0.70300  0.26800  Biso   1.000  C
  C69      1.0000 0.82500  0.75200  0.31900  Biso   1.000  C
  C70      1.0000 0.78700  0.72100  0.37000  Biso   1.000  C
  C71      1.0000 0.79600  0.64100  0.37200  Biso   1.000  C
  C72      1.0000 0.84500  0.59100  0.32300  Biso   1.000  C
  C73      1.0000 0.88300  0.62200  0.27200  Biso   1.000  C
  C74      1.0000 0.75100  0.60700  0.42600  Biso   1.000  C
  C75      1.0000 0.04500  0.92800  0.87700  Biso   1.000  C
  C76      1.0000 0.13100  0.90900  0.84100  Biso   1.000  C
  C77      1.0000 0.20900  0.89100  0.87700  Biso   1.000  C
  C78      1.0000 0.28300  0.86200  0.83800  Biso   1.000  C
  C79      1.0000 0.28100  0.85100  0.76900  Biso   1.000  C
  C80      1.0000 0.20200  0.88000  0.73400  Biso   1.000  C
  C81      1.0000 0.12700  0.90400  0.76800  Biso   1.000  C
  C82      1.0000 0.34500  0.80100  0.72400  Biso   1.000  C
  C83      1.0000 0.31900  0.71900  0.69300  Biso   1.000  C
  C84      1.0000 0.37100  0.66500  0.64800  Biso   1.000  C
  C85      1.0000 0.45500  0.70000  0.63600  Biso   1.000  C
  C86      1.0000 0.48700  0.78100  0.66800  Biso   1.000  C
  C87      1.0000 0.43200  0.83100  0.71100  Biso   1.000  C
  C88      1.0000 0.51300  0.64600  0.58700  Biso   1.000  C
  C89      1.0000 0.46300  0.54800  0.37800  Biso   1.000  C
  C90      1.0000 0.43600  0.59900  0.32800  Biso   1.000  C
  C91      1.0000 0.34100  0.60300  0.30700  Biso   1.000  C
  C92      1.0000 0.31600  0.65500  0.26600  Biso   1.000  C
  C93      1.0000 0.38200  0.70800  0.24600  Biso   1.000  C
  C94      1.0000 0.47500  0.70100  0.26800  Biso   1.000  C
  C95      1.0000 0.50300  0.64900  0.30800  Biso   1.000  C
  C96      1.0000 0.35400  0.77300  0.21000  Biso   1.000  C
  C97      1.0000 0.33600  0.85200  0.24900  Biso   1.000  C
  C98      1.0000 0.30800  0.91100  0.21700  Biso   1.000  C
  C99      1.0000 0.29500  0.89500  0.14500  Biso   1.000  C
  C100     1.0000 0.31400  0.81700  0.10400  Biso   1.000  C
  C101     1.0000 0.34200  0.76000  0.13700  Biso   1.000  C
  C102     1.0000 0.25500  0.95600  0.11000  Biso   1.000  C
  C103     1.0000 0.32900  0.09800  0.99500  Biso   1.000  C
  C104     1.0000 0.46700  0.11800  0.93900  Biso   1.000  C
  C105     1.0000 0.31000  0.10600  0.87300  Biso   1.000  C
  C106     1.0000 0.26000  0.20800  0.19400  Biso   1.000  C
  C107     1.0000 0.29600  0.28400  0.24100  Biso   1.000  C
  C108     1.0000 0.26700  0.35500  0.22900  Biso   1.000  C
  C109     1.0000 0.19900  0.34400  0.17100  Biso   1.000  C
  C110     1.0000 0.16600  0.26400  0.12700  Biso   1.000  C
  C111     1.0000 0.15500  0.41500  0.15500  Biso   1.000  C
  C112     1.0000 0.82700  0.65400  0.61800  Biso   1.000  C
  C113     1.0000 0.94100  0.59200  0.67900  Biso   1.000  C
  C114     1.0000 0.95900  0.74500  0.69300  Biso   1.000  C
  C115     1.0000 0.69300  0.33800  0.52300  Biso   1.000  C
  C116     1.0000 0.74400  0.27400  0.53100  Biso   1.000  C
  C117     1.0000 0.83800  0.28400  0.52900  Biso   1.000  C
  C118     1.0000 0.87700  0.35100  0.51500  Biso   1.000  C
  C119     1.0000 0.82100  0.41700  0.50700  Biso   1.000  C
  C120     1.0000 0.98000  0.34800  0.50900  Biso   1.000  C
  N1       1.0000 0.94300  0.19000  0.70900  Biso   1.000  N
  N2       1.0000 0.23200  0.33100  0.87500  Biso   1.000  N
  N3       1.0000 0.18700  0.16100  0.67900  Biso   1.000  N
  N4       1.0000 0.06400  0.43200  0.77600  Biso   1.000  N
  N5       1.0000 0.63800  0.15900  0.12100  Biso   1.000  N
  N6       1.0000 0.80600  0.12800  0.34300  Biso   1.000  N
  N7       1.0000 0.77400  0.32300  0.29800  Biso   1.000  N
  N8       1.0000 0.53300  0.07900  0.25700  Biso   1.000  N
  N9       1.0000 0.78500  0.33900  0.75000  Biso   1.000  N
  N10      1.0000 0.44800  0.24900  0.75300  Biso   1.000  N
  N11      1.0000 0.65200  0.12300  0.67100  Biso   1.000  N
  N12      1.0000 0.63600  0.32100  0.91100  Biso   1.000  N
  N13      1.0000 0.63400  0.88900  0.06100  Biso   1.000  N
  N14      1.0000 0.80300  0.80300  0.86300  Biso   1.000  N
  N15      1.0000 0.09600  0.33800  0.34000  Biso   1.000  N
  N16      1.0000 0.27000  0.58700  0.48800  Biso   1.000  N
  N17      1.0000 0.05700  0.81000  0.29100  Biso   1.000  N
  N18      1.0000 0.76800  0.66900  0.12500  Biso   1.000  N
  N19      1.0000 0.81300  0.83900  0.32100  Biso   1.000  N
  N20      1.0000 0.93600  0.56800  0.22400  Biso   1.000  N
  N21      1.0000 0.36200  0.84100  0.87900  Biso   1.000  N
  N22      1.0000 0.19400  0.87200  0.65700  Biso   1.000  N
  N23      1.0000 0.22600  0.67700  0.70200  Biso   1.000  N
  N24      1.0000 0.46700  0.92100  0.74300  Biso   1.000  N
  N25      1.0000 0.21500  0.66100  0.25000  Biso   1.000  N
  N26      1.0000 0.55200  0.75100  0.24700  Biso   1.000  N
  N27      1.0000 0.34800  0.87700  0.32900  Biso   1.000  N
  N28      1.0000 0.36400  0.67900  0.08900  Biso   1.000  N
  N29      1.0000 0.36600  0.11100  0.93900  Biso   1.000  N
  N30      1.0000 0.19700  0.19700  0.13700  Biso   1.000  N
  N31      1.0000 0.90400  0.66200  0.66000  Biso   1.000  N
  N32      1.0000 0.73000  0.41300  0.51200  Biso   1.000  N
  O1       1.0000 0.93900  0.07800  0.91960  Biso   1.000  O
  O2       1.0000 0.06800  0.14100  0.99740  Biso   1.000  O
  O3       1.0000 0.28200  0.34200  0.52500  Biso   1.000  O
  O4       1.0000 0.25700  0.47000  0.57940  Biso   1.000  O
  O5       1.0000 0.86300  0.16000  0.70700  Biso   1.000  O
  O6       1.0000 0.97500  0.20000  0.65600  Biso   1.000  O
  O7       1.0000 0.29600  0.31600  0.91400  Biso   1.000  O
  O8       1.0000 0.24100  0.39300  0.85400  Biso   1.000  O
  O9       1.0000 0.19100  0.13900  0.73400  Biso   1.000  O
  O10      1.0000 0.19000  0.11300  0.62100  Biso   1.000  O
  O11      1.0000 0.03100  0.40900  0.82300  Biso   1.000  O
  O12      1.0000 0.05700  0.50000  0.77000  Biso   1.000  O
  O13      1.0000 0.94200  0.04000  0.05500  Biso   1.000  O
  O14      1.0000 0.03400  0.09100  0.15800  Biso   1.000  O
  O15      1.0000 0.52800  0.41900  0.45940  Biso   1.000  O
  O16      1.0000 0.40100  0.33200  0.41010  Biso   1.000  O
  O17      1.0000 0.65700  0.19400  0.07500  Biso   1.000  O
  O18      1.0000 0.56000  0.14600  0.13500  Biso   1.000  O
  O19      1.0000 0.88300  0.14300  0.37700  Biso   1.000  O
  O20      1.0000 0.73500  0.11800  0.36900  Biso   1.000  O
  O21      1.0000 0.79400  0.30600  0.23600  Biso   1.000  O
  O22      1.0000 0.82500  0.36100  0.34600  Biso   1.000  O
  O23      1.0000 0.57700  0.02900  0.23600  Biso   1.000  O
  O24      1.0000 0.45200  0.06100  0.24800  Biso   1.000  O
  O25      1.0000 0.60200  0.49700  0.61010  Biso   1.000  O
  O26      1.0000 0.45100  0.44000  0.59400  Biso   1.000  O
  O27      1.0000 0.75900  0.06200  0.95620  Biso   1.000  O
  O28      1.0000 0.76700  0.97700  0.85020  Biso   1.000  O
  O29      1.0000 0.83700  0.35400  0.70800  Biso   1.000  O
  O30      1.0000 0.81200  0.32000  0.80400  Biso   1.000  O
  O31      1.0000 0.46100  0.20400  0.78300  Biso   1.000  O
  O32      1.0000 0.37300  0.27300  0.75300  Biso   1.000  O
  O33      1.0000 0.64900  0.17600  0.64000  Biso   1.000  O
  O34      1.0000 0.65500  0.04900  0.64100  Biso   1.000  O
  O35      1.0000 0.63600  0.38200  0.89000  Biso   1.000  O
  O36      1.0000 0.62000  0.32100  0.97000  Biso   1.000  O
  O37      1.0000 0.75300  0.91500  0.00500  Biso   1.000  O
  O38      1.0000 0.81500  0.51200  0.81100  Biso   1.000  O
  O39      1.0000 0.22200  0.41600  0.40990  Biso   1.000  O
  O40      1.0000 0.99000  0.59700  0.49800  Biso   1.000  O
  O41      1.0000 0.06100  0.92200  0.08040  Biso   1.000  O
  O42      1.0000 0.93200  0.85900  0.00260  Biso   1.000  O
  O43      1.0000 0.71800  0.65800  0.47500  Biso   1.000  O
  O44      1.0000 0.74300  0.53000  0.42060  Biso   1.000  O
  O45      1.0000 0.13700  0.84000  0.29300  Biso   1.000  O
  O46      1.0000 0.02500  0.80000  0.34400  Biso   1.000  O
  O47      1.0000 0.70400  0.68400  0.08600  Biso   1.000  O
  O48      1.0000 0.75900  0.60700  0.14600  Biso   1.000  O
  O49      1.0000 0.80900  0.86100  0.26600  Biso   1.000  O
  O50      1.0000 0.81000  0.88700  0.37900  Biso   1.000  O
  O51      1.0000 0.96900  0.59100  0.17700  Biso   1.000  O
  O52      1.0000 0.94300  0.50000  0.23000  Biso   1.000  O
  O53      1.0000 0.05800  0.96000  0.94500  Biso   1.000  O
  O54      1.0000 0.96600  0.90900  0.84200  Biso   1.000  O
  O55      1.0000 0.47200  0.58100  0.54060  Biso   1.000  O
  O56      1.0000 0.59900  0.66800  0.58990  Biso   1.000  O
  O57      1.0000 0.34300  0.80600  0.92500  Biso   1.000  O
  O58      1.0000 0.44000  0.85400  0.86500  Biso   1.000  O
  O59      1.0000 0.11700  0.85700  0.62300  Biso   1.000  O
  O60      1.0000 0.26500  0.88200  0.63100  Biso   1.000  O
  O61      1.0000 0.20600  0.69400  0.76400  Biso   1.000  O
  O62      1.0000 0.17500  0.63900  0.65400  Biso   1.000  O
  O63      1.0000 0.42300  0.97100  0.76400  Biso   1.000  O
  O64      1.0000 0.54800  0.93900  0.75200  Biso   1.000  O
  O65      1.0000 0.39800  0.50300  0.38990  Biso   1.000  O
  O66      1.0000 0.54900  0.56000  0.40600  Biso   1.000  O
  O67      1.0000 0.24100  0.93800  0.04380  Biso   1.000  O
  O68      1.0000 0.23300  0.02300  0.14980  Biso   1.000  O
  O69      1.0000 0.16300  0.64600  0.29200  Biso   1.000  O
  O70      1.0000 0.18800  0.68000  0.19600  Biso   1.000  O
  O71      1.0000 0.53900  0.79600  0.21700  Biso   1.000  O
  O72      1.0000 0.62700  0.72700  0.24700  Biso   1.000  O
  O73      1.0000 0.35100  0.82400  0.36000  Biso   1.000  O
  O74      1.0000 0.34500  0.95100  0.35900  Biso   1.000  O
  O75      1.0000 0.36400  0.61800  0.11000  Biso   1.000  O
  O76      1.0000 0.38000  0.67900  0.03000  Biso   1.000  O
  O77      1.0000 0.24700  0.08500  0.99500  Biso   1.000  O
  O78      1.0000 0.18500  0.48800  0.18900  Biso   1.000  O
  O79      1.0000 0.77800  0.58400  0.59010  Biso   1.000  O
  O80      1.0000 0.01000  0.40300  0.50200  Biso   1.000  O
