data_image0
_cell_length_a       13.652
_cell_length_b       24.698
_cell_length_c       30.143
_cell_angle_alpha    90
_cell_angle_beta     90
_cell_angle_gamma    94.935

_symmetry_space_group_name_H-M    P 1
_symmetry_int_tables_number       1

loop_
  _symmetry_equiv_pos_as_xyz
  'x, y, z'

loop_
  _atom_site_label
  _atom_site_occupancy
  _atom_site_fract_x
  _atom_site_fract_y
  _atom_site_fract_z
  _atom_site_thermal_displace_type
  _atom_site_B_iso_or_equiv
  _atom_site_type_symbol
  Gd1      1.0000 0.35763  0.22222  0.74635  Biso   1.000  Gd
  Gd2      1.0000 0.64000  0.27732  0.77367  Biso   1.000  Gd
  Gd3      1.0000 0.14237  0.27778  0.24635  Biso   1.000  Gd
  Gd4      1.0000 0.86000  0.22268  0.27367  Biso   1.000  Gd
  Gd5      1.0000 0.64237  0.77778  0.25365  Biso   1.000  Gd
  Gd6      1.0000 0.36000  0.72268  0.22633  Biso   1.000  Gd
  Gd7      1.0000 0.85763  0.72222  0.75365  Biso   1.000  Gd
  Gd8      1.0000 0.14000  0.77732  0.72633  Biso   1.000  Gd
  H1       1.0000 0.67950  0.14140  0.79350  Biso   1.000  H
  H2       1.0000 0.52950  0.06570  0.69380  Biso   1.000  H
  H3       1.0000 0.00230  0.95330  0.70130  Biso   1.000  H
  H4       1.0000 0.81130  0.85860  0.77380  Biso   1.000  H
  H5       1.0000 0.55790  0.28330  0.91720  Biso   1.000  H
  H6       1.0000 0.30220  0.19710  0.89400  Biso   1.000  H
  H7       1.0000 0.26000  0.33160  0.10290  Biso   1.000  H
  H8       1.0000 0.35090  0.18850  0.13480  Biso   1.000  H
  H9       1.0000 0.70690  0.29440  0.63230  Biso   1.000  H
  H10      1.0000 0.43360  0.23930  0.59890  Biso   1.000  H
  H11      1.0000 0.69120  0.32130  0.39320  Biso   1.000  H
  H12      1.0000 0.72590  0.16470  0.41690  Biso   1.000  H
  H13      1.0000 0.28590  0.11420  0.82130  Biso   1.000  H
  H14      1.0000 0.08230  0.15500  0.76980  Biso   1.000  H
  H15      1.0000 0.00180  0.12700  0.80130  Biso   1.000  H
  H16      1.0000 0.06010  0.09160  0.76910  Biso   1.000  H
  H17      1.0000 0.16220  0.08710  0.88100  Biso   1.000  H
  H18      1.0000 0.07410  0.05630  0.85540  Biso   1.000  H
  H19      1.0000 0.06140  0.11280  0.87740  Biso   1.000  H
  H20      1.0000 0.17300  0.33120  0.79260  Biso   1.000  H
  H21      1.0000 0.05550  0.33960  0.77010  Biso   1.000  H
  H22      1.0000 0.00800  0.34200  0.81740  Biso   1.000  H
  H23      1.0000 0.95320  0.30790  0.77960  Biso   1.000  H
  H24      1.0000 0.08300  0.20150  0.84540  Biso   1.000  H
  H25      1.0000 0.98210  0.22610  0.85270  Biso   1.000  H
  H26      1.0000 0.07840  0.25470  0.87350  Biso   1.000  H
  H27      1.0000 0.87180  0.24740  0.73080  Biso   1.000  H
  H28      1.0000 0.98120  0.24860  0.68390  Biso   1.000  H
  H29      1.0000 0.98560  0.20180  0.64910  Biso   1.000  H
  H30      1.0000 0.99100  0.18890  0.69990  Biso   1.000  H
  H31      1.0000 0.72600  0.16630  0.66050  Biso   1.000  H
  H32      1.0000 0.81250  0.13220  0.64640  Biso   1.000  H
  H33      1.0000 0.79260  0.18490  0.62000  Biso   1.000  H
  H34      1.0000 0.68290  0.39390  0.72350  Biso   1.000  H
  H35      1.0000 0.71850  0.45850  0.66760  Biso   1.000  H
  H36      1.0000 0.78470  0.44060  0.62870  Biso   1.000  H
  H37      1.0000 0.83050  0.47860  0.66630  Biso   1.000  H
  H38      1.0000 0.94960  0.40190  0.69150  Biso   1.000  H
  H39      1.0000 0.91050  0.38190  0.64480  Biso   1.000  H
  H40      1.0000 0.89710  0.34330  0.68600  Biso   1.000  H
  H41      1.0000 0.82050  0.35860  0.29350  Biso   1.000  H
  H42      1.0000 0.97050  0.43430  0.19380  Biso   1.000  H
  H43      1.0000 0.49770  0.54670  0.20130  Biso   1.000  H
  H44      1.0000 0.68870  0.64140  0.27380  Biso   1.000  H
  H45      1.0000 0.94210  0.21670  0.41720  Biso   1.000  H
  H46      1.0000 0.19780  0.30290  0.39400  Biso   1.000  H
  H47      1.0000 0.24000  0.16840  0.60290  Biso   1.000  H
  H48      1.0000 0.14910  0.31150  0.63480  Biso   1.000  H
  H49      1.0000 0.79310  0.20560  0.13230  Biso   1.000  H
  H50      1.0000 0.06640  0.26070  0.09890  Biso   1.000  H
  H51      1.0000 0.80880  0.17870  0.89320  Biso   1.000  H
  H52      1.0000 0.77410  0.33530  0.91690  Biso   1.000  H
  H53      1.0000 0.21410  0.38580  0.32130  Biso   1.000  H
  H54      1.0000 0.41770  0.34500  0.26980  Biso   1.000  H
  H55      1.0000 0.49820  0.37300  0.30130  Biso   1.000  H
  H56      1.0000 0.43990  0.40840  0.26910  Biso   1.000  H
  H57      1.0000 0.33780  0.41290  0.38100  Biso   1.000  H
  H58      1.0000 0.42590  0.44370  0.35540  Biso   1.000  H
  H59      1.0000 0.43860  0.38720  0.37740  Biso   1.000  H
  H60      1.0000 0.32700  0.16880  0.29260  Biso   1.000  H
  H61      1.0000 0.44450  0.16040  0.27010  Biso   1.000  H
  H62      1.0000 0.49200  0.15800  0.31740  Biso   1.000  H
  H63      1.0000 0.54680  0.19210  0.27960  Biso   1.000  H
  H64      1.0000 0.41700  0.29850  0.34540  Biso   1.000  H
  H65      1.0000 0.51790  0.27390  0.35270  Biso   1.000  H
  H66      1.0000 0.42160  0.24530  0.37350  Biso   1.000  H
  H67      1.0000 0.62820  0.25260  0.23080  Biso   1.000  H
  H68      1.0000 0.51880  0.25140  0.18390  Biso   1.000  H
  H69      1.0000 0.51440  0.29820  0.14910  Biso   1.000  H
  H70      1.0000 0.50900  0.31110  0.19990  Biso   1.000  H
  H71      1.0000 0.77400  0.33370  0.16050  Biso   1.000  H
  H72      1.0000 0.68750  0.36780  0.14640  Biso   1.000  H
  H73      1.0000 0.70740  0.31510  0.12000  Biso   1.000  H
  H74      1.0000 0.81710  0.10610  0.22350  Biso   1.000  H
  H75      1.0000 0.78150  0.04150  0.16760  Biso   1.000  H
  H76      1.0000 0.71530  0.05940  0.12870  Biso   1.000  H
  H77      1.0000 0.66950  0.02140  0.16630  Biso   1.000  H
  H78      1.0000 0.55040  0.09810  0.19150  Biso   1.000  H
  H79      1.0000 0.58950  0.11810  0.14480  Biso   1.000  H
  H80      1.0000 0.60290  0.15670  0.18600  Biso   1.000  H
  H81      1.0000 0.32050  0.85860  0.20650  Biso   1.000  H
  H82      1.0000 0.47050  0.93430  0.30620  Biso   1.000  H
  H83      1.0000 0.99770  0.04670  0.29870  Biso   1.000  H
  H84      1.0000 0.18870  0.14140  0.22620  Biso   1.000  H
  H85      1.0000 0.44210  0.71670  0.08280  Biso   1.000  H
  H86      1.0000 0.69780  0.80290  0.10600  Biso   1.000  H
  H87      1.0000 0.74000  0.66840  0.89710  Biso   1.000  H
  H88      1.0000 0.64910  0.81150  0.86520  Biso   1.000  H
  H89      1.0000 0.29310  0.70560  0.36770  Biso   1.000  H
  H90      1.0000 0.56640  0.76070  0.40110  Biso   1.000  H
  H91      1.0000 0.30880  0.67870  0.60680  Biso   1.000  H
  H92      1.0000 0.27410  0.83530  0.58310  Biso   1.000  H
  H93      1.0000 0.71410  0.88580  0.17870  Biso   1.000  H
  H94      1.0000 0.91770  0.84500  0.23020  Biso   1.000  H
  H95      1.0000 0.99820  0.87300  0.19870  Biso   1.000  H
  H96      1.0000 0.93990  0.90840  0.23090  Biso   1.000  H
  H97      1.0000 0.83780  0.91290  0.11900  Biso   1.000  H
  H98      1.0000 0.92590  0.94370  0.14460  Biso   1.000  H
  H99      1.0000 0.93860  0.88720  0.12260  Biso   1.000  H
  H100     1.0000 0.82700  0.66880  0.20740  Biso   1.000  H
  H101     1.0000 0.94450  0.66040  0.22990  Biso   1.000  H
  H102     1.0000 0.99200  0.65800  0.18260  Biso   1.000  H
  H103     1.0000 0.04680  0.69210  0.22040  Biso   1.000  H
  H104     1.0000 0.91700  0.79850  0.15460  Biso   1.000  H
  H105     1.0000 0.01790  0.77390  0.14730  Biso   1.000  H
  H106     1.0000 0.92160  0.74530  0.12650  Biso   1.000  H
  H107     1.0000 0.12820  0.75260  0.26920  Biso   1.000  H
  H108     1.0000 0.01880  0.75140  0.31610  Biso   1.000  H
  H109     1.0000 0.01440  0.79820  0.35090  Biso   1.000  H
  H110     1.0000 0.00900  0.81110  0.30010  Biso   1.000  H
  H111     1.0000 0.27400  0.83370  0.33950  Biso   1.000  H
  H112     1.0000 0.18750  0.86780  0.35360  Biso   1.000  H
  H113     1.0000 0.20740  0.81510  0.38000  Biso   1.000  H
  H114     1.0000 0.31710  0.60610  0.27650  Biso   1.000  H
  H115     1.0000 0.28150  0.54150  0.33240  Biso   1.000  H
  H116     1.0000 0.21530  0.55940  0.37130  Biso   1.000  H
  H117     1.0000 0.16950  0.52140  0.33370  Biso   1.000  H
  H118     1.0000 0.05040  0.59810  0.30850  Biso   1.000  H
  H119     1.0000 0.08950  0.61810  0.35520  Biso   1.000  H
  H120     1.0000 0.10290  0.65670  0.31400  Biso   1.000  H
  H121     1.0000 0.17950  0.64140  0.70650  Biso   1.000  H
  H122     1.0000 0.02950  0.56570  0.80620  Biso   1.000  H
  H123     1.0000 0.50230  0.45330  0.79870  Biso   1.000  H
  H124     1.0000 0.31130  0.35860  0.72620  Biso   1.000  H
  H125     1.0000 0.05790  0.78330  0.58280  Biso   1.000  H
  H126     1.0000 0.80220  0.69710  0.60600  Biso   1.000  H
  H127     1.0000 0.76000  0.83160  0.39710  Biso   1.000  H
  H128     1.0000 0.85090  0.68850  0.36520  Biso   1.000  H
  H129     1.0000 0.20690  0.79440  0.86770  Biso   1.000  H
  H130     1.0000 0.93360  0.73930  0.90110  Biso   1.000  H
  H131     1.0000 0.19120  0.82130  0.10680  Biso   1.000  H
  H132     1.0000 0.22590  0.66470  0.08310  Biso   1.000  H
  H133     1.0000 0.78590  0.61420  0.67870  Biso   1.000  H
  H134     1.0000 0.58230  0.65500  0.73020  Biso   1.000  H
  H135     1.0000 0.50180  0.62700  0.69870  Biso   1.000  H
  H136     1.0000 0.56010  0.59160  0.73090  Biso   1.000  H
  H137     1.0000 0.66220  0.58710  0.61900  Biso   1.000  H
  H138     1.0000 0.57410  0.55630  0.64460  Biso   1.000  H
  H139     1.0000 0.56140  0.61280  0.62260  Biso   1.000  H
  H140     1.0000 0.67300  0.83120  0.70740  Biso   1.000  H
  H141     1.0000 0.55550  0.83960  0.72990  Biso   1.000  H
  H142     1.0000 0.50800  0.84200  0.68260  Biso   1.000  H
  H143     1.0000 0.45320  0.80790  0.72040  Biso   1.000  H
  H144     1.0000 0.58300  0.70150  0.65460  Biso   1.000  H
  H145     1.0000 0.48210  0.72610  0.64730  Biso   1.000  H
  H146     1.0000 0.57840  0.75470  0.62650  Biso   1.000  H
  H147     1.0000 0.37180  0.74740  0.76920  Biso   1.000  H
  H148     1.0000 0.48120  0.74860  0.81610  Biso   1.000  H
  H149     1.0000 0.48560  0.70180  0.85090  Biso   1.000  H
  H150     1.0000 0.49100  0.68890  0.80010  Biso   1.000  H
  H151     1.0000 0.22600  0.66630  0.83950  Biso   1.000  H
  H152     1.0000 0.31250  0.63220  0.85360  Biso   1.000  H
  H153     1.0000 0.29260  0.68490  0.88000  Biso   1.000  H
  H154     1.0000 0.18290  0.89390  0.77650  Biso   1.000  H
  H155     1.0000 0.21850  0.95850  0.83240  Biso   1.000  H
  H156     1.0000 0.28470  0.94060  0.87130  Biso   1.000  H
  H157     1.0000 0.33050  0.97860  0.83370  Biso   1.000  H
  H158     1.0000 0.44960  0.90190  0.80850  Biso   1.000  H
  H159     1.0000 0.41050  0.88190  0.85520  Biso   1.000  H
  H160     1.0000 0.39710  0.84330  0.81400  Biso   1.000  H
  C1       1.0000 0.51570  0.15030  0.74500  Biso   1.000  C
  C2       1.0000 0.59080  0.10940  0.74430  Biso   1.000  C
  C3       1.0000 0.66950  0.11230  0.77390  Biso   1.000  C
  C4       1.0000 0.73190  0.07170  0.77380  Biso   1.000  C
  C5       1.0000 0.72350  0.02780  0.74430  Biso   1.000  C
  C6       1.0000 0.64680  0.02840  0.71420  Biso   1.000  C
  C7       1.0000 0.58080  0.06760  0.71420  Biso   1.000  C
  C8       1.0000 0.79360  0.98390  0.74370  Biso   1.000  C
  C9       1.0000 0.88280  0.98900  0.72120  Biso   1.000  C
  C10      1.0000 0.94390  0.94810  0.71720  Biso   1.000  C
  C11      1.0000 0.91580  0.89780  0.73790  Biso   1.000  C
  C12      1.0000 0.83050  0.89170  0.76050  Biso   1.000  C
  C13      1.0000 0.77070  0.93420  0.76420  Biso   1.000  C
  C14      1.0000 0.98220  0.85230  0.73300  Biso   1.000  C
  C15      1.0000 0.45490  0.24160  0.84840  Biso   1.000  C
  C16      1.0000 0.43330  0.24010  0.89780  Biso   1.000  C
  C17      1.0000 0.49890  0.26610  0.92750  Biso   1.000  C
  C18      1.0000 0.47770  0.26680  0.97170  Biso   1.000  C
  C19      1.0000 0.39050  0.24030  0.98950  Biso   1.000  C
  C20      1.0000 0.32920  0.21390  0.95840  Biso   1.000  C
  C21      1.0000 0.34760  0.21430  0.91350  Biso   1.000  C
  C22      1.0000 0.36120  0.24760  0.03720  Biso   1.000  C
  C23      1.0000 0.31580  0.29230  0.05140  Biso   1.000  C
  C24      1.0000 0.28700  0.29970  0.09480  Biso   1.000  C
  C25      1.0000 0.29810  0.26060  0.12530  Biso   1.000  C
  C26      1.0000 0.34220  0.21520  0.11370  Biso   1.000  C
  C27      1.0000 0.37410  0.20890  0.07050  Biso   1.000  C
  C28      1.0000 0.25970  0.26840  0.17170  Biso   1.000  C
  C29      1.0000 0.53560  0.26450  0.67100  Biso   1.000  C
  C30      1.0000 0.56630  0.26620  0.62240  Biso   1.000  C
  C31      1.0000 0.66150  0.28180  0.61090  Biso   1.000  C
  C32      1.0000 0.68920  0.27860  0.56700  Biso   1.000  C
  C33      1.0000 0.62410  0.26120  0.53360  Biso   1.000  C
  C34      1.0000 0.52880  0.24690  0.54760  Biso   1.000  C
  C35      1.0000 0.49860  0.24920  0.59110  Biso   1.000  C
  C36      1.0000 0.65430  0.25540  0.48610  Biso   1.000  C
  C37      1.0000 0.65380  0.29640  0.45530  Biso   1.000  C
  C38      1.0000 0.68680  0.29150  0.41220  Biso   1.000  C
  C39      1.0000 0.71330  0.24160  0.39770  Biso   1.000  C
  C40      1.0000 0.70940  0.19850  0.42650  Biso   1.000  C
  C41      1.0000 0.68080  0.20560  0.47000  Biso   1.000  C
  C42      1.0000 0.75250  0.23540  0.35140  Biso   1.000  C
  C43      1.0000 0.23470  0.12790  0.80570  Biso   1.000  C
  C44      1.0000 0.06400  0.12300  0.78760  Biso   1.000  C
  C45      1.0000 0.10600  0.09140  0.86230  Biso   1.000  C
  C46      1.0000 0.16400  0.29350  0.79400  Biso   1.000  C
  C47      1.0000 0.01630  0.31940  0.79200  Biso   1.000  C
  C48      1.0000 0.05140  0.23460  0.84840  Biso   1.000  C
  C49      1.0000 0.82260  0.22510  0.71700  Biso   1.000  C
  C50      1.0000 0.96250  0.21100  0.67800  Biso   1.000  C
  C51      1.0000 0.79200  0.16830  0.64880  Biso   1.000  C
  C52      1.0000 0.74240  0.37890  0.71900  Biso   1.000  C
  C53      1.0000 0.78300  0.44880  0.65980  Biso   1.000  C
  C54      1.0000 0.89830  0.38030  0.67620  Biso   1.000  C
  C55      1.0000 0.98430  0.34970  0.24500  Biso   1.000  C
  C56      1.0000 0.90920  0.39060  0.24430  Biso   1.000  C
  C57      1.0000 0.83050  0.38770  0.27390  Biso   1.000  C
  C58      1.0000 0.76810  0.42830  0.27380  Biso   1.000  C
  C59      1.0000 0.77650  0.47220  0.24430  Biso   1.000  C
  C60      1.0000 0.85320  0.47160  0.21420  Biso   1.000  C
  C61      1.0000 0.91920  0.43240  0.21420  Biso   1.000  C
  C62      1.0000 0.70640  0.51610  0.24370  Biso   1.000  C
  C63      1.0000 0.61720  0.51100  0.22120  Biso   1.000  C
  C64      1.0000 0.55610  0.55190  0.21720  Biso   1.000  C
  C65      1.0000 0.58420  0.60220  0.23790  Biso   1.000  C
  C66      1.0000 0.66950  0.60830  0.26050  Biso   1.000  C
  C67      1.0000 0.72930  0.56580  0.26420  Biso   1.000  C
  C68      1.0000 0.51780  0.64770  0.23300  Biso   1.000  C
  C69      1.0000 0.04510  0.25840  0.34840  Biso   1.000  C
  C70      1.0000 0.06670  0.25990  0.39780  Biso   1.000  C
  C71      1.0000 0.00110  0.23390  0.42750  Biso   1.000  C
  C72      1.0000 0.02230  0.23320  0.47170  Biso   1.000  C
  C73      1.0000 0.10950  0.25970  0.48950  Biso   1.000  C
  C74      1.0000 0.17080  0.28610  0.45840  Biso   1.000  C
  C75      1.0000 0.15240  0.28570  0.41350  Biso   1.000  C
  C76      1.0000 0.13880  0.25240  0.53720  Biso   1.000  C
  C77      1.0000 0.18420  0.20770  0.55140  Biso   1.000  C
  C78      1.0000 0.21300  0.20030  0.59480  Biso   1.000  C
  C79      1.0000 0.20190  0.23940  0.62530  Biso   1.000  C
  C80      1.0000 0.15780  0.28480  0.61370  Biso   1.000  C
  C81      1.0000 0.12590  0.29110  0.57050  Biso   1.000  C
  C82      1.0000 0.24030  0.23160  0.67170  Biso   1.000  C
  C83      1.0000 0.96440  0.23550  0.17100  Biso   1.000  C
  C84      1.0000 0.93370  0.23380  0.12240  Biso   1.000  C
  C85      1.0000 0.83850  0.21820  0.11090  Biso   1.000  C
  C86      1.0000 0.81080  0.22140  0.06700  Biso   1.000  C
  C87      1.0000 0.87590  0.23880  0.03360  Biso   1.000  C
  C88      1.0000 0.97120  0.25310  0.04760  Biso   1.000  C
  C89      1.0000 0.00140  0.25080  0.09110  Biso   1.000  C
  C90      1.0000 0.84570  0.24460  0.98610  Biso   1.000  C
  C91      1.0000 0.84620  0.20360  0.95530  Biso   1.000  C
  C92      1.0000 0.81320  0.20850  0.91220  Biso   1.000  C
  C93      1.0000 0.78670  0.25840  0.89770  Biso   1.000  C
  C94      1.0000 0.79060  0.30150  0.92650  Biso   1.000  C
  C95      1.0000 0.81920  0.29440  0.97000  Biso   1.000  C
  C96      1.0000 0.74750  0.26460  0.85140  Biso   1.000  C
  C97      1.0000 0.26530  0.37210  0.30570  Biso   1.000  C
  C98      1.0000 0.43600  0.37700  0.28760  Biso   1.000  C
  C99      1.0000 0.39400  0.40860  0.36230  Biso   1.000  C
  C100     1.0000 0.33600  0.20650  0.29400  Biso   1.000  C
  C101     1.0000 0.48370  0.18060  0.29200  Biso   1.000  C
  C102     1.0000 0.44860  0.26540  0.34840  Biso   1.000  C
  C103     1.0000 0.67740  0.27490  0.21700  Biso   1.000  C
  C104     1.0000 0.53750  0.28900  0.17800  Biso   1.000  C
  C105     1.0000 0.70800  0.33170  0.14880  Biso   1.000  C
  C106     1.0000 0.75760  0.12110  0.21900  Biso   1.000  C
  C107     1.0000 0.71700  0.05120  0.15980  Biso   1.000  C
  C108     1.0000 0.60170  0.11970  0.17620  Biso   1.000  C
  C109     1.0000 0.48430  0.84970  0.25500  Biso   1.000  C
  C110     1.0000 0.40920  0.89060  0.25570  Biso   1.000  C
  C111     1.0000 0.33050  0.88770  0.22610  Biso   1.000  C
  C112     1.0000 0.26810  0.92830  0.22620  Biso   1.000  C
  C113     1.0000 0.27650  0.97220  0.25570  Biso   1.000  C
  C114     1.0000 0.35320  0.97160  0.28580  Biso   1.000  C
  C115     1.0000 0.41920  0.93240  0.28580  Biso   1.000  C
  C116     1.0000 0.20640  0.01610  0.25630  Biso   1.000  C
  C117     1.0000 0.11720  0.01100  0.27880  Biso   1.000  C
  C118     1.0000 0.05610  0.05190  0.28280  Biso   1.000  C
  C119     1.0000 0.08420  0.10220  0.26210  Biso   1.000  C
  C120     1.0000 0.16950  0.10830  0.23950  Biso   1.000  C
  C121     1.0000 0.22930  0.06580  0.23580  Biso   1.000  C
  C122     1.0000 0.01780  0.14770  0.26700  Biso   1.000  C
  C123     1.0000 0.54510  0.75840  0.15160  Biso   1.000  C
  C124     1.0000 0.56670  0.75990  0.10220  Biso   1.000  C
  C125     1.0000 0.50110  0.73390  0.07250  Biso   1.000  C
  C126     1.0000 0.52230  0.73320  0.02830  Biso   1.000  C
  C127     1.0000 0.60950  0.75970  0.01050  Biso   1.000  C
  C128     1.0000 0.67080  0.78610  0.04160  Biso   1.000  C
  C129     1.0000 0.65240  0.78570  0.08650  Biso   1.000  C
  C130     1.0000 0.63880  0.75240  0.96280  Biso   1.000  C
  C131     1.0000 0.68420  0.70770  0.94860  Biso   1.000  C
  C132     1.0000 0.71300  0.70030  0.90520  Biso   1.000  C
  C133     1.0000 0.70190  0.73940  0.87470  Biso   1.000  C
  C134     1.0000 0.65780  0.78480  0.88630  Biso   1.000  C
  C135     1.0000 0.62590  0.79110  0.92950  Biso   1.000  C
  C136     1.0000 0.74030  0.73160  0.82830  Biso   1.000  C
  C137     1.0000 0.46440  0.73550  0.32900  Biso   1.000  C
  C138     1.0000 0.43370  0.73380  0.37760  Biso   1.000  C
  C139     1.0000 0.33850  0.71820  0.38910  Biso   1.000  C
  C140     1.0000 0.31080  0.72140  0.43300  Biso   1.000  C
  C141     1.0000 0.37590  0.73880  0.46640  Biso   1.000  C
  C142     1.0000 0.47120  0.75310  0.45240  Biso   1.000  C
  C143     1.0000 0.50140  0.75080  0.40890  Biso   1.000  C
  C144     1.0000 0.34570  0.74460  0.51390  Biso   1.000  C
  C145     1.0000 0.34620  0.70360  0.54470  Biso   1.000  C
  C146     1.0000 0.31320  0.70850  0.58780  Biso   1.000  C
  C147     1.0000 0.28670  0.75840  0.60230  Biso   1.000  C
  C148     1.0000 0.29060  0.80150  0.57350  Biso   1.000  C
  C149     1.0000 0.31920  0.79440  0.53000  Biso   1.000  C
  C150     1.0000 0.24750  0.76460  0.64860  Biso   1.000  C
  C151     1.0000 0.76530  0.87210  0.19430  Biso   1.000  C
  C152     1.0000 0.93600  0.87700  0.21240  Biso   1.000  C
  C153     1.0000 0.89400  0.90860  0.13770  Biso   1.000  C
  C154     1.0000 0.83600  0.70650  0.20600  Biso   1.000  C
  C155     1.0000 0.98370  0.68060  0.20800  Biso   1.000  C
  C156     1.0000 0.94860  0.76540  0.15160  Biso   1.000  C
  C157     1.0000 0.17740  0.77490  0.28300  Biso   1.000  C
  C158     1.0000 0.03750  0.78900  0.32200  Biso   1.000  C
  C159     1.0000 0.20800  0.83170  0.35120  Biso   1.000  C
  C160     1.0000 0.25760  0.62110  0.28100  Biso   1.000  C
  C161     1.0000 0.21700  0.55120  0.34020  Biso   1.000  C
  C162     1.0000 0.10170  0.61970  0.32380  Biso   1.000  C
  C163     1.0000 0.01570  0.65030  0.75500  Biso   1.000  C
  C164     1.0000 0.09080  0.60940  0.75570  Biso   1.000  C
  C165     1.0000 0.16950  0.61230  0.72610  Biso   1.000  C
  C166     1.0000 0.23190  0.57170  0.72620  Biso   1.000  C
  C167     1.0000 0.22350  0.52780  0.75570  Biso   1.000  C
  C168     1.0000 0.14680  0.52840  0.78580  Biso   1.000  C
  C169     1.0000 0.08080  0.56760  0.78580  Biso   1.000  C
  C170     1.0000 0.29360  0.48390  0.75630  Biso   1.000  C
  C171     1.0000 0.38280  0.48900  0.77880  Biso   1.000  C
  C172     1.0000 0.44390  0.44810  0.78280  Biso   1.000  C
  C173     1.0000 0.41580  0.39780  0.76210  Biso   1.000  C
  C174     1.0000 0.33050  0.39170  0.73950  Biso   1.000  C
  C175     1.0000 0.27070  0.43420  0.73580  Biso   1.000  C
  C176     1.0000 0.48220  0.35230  0.76700  Biso   1.000  C
  C177     1.0000 0.95490  0.74160  0.65160  Biso   1.000  C
  C178     1.0000 0.93330  0.74010  0.60220  Biso   1.000  C
  C179     1.0000 0.99890  0.76610  0.57250  Biso   1.000  C
  C180     1.0000 0.97770  0.76680  0.52830  Biso   1.000  C
  C181     1.0000 0.89050  0.74030  0.51050  Biso   1.000  C
  C182     1.0000 0.82920  0.71390  0.54160  Biso   1.000  C
  C183     1.0000 0.84760  0.71430  0.58650  Biso   1.000  C
  C184     1.0000 0.86120  0.74760  0.46280  Biso   1.000  C
  C185     1.0000 0.81580  0.79230  0.44860  Biso   1.000  C
  C186     1.0000 0.78700  0.79970  0.40520  Biso   1.000  C
  C187     1.0000 0.79810  0.76060  0.37470  Biso   1.000  C
  C188     1.0000 0.84220  0.71520  0.38630  Biso   1.000  C
  C189     1.0000 0.87410  0.70890  0.42950  Biso   1.000  C
  C190     1.0000 0.75970  0.76840  0.32830  Biso   1.000  C
  C191     1.0000 0.03560  0.76450  0.82900  Biso   1.000  C
  C192     1.0000 0.06630  0.76620  0.87760  Biso   1.000  C
  C193     1.0000 0.16150  0.78180  0.88910  Biso   1.000  C
  C194     1.0000 0.18920  0.77860  0.93300  Biso   1.000  C
  C195     1.0000 0.12410  0.76120  0.96640  Biso   1.000  C
  C196     1.0000 0.02880  0.74690  0.95240  Biso   1.000  C
  C197     1.0000 0.99860  0.74920  0.90890  Biso   1.000  C
  C198     1.0000 0.15430  0.75540  0.01390  Biso   1.000  C
  C199     1.0000 0.15380  0.79640  0.04470  Biso   1.000  C
  C200     1.0000 0.18680  0.79150  0.08780  Biso   1.000  C
  C201     1.0000 0.21330  0.74160  0.10230  Biso   1.000  C
  C202     1.0000 0.20940  0.69850  0.07350  Biso   1.000  C
  C203     1.0000 0.18080  0.70560  0.03000  Biso   1.000  C
  C204     1.0000 0.25250  0.73540  0.14860  Biso   1.000  C
  C205     1.0000 0.73470  0.62790  0.69430  Biso   1.000  C
  C206     1.0000 0.56400  0.62300  0.71240  Biso   1.000  C
  C207     1.0000 0.60600  0.59140  0.63770  Biso   1.000  C
  C208     1.0000 0.66400  0.79350  0.70600  Biso   1.000  C
  C209     1.0000 0.51630  0.81940  0.70800  Biso   1.000  C
  C210     1.0000 0.55140  0.73460  0.65160  Biso   1.000  C
  C211     1.0000 0.32260  0.72510  0.78300  Biso   1.000  C
  C212     1.0000 0.46250  0.71100  0.82200  Biso   1.000  C
  C213     1.0000 0.29200  0.66830  0.85120  Biso   1.000  C
  C214     1.0000 0.24240  0.87890  0.78100  Biso   1.000  C
  C215     1.0000 0.28300  0.94880  0.84020  Biso   1.000  C
  C216     1.0000 0.39830  0.88030  0.82380  Biso   1.000  C
  N1       1.0000 0.81030  0.07480  0.80770  Biso   1.000  N
  N2       1.0000 0.62940  0.98600  0.67990  Biso   1.000  N
  N3       1.0000 0.91800  0.04110  0.69930  Biso   1.000  N
  N4       1.0000 0.68040  0.92540  0.79000  Biso   1.000  N
  N5       1.0000 0.54880  0.29600  0.00160  Biso   1.000  N
  N6       1.0000 0.23570  0.18320  0.97210  Biso   1.000  N
  N7       1.0000 0.29520  0.33640  0.02010  Biso   1.000  N
  N8       1.0000 0.42290  0.15950  0.06000  Biso   1.000  N
  N9       1.0000 0.79560  0.29270  0.55680  Biso   1.000  N
  N10      1.0000 0.45310  0.22680  0.51580  Biso   1.000  N
  N11      1.0000 0.62130  0.34960  0.46690  Biso   1.000  N
  N12      1.0000 0.68190  0.15760  0.49940  Biso   1.000  N
  N13      1.0000 0.13880  0.11840  0.82180  Biso   1.000  N
  N14      1.0000 0.06860  0.26900  0.80610  Biso   1.000  N
  N15      1.0000 0.85990  0.20160  0.67940  Biso   1.000  N
  N16      1.0000 0.80570  0.40080  0.68550  Biso   1.000  N
  N17      1.0000 0.68970  0.42520  0.30770  Biso   1.000  N
  N18      1.0000 0.87060  0.51400  0.17990  Biso   1.000  N
  N19      1.0000 0.58200  0.45890  0.19930  Biso   1.000  N
  N20      1.0000 0.81960  0.57460  0.29000  Biso   1.000  N
  N21      1.0000 0.95120  0.20400  0.50160  Biso   1.000  N
  N22      1.0000 0.26430  0.31680  0.47210  Biso   1.000  N
  N23      1.0000 0.20480  0.16360  0.52010  Biso   1.000  N
  N24      1.0000 0.07710  0.34050  0.56000  Biso   1.000  N
  N25      1.0000 0.70440  0.20730  0.05680  Biso   1.000  N
  N26      1.0000 0.04690  0.27320  0.01580  Biso   1.000  N
  N27      1.0000 0.87870  0.15040  0.96690  Biso   1.000  N
  N28      1.0000 0.81810  0.34240  0.99940  Biso   1.000  N
  N29      1.0000 0.36120  0.38160  0.32180  Biso   1.000  N
  N30      1.0000 0.43140  0.23100  0.30610  Biso   1.000  N
  N31      1.0000 0.64010  0.29840  0.17940  Biso   1.000  N
  N32      1.0000 0.69430  0.09920  0.18550  Biso   1.000  N
  N33      1.0000 0.18970  0.92520  0.19230  Biso   1.000  N
  N34      1.0000 0.37060  0.01400  0.32010  Biso   1.000  N
  N35      1.0000 0.08200  0.95890  0.30070  Biso   1.000  N
  N36      1.0000 0.31960  0.07460  0.21000  Biso   1.000  N
  N37      1.0000 0.45120  0.70400  0.99840  Biso   1.000  N
  N38      1.0000 0.76430  0.81680  0.02790  Biso   1.000  N
  N39      1.0000 0.70480  0.66360  0.97990  Biso   1.000  N
  N40      1.0000 0.57710  0.84050  0.94000  Biso   1.000  N
  N41      1.0000 0.20440  0.70730  0.44320  Biso   1.000  N
  N42      1.0000 0.54690  0.77320  0.48420  Biso   1.000  N
  N43      1.0000 0.37870  0.65040  0.53310  Biso   1.000  N
  N44      1.0000 0.31810  0.84240  0.50060  Biso   1.000  N
  N45      1.0000 0.86120  0.88160  0.17820  Biso   1.000  N
  N46      1.0000 0.93140  0.73100  0.19390  Biso   1.000  N
  N47      1.0000 0.14010  0.79840  0.32060  Biso   1.000  N
  N48      1.0000 0.19430  0.59920  0.31450  Biso   1.000  N
  N49      1.0000 0.31030  0.57480  0.69230  Biso   1.000  N
  N50      1.0000 0.12940  0.48600  0.82010  Biso   1.000  N
  N51      1.0000 0.41800  0.54110  0.80070  Biso   1.000  N
  N52      1.0000 0.18040  0.42540  0.71000  Biso   1.000  N
  N53      1.0000 0.04880  0.79600  0.49840  Biso   1.000  N
  N54      1.0000 0.73570  0.68320  0.52790  Biso   1.000  N
  N55      1.0000 0.79520  0.83640  0.47990  Biso   1.000  N
  N56      1.0000 0.92290  0.65950  0.44000  Biso   1.000  N
  N57      1.0000 0.29560  0.79270  0.94320  Biso   1.000  N
  N58      1.0000 0.95310  0.72680  0.98420  Biso   1.000  N
  N59      1.0000 0.12130  0.84960  0.03310  Biso   1.000  N
  N60      1.0000 0.18190  0.65760  0.00060  Biso   1.000  N
  N61      1.0000 0.63880  0.61840  0.67820  Biso   1.000  N
  N62      1.0000 0.56860  0.76900  0.69390  Biso   1.000  N
  N63      1.0000 0.35990  0.70160  0.82060  Biso   1.000  N
  N64      1.0000 0.30570  0.90080  0.81450  Biso   1.000  N
  O1       1.0000 0.43200  0.13780  0.72990  Biso   1.000  O
  O2       1.0000 0.53890  0.19630  0.76120  Biso   1.000  O
  O3       1.0000 0.06940  0.86380  0.72080  Biso   1.000  O
  O4       1.0000 0.94680  0.80530  0.74200  Biso   1.000  O
  O5       1.0000 0.82830  0.11520  0.82600  Biso   1.000  O
  O6       1.0000 0.85160  0.03730  0.81560  Biso   1.000  O
  O7       1.0000 0.57990  0.99420  0.64920  Biso   1.000  O
  O8       1.0000 0.65590  0.94230  0.68640  Biso   1.000  O
  O9       1.0000 0.88820  0.08260  0.71140  Biso   1.000  O
  O10      1.0000 0.98010  0.04070  0.67160  Biso   1.000  O
  O11      1.0000 0.63720  0.95990  0.80160  Biso   1.000  O
  O12      1.0000 0.64720  0.87930  0.79590  Biso   1.000  O
  O13      1.0000 0.39070  0.21920  0.82390  Biso   1.000  O
  O14      1.0000 0.53640  0.26700  0.83720  Biso   1.000  O
  O15      1.0000 0.24400  0.22690  0.19550  Biso   1.000  O
  O16      1.0000 0.24220  0.31470  0.18350  Biso   1.000  O
  O17      1.0000 0.61400  0.32550  0.98400  Biso   1.000  O
  O18      1.0000 0.54060  0.29050  0.04140  Biso   1.000  O
  O19      1.0000 0.16910  0.17750  0.94580  Biso   1.000  O
  O20      1.0000 0.23500  0.16100  0.00940  Biso   1.000  O
  O21      1.0000 0.32620  0.33820  0.98430  Biso   1.000  O
  O22      1.0000 0.23880  0.36760  0.03180  Biso   1.000  O
  O23      1.0000 0.45540  0.15260  0.02320  Biso   1.000  O
  O24      1.0000 0.43300  0.12670  0.08940  Biso   1.000  O
  O25      1.0000 0.45400  0.24330  0.68080  Biso   1.000  O
  O26      1.0000 0.60060  0.28360  0.69860  Biso   1.000  O
  O27      1.0000 0.75950  0.18770  0.33680  Biso   1.000  O
  O28      1.0000 0.77800  0.27730  0.32900  Biso   1.000  O
  O29      1.0000 0.81970  0.29700  0.51770  Biso   1.000  O
  O30      1.0000 0.85290  0.29710  0.58810  Biso   1.000  O
  O31      1.0000 0.46900  0.20400  0.48520  Biso   1.000  O
  O32      1.0000 0.37260  0.24730  0.51950  Biso   1.000  O
  O33      1.0000 0.64990  0.38810  0.44570  Biso   1.000  O
  O34      1.0000 0.56760  0.35170  0.49860  Biso   1.000  O
  O35      1.0000 0.67480  0.11400  0.48220  Biso   1.000  O
  O36      1.0000 0.69460  0.16530  0.53910  Biso   1.000  O
  O37      1.0000 0.25190  0.15170  0.77440  Biso   1.000  O
  O38      1.0000 0.23410  0.26810  0.78690  Biso   1.000  O
  O39      1.0000 0.75120  0.22570  0.73610  Biso   1.000  O
  O40      1.0000 0.76210  0.34170  0.74200  Biso   1.000  O
  O41      1.0000 0.06800  0.36220  0.22990  Biso   1.000  O
  O42      1.0000 0.96110  0.30370  0.26120  Biso   1.000  O
  O43      1.0000 0.43060  0.63620  0.22080  Biso   1.000  O
  O44      1.0000 0.55320  0.69470  0.24200  Biso   1.000  O
  O45      1.0000 0.67170  0.38480  0.32600  Biso   1.000  O
  O46      1.0000 0.64840  0.46270  0.31560  Biso   1.000  O
  O47      1.0000 0.92010  0.50580  0.14920  Biso   1.000  O
  O48      1.0000 0.84410  0.55770  0.18640  Biso   1.000  O
  O49      1.0000 0.61180  0.41740  0.21140  Biso   1.000  O
  O50      1.0000 0.51990  0.45930  0.17160  Biso   1.000  O
  O51      1.0000 0.86280  0.54010  0.30160  Biso   1.000  O
  O52      1.0000 0.85280  0.62070  0.29590  Biso   1.000  O
  O53      1.0000 0.10930  0.28080  0.32390  Biso   1.000  O
  O54      1.0000 0.96360  0.23300  0.33720  Biso   1.000  O
  O55      1.0000 0.25600  0.27310  0.69550  Biso   1.000  O
  O56      1.0000 0.25780  0.18530  0.68350  Biso   1.000  O
  O57      1.0000 0.88600  0.17450  0.48400  Biso   1.000  O
  O58      1.0000 0.95940  0.20950  0.54140  Biso   1.000  O
  O59      1.0000 0.33090  0.32250  0.44580  Biso   1.000  O
  O60      1.0000 0.26500  0.33900  0.50940  Biso   1.000  O
  O61      1.0000 0.17380  0.16180  0.48430  Biso   1.000  O
  O62      1.0000 0.26120  0.13240  0.53180  Biso   1.000  O
  O63      1.0000 0.04460  0.34740  0.52320  Biso   1.000  O
  O64      1.0000 0.06700  0.37330  0.58940  Biso   1.000  O
  O65      1.0000 0.04600  0.25670  0.18080  Biso   1.000  O
  O66      1.0000 0.89940  0.21640  0.19860  Biso   1.000  O
  O67      1.0000 0.74050  0.31230  0.83680  Biso   1.000  O
  O68      1.0000 0.72200  0.22270  0.82900  Biso   1.000  O
  O69      1.0000 0.68030  0.20300  0.01770  Biso   1.000  O
  O70      1.0000 0.64710  0.20290  0.08810  Biso   1.000  O
  O71      1.0000 0.03100  0.29600  0.98520  Biso   1.000  O
  O72      1.0000 0.12740  0.25270  0.01950  Biso   1.000  O
  O73      1.0000 0.85010  0.11190  0.94570  Biso   1.000  O
  O74      1.0000 0.93240  0.14830  0.99860  Biso   1.000  O
  O75      1.0000 0.82520  0.38600  0.98220  Biso   1.000  O
  O76      1.0000 0.80540  0.33470  0.03910  Biso   1.000  O
  O77      1.0000 0.24810  0.34830  0.27440  Biso   1.000  O
  O78      1.0000 0.26590  0.23190  0.28690  Biso   1.000  O
  O79      1.0000 0.74880  0.27430  0.23610  Biso   1.000  O
  O80      1.0000 0.73790  0.15830  0.24200  Biso   1.000  O
  O81      1.0000 0.56800  0.86220  0.27010  Biso   1.000  O
  O82      1.0000 0.46110  0.80370  0.23880  Biso   1.000  O
  O83      1.0000 0.93060  0.13620  0.27920  Biso   1.000  O
  O84      1.0000 0.05320  0.19470  0.25800  Biso   1.000  O
  O85      1.0000 0.17170  0.88480  0.17400  Biso   1.000  O
  O86      1.0000 0.14840  0.96270  0.18440  Biso   1.000  O
  O87      1.0000 0.42010  0.00580  0.35080  Biso   1.000  O
  O88      1.0000 0.34410  0.05770  0.31360  Biso   1.000  O
  O89      1.0000 0.11180  0.91740  0.28860  Biso   1.000  O
  O90      1.0000 0.01990  0.95930  0.32840  Biso   1.000  O
  O91      1.0000 0.36280  0.04010  0.19840  Biso   1.000  O
  O92      1.0000 0.35280  0.12070  0.20410  Biso   1.000  O
  O93      1.0000 0.60930  0.78080  0.17610  Biso   1.000  O
  O94      1.0000 0.46360  0.73300  0.16280  Biso   1.000  O
  O95      1.0000 0.75600  0.77310  0.80450  Biso   1.000  O
  O96      1.0000 0.75780  0.68530  0.81650  Biso   1.000  O
  O97      1.0000 0.38600  0.67450  0.01600  Biso   1.000  O
  O98      1.0000 0.45940  0.70950  0.95860  Biso   1.000  O
  O99      1.0000 0.83090  0.82250  0.05420  Biso   1.000  O
  O100     1.0000 0.76500  0.83900  0.99060  Biso   1.000  O
  O101     1.0000 0.67380  0.66180  0.01570  Biso   1.000  O
  O102     1.0000 0.76120  0.63240  0.96820  Biso   1.000  O
  O103     1.0000 0.54460  0.84740  0.97680  Biso   1.000  O
  O104     1.0000 0.56700  0.87330  0.91060  Biso   1.000  O
  O105     1.0000 0.54600  0.75670  0.31920  Biso   1.000  O
  O106     1.0000 0.39940  0.71640  0.30140  Biso   1.000  O
  O107     1.0000 0.24050  0.81230  0.66320  Biso   1.000  O
  O108     1.0000 0.22200  0.72270  0.67100  Biso   1.000  O
  O109     1.0000 0.18030  0.70300  0.48230  Biso   1.000  O
  O110     1.0000 0.14710  0.70290  0.41190  Biso   1.000  O
  O111     1.0000 0.53100  0.79600  0.51480  Biso   1.000  O
  O112     1.0000 0.62740  0.75270  0.48050  Biso   1.000  O
  O113     1.0000 0.35010  0.61190  0.55430  Biso   1.000  O
  O114     1.0000 0.43240  0.64830  0.50140  Biso   1.000  O
  O115     1.0000 0.32520  0.88600  0.51780  Biso   1.000  O
  O116     1.0000 0.30540  0.83470  0.46090  Biso   1.000  O
  O117     1.0000 0.74810  0.84830  0.22560  Biso   1.000  O
  O118     1.0000 0.76590  0.73190  0.21310  Biso   1.000  O
  O119     1.0000 0.24880  0.77430  0.26390  Biso   1.000  O
  O120     1.0000 0.23790  0.65830  0.25800  Biso   1.000  O
  O121     1.0000 0.93200  0.63780  0.77010  Biso   1.000  O
  O122     1.0000 0.03890  0.69630  0.73880  Biso   1.000  O
  O123     1.0000 0.56940  0.36380  0.77920  Biso   1.000  O
  O124     1.0000 0.44680  0.30530  0.75800  Biso   1.000  O
  O125     1.0000 0.32830  0.61520  0.67400  Biso   1.000  O
  O126     1.0000 0.35160  0.53730  0.68440  Biso   1.000  O
  O127     1.0000 0.07990  0.49420  0.85080  Biso   1.000  O
  O128     1.0000 0.15590  0.44230  0.81360  Biso   1.000  O
  O129     1.0000 0.38820  0.58260  0.78860  Biso   1.000  O
  O130     1.0000 0.48010  0.54070  0.82840  Biso   1.000  O
  O131     1.0000 0.13720  0.45990  0.69840  Biso   1.000  O
  O132     1.0000 0.14720  0.37930  0.70410  Biso   1.000  O
  O133     1.0000 0.89070  0.71920  0.67610  Biso   1.000  O
  O134     1.0000 0.03640  0.76700  0.66280  Biso   1.000  O
  O135     1.0000 0.74400  0.72690  0.30450  Biso   1.000  O
  O136     1.0000 0.74220  0.81470  0.31650  Biso   1.000  O
  O137     1.0000 0.11400  0.82550  0.51600  Biso   1.000  O
  O138     1.0000 0.04060  0.79050  0.45860  Biso   1.000  O
  O139     1.0000 0.66910  0.67750  0.55420  Biso   1.000  O
  O140     1.0000 0.73500  0.66100  0.49060  Biso   1.000  O
  O141     1.0000 0.82620  0.83820  0.51570  Biso   1.000  O
  O142     1.0000 0.73880  0.86760  0.46820  Biso   1.000  O
  O143     1.0000 0.95540  0.65260  0.47680  Biso   1.000  O
  O144     1.0000 0.93300  0.62670  0.41060  Biso   1.000  O
  O145     1.0000 0.95400  0.74330  0.81920  Biso   1.000  O
  O146     1.0000 0.10060  0.78360  0.80140  Biso   1.000  O
  O147     1.0000 0.25950  0.68770  0.16320  Biso   1.000  O
  O148     1.0000 0.27800  0.77730  0.17100  Biso   1.000  O
  O149     1.0000 0.31970  0.79700  0.98230  Biso   1.000  O
  O150     1.0000 0.35290  0.79710  0.91190  Biso   1.000  O
  O151     1.0000 0.96900  0.70400  0.01480  Biso   1.000  O
  O152     1.0000 0.87260  0.74730  0.98050  Biso   1.000  O
  O153     1.0000 0.14990  0.88810  0.05430  Biso   1.000  O
  O154     1.0000 0.06760  0.85170  0.00140  Biso   1.000  O
  O155     1.0000 0.17480  0.61400  0.01780  Biso   1.000  O
  O156     1.0000 0.19460  0.66530  0.96090  Biso   1.000  O
  O157     1.0000 0.75190  0.65170  0.72560  Biso   1.000  O
  O158     1.0000 0.73410  0.76810  0.71310  Biso   1.000  O
  O159     1.0000 0.25120  0.72570  0.76390  Biso   1.000  O
  O160     1.0000 0.26210  0.84170  0.75800  Biso   1.000  O
