data_image0
_cell_length_a       14.636
_cell_length_b       19.2662
_cell_length_c       19.2662
_cell_angle_alpha    101.241
_cell_angle_beta     92.7
_cell_angle_gamma    92.7

_symmetry_space_group_name_H-M    P 1
_symmetry_int_tables_number       1

loop_
  _symmetry_equiv_pos_as_xyz
  'x, y, z'

loop_
  _atom_site_label
  _atom_site_occupancy
  _atom_site_fract_x
  _atom_site_fract_y
  _atom_site_fract_z
  _atom_site_thermal_displace_type
  _atom_site_B_iso_or_equiv
  _atom_site_type_symbol
  Gd1      1.0000 0.36875  0.45527  0.98247  Biso   1.000  Gd
  Gd2      1.0000 0.13125  0.01753  0.54473  Biso   1.000  Gd
  Gd3      1.0000 0.63125  0.54473  0.01753  Biso   1.000  Gd
  Gd4      1.0000 0.86875  0.98247  0.45527  Biso   1.000  Gd
  H1       1.0000 0.44740  0.30930  0.13210  Biso   1.000  H
  H2       1.0000 0.69650  0.40660  0.16540  Biso   1.000  H
  H3       1.0000 0.75800  0.05830  0.23790  Biso   1.000  H
  H4       1.0000 0.67270  0.17410  0.41790  Biso   1.000  H
  H5       1.0000 0.68570  0.43050  0.85970  Biso   1.000  H
  H6       1.0000 0.51610  0.25800  0.84160  Biso   1.000  H
  H7       1.0000 0.25540  0.47080  0.82200  Biso   1.000  H
  H8       1.0000 0.10990  0.34210  0.86690  Biso   1.000  H
  H9       1.0000 0.07590  0.32530  0.78670  Biso   1.000  H
  H10      1.0000 0.01760  0.37090  0.84290  Biso   1.000  H
  H11      1.0000 0.15090  0.49120  0.74780  Biso   1.000  H
  H12      1.0000 0.05040  0.48960  0.77240  Biso   1.000  H
  H13      1.0000 0.08390  0.42490  0.71910  Biso   1.000  H
  H14      1.0000 0.14330  0.48940  0.99600  Biso   1.000  H
  H15      1.0000 0.02760  0.56020  0.98540  Biso   1.000  H
  H16      1.0000 0.21560  0.71630  0.97770  Biso   1.000  H
  H17      1.0000 0.32640  0.63870  0.98810  Biso   1.000  H
  H18      1.0000 0.05020  0.74410  0.97690  Biso   1.000  H
  H19      1.0000 0.05260  0.86790  0.69070  Biso   1.000  H
  H20      1.0000 0.80350  0.83460  0.59340  Biso   1.000  H
  H21      1.0000 0.74200  0.76210  0.94170  Biso   1.000  H
  H22      1.0000 0.82730  0.58210  0.82590  Biso   1.000  H
  H23      1.0000 0.81430  0.14030  0.56950  Biso   1.000  H
  H24      1.0000 0.98390  0.15840  0.74200  Biso   1.000  H
  H25      1.0000 0.24460  0.17800  0.52920  Biso   1.000  H
  H26      1.0000 0.39010  0.13310  0.65790  Biso   1.000  H
  H27      1.0000 0.42410  0.21330  0.67470  Biso   1.000  H
  H28      1.0000 0.48240  0.15710  0.62910  Biso   1.000  H
  H29      1.0000 0.34910  0.25220  0.50880  Biso   1.000  H
  H30      1.0000 0.44960  0.22760  0.51040  Biso   1.000  H
  H31      1.0000 0.41610  0.28090  0.57510  Biso   1.000  H
  H32      1.0000 0.35670  0.00400  0.51060  Biso   1.000  H
  H33      1.0000 0.47240  0.01460  0.43980  Biso   1.000  H
  H34      1.0000 0.28440  0.02230  0.28370  Biso   1.000  H
  H35      1.0000 0.17360  0.01190  0.36130  Biso   1.000  H
  H36      1.0000 0.44980  0.02310  0.25590  Biso   1.000  H
  H37      1.0000 0.55260  0.69070  0.86790  Biso   1.000  H
  H38      1.0000 0.30350  0.59340  0.83460  Biso   1.000  H
  H39      1.0000 0.24200  0.94170  0.76210  Biso   1.000  H
  H40      1.0000 0.32730  0.82590  0.58210  Biso   1.000  H
  H41      1.0000 0.31430  0.56950  0.14030  Biso   1.000  H
  H42      1.0000 0.48390  0.74200  0.15840  Biso   1.000  H
  H43      1.0000 0.74460  0.52920  0.17800  Biso   1.000  H
  H44      1.0000 0.89010  0.65790  0.13310  Biso   1.000  H
  H45      1.0000 0.92410  0.67470  0.21330  Biso   1.000  H
  H46      1.0000 0.98240  0.62910  0.15710  Biso   1.000  H
  H47      1.0000 0.84910  0.50880  0.25220  Biso   1.000  H
  H48      1.0000 0.94960  0.51040  0.22760  Biso   1.000  H
  H49      1.0000 0.91610  0.57510  0.28090  Biso   1.000  H
  H50      1.0000 0.85670  0.51060  0.00400  Biso   1.000  H
  H51      1.0000 0.97240  0.43980  0.01460  Biso   1.000  H
  H52      1.0000 0.78440  0.28370  0.02230  Biso   1.000  H
  H53      1.0000 0.67360  0.36130  0.01190  Biso   1.000  H
  H54      1.0000 0.94980  0.25590  0.02310  Biso   1.000  H
  H55      1.0000 0.94740  0.13210  0.30930  Biso   1.000  H
  H56      1.0000 0.19650  0.16540  0.40660  Biso   1.000  H
  H57      1.0000 0.25800  0.23790  0.05830  Biso   1.000  H
  H58      1.0000 0.17270  0.41790  0.17410  Biso   1.000  H
  H59      1.0000 0.18570  0.85970  0.43050  Biso   1.000  H
  H60      1.0000 0.01610  0.84160  0.25800  Biso   1.000  H
  H61      1.0000 0.75540  0.82200  0.47080  Biso   1.000  H
  H62      1.0000 0.60990  0.86690  0.34210  Biso   1.000  H
  H63      1.0000 0.57590  0.78670  0.32530  Biso   1.000  H
  H64      1.0000 0.51760  0.84290  0.37090  Biso   1.000  H
  H65      1.0000 0.65090  0.74780  0.49120  Biso   1.000  H
  H66      1.0000 0.55040  0.77240  0.48960  Biso   1.000  H
  H67      1.0000 0.58390  0.71910  0.42490  Biso   1.000  H
  H68      1.0000 0.64330  0.99600  0.48940  Biso   1.000  H
  H69      1.0000 0.52760  0.98540  0.56020  Biso   1.000  H
  H70      1.0000 0.71560  0.97770  0.71630  Biso   1.000  H
  H71      1.0000 0.82640  0.98810  0.63870  Biso   1.000  H
  H72      1.0000 0.55020  0.97690  0.74410  Biso   1.000  H
  C1       1.0000 0.53900  0.42150  0.09990  Biso   1.000  C
  C2       1.0000 0.56710  0.36820  0.14180  Biso   1.000  C
  C3       1.0000 0.50770  0.31250  0.15050  Biso   1.000  C
  C4       1.0000 0.53910  0.26090  0.18730  Biso   1.000  C
  C5       1.0000 0.62660  0.26300  0.21680  Biso   1.000  C
  C6       1.0000 0.68450  0.31800  0.20560  Biso   1.000  C
  C7       1.0000 0.65530  0.36990  0.17010  Biso   1.000  C
  C8       1.0000 0.65820  0.20630  0.25610  Biso   1.000  C
  C9       1.0000 0.69980  0.14840  0.22540  Biso   1.000  C
  C10      1.0000 0.73180  0.09860  0.26180  Biso   1.000  C
  C11      1.0000 0.72440  0.10940  0.33500  Biso   1.000  C
  C12      1.0000 0.68070  0.16730  0.36950  Biso   1.000  C
  C13      1.0000 0.64940  0.21430  0.33050  Biso   1.000  C
  C14      1.0000 0.76630  0.05940  0.37740  Biso   1.000  C
  C15      1.0000 0.52370  0.39140  0.90520  Biso   1.000  C
  C16      1.0000 0.59190  0.35060  0.85820  Biso   1.000  C
  C17      1.0000 0.67160  0.38240  0.84280  Biso   1.000  C
  C18      1.0000 0.73160  0.34030  0.80050  Biso   1.000  C
  C19      1.0000 0.71640  0.27000  0.77500  Biso   1.000  C
  C20      1.0000 0.63470  0.23870  0.79110  Biso   1.000  C
  C21      1.0000 0.57130  0.27910  0.83210  Biso   1.000  C
  C22      1.0000 0.21800  0.44220  0.84400  Biso   1.000  C
  C23      1.0000 0.07900  0.36020  0.82980  Biso   1.000  C
  C24      1.0000 0.10200  0.46160  0.75940  Biso   1.000  C
  C25      1.0000 0.15830  0.53580  0.99180  Biso   1.000  C
  C26      1.0000 0.08810  0.57760  0.98580  Biso   1.000  C
  C27      1.0000 0.10900  0.64770  0.98030  Biso   1.000  C
  C28      1.0000 0.19910  0.67000  0.98120  Biso   1.000  C
  C29      1.0000 0.26540  0.62250  0.98730  Biso   1.000  C
  C30      1.0000 0.03440  0.69720  0.97880  Biso   1.000  C
  C31      1.0000 0.96100  0.90010  0.57850  Biso   1.000  C
  C32      1.0000 0.93290  0.85820  0.63180  Biso   1.000  C
  C33      1.0000 0.99230  0.84950  0.68750  Biso   1.000  C
  C34      1.0000 0.96090  0.81270  0.73910  Biso   1.000  C
  C35      1.0000 0.87340  0.78320  0.73700  Biso   1.000  C
  C36      1.0000 0.81550  0.79440  0.68200  Biso   1.000  C
  C37      1.0000 0.84470  0.82990  0.63010  Biso   1.000  C
  C38      1.0000 0.84180  0.74390  0.79370  Biso   1.000  C
  C39      1.0000 0.80020  0.77460  0.85160  Biso   1.000  C
  C40      1.0000 0.76820  0.73820  0.90140  Biso   1.000  C
  C41      1.0000 0.77560  0.66500  0.89060  Biso   1.000  C
  C42      1.0000 0.81930  0.63050  0.83270  Biso   1.000  C
  C43      1.0000 0.85060  0.66950  0.78570  Biso   1.000  C
  C44      1.0000 0.73370  0.62260  0.94060  Biso   1.000  C
  C45      1.0000 0.97630  0.09480  0.60860  Biso   1.000  C
  C46      1.0000 0.90810  0.14180  0.64940  Biso   1.000  C
  C47      1.0000 0.82840  0.15720  0.61760  Biso   1.000  C
  C48      1.0000 0.76840  0.19950  0.65970  Biso   1.000  C
  C49      1.0000 0.78360  0.22500  0.73000  Biso   1.000  C
  C50      1.0000 0.86530  0.20890  0.76130  Biso   1.000  C
  C51      1.0000 0.92870  0.16790  0.72090  Biso   1.000  C
  C52      1.0000 0.28200  0.15600  0.55780  Biso   1.000  C
  C53      1.0000 0.42100  0.17020  0.63980  Biso   1.000  C
  C54      1.0000 0.39800  0.24060  0.53840  Biso   1.000  C
  C55      1.0000 0.34170  0.00820  0.46420  Biso   1.000  C
  C56      1.0000 0.41190  0.01420  0.42240  Biso   1.000  C
  C57      1.0000 0.39100  0.01970  0.35230  Biso   1.000  C
  C58      1.0000 0.30090  0.01880  0.33000  Biso   1.000  C
  C59      1.0000 0.23460  0.01270  0.37750  Biso   1.000  C
  C60      1.0000 0.46560  0.02120  0.30280  Biso   1.000  C
  C61      1.0000 0.46100  0.57850  0.90010  Biso   1.000  C
  C62      1.0000 0.43290  0.63180  0.85820  Biso   1.000  C
  C63      1.0000 0.49230  0.68750  0.84950  Biso   1.000  C
  C64      1.0000 0.46090  0.73910  0.81270  Biso   1.000  C
  C65      1.0000 0.37340  0.73700  0.78320  Biso   1.000  C
  C66      1.0000 0.31550  0.68200  0.79440  Biso   1.000  C
  C67      1.0000 0.34470  0.63010  0.82990  Biso   1.000  C
  C68      1.0000 0.34180  0.79370  0.74390  Biso   1.000  C
  C69      1.0000 0.30020  0.85160  0.77460  Biso   1.000  C
  C70      1.0000 0.26820  0.90140  0.73820  Biso   1.000  C
  C71      1.0000 0.27560  0.89060  0.66500  Biso   1.000  C
  C72      1.0000 0.31930  0.83270  0.63050  Biso   1.000  C
  C73      1.0000 0.35060  0.78570  0.66950  Biso   1.000  C
  C74      1.0000 0.23370  0.94060  0.62260  Biso   1.000  C
  C75      1.0000 0.47630  0.60860  0.09480  Biso   1.000  C
  C76      1.0000 0.40810  0.64940  0.14180  Biso   1.000  C
  C77      1.0000 0.32840  0.61760  0.15720  Biso   1.000  C
  C78      1.0000 0.26840  0.65970  0.19950  Biso   1.000  C
  C79      1.0000 0.28360  0.73000  0.22500  Biso   1.000  C
  C80      1.0000 0.36530  0.76130  0.20890  Biso   1.000  C
  C81      1.0000 0.42870  0.72090  0.16790  Biso   1.000  C
  C82      1.0000 0.78200  0.55780  0.15600  Biso   1.000  C
  C83      1.0000 0.92100  0.63980  0.17020  Biso   1.000  C
  C84      1.0000 0.89800  0.53840  0.24060  Biso   1.000  C
  C85      1.0000 0.84170  0.46420  0.00820  Biso   1.000  C
  C86      1.0000 0.91190  0.42240  0.01420  Biso   1.000  C
  C87      1.0000 0.89100  0.35230  0.01970  Biso   1.000  C
  C88      1.0000 0.80090  0.33000  0.01880  Biso   1.000  C
  C89      1.0000 0.73460  0.37750  0.01270  Biso   1.000  C
  C90      1.0000 0.96560  0.30280  0.02120  Biso   1.000  C
  C91      1.0000 0.03900  0.09990  0.42150  Biso   1.000  C
  C92      1.0000 0.06710  0.14180  0.36820  Biso   1.000  C
  C93      1.0000 0.00770  0.15050  0.31250  Biso   1.000  C
  C94      1.0000 0.03910  0.18730  0.26090  Biso   1.000  C
  C95      1.0000 0.12660  0.21680  0.26300  Biso   1.000  C
  C96      1.0000 0.18450  0.20560  0.31800  Biso   1.000  C
  C97      1.0000 0.15530  0.17010  0.36990  Biso   1.000  C
  C98      1.0000 0.15820  0.25610  0.20630  Biso   1.000  C
  C99      1.0000 0.19980  0.22540  0.14840  Biso   1.000  C
  C100     1.0000 0.23180  0.26180  0.09860  Biso   1.000  C
  C101     1.0000 0.22440  0.33500  0.10940  Biso   1.000  C
  C102     1.0000 0.18070  0.36950  0.16730  Biso   1.000  C
  C103     1.0000 0.14940  0.33050  0.21430  Biso   1.000  C
  C104     1.0000 0.26630  0.37740  0.05940  Biso   1.000  C
  C105     1.0000 0.02370  0.90520  0.39140  Biso   1.000  C
  C106     1.0000 0.09190  0.85820  0.35060  Biso   1.000  C
  C107     1.0000 0.17160  0.84280  0.38240  Biso   1.000  C
  C108     1.0000 0.23160  0.80050  0.34030  Biso   1.000  C
  C109     1.0000 0.21640  0.77500  0.27000  Biso   1.000  C
  C110     1.0000 0.13470  0.79110  0.23870  Biso   1.000  C
  C111     1.0000 0.07130  0.83210  0.27910  Biso   1.000  C
  C112     1.0000 0.71800  0.84400  0.44220  Biso   1.000  C
  C113     1.0000 0.57900  0.82980  0.36020  Biso   1.000  C
  C114     1.0000 0.60200  0.75940  0.46160  Biso   1.000  C
  C115     1.0000 0.65830  0.99180  0.53580  Biso   1.000  C
  C116     1.0000 0.58810  0.98580  0.57760  Biso   1.000  C
  C117     1.0000 0.60900  0.98030  0.64770  Biso   1.000  C
  C118     1.0000 0.69910  0.98120  0.67000  Biso   1.000  C
  C119     1.0000 0.76540  0.98730  0.62250  Biso   1.000  C
  C120     1.0000 0.53440  0.97880  0.69720  Biso   1.000  C
  N1       1.0000 0.46840  0.20480  0.19480  Biso   1.000  N
  N2       1.0000 0.78220  0.32430  0.22990  Biso   1.000  N
  N3       1.0000 0.71440  0.13280  0.14780  Biso   1.000  N
  N4       1.0000 0.60030  0.27280  0.36840  Biso   1.000  N
  N5       1.0000 0.81570  0.37970  0.78410  Biso   1.000  N
  N6       1.0000 0.61190  0.16310  0.77230  Biso   1.000  N
  N7       1.0000 0.13200  0.42970  0.81850  Biso   1.000  N
  N8       1.0000 0.24840  0.55500  0.99220  Biso   1.000  N
  N9       1.0000 0.03160  0.80520  0.79520  Biso   1.000  N
  N10      1.0000 0.71780  0.77010  0.67570  Biso   1.000  N
  N11      1.0000 0.78560  0.85220  0.86720  Biso   1.000  N
  N12      1.0000 0.89970  0.63160  0.72720  Biso   1.000  N
  N13      1.0000 0.68430  0.21590  0.62030  Biso   1.000  N
  N14      1.0000 0.88810  0.22770  0.83690  Biso   1.000  N
  N15      1.0000 0.36800  0.18150  0.57030  Biso   1.000  N
  N16      1.0000 0.25160  0.00780  0.44500  Biso   1.000  N
  N17      1.0000 0.53160  0.79520  0.80520  Biso   1.000  N
  N18      1.0000 0.21780  0.67570  0.77010  Biso   1.000  N
  N19      1.0000 0.28560  0.86720  0.85220  Biso   1.000  N
  N20      1.0000 0.39970  0.72720  0.63160  Biso   1.000  N
  N21      1.0000 0.18430  0.62030  0.21590  Biso   1.000  N
  N22      1.0000 0.38810  0.83690  0.22770  Biso   1.000  N
  N23      1.0000 0.86800  0.57030  0.18150  Biso   1.000  N
  N24      1.0000 0.75160  0.44500  0.00780  Biso   1.000  N
  N25      1.0000 0.96840  0.19480  0.20480  Biso   1.000  N
  N26      1.0000 0.28220  0.22990  0.32430  Biso   1.000  N
  N27      1.0000 0.21440  0.14780  0.13280  Biso   1.000  N
  N28      1.0000 0.10030  0.36840  0.27280  Biso   1.000  N
  N29      1.0000 0.31570  0.78410  0.37970  Biso   1.000  N
  N30      1.0000 0.11190  0.77230  0.16310  Biso   1.000  N
  N31      1.0000 0.63200  0.81850  0.42970  Biso   1.000  N
  N32      1.0000 0.74840  0.99220  0.55500  Biso   1.000  N
  O1       1.0000 0.46190  0.40930  0.06790  Biso   1.000  O
  O2       1.0000 0.59480  0.47180  0.09920  Biso   1.000  O
  O3       1.0000 0.76760  0.07500  0.44380  Biso   1.000  O
  O4       1.0000 0.79570  0.00360  0.34440  Biso   1.000  O
  O5       1.0000 0.40630  0.19060  0.14960  Biso   1.000  O
  O6       1.0000 0.47700  0.17730  0.24530  Biso   1.000  O
  O7       1.0000 0.83310  0.36580  0.20560  Biso   1.000  O
  O8       1.0000 0.80800  0.28720  0.26980  Biso   1.000  O
  O9       1.0000 0.70990  0.18310  0.11650  Biso   1.000  O
  O10      1.0000 0.73360  0.07310  0.12050  Biso   1.000  O
  O11      1.0000 0.59900  0.32850  0.34670  Biso   1.000  O
  O12      1.0000 0.56330  0.26450  0.42250  Biso   1.000  O
  O13      1.0000 0.55330  0.44730  0.94650  Biso   1.000  O
  O14      1.0000 0.44380  0.36730  0.90030  Biso   1.000  O
  O15      1.0000 0.84810  0.42710  0.82910  Biso   1.000  O
  O16      1.0000 0.84980  0.35800  0.72880  Biso   1.000  O
  O17      1.0000 0.67710  0.12420  0.77380  Biso   1.000  O
  O18      1.0000 0.53960  0.13960  0.76540  Biso   1.000  O
  O19      1.0000 0.25330  0.42010  0.89330  Biso   1.000  O
  O20      1.0000 0.95380  0.67950  0.97990  Biso   1.000  O
  O21      1.0000 0.03810  0.93210  0.59070  Biso   1.000  O
  O22      1.0000 0.90520  0.90080  0.52820  Biso   1.000  O
  O23      1.0000 0.73240  0.55620  0.92500  Biso   1.000  O
  O24      1.0000 0.70430  0.65560  0.99640  Biso   1.000  O
  O25      1.0000 0.09370  0.85040  0.80940  Biso   1.000  O
  O26      1.0000 0.02300  0.75470  0.82270  Biso   1.000  O
  O27      1.0000 0.66690  0.79440  0.63420  Biso   1.000  O
  O28      1.0000 0.69200  0.73020  0.71280  Biso   1.000  O
  O29      1.0000 0.79010  0.88350  0.81690  Biso   1.000  O
  O30      1.0000 0.76640  0.87950  0.92690  Biso   1.000  O
  O31      1.0000 0.90100  0.65330  0.67150  Biso   1.000  O
  O32      1.0000 0.93670  0.57750  0.73550  Biso   1.000  O
  O33      1.0000 0.94670  0.05350  0.55270  Biso   1.000  O
  O34      1.0000 0.05620  0.09970  0.63270  Biso   1.000  O
  O35      1.0000 0.65190  0.17090  0.57290  Biso   1.000  O
  O36      1.0000 0.65020  0.27120  0.64200  Biso   1.000  O
  O37      1.0000 0.82290  0.22620  0.87580  Biso   1.000  O
  O38      1.0000 0.96040  0.23460  0.86040  Biso   1.000  O
  O39      1.0000 0.24670  0.10670  0.57990  Biso   1.000  O
  O40      1.0000 0.54620  0.02010  0.32050  Biso   1.000  O
  O41      1.0000 0.53810  0.59070  0.93210  Biso   1.000  O
  O42      1.0000 0.40520  0.52820  0.90080  Biso   1.000  O
  O43      1.0000 0.23240  0.92500  0.55620  Biso   1.000  O
  O44      1.0000 0.20430  0.99640  0.65560  Biso   1.000  O
  O45      1.0000 0.59370  0.80940  0.85040  Biso   1.000  O
  O46      1.0000 0.52300  0.82270  0.75470  Biso   1.000  O
  O47      1.0000 0.16690  0.63420  0.79440  Biso   1.000  O
  O48      1.0000 0.19200  0.71280  0.73020  Biso   1.000  O
  O49      1.0000 0.29010  0.81690  0.88350  Biso   1.000  O
  O50      1.0000 0.26640  0.92690  0.87950  Biso   1.000  O
  O51      1.0000 0.40100  0.67150  0.65330  Biso   1.000  O
  O52      1.0000 0.43670  0.73550  0.57750  Biso   1.000  O
  O53      1.0000 0.44670  0.55270  0.05350  Biso   1.000  O
  O54      1.0000 0.55620  0.63270  0.09970  Biso   1.000  O
  O55      1.0000 0.15190  0.57290  0.17090  Biso   1.000  O
  O56      1.0000 0.15020  0.64200  0.27120  Biso   1.000  O
  O57      1.0000 0.32290  0.87580  0.22620  Biso   1.000  O
  O58      1.0000 0.46040  0.86040  0.23460  Biso   1.000  O
  O59      1.0000 0.74670  0.57990  0.10670  Biso   1.000  O
  O60      1.0000 0.04620  0.32050  0.02010  Biso   1.000  O
  O61      1.0000 0.96190  0.06790  0.40930  Biso   1.000  O
  O62      1.0000 0.09480  0.09920  0.47180  Biso   1.000  O
  O63      1.0000 0.26760  0.44380  0.07500  Biso   1.000  O
  O64      1.0000 0.29570  0.34440  0.00360  Biso   1.000  O
  O65      1.0000 0.90630  0.14960  0.19060  Biso   1.000  O
  O66      1.0000 0.97700  0.24530  0.17730  Biso   1.000  O
  O67      1.0000 0.33310  0.20560  0.36580  Biso   1.000  O
  O68      1.0000 0.30800  0.26980  0.28720  Biso   1.000  O
  O69      1.0000 0.20990  0.11650  0.18310  Biso   1.000  O
  O70      1.0000 0.23360  0.12050  0.07310  Biso   1.000  O
  O71      1.0000 0.09900  0.34670  0.32850  Biso   1.000  O
  O72      1.0000 0.06330  0.42250  0.26450  Biso   1.000  O
  O73      1.0000 0.05330  0.94650  0.44730  Biso   1.000  O
  O74      1.0000 0.94380  0.90030  0.36730  Biso   1.000  O
  O75      1.0000 0.34810  0.82910  0.42710  Biso   1.000  O
  O76      1.0000 0.34980  0.72880  0.35800  Biso   1.000  O
  O77      1.0000 0.17710  0.77380  0.12420  Biso   1.000  O
  O78      1.0000 0.03960  0.76540  0.13960  Biso   1.000  O
  O79      1.0000 0.75330  0.89330  0.42010  Biso   1.000  O
  O80      1.0000 0.45380  0.97990  0.67950  Biso   1.000  O
