data_image0
_cell_length_a       13.362
_cell_length_b       19.4868
_cell_length_c       19.4868
_cell_angle_alpha    101.901
_cell_angle_beta     93.0394
_cell_angle_gamma    93.0394

_symmetry_space_group_name_H-M    P 1
_symmetry_int_tables_number       1

loop_
  _symmetry_equiv_pos_as_xyz
  'x, y, z'

loop_
  _atom_site_label
  _atom_site_occupancy
  _atom_site_fract_x
  _atom_site_fract_y
  _atom_site_fract_z
  _atom_site_thermal_displace_type
  _atom_site_B_iso_or_equiv
  _atom_site_type_symbol
  Gd1      1.0000 0.35252  0.48746  0.96326  Biso   1.000  Gd
  Gd2      1.0000 0.14748  0.03674  0.51254  Biso   1.000  Gd
  Gd3      1.0000 0.64748  0.51254  0.03674  Biso   1.000  Gd
  Gd4      1.0000 0.85252  0.96326  0.48746  Biso   1.000  Gd
  H1       1.0000 0.56900  0.38600  0.19700  Biso   1.000  H
  H2       1.0000 0.29950  0.33200  0.09860  Biso   1.000  H
  H3       1.0000 0.28650  0.24820  0.44420  Biso   1.000  H
  H4       1.0000 0.34010  0.07300  0.30880  Biso   1.000  H
  H5       1.0000 0.67330  0.34940  0.93220  Biso   1.000  H
  H6       1.0000 0.49380  0.33740  0.75940  Biso   1.000  H
  H7       1.0000 0.25000  0.46200  0.11680  Biso   1.000  H
  H8       1.0000 0.05230  0.53750  0.05870  Biso   1.000  H
  H9       1.0000 0.97530  0.48740  0.08600  Biso   1.000  H
  H10      1.0000 0.01720  0.55830  0.13530  Biso   1.000  H
  H11      1.0000 0.15200  0.46600  0.21680  Biso   1.000  H
  H12      1.0000 0.03650  0.47280  0.20400  Biso   1.000  H
  H13      1.0000 0.08580  0.40450  0.16790  Biso   1.000  H
  H14      1.0000 0.24280  0.34920  0.84360  Biso   1.000  H
  H15      1.0000 0.03160  0.29500  0.93980  Biso   1.000  H
  H16      1.0000 0.08810  0.24570  0.98070  Biso   1.000  H
  H17      1.0000 0.10460  0.32750  0.00550  Biso   1.000  H
  H18      1.0000 0.20570  0.24130  0.81770  Biso   1.000  H
  H19      1.0000 0.10420  0.21370  0.84230  Biso   1.000  H
  H20      1.0000 0.11230  0.28690  0.82090  Biso   1.000  H
  H21      1.0000 0.93100  0.80300  0.61400  Biso   1.000  H
  H22      1.0000 0.20050  0.90140  0.66800  Biso   1.000  H
  H23      1.0000 0.21350  0.55580  0.75180  Biso   1.000  H
  H24      1.0000 0.15990  0.69120  0.92700  Biso   1.000  H
  H25      1.0000 0.82670  0.06780  0.65060  Biso   1.000  H
  H26      1.0000 0.00620  0.24060  0.66260  Biso   1.000  H
  H27      1.0000 0.25000  0.88320  0.53800  Biso   1.000  H
  H28      1.0000 0.44770  0.94130  0.46250  Biso   1.000  H
  H29      1.0000 0.52470  0.91400  0.51260  Biso   1.000  H
  H30      1.0000 0.48280  0.86470  0.44170  Biso   1.000  H
  H31      1.0000 0.34800  0.78320  0.53400  Biso   1.000  H
  H32      1.0000 0.46350  0.79600  0.52720  Biso   1.000  H
  H33      1.0000 0.41420  0.83210  0.59550  Biso   1.000  H
  H34      1.0000 0.25720  0.15640  0.65080  Biso   1.000  H
  H35      1.0000 0.46840  0.06020  0.70500  Biso   1.000  H
  H36      1.0000 0.41190  0.01930  0.75430  Biso   1.000  H
  H37      1.0000 0.39540  0.99450  0.67250  Biso   1.000  H
  H38      1.0000 0.29430  0.18230  0.75870  Biso   1.000  H
  H39      1.0000 0.39580  0.15770  0.78630  Biso   1.000  H
  H40      1.0000 0.38770  0.17910  0.71310  Biso   1.000  H
  H41      1.0000 0.43100  0.61400  0.80300  Biso   1.000  H
  H42      1.0000 0.70050  0.66800  0.90140  Biso   1.000  H
  H43      1.0000 0.71350  0.75180  0.55580  Biso   1.000  H
  H44      1.0000 0.65990  0.92700  0.69120  Biso   1.000  H
  H45      1.0000 0.32670  0.65060  0.06780  Biso   1.000  H
  H46      1.0000 0.50620  0.66260  0.24060  Biso   1.000  H
  H47      1.0000 0.75000  0.53800  0.88320  Biso   1.000  H
  H48      1.0000 0.94770  0.46250  0.94130  Biso   1.000  H
  H49      1.0000 0.02470  0.51260  0.91400  Biso   1.000  H
  H50      1.0000 0.98280  0.44170  0.86470  Biso   1.000  H
  H51      1.0000 0.84800  0.53400  0.78320  Biso   1.000  H
  H52      1.0000 0.96350  0.52720  0.79600  Biso   1.000  H
  H53      1.0000 0.91420  0.59550  0.83210  Biso   1.000  H
  H54      1.0000 0.75720  0.65080  0.15640  Biso   1.000  H
  H55      1.0000 0.96840  0.70500  0.06020  Biso   1.000  H
  H56      1.0000 0.91190  0.75430  0.01930  Biso   1.000  H
  H57      1.0000 0.89540  0.67250  0.99450  Biso   1.000  H
  H58      1.0000 0.79430  0.75870  0.18230  Biso   1.000  H
  H59      1.0000 0.89580  0.78630  0.15770  Biso   1.000  H
  H60      1.0000 0.88770  0.71310  0.17910  Biso   1.000  H
  H61      1.0000 0.06900  0.19700  0.38600  Biso   1.000  H
  H62      1.0000 0.79950  0.09860  0.33200  Biso   1.000  H
  H63      1.0000 0.78650  0.44420  0.24820  Biso   1.000  H
  H64      1.0000 0.84010  0.30880  0.07300  Biso   1.000  H
  H65      1.0000 0.17330  0.93220  0.34940  Biso   1.000  H
  H66      1.0000 0.99380  0.75940  0.33740  Biso   1.000  H
  H67      1.0000 0.75000  0.11680  0.46200  Biso   1.000  H
  H68      1.0000 0.55230  0.05870  0.53750  Biso   1.000  H
  H69      1.0000 0.47530  0.08600  0.48740  Biso   1.000  H
  H70      1.0000 0.51720  0.13530  0.55830  Biso   1.000  H
  H71      1.0000 0.65200  0.21680  0.46600  Biso   1.000  H
  H72      1.0000 0.53650  0.20400  0.47280  Biso   1.000  H
  H73      1.0000 0.58580  0.16790  0.40450  Biso   1.000  H
  H74      1.0000 0.74280  0.84360  0.34920  Biso   1.000  H
  H75      1.0000 0.53160  0.93980  0.29500  Biso   1.000  H
  H76      1.0000 0.58810  0.98070  0.24570  Biso   1.000  H
  H77      1.0000 0.60460  0.00550  0.32750  Biso   1.000  H
  H78      1.0000 0.70570  0.81770  0.24130  Biso   1.000  H
  H79      1.0000 0.60420  0.84230  0.21370  Biso   1.000  H
  H80      1.0000 0.61230  0.82090  0.28690  Biso   1.000  H
  C1       1.0000 0.46000  0.41250  0.08770  Biso   1.000  C
  C2       1.0000 0.43810  0.36460  0.13920  Biso   1.000  C
  C3       1.0000 0.50740  0.36040  0.19200  Biso   1.000  C
  C4       1.0000 0.48370  0.31710  0.23770  Biso   1.000  C
  C5       1.0000 0.39330  0.27670  0.23430  Biso   1.000  C
  C6       1.0000 0.32170  0.28800  0.18140  Biso   1.000  C
  C7       1.0000 0.34640  0.32870  0.13450  Biso   1.000  C
  C8       1.0000 0.36750  0.23430  0.28770  Biso   1.000  C
  C9       1.0000 0.33320  0.26380  0.35160  Biso   1.000  C
  C10      1.0000 0.30490  0.22530  0.40030  Biso   1.000  C
  C11      1.0000 0.30400  0.15310  0.38370  Biso   1.000  C
  C12      1.0000 0.33960  0.12170  0.32110  Biso   1.000  C
  C13      1.0000 0.37520  0.16300  0.27580  Biso   1.000  C
  C14      1.0000 0.26260  0.10990  0.43330  Biso   1.000  C
  C15      1.0000 0.50600  0.40040  0.89540  Biso   1.000  C
  C16      1.0000 0.57650  0.35540  0.85180  Biso   1.000  C
  C17      1.0000 0.66060  0.33550  0.88370  Biso   1.000  C
  C18      1.0000 0.72760  0.29420  0.84340  Biso   1.000  C
  C19      1.0000 0.71300  0.27480  0.77060  Biso   1.000  C
  C20      1.0000 0.62300  0.29180  0.74180  Biso   1.000  C
  C21      1.0000 0.55500  0.32940  0.78060  Biso   1.000  C
  C22      1.0000 0.20300  0.48650  0.09690  Biso   1.000  C
  C23      1.0000 0.03300  0.51900  0.09900  Biso   1.000  C
  C24      1.0000 0.09600  0.45460  0.18300  Biso   1.000  C
  C25      1.0000 0.22380  0.34820  0.88860  Biso   1.000  C
  C26      1.0000 0.09300  0.28940  0.96540  Biso   1.000  C
  C27      1.0000 0.14760  0.25470  0.84290  Biso   1.000  C
  C28      1.0000 0.04000  0.91230  0.58750  Biso   1.000  C
  C29      1.0000 0.06190  0.86080  0.63540  Biso   1.000  C
  C30      1.0000 0.99260  0.80800  0.63960  Biso   1.000  C
  C31      1.0000 0.01630  0.76230  0.68290  Biso   1.000  C
  C32      1.0000 0.10670  0.76570  0.72330  Biso   1.000  C
  C33      1.0000 0.17830  0.81860  0.71200  Biso   1.000  C
  C34      1.0000 0.15360  0.86550  0.67130  Biso   1.000  C
  C35      1.0000 0.13250  0.71230  0.76570  Biso   1.000  C
  C36      1.0000 0.16680  0.64840  0.73620  Biso   1.000  C
  C37      1.0000 0.19510  0.59970  0.77470  Biso   1.000  C
  C38      1.0000 0.19600  0.61630  0.84690  Biso   1.000  C
  C39      1.0000 0.16040  0.67890  0.87830  Biso   1.000  C
  C40      1.0000 0.12480  0.72420  0.83700  Biso   1.000  C
  C41      1.0000 0.23740  0.56670  0.89010  Biso   1.000  C
  C42      1.0000 0.99400  0.10460  0.59960  Biso   1.000  C
  C43      1.0000 0.92350  0.14820  0.64460  Biso   1.000  C
  C44      1.0000 0.83940  0.11630  0.66450  Biso   1.000  C
  C45      1.0000 0.77240  0.15660  0.70580  Biso   1.000  C
  C46      1.0000 0.78700  0.22940  0.72520  Biso   1.000  C
  C47      1.0000 0.87700  0.25820  0.70820  Biso   1.000  C
  C48      1.0000 0.94500  0.21940  0.67060  Biso   1.000  C
  C49      1.0000 0.29700  0.90310  0.51350  Biso   1.000  C
  C50      1.0000 0.46700  0.90100  0.48100  Biso   1.000  C
  C51      1.0000 0.40400  0.81700  0.54540  Biso   1.000  C
  C52      1.0000 0.27620  0.11140  0.65180  Biso   1.000  C
  C53      1.0000 0.40700  0.03460  0.71060  Biso   1.000  C
  C54      1.0000 0.35240  0.15710  0.74530  Biso   1.000  C
  C55      1.0000 0.54000  0.58750  0.91230  Biso   1.000  C
  C56      1.0000 0.56190  0.63540  0.86080  Biso   1.000  C
  C57      1.0000 0.49260  0.63960  0.80800  Biso   1.000  C
  C58      1.0000 0.51630  0.68290  0.76230  Biso   1.000  C
  C59      1.0000 0.60670  0.72330  0.76570  Biso   1.000  C
  C60      1.0000 0.67830  0.71200  0.81860  Biso   1.000  C
  C61      1.0000 0.65360  0.67130  0.86550  Biso   1.000  C
  C62      1.0000 0.63250  0.76570  0.71230  Biso   1.000  C
  C63      1.0000 0.66680  0.73620  0.64840  Biso   1.000  C
  C64      1.0000 0.69510  0.77470  0.59970  Biso   1.000  C
  C65      1.0000 0.69600  0.84690  0.61630  Biso   1.000  C
  C66      1.0000 0.66040  0.87830  0.67890  Biso   1.000  C
  C67      1.0000 0.62480  0.83700  0.72420  Biso   1.000  C
  C68      1.0000 0.73740  0.89010  0.56670  Biso   1.000  C
  C69      1.0000 0.49400  0.59960  0.10460  Biso   1.000  C
  C70      1.0000 0.42350  0.64460  0.14820  Biso   1.000  C
  C71      1.0000 0.33940  0.66450  0.11630  Biso   1.000  C
  C72      1.0000 0.27240  0.70580  0.15660  Biso   1.000  C
  C73      1.0000 0.28700  0.72520  0.22940  Biso   1.000  C
  C74      1.0000 0.37700  0.70820  0.25820  Biso   1.000  C
  C75      1.0000 0.44500  0.67060  0.21940  Biso   1.000  C
  C76      1.0000 0.79700  0.51350  0.90310  Biso   1.000  C
  C77      1.0000 0.96700  0.48100  0.90100  Biso   1.000  C
  C78      1.0000 0.90400  0.54540  0.81700  Biso   1.000  C
  C79      1.0000 0.77620  0.65180  0.11140  Biso   1.000  C
  C80      1.0000 0.90700  0.71060  0.03460  Biso   1.000  C
  C81      1.0000 0.85240  0.74530  0.15710  Biso   1.000  C
  C82      1.0000 0.96000  0.08770  0.41250  Biso   1.000  C
  C83      1.0000 0.93810  0.13920  0.36460  Biso   1.000  C
  C84      1.0000 0.00740  0.19200  0.36040  Biso   1.000  C
  C85      1.0000 0.98370  0.23770  0.31710  Biso   1.000  C
  C86      1.0000 0.89330  0.23430  0.27670  Biso   1.000  C
  C87      1.0000 0.82170  0.18140  0.28800  Biso   1.000  C
  C88      1.0000 0.84640  0.13450  0.32870  Biso   1.000  C
  C89      1.0000 0.86750  0.28770  0.23430  Biso   1.000  C
  C90      1.0000 0.83320  0.35160  0.26380  Biso   1.000  C
  C91      1.0000 0.80490  0.40030  0.22530  Biso   1.000  C
  C92      1.0000 0.80400  0.38370  0.15310  Biso   1.000  C
  C93      1.0000 0.83960  0.32110  0.12170  Biso   1.000  C
  C94      1.0000 0.87520  0.27580  0.16300  Biso   1.000  C
  C95      1.0000 0.76260  0.43330  0.10990  Biso   1.000  C
  C96      1.0000 0.00600  0.89540  0.40040  Biso   1.000  C
  C97      1.0000 0.07650  0.85180  0.35540  Biso   1.000  C
  C98      1.0000 0.16060  0.88370  0.33550  Biso   1.000  C
  C99      1.0000 0.22760  0.84340  0.29420  Biso   1.000  C
  C100     1.0000 0.21300  0.77060  0.27480  Biso   1.000  C
  C101     1.0000 0.12300  0.74180  0.29180  Biso   1.000  C
  C102     1.0000 0.05500  0.78060  0.32940  Biso   1.000  C
  C103     1.0000 0.70300  0.09690  0.48650  Biso   1.000  C
  C104     1.0000 0.53300  0.09900  0.51900  Biso   1.000  C
  C105     1.0000 0.59600  0.18300  0.45460  Biso   1.000  C
  C106     1.0000 0.72380  0.88860  0.34820  Biso   1.000  C
  C107     1.0000 0.59300  0.96540  0.28940  Biso   1.000  C
  C108     1.0000 0.64760  0.84290  0.25470  Biso   1.000  C
  N1       1.0000 0.55940  0.31630  0.29590  Biso   1.000  N
  N2       1.0000 0.22300  0.25280  0.17340  Biso   1.000  N
  N3       1.0000 0.32930  0.34290  0.37550  Biso   1.000  N
  N4       1.0000 0.41470  0.12720  0.21180  Biso   1.000  N
  N5       1.0000 0.81690  0.27420  0.87840  Biso   1.000  N
  N6       1.0000 0.60200  0.27220  0.66280  Biso   1.000  N
  N7       1.0000 0.11400  0.48480  0.12400  Biso   1.000  N
  N8       1.0000 0.17990  0.28960  0.91780  Biso   1.000  N
  N9       1.0000 0.94060  0.70410  0.68370  Biso   1.000  N
  N10      1.0000 0.27700  0.82660  0.74720  Biso   1.000  N
  N11      1.0000 0.17070  0.62450  0.65710  Biso   1.000  N
  N12      1.0000 0.08530  0.78820  0.87280  Biso   1.000  N
  N13      1.0000 0.68310  0.12160  0.72580  Biso   1.000  N
  N14      1.0000 0.89800  0.33720  0.72780  Biso   1.000  N
  N15      1.0000 0.38600  0.87600  0.51520  Biso   1.000  N
  N16      1.0000 0.32010  0.08220  0.71040  Biso   1.000  N
  N17      1.0000 0.44060  0.68370  0.70410  Biso   1.000  N
  N18      1.0000 0.77700  0.74720  0.82660  Biso   1.000  N
  N19      1.0000 0.67070  0.65710  0.62450  Biso   1.000  N
  N20      1.0000 0.58530  0.87280  0.78820  Biso   1.000  N
  N21      1.0000 0.18310  0.72580  0.12160  Biso   1.000  N
  N22      1.0000 0.39800  0.72780  0.33720  Biso   1.000  N
  N23      1.0000 0.88600  0.51520  0.87600  Biso   1.000  N
  N24      1.0000 0.82010  0.71040  0.08220  Biso   1.000  N
  N25      1.0000 0.05940  0.29590  0.31630  Biso   1.000  N
  N26      1.0000 0.72300  0.17340  0.25280  Biso   1.000  N
  N27      1.0000 0.82930  0.37550  0.34290  Biso   1.000  N
  N28      1.0000 0.91470  0.21180  0.12720  Biso   1.000  N
  N29      1.0000 0.31690  0.87840  0.27420  Biso   1.000  N
  N30      1.0000 0.10200  0.66280  0.27220  Biso   1.000  N
  N31      1.0000 0.61400  0.12400  0.48480  Biso   1.000  N
  N32      1.0000 0.67990  0.91780  0.28960  Biso   1.000  N
  O1       1.0000 0.38980  0.41690  0.04510  Biso   1.000  O
  O2       1.0000 0.54540  0.44400  0.09820  Biso   1.000  O
  O3       1.0000 0.25080  0.13920  0.49420  Biso   1.000  O
  O4       1.0000 0.23610  0.04790  0.40710  Biso   1.000  O
  O5       1.0000 0.61900  0.36570  0.31030  Biso   1.000  O
  O6       1.0000 0.55220  0.28520  0.33660  Biso   1.000  O
  O7       1.0000 0.15870  0.27370  0.14050  Biso   1.000  O
  O8       1.0000 0.20300  0.20890  0.20710  Biso   1.000  O
  O9       1.0000 0.31800  0.37570  0.32990  Biso   1.000  O
  O10      1.0000 0.33500  0.36690  0.43910  Biso   1.000  O
  O11      1.0000 0.45200  0.15740  0.17140  Biso   1.000  O
  O12      1.0000 0.42500  0.06430  0.20470  Biso   1.000  O
  O13      1.0000 0.41590  0.39910  0.87010  Biso   1.000  O
  O14      1.0000 0.53880  0.43930  0.95210  Biso   1.000  O
  O15      1.0000 0.81800  0.27460  0.93700  Biso   1.000  O
  O16      1.0000 0.89200  0.27180  0.85220  Biso   1.000  O
  O17      1.0000 0.67000  0.26160  0.62360  Biso   1.000  O
  O18      1.0000 0.51700  0.26830  0.64130  Biso   1.000  O
  O19      1.0000 0.23290  0.51300  0.05220  Biso   1.000  O
  O20      1.0000 0.22720  0.39380  0.94040  Biso   1.000  O
  O21      1.0000 0.11020  0.95490  0.58310  Biso   1.000  O
  O22      1.0000 0.95460  0.90180  0.55600  Biso   1.000  O
  O23      1.0000 0.24920  0.50580  0.86080  Biso   1.000  O
  O24      1.0000 0.26390  0.59290  0.95210  Biso   1.000  O
  O25      1.0000 0.88100  0.68970  0.63430  Biso   1.000  O
  O26      1.0000 0.94780  0.66340  0.71480  Biso   1.000  O
  O27      1.0000 0.34130  0.85950  0.72630  Biso   1.000  O
  O28      1.0000 0.29700  0.79290  0.79110  Biso   1.000  O
  O29      1.0000 0.18200  0.67010  0.62430  Biso   1.000  O
  O30      1.0000 0.16500  0.56090  0.63310  Biso   1.000  O
  O31      1.0000 0.04800  0.82860  0.84260  Biso   1.000  O
  O32      1.0000 0.07500  0.79530  0.93570  Biso   1.000  O
  O33      1.0000 0.08410  0.12990  0.60090  Biso   1.000  O
  O34      1.0000 0.96120  0.04790  0.56070  Biso   1.000  O
  O35      1.0000 0.68200  0.06300  0.72540  Biso   1.000  O
  O36      1.0000 0.60800  0.14780  0.72820  Biso   1.000  O
  O37      1.0000 0.83000  0.37640  0.73840  Biso   1.000  O
  O38      1.0000 0.98300  0.35870  0.73170  Biso   1.000  O
  O39      1.0000 0.26710  0.94780  0.48700  Biso   1.000  O
  O40      1.0000 0.27280  0.05960  0.60620  Biso   1.000  O
  O41      1.0000 0.61020  0.58310  0.95490  Biso   1.000  O
  O42      1.0000 0.45460  0.55600  0.90180  Biso   1.000  O
  O43      1.0000 0.74920  0.86080  0.50580  Biso   1.000  O
  O44      1.0000 0.76390  0.95210  0.59290  Biso   1.000  O
  O45      1.0000 0.38100  0.63430  0.68970  Biso   1.000  O
  O46      1.0000 0.44780  0.71480  0.66340  Biso   1.000  O
  O47      1.0000 0.84130  0.72630  0.85950  Biso   1.000  O
  O48      1.0000 0.79700  0.79110  0.79290  Biso   1.000  O
  O49      1.0000 0.68200  0.62430  0.67010  Biso   1.000  O
  O50      1.0000 0.66500  0.63310  0.56090  Biso   1.000  O
  O51      1.0000 0.54800  0.84260  0.82860  Biso   1.000  O
  O52      1.0000 0.57500  0.93570  0.79530  Biso   1.000  O
  O53      1.0000 0.58410  0.60090  0.12990  Biso   1.000  O
  O54      1.0000 0.46120  0.56070  0.04790  Biso   1.000  O
  O55      1.0000 0.18200  0.72540  0.06300  Biso   1.000  O
  O56      1.0000 0.10800  0.72820  0.14780  Biso   1.000  O
  O57      1.0000 0.33000  0.73840  0.37640  Biso   1.000  O
  O58      1.0000 0.48300  0.73170  0.35870  Biso   1.000  O
  O59      1.0000 0.76710  0.48700  0.94780  Biso   1.000  O
  O60      1.0000 0.77280  0.60620  0.05960  Biso   1.000  O
  O61      1.0000 0.88980  0.04510  0.41690  Biso   1.000  O
  O62      1.0000 0.04540  0.09820  0.44400  Biso   1.000  O
  O63      1.0000 0.75080  0.49420  0.13920  Biso   1.000  O
  O64      1.0000 0.73610  0.40710  0.04790  Biso   1.000  O
  O65      1.0000 0.11900  0.31030  0.36570  Biso   1.000  O
  O66      1.0000 0.05220  0.33660  0.28520  Biso   1.000  O
  O67      1.0000 0.65870  0.14050  0.27370  Biso   1.000  O
  O68      1.0000 0.70300  0.20710  0.20890  Biso   1.000  O
  O69      1.0000 0.81800  0.32990  0.37570  Biso   1.000  O
  O70      1.0000 0.83500  0.43910  0.36690  Biso   1.000  O
  O71      1.0000 0.95200  0.17140  0.15740  Biso   1.000  O
  O72      1.0000 0.92500  0.20470  0.06430  Biso   1.000  O
  O73      1.0000 0.91590  0.87010  0.39910  Biso   1.000  O
  O74      1.0000 0.03880  0.95210  0.43930  Biso   1.000  O
  O75      1.0000 0.31800  0.93700  0.27460  Biso   1.000  O
  O76      1.0000 0.39200  0.85220  0.27180  Biso   1.000  O
  O77      1.0000 0.17000  0.62360  0.26160  Biso   1.000  O
  O78      1.0000 0.01700  0.64130  0.26830  Biso   1.000  O
  O79      1.0000 0.73290  0.05220  0.51300  Biso   1.000  O
  O80      1.0000 0.72720  0.94040  0.39380  Biso   1.000  O
