data_image0
_cell_length_a       9.8179
_cell_length_b       11.2888
_cell_length_c       14.5465
_cell_angle_alpha    91.622
_cell_angle_beta     90
_cell_angle_gamma    90

_symmetry_space_group_name_H-M    P 1
_symmetry_int_tables_number       1

loop_
  _symmetry_equiv_pos_as_xyz
  'x, y, z'

loop_
  _atom_site_label
  _atom_site_occupancy
  _atom_site_fract_x
  _atom_site_fract_y
  _atom_site_fract_z
  _atom_site_thermal_displace_type
  _atom_site_B_iso_or_equiv
  _atom_site_type_symbol
  Mg1      1.0000 0.58127  0.74389  0.36503  Biso   1.000  Mg
  Mg2      1.0000 0.39120  0.76039  0.18958  Biso   1.000  Mg
  Mg3      1.0000 0.08127  0.75611  0.13497  Biso   1.000  Mg
  Mg4      1.0000 0.89120  0.73961  0.31042  Biso   1.000  Mg
  Mg5      1.0000 0.41873  0.25611  0.63497  Biso   1.000  Mg
  Mg6      1.0000 0.60880  0.23961  0.81042  Biso   1.000  Mg
  Mg7      1.0000 0.91873  0.24389  0.86503  Biso   1.000  Mg
  Mg8      1.0000 0.10880  0.26039  0.68958  Biso   1.000  Mg
  Mg9      1.0000 0.50000  0.00000  0.50000  Biso   1.000  Mg
  Mg10     1.0000 0.00000  0.50000  0.00000  Biso   1.000  Mg
  Mg11     1.0000 0.50000  0.50000  0.50000  Biso   1.000  Mg
  Mg12     1.0000 0.00000  0.00000  0.00000  Biso   1.000  Mg
  H1       1.0000 0.46390  0.02450  0.23630  Biso   1.000  H
  H2       1.0000 0.88250  0.94540  0.45430  Biso   1.000  H
  H3       1.0000 0.79630  0.50760  0.48660  Biso   1.000  H
  H4       1.0000 0.74210  0.63250  0.13250  Biso   1.000  H
  H5       1.0000 0.34080  0.80410  0.56900  Biso   1.000  H
  H6       1.0000 0.30740  0.52000  0.26900  Biso   1.000  H
  H7       1.0000 0.96390  0.47550  0.26370  Biso   1.000  H
  H8       1.0000 0.38250  0.55460  0.04570  Biso   1.000  H
  H9       1.0000 0.29630  0.99240  0.01340  Biso   1.000  H
  H10      1.0000 0.24210  0.86750  0.36750  Biso   1.000  H
  H11      1.0000 0.84080  0.69590  0.93100  Biso   1.000  H
  H12      1.0000 0.80740  0.98000  0.23100  Biso   1.000  H
  H13      1.0000 0.53610  0.97550  0.76370  Biso   1.000  H
  H14      1.0000 0.11750  0.05460  0.54570  Biso   1.000  H
  H15      1.0000 0.20370  0.49240  0.51340  Biso   1.000  H
  H16      1.0000 0.25790  0.36750  0.86750  Biso   1.000  H
  H17      1.0000 0.65920  0.19590  0.43100  Biso   1.000  H
  H18      1.0000 0.69260  0.48000  0.73100  Biso   1.000  H
  H19      1.0000 0.03610  0.52450  0.73630  Biso   1.000  H
  H20      1.0000 0.61750  0.44540  0.95430  Biso   1.000  H
  H21      1.0000 0.70370  0.00760  0.98660  Biso   1.000  H
  H22      1.0000 0.75790  0.13250  0.63250  Biso   1.000  H
  H23      1.0000 0.15920  0.30410  0.06900  Biso   1.000  H
  H24      1.0000 0.19260  0.02000  0.76900  Biso   1.000  H
  C1       1.0000 0.48510  0.98130  0.28954  Biso   1.000  C
  C2       1.0000 0.78890  0.92580  0.44759  Biso   1.000  C
  C3       1.0000 0.77780  0.56950  0.44559  Biso   1.000  C
  C4       1.0000 0.67290  0.66720  0.17016  Biso   1.000  C
  C5       1.0000 0.39880  0.75870  0.52939  Biso   1.000  C
  C6       1.0000 0.36940  0.54860  0.31452  Biso   1.000  C
  C7       1.0000 0.98510  0.51870  0.21046  Biso   1.000  C
  C8       1.0000 0.28890  0.57420  0.05241  Biso   1.000  C
  C9       1.0000 0.27780  0.93050  0.05441  Biso   1.000  C
  C10      1.0000 0.17290  0.83280  0.32984  Biso   1.000  C
  C11      1.0000 0.89880  0.74130  0.97061  Biso   1.000  C
  C12      1.0000 0.86940  0.95140  0.18548  Biso   1.000  C
  C13      1.0000 0.51490  0.01870  0.71046  Biso   1.000  C
  C14      1.0000 0.21110  0.07420  0.55241  Biso   1.000  C
  C15      1.0000 0.22220  0.43050  0.55441  Biso   1.000  C
  C16      1.0000 0.32710  0.33280  0.82984  Biso   1.000  C
  C17      1.0000 0.60120  0.24130  0.47061  Biso   1.000  C
  C18      1.0000 0.63060  0.45140  0.68548  Biso   1.000  C
  C19      1.0000 0.01490  0.48130  0.78954  Biso   1.000  C
  C20      1.0000 0.71110  0.42580  0.94759  Biso   1.000  C
  C21      1.0000 0.72220  0.06950  0.94559  Biso   1.000  C
  C22      1.0000 0.82710  0.16720  0.67016  Biso   1.000  C
  C23      1.0000 0.10120  0.25870  0.02939  Biso   1.000  C
  C24      1.0000 0.13060  0.04860  0.81452  Biso   1.000  C
  O1       1.0000 0.49696  0.86967  0.27961  Biso   1.000  O
  O2       1.0000 0.49890  0.03833  0.36243  Biso   1.000  O
  O3       1.0000 0.75846  0.84392  0.38875  Biso   1.000  O
  O4       1.0000 0.70690  0.98172  0.49647  Biso   1.000  O
  O5       1.0000 0.65341  0.60122  0.43775  Biso   1.000  O
  O6       1.0000 0.87634  0.61174  0.40492  Biso   1.000  O
  O7       1.0000 0.70321  0.69043  0.25370  Biso   1.000  O
  O8       1.0000 0.56111  0.68565  0.13327  Biso   1.000  O
  O9       1.0000 0.47416  0.81579  0.47420  Biso   1.000  O
  O10      1.0000 0.39470  0.65010  0.53593  Biso   1.000  O
  O11      1.0000 0.42000  0.65051  0.30322  Biso   1.000  O
  O12      1.0000 0.39310  0.48297  0.37895  Biso   1.000  O
  O13      1.0000 0.99696  0.63033  0.22039  Biso   1.000  O
  O14      1.0000 0.99890  0.46167  0.13757  Biso   1.000  O
  O15      1.0000 0.25846  0.65608  0.11125  Biso   1.000  O
  O16      1.0000 0.20690  0.51828  0.00353  Biso   1.000  O
  O17      1.0000 0.15341  0.89878  0.06225  Biso   1.000  O
  O18      1.0000 0.37634  0.88826  0.09508  Biso   1.000  O
  O19      1.0000 0.20321  0.80957  0.24630  Biso   1.000  O
  O20      1.0000 0.06111  0.81435  0.36673  Biso   1.000  O
  O21      1.0000 0.97416  0.68421  0.02580  Biso   1.000  O
  O22      1.0000 0.89470  0.84990  0.96407  Biso   1.000  O
  O23      1.0000 0.92000  0.84949  0.19678  Biso   1.000  O
  O24      1.0000 0.89310  0.01703  0.12105  Biso   1.000  O
  O25      1.0000 0.50304  0.13033  0.72039  Biso   1.000  O
  O26      1.0000 0.50110  0.96167  0.63757  Biso   1.000  O
  O27      1.0000 0.24154  0.15608  0.61125  Biso   1.000  O
  O28      1.0000 0.29310  0.01828  0.50353  Biso   1.000  O
  O29      1.0000 0.34659  0.39878  0.56225  Biso   1.000  O
  O30      1.0000 0.12366  0.38826  0.59508  Biso   1.000  O
  O31      1.0000 0.29679  0.30957  0.74630  Biso   1.000  O
  O32      1.0000 0.43889  0.31435  0.86673  Biso   1.000  O
  O33      1.0000 0.52584  0.18421  0.52580  Biso   1.000  O
  O34      1.0000 0.60530  0.34990  0.46407  Biso   1.000  O
  O35      1.0000 0.58000  0.34949  0.69678  Biso   1.000  O
  O36      1.0000 0.60690  0.51703  0.62105  Biso   1.000  O
  O37      1.0000 0.00304  0.36967  0.77961  Biso   1.000  O
  O38      1.0000 0.00110  0.53833  0.86243  Biso   1.000  O
  O39      1.0000 0.74154  0.34392  0.88875  Biso   1.000  O
  O40      1.0000 0.79310  0.48172  0.99647  Biso   1.000  O
  O41      1.0000 0.84659  0.10122  0.93775  Biso   1.000  O
  O42      1.0000 0.62366  0.11174  0.90492  Biso   1.000  O
  O43      1.0000 0.79679  0.19043  0.75370  Biso   1.000  O
  O44      1.0000 0.93889  0.18565  0.63327  Biso   1.000  O
  O45      1.0000 0.02584  0.31579  0.97420  Biso   1.000  O
  O46      1.0000 0.10530  0.15010  0.03593  Biso   1.000  O
  O47      1.0000 0.08000  0.15051  0.80322  Biso   1.000  O
  O48      1.0000 0.10690  0.98297  0.87895  Biso   1.000  O
