data_image0
_cell_length_a       9.9831
_cell_length_b       11.3762
_cell_length_c       15.0358
_cell_angle_alpha    91.203
_cell_angle_beta     90
_cell_angle_gamma    90

_symmetry_space_group_name_H-M    P 1
_symmetry_int_tables_number       1

loop_
  _symmetry_equiv_pos_as_xyz
  'x, y, z'

loop_
  _atom_site_label
  _atom_site_occupancy
  _atom_site_fract_x
  _atom_site_fract_y
  _atom_site_fract_z
  _atom_site_thermal_displace_type
  _atom_site_B_iso_or_equiv
  _atom_site_type_symbol
  Mg1      1.0000 0.57062  0.74503  0.36448  Biso   1.000  Mg
  Mg2      1.0000 0.37374  0.76002  0.19824  Biso   1.000  Mg
  Mg3      1.0000 0.07062  0.75497  0.13552  Biso   1.000  Mg
  Mg4      1.0000 0.87374  0.73998  0.30176  Biso   1.000  Mg
  Mg5      1.0000 0.42938  0.25497  0.63552  Biso   1.000  Mg
  Mg6      1.0000 0.62626  0.23998  0.80176  Biso   1.000  Mg
  Mg7      1.0000 0.92938  0.24503  0.86448  Biso   1.000  Mg
  Mg8      1.0000 0.12626  0.26002  0.69824  Biso   1.000  Mg
  Mg9      1.0000 0.50000  0.00000  0.50000  Biso   1.000  Mg
  Mg10     1.0000 0.00000  0.50000  0.00000  Biso   1.000  Mg
  Mg11     1.0000 0.50000  0.50000  0.50000  Biso   1.000  Mg
  Mg12     1.0000 0.00000  0.00000  0.00000  Biso   1.000  Mg
  H1       1.0000 0.43920  0.02340  0.24550  Biso   1.000  H
  H2       1.0000 0.86850  0.95980  0.42620  Biso   1.000  H
  H3       1.0000 0.78520  0.49910  0.46760  Biso   1.000  H
  H4       1.0000 0.71850  0.64300  0.13200  Biso   1.000  H
  H5       1.0000 0.36890  0.80440  0.57990  Biso   1.000  H
  H6       1.0000 0.27090  0.53710  0.29410  Biso   1.000  H
  H7       1.0000 0.93920  0.47660  0.25450  Biso   1.000  H
  H8       1.0000 0.36850  0.54020  0.07380  Biso   1.000  H
  H9       1.0000 0.28520  0.00090  0.03240  Biso   1.000  H
  H10      1.0000 0.21850  0.85700  0.36800  Biso   1.000  H
  H11      1.0000 0.86890  0.69560  0.92010  Biso   1.000  H
  H12      1.0000 0.77090  0.96290  0.20590  Biso   1.000  H
  H13      1.0000 0.56080  0.97660  0.75450  Biso   1.000  H
  H14      1.0000 0.13150  0.04020  0.57380  Biso   1.000  H
  H15      1.0000 0.21480  0.50090  0.53240  Biso   1.000  H
  H16      1.0000 0.28150  0.35700  0.86800  Biso   1.000  H
  H17      1.0000 0.63110  0.19560  0.42010  Biso   1.000  H
  H18      1.0000 0.72910  0.46290  0.70590  Biso   1.000  H
  H19      1.0000 0.06080  0.52340  0.74550  Biso   1.000  H
  H20      1.0000 0.63150  0.45980  0.92620  Biso   1.000  H
  H21      1.0000 0.71480  0.99910  0.96760  Biso   1.000  H
  H22      1.0000 0.78150  0.14300  0.63200  Biso   1.000  H
  H23      1.0000 0.13110  0.30440  0.07990  Biso   1.000  H
  H24      1.0000 0.22910  0.03710  0.79410  Biso   1.000  H
  C1       1.0000 0.46238  0.97965  0.29644  Biso   1.000  C
  C2       1.0000 0.77790  0.93435  0.42830  Biso   1.000  C
  C3       1.0000 0.76540  0.56451  0.43163  Biso   1.000  C
  C4       1.0000 0.65159  0.67254  0.17149  Biso   1.000  C
  C5       1.0000 0.41630  0.75906  0.53637  Biso   1.000  C
  C6       1.0000 0.34455  0.55990  0.33054  Biso   1.000  C
  C7       1.0000 0.96238  0.52035  0.20356  Biso   1.000  C
  C8       1.0000 0.27790  0.56565  0.07170  Biso   1.000  C
  C9       1.0000 0.26540  0.93549  0.06837  Biso   1.000  C
  C10      1.0000 0.15159  0.82746  0.32851  Biso   1.000  C
  C11      1.0000 0.91630  0.74094  0.96363  Biso   1.000  C
  C12      1.0000 0.84455  0.94010  0.16946  Biso   1.000  C
  C13      1.0000 0.53762  0.02035  0.70356  Biso   1.000  C
  C14      1.0000 0.22210  0.06565  0.57170  Biso   1.000  C
  C15      1.0000 0.23460  0.43549  0.56837  Biso   1.000  C
  C16      1.0000 0.34841  0.32746  0.82851  Biso   1.000  C
  C17      1.0000 0.58370  0.24094  0.46363  Biso   1.000  C
  C18      1.0000 0.65545  0.44010  0.66946  Biso   1.000  C
  C19      1.0000 0.03762  0.47965  0.79644  Biso   1.000  C
  C20      1.0000 0.72210  0.43435  0.92830  Biso   1.000  C
  C21      1.0000 0.73460  0.06451  0.93163  Biso   1.000  C
  C22      1.0000 0.84841  0.17254  0.67149  Biso   1.000  C
  C23      1.0000 0.08370  0.25906  0.03637  Biso   1.000  C
  C24      1.0000 0.15545  0.05990  0.83054  Biso   1.000  C
  O1       1.0000 0.47951  0.86897  0.28517  Biso   1.000  O
  O2       1.0000 0.47329  0.03450  0.36755  Biso   1.000  O
  O3       1.0000 0.74609  0.84576  0.37884  Biso   1.000  O
  O4       1.0000 0.70201  0.98967  0.47830  Biso   1.000  O
  O5       1.0000 0.64359  0.59905  0.42995  Biso   1.000  O
  O6       1.0000 0.86002  0.60843  0.39063  Biso   1.000  O
  O7       1.0000 0.68590  0.69259  0.25193  Biso   1.000  O
  O8       1.0000 0.53813  0.68835  0.14028  Biso   1.000  O
  O9       1.0000 0.48039  0.81573  0.47720  Biso   1.000  O
  O10      1.0000 0.41024  0.65103  0.54223  Biso   1.000  O
  O11      1.0000 0.40608  0.65380  0.31000  Biso   1.000  O
  O12      1.0000 0.37167  0.49584  0.39330  Biso   1.000  O
  O13      1.0000 0.97951  0.63103  0.21483  Biso   1.000  O
  O14      1.0000 0.97329  0.46550  0.13245  Biso   1.000  O
  O15      1.0000 0.24609  0.65424  0.12116  Biso   1.000  O
  O16      1.0000 0.20201  0.51033  0.02170  Biso   1.000  O
  O17      1.0000 0.14359  0.90095  0.07005  Biso   1.000  O
  O18      1.0000 0.36002  0.89157  0.10937  Biso   1.000  O
  O19      1.0000 0.18590  0.80741  0.24807  Biso   1.000  O
  O20      1.0000 0.03813  0.81165  0.35972  Biso   1.000  O
  O21      1.0000 0.98039  0.68427  0.02280  Biso   1.000  O
  O22      1.0000 0.91024  0.84897  0.95777  Biso   1.000  O
  O23      1.0000 0.90608  0.84620  0.19000  Biso   1.000  O
  O24      1.0000 0.87167  0.00416  0.10670  Biso   1.000  O
  O25      1.0000 0.52049  0.13103  0.71483  Biso   1.000  O
  O26      1.0000 0.52671  0.96550  0.63245  Biso   1.000  O
  O27      1.0000 0.25391  0.15424  0.62116  Biso   1.000  O
  O28      1.0000 0.29799  0.01033  0.52170  Biso   1.000  O
  O29      1.0000 0.35641  0.40095  0.57005  Biso   1.000  O
  O30      1.0000 0.13998  0.39157  0.60937  Biso   1.000  O
  O31      1.0000 0.31410  0.30741  0.74807  Biso   1.000  O
  O32      1.0000 0.46187  0.31165  0.85972  Biso   1.000  O
  O33      1.0000 0.51961  0.18427  0.52280  Biso   1.000  O
  O34      1.0000 0.58976  0.34897  0.45777  Biso   1.000  O
  O35      1.0000 0.59392  0.34620  0.69000  Biso   1.000  O
  O36      1.0000 0.62833  0.50416  0.60670  Biso   1.000  O
  O37      1.0000 0.02049  0.36897  0.78517  Biso   1.000  O
  O38      1.0000 0.02671  0.53450  0.86755  Biso   1.000  O
  O39      1.0000 0.75391  0.34576  0.87884  Biso   1.000  O
  O40      1.0000 0.79799  0.48967  0.97830  Biso   1.000  O
  O41      1.0000 0.85641  0.09905  0.92995  Biso   1.000  O
  O42      1.0000 0.63998  0.10843  0.89063  Biso   1.000  O
  O43      1.0000 0.81410  0.19259  0.75193  Biso   1.000  O
  O44      1.0000 0.96187  0.18835  0.64028  Biso   1.000  O
  O45      1.0000 0.01961  0.31573  0.97720  Biso   1.000  O
  O46      1.0000 0.08976  0.15103  0.04223  Biso   1.000  O
  O47      1.0000 0.09392  0.15380  0.81000  Biso   1.000  O
  O48      1.0000 0.12833  0.99584  0.89330  Biso   1.000  O
