data_image0
_cell_length_a       12.4486
_cell_length_b       15.036
_cell_length_c       16.5961
_cell_angle_alpha    90
_cell_angle_beta     92.074
_cell_angle_gamma    90

_symmetry_space_group_name_H-M    P 1
_symmetry_int_tables_number       1

loop_
  _symmetry_equiv_pos_as_xyz
  'x, y, z'

loop_
  _atom_site_label
  _atom_site_occupancy
  _atom_site_fract_x
  _atom_site_fract_y
  _atom_site_fract_z
  _atom_site_thermal_displace_type
  _atom_site_B_iso_or_equiv
  _atom_site_type_symbol
  Al1      1.0000 0.51823  0.51679  0.25377  Biso   1.000  Al
  Al2      1.0000 0.51823  0.98321  0.75377  Biso   1.000  Al
  Cu1      1.0000 0.97741  0.47863  0.76851  Biso   1.000  Cu
  Cu2      1.0000 0.97741  0.02137  0.26851  Biso   1.000  Cu
  H1       1.0000 0.56270  0.47890  0.44120  Biso   1.000  H
  H2       1.0000 0.65870  0.46040  0.56180  Biso   1.000  H
  H3       1.0000 0.92010  0.57160  0.46510  Biso   1.000  H
  H4       1.0000 0.82340  0.59060  0.34420  Biso   1.000  H
  H5       1.0000 0.30190  0.43040  0.19530  Biso   1.000  H
  H6       1.0000 0.16430  0.32660  0.18320  Biso   1.000  H
  H7       1.0000 0.25750  0.22320  0.40040  Biso   1.000  H
  H8       1.0000 0.39240  0.32940  0.41310  Biso   1.000  H
  H9       1.0000 0.28000  0.59050  0.29270  Biso   1.000  H
  H10      1.0000 0.14770  0.69580  0.31240  Biso   1.000  H
  H11      1.0000 0.31070  0.87190  0.18050  Biso   1.000  H
  H12      1.0000 0.44450  0.76770  0.16230  Biso   1.000  H
  H13      1.0000 0.85940  0.54190  0.07000  Biso   1.000  H
  H14      1.0000 0.74000  0.53250  0.17370  Biso   1.000  H
  H15      1.0000 0.64550  0.41410  0.92110  Biso   1.000  H
  H16      1.0000 0.52720  0.40350  0.02510  Biso   1.000  H
  H17      1.0000 0.56270  0.02110  0.94120  Biso   1.000  H
  H18      1.0000 0.65870  0.03960  0.06180  Biso   1.000  H
  H19      1.0000 0.92010  0.92840  0.96510  Biso   1.000  H
  H20      1.0000 0.82340  0.90940  0.84420  Biso   1.000  H
  H21      1.0000 0.30190  0.06960  0.69530  Biso   1.000  H
  H22      1.0000 0.16430  0.17340  0.68320  Biso   1.000  H
  H23      1.0000 0.25750  0.27680  0.90040  Biso   1.000  H
  H24      1.0000 0.39240  0.17060  0.91310  Biso   1.000  H
  H25      1.0000 0.28000  0.90950  0.79270  Biso   1.000  H
  H26      1.0000 0.14770  0.80420  0.81240  Biso   1.000  H
  H27      1.0000 0.31070  0.62810  0.68050  Biso   1.000  H
  H28      1.0000 0.44450  0.73230  0.66230  Biso   1.000  H
  H29      1.0000 0.85940  0.95810  0.57000  Biso   1.000  H
  H30      1.0000 0.74000  0.96750  0.67370  Biso   1.000  H
  H31      1.0000 0.64550  0.08590  0.42110  Biso   1.000  H
  H32      1.0000 0.52720  0.09650  0.52510  Biso   1.000  H
  C1       1.0000 0.68317  0.53733  0.38059  Biso   1.000  C
  C2       1.0000 0.63530  0.49811  0.44600  Biso   1.000  C
  C3       1.0000 0.69240  0.48705  0.51740  Biso   1.000  C
  C4       1.0000 0.79870  0.51413  0.52574  Biso   1.000  C
  C5       1.0000 0.84720  0.55290  0.46038  Biso   1.000  C
  C6       1.0000 0.78970  0.56414  0.38875  Biso   1.000  C
  C7       1.0000 0.85730  0.50102  0.60050  Biso   1.000  C
  C8       1.0000 0.36168  0.38979  0.30468  Biso   1.000  C
  C9       1.0000 0.29270  0.38818  0.23704  Biso   1.000  C
  C10      1.0000 0.21150  0.32651  0.22949  Biso   1.000  C
  C11      1.0000 0.19857  0.26361  0.29045  Biso   1.000  C
  C12      1.0000 0.26650  0.26544  0.35863  Biso   1.000  C
  C13      1.0000 0.34680  0.32813  0.36592  Biso   1.000  C
  C14      1.0000 0.11920  0.19476  0.28202  Biso   1.000  C
  C15      1.0000 0.37730  0.66937  0.22774  Biso   1.000  C
  C16      1.0000 0.28720  0.64844  0.27072  Biso   1.000  C
  C17      1.0000 0.20830  0.71053  0.28188  Biso   1.000  C
  C18      1.0000 0.21690  0.79477  0.24869  Biso   1.000  C
  C19      1.0000 0.30490  0.81460  0.20416  Biso   1.000  C
  C20      1.0000 0.38450  0.75299  0.19339  Biso   1.000  C
  C21      1.0000 0.13640  0.86128  0.26007  Biso   1.000  C
  C22      1.0000 0.62140  0.46610  0.11074  Biso   1.000  C
  C23      1.0000 0.79180  0.51363  0.06097  Biso   1.000  C
  C24      1.0000 0.72090  0.50778  0.12249  Biso   1.000  C
  C25      1.0000 0.76440  0.47817  0.98563  Biso   1.000  C
  C26      1.0000 0.66500  0.43766  0.97274  Biso   1.000  C
  C27      1.0000 0.59480  0.43158  0.03445  Biso   1.000  C
  C28      1.0000 0.83670  0.48256  0.92009  Biso   1.000  C
  C29      1.0000 0.68317  0.96267  0.88059  Biso   1.000  C
  C30      1.0000 0.63530  0.00189  0.94600  Biso   1.000  C
  C31      1.0000 0.69240  0.01295  0.01740  Biso   1.000  C
  C32      1.0000 0.79870  0.98587  0.02574  Biso   1.000  C
  C33      1.0000 0.84720  0.94710  0.96038  Biso   1.000  C
  C34      1.0000 0.78970  0.93586  0.88875  Biso   1.000  C
  C35      1.0000 0.85730  0.99898  0.10050  Biso   1.000  C
  C36      1.0000 0.36168  0.11021  0.80468  Biso   1.000  C
  C37      1.0000 0.29270  0.11182  0.73704  Biso   1.000  C
  C38      1.0000 0.21150  0.17349  0.72949  Biso   1.000  C
  C39      1.0000 0.19857  0.23639  0.79045  Biso   1.000  C
  C40      1.0000 0.26650  0.23456  0.85863  Biso   1.000  C
  C41      1.0000 0.34680  0.17187  0.86592  Biso   1.000  C
  C42      1.0000 0.11920  0.30524  0.78202  Biso   1.000  C
  C43      1.0000 0.37730  0.83063  0.72774  Biso   1.000  C
  C44      1.0000 0.28720  0.85156  0.77072  Biso   1.000  C
  C45      1.0000 0.20830  0.78947  0.78188  Biso   1.000  C
  C46      1.0000 0.21690  0.70523  0.74869  Biso   1.000  C
  C47      1.0000 0.30490  0.68540  0.70416  Biso   1.000  C
  C48      1.0000 0.38450  0.74701  0.69339  Biso   1.000  C
  C49      1.0000 0.13640  0.63872  0.76007  Biso   1.000  C
  C50      1.0000 0.62140  0.03390  0.61074  Biso   1.000  C
  C51      1.0000 0.79180  0.98637  0.56097  Biso   1.000  C
  C52      1.0000 0.72090  0.99222  0.62249  Biso   1.000  C
  C53      1.0000 0.76440  0.02183  0.48563  Biso   1.000  C
  C54      1.0000 0.66500  0.06234  0.47274  Biso   1.000  C
  C55      1.0000 0.59480  0.06842  0.53445  Biso   1.000  C
  C56      1.0000 0.83670  0.01744  0.42009  Biso   1.000  C
  N1       1.0000 0.89007  0.48242  0.86547  Biso   1.000  N
  N2       1.0000 0.05957  0.13692  0.27700  Biso   1.000  N
  N3       1.0000 0.07577  0.91690  0.26718  Biso   1.000  N
  N4       1.0000 0.90158  0.48886  0.66084  Biso   1.000  N
  N5       1.0000 0.89007  0.01758  0.36547  Biso   1.000  N
  N6       1.0000 0.05957  0.36308  0.77700  Biso   1.000  N
  N7       1.0000 0.07577  0.58310  0.76718  Biso   1.000  N
  N8       1.0000 0.90158  0.01114  0.16084  Biso   1.000  N
  O1       1.0000 0.63096  0.55062  0.31018  Biso   1.000  O
  O2       1.0000 0.44082  0.44976  0.31385  Biso   1.000  O
  O3       1.0000 0.45565  0.61111  0.21652  Biso   1.000  O
  O4       1.0000 0.55234  0.45609  0.16921  Biso   1.000  O
  O5       1.0000 0.63096  0.94938  0.81018  Biso   1.000  O
  O6       1.0000 0.44082  0.05024  0.81385  Biso   1.000  O
  O7       1.0000 0.45565  0.88889  0.71652  Biso   1.000  O
  O8       1.0000 0.55234  0.04391  0.66921  Biso   1.000  O
  Al3      1.0000 0.48177  0.01679  0.24623  Biso   1.000  Al
  Al4      1.0000 0.48177  0.48321  0.74623  Biso   1.000  Al
  Cu3      1.0000 0.02259  0.97863  0.73149  Biso   1.000  Cu
  Cu4      1.0000 0.02259  0.52137  0.23149  Biso   1.000  Cu
  H33      1.0000 0.43730  0.97890  0.05880  Biso   1.000  H
  H34      1.0000 0.34130  0.96040  0.93820  Biso   1.000  H
  H35      1.0000 0.07990  0.07160  0.03490  Biso   1.000  H
  H36      1.0000 0.17660  0.09060  0.15580  Biso   1.000  H
  H37      1.0000 0.69810  0.93040  0.30470  Biso   1.000  H
  H38      1.0000 0.83570  0.82660  0.31680  Biso   1.000  H
  H39      1.0000 0.74250  0.72320  0.09960  Biso   1.000  H
  H40      1.0000 0.60760  0.82940  0.08690  Biso   1.000  H
  H41      1.0000 0.72000  0.09050  0.20730  Biso   1.000  H
  H42      1.0000 0.85230  0.19580  0.18760  Biso   1.000  H
  H43      1.0000 0.68930  0.37190  0.31950  Biso   1.000  H
  H44      1.0000 0.55550  0.26770  0.33770  Biso   1.000  H
  H45      1.0000 0.14060  0.04190  0.43000  Biso   1.000  H
  H46      1.0000 0.26000  0.03250  0.32630  Biso   1.000  H
  H47      1.0000 0.35450  0.91410  0.57890  Biso   1.000  H
  H48      1.0000 0.47280  0.90350  0.47490  Biso   1.000  H
  H49      1.0000 0.43730  0.52110  0.55880  Biso   1.000  H
  H50      1.0000 0.34130  0.53960  0.43820  Biso   1.000  H
  H51      1.0000 0.07990  0.42840  0.53490  Biso   1.000  H
  H52      1.0000 0.17660  0.40940  0.65580  Biso   1.000  H
  H53      1.0000 0.69810  0.56960  0.80470  Biso   1.000  H
  H54      1.0000 0.83570  0.67340  0.81680  Biso   1.000  H
  H55      1.0000 0.74250  0.77680  0.59960  Biso   1.000  H
  H56      1.0000 0.60760  0.67060  0.58690  Biso   1.000  H
  H57      1.0000 0.72000  0.40950  0.70730  Biso   1.000  H
  H58      1.0000 0.85230  0.30420  0.68760  Biso   1.000  H
  H59      1.0000 0.68930  0.12810  0.81950  Biso   1.000  H
  H60      1.0000 0.55550  0.23230  0.83770  Biso   1.000  H
  H61      1.0000 0.14060  0.45810  0.93000  Biso   1.000  H
  H62      1.0000 0.26000  0.46750  0.82630  Biso   1.000  H
  H63      1.0000 0.35450  0.58590  0.07890  Biso   1.000  H
  H64      1.0000 0.47280  0.59650  0.97490  Biso   1.000  H
  C57      1.0000 0.31683  0.03733  0.11941  Biso   1.000  C
  C58      1.0000 0.36470  0.99811  0.05400  Biso   1.000  C
  C59      1.0000 0.30760  0.98705  0.98260  Biso   1.000  C
  C60      1.0000 0.20130  0.01413  0.97426  Biso   1.000  C
  C61      1.0000 0.15280  0.05290  0.03962  Biso   1.000  C
  C62      1.0000 0.21030  0.06414  0.11125  Biso   1.000  C
  C63      1.0000 0.14270  0.00102  0.89950  Biso   1.000  C
  C64      1.0000 0.63832  0.88979  0.19532  Biso   1.000  C
  C65      1.0000 0.70730  0.88818  0.26296  Biso   1.000  C
  C66      1.0000 0.78850  0.82651  0.27051  Biso   1.000  C
  C67      1.0000 0.80143  0.76361  0.20955  Biso   1.000  C
  C68      1.0000 0.73350  0.76544  0.14137  Biso   1.000  C
  C69      1.0000 0.65320  0.82813  0.13408  Biso   1.000  C
  C70      1.0000 0.88080  0.69476  0.21798  Biso   1.000  C
  C71      1.0000 0.62270  0.16937  0.27226  Biso   1.000  C
  C72      1.0000 0.71280  0.14844  0.22928  Biso   1.000  C
  C73      1.0000 0.79170  0.21053  0.21812  Biso   1.000  C
  C74      1.0000 0.78310  0.29477  0.25131  Biso   1.000  C
  C75      1.0000 0.69510  0.31460  0.29584  Biso   1.000  C
  C76      1.0000 0.61550  0.25299  0.30661  Biso   1.000  C
  C77      1.0000 0.86360  0.36128  0.23993  Biso   1.000  C
  C78      1.0000 0.37860  0.96610  0.38926  Biso   1.000  C
  C79      1.0000 0.20820  0.01363  0.43903  Biso   1.000  C
  C80      1.0000 0.27910  0.00778  0.37751  Biso   1.000  C
  C81      1.0000 0.23560  0.97817  0.51437  Biso   1.000  C
  C82      1.0000 0.33500  0.93766  0.52726  Biso   1.000  C
  C83      1.0000 0.40520  0.93158  0.46555  Biso   1.000  C
  C84      1.0000 0.16330  0.98256  0.57991  Biso   1.000  C
  C85      1.0000 0.31683  0.46267  0.61941  Biso   1.000  C
  C86      1.0000 0.36470  0.50189  0.55400  Biso   1.000  C
  C87      1.0000 0.30760  0.51295  0.48260  Biso   1.000  C
  C88      1.0000 0.20130  0.48587  0.47426  Biso   1.000  C
  C89      1.0000 0.15280  0.44710  0.53962  Biso   1.000  C
  C90      1.0000 0.21030  0.43586  0.61125  Biso   1.000  C
  C91      1.0000 0.14270  0.49898  0.39950  Biso   1.000  C
  C92      1.0000 0.63832  0.61021  0.69532  Biso   1.000  C
  C93      1.0000 0.70730  0.61182  0.76296  Biso   1.000  C
  C94      1.0000 0.78850  0.67349  0.77051  Biso   1.000  C
  C95      1.0000 0.80143  0.73639  0.70955  Biso   1.000  C
  C96      1.0000 0.73350  0.73456  0.64137  Biso   1.000  C
  C97      1.0000 0.65320  0.67187  0.63408  Biso   1.000  C
  C98      1.0000 0.88080  0.80524  0.71798  Biso   1.000  C
  C99      1.0000 0.62270  0.33063  0.77226  Biso   1.000  C
  C100     1.0000 0.71280  0.35156  0.72928  Biso   1.000  C
  C101     1.0000 0.79170  0.28947  0.71812  Biso   1.000  C
  C102     1.0000 0.78310  0.20523  0.75131  Biso   1.000  C
  C103     1.0000 0.69510  0.18540  0.79584  Biso   1.000  C
  C104     1.0000 0.61550  0.24701  0.80661  Biso   1.000  C
  C105     1.0000 0.86360  0.13872  0.73993  Biso   1.000  C
  C106     1.0000 0.37860  0.53390  0.88926  Biso   1.000  C
  C107     1.0000 0.20820  0.48637  0.93903  Biso   1.000  C
  C108     1.0000 0.27910  0.49222  0.87751  Biso   1.000  C
  C109     1.0000 0.23560  0.52183  0.01437  Biso   1.000  C
  C110     1.0000 0.33500  0.56234  0.02726  Biso   1.000  C
  C111     1.0000 0.40520  0.56842  0.96555  Biso   1.000  C
  C112     1.0000 0.16330  0.51744  0.07991  Biso   1.000  C
  N9       1.0000 0.10993  0.98242  0.63453  Biso   1.000  N
  N10      1.0000 0.94043  0.63692  0.22300  Biso   1.000  N
  N11      1.0000 0.92423  0.41690  0.23282  Biso   1.000  N
  N12      1.0000 0.09842  0.98886  0.83916  Biso   1.000  N
  N13      1.0000 0.10993  0.51758  0.13453  Biso   1.000  N
  N14      1.0000 0.94043  0.86308  0.72300  Biso   1.000  N
  N15      1.0000 0.92423  0.08310  0.73282  Biso   1.000  N
  N16      1.0000 0.09842  0.51114  0.33916  Biso   1.000  N
  O9       1.0000 0.36904  0.05062  0.18982  Biso   1.000  O
  O10      1.0000 0.55918  0.94976  0.18615  Biso   1.000  O
  O11      1.0000 0.54435  0.11111  0.28348  Biso   1.000  O
  O12      1.0000 0.44766  0.95609  0.33079  Biso   1.000  O
  O13      1.0000 0.36904  0.44938  0.68982  Biso   1.000  O
  O14      1.0000 0.55918  0.55024  0.68615  Biso   1.000  O
  O15      1.0000 0.54435  0.38889  0.78348  Biso   1.000  O
  O16      1.0000 0.44766  0.54391  0.83079  Biso   1.000  O
