data_image0
_cell_length_a       6.731
_cell_length_b       22.186
_cell_length_c       7.575
_cell_angle_alpha    90
_cell_angle_beta     90
_cell_angle_gamma    90

_symmetry_space_group_name_H-M    P 1
_symmetry_int_tables_number       1

loop_
  _symmetry_equiv_pos_as_xyz
  'x, y, z'

loop_
  _atom_site_label
  _atom_site_occupancy
  _atom_site_fract_x
  _atom_site_fract_y
  _atom_site_fract_z
  _atom_site_thermal_displace_type
  _atom_site_B_iso_or_equiv
  _atom_site_type_symbol
  Ni1      1.0000 0.45767  0.28894  0.24597  Biso   1.000  Ni
  Ni2      1.0000 0.54233  0.71106  0.24597  Biso   1.000  Ni
  Ni3      1.0000 0.95767  0.21106  0.75403  Biso   1.000  Ni
  Ni4      1.0000 0.04233  0.78894  0.75403  Biso   1.000  Ni
  H1       1.0000 0.36410  0.11550  0.37090  Biso   1.000  H
  H2       1.0000 0.17090  0.12280  0.25130  Biso   1.000  H
  H3       1.0000 0.46940  0.12890  0.08690  Biso   1.000  H
  H4       1.0000 0.70650  0.18740  0.24740  Biso   1.000  H
  H5       1.0000 0.03060  0.32860  0.30390  Biso   1.000  H
  H6       1.0000 0.83640  0.41530  0.29290  Biso   1.000  H
  H7       1.0000 0.32370  0.50990  0.13860  Biso   1.000  H
  H8       1.0000 0.50540  0.42070  0.14390  Biso   1.000  H
  H9       1.0000 0.63590  0.88450  0.37090  Biso   1.000  H
  H10      1.0000 0.82910  0.87720  0.25130  Biso   1.000  H
  H11      1.0000 0.53060  0.87110  0.08690  Biso   1.000  H
  H12      1.0000 0.29350  0.81260  0.24740  Biso   1.000  H
  H13      1.0000 0.96940  0.67140  0.30390  Biso   1.000  H
  H14      1.0000 0.16360  0.58470  0.29290  Biso   1.000  H
  H15      1.0000 0.67630  0.49010  0.13860  Biso   1.000  H
  H16      1.0000 0.49460  0.57930  0.14390  Biso   1.000  H
  H17      1.0000 0.86410  0.38450  0.62910  Biso   1.000  H
  H18      1.0000 0.67090  0.37720  0.74870  Biso   1.000  H
  H19      1.0000 0.96940  0.37110  0.91310  Biso   1.000  H
  H20      1.0000 0.20650  0.31260  0.75260  Biso   1.000  H
  H21      1.0000 0.53060  0.17140  0.69610  Biso   1.000  H
  H22      1.0000 0.33640  0.08470  0.70710  Biso   1.000  H
  H23      1.0000 0.82370  0.99010  0.86140  Biso   1.000  H
  H24      1.0000 0.00540  0.07930  0.85610  Biso   1.000  H
  H25      1.0000 0.13590  0.61550  0.62910  Biso   1.000  H
  H26      1.0000 0.32910  0.62280  0.74870  Biso   1.000  H
  H27      1.0000 0.03060  0.62890  0.91310  Biso   1.000  H
  H28      1.0000 0.79350  0.68740  0.75260  Biso   1.000  H
  H29      1.0000 0.46940  0.82860  0.69610  Biso   1.000  H
  H30      1.0000 0.66360  0.91530  0.70710  Biso   1.000  H
  H31      1.0000 0.17630  0.00990  0.86140  Biso   1.000  H
  H32      1.0000 0.99460  0.92070  0.85610  Biso   1.000  H
  C1       1.0000 0.20830  0.19330  0.42570  Biso   1.000  C
  C2       1.0000 0.28650  0.14470  0.30040  Biso   1.000  C
  C3       1.0000 0.41400  0.16510  0.14850  Biso   1.000  C
  C4       1.0000 0.28920  0.20220  0.01620  Biso   1.000  C
  C5       1.0000 0.08990  0.36570  0.26920  Biso   1.000  C
  C6       1.0000 0.97310  0.41720  0.26240  Biso   1.000  C
  C7       1.0000 0.05810  0.47200  0.21030  Biso   1.000  C
  C8       1.0000 0.26070  0.47310  0.17000  Biso   1.000  C
  C9       1.0000 0.36910  0.41980  0.17600  Biso   1.000  C
  C10      1.0000 0.79170  0.80670  0.42570  Biso   1.000  C
  C11      1.0000 0.71350  0.85530  0.30040  Biso   1.000  C
  C12      1.0000 0.58600  0.83490  0.14850  Biso   1.000  C
  C13      1.0000 0.71080  0.79780  0.01620  Biso   1.000  C
  C14      1.0000 0.91010  0.63430  0.26920  Biso   1.000  C
  C15      1.0000 0.02690  0.58280  0.26240  Biso   1.000  C
  C16      1.0000 0.94190  0.52800  0.21030  Biso   1.000  C
  C17      1.0000 0.73930  0.52690  0.17000  Biso   1.000  C
  C18      1.0000 0.63090  0.58020  0.17600  Biso   1.000  C
  C19      1.0000 0.70830  0.30670  0.57430  Biso   1.000  C
  C20      1.0000 0.78650  0.35530  0.69960  Biso   1.000  C
  C21      1.0000 0.91400  0.33490  0.85150  Biso   1.000  C
  C22      1.0000 0.78920  0.29780  0.98380  Biso   1.000  C
  C23      1.0000 0.58990  0.13430  0.73080  Biso   1.000  C
  C24      1.0000 0.47310  0.08280  0.73760  Biso   1.000  C
  C25      1.0000 0.55810  0.02800  0.78970  Biso   1.000  C
  C26      1.0000 0.76070  0.02690  0.83000  Biso   1.000  C
  C27      1.0000 0.86910  0.08020  0.82400  Biso   1.000  C
  C28      1.0000 0.29170  0.69330  0.57430  Biso   1.000  C
  C29      1.0000 0.21350  0.64470  0.69960  Biso   1.000  C
  C30      1.0000 0.08600  0.66510  0.85150  Biso   1.000  C
  C31      1.0000 0.21080  0.70220  0.98380  Biso   1.000  C
  C32      1.0000 0.41010  0.86570  0.73080  Biso   1.000  C
  C33      1.0000 0.52690  0.91720  0.73760  Biso   1.000  C
  C34      1.0000 0.44190  0.97200  0.78970  Biso   1.000  C
  C35      1.0000 0.23930  0.97310  0.83000  Biso   1.000  C
  C36      1.0000 0.13090  0.91980  0.82400  Biso   1.000  C
  N1       1.0000 0.28730  0.36649  0.22750  Biso   1.000  N
  N2       1.0000 0.71270  0.63351  0.22750  Biso   1.000  N
  N3       1.0000 0.78730  0.13351  0.77250  Biso   1.000  N
  N4       1.0000 0.21270  0.86649  0.77250  Biso   1.000  N
  O1       1.0000 0.24940  0.24825  0.40290  Biso   1.000  O
  O2       1.0000 0.10130  0.17298  0.54700  Biso   1.000  O
  O3       1.0000 0.57610  0.20062  0.21920  Biso   1.000  O
  O4       1.0000 0.31320  0.25901  0.02060  Biso   1.000  O
  O5       1.0000 0.17500  0.17454  0.91770  Biso   1.000  O
  O6       1.0000 0.75060  0.75175  0.40290  Biso   1.000  O
  O7       1.0000 0.89870  0.82702  0.54700  Biso   1.000  O
  O8       1.0000 0.42390  0.79938  0.21920  Biso   1.000  O
  O9       1.0000 0.68680  0.74099  0.02060  Biso   1.000  O
  O10      1.0000 0.82500  0.82546  0.91770  Biso   1.000  O
  O11      1.0000 0.74940  0.25175  0.59710  Biso   1.000  O
  O12      1.0000 0.60130  0.32702  0.45300  Biso   1.000  O
  O13      1.0000 0.07610  0.29938  0.78080  Biso   1.000  O
  O14      1.0000 0.81320  0.24099  0.97940  Biso   1.000  O
  O15      1.0000 0.67500  0.32546  0.08230  Biso   1.000  O
  O16      1.0000 0.25060  0.74825  0.59710  Biso   1.000  O
  O17      1.0000 0.39870  0.67298  0.45300  Biso   1.000  O
  O18      1.0000 0.92390  0.70062  0.78080  Biso   1.000  O
  O19      1.0000 0.18680  0.75901  0.97940  Biso   1.000  O
  O20      1.0000 0.32500  0.67454  0.08230  Biso   1.000  O
