data_image0
_cell_length_a       4.35356
_cell_length_b       12.9002
_cell_length_c       12.9002
_cell_angle_alpha    61.2481
_cell_angle_beta     83.5409
_cell_angle_gamma    96.4591

_symmetry_space_group_name_H-M    P 1
_symmetry_int_tables_number       1

loop_
  _symmetry_equiv_pos_as_xyz
  'x, y, z'

loop_
  _atom_site_label
  _atom_site_occupancy
  _atom_site_fract_x
  _atom_site_fract_y
  _atom_site_fract_z
  _atom_site_thermal_displace_type
  _atom_site_B_iso_or_equiv
  _atom_site_type_symbol
  Co1      1.0000 0.69991  0.16257  0.83834  Biso   1.000  Co
  Co2      1.0000 0.53825  0.83834  0.99909  Biso   1.000  Co
  Co3      1.0000 0.53734  0.99909  0.16257  Biso   1.000  Co
  P1       1.0000 0.06203  0.00000  0.00000  Biso   1.000  P
  H1       1.0000 0.98520  0.44760  0.69620  Biso   1.000  H
  H2       1.0000 0.93790  0.61120  0.52500  Biso   1.000  H
  H3       1.0000 0.44300  0.23760  0.62210  Biso   1.000  H
  H4       1.0000 0.38870  0.39730  0.44040  Biso   1.000  H
  H5       1.0000 0.68140  0.69620  0.85620  Biso   1.000  H
  H6       1.0000 0.46290  0.52500  0.86380  Biso   1.000  H
  H7       1.0000 0.06510  0.62210  0.14030  Biso   1.000  H
  H8       1.0000 0.82910  0.44040  0.16230  Biso   1.000  H
  H9       1.0000 0.53760  0.85620  0.44760  Biso   1.000  H
  H10      1.0000 0.32670  0.86380  0.61120  Biso   1.000  H
  H11      1.0000 0.20540  0.14030  0.23760  Biso   1.000  H
  H12      1.0000 0.99140  0.16230  0.39730  Biso   1.000  H
  C1       1.0000 0.64360  0.52920  0.46910  Biso   1.000  C
  C2       1.0000 0.59770  0.63650  0.36340  Biso   1.000  C
  C3       1.0000 0.85750  0.43780  0.64530  Biso   1.000  C
  C4       1.0000 0.82540  0.53460  0.54440  Biso   1.000  C
  C5       1.0000 0.54450  0.31590  0.60140  Biso   1.000  C
  C6       1.0000 0.50160  0.40960  0.49380  Biso   1.000  C
  C7       1.0000 0.11270  0.46910  0.00170  Biso   1.000  C
  C8       1.0000 0.96110  0.36340  0.00010  Biso   1.000  C
  C9       1.0000 0.50280  0.64530  0.91690  Biso   1.000  C
  C10      1.0000 0.36980  0.54440  0.92100  Biso   1.000  C
  C11      1.0000 0.14590  0.60140  0.08270  Biso   1.000  C
  C12      1.0000 0.99540  0.49380  0.09660  Biso   1.000  C
  C13      1.0000 0.11440  0.00170  0.52920  Biso   1.000  C
  C14      1.0000 0.96120  0.00010  0.63650  Biso   1.000  C
  C15      1.0000 0.41970  0.91690  0.43780  Biso   1.000  C
  C16      1.0000 0.29080  0.92100  0.53460  Biso   1.000  C
  C17      1.0000 0.22860  0.08270  0.31590  Biso   1.000  C
  C18      1.0000 0.09200  0.09660  0.40960  Biso   1.000  C
  N1       1.0000 0.70650  0.32280  0.67670  Biso   1.000  N
  N2       1.0000 0.52140  0.75180  0.18680  Biso   1.000  N
  N3       1.0000 0.53630  0.81300  0.24590  Biso   1.000  N
  N4       1.0000 0.55920  0.63920  0.25840  Biso   1.000  N
  N5       1.0000 0.57600  0.74080  0.35700  Biso   1.000  N
  N6       1.0000 0.38320  0.67670  0.00050  Biso   1.000  N
  N7       1.0000 0.70820  0.18680  0.06140  Biso   1.000  N
  N8       1.0000 0.78220  0.24590  0.94110  Biso   1.000  N
  N9       1.0000 0.81760  0.25840  0.10240  Biso   1.000  N
  N10      1.0000 0.93300  0.35700  0.90220  Biso   1.000  N
  N11      1.0000 0.38370  0.00050  0.32280  Biso   1.000  N
  N12      1.0000 0.76960  0.06140  0.75180  Biso   1.000  N
  N13      1.0000 0.72330  0.94110  0.81300  Biso   1.000  N
  N14      1.0000 0.92000  0.10240  0.63920  Biso   1.000  N
  N15      1.0000 0.83520  0.90220  0.74080  Biso   1.000  N
  O1       1.0000 0.22610  0.11470  0.88530  Biso   1.000  O
  O2       1.0000 0.11140  0.88530  0.00000  Biso   1.000  O
  O3       1.0000 0.11140  0.00000  0.11470  Biso   1.000  O
  O4       1.0000 0.69973  0.00000  0.00000  Biso   1.000  O
