data_image0
_cell_length_a       10.237
_cell_length_b       11.2579
_cell_length_c       22.1898
_cell_angle_alpha    90
_cell_angle_beta     97.27
_cell_angle_gamma    90

_symmetry_space_group_name_H-M    P 1
_symmetry_int_tables_number       1

loop_
  _symmetry_equiv_pos_as_xyz
  'x, y, z'

loop_
  _atom_site_label
  _atom_site_occupancy
  _atom_site_fract_x
  _atom_site_fract_y
  _atom_site_fract_z
  _atom_site_thermal_displace_type
  _atom_site_B_iso_or_equiv
  _atom_site_type_symbol
  Eu1      1.0000 0.61029  0.68452  0.72588  Biso   1.000  Eu
  Eu2      1.0000 0.74058  0.58975  0.43592  Biso   1.000  Eu
  Eu3      1.0000 0.88971  0.18452  0.77412  Biso   1.000  Eu
  Eu4      1.0000 0.75942  0.08975  0.06408  Biso   1.000  Eu
  Eu5      1.0000 0.38971  0.31548  0.27412  Biso   1.000  Eu
  Eu6      1.0000 0.25942  0.41025  0.56408  Biso   1.000  Eu
  Eu7      1.0000 0.11029  0.81548  0.22588  Biso   1.000  Eu
  Eu8      1.0000 0.24058  0.91025  0.93592  Biso   1.000  Eu
  H1       1.0000 0.55520  0.37500  0.44560  Biso   1.000  H
  H2       1.0000 0.66250  0.39550  0.49260  Biso   1.000  H
  H3       1.0000 0.47790  0.60270  0.37430  Biso   1.000  H
  H4       1.0000 0.48080  0.71440  0.40190  Biso   1.000  H
  H5       1.0000 0.70110  0.85570  0.46830  Biso   1.000  H
  H6       1.0000 0.79190  0.84480  0.43050  Biso   1.000  H
  H7       1.0000 0.11850  0.61900  0.66300  Biso   1.000  H
  H8       1.0000 0.15640  0.96430  0.66440  Biso   1.000  H
  H9       1.0000 0.01460  0.57660  0.79050  Biso   1.000  H
  H10      1.0000 0.11820  0.66830  0.77250  Biso   1.000  H
  H11      1.0000 0.98500  0.71310  0.79220  Biso   1.000  H
  H12      1.0000 0.27840  0.77120  0.58330  Biso   1.000  H
  H13      1.0000 0.27150  0.90960  0.57570  Biso   1.000  H
  H14      1.0000 0.40830  0.84640  0.59030  Biso   1.000  H
  H15      1.0000 0.94480  0.87500  0.05440  Biso   1.000  H
  H16      1.0000 0.83750  0.89550  0.00740  Biso   1.000  H
  H17      1.0000 0.02210  0.10270  0.12570  Biso   1.000  H
  H18      1.0000 0.01920  0.21440  0.09810  Biso   1.000  H
  H19      1.0000 0.79890  0.35570  0.03170  Biso   1.000  H
  H20      1.0000 0.70810  0.34480  0.06950  Biso   1.000  H
  H21      1.0000 0.38150  0.11900  0.83700  Biso   1.000  H
  H22      1.0000 0.34360  0.46430  0.83560  Biso   1.000  H
  H23      1.0000 0.48540  0.07660  0.70950  Biso   1.000  H
  H24      1.0000 0.38180  0.16830  0.72750  Biso   1.000  H
  H25      1.0000 0.51500  0.21310  0.70780  Biso   1.000  H
  H26      1.0000 0.22160  0.27120  0.91670  Biso   1.000  H
  H27      1.0000 0.22850  0.40960  0.92430  Biso   1.000  H
  H28      1.0000 0.09170  0.34640  0.90970  Biso   1.000  H
  H29      1.0000 0.44480  0.62500  0.55440  Biso   1.000  H
  H30      1.0000 0.33750  0.60450  0.50740  Biso   1.000  H
  H31      1.0000 0.52210  0.39730  0.62570  Biso   1.000  H
  H32      1.0000 0.51920  0.28560  0.59810  Biso   1.000  H
  H33      1.0000 0.29890  0.14430  0.53170  Biso   1.000  H
  H34      1.0000 0.20810  0.15520  0.56950  Biso   1.000  H
  H35      1.0000 0.88150  0.38100  0.33700  Biso   1.000  H
  H36      1.0000 0.84360  0.03570  0.33560  Biso   1.000  H
  H37      1.0000 0.98540  0.42340  0.20950  Biso   1.000  H
  H38      1.0000 0.88180  0.33170  0.22750  Biso   1.000  H
  H39      1.0000 0.01500  0.28690  0.20780  Biso   1.000  H
  H40      1.0000 0.72160  0.22880  0.41670  Biso   1.000  H
  H41      1.0000 0.72850  0.09040  0.42430  Biso   1.000  H
  H42      1.0000 0.59170  0.15360  0.40970  Biso   1.000  H
  H43      1.0000 0.05520  0.12500  0.94560  Biso   1.000  H
  H44      1.0000 0.16250  0.10450  0.99260  Biso   1.000  H
  H45      1.0000 0.97790  0.89730  0.87430  Biso   1.000  H
  H46      1.0000 0.98080  0.78560  0.90190  Biso   1.000  H
  H47      1.0000 0.20110  0.64430  0.96830  Biso   1.000  H
  H48      1.0000 0.29190  0.65520  0.93050  Biso   1.000  H
  H49      1.0000 0.61850  0.88100  0.16300  Biso   1.000  H
  H50      1.0000 0.65640  0.53570  0.16440  Biso   1.000  H
  H51      1.0000 0.51460  0.92340  0.29050  Biso   1.000  H
  H52      1.0000 0.61820  0.83170  0.27250  Biso   1.000  H
  H53      1.0000 0.48500  0.78690  0.29220  Biso   1.000  H
  H54      1.0000 0.77840  0.72880  0.08330  Biso   1.000  H
  H55      1.0000 0.77150  0.59040  0.07570  Biso   1.000  H
  H56      1.0000 0.90830  0.65360  0.09030  Biso   1.000  H
  C1       1.0000 0.82680  0.64790  0.62389  Biso   1.000  C
  C2       1.0000 0.94980  0.62880  0.60640  Biso   1.000  C
  C3       1.0000 0.96400  0.64670  0.70685  Biso   1.000  C
  C4       1.0000 0.69350  0.65100  0.58817  Biso   1.000  C
  C5       1.0000 0.00710  0.61440  0.54882  Biso   1.000  C
  C6       1.0000 0.02590  0.65160  0.77120  Biso   1.000  C
  C7       1.0000 0.24080  0.92320  0.74847  Biso   1.000  C
  C8       1.0000 0.34770  0.85020  0.76200  Biso   1.000  C
  C9       1.0000 0.30990  0.85840  0.66357  Biso   1.000  C
  C10      1.0000 0.15770  0.00150  0.78348  Biso   1.000  C
  C11      1.0000 0.41890  0.80980  0.82080  Biso   1.000  C
  C12      1.0000 0.31770  0.84530  0.59740  Biso   1.000  C
  C13      1.0000 0.76420  0.45190  0.78508  Biso   1.000  C
  C14      1.0000 0.70490  0.40680  0.72154  Biso   1.000  C
  C15      1.0000 0.67320  0.14790  0.87611  Biso   1.000  C
  C16      1.0000 0.55020  0.12880  0.89360  Biso   1.000  C
  C17      1.0000 0.53600  0.14670  0.79315  Biso   1.000  C
  C18      1.0000 0.80650  0.15100  0.91183  Biso   1.000  C
  C19      1.0000 0.49290  0.11440  0.95118  Biso   1.000  C
  C20      1.0000 0.47410  0.15160  0.72880  Biso   1.000  C
  C21      1.0000 0.25920  0.42320  0.75153  Biso   1.000  C
  C22      1.0000 0.15230  0.35020  0.73800  Biso   1.000  C
  C23      1.0000 0.19010  0.35840  0.83643  Biso   1.000  C
  C24      1.0000 0.34230  0.50150  0.71652  Biso   1.000  C
  C25      1.0000 0.08110  0.30980  0.67920  Biso   1.000  C
  C26      1.0000 0.18230  0.34530  0.90260  Biso   1.000  C
  C27      1.0000 0.73580  0.95190  0.71492  Biso   1.000  C
  C28      1.0000 0.79510  0.90680  0.77846  Biso   1.000  C
  C29      1.0000 0.17320  0.35210  0.37611  Biso   1.000  C
  C30      1.0000 0.05020  0.37120  0.39360  Biso   1.000  C
  C31      1.0000 0.03600  0.35330  0.29315  Biso   1.000  C
  C32      1.0000 0.30650  0.34900  0.41183  Biso   1.000  C
  C33      1.0000 0.99290  0.38560  0.45118  Biso   1.000  C
  C34      1.0000 0.97410  0.34840  0.22880  Biso   1.000  C
  C35      1.0000 0.75920  0.07680  0.25153  Biso   1.000  C
  C36      1.0000 0.65230  0.14980  0.23800  Biso   1.000  C
  C37      1.0000 0.69010  0.14160  0.33643  Biso   1.000  C
  C38      1.0000 0.84230  0.99850  0.21652  Biso   1.000  C
  C39      1.0000 0.58110  0.19020  0.17920  Biso   1.000  C
  C40      1.0000 0.68230  0.15470  0.40260  Biso   1.000  C
  C41      1.0000 0.23580  0.54810  0.21492  Biso   1.000  C
  C42      1.0000 0.29510  0.59320  0.27846  Biso   1.000  C
  C43      1.0000 0.32680  0.85210  0.12389  Biso   1.000  C
  C44      1.0000 0.44980  0.87120  0.10640  Biso   1.000  C
  C45      1.0000 0.46400  0.85330  0.20685  Biso   1.000  C
  C46      1.0000 0.19350  0.84900  0.08817  Biso   1.000  C
  C47      1.0000 0.50710  0.88560  0.04882  Biso   1.000  C
  C48      1.0000 0.52590  0.84840  0.27120  Biso   1.000  C
  C49      1.0000 0.74080  0.57680  0.24847  Biso   1.000  C
  C50      1.0000 0.84770  0.64980  0.26200  Biso   1.000  C
  C51      1.0000 0.80990  0.64160  0.16357  Biso   1.000  C
  C52      1.0000 0.65770  0.49850  0.28348  Biso   1.000  C
  C53      1.0000 0.91890  0.69020  0.32080  Biso   1.000  C
  C54      1.0000 0.81770  0.65470  0.09740  Biso   1.000  C
  C55      1.0000 0.26420  0.04810  0.28508  Biso   1.000  C
  C56      1.0000 0.20490  0.09320  0.22154  Biso   1.000  C
  N1       1.0000 0.83700  0.65930  0.68633  Biso   1.000  N
  N2       1.0000 0.03460  0.62880  0.65991  Biso   1.000  N
  N3       1.0000 0.39140  0.81040  0.70895  Biso   1.000  N
  N4       1.0000 0.21850  0.92590  0.68577  Biso   1.000  N
  N5       1.0000 0.66300  0.15930  0.81367  Biso   1.000  N
  N6       1.0000 0.46540  0.12880  0.84009  Biso   1.000  N
  N7       1.0000 0.10860  0.31040  0.79105  Biso   1.000  N
  N8       1.0000 0.28150  0.42590  0.81423  Biso   1.000  N
  N9       1.0000 0.16300  0.34070  0.31367  Biso   1.000  N
  N10      1.0000 0.96540  0.37120  0.34009  Biso   1.000  N
  N11      1.0000 0.60860  0.18960  0.29105  Biso   1.000  N
  N12      1.0000 0.78150  0.07410  0.31423  Biso   1.000  N
  N13      1.0000 0.33700  0.84070  0.18633  Biso   1.000  N
  N14      1.0000 0.53460  0.87120  0.15991  Biso   1.000  N
  N15      1.0000 0.89140  0.68960  0.20895  Biso   1.000  N
  N16      1.0000 0.71850  0.57410  0.18577  Biso   1.000  N
  O1       1.0000 0.59770  0.67540  0.61647  Biso   1.000  O
  O2       1.0000 0.68000  0.62730  0.53256  Biso   1.000  O
  O3       1.0000 0.94000  0.63790  0.49930  Biso   1.000  O
  O4       1.0000 0.12610  0.58370  0.55438  Biso   1.000  O
  O5       1.0000 0.06990  0.05720  0.75146  Biso   1.000  O
  O6       1.0000 0.18500  0.01130  0.84006  Biso   1.000  O
  O7       1.0000 0.37550  0.83250  0.86921  Biso   1.000  O
  O8       1.0000 0.52440  0.75250  0.81820  Biso   1.000  O
  O9       1.0000 0.84270  0.38390  0.81563  Biso   1.000  O
  O10      1.0000 0.72890  0.55290  0.80080  Biso   1.000  O
  O11      1.0000 0.63330  0.47740  0.68848  Biso   1.000  O
  O12      1.0000 0.73100  0.30200  0.70822  Biso   1.000  O
  O13      1.0000 0.60590  0.42510  0.46540  Biso   1.000  O
  O14      1.0000 0.51710  0.64650  0.40219  Biso   1.000  O
  O15      1.0000 0.72820  0.80780  0.44300  Biso   1.000  O
  O16      1.0000 0.90230  0.17540  0.88353  Biso   1.000  O
  O17      1.0000 0.82000  0.12730  0.96744  Biso   1.000  O
  O18      1.0000 0.56000  0.13790  0.00070  Biso   1.000  O
  O19      1.0000 0.37390  0.08370  0.94562  Biso   1.000  O
  O20      1.0000 0.43010  0.55720  0.74854  Biso   1.000  O
  O21      1.0000 0.31500  0.51130  0.65994  Biso   1.000  O
  O22      1.0000 0.12450  0.33250  0.63079  Biso   1.000  O
  O23      1.0000 0.97560  0.25250  0.68180  Biso   1.000  O
  O24      1.0000 0.65730  0.88390  0.68437  Biso   1.000  O
  O25      1.0000 0.77110  0.05290  0.69920  Biso   1.000  O
  O26      1.0000 0.86670  0.97740  0.81152  Biso   1.000  O
  O27      1.0000 0.76900  0.80200  0.79178  Biso   1.000  O
  O28      1.0000 0.89410  0.92510  0.03460  Biso   1.000  O
  O29      1.0000 0.98290  0.14650  0.09781  Biso   1.000  O
  O30      1.0000 0.77180  0.30780  0.05700  Biso   1.000  O
  O31      1.0000 0.40230  0.32460  0.38353  Biso   1.000  O
  O32      1.0000 0.32000  0.37270  0.46744  Biso   1.000  O
  O33      1.0000 0.06000  0.36210  0.50070  Biso   1.000  O
  O34      1.0000 0.87390  0.41630  0.44562  Biso   1.000  O
  O35      1.0000 0.93010  0.94280  0.24854  Biso   1.000  O
  O36      1.0000 0.81500  0.98870  0.15994  Biso   1.000  O
  O37      1.0000 0.62450  0.16750  0.13079  Biso   1.000  O
  O38      1.0000 0.47560  0.24750  0.18180  Biso   1.000  O
  O39      1.0000 0.15730  0.61610  0.18437  Biso   1.000  O
  O40      1.0000 0.27110  0.44710  0.19920  Biso   1.000  O
  O41      1.0000 0.36670  0.52260  0.31152  Biso   1.000  O
  O42      1.0000 0.26900  0.69800  0.29178  Biso   1.000  O
  O43      1.0000 0.39410  0.57490  0.53460  Biso   1.000  O
  O44      1.0000 0.48290  0.35350  0.59781  Biso   1.000  O
  O45      1.0000 0.27180  0.19220  0.55700  Biso   1.000  O
  O46      1.0000 0.09770  0.82460  0.11647  Biso   1.000  O
  O47      1.0000 0.18000  0.87270  0.03256  Biso   1.000  O
  O48      1.0000 0.44000  0.86210  0.99930  Biso   1.000  O
  O49      1.0000 0.62610  0.91630  0.05438  Biso   1.000  O
  O50      1.0000 0.56990  0.44280  0.25146  Biso   1.000  O
  O51      1.0000 0.68500  0.48870  0.34006  Biso   1.000  O
  O52      1.0000 0.87550  0.66750  0.36921  Biso   1.000  O
  O53      1.0000 0.02440  0.74750  0.31820  Biso   1.000  O
  O54      1.0000 0.34270  0.11610  0.31563  Biso   1.000  O
  O55      1.0000 0.22890  0.94710  0.30080  Biso   1.000  O
  O56      1.0000 0.13330  0.02260  0.18848  Biso   1.000  O
  O57      1.0000 0.23100  0.19800  0.20822  Biso   1.000  O
  O58      1.0000 0.10590  0.07490  0.96540  Biso   1.000  O
  O59      1.0000 0.01710  0.85350  0.90219  Biso   1.000  O
  O60      1.0000 0.22820  0.69220  0.94300  Biso   1.000  O
