data_XENMIO_clean
_audit_creation_date              2015-05-14
_audit_creation_method            'Materials Studio'
_symmetry_space_group_name_H-M    'P1'
_symmetry_Int_Tables_number       1
_symmetry_cell_setting            triclinic
loop_
_symmetry_equiv_pos_as_xyz
  x,y,z
_cell_length_a                    6.3108
_cell_length_b                    12.6390
_cell_length_c                    15.6310
_cell_angle_alpha                 95.7230
_cell_angle_beta                  99.8780
_cell_angle_gamma                 97.8600
loop_
_atom_site_label
_atom_site_type_symbol
_atom_site_fract_x
_atom_site_fract_y
_atom_site_fract_z
_atom_site_U_iso_or_equiv
_atom_site_adp_type
_atom_site_occupancy
Zn1    Zn    0.47996   0.04582   0.89945   0.01267  Uiso   1.00
Zn2    Zn    0.94143   0.03806   0.81373   0.01267  Uiso   1.00
Zn3    Zn    0.52004   0.95418   0.10055   0.01267  Uiso   1.00
Zn4    Zn    0.05857   0.96194   0.18627   0.01267  Uiso   1.00
Zn5    Zn    0.00000   0.00000   0.00000   0.01267  Uiso   1.00
H6     H     0.81630   0.26990   0.64420   0.01267  Uiso   1.00
H7     H     0.42290   0.48680   0.58880   0.01267  Uiso   1.00
H8     H     0.35610   0.31710   0.78820   0.01267  Uiso   1.00
H9     H     0.53230   0.57660   0.79580   0.01267  Uiso   1.00
H10    H     0.54430   0.72900   0.89190   0.01267  Uiso   1.00
H11    H     0.89460   0.69390   0.84190   0.01267  Uiso   1.00
H12    H     0.88120   0.54200   0.74510   0.01267  Uiso   1.00
H13    H     0.45070   0.25280   0.45770   0.01267  Uiso   1.00
H14    H     0.47780   0.12850   0.34390   0.01267  Uiso   1.00
H15    H     0.10390   0.25450   0.36450   0.01267  Uiso   1.00
H16    H     0.06750   0.38390   0.47330   0.01267  Uiso   1.00
H17    H     0.18370   0.73010   0.35580   0.01267  Uiso   1.00
H18    H     0.57710   0.51320   0.41120   0.01267  Uiso   1.00
H19    H     0.64390   0.68290   0.21180   0.01267  Uiso   1.00
H20    H     0.46770   0.42340   0.20420   0.01267  Uiso   1.00
H21    H     0.45570   0.27100   0.10810   0.01267  Uiso   1.00
H22    H     0.10540   0.30610   0.15810   0.01267  Uiso   1.00
H23    H     0.11880   0.45800   0.25490   0.01267  Uiso   1.00
H24    H     0.54930   0.74720   0.54230   0.01267  Uiso   1.00
H25    H     0.52220   0.87150   0.65610   0.01267  Uiso   1.00
H26    H     0.89610   0.74550   0.63550   0.01267  Uiso   1.00
H27    H     0.93250   0.61610   0.52670   0.01267  Uiso   1.00
C28    C     0.66940   0.19568   0.77999   0.01267  Uiso   1.00
C29    C     0.59780   0.27978   0.72433   0.01267  Uiso   1.00
C30    C     0.70160   0.30447   0.65588   0.01267  Uiso   1.00
C31    C     0.63280   0.38064   0.60560   0.01267  Uiso   1.00
C32    C     0.46610   0.43428   0.62260   0.01267  Uiso   1.00
C33    C     0.36490   0.40870   0.69037   0.01267  Uiso   1.00
C34    C     0.42630   0.33292   0.74225   0.01267  Uiso   1.00
C35    C     0.20630   0.54458   0.76105   0.01267  Uiso   1.00
C36    C     0.40380   0.60027   0.80483   0.01267  Uiso   1.00
C37    C     0.41040   0.69154   0.86234   0.01267  Uiso   1.00
C38    C     0.22050   0.72815   0.87672   0.01267  Uiso   1.00
C39    C     0.02340   0.67075   0.83253   0.01267  Uiso   1.00
C40    C     0.01490   0.57970   0.77476   0.01267  Uiso   1.00
C41    C     0.22510   0.82723   0.93664   0.01267  Uiso   1.00
C42    C     0.75590   0.32948   0.47562   0.01267  Uiso   1.00
C43    C     0.58170   0.25370   0.43795   0.01267  Uiso   1.00
C44    C     0.59880   0.17850   0.37087   0.01267  Uiso   1.00
C45    C     0.79560   0.17665   0.34299   0.01267  Uiso   1.00
C46    C     0.97080   0.25430   0.38241   0.01267  Uiso   1.00
C47    C     0.94990   0.33110   0.44794   0.01267  Uiso   1.00
C48    C     0.81750   0.09368   0.27158   0.01267  Uiso   1.00
C49    C     0.33060   0.80432   0.22001   0.01267  Uiso   1.00
C50    C     0.40220   0.72022   0.27567   0.01267  Uiso   1.00
C51    C     0.29840   0.69553   0.34412   0.01267  Uiso   1.00
C52    C     0.36720   0.61936   0.39440   0.01267  Uiso   1.00
C53    C     0.53390   0.56572   0.37740   0.01267  Uiso   1.00
C54    C     0.63510   0.59130   0.30963   0.01267  Uiso   1.00
C55    C     0.57370   0.66708   0.25775   0.01267  Uiso   1.00
C56    C     0.79370   0.45542   0.23895   0.01267  Uiso   1.00
C57    C     0.59620   0.39973   0.19517   0.01267  Uiso   1.00
C58    C     0.58960   0.30846   0.13766   0.01267  Uiso   1.00
C59    C     0.77950   0.27185   0.12328   0.01267  Uiso   1.00
C60    C     0.97660   0.32925   0.16747   0.01267  Uiso   1.00
C61    C     0.98510   0.42030   0.22524   0.01267  Uiso   1.00
C62    C     0.77490   0.17277   0.06336   0.01267  Uiso   1.00
C63    C     0.24410   0.67052   0.52438   0.01267  Uiso   1.00
C64    C     0.41830   0.74630   0.56205   0.01267  Uiso   1.00
C65    C     0.40120   0.82150   0.62913   0.01267  Uiso   1.00
C66    C     0.20440   0.82335   0.65701   0.01267  Uiso   1.00
C67    C     0.02920   0.74570   0.61759   0.01267  Uiso   1.00
C68    C     0.05010   0.66890   0.55206   0.01267  Uiso   1.00
C69    C     0.18250   0.90632   0.72842   0.01267  Uiso   1.00
O70    O     0.74990   0.98124   0.89217   0.01267  Uiso   1.00
O71    O     0.18610   0.08209   0.91391   0.01267  Uiso   1.00
O72    O     0.57970   0.18061   0.84367   0.01267  Uiso   1.00
O73    O     0.81740   0.14819   0.75734   0.01267  Uiso   1.00
O74    O     0.18190   0.45429   0.70266   0.01267  Uiso   1.00
O75    O     0.04820   0.84941   0.95237   0.01267  Uiso   1.00
O76    O     0.40900   0.88502   0.96788   0.01267  Uiso   1.00
O77    O     0.73970   0.41092   0.53903   0.01267  Uiso   1.00
O78    O     0.64720   0.04594   0.22278   0.01267  Uiso   1.00
O79    O     0.00720   0.07790   0.26538   0.01267  Uiso   1.00
O80    O     0.25010   0.01876   0.10783   0.01267  Uiso   1.00
O81    O     0.81390   0.91791   0.08609   0.01267  Uiso   1.00
O82    O     0.42030   0.81939   0.15633   0.01267  Uiso   1.00
O83    O     0.18260   0.85181   0.24266   0.01267  Uiso   1.00
O84    O     0.81810   0.54571   0.29734   0.01267  Uiso   1.00
O85    O     0.95180   0.15059   0.04763   0.01267  Uiso   1.00
O86    O     0.59100   0.11498   0.03212   0.01267  Uiso   1.00
O87    O     0.26030   0.58908   0.46097   0.01267  Uiso   1.00
O88    O     0.35280   0.95406   0.77722   0.01267  Uiso   1.00
O89    O     0.99280   0.92210   0.73462   0.01267  Uiso   1.00
H90    H     0.18610   0.16161   0.92032   0.01267  Uiso   1.00
H91    H     0.25010   0.09828   0.11424   0.01267  Uiso   1.00
H92    H     0.81390   0.83839   0.07968   0.01267  Uiso   1.00
H93    H     0.74990   0.90172   0.88576   0.01267  Uiso   1.00
