data_image0
_cell_length_a       9.8836
_cell_length_b       10.9817
_cell_length_c       12.8681
_cell_angle_alpha    90
_cell_angle_beta     90
_cell_angle_gamma    99.384

_symmetry_space_group_name_H-M    P 1
_symmetry_int_tables_number       1

loop_
  _symmetry_equiv_pos_as_xyz
  'x, y, z'

loop_
  _atom_site_label
  _atom_site_occupancy
  _atom_site_fract_x
  _atom_site_fract_y
  _atom_site_fract_z
  _atom_site_thermal_displace_type
  _atom_site_B_iso_or_equiv
  _atom_site_type_symbol
  Mg1      1.0000 0.62790  0.74970  0.76510  Biso   1.000  Mg
  Mg2      1.0000 0.12500  0.75260  0.76430  Biso   1.000  Mg
  Mg3      1.0000 0.37210  0.25030  0.26510  Biso   1.000  Mg
  Mg4      1.0000 0.87500  0.24740  0.26430  Biso   1.000  Mg
  H1       1.0000 0.09950  0.01150  0.53880  Biso   1.000  H
  H2       1.0000 0.08650  0.13860  0.39990  Biso   1.000  H
  H3       1.0000 0.69340  0.99710  0.58210  Biso   1.000  H
  H4       1.0000 0.69480  0.12360  0.44180  Biso   1.000  H
  H5       1.0000 0.05040  0.49610  0.93370  Biso   1.000  H
  H6       1.0000 0.05340  0.36350  0.07220  Biso   1.000  H
  H7       1.0000 0.65360  0.49820  0.99260  Biso   1.000  H
  H8       1.0000 0.66670  0.36520  0.12810  Biso   1.000  H
  H9       1.0000 0.38390  0.37360  0.87570  Biso   1.000  H
  H10      1.0000 0.37660  0.24660  0.01810  Biso   1.000  H
  H11      1.0000 0.33310  0.64880  0.06480  Biso   1.000  H
  H12      1.0000 0.35050  0.52440  0.20130  Biso   1.000  H
  H13      1.0000 0.39290  0.84760  0.46110  Biso   1.000  H
  H14      1.0000 0.38150  0.98050  0.32260  Biso   1.000  H
  H15      1.0000 0.39820  0.13510  0.65060  Biso   1.000  H
  H16      1.0000 0.38450  0.25790  0.50730  Biso   1.000  H
  H17      1.0000 0.90050  0.98850  0.03880  Biso   1.000  H
  H18      1.0000 0.91350  0.86140  0.89990  Biso   1.000  H
  H19      1.0000 0.30660  0.00290  0.08210  Biso   1.000  H
  H20      1.0000 0.30520  0.87640  0.94180  Biso   1.000  H
  H21      1.0000 0.94960  0.50390  0.43370  Biso   1.000  H
  H22      1.0000 0.94660  0.63650  0.57220  Biso   1.000  H
  H23      1.0000 0.34640  0.50180  0.49260  Biso   1.000  H
  H24      1.0000 0.33330  0.63480  0.62810  Biso   1.000  H
  H25      1.0000 0.61610  0.62640  0.37570  Biso   1.000  H
  H26      1.0000 0.62340  0.75340  0.51810  Biso   1.000  H
  H27      1.0000 0.66690  0.35120  0.56480  Biso   1.000  H
  H28      1.0000 0.64950  0.47560  0.70130  Biso   1.000  H
  H29      1.0000 0.60710  0.15240  0.96110  Biso   1.000  H
  H30      1.0000 0.61850  0.01950  0.82260  Biso   1.000  H
  H31      1.0000 0.60180  0.86490  0.15060  Biso   1.000  H
  H32      1.0000 0.61550  0.74210  0.00730  Biso   1.000  H
  C1       1.0000 0.90350  0.89900  0.66610  Biso   1.000  C
  C2       1.0000 0.89570  0.98410  0.57640  Biso   1.000  C
  C3       1.0000 0.01530  0.03180  0.51960  Biso   1.000  C
  C4       1.0000 0.00690  0.10790  0.43620  Biso   1.000  C
  C5       1.0000 0.77450  0.02260  0.54590  Biso   1.000  C
  C6       1.0000 0.77670  0.09880  0.46130  Biso   1.000  C
  C7       1.0000 0.84710  0.60290  0.85900  Biso   1.000  C
  C8       1.0000 0.84910  0.51210  0.94790  Biso   1.000  C
  C9       1.0000 0.97140  0.47140  0.97260  Biso   1.000  C
  C10      1.0000 0.97220  0.39250  0.05740  Biso   1.000  C
  C11      1.0000 0.73650  0.47240  0.00750  Biso   1.000  C
  C12      1.0000 0.74580  0.39350  0.09030  Biso   1.000  C
  C13      1.0000 0.34820  0.60700  0.85930  Biso   1.000  C
  C14      1.0000 0.35050  0.52210  0.95230  Biso   1.000  C
  C15      1.0000 0.37040  0.40470  0.94140  Biso   1.000  C
  C16      1.0000 0.37080  0.32940  0.02860  Biso   1.000  C
  C17      1.0000 0.34360  0.56720  0.05370  Biso   1.000  C
  C18      1.0000 0.35220  0.49190  0.13460  Biso   1.000  C
  C19      1.0000 0.40360  0.89350  0.66550  Biso   1.000  C
  C20      1.0000 0.39230  0.97590  0.57430  Biso   1.000  C
  C21      1.0000 0.39040  0.93060  0.47330  Biso   1.000  C
  C22      1.0000 0.38460  0.01200  0.38980  Biso   1.000  C
  C23      1.0000 0.39320  0.09990  0.58470  Biso   1.000  C
  C24      1.0000 0.38670  0.17430  0.49770  Biso   1.000  C
  C25      1.0000 0.09650  0.10100  0.16610  Biso   1.000  C
  C26      1.0000 0.10430  0.01590  0.07640  Biso   1.000  C
  C27      1.0000 0.98470  0.96820  0.01960  Biso   1.000  C
  C28      1.0000 0.99310  0.89210  0.93620  Biso   1.000  C
  C29      1.0000 0.22550  0.97740  0.04590  Biso   1.000  C
  C30      1.0000 0.22330  0.90120  0.96130  Biso   1.000  C
  C31      1.0000 0.15290  0.39710  0.35900  Biso   1.000  C
  C32      1.0000 0.15090  0.48790  0.44790  Biso   1.000  C
  C33      1.0000 0.02860  0.52860  0.47260  Biso   1.000  C
  C34      1.0000 0.02780  0.60750  0.55740  Biso   1.000  C
  C35      1.0000 0.26350  0.52760  0.50750  Biso   1.000  C
  C36      1.0000 0.25420  0.60650  0.59030  Biso   1.000  C
  C37      1.0000 0.65180  0.39300  0.35930  Biso   1.000  C
  C38      1.0000 0.64950  0.47790  0.45230  Biso   1.000  C
  C39      1.0000 0.62960  0.59530  0.44140  Biso   1.000  C
  C40      1.0000 0.62920  0.67060  0.52860  Biso   1.000  C
  C41      1.0000 0.65640  0.43280  0.55370  Biso   1.000  C
  C42      1.0000 0.64780  0.50810  0.63460  Biso   1.000  C
  C43      1.0000 0.59640  0.10650  0.16550  Biso   1.000  C
  C44      1.0000 0.60770  0.02410  0.07430  Biso   1.000  C
  C45      1.0000 0.60960  0.06940  0.97330  Biso   1.000  C
  C46      1.0000 0.61540  0.98800  0.88980  Biso   1.000  C
  C47      1.0000 0.60680  0.90010  0.08470  Biso   1.000  C
  C48      1.0000 0.61330  0.82570  0.99770  Biso   1.000  C
  N1       1.0000 0.88810  0.13980  0.40510  Biso   1.000  N
  N2       1.0000 0.86360  0.35550  0.11910  Biso   1.000  N
  N3       1.0000 0.36360  0.36780  0.12420  Biso   1.000  N
  N4       1.0000 0.38350  0.13050  0.40240  Biso   1.000  N
  N5       1.0000 0.11190  0.86020  0.90510  Biso   1.000  N
  N6       1.0000 0.13640  0.64450  0.61910  Biso   1.000  N
  N7       1.0000 0.63640  0.63220  0.62420  Biso   1.000  N
  N8       1.0000 0.61650  0.86950  0.90240  Biso   1.000  N
  O1       1.0000 0.79600  0.86630  0.71950  Biso   1.000  O
  O2       1.0000 0.01760  0.86470  0.68320  Biso   1.000  O
  O3       1.0000 0.73540  0.64240  0.85090  Biso   1.000  O
  O4       1.0000 0.94970  0.62870  0.80640  Biso   1.000  O
  O5       1.0000 0.45290  0.63000  0.80730  Biso   1.000  O
  O6       1.0000 0.23620  0.64100  0.84580  Biso   1.000  O
  O7       1.0000 0.51500  0.85400  0.67540  Biso   1.000  O
  O8       1.0000 0.30260  0.87120  0.72750  Biso   1.000  O
  O9       1.0000 0.20400  0.13370  0.21950  Biso   1.000  O
  O10      1.0000 0.98240  0.13530  0.18320  Biso   1.000  O
  O11      1.0000 0.26460  0.35760  0.35090  Biso   1.000  O
  O12      1.0000 0.05030  0.37130  0.30640  Biso   1.000  O
  O13      1.0000 0.54710  0.37000  0.30730  Biso   1.000  O
  O14      1.0000 0.76380  0.35900  0.34580  Biso   1.000  O
  O15      1.0000 0.48500  0.14600  0.17540  Biso   1.000  O
  O16      1.0000 0.69740  0.12880  0.22750  Biso   1.000  O
