data_image0
_cell_length_a       7.8951
_cell_length_b       9.80699
_cell_length_c       17.3671
_cell_angle_alpha    106.4
_cell_angle_beta     96.407
_cell_angle_gamma    90

_symmetry_space_group_name_H-M    P 1
_symmetry_int_tables_number       1

loop_
  _symmetry_equiv_pos_as_xyz
  'x, y, z'

loop_
  _atom_site_label
  _atom_site_occupancy
  _atom_site_fract_x
  _atom_site_fract_y
  _atom_site_fract_z
  _atom_site_thermal_displace_type
  _atom_site_B_iso_or_equiv
  _atom_site_type_symbol
  Cd1      1.0000 0.25000  0.52921  0.00000  Biso   1.000  Cd
  Cd2      1.0000 0.75000  0.47079  0.00000  Biso   1.000  Cd
  H1       1.0000 0.17360  0.25480  0.96640  Biso   1.000  H
  H2       1.0000 0.70180  0.54270  0.22200  Biso   1.000  H
  H3       1.0000 0.85850  0.65210  0.34480  Biso   1.000  H
  H4       1.0000 0.72420  0.03150  0.32040  Biso   1.000  H
  H5       1.0000 0.56370  0.92210  0.19900  Biso   1.000  H
  H6       1.0000 0.61090  0.82800  0.45080  Biso   1.000  H
  H7       1.0000 0.50160  0.84900  0.56860  Biso   1.000  H
  H8       1.0000 0.65510  0.97070  0.69180  Biso   1.000  H
  H9       1.0000 0.08290  0.93100  0.30480  Biso   1.000  H
  H10      1.0000 0.32640  0.28840  0.03360  Biso   1.000  H
  H11      1.0000 0.79820  0.32070  0.77800  Biso   1.000  H
  H12      1.0000 0.64150  0.30730  0.65520  Biso   1.000  H
  H13      1.0000 0.77580  0.71110  0.67960  Biso   1.000  H
  H14      1.0000 0.93630  0.72310  0.80100  Biso   1.000  H
  H15      1.0000 0.88910  0.37720  0.54920  Biso   1.000  H
  H16      1.0000 0.99840  0.28040  0.43140  Biso   1.000  H
  H17      1.0000 0.84490  0.27890  0.30820  Biso   1.000  H
  H18      1.0000 0.41710  0.62620  0.69520  Biso   1.000  H
  H19      1.0000 0.82640  0.74520  0.03360  Biso   1.000  H
  H20      1.0000 0.29820  0.45730  0.77800  Biso   1.000  H
  H21      1.0000 0.14150  0.34790  0.65520  Biso   1.000  H
  H22      1.0000 0.27580  0.96850  0.67960  Biso   1.000  H
  H23      1.0000 0.43630  0.07790  0.80100  Biso   1.000  H
  H24      1.0000 0.38910  0.17200  0.54920  Biso   1.000  H
  H25      1.0000 0.49840  0.15100  0.43140  Biso   1.000  H
  H26      1.0000 0.34490  0.02930  0.30820  Biso   1.000  H
  H27      1.0000 0.91710  0.06900  0.69520  Biso   1.000  H
  H28      1.0000 0.67360  0.71160  0.96640  Biso   1.000  H
  H29      1.0000 0.20180  0.67930  0.22200  Biso   1.000  H
  H30      1.0000 0.35850  0.69270  0.34480  Biso   1.000  H
  H31      1.0000 0.22420  0.28890  0.32040  Biso   1.000  H
  H32      1.0000 0.06370  0.27690  0.19900  Biso   1.000  H
  H33      1.0000 0.11090  0.62280  0.45080  Biso   1.000  H
  H34      1.0000 0.00160  0.71960  0.56860  Biso   1.000  H
  H35      1.0000 0.15510  0.72110  0.69180  Biso   1.000  H
  H36      1.0000 0.58290  0.37380  0.30480  Biso   1.000  H
  C1       1.0000 0.50410  0.64770  0.12240  Biso   1.000  C
  C2       1.0000 0.61460  0.72125  0.19870  Biso   1.000  C
  C3       1.0000 0.70460  0.64127  0.24214  Biso   1.000  C
  C4       1.0000 0.79930  0.70702  0.31564  Biso   1.000  C
  C5       1.0000 0.80600  0.85328  0.34576  Biso   1.000  C
  C6       1.0000 0.71870  0.93280  0.30120  Biso   1.000  C
  C7       1.0000 0.62280  0.86719  0.22818  Biso   1.000  C
  C8       1.0000 0.90690  0.92665  0.42550  Biso   1.000  C
  C9       1.0000 0.06730  0.98814  0.42648  Biso   1.000  C
  C10      1.0000 0.83750  0.93697  0.49734  Biso   1.000  C
  C11      1.0000 0.67420  0.87704  0.49928  Biso   1.000  C
  C12      1.0000 0.60860  0.88922  0.56944  Biso   1.000  C
  C13      1.0000 0.70130  0.96259  0.64378  Biso   1.000  C
  C14      1.0000 0.14260  0.97872  0.35444  Biso   1.000  C
  C15      1.0000 0.99590  0.52530  0.87760  Biso   1.000  C
  C16      1.0000 0.88540  0.52255  0.80130  Biso   1.000  C
  C17      1.0000 0.79540  0.39913  0.75786  Biso   1.000  C
  C18      1.0000 0.70070  0.39138  0.68436  Biso   1.000  C
  C19      1.0000 0.69400  0.50752  0.65424  Biso   1.000  C
  C20      1.0000 0.78130  0.63160  0.69880  Biso   1.000  C
  C21      1.0000 0.87720  0.63901  0.77182  Biso   1.000  C
  C22      1.0000 0.59310  0.50115  0.57450  Biso   1.000  C
  C23      1.0000 0.43270  0.56166  0.57352  Biso   1.000  C
  C24      1.0000 0.66250  0.43963  0.50266  Biso   1.000  C
  C25      1.0000 0.82580  0.37776  0.50072  Biso   1.000  C
  C26      1.0000 0.89140  0.31978  0.43056  Biso   1.000  C
  C27      1.0000 0.79870  0.31881  0.35622  Biso   1.000  C
  C28      1.0000 0.35740  0.62428  0.64556  Biso   1.000  C
  C29      1.0000 0.49590  0.35230  0.87760  Biso   1.000  C
  C30      1.0000 0.38540  0.27875  0.80130  Biso   1.000  C
  C31      1.0000 0.29540  0.35873  0.75786  Biso   1.000  C
  C32      1.0000 0.20070  0.29298  0.68436  Biso   1.000  C
  C33      1.0000 0.19400  0.14672  0.65424  Biso   1.000  C
  C34      1.0000 0.28130  0.06720  0.69880  Biso   1.000  C
  C35      1.0000 0.37720  0.13281  0.77182  Biso   1.000  C
  C36      1.0000 0.09310  0.07335  0.57450  Biso   1.000  C
  C37      1.0000 0.93270  0.01186  0.57352  Biso   1.000  C
  C38      1.0000 0.16250  0.06303  0.50266  Biso   1.000  C
  C39      1.0000 0.32580  0.12296  0.50072  Biso   1.000  C
  C40      1.0000 0.39140  0.11078  0.43056  Biso   1.000  C
  C41      1.0000 0.29870  0.03741  0.35622  Biso   1.000  C
  C42      1.0000 0.85740  0.02128  0.64556  Biso   1.000  C
  C43      1.0000 0.00410  0.47470  0.12240  Biso   1.000  C
  C44      1.0000 0.11460  0.47745  0.19870  Biso   1.000  C
  C45      1.0000 0.20460  0.60087  0.24214  Biso   1.000  C
  C46      1.0000 0.29930  0.60862  0.31564  Biso   1.000  C
  C47      1.0000 0.30600  0.49248  0.34576  Biso   1.000  C
  C48      1.0000 0.21870  0.36840  0.30120  Biso   1.000  C
  C49      1.0000 0.12280  0.36099  0.22818  Biso   1.000  C
  C50      1.0000 0.40690  0.49885  0.42550  Biso   1.000  C
  C51      1.0000 0.56730  0.43834  0.42648  Biso   1.000  C
  C52      1.0000 0.33750  0.56037  0.49734  Biso   1.000  C
  C53      1.0000 0.17420  0.62224  0.49928  Biso   1.000  C
  C54      1.0000 0.10860  0.68022  0.56944  Biso   1.000  C
  C55      1.0000 0.20130  0.68119  0.64378  Biso   1.000  C
  C56      1.0000 0.64260  0.37572  0.35444  Biso   1.000  C
  O1       1.0000 0.38800  0.71607  0.09534  Biso   1.000  O
  O2       1.0000 0.52630  0.51906  0.08792  Biso   1.000  O
  O3       1.0000 0.11200  0.62073  0.90466  Biso   1.000  O
  O4       1.0000 0.97370  0.43114  0.91208  Biso   1.000  O
  O5       1.0000 0.61200  0.28393  0.90466  Biso   1.000  O
  O6       1.0000 0.47370  0.48094  0.91208  Biso   1.000  O
  O7       1.0000 0.88800  0.37927  0.09534  Biso   1.000  O
  O8       1.0000 0.02630  0.56886  0.08792  Biso   1.000  O
  O9       1.0000 0.25000  0.29950  0.00000  Biso   1.000  O
  O10      1.0000 0.75000  0.70050  0.00000  Biso   1.000  O
