data_image0
_cell_length_a       9.94114
_cell_length_b       9.94114
_cell_length_c       11.21
_cell_angle_alpha    63.6786
_cell_angle_beta     63.6786
_cell_angle_gamma    89.9999

_symmetry_space_group_name_H-M    P 1
_symmetry_int_tables_number       1

loop_
  _symmetry_equiv_pos_as_xyz
  'x, y, z'

loop_
  _atom_site_label
  _atom_site_occupancy
  _atom_site_fract_x
  _atom_site_fract_y
  _atom_site_fract_z
  _atom_site_thermal_displace_type
  _atom_site_B_iso_or_equiv
  _atom_site_type_symbol
  Cd1      1.0000 0.86416  0.61416  0.77168  Biso   1.000  Cd
  Cd2      1.0000 0.61416  0.86416  0.27168  Biso   1.000  Cd
  Cd3      1.0000 0.13584  0.38584  0.22832  Biso   1.000  Cd
  Cd4      1.0000 0.38584  0.13584  0.72832  Biso   1.000  Cd
  C1       1.0000 0.61300  0.55860  0.55820  Biso   1.000  C
  C2       1.0000 0.32880  0.88320  0.55820  Biso   1.000  C
  C3       1.0000 0.55860  0.32880  0.05820  Biso   1.000  C
  C4       1.0000 0.88320  0.61300  0.05820  Biso   1.000  C
  C5       1.0000 0.38700  0.44140  0.44180  Biso   1.000  C
  C6       1.0000 0.67120  0.11680  0.44180  Biso   1.000  C
  C7       1.0000 0.44140  0.67120  0.94180  Biso   1.000  C
  C8       1.0000 0.11680  0.38700  0.94180  Biso   1.000  C
  N1       1.0000 0.75368  0.75252  0.51484  Biso   1.000  N
  N2       1.0000 0.74791  0.62566  0.63060  Biso   1.000  N
  N3       1.0000 0.66005  0.50206  0.66034  Biso   1.000  N
  N4       1.0000 0.66775  0.71116  0.46770  Biso   1.000  N
  N5       1.0000 0.51751  0.46270  0.55132  Biso   1.000  N
  N6       1.0000 0.23148  0.73264  0.51484  Biso   1.000  N
  N7       1.0000 0.12149  0.74374  0.63060  Biso   1.000  N
  N8       1.0000 0.17961  0.83760  0.66034  Biso   1.000  N
  N9       1.0000 0.36455  0.82114  0.46770  Biso   1.000  N
  N10      1.0000 0.43117  0.98598  0.55132  Biso   1.000  N
  N11      1.0000 0.75252  0.23148  0.01484  Biso   1.000  N
  N12      1.0000 0.62566  0.12149  0.13060  Biso   1.000  N
  N13      1.0000 0.50206  0.17961  0.16034  Biso   1.000  N
  N14      1.0000 0.71116  0.36455  0.96770  Biso   1.000  N
  N15      1.0000 0.46270  0.43117  0.05132  Biso   1.000  N
  N16      1.0000 0.73264  0.75368  0.01484  Biso   1.000  N
  N17      1.0000 0.74374  0.74791  0.13060  Biso   1.000  N
  N18      1.0000 0.83760  0.66005  0.16034  Biso   1.000  N
  N19      1.0000 0.82114  0.66775  0.96770  Biso   1.000  N
  N20      1.0000 0.98598  0.51751  0.05132  Biso   1.000  N
  N21      1.0000 0.24632  0.24748  0.48516  Biso   1.000  N
  N22      1.0000 0.25209  0.37434  0.36940  Biso   1.000  N
  N23      1.0000 0.33995  0.49794  0.33966  Biso   1.000  N
  N24      1.0000 0.33225  0.28884  0.53230  Biso   1.000  N
  N25      1.0000 0.48249  0.53730  0.44868  Biso   1.000  N
  N26      1.0000 0.76852  0.26736  0.48516  Biso   1.000  N
  N27      1.0000 0.87851  0.25626  0.36940  Biso   1.000  N
  N28      1.0000 0.82039  0.16240  0.33966  Biso   1.000  N
  N29      1.0000 0.63545  0.17886  0.53230  Biso   1.000  N
  N30      1.0000 0.56883  0.01402  0.44868  Biso   1.000  N
  N31      1.0000 0.24748  0.76852  0.98516  Biso   1.000  N
  N32      1.0000 0.37434  0.87851  0.86940  Biso   1.000  N
  N33      1.0000 0.49794  0.82039  0.83966  Biso   1.000  N
  N34      1.0000 0.28884  0.63545  0.03230  Biso   1.000  N
  N35      1.0000 0.53730  0.56883  0.94868  Biso   1.000  N
  N36      1.0000 0.26736  0.24632  0.98516  Biso   1.000  N
  N37      1.0000 0.25626  0.25209  0.86940  Biso   1.000  N
  N38      1.0000 0.16240  0.33995  0.83966  Biso   1.000  N
  N39      1.0000 0.17886  0.33225  0.03230  Biso   1.000  N
  N40      1.0000 0.01402  0.48249  0.94868  Biso   1.000  N
