data_image0
_cell_length_a       5.0169
_cell_length_b       20.6949
_cell_length_c       24.9851
_cell_angle_alpha    90
_cell_angle_beta     90
_cell_angle_gamma    95.721

_symmetry_space_group_name_H-M    P 1
_symmetry_int_tables_number       1

loop_
  _symmetry_equiv_pos_as_xyz
  'x, y, z'

loop_
  _atom_site_label
  _atom_site_occupancy
  _atom_site_fract_x
  _atom_site_fract_y
  _atom_site_fract_z
  _atom_site_thermal_displace_type
  _atom_site_B_iso_or_equiv
  _atom_site_type_symbol
  Mn1      1.0000 0.17934  0.06154  0.96045  Biso   1.000  Mn
  Mn2      1.0000 0.32066  0.43846  0.46045  Biso   1.000  Mn
  Mn3      1.0000 0.82066  0.93846  0.03955  Biso   1.000  Mn
  Mn4      1.0000 0.67934  0.56154  0.53955  Biso   1.000  Mn
  H1       1.0000 0.68160  0.34160  0.40240  Biso   1.000  H
  H2       1.0000 0.69170  0.27920  0.32450  Biso   1.000  H
  H3       1.0000 0.07990  0.36980  0.26320  Biso   1.000  H
  H4       1.0000 0.06970  0.43220  0.34110  Biso   1.000  H
  H5       1.0000 0.94000  0.31270  0.12260  Biso   1.000  H
  H6       1.0000 0.99800  0.24380  0.05120  Biso   1.000  H
  H7       1.0000 0.01460  0.04320  0.14070  Biso   1.000  H
  H8       1.0000 0.93580  0.11770  0.20600  Biso   1.000  H
  H9       1.0000 0.81840  0.15840  0.90240  Biso   1.000  H
  H10      1.0000 0.80830  0.22080  0.82450  Biso   1.000  H
  H11      1.0000 0.42010  0.13020  0.76320  Biso   1.000  H
  H12      1.0000 0.43030  0.06780  0.84110  Biso   1.000  H
  H13      1.0000 0.56000  0.18730  0.62260  Biso   1.000  H
  H14      1.0000 0.50200  0.25620  0.55120  Biso   1.000  H
  H15      1.0000 0.48540  0.45680  0.64070  Biso   1.000  H
  H16      1.0000 0.56420  0.38230  0.70600  Biso   1.000  H
  H17      1.0000 0.31840  0.65840  0.59760  Biso   1.000  H
  H18      1.0000 0.30830  0.72080  0.67550  Biso   1.000  H
  H19      1.0000 0.92010  0.63020  0.73680  Biso   1.000  H
  H20      1.0000 0.93030  0.56780  0.65890  Biso   1.000  H
  H21      1.0000 0.06000  0.68730  0.87740  Biso   1.000  H
  H22      1.0000 0.00200  0.75620  0.94880  Biso   1.000  H
  H23      1.0000 0.98540  0.95680  0.85930  Biso   1.000  H
  H24      1.0000 0.06420  0.88230  0.79400  Biso   1.000  H
  H25      1.0000 0.18160  0.84160  0.09760  Biso   1.000  H
  H26      1.0000 0.19170  0.77920  0.17550  Biso   1.000  H
  H27      1.0000 0.57990  0.86980  0.23680  Biso   1.000  H
  H28      1.0000 0.56970  0.93220  0.15890  Biso   1.000  H
  H29      1.0000 0.44000  0.81270  0.37740  Biso   1.000  H
  H30      1.0000 0.49800  0.74380  0.44880  Biso   1.000  H
  H31      1.0000 0.51460  0.54320  0.35930  Biso   1.000  H
  H32      1.0000 0.43580  0.61770  0.29400  Biso   1.000  H
  C1       1.0000 0.55940  0.34730  0.37420  Biso   1.000  C
  C2       1.0000 0.56540  0.31020  0.32790  Biso   1.000  C
  C3       1.0000 0.38700  0.31860  0.28650  Biso   1.000  C
  C4       1.0000 0.20200  0.36400  0.29150  Biso   1.000  C
  C5       1.0000 0.19600  0.40110  0.33780  Biso   1.000  C
  C6       1.0000 0.58900  0.30030  0.20160  Biso   1.000  C
  C7       1.0000 0.62000  0.25720  0.15470  Biso   1.000  C
  C8       1.0000 0.45280  0.19850  0.14950  Biso   1.000  C
  C9       1.0000 0.24700  0.18420  0.18690  Biso   1.000  C
  C10      1.0000 0.20000  0.22780  0.23190  Biso   1.000  C
  C11      1.0000 0.82500  0.27360  0.11850  Biso   1.000  C
  C12      1.0000 0.85900  0.23210  0.07630  Biso   1.000  C
  C13      1.0000 0.70000  0.17410  0.06910  Biso   1.000  C
  C14      1.0000 0.49960  0.15550  0.10660  Biso   1.000  C
  C15      1.0000 0.33350  0.09530  0.10620  Biso   1.000  C
  C16      1.0000 0.12680  0.08290  0.14290  Biso   1.000  C
  C17      1.0000 0.08200  0.12670  0.18200  Biso   1.000  C
  C18      1.0000 0.39330  0.03720  0.07260  Biso   1.000  C
  C19      1.0000 0.74930  0.13930  0.01750  Biso   1.000  C
  C20      1.0000 0.94060  0.15270  0.87420  Biso   1.000  C
  C21      1.0000 0.93460  0.18980  0.82790  Biso   1.000  C
  C22      1.0000 0.11300  0.18140  0.78650  Biso   1.000  C
  C23      1.0000 0.29800  0.13600  0.79150  Biso   1.000  C
  C24      1.0000 0.30400  0.09890  0.83780  Biso   1.000  C
  C25      1.0000 0.91100  0.19970  0.70160  Biso   1.000  C
  C26      1.0000 0.88000  0.24280  0.65470  Biso   1.000  C
  C27      1.0000 0.04720  0.30150  0.64950  Biso   1.000  C
  C28      1.0000 0.25300  0.31580  0.68690  Biso   1.000  C
  C29      1.0000 0.30000  0.27220  0.73190  Biso   1.000  C
  C30      1.0000 0.67500  0.22640  0.61850  Biso   1.000  C
  C31      1.0000 0.64100  0.26790  0.57630  Biso   1.000  C
  C32      1.0000 0.80000  0.32590  0.56910  Biso   1.000  C
  C33      1.0000 0.00040  0.34450  0.60660  Biso   1.000  C
  C34      1.0000 0.16650  0.40470  0.60620  Biso   1.000  C
  C35      1.0000 0.37320  0.41710  0.64290  Biso   1.000  C
  C36      1.0000 0.41800  0.37330  0.68200  Biso   1.000  C
  C37      1.0000 0.10670  0.46280  0.57260  Biso   1.000  C
  C38      1.0000 0.75070  0.36070  0.51750  Biso   1.000  C
  C39      1.0000 0.44060  0.65270  0.62580  Biso   1.000  C
  C40      1.0000 0.43460  0.68980  0.67210  Biso   1.000  C
  C41      1.0000 0.61300  0.68140  0.71350  Biso   1.000  C
  C42      1.0000 0.79800  0.63600  0.70850  Biso   1.000  C
  C43      1.0000 0.80400  0.59890  0.66220  Biso   1.000  C
  C44      1.0000 0.41100  0.69970  0.79840  Biso   1.000  C
  C45      1.0000 0.38000  0.74280  0.84530  Biso   1.000  C
  C46      1.0000 0.54720  0.80150  0.85050  Biso   1.000  C
  C47      1.0000 0.75300  0.81580  0.81310  Biso   1.000  C
  C48      1.0000 0.80000  0.77220  0.76810  Biso   1.000  C
  C49      1.0000 0.17500  0.72640  0.88150  Biso   1.000  C
  C50      1.0000 0.14100  0.76790  0.92370  Biso   1.000  C
  C51      1.0000 0.30000  0.82590  0.93090  Biso   1.000  C
  C52      1.0000 0.50040  0.84450  0.89340  Biso   1.000  C
  C53      1.0000 0.66650  0.90470  0.89380  Biso   1.000  C
  C54      1.0000 0.87320  0.91710  0.85710  Biso   1.000  C
  C55      1.0000 0.91800  0.87330  0.81800  Biso   1.000  C
  C56      1.0000 0.60670  0.96280  0.92740  Biso   1.000  C
  C57      1.0000 0.25070  0.86070  0.98250  Biso   1.000  C
  C58      1.0000 0.05940  0.84730  0.12580  Biso   1.000  C
  C59      1.0000 0.06540  0.81020  0.17210  Biso   1.000  C
  C60      1.0000 0.88700  0.81860  0.21350  Biso   1.000  C
  C61      1.0000 0.70200  0.86400  0.20850  Biso   1.000  C
  C62      1.0000 0.69600  0.90110  0.16220  Biso   1.000  C
  C63      1.0000 0.08900  0.80030  0.29840  Biso   1.000  C
  C64      1.0000 0.12000  0.75720  0.34530  Biso   1.000  C
  C65      1.0000 0.95280  0.69850  0.35050  Biso   1.000  C
  C66      1.0000 0.74700  0.68420  0.31310  Biso   1.000  C
  C67      1.0000 0.70000  0.72780  0.26810  Biso   1.000  C
  C68      1.0000 0.32500  0.77360  0.38150  Biso   1.000  C
  C69      1.0000 0.35900  0.73210  0.42370  Biso   1.000  C
  C70      1.0000 0.20000  0.67410  0.43090  Biso   1.000  C
  C71      1.0000 0.99960  0.65550  0.39340  Biso   1.000  C
  C72      1.0000 0.83350  0.59530  0.39380  Biso   1.000  C
  C73      1.0000 0.62680  0.58290  0.35710  Biso   1.000  C
  C74      1.0000 0.58200  0.62670  0.31800  Biso   1.000  C
  C75      1.0000 0.89330  0.53720  0.42740  Biso   1.000  C
  C76      1.0000 0.24930  0.63930  0.48250  Biso   1.000  C
  N1       1.0000 0.37470  0.39280  0.37910  Biso   1.000  N
  N2       1.0000 0.39430  0.28080  0.23720  Biso   1.000  N
  N3       1.0000 0.12530  0.10720  0.87910  Biso   1.000  N
  N4       1.0000 0.10570  0.21920  0.73720  Biso   1.000  N
  N5       1.0000 0.62530  0.60720  0.62090  Biso   1.000  N
  N6       1.0000 0.60570  0.71920  0.76280  Biso   1.000  N
  N7       1.0000 0.87470  0.89280  0.12090  Biso   1.000  N
  N8       1.0000 0.89430  0.78080  0.26280  Biso   1.000  N
  O1       1.0000 0.21430  0.00960  0.04200  Biso   1.000  O
  O2       1.0000 0.62000  0.01870  0.07960  Biso   1.000  O
  O3       1.0000 0.55250  0.12180  0.98870  Biso   1.000  O
  O4       1.0000 0.98510  0.13630  0.00600  Biso   1.000  O
  O5       1.0000 0.73490  0.35130  0.20690  Biso   1.000  O
  O6       1.0000 0.01660  0.21800  0.26390  Biso   1.000  O
  O7       1.0000 0.28570  0.49040  0.54200  Biso   1.000  O
  O8       1.0000 0.88000  0.48130  0.57960  Biso   1.000  O
  O9       1.0000 0.94750  0.37820  0.48870  Biso   1.000  O
  O10      1.0000 0.51490  0.36370  0.50600  Biso   1.000  O
  O11      1.0000 0.76510  0.14870  0.70690  Biso   1.000  O
  O12      1.0000 0.48340  0.28200  0.76390  Biso   1.000  O
  O13      1.0000 0.78570  0.99040  0.95800  Biso   1.000  O
  O14      1.0000 0.38000  0.98130  0.92040  Biso   1.000  O
  O15      1.0000 0.44750  0.87820  0.01130  Biso   1.000  O
  O16      1.0000 0.01490  0.86370  0.99400  Biso   1.000  O
  O17      1.0000 0.26510  0.64870  0.79310  Biso   1.000  O
  O18      1.0000 0.98340  0.78200  0.73610  Biso   1.000  O
  O19      1.0000 0.71430  0.50960  0.45800  Biso   1.000  O
  O20      1.0000 0.12000  0.51870  0.42040  Biso   1.000  O
  O21      1.0000 0.05250  0.62180  0.51130  Biso   1.000  O
  O22      1.0000 0.48510  0.63630  0.49400  Biso   1.000  O
  O23      1.0000 0.23490  0.85130  0.29310  Biso   1.000  O
  O24      1.0000 0.51660  0.71800  0.23610  Biso   1.000  O
