data_image0
_cell_length_a       5.6137
_cell_length_b       17.1499
_cell_length_c       26.3769
_cell_angle_alpha    90
_cell_angle_beta     90
_cell_angle_gamma    96.82

_symmetry_space_group_name_H-M    P 1
_symmetry_int_tables_number       1

loop_
  _symmetry_equiv_pos_as_xyz
  'x, y, z'

loop_
  _atom_site_label
  _atom_site_occupancy
  _atom_site_fract_x
  _atom_site_fract_y
  _atom_site_fract_z
  _atom_site_thermal_displace_type
  _atom_site_B_iso_or_equiv
  _atom_site_type_symbol
  Zn1      1.0000 0.10949  0.57242  0.52830  Biso   1.000  Zn
  Zn2      1.0000 0.89051  0.92758  0.02830  Biso   1.000  Zn
  Zn3      1.0000 0.89051  0.42758  0.47170  Biso   1.000  Zn
  Zn4      1.0000 0.10949  0.07242  0.97170  Biso   1.000  Zn
  H1       1.0000 0.47170  0.89690  0.10010  Biso   1.000  H
  H2       1.0000 0.39630  0.83220  0.17720  Biso   1.000  H
  H3       1.0000 0.98670  0.72230  0.15410  Biso   1.000  H
  H4       1.0000 0.04750  0.79080  0.07860  Biso   1.000  H
  H5       1.0000 0.12300  0.57430  0.26250  Biso   1.000  H
  H6       1.0000 0.06870  0.51400  0.34230  Biso   1.000  H
  H7       1.0000 0.05090  0.72050  0.42060  Biso   1.000  H
  H8       1.0000 0.08790  0.78310  0.34190  Biso   1.000  H
  H9       1.0000 0.52830  0.60310  0.60010  Biso   1.000  H
  H10      1.0000 0.60370  0.66780  0.67720  Biso   1.000  H
  H11      1.0000 0.01330  0.77770  0.65410  Biso   1.000  H
  H12      1.0000 0.95250  0.70920  0.57860  Biso   1.000  H
  H13      1.0000 0.87700  0.92570  0.76250  Biso   1.000  H
  H14      1.0000 0.93130  0.98600  0.84230  Biso   1.000  H
  H15      1.0000 0.94910  0.77950  0.92060  Biso   1.000  H
  H16      1.0000 0.91210  0.71690  0.84190  Biso   1.000  H
  H17      1.0000 0.52830  0.10310  0.89990  Biso   1.000  H
  H18      1.0000 0.60370  0.16780  0.82280  Biso   1.000  H
  H19      1.0000 0.01330  0.27770  0.84590  Biso   1.000  H
  H20      1.0000 0.95250  0.20920  0.92140  Biso   1.000  H
  H21      1.0000 0.87700  0.42570  0.73750  Biso   1.000  H
  H22      1.0000 0.93130  0.48600  0.65770  Biso   1.000  H
  H23      1.0000 0.94910  0.27950  0.57940  Biso   1.000  H
  H24      1.0000 0.91210  0.21690  0.65810  Biso   1.000  H
  H25      1.0000 0.47170  0.39690  0.39990  Biso   1.000  H
  H26      1.0000 0.39630  0.33220  0.32280  Biso   1.000  H
  H27      1.0000 0.98670  0.22230  0.34590  Biso   1.000  H
  H28      1.0000 0.04750  0.29080  0.42140  Biso   1.000  H
  H29      1.0000 0.12300  0.07430  0.23750  Biso   1.000  H
  H30      1.0000 0.06870  0.01400  0.15770  Biso   1.000  H
  H31      1.0000 0.05090  0.22050  0.07940  Biso   1.000  H
  H32      1.0000 0.08790  0.28310  0.15810  Biso   1.000  H
  C1       1.0000 0.57870  0.86190  0.11172  Biso   1.000  C
  C2       1.0000 0.53270  0.82350  0.15761  Biso   1.000  C
  C3       1.0000 0.68860  0.77260  0.17432  Biso   1.000  C
  C4       1.0000 0.88100  0.75880  0.14415  Biso   1.000  C
  C5       1.0000 0.91470  0.79950  0.09932  Biso   1.000  C
  C6       1.0000 0.45220  0.68110  0.23031  Biso   1.000  C
  C7       1.0000 0.42620  0.64420  0.28075  Biso   1.000  C
  C8       1.0000 0.59580  0.66440  0.31919  Biso   1.000  C
  C9       1.0000 0.79540  0.72110  0.30982  Biso   1.000  C
  C10      1.0000 0.83250  0.75730  0.25939  Biso   1.000  C
  C11      1.0000 0.23440  0.58850  0.28902  Biso   1.000  C
  C12      1.0000 0.20230  0.55250  0.33679  Biso   1.000  C
  C13      1.0000 0.36240  0.57220  0.37584  Biso   1.000  C
  C14      1.0000 0.56840  0.62710  0.36783  Biso   1.000  C
  C15      1.0000 0.75160  0.64730  0.40461  Biso   1.000  C
  C16      1.0000 0.93660  0.70550  0.39481  Biso   1.000  C
  C17      1.0000 0.95960  0.74280  0.34783  Biso   1.000  C
  C18      1.0000 0.28180  0.54080  0.42707  Biso   1.000  C
  C19      1.0000 0.78440  0.59840  0.45094  Biso   1.000  C
  C20      1.0000 0.42130  0.63810  0.61172  Biso   1.000  C
  C21      1.0000 0.46730  0.67650  0.65761  Biso   1.000  C
  C22      1.0000 0.31140  0.72740  0.67432  Biso   1.000  C
  C23      1.0000 0.11900  0.74120  0.64415  Biso   1.000  C
  C24      1.0000 0.08530  0.70050  0.59932  Biso   1.000  C
  C25      1.0000 0.54780  0.81890  0.73031  Biso   1.000  C
  C26      1.0000 0.57380  0.85580  0.78075  Biso   1.000  C
  C27      1.0000 0.40420  0.83560  0.81919  Biso   1.000  C
  C28      1.0000 0.20460  0.77890  0.80982  Biso   1.000  C
  C29      1.0000 0.16750  0.74270  0.75939  Biso   1.000  C
  C30      1.0000 0.76560  0.91150  0.78902  Biso   1.000  C
  C31      1.0000 0.79770  0.94750  0.83679  Biso   1.000  C
  C32      1.0000 0.63760  0.92780  0.87584  Biso   1.000  C
  C33      1.0000 0.43160  0.87290  0.86783  Biso   1.000  C
  C34      1.0000 0.24840  0.85270  0.90461  Biso   1.000  C
  C35      1.0000 0.06340  0.79450  0.89481  Biso   1.000  C
  C36      1.0000 0.04040  0.75720  0.84783  Biso   1.000  C
  C37      1.0000 0.71820  0.95920  0.92707  Biso   1.000  C
  C38      1.0000 0.21560  0.90160  0.95094  Biso   1.000  C
  C39      1.0000 0.42130  0.13810  0.88828  Biso   1.000  C
  C40      1.0000 0.46730  0.17650  0.84239  Biso   1.000  C
  C41      1.0000 0.31140  0.22740  0.82568  Biso   1.000  C
  C42      1.0000 0.11900  0.24120  0.85585  Biso   1.000  C
  C43      1.0000 0.08530  0.20050  0.90068  Biso   1.000  C
  C44      1.0000 0.54780  0.31890  0.76969  Biso   1.000  C
  C45      1.0000 0.57380  0.35580  0.71925  Biso   1.000  C
  C46      1.0000 0.40420  0.33560  0.68081  Biso   1.000  C
  C47      1.0000 0.20460  0.27890  0.69018  Biso   1.000  C
  C48      1.0000 0.16750  0.24270  0.74061  Biso   1.000  C
  C49      1.0000 0.76560  0.41150  0.71098  Biso   1.000  C
  C50      1.0000 0.79770  0.44750  0.66321  Biso   1.000  C
  C51      1.0000 0.63760  0.42780  0.62416  Biso   1.000  C
  C52      1.0000 0.43160  0.37290  0.63217  Biso   1.000  C
  C53      1.0000 0.24840  0.35270  0.59539  Biso   1.000  C
  C54      1.0000 0.06340  0.29450  0.60519  Biso   1.000  C
  C55      1.0000 0.04040  0.25720  0.65217  Biso   1.000  C
  C56      1.0000 0.71820  0.45920  0.57293  Biso   1.000  C
  C57      1.0000 0.21560  0.40160  0.54906  Biso   1.000  C
  C58      1.0000 0.57870  0.36190  0.38828  Biso   1.000  C
  C59      1.0000 0.53270  0.32350  0.34239  Biso   1.000  C
  C60      1.0000 0.68860  0.27260  0.32568  Biso   1.000  C
  C61      1.0000 0.88100  0.25880  0.35585  Biso   1.000  C
  C62      1.0000 0.91470  0.29950  0.40068  Biso   1.000  C
  C63      1.0000 0.45220  0.18110  0.26969  Biso   1.000  C
  C64      1.0000 0.42620  0.14420  0.21925  Biso   1.000  C
  C65      1.0000 0.59580  0.16440  0.18081  Biso   1.000  C
  C66      1.0000 0.79540  0.22110  0.19018  Biso   1.000  C
  C67      1.0000 0.83250  0.25730  0.24061  Biso   1.000  C
  C68      1.0000 0.23440  0.08850  0.21098  Biso   1.000  C
  C69      1.0000 0.20230  0.05250  0.16321  Biso   1.000  C
  C70      1.0000 0.36240  0.07220  0.12416  Biso   1.000  C
  C71      1.0000 0.56840  0.12710  0.13217  Biso   1.000  C
  C72      1.0000 0.75160  0.14730  0.09539  Biso   1.000  C
  C73      1.0000 0.93660  0.20550  0.10519  Biso   1.000  C
  C74      1.0000 0.95960  0.24280  0.15217  Biso   1.000  C
  C75      1.0000 0.28180  0.04080  0.07293  Biso   1.000  C
  C76      1.0000 0.78440  0.09840  0.04906  Biso   1.000  C
  N1       1.0000 0.76900  0.85090  0.08346  Biso   1.000  N
  N2       1.0000 0.65680  0.73590  0.22312  Biso   1.000  N
  N3       1.0000 0.23100  0.64910  0.58346  Biso   1.000  N
  N4       1.0000 0.34320  0.76410  0.72312  Biso   1.000  N
  N5       1.0000 0.23100  0.14910  0.91654  Biso   1.000  N
  N6       1.0000 0.34320  0.26410  0.77688  Biso   1.000  N
  N7       1.0000 0.76900  0.35090  0.41654  Biso   1.000  N
  N8       1.0000 0.65680  0.23590  0.27688  Biso   1.000  N
  O1       1.0000 0.30210  0.58903  0.46379  Biso   1.000  O
  O2       1.0000 0.18160  0.47165  0.42854  Biso   1.000  O
  O3       1.0000 0.74860  0.52545  0.44509  Biso   1.000  O
  O4       1.0000 0.86870  0.63347  0.48978  Biso   1.000  O
  O5       1.0000 0.31120  0.66650  0.19617  Biso   1.000  O
  O6       1.0000 0.00310  0.80450  0.24899  Biso   1.000  O
  O7       1.0000 0.69790  0.91097  0.96379  Biso   1.000  O
  O8       1.0000 0.81840  0.02835  0.92854  Biso   1.000  O
  O9       1.0000 0.25140  0.97455  0.94509  Biso   1.000  O
  O10      1.0000 0.13130  0.86653  0.98978  Biso   1.000  O
  O11      1.0000 0.68880  0.83350  0.69617  Biso   1.000  O
  O12      1.0000 0.99690  0.69550  0.74899  Biso   1.000  O
  O13      1.0000 0.69790  0.41097  0.53621  Biso   1.000  O
  O14      1.0000 0.81840  0.52835  0.57146  Biso   1.000  O
  O15      1.0000 0.25140  0.47455  0.55491  Biso   1.000  O
  O16      1.0000 0.13130  0.36653  0.51022  Biso   1.000  O
  O17      1.0000 0.68880  0.33350  0.80383  Biso   1.000  O
  O18      1.0000 0.99690  0.19550  0.75101  Biso   1.000  O
  O19      1.0000 0.30210  0.08903  0.03621  Biso   1.000  O
  O20      1.0000 0.18160  0.97165  0.07146  Biso   1.000  O
  O21      1.0000 0.74860  0.02545  0.05491  Biso   1.000  O
  O22      1.0000 0.86870  0.13347  0.01022  Biso   1.000  O
  O23      1.0000 0.31120  0.16650  0.30383  Biso   1.000  O
  O24      1.0000 0.00310  0.30450  0.25101  Biso   1.000  O
