data_image0
_cell_length_a       5.6364
_cell_length_b       18.8863
_cell_length_c       25.301
_cell_angle_alpha    90
_cell_angle_beta     90
_cell_angle_gamma    95.47

_symmetry_space_group_name_H-M    P 1
_symmetry_int_tables_number       1

loop_
  _symmetry_equiv_pos_as_xyz
  'x, y, z'

loop_
  _atom_site_label
  _atom_site_occupancy
  _atom_site_fract_x
  _atom_site_fract_y
  _atom_site_fract_z
  _atom_site_thermal_displace_type
  _atom_site_B_iso_or_equiv
  _atom_site_type_symbol
  Zn1      1.0000 0.10300  0.56025  0.53332  Biso   1.000  Zn
  Zn2      1.0000 0.89700  0.93975  0.03332  Biso   1.000  Zn
  Zn3      1.0000 0.89700  0.43975  0.46668  Biso   1.000  Zn
  Zn4      1.0000 0.10300  0.06025  0.96668  Biso   1.000  Zn
  H1       1.0000 0.47530  0.91060  0.10740  Biso   1.000  H
  H2       1.0000 0.39080  0.84530  0.18420  Biso   1.000  H
  H3       1.0000 0.98700  0.74540  0.15830  Biso   1.000  H
  H4       1.0000 0.05840  0.81550  0.08430  Biso   1.000  H
  H5       1.0000 0.12700  0.60080  0.25690  Biso   1.000  H
  H6       1.0000 0.07280  0.53440  0.33480  Biso   1.000  H
  H7       1.0000 0.02950  0.70740  0.43250  Biso   1.000  H
  H8       1.0000 0.06710  0.77610  0.35580  Biso   1.000  H
  H9       1.0000 0.52470  0.58940  0.60740  Biso   1.000  H
  H10      1.0000 0.60920  0.65470  0.68420  Biso   1.000  H
  H11      1.0000 0.01300  0.75460  0.65830  Biso   1.000  H
  H12      1.0000 0.94160  0.68450  0.58430  Biso   1.000  H
  H13      1.0000 0.87300  0.89920  0.75690  Biso   1.000  H
  H14      1.0000 0.92720  0.96560  0.83480  Biso   1.000  H
  H15      1.0000 0.97050  0.79260  0.93250  Biso   1.000  H
  H16      1.0000 0.93290  0.72390  0.85580  Biso   1.000  H
  H17      1.0000 0.52470  0.08940  0.89260  Biso   1.000  H
  H18      1.0000 0.60920  0.15470  0.81580  Biso   1.000  H
  H19      1.0000 0.01300  0.25460  0.84170  Biso   1.000  H
  H20      1.0000 0.94160  0.18450  0.91570  Biso   1.000  H
  H21      1.0000 0.87300  0.39920  0.74310  Biso   1.000  H
  H22      1.0000 0.92720  0.46560  0.66520  Biso   1.000  H
  H23      1.0000 0.97050  0.29260  0.56750  Biso   1.000  H
  H24      1.0000 0.93290  0.22390  0.64420  Biso   1.000  H
  H25      1.0000 0.47530  0.41060  0.39260  Biso   1.000  H
  H26      1.0000 0.39080  0.34530  0.31580  Biso   1.000  H
  H27      1.0000 0.98700  0.24540  0.34170  Biso   1.000  H
  H28      1.0000 0.05840  0.31550  0.41570  Biso   1.000  H
  H29      1.0000 0.12700  0.10080  0.24310  Biso   1.000  H
  H30      1.0000 0.07280  0.03440  0.16520  Biso   1.000  H
  H31      1.0000 0.02950  0.20740  0.06750  Biso   1.000  H
  H32      1.0000 0.06710  0.27610  0.14420  Biso   1.000  H
  C1       1.0000 0.58130  0.87740  0.11861  Biso   1.000  C
  C2       1.0000 0.52990  0.83900  0.16413  Biso   1.000  C
  C3       1.0000 0.68730  0.79110  0.17976  Biso   1.000  C
  C4       1.0000 0.88300  0.78020  0.14909  Biso   1.000  C
  C5       1.0000 0.92120  0.82130  0.10510  Biso   1.000  C
  C6       1.0000 0.45090  0.70220  0.23209  Biso   1.000  C
  C7       1.0000 0.42390  0.66110  0.28170  Biso   1.000  C
  C8       1.0000 0.58870  0.67340  0.32322  Biso   1.000  C
  C9       1.0000 0.78470  0.72680  0.31817  Biso   1.000  C
  C10      1.0000 0.82060  0.76720  0.26881  Biso   1.000  C
  C11      1.0000 0.23470  0.60950  0.28559  Biso   1.000  C
  C12      1.0000 0.20340  0.57000  0.33210  Biso   1.000  C
  C13      1.0000 0.35730  0.58130  0.37428  Biso   1.000  C
  C14      1.0000 0.56120  0.63220  0.37026  Biso   1.000  C
  C15      1.0000 0.73850  0.64400  0.40998  Biso   1.000  C
  C16      1.0000 0.91850  0.69800  0.40451  Biso   1.000  C
  C17      1.0000 0.94110  0.73910  0.35871  Biso   1.000  C
  C18      1.0000 0.27520  0.54480  0.42483  Biso   1.000  C
  C19      1.0000 0.77440  0.59290  0.45461  Biso   1.000  C
  C20      1.0000 0.41870  0.62260  0.61861  Biso   1.000  C
  C21      1.0000 0.47010  0.66100  0.66413  Biso   1.000  C
  C22      1.0000 0.31270  0.70890  0.67976  Biso   1.000  C
  C23      1.0000 0.11700  0.71980  0.64909  Biso   1.000  C
  C24      1.0000 0.07880  0.67870  0.60510  Biso   1.000  C
  C25      1.0000 0.54910  0.79780  0.73209  Biso   1.000  C
  C26      1.0000 0.57610  0.83890  0.78170  Biso   1.000  C
  C27      1.0000 0.41130  0.82660  0.82322  Biso   1.000  C
  C28      1.0000 0.21530  0.77320  0.81817  Biso   1.000  C
  C29      1.0000 0.17940  0.73280  0.76881  Biso   1.000  C
  C30      1.0000 0.76530  0.89050  0.78559  Biso   1.000  C
  C31      1.0000 0.79660  0.93000  0.83210  Biso   1.000  C
  C32      1.0000 0.64270  0.91870  0.87428  Biso   1.000  C
  C33      1.0000 0.43880  0.86780  0.87026  Biso   1.000  C
  C34      1.0000 0.26150  0.85600  0.90998  Biso   1.000  C
  C35      1.0000 0.08150  0.80200  0.90451  Biso   1.000  C
  C36      1.0000 0.05890  0.76090  0.85871  Biso   1.000  C
  C37      1.0000 0.72480  0.95520  0.92483  Biso   1.000  C
  C38      1.0000 0.22560  0.90710  0.95461  Biso   1.000  C
  C39      1.0000 0.41870  0.12260  0.88139  Biso   1.000  C
  C40      1.0000 0.47010  0.16100  0.83587  Biso   1.000  C
  C41      1.0000 0.31270  0.20890  0.82024  Biso   1.000  C
  C42      1.0000 0.11700  0.21980  0.85091  Biso   1.000  C
  C43      1.0000 0.07880  0.17870  0.89490  Biso   1.000  C
  C44      1.0000 0.54910  0.29780  0.76791  Biso   1.000  C
  C45      1.0000 0.57610  0.33890  0.71830  Biso   1.000  C
  C46      1.0000 0.41130  0.32660  0.67678  Biso   1.000  C
  C47      1.0000 0.21530  0.27320  0.68183  Biso   1.000  C
  C48      1.0000 0.17940  0.23280  0.73119  Biso   1.000  C
  C49      1.0000 0.76530  0.39050  0.71441  Biso   1.000  C
  C50      1.0000 0.79660  0.43000  0.66790  Biso   1.000  C
  C51      1.0000 0.64270  0.41870  0.62572  Biso   1.000  C
  C52      1.0000 0.43880  0.36780  0.62974  Biso   1.000  C
  C53      1.0000 0.26150  0.35600  0.59002  Biso   1.000  C
  C54      1.0000 0.08150  0.30200  0.59549  Biso   1.000  C
  C55      1.0000 0.05890  0.26090  0.64129  Biso   1.000  C
  C56      1.0000 0.72480  0.45520  0.57517  Biso   1.000  C
  C57      1.0000 0.22560  0.40710  0.54539  Biso   1.000  C
  C58      1.0000 0.58130  0.37740  0.38139  Biso   1.000  C
  C59      1.0000 0.52990  0.33900  0.33587  Biso   1.000  C
  C60      1.0000 0.68730  0.29110  0.32024  Biso   1.000  C
  C61      1.0000 0.88300  0.28020  0.35091  Biso   1.000  C
  C62      1.0000 0.92120  0.32130  0.39490  Biso   1.000  C
  C63      1.0000 0.45090  0.20220  0.26791  Biso   1.000  C
  C64      1.0000 0.42390  0.16110  0.21830  Biso   1.000  C
  C65      1.0000 0.58870  0.17340  0.17678  Biso   1.000  C
  C66      1.0000 0.78470  0.22680  0.18183  Biso   1.000  C
  C67      1.0000 0.82060  0.26720  0.23119  Biso   1.000  C
  C68      1.0000 0.23470  0.10950  0.21441  Biso   1.000  C
  C69      1.0000 0.20340  0.07000  0.16790  Biso   1.000  C
  C70      1.0000 0.35730  0.08130  0.12572  Biso   1.000  C
  C71      1.0000 0.56120  0.13220  0.12974  Biso   1.000  C
  C72      1.0000 0.73850  0.14400  0.09002  Biso   1.000  C
  C73      1.0000 0.91850  0.19800  0.09549  Biso   1.000  C
  C74      1.0000 0.94110  0.23910  0.14129  Biso   1.000  C
  C75      1.0000 0.27520  0.04480  0.07517  Biso   1.000  C
  C76      1.0000 0.77440  0.09290  0.04539  Biso   1.000  C
  N1       1.0000 0.77590  0.86945  0.08952  Biso   1.000  N
  N2       1.0000 0.65120  0.75290  0.22903  Biso   1.000  N
  N3       1.0000 0.22410  0.63055  0.58952  Biso   1.000  N
  N4       1.0000 0.34880  0.74710  0.72903  Biso   1.000  N
  N5       1.0000 0.22410  0.13055  0.91048  Biso   1.000  N
  N6       1.0000 0.34880  0.24710  0.77097  Biso   1.000  N
  N7       1.0000 0.77590  0.36945  0.41048  Biso   1.000  N
  N8       1.0000 0.65120  0.25290  0.27097  Biso   1.000  N
  O1       1.0000 0.29020  0.58200  0.46635  Biso   1.000  O
  O2       1.0000 0.17860  0.48232  0.42084  Biso   1.000  O
  O3       1.0000 0.74120  0.52770  0.44293  Biso   1.000  O
  O4       1.0000 0.85490  0.61830  0.49715  Biso   1.000  O
  O5       1.0000 0.31540  0.69422  0.19483  Biso   1.000  O
  O6       1.0000 0.98740  0.81190  0.26188  Biso   1.000  O
  O7       1.0000 0.70980  0.91800  0.96635  Biso   1.000  O
  O8       1.0000 0.82140  0.01768  0.92084  Biso   1.000  O
  O9       1.0000 0.25880  0.97230  0.94293  Biso   1.000  O
  O10      1.0000 0.14510  0.88170  0.99715  Biso   1.000  O
  O11      1.0000 0.68460  0.80578  0.69483  Biso   1.000  O
  O12      1.0000 0.01260  0.68810  0.76188  Biso   1.000  O
  O13      1.0000 0.70980  0.41800  0.53365  Biso   1.000  O
  O14      1.0000 0.82140  0.51768  0.57916  Biso   1.000  O
  O15      1.0000 0.25880  0.47230  0.55707  Biso   1.000  O
  O16      1.0000 0.14510  0.38170  0.50285  Biso   1.000  O
  O17      1.0000 0.68460  0.30578  0.80517  Biso   1.000  O
  O18      1.0000 0.01260  0.18810  0.73812  Biso   1.000  O
  O19      1.0000 0.29020  0.08200  0.03365  Biso   1.000  O
  O20      1.0000 0.17860  0.98232  0.07916  Biso   1.000  O
  O21      1.0000 0.74120  0.02770  0.05707  Biso   1.000  O
  O22      1.0000 0.85490  0.11830  0.00285  Biso   1.000  O
  O23      1.0000 0.31540  0.19422  0.30517  Biso   1.000  O
  O24      1.0000 0.98740  0.31190  0.23812  Biso   1.000  O
