data_image0
_cell_length_a       9.987
_cell_length_b       11.664
_cell_length_c       22.771
_cell_angle_alpha    90
_cell_angle_beta     90
_cell_angle_gamma    100.588

_symmetry_space_group_name_H-M    P 1
_symmetry_int_tables_number       1

loop_
  _symmetry_equiv_pos_as_xyz
  'x, y, z'

loop_
  _atom_site_label
  _atom_site_occupancy
  _atom_site_fract_x
  _atom_site_fract_y
  _atom_site_fract_z
  _atom_site_thermal_displace_type
  _atom_site_B_iso_or_equiv
  _atom_site_type_symbol
  Mn1      1.0000 0.58444  0.88356  0.94987  Biso   1.000  Mn
  Mn2      1.0000 0.41556  0.61644  0.44987  Biso   1.000  Mn
  Mn3      1.0000 0.41556  0.11644  0.05013  Biso   1.000  Mn
  Mn4      1.0000 0.58444  0.38356  0.55013  Biso   1.000  Mn
  H1       1.0000 0.85450  0.01390  0.00460  Biso   1.000  H
  H2       1.0000 0.01060  0.18200  0.00670  Biso   1.000  H
  H3       1.0000 0.79670  0.30730  0.88150  Biso   1.000  H
  H4       1.0000 0.64600  0.13480  0.88380  Biso   1.000  H
  H5       1.0000 0.00030  0.43450  0.91720  Biso   1.000  H
  H6       1.0000 0.15040  0.34880  0.00130  Biso   1.000  H
  H7       1.0000 0.34110  0.48750  0.04050  Biso   1.000  H
  H8       1.0000 0.49680  0.65860  0.03320  Biso   1.000  H
  H9       1.0000 0.31460  0.75110  0.89730  Biso   1.000  H
  H10      1.0000 0.15290  0.58590  0.90140  Biso   1.000  H
  H11      1.0000 0.01090  0.81030  0.88110  Biso   1.000  H
  H12      1.0000 0.15250  0.74630  0.81430  Biso   1.000  H
  H13      1.0000 0.69290  0.62930  0.79760  Biso   1.000  H
  H14      1.0000 0.10950  0.49720  0.80850  Biso   1.000  H
  H15      1.0000 0.25960  0.47660  0.80210  Biso   1.000  H
  H16      1.0000 0.13940  0.38850  0.77390  Biso   1.000  H
  H17      1.0000 0.32850  0.45720  0.69070  Biso   1.000  H
  H18      1.0000 0.20590  0.69020  0.58790  Biso   1.000  H
  H19      1.0000 0.06030  0.72780  0.65940  Biso   1.000  H
  H20      1.0000 0.14550  0.48610  0.50460  Biso   1.000  H
  H21      1.0000 0.98940  0.31800  0.50670  Biso   1.000  H
  H22      1.0000 0.20330  0.19270  0.38150  Biso   1.000  H
  H23      1.0000 0.35400  0.36520  0.38380  Biso   1.000  H
  H24      1.0000 0.99970  0.06550  0.41720  Biso   1.000  H
  H25      1.0000 0.84960  0.15120  0.50130  Biso   1.000  H
  H26      1.0000 0.65890  0.01250  0.54050  Biso   1.000  H
  H27      1.0000 0.50320  0.84140  0.53320  Biso   1.000  H
  H28      1.0000 0.68540  0.74890  0.39730  Biso   1.000  H
  H29      1.0000 0.84710  0.91410  0.40140  Biso   1.000  H
  H30      1.0000 0.98910  0.68970  0.38110  Biso   1.000  H
  H31      1.0000 0.84750  0.75370  0.31430  Biso   1.000  H
  H32      1.0000 0.30710  0.87070  0.29760  Biso   1.000  H
  H33      1.0000 0.89050  0.00280  0.30850  Biso   1.000  H
  H34      1.0000 0.74040  0.02340  0.30210  Biso   1.000  H
  H35      1.0000 0.86060  0.11150  0.27390  Biso   1.000  H
  H36      1.0000 0.67150  0.04280  0.19070  Biso   1.000  H
  H37      1.0000 0.79410  0.80980  0.08790  Biso   1.000  H
  H38      1.0000 0.93970  0.77220  0.15940  Biso   1.000  H
  H39      1.0000 0.14550  0.98610  0.99540  Biso   1.000  H
  H40      1.0000 0.98940  0.81800  0.99330  Biso   1.000  H
  H41      1.0000 0.20330  0.69270  0.11850  Biso   1.000  H
  H42      1.0000 0.35400  0.86520  0.11620  Biso   1.000  H
  H43      1.0000 0.99970  0.56550  0.08280  Biso   1.000  H
  H44      1.0000 0.84960  0.65120  0.99870  Biso   1.000  H
  H45      1.0000 0.65890  0.51250  0.95950  Biso   1.000  H
  H46      1.0000 0.50320  0.34140  0.96680  Biso   1.000  H
  H47      1.0000 0.68540  0.24890  0.10270  Biso   1.000  H
  H48      1.0000 0.84710  0.41410  0.09860  Biso   1.000  H
  H49      1.0000 0.98910  0.18970  0.11890  Biso   1.000  H
  H50      1.0000 0.84750  0.25370  0.18570  Biso   1.000  H
  H51      1.0000 0.30710  0.37070  0.20240  Biso   1.000  H
  H52      1.0000 0.89050  0.50280  0.19150  Biso   1.000  H
  H53      1.0000 0.74040  0.52340  0.19790  Biso   1.000  H
  H54      1.0000 0.86060  0.61150  0.22610  Biso   1.000  H
  H55      1.0000 0.67150  0.54280  0.30930  Biso   1.000  H
  H56      1.0000 0.79410  0.30980  0.41210  Biso   1.000  H
  H57      1.0000 0.93970  0.27220  0.34060  Biso   1.000  H
  H58      1.0000 0.85450  0.51390  0.49540  Biso   1.000  H
  H59      1.0000 0.01060  0.68200  0.49330  Biso   1.000  H
  H60      1.0000 0.79670  0.80730  0.61850  Biso   1.000  H
  H61      1.0000 0.64600  0.63480  0.61620  Biso   1.000  H
  H62      1.0000 0.00030  0.93450  0.58280  Biso   1.000  H
  H63      1.0000 0.15040  0.84880  0.49870  Biso   1.000  H
  H64      1.0000 0.34110  0.98750  0.45950  Biso   1.000  H
  H65      1.0000 0.49680  0.15860  0.46680  Biso   1.000  H
  H66      1.0000 0.31460  0.25110  0.60270  Biso   1.000  H
  H67      1.0000 0.15290  0.08590  0.59860  Biso   1.000  H
  H68      1.0000 0.01090  0.31030  0.61890  Biso   1.000  H
  H69      1.0000 0.15250  0.24630  0.68570  Biso   1.000  H
  H70      1.0000 0.69290  0.12930  0.70240  Biso   1.000  H
  H71      1.0000 0.10950  0.99720  0.69150  Biso   1.000  H
  H72      1.0000 0.25960  0.97660  0.69790  Biso   1.000  H
  H73      1.0000 0.13940  0.88850  0.72610  Biso   1.000  H
  H74      1.0000 0.32850  0.95720  0.80930  Biso   1.000  H
  H75      1.0000 0.20590  0.19020  0.91210  Biso   1.000  H
  H76      1.0000 0.06030  0.22780  0.84060  Biso   1.000  H
  C1       1.0000 0.84270  0.07390  0.97940  Biso   1.000  C
  C2       1.0000 0.93670  0.17490  0.98120  Biso   1.000  C
  C3       1.0000 0.92100  0.26610  0.94490  Biso   1.000  C
  C4       1.0000 0.81040  0.24890  0.90740  Biso   1.000  C
  C5       1.0000 0.72090  0.14430  0.90880  Biso   1.000  C
  C6       1.0000 0.01930  0.37780  0.94300  Biso   1.000  C
  C7       1.0000 0.13160  0.40420  0.97460  Biso   1.000  C
  C8       1.0000 0.22830  0.51420  0.97060  Biso   1.000  C
  C9       1.0000 0.33310  0.53960  0.01040  Biso   1.000  C
  C10      1.0000 0.42720  0.64290  0.00560  Biso   1.000  C
  C11      1.0000 0.32050  0.69670  0.92660  Biso   1.000  C
  C12      1.0000 0.22320  0.59710  0.92870  Biso   1.000  C
  C13      1.0000 0.74310  0.77870  0.88510  Biso   1.000  C
  C14      1.0000 0.83750  0.73060  0.84480  Biso   1.000  C
  C15      1.0000 0.97410  0.76220  0.85040  Biso   1.000  C
  C16      1.0000 0.05880  0.72270  0.81020  Biso   1.000  C
  C17      1.0000 0.01040  0.65010  0.76450  Biso   1.000  C
  C18      1.0000 0.78650  0.65440  0.80070  Biso   1.000  C
  C19      1.0000 0.87240  0.61390  0.76040  Biso   1.000  C
  C20      1.0000 0.10480  0.61800  0.71950  Biso   1.000  C
  C21      1.0000 0.18780  0.53650  0.72930  Biso   1.000  C
  C22      1.0000 0.17280  0.46900  0.78300  Biso   1.000  C
  C23      1.0000 0.27450  0.51320  0.68450  Biso   1.000  C
  C24      1.0000 0.28250  0.56950  0.63220  Biso   1.000  C
  C25      1.0000 0.37730  0.54420  0.58500  Biso   1.000  C
  C26      1.0000 0.20180  0.65020  0.62340  Biso   1.000  C
  C27      1.0000 0.11480  0.67270  0.66660  Biso   1.000  C
  C28      1.0000 0.15730  0.42610  0.47940  Biso   1.000  C
  C29      1.0000 0.06330  0.32510  0.48120  Biso   1.000  C
  C30      1.0000 0.07900  0.23390  0.44490  Biso   1.000  C
  C31      1.0000 0.18960  0.25110  0.40740  Biso   1.000  C
  C32      1.0000 0.27910  0.35570  0.40880  Biso   1.000  C
  C33      1.0000 0.98070  0.12220  0.44300  Biso   1.000  C
  C34      1.0000 0.86840  0.09580  0.47460  Biso   1.000  C
  C35      1.0000 0.77170  0.98580  0.47060  Biso   1.000  C
  C36      1.0000 0.66690  0.96040  0.51040  Biso   1.000  C
  C37      1.0000 0.57280  0.85710  0.50560  Biso   1.000  C
  C38      1.0000 0.67950  0.80330  0.42660  Biso   1.000  C
  C39      1.0000 0.77680  0.90290  0.42870  Biso   1.000  C
  C40      1.0000 0.25690  0.72130  0.38510  Biso   1.000  C
  C41      1.0000 0.16250  0.76940  0.34480  Biso   1.000  C
  C42      1.0000 0.02590  0.73780  0.35040  Biso   1.000  C
  C43      1.0000 0.94120  0.77730  0.31020  Biso   1.000  C
  C44      1.0000 0.98960  0.84990  0.26450  Biso   1.000  C
  C45      1.0000 0.21350  0.84560  0.30070  Biso   1.000  C
  C46      1.0000 0.12760  0.88610  0.26040  Biso   1.000  C
  C47      1.0000 0.89520  0.88200  0.21950  Biso   1.000  C
  C48      1.0000 0.81220  0.96350  0.22930  Biso   1.000  C
  C49      1.0000 0.82720  0.03100  0.28300  Biso   1.000  C
  C50      1.0000 0.72550  0.98680  0.18450  Biso   1.000  C
  C51      1.0000 0.71750  0.93050  0.13220  Biso   1.000  C
  C52      1.0000 0.62270  0.95580  0.08500  Biso   1.000  C
  C53      1.0000 0.79820  0.84980  0.12340  Biso   1.000  C
  C54      1.0000 0.88520  0.82730  0.16660  Biso   1.000  C
  C55      1.0000 0.15730  0.92610  0.02060  Biso   1.000  C
  C56      1.0000 0.06330  0.82510  0.01880  Biso   1.000  C
  C57      1.0000 0.07900  0.73390  0.05510  Biso   1.000  C
  C58      1.0000 0.18960  0.75110  0.09260  Biso   1.000  C
  C59      1.0000 0.27910  0.85570  0.09120  Biso   1.000  C
  C60      1.0000 0.98070  0.62220  0.05700  Biso   1.000  C
  C61      1.0000 0.86840  0.59580  0.02540  Biso   1.000  C
  C62      1.0000 0.77170  0.48580  0.02940  Biso   1.000  C
  C63      1.0000 0.66690  0.46040  0.98960  Biso   1.000  C
  C64      1.0000 0.57280  0.35710  0.99440  Biso   1.000  C
  C65      1.0000 0.67950  0.30330  0.07340  Biso   1.000  C
  C66      1.0000 0.77680  0.40290  0.07130  Biso   1.000  C
  C67      1.0000 0.25690  0.22130  0.11490  Biso   1.000  C
  C68      1.0000 0.16250  0.26940  0.15520  Biso   1.000  C
  C69      1.0000 0.02590  0.23780  0.14960  Biso   1.000  C
  C70      1.0000 0.94120  0.27730  0.18980  Biso   1.000  C
  C71      1.0000 0.98960  0.34990  0.23550  Biso   1.000  C
  C72      1.0000 0.21350  0.34560  0.19930  Biso   1.000  C
  C73      1.0000 0.12760  0.38610  0.23960  Biso   1.000  C
  C74      1.0000 0.89520  0.38200  0.28050  Biso   1.000  C
  C75      1.0000 0.81220  0.46350  0.27070  Biso   1.000  C
  C76      1.0000 0.82720  0.53100  0.21700  Biso   1.000  C
  C77      1.0000 0.72550  0.48680  0.31550  Biso   1.000  C
  C78      1.0000 0.71750  0.43050  0.36780  Biso   1.000  C
  C79      1.0000 0.62270  0.45580  0.41500  Biso   1.000  C
  C80      1.0000 0.79820  0.34980  0.37660  Biso   1.000  C
  C81      1.0000 0.88520  0.32730  0.33340  Biso   1.000  C
  C82      1.0000 0.84270  0.57390  0.52060  Biso   1.000  C
  C83      1.0000 0.93670  0.67490  0.51880  Biso   1.000  C
  C84      1.0000 0.92100  0.76610  0.55510  Biso   1.000  C
  C85      1.0000 0.81040  0.74890  0.59260  Biso   1.000  C
  C86      1.0000 0.72090  0.64430  0.59120  Biso   1.000  C
  C87      1.0000 0.01930  0.87780  0.55700  Biso   1.000  C
  C88      1.0000 0.13160  0.90420  0.52540  Biso   1.000  C
  C89      1.0000 0.22830  0.01420  0.52940  Biso   1.000  C
  C90      1.0000 0.33310  0.03960  0.48960  Biso   1.000  C
  C91      1.0000 0.42720  0.14290  0.49440  Biso   1.000  C
  C92      1.0000 0.32050  0.19670  0.57340  Biso   1.000  C
  C93      1.0000 0.22320  0.09710  0.57130  Biso   1.000  C
  C94      1.0000 0.74310  0.27870  0.61490  Biso   1.000  C
  C95      1.0000 0.83750  0.23060  0.65520  Biso   1.000  C
  C96      1.0000 0.97410  0.26220  0.64960  Biso   1.000  C
  C97      1.0000 0.05880  0.22270  0.68980  Biso   1.000  C
  C98      1.0000 0.01040  0.15010  0.73550  Biso   1.000  C
  C99      1.0000 0.78650  0.15440  0.69930  Biso   1.000  C
  C100     1.0000 0.87240  0.11390  0.73960  Biso   1.000  C
  C101     1.0000 0.10480  0.11800  0.78050  Biso   1.000  C
  C102     1.0000 0.18780  0.03650  0.77070  Biso   1.000  C
  C103     1.0000 0.17280  0.96900  0.71700  Biso   1.000  C
  C104     1.0000 0.27450  0.01320  0.81550  Biso   1.000  C
  C105     1.0000 0.28250  0.06950  0.86780  Biso   1.000  C
  C106     1.0000 0.37730  0.04420  0.91500  Biso   1.000  C
  C107     1.0000 0.20180  0.15020  0.87660  Biso   1.000  C
  C108     1.0000 0.11480  0.17270  0.83340  Biso   1.000  C
  N1       1.0000 0.42170  0.71830  0.96425  Biso   1.000  N
  N2       1.0000 0.73490  0.05580  0.94371  Biso   1.000  N
  N3       1.0000 0.57830  0.78170  0.46425  Biso   1.000  N
  N4       1.0000 0.26510  0.44420  0.44371  Biso   1.000  N
  N5       1.0000 0.57830  0.28170  0.03575  Biso   1.000  N
  N6       1.0000 0.26510  0.94420  0.05629  Biso   1.000  N
  N7       1.0000 0.42170  0.21830  0.53575  Biso   1.000  N
  N8       1.0000 0.73490  0.55580  0.55629  Biso   1.000  N
  O1       1.0000 0.63310  0.80110  0.86457  Biso   1.000  O
  O2       1.0000 0.77380  0.79910  0.93683  Biso   1.000  O
  O3       1.0000 0.43490  0.45830  0.59237  Biso   1.000  O
  O4       1.0000 0.39270  0.61000  0.54080  Biso   1.000  O
  O5       1.0000 0.36690  0.69890  0.36457  Biso   1.000  O
  O6       1.0000 0.22620  0.70090  0.43683  Biso   1.000  O
  O7       1.0000 0.56510  0.04170  0.09237  Biso   1.000  O
  O8       1.0000 0.60730  0.89000  0.04080  Biso   1.000  O
  O9       1.0000 0.36690  0.19890  0.13543  Biso   1.000  O
  O10      1.0000 0.22620  0.20090  0.06317  Biso   1.000  O
  O11      1.0000 0.56510  0.54170  0.40763  Biso   1.000  O
  O12      1.0000 0.60730  0.39000  0.45920  Biso   1.000  O
  O13      1.0000 0.63310  0.30110  0.63543  Biso   1.000  O
  O14      1.0000 0.77380  0.29910  0.56317  Biso   1.000  O
  O15      1.0000 0.43490  0.95830  0.90763  Biso   1.000  O
  O16      1.0000 0.39270  0.11000  0.95920  Biso   1.000  O
