data_image0
_cell_length_a       27.662
_cell_length_b       27.662
_cell_length_c       27.662
_cell_angle_alpha    60
_cell_angle_beta     60
_cell_angle_gamma    60

_symmetry_space_group_name_H-M    P 1
_symmetry_int_tables_number       1

loop_
  _symmetry_equiv_pos_as_xyz
  'x, y, z'

loop_
  _atom_site_label
  _atom_site_occupancy
  _atom_site_fract_x
  _atom_site_fract_y
  _atom_site_fract_z
  _atom_site_thermal_displace_type
  _atom_site_B_iso_or_equiv
  _atom_site_type_symbol
  Zr1      1.0000 0.45476  0.45475  0.98152  Biso   1.000  Zr
  Zr2      1.0000 0.45476  0.45475  0.10897  Biso   1.000  Zr
  Zr3      1.0000 0.98153  0.10897  0.45475  Biso   1.000  Zr
  Zr4      1.0000 0.10898  0.98152  0.45475  Biso   1.000  Zr
  Zr5      1.0000 0.45476  0.98152  0.10897  Biso   1.000  Zr
  Zr6      1.0000 0.45476  0.10897  0.98152  Biso   1.000  Zr
  Zr7      1.0000 0.98153  0.45475  0.45475  Biso   1.000  Zr
  Zr8      1.0000 0.10898  0.45475  0.45475  Biso   1.000  Zr
  Zr9      1.0000 0.45476  0.10897  0.45475  Biso   1.000  Zr
  Zr10     1.0000 0.45476  0.98152  0.45475  Biso   1.000  Zr
  Zr11     1.0000 0.98153  0.45475  0.10897  Biso   1.000  Zr
  Zr12     1.0000 0.10898  0.45475  0.98152  Biso   1.000  Zr
  Zr13     1.0000 0.54524  0.54525  0.01848  Biso   1.000  Zr
  Zr14     1.0000 0.54524  0.54525  0.89103  Biso   1.000  Zr
  Zr15     1.0000 0.89102  0.01848  0.54525  Biso   1.000  Zr
  Zr16     1.0000 0.01847  0.89103  0.54525  Biso   1.000  Zr
  Zr17     1.0000 0.01847  0.54525  0.89103  Biso   1.000  Zr
  Zr18     1.0000 0.89102  0.54525  0.01848  Biso   1.000  Zr
  Zr19     1.0000 0.54524  0.01848  0.54525  Biso   1.000  Zr
  Zr20     1.0000 0.54524  0.89103  0.54525  Biso   1.000  Zr
  Zr21     1.0000 0.89102  0.54525  0.54525  Biso   1.000  Zr
  Zr22     1.0000 0.01847  0.54525  0.54525  Biso   1.000  Zr
  Zr23     1.0000 0.54524  0.01848  0.89103  Biso   1.000  Zr
  Zr24     1.0000 0.54524  0.89103  0.01848  Biso   1.000  Zr
  Zr25     1.0000 0.58911  0.41089  0.00000  Biso   1.000  Zr
  Zr26     1.0000 0.41089  0.58911  0.00000  Biso   1.000  Zr
  Zr27     1.0000 0.00000  0.00000  0.58911  Biso   1.000  Zr
  Zr28     1.0000 0.00000  0.00000  0.41089  Biso   1.000  Zr
  Zr29     1.0000 0.58911  0.00000  0.00000  Biso   1.000  Zr
  Zr30     1.0000 0.41089  0.00000  0.00000  Biso   1.000  Zr
  Zr31     1.0000 0.00000  0.58911  0.41089  Biso   1.000  Zr
  Zr32     1.0000 0.00000  0.41089  0.58911  Biso   1.000  Zr
  Zr33     1.0000 0.58911  0.00000  0.41089  Biso   1.000  Zr
  Zr34     1.0000 0.41089  0.00000  0.58911  Biso   1.000  Zr
  Zr35     1.0000 1.00000  0.41089  0.00000  Biso   1.000  Zr
  Zr36     1.0000 0.00000  0.58911  0.00000  Biso   1.000  Zr
  H1       1.0000 0.65590  0.21990  0.13210  Biso   1.000  H
  H2       1.0000 0.21990  0.65590  0.99210  Biso   1.000  H
  H3       1.0000 0.13210  0.99210  0.65590  Biso   1.000  H
  H4       1.0000 0.99210  0.13210  0.21990  Biso   1.000  H
  H5       1.0000 0.65590  0.13210  0.99210  Biso   1.000  H
  H6       1.0000 0.21990  0.99210  0.13210  Biso   1.000  H
  H7       1.0000 0.13210  0.65590  0.21990  Biso   1.000  H
  H8       1.0000 0.99210  0.21990  0.65590  Biso   1.000  H
  H9       1.0000 0.65590  0.99210  0.21990  Biso   1.000  H
  H10      1.0000 0.21990  0.13210  0.65590  Biso   1.000  H
  H11      1.0000 0.13210  0.21990  0.99210  Biso   1.000  H
  H12      1.0000 0.99210  0.65590  0.13210  Biso   1.000  H
  H13      1.0000 0.78010  0.34410  0.86790  Biso   1.000  H
  H14      1.0000 0.34410  0.78010  0.00790  Biso   1.000  H
  H15      1.0000 0.00790  0.86790  0.34410  Biso   1.000  H
  H16      1.0000 0.86790  0.00790  0.78010  Biso   1.000  H
  H17      1.0000 0.86790  0.34410  0.00790  Biso   1.000  H
  H18      1.0000 0.00790  0.78010  0.86790  Biso   1.000  H
  H19      1.0000 0.34410  0.86790  0.78010  Biso   1.000  H
  H20      1.0000 0.78010  0.00790  0.34410  Biso   1.000  H
  H21      1.0000 0.00790  0.34410  0.78010  Biso   1.000  H
  H22      1.0000 0.86790  0.78010  0.34410  Biso   1.000  H
  H23      1.0000 0.78010  0.86790  0.00790  Biso   1.000  H
  H24      1.0000 0.34410  0.00790  0.86790  Biso   1.000  H
  H25      1.0000 0.34410  0.78010  0.86790  Biso   1.000  H
  H26      1.0000 0.78010  0.34410  0.00790  Biso   1.000  H
  H27      1.0000 0.86790  0.00790  0.34410  Biso   1.000  H
  H28      1.0000 0.00790  0.86790  0.78010  Biso   1.000  H
  H29      1.0000 0.34410  0.86790  0.00790  Biso   1.000  H
  H30      1.0000 0.78010  0.00790  0.86790  Biso   1.000  H
  H31      1.0000 0.86790  0.34410  0.78010  Biso   1.000  H
  H32      1.0000 0.00790  0.78010  0.34410  Biso   1.000  H
  H33      1.0000 0.34410  0.00790  0.78010  Biso   1.000  H
  H34      1.0000 0.78010  0.86790  0.34410  Biso   1.000  H
  H35      1.0000 0.86790  0.78010  0.00790  Biso   1.000  H
  H36      1.0000 0.00790  0.34410  0.86790  Biso   1.000  H
  H37      1.0000 0.21990  0.65590  0.13210  Biso   1.000  H
  H38      1.0000 0.65590  0.21990  0.99210  Biso   1.000  H
  H39      1.0000 0.99210  0.13210  0.65590  Biso   1.000  H
  H40      1.0000 0.13210  0.99210  0.21990  Biso   1.000  H
  H41      1.0000 0.13210  0.65590  0.99210  Biso   1.000  H
  H42      1.0000 0.99210  0.21990  0.13210  Biso   1.000  H
  H43      1.0000 0.65590  0.13210  0.21990  Biso   1.000  H
  H44      1.0000 0.21990  0.99210  0.65590  Biso   1.000  H
  H45      1.0000 0.99210  0.65590  0.21990  Biso   1.000  H
  H46      1.0000 0.13210  0.21990  0.65590  Biso   1.000  H
  H47      1.0000 0.21990  0.13210  0.99210  Biso   1.000  H
  H48      1.0000 0.65590  0.99210  0.13210  Biso   1.000  H
  C1       1.0000 0.55955  0.32625  0.13441  Biso   1.000  C
  C2       1.0000 0.57598  0.26642  0.17770  Biso   1.000  C
  C3       1.0000 0.62539  0.21881  0.16839  Biso   1.000  C
  C4       1.0000 0.32625  0.55955  0.97979  Biso   1.000  C
  C5       1.0000 0.26642  0.57598  0.97990  Biso   1.000  C
  C6       1.0000 0.21881  0.62539  0.98741  Biso   1.000  C
  C7       1.0000 0.13441  0.97979  0.55955  Biso   1.000  C
  C8       1.0000 0.17770  0.97990  0.57598  Biso   1.000  C
  C9       1.0000 0.16839  0.98741  0.62539  Biso   1.000  C
  C10      1.0000 0.97979  0.13441  0.32625  Biso   1.000  C
  C11      1.0000 0.97990  0.17770  0.26642  Biso   1.000  C
  C12      1.0000 0.98741  0.16839  0.21881  Biso   1.000  C
  C13      1.0000 0.55955  0.13441  0.97979  Biso   1.000  C
  C14      1.0000 0.57598  0.17770  0.97990  Biso   1.000  C
  C15      1.0000 0.62539  0.16839  0.98741  Biso   1.000  C
  C16      1.0000 0.32625  0.97979  0.13441  Biso   1.000  C
  C17      1.0000 0.26642  0.97990  0.17770  Biso   1.000  C
  C18      1.0000 0.21881  0.98741  0.16839  Biso   1.000  C
  C19      1.0000 0.13441  0.55955  0.32625  Biso   1.000  C
  C20      1.0000 0.17770  0.57598  0.26642  Biso   1.000  C
  C21      1.0000 0.16839  0.62539  0.21881  Biso   1.000  C
  C22      1.0000 0.97979  0.32625  0.55955  Biso   1.000  C
  C23      1.0000 0.97990  0.26642  0.57598  Biso   1.000  C
  C24      1.0000 0.98741  0.21881  0.62539  Biso   1.000  C
  C25      1.0000 0.55955  0.97979  0.32625  Biso   1.000  C
  C26      1.0000 0.57598  0.97990  0.26642  Biso   1.000  C
  C27      1.0000 0.62539  0.98741  0.21881  Biso   1.000  C
  C28      1.0000 0.32625  0.13441  0.55955  Biso   1.000  C
  C29      1.0000 0.26642  0.17770  0.57598  Biso   1.000  C
  C30      1.0000 0.21881  0.16839  0.62539  Biso   1.000  C
  C31      1.0000 0.13441  0.32625  0.97979  Biso   1.000  C
  C32      1.0000 0.17770  0.26642  0.97990  Biso   1.000  C
  C33      1.0000 0.16839  0.21881  0.98741  Biso   1.000  C
  C34      1.0000 0.97979  0.55955  0.13441  Biso   1.000  C
  C35      1.0000 0.97990  0.57598  0.17770  Biso   1.000  C
  C36      1.0000 0.98741  0.62539  0.16839  Biso   1.000  C
  C37      1.0000 0.67375  0.44045  0.86559  Biso   1.000  C
  C38      1.0000 0.73358  0.42402  0.82230  Biso   1.000  C
  C39      1.0000 0.78119  0.37461  0.83161  Biso   1.000  C
  C40      1.0000 0.44045  0.67375  0.02021  Biso   1.000  C
  C41      1.0000 0.42402  0.73358  0.02010  Biso   1.000  C
  C42      1.0000 0.37461  0.78119  0.01259  Biso   1.000  C
  C43      1.0000 0.02021  0.86559  0.44045  Biso   1.000  C
  C44      1.0000 0.02010  0.82230  0.42402  Biso   1.000  C
  C45      1.0000 0.01259  0.83161  0.37461  Biso   1.000  C
  C46      1.0000 0.86559  0.02021  0.67375  Biso   1.000  C
  C47      1.0000 0.82230  0.02010  0.73358  Biso   1.000  C
  C48      1.0000 0.83161  0.01259  0.78119  Biso   1.000  C
  C49      1.0000 0.86559  0.44045  0.02021  Biso   1.000  C
  C50      1.0000 0.82230  0.42402  0.02010  Biso   1.000  C
  C51      1.0000 0.83161  0.37461  0.01259  Biso   1.000  C
  C52      1.0000 0.02021  0.67375  0.86559  Biso   1.000  C
  C53      1.0000 0.02010  0.73358  0.82230  Biso   1.000  C
  C54      1.0000 0.01259  0.78119  0.83161  Biso   1.000  C
  C55      1.0000 0.44045  0.86559  0.67375  Biso   1.000  C
  C56      1.0000 0.42402  0.82230  0.73358  Biso   1.000  C
  C57      1.0000 0.37461  0.83161  0.78119  Biso   1.000  C
  C58      1.0000 0.67375  0.02021  0.44045  Biso   1.000  C
  C59      1.0000 0.73358  0.02010  0.42402  Biso   1.000  C
  C60      1.0000 0.78119  0.01259  0.37461  Biso   1.000  C
  C61      1.0000 0.02021  0.44045  0.67375  Biso   1.000  C
  C62      1.0000 0.02010  0.42402  0.73358  Biso   1.000  C
  C63      1.0000 0.01259  0.37461  0.78119  Biso   1.000  C
  C64      1.0000 0.86559  0.67375  0.44045  Biso   1.000  C
  C65      1.0000 0.82230  0.73358  0.42402  Biso   1.000  C
  C66      1.0000 0.83161  0.78119  0.37461  Biso   1.000  C
  C67      1.0000 0.67375  0.86559  0.02021  Biso   1.000  C
  C68      1.0000 0.73358  0.82230  0.02010  Biso   1.000  C
  C69      1.0000 0.78119  0.83161  0.01259  Biso   1.000  C
  C70      1.0000 0.44045  0.02021  0.86559  Biso   1.000  C
  C71      1.0000 0.42402  0.02010  0.82230  Biso   1.000  C
  C72      1.0000 0.37461  0.01259  0.83161  Biso   1.000  C
  C73      1.0000 0.44045  0.67375  0.86559  Biso   1.000  C
  C74      1.0000 0.42402  0.73358  0.82230  Biso   1.000  C
  C75      1.0000 0.37461  0.78119  0.83161  Biso   1.000  C
  C76      1.0000 0.67375  0.44045  0.02021  Biso   1.000  C
  C77      1.0000 0.73358  0.42402  0.02010  Biso   1.000  C
  C78      1.0000 0.78119  0.37461  0.01259  Biso   1.000  C
  C79      1.0000 0.86559  0.02021  0.44045  Biso   1.000  C
  C80      1.0000 0.82230  0.02010  0.42402  Biso   1.000  C
  C81      1.0000 0.83161  0.01259  0.37461  Biso   1.000  C
  C82      1.0000 0.02021  0.86559  0.67375  Biso   1.000  C
  C83      1.0000 0.02010  0.82230  0.73358  Biso   1.000  C
  C84      1.0000 0.01259  0.83161  0.78119  Biso   1.000  C
  C85      1.0000 0.44045  0.86559  0.02021  Biso   1.000  C
  C86      1.0000 0.42402  0.82230  0.02010  Biso   1.000  C
  C87      1.0000 0.37461  0.83161  0.01259  Biso   1.000  C
  C88      1.0000 0.67375  0.02021  0.86559  Biso   1.000  C
  C89      1.0000 0.73358  0.02010  0.82230  Biso   1.000  C
  C90      1.0000 0.78119  0.01259  0.83161  Biso   1.000  C
  C91      1.0000 0.86559  0.44045  0.67375  Biso   1.000  C
  C92      1.0000 0.82230  0.42402  0.73358  Biso   1.000  C
  C93      1.0000 0.83161  0.37461  0.78119  Biso   1.000  C
  C94      1.0000 0.02021  0.67375  0.44045  Biso   1.000  C
  C95      1.0000 0.02010  0.73358  0.42402  Biso   1.000  C
  C96      1.0000 0.01259  0.78119  0.37461  Biso   1.000  C
  C97      1.0000 0.44045  0.02021  0.67375  Biso   1.000  C
  C98      1.0000 0.42402  0.02010  0.73358  Biso   1.000  C
  C99      1.0000 0.37461  0.01259  0.78119  Biso   1.000  C
  C100     1.0000 0.67375  0.86559  0.44045  Biso   1.000  C
  C101     1.0000 0.73358  0.82230  0.42402  Biso   1.000  C
  C102     1.0000 0.78119  0.83161  0.37461  Biso   1.000  C
  C103     1.0000 0.86559  0.67375  0.02021  Biso   1.000  C
  C104     1.0000 0.82230  0.73358  0.02010  Biso   1.000  C
  C105     1.0000 0.83161  0.78119  0.01259  Biso   1.000  C
  C106     1.0000 0.02021  0.44045  0.86559  Biso   1.000  C
  C107     1.0000 0.02010  0.42402  0.82230  Biso   1.000  C
  C108     1.0000 0.01259  0.37461  0.83161  Biso   1.000  C
  C109     1.0000 0.32625  0.55955  0.13441  Biso   1.000  C
  C110     1.0000 0.26642  0.57598  0.17770  Biso   1.000  C
  C111     1.0000 0.21881  0.62539  0.16839  Biso   1.000  C
  C112     1.0000 0.55955  0.32625  0.97979  Biso   1.000  C
  C113     1.0000 0.57598  0.26642  0.97990  Biso   1.000  C
  C114     1.0000 0.62539  0.21881  0.98741  Biso   1.000  C
  C115     1.0000 0.97979  0.13441  0.55955  Biso   1.000  C
  C116     1.0000 0.97990  0.17770  0.57598  Biso   1.000  C
  C117     1.0000 0.98741  0.16839  0.62539  Biso   1.000  C
  C118     1.0000 0.13441  0.97979  0.32625  Biso   1.000  C
  C119     1.0000 0.17770  0.97990  0.26642  Biso   1.000  C
  C120     1.0000 0.16839  0.98741  0.21881  Biso   1.000  C
  C121     1.0000 0.13441  0.55955  0.97979  Biso   1.000  C
  C122     1.0000 0.17770  0.57598  0.97990  Biso   1.000  C
  C123     1.0000 0.16839  0.62539  0.98741  Biso   1.000  C
  C124     1.0000 0.97979  0.32625  0.13441  Biso   1.000  C
  C125     1.0000 0.97990  0.26642  0.17770  Biso   1.000  C
  C126     1.0000 0.98741  0.21881  0.16839  Biso   1.000  C
  C127     1.0000 0.55955  0.13441  0.32625  Biso   1.000  C
  C128     1.0000 0.57598  0.17770  0.26642  Biso   1.000  C
  C129     1.0000 0.62539  0.16839  0.21881  Biso   1.000  C
  C130     1.0000 0.32625  0.97979  0.55955  Biso   1.000  C
  C131     1.0000 0.26642  0.97990  0.57598  Biso   1.000  C
  C132     1.0000 0.21881  0.98741  0.62539  Biso   1.000  C
  C133     1.0000 0.97979  0.55955  0.32625  Biso   1.000  C
  C134     1.0000 0.97990  0.57598  0.26642  Biso   1.000  C
  C135     1.0000 0.98741  0.62539  0.21881  Biso   1.000  C
  C136     1.0000 0.13441  0.32625  0.55955  Biso   1.000  C
  C137     1.0000 0.17770  0.26642  0.57598  Biso   1.000  C
  C138     1.0000 0.16839  0.21881  0.62539  Biso   1.000  C
  C139     1.0000 0.32625  0.13441  0.97979  Biso   1.000  C
  C140     1.0000 0.26642  0.17770  0.97990  Biso   1.000  C
  C141     1.0000 0.21881  0.16839  0.98741  Biso   1.000  C
  C142     1.0000 0.55955  0.97979  0.13441  Biso   1.000  C
  C143     1.0000 0.57598  0.97990  0.17770  Biso   1.000  C
  C144     1.0000 0.62539  0.98741  0.16839  Biso   1.000  C
  S1       1.0000 0.52858  0.24878  0.24878  Biso   1.000  S
  S2       1.0000 0.24878  0.52858  0.97386  Biso   1.000  S
  S3       1.0000 0.24878  0.97386  0.52858  Biso   1.000  S
  S4       1.0000 0.97386  0.24878  0.24878  Biso   1.000  S
  S5       1.0000 0.52858  0.24878  0.97386  Biso   1.000  S
  S6       1.0000 0.24878  0.97386  0.24878  Biso   1.000  S
  S7       1.0000 0.24878  0.52858  0.24878  Biso   1.000  S
  S8       1.0000 0.97386  0.24878  0.52858  Biso   1.000  S
  S9       1.0000 0.52858  0.97386  0.24878  Biso   1.000  S
  S10      1.0000 0.24878  0.24878  0.52858  Biso   1.000  S
  S11      1.0000 0.24878  0.24878  0.97386  Biso   1.000  S
  S12      1.0000 0.97386  0.52858  0.24878  Biso   1.000  S
  S13      1.0000 0.75122  0.47142  0.75122  Biso   1.000  S
  S14      1.0000 0.47142  0.75122  0.02614  Biso   1.000  S
  S15      1.0000 0.02614  0.75122  0.47142  Biso   1.000  S
  S16      1.0000 0.75122  0.02614  0.75122  Biso   1.000  S
  S17      1.0000 0.75122  0.47142  0.02614  Biso   1.000  S
  S18      1.0000 0.02614  0.75122  0.75122  Biso   1.000  S
  S19      1.0000 0.47142  0.75122  0.75122  Biso   1.000  S
  S20      1.0000 0.75122  0.02614  0.47142  Biso   1.000  S
  S21      1.0000 0.02614  0.47142  0.75122  Biso   1.000  S
  S22      1.0000 0.75122  0.75122  0.47142  Biso   1.000  S
  S23      1.0000 0.75122  0.75122  0.02614  Biso   1.000  S
  S24      1.0000 0.47142  0.02614  0.75122  Biso   1.000  S
  O1       1.0000 0.59627  0.33529  0.08271  Biso   1.000  O
  O2       1.0000 0.50970  0.36218  0.15278  Biso   1.000  O
  O3       1.0000 0.33529  0.59627  0.98573  Biso   1.000  O
  O4       1.0000 0.36218  0.50970  0.97534  Biso   1.000  O
  O5       1.0000 0.08271  0.98573  0.59627  Biso   1.000  O
  O6       1.0000 0.15278  0.97534  0.50970  Biso   1.000  O
  O7       1.0000 0.98573  0.08271  0.33529  Biso   1.000  O
  O8       1.0000 0.97534  0.15278  0.36218  Biso   1.000  O
  O9       1.0000 0.59627  0.08271  0.98573  Biso   1.000  O
  O10      1.0000 0.50970  0.15278  0.97534  Biso   1.000  O
  O11      1.0000 0.33529  0.98573  0.08271  Biso   1.000  O
  O12      1.0000 0.36218  0.97534  0.15278  Biso   1.000  O
  O13      1.0000 0.08271  0.59627  0.33529  Biso   1.000  O
  O14      1.0000 0.15278  0.50970  0.36218  Biso   1.000  O
  O15      1.0000 0.98573  0.33529  0.59627  Biso   1.000  O
  O16      1.0000 0.97534  0.36218  0.50970  Biso   1.000  O
  O17      1.0000 0.59627  0.98573  0.33529  Biso   1.000  O
  O18      1.0000 0.50970  0.97534  0.36218  Biso   1.000  O
  O19      1.0000 0.33529  0.08271  0.59627  Biso   1.000  O
  O20      1.0000 0.36218  0.15278  0.50970  Biso   1.000  O
  O21      1.0000 0.08271  0.33529  0.98573  Biso   1.000  O
  O22      1.0000 0.15278  0.36218  0.97534  Biso   1.000  O
  O23      1.0000 0.98573  0.59627  0.08271  Biso   1.000  O
  O24      1.0000 0.97534  0.50970  0.15278  Biso   1.000  O
  O25      1.0000 0.66471  0.40373  0.91729  Biso   1.000  O
  O26      1.0000 0.63782  0.49030  0.84722  Biso   1.000  O
  O27      1.0000 0.40373  0.66471  0.01427  Biso   1.000  O
  O28      1.0000 0.49030  0.63782  0.02466  Biso   1.000  O
  O29      1.0000 0.01427  0.91729  0.40373  Biso   1.000  O
  O30      1.0000 0.02466  0.84722  0.49030  Biso   1.000  O
  O31      1.0000 0.91729  0.01427  0.66471  Biso   1.000  O
  O32      1.0000 0.84722  0.02466  0.63782  Biso   1.000  O
  O33      1.0000 0.91729  0.40373  0.01427  Biso   1.000  O
  O34      1.0000 0.84722  0.49030  0.02466  Biso   1.000  O
  O35      1.0000 0.01427  0.66471  0.91729  Biso   1.000  O
  O36      1.0000 0.02466  0.63782  0.84722  Biso   1.000  O
  O37      1.0000 0.40373  0.91729  0.66471  Biso   1.000  O
  O38      1.0000 0.49030  0.84722  0.63782  Biso   1.000  O
  O39      1.0000 0.66471  0.01427  0.40373  Biso   1.000  O
  O40      1.0000 0.63782  0.02466  0.49030  Biso   1.000  O
  O41      1.0000 0.01427  0.40373  0.66471  Biso   1.000  O
  O42      1.0000 0.02466  0.49030  0.63782  Biso   1.000  O
  O43      1.0000 0.91729  0.66471  0.40373  Biso   1.000  O
  O44      1.0000 0.84722  0.63782  0.49030  Biso   1.000  O
  O45      1.0000 0.66471  0.91729  0.01427  Biso   1.000  O
  O46      1.0000 0.63782  0.84722  0.02466  Biso   1.000  O
  O47      1.0000 0.40373  0.01427  0.91729  Biso   1.000  O
  O48      1.0000 0.49030  0.02466  0.84722  Biso   1.000  O
  O49      1.0000 0.40373  0.66471  0.91729  Biso   1.000  O
  O50      1.0000 0.49030  0.63782  0.84722  Biso   1.000  O
  O51      1.0000 0.66471  0.40373  0.01427  Biso   1.000  O
  O52      1.0000 0.63782  0.49030  0.02466  Biso   1.000  O
  O53      1.0000 0.91729  0.01427  0.40373  Biso   1.000  O
  O54      1.0000 0.84722  0.02466  0.49030  Biso   1.000  O
  O55      1.0000 0.01427  0.91729  0.66471  Biso   1.000  O
  O56      1.0000 0.02466  0.84722  0.63782  Biso   1.000  O
  O57      1.0000 0.40373  0.91729  0.01427  Biso   1.000  O
  O58      1.0000 0.49030  0.84722  0.02466  Biso   1.000  O
  O59      1.0000 0.66471  0.01427  0.91729  Biso   1.000  O
  O60      1.0000 0.63782  0.02466  0.84722  Biso   1.000  O
  O61      1.0000 0.91729  0.40373  0.66471  Biso   1.000  O
  O62      1.0000 0.84722  0.49030  0.63782  Biso   1.000  O
  O63      1.0000 0.01427  0.66471  0.40373  Biso   1.000  O
  O64      1.0000 0.02466  0.63782  0.49030  Biso   1.000  O
  O65      1.0000 0.40373  0.01427  0.66471  Biso   1.000  O
  O66      1.0000 0.49030  0.02466  0.63782  Biso   1.000  O
  O67      1.0000 0.66471  0.91729  0.40373  Biso   1.000  O
  O68      1.0000 0.63782  0.84722  0.49030  Biso   1.000  O
  O69      1.0000 0.91729  0.66471  0.01427  Biso   1.000  O
  O70      1.0000 0.84722  0.63782  0.02466  Biso   1.000  O
  O71      1.0000 0.01427  0.40373  0.91729  Biso   1.000  O
  O72      1.0000 0.02466  0.49030  0.84722  Biso   1.000  O
  O73      1.0000 0.33529  0.59627  0.08271  Biso   1.000  O
  O74      1.0000 0.36218  0.50970  0.15278  Biso   1.000  O
  O75      1.0000 0.59627  0.33529  0.98573  Biso   1.000  O
  O76      1.0000 0.50970  0.36218  0.97534  Biso   1.000  O
  O77      1.0000 0.98573  0.08271  0.59627  Biso   1.000  O
  O78      1.0000 0.97534  0.15278  0.50970  Biso   1.000  O
  O79      1.0000 0.08271  0.98573  0.33529  Biso   1.000  O
  O80      1.0000 0.15278  0.97534  0.36218  Biso   1.000  O
  O81      1.0000 0.08271  0.59627  0.98573  Biso   1.000  O
  O82      1.0000 0.15278  0.50970  0.97534  Biso   1.000  O
  O83      1.0000 0.98573  0.33529  0.08271  Biso   1.000  O
  O84      1.0000 0.97534  0.36218  0.15278  Biso   1.000  O
  O85      1.0000 0.59627  0.08271  0.33529  Biso   1.000  O
  O86      1.0000 0.50970  0.15278  0.36218  Biso   1.000  O
  O87      1.0000 0.33529  0.98573  0.59627  Biso   1.000  O
  O88      1.0000 0.36218  0.97534  0.50970  Biso   1.000  O
  O89      1.0000 0.98573  0.59627  0.33529  Biso   1.000  O
  O90      1.0000 0.97534  0.50970  0.36218  Biso   1.000  O
  O91      1.0000 0.08271  0.33529  0.59627  Biso   1.000  O
  O92      1.0000 0.15278  0.36218  0.50970  Biso   1.000  O
  O93      1.0000 0.33529  0.08271  0.98573  Biso   1.000  O
  O94      1.0000 0.36218  0.15278  0.97534  Biso   1.000  O
  O95      1.0000 0.59627  0.98573  0.08271  Biso   1.000  O
  O96      1.0000 0.50970  0.97534  0.15278  Biso   1.000  O
  O97      1.0000 0.39930  0.39930  0.04570  Biso   1.000  O
  O98      1.0000 0.45660  0.45660  0.90146  Biso   1.000  O
  O99      1.0000 0.39930  0.39930  0.15570  Biso   1.000  O
  O100     1.0000 0.45660  0.45660  0.18534  Biso   1.000  O
  O101     1.0000 0.04570  0.15570  0.39930  Biso   1.000  O
  O102     1.0000 0.90146  0.18534  0.45660  Biso   1.000  O
  O103     1.0000 0.15570  0.04570  0.39930  Biso   1.000  O
  O104     1.0000 0.18534  0.90146  0.45660  Biso   1.000  O
  O105     1.0000 0.39930  0.04570  0.15570  Biso   1.000  O
  O106     1.0000 0.45660  0.90146  0.18534  Biso   1.000  O
  O107     1.0000 0.39930  0.15570  0.04570  Biso   1.000  O
  O108     1.0000 0.45660  0.18534  0.90146  Biso   1.000  O
  O109     1.0000 0.04570  0.39930  0.39930  Biso   1.000  O
  O110     1.0000 0.90146  0.45660  0.45660  Biso   1.000  O
  O111     1.0000 0.15570  0.39930  0.39930  Biso   1.000  O
  O112     1.0000 0.18534  0.45660  0.45660  Biso   1.000  O
  O113     1.0000 0.39930  0.15570  0.39930  Biso   1.000  O
  O114     1.0000 0.45660  0.18534  0.45660  Biso   1.000  O
  O115     1.0000 0.39930  0.04570  0.39930  Biso   1.000  O
  O116     1.0000 0.45660  0.90146  0.45660  Biso   1.000  O
  O117     1.0000 0.04570  0.39930  0.15570  Biso   1.000  O
  O118     1.0000 0.90146  0.45660  0.18534  Biso   1.000  O
  O119     1.0000 0.15570  0.39930  0.04570  Biso   1.000  O
  O120     1.0000 0.18534  0.45660  0.90146  Biso   1.000  O
  O121     1.0000 0.60070  0.60070  0.95430  Biso   1.000  O
  O122     1.0000 0.54340  0.54340  0.09854  Biso   1.000  O
  O123     1.0000 0.60070  0.60070  0.84430  Biso   1.000  O
  O124     1.0000 0.54340  0.54340  0.81466  Biso   1.000  O
  O125     1.0000 0.84430  0.95430  0.60070  Biso   1.000  O
  O126     1.0000 0.81466  0.09854  0.54340  Biso   1.000  O
  O127     1.0000 0.95430  0.84430  0.60070  Biso   1.000  O
  O128     1.0000 0.09854  0.81466  0.54340  Biso   1.000  O
  O129     1.0000 0.95430  0.60070  0.84430  Biso   1.000  O
  O130     1.0000 0.09854  0.54340  0.81466  Biso   1.000  O
  O131     1.0000 0.84430  0.60070  0.95430  Biso   1.000  O
  O132     1.0000 0.81466  0.54340  0.09854  Biso   1.000  O
  O133     1.0000 0.60070  0.95430  0.60070  Biso   1.000  O
  O134     1.0000 0.54340  0.09854  0.54340  Biso   1.000  O
  O135     1.0000 0.60070  0.84430  0.60070  Biso   1.000  O
  O136     1.0000 0.54340  0.81466  0.54340  Biso   1.000  O
  O137     1.0000 0.84430  0.60070  0.60070  Biso   1.000  O
  O138     1.0000 0.81466  0.54340  0.54340  Biso   1.000  O
  O139     1.0000 0.95430  0.60070  0.60070  Biso   1.000  O
  O140     1.0000 0.09854  0.54340  0.54340  Biso   1.000  O
  O141     1.0000 0.60070  0.95430  0.84430  Biso   1.000  O
  O142     1.0000 0.54340  0.09854  0.81466  Biso   1.000  O
  O143     1.0000 0.60070  0.84430  0.95430  Biso   1.000  O
  O144     1.0000 0.54340  0.81466  0.09854  Biso   1.000  O
  O145     1.0000 0.49854  0.41186  0.04480  Biso   1.000  O
  O146     1.0000 0.41186  0.49854  0.04480  Biso   1.000  O
  O147     1.0000 0.04480  0.04480  0.49854  Biso   1.000  O
  O148     1.0000 0.04480  0.04480  0.41186  Biso   1.000  O
  O149     1.0000 0.49854  0.04480  0.04480  Biso   1.000  O
  O150     1.0000 0.41186  0.04480  0.04480  Biso   1.000  O
  O151     1.0000 0.04480  0.49854  0.41186  Biso   1.000  O
  O152     1.0000 0.04480  0.41186  0.49854  Biso   1.000  O
  O153     1.0000 0.49854  0.04480  0.41186  Biso   1.000  O
  O154     1.0000 0.41186  0.04480  0.49854  Biso   1.000  O
  O155     1.0000 0.04480  0.41186  0.04480  Biso   1.000  O
  O156     1.0000 0.04480  0.49854  0.04480  Biso   1.000  O
  O157     1.0000 0.58814  0.50146  0.95520  Biso   1.000  O
  O158     1.0000 0.50146  0.58814  0.95520  Biso   1.000  O
  O159     1.0000 0.95520  0.95520  0.50146  Biso   1.000  O
  O160     1.0000 0.95520  0.95520  0.58814  Biso   1.000  O
  O161     1.0000 0.95520  0.50146  0.95520  Biso   1.000  O
  O162     1.0000 0.95520  0.58814  0.95520  Biso   1.000  O
  O163     1.0000 0.50146  0.95520  0.58814  Biso   1.000  O
  O164     1.0000 0.58814  0.95520  0.50146  Biso   1.000  O
  O165     1.0000 0.95520  0.50146  0.58814  Biso   1.000  O
  O166     1.0000 0.95520  0.58814  0.50146  Biso   1.000  O
  O167     1.0000 0.58814  0.95520  0.95520  Biso   1.000  O
  O168     1.0000 0.50146  0.95520  0.95520  Biso   1.000  O
  O169     1.0000 0.45654  0.54346  0.93626  Biso   1.000  O
  O170     1.0000 0.54346  0.45654  0.06374  Biso   1.000  O
  O171     1.0000 0.93626  0.06374  0.45654  Biso   1.000  O
  O172     1.0000 0.06374  0.93626  0.54346  Biso   1.000  O
  O173     1.0000 0.45654  0.93626  0.06374  Biso   1.000  O
  O174     1.0000 0.54346  0.06374  0.93626  Biso   1.000  O
  O175     1.0000 0.93626  0.45654  0.54346  Biso   1.000  O
  O176     1.0000 0.06374  0.54346  0.45654  Biso   1.000  O
  O177     1.0000 0.45654  0.06374  0.54346  Biso   1.000  O
  O178     1.0000 0.54346  0.93626  0.45654  Biso   1.000  O
  O179     1.0000 0.93626  0.54346  0.06374  Biso   1.000  O
  O180     1.0000 0.06374  0.45654  0.93626  Biso   1.000  O
  O181     1.0000 0.45654  0.54346  0.06374  Biso   1.000  O
  O182     1.0000 0.54346  0.45654  0.93626  Biso   1.000  O
  O183     1.0000 0.93626  0.06374  0.54346  Biso   1.000  O
  O184     1.0000 0.06374  0.93626  0.45654  Biso   1.000  O
  O185     1.0000 0.06374  0.54346  0.93626  Biso   1.000  O
  O186     1.0000 0.93626  0.45654  0.06374  Biso   1.000  O
  O187     1.0000 0.54346  0.06374  0.45654  Biso   1.000  O
  O188     1.0000 0.45654  0.93626  0.54346  Biso   1.000  O
  O189     1.0000 0.93626  0.54346  0.45654  Biso   1.000  O
  O190     1.0000 0.06374  0.45654  0.54346  Biso   1.000  O
  O191     1.0000 0.45654  0.06374  0.93626  Biso   1.000  O
  O192     1.0000 0.54346  0.93626  0.06374  Biso   1.000  O
