data_image0
_cell_length_a       17.9946
_cell_length_b       20.49
_cell_length_c       27.772
_cell_angle_alpha    82.113
_cell_angle_beta     72.543
_cell_angle_gamma    84.884

_symmetry_space_group_name_H-M    P 1
_symmetry_int_tables_number       1

loop_
  _symmetry_equiv_pos_as_xyz
  'x, y, z'

loop_
  _atom_site_label
  _atom_site_occupancy
  _atom_site_fract_x
  _atom_site_fract_y
  _atom_site_fract_z
  _atom_site_thermal_displace_type
  _atom_site_B_iso_or_equiv
  _atom_site_type_symbol
  Zn1      1.0000 0.07493  0.73242  0.76985  Biso   1.000  Zn
  Zn2      1.0000 0.67210  0.07089  0.53161  Biso   1.000  Zn
  Zn3      1.0000 0.61028  0.25856  0.27414  Biso   1.000  Zn
  Zn4      1.0000 0.05452  0.21076  0.77753  Biso   1.000  Zn
  Zn5      1.0000 0.37466  0.22275  0.93025  Biso   1.000  Zn
  Zn6      1.0000 0.20231  0.59918  0.02450  Biso   1.000  Zn
  Zn7      1.0000 0.91243  0.72083  0.42890  Biso   1.000  Zn
  Zn8      1.0000 0.58228  0.73804  0.27960  Biso   1.000  Zn
  Zn9      1.0000 0.92507  0.26758  0.23015  Biso   1.000  Zn
  Zn10     1.0000 0.32790  0.92911  0.46839  Biso   1.000  Zn
  Zn11     1.0000 0.38972  0.74144  0.72586  Biso   1.000  Zn
  Zn12     1.0000 0.94548  0.78924  0.22247  Biso   1.000  Zn
  Zn13     1.0000 0.62534  0.77725  0.06975  Biso   1.000  Zn
  Zn14     1.0000 0.79769  0.40082  0.97550  Biso   1.000  Zn
  Zn15     1.0000 0.08757  0.27917  0.57110  Biso   1.000  Zn
  Zn16     1.0000 0.41772  0.26196  0.72040  Biso   1.000  Zn
  H1       1.0000 0.89550  0.41580  0.11990  Biso   1.000  H
  H2       1.0000 0.69690  0.50980  0.19030  Biso   1.000  H
  H3       1.0000 0.88860  0.61190  0.12340  Biso   1.000  H
  H4       1.0000 0.78660  0.34460  0.10640  Biso   1.000  H
  H5       1.0000 0.71310  0.25560  0.16050  Biso   1.000  H
  H6       1.0000 0.69590  0.39520  0.24420  Biso   1.000  H
  H7       1.0000 0.99220  0.45090  0.03040  Biso   1.000  H
  H8       1.0000 0.12920  0.49120  0.98880  Biso   1.000  H
  H9       1.0000 0.02170  0.60020  0.09570  Biso   1.000  H
  H10      1.0000 0.70530  0.77790  0.17520  Biso   1.000  H
  H11      1.0000 0.79900  0.70730  0.12340  Biso   1.000  H
  H12      1.0000 0.65650  0.59860  0.23720  Biso   1.000  H
  H13      1.0000 0.14220  0.62030  0.22230  Biso   1.000  H
  H14      1.0000 0.21410  0.67440  0.33370  Biso   1.000  H
  H15      1.0000 0.36430  0.67320  0.19200  Biso   1.000  H
  H16      1.0000 0.08170  0.72120  0.35580  Biso   1.000  H
  H17      1.0000 0.92820  0.59200  0.36910  Biso   1.000  H
  H18      1.0000 0.04580  0.56360  0.29610  Biso   1.000  H
  H19      1.0000 0.16610  0.63420  0.13630  Biso   1.000  H
  H20      1.0000 0.37040  0.60300  0.03990  Biso   1.000  H
  H21      1.0000 0.39380  0.62130  0.11950  Biso   1.000  H
  H22      1.0000 0.45990  0.69080  0.22770  Biso   1.000  H
  H23      1.0000 0.29570  0.73130  0.35440  Biso   1.000  H
  H24      1.0000 0.42140  0.75780  0.36100  Biso   1.000  H
  H25      1.0000 0.76130  0.78670  0.86610  Biso   1.000  H
  H26      1.0000 0.55260  0.74020  0.85940  Biso   1.000  H
  H27      1.0000 0.74060  0.73290  0.73710  Biso   1.000  H
  H28      1.0000 0.89650  0.72820  0.82360  Biso   1.000  H
  H29      1.0000 0.85190  0.78200  0.69050  Biso   1.000  H
  H30      1.0000 0.99350  0.78670  0.67880  Biso   1.000  H
  H31      1.0000 0.49460  0.77350  0.78650  Biso   1.000  H
  H32      1.0000 0.65630  0.64100  0.72730  Biso   1.000  H
  H33      1.0000 0.54490  0.63590  0.69460  Biso   1.000  H
  H34      1.0000 0.69720  0.74940  0.95600  Biso   1.000  H
  H35      1.0000 0.51700  0.84340  0.91140  Biso   1.000  H
  H36      1.0000 0.49120  0.82840  0.00810  Biso   1.000  H
  H37      1.0000 0.16620  0.98320  0.68700  Biso   1.000  H
  H38      1.0000 0.35960  0.08470  0.61700  Biso   1.000  H
  H39      1.0000 0.36480  0.88890  0.61670  Biso   1.000  H
  H40      1.0000 0.16010  0.86770  0.74080  Biso   1.000  H
  H41      1.0000 0.26270  0.81630  0.60370  Biso   1.000  H
  H42      1.0000 0.18080  0.72870  0.65580  Biso   1.000  H
  H43      1.0000 0.13310  0.07230  0.73680  Biso   1.000  H
  H44      1.0000 0.17000  0.25000  0.66890  Biso   1.000  H
  H45      1.0000 0.26480  0.17790  0.61810  Biso   1.000  H
  H46      1.0000 0.49510  0.06530  0.60380  Biso   1.000  H
  H47      1.0000 0.47520  0.90460  0.54610  Biso   1.000  H
  H48      1.0000 0.61000  0.93590  0.51310  Biso   1.000  H
  H49      1.0000 0.67950  0.15950  0.84070  Biso   1.000  H
  H50      1.0000 0.82950  0.14530  0.70190  Biso   1.000  H
  H51      1.0000 0.60440  0.10300  0.73170  Biso   1.000  H
  H52      1.0000 0.49900  0.05380  0.80830  Biso   1.000  H
  H53      1.0000 0.38260  0.09400  0.87190  Biso   1.000  H
  H54      1.0000 0.55110  0.20630  0.86550  Biso   1.000  H
  H55      1.0000 0.62970  0.10090  0.64750  Biso   1.000  H
  H56      1.0000 0.85510  0.10510  0.62940  Biso   1.000  H
  H57      1.0000 0.83160  0.06770  0.55360  Biso   1.000  H
  H58      1.0000 0.92400  0.16570  0.73150  Biso   1.000  H
  H59      1.0000 0.89770  0.23030  0.86270  Biso   1.000  H
  H60      1.0000 0.76980  0.20060  0.86440  Biso   1.000  H
  H61      1.0000 0.72360  0.89670  0.21200  Biso   1.000  H
  H62      1.0000 0.79070  0.99180  0.17990  Biso   1.000  H
  H63      1.0000 0.73820  0.09110  0.20510  Biso   1.000  H
  H64      1.0000 0.54350  0.00550  0.29340  Biso   1.000  H
  H65      1.0000 0.58220  0.52250  0.40630  Biso   1.000  H
  H66      1.0000 0.64620  0.46630  0.46030  Biso   1.000  H
  H67      1.0000 0.73810  0.51470  0.48240  Biso   1.000  H
  H68      1.0000 0.70390  0.68190  0.39630  Biso   1.000  H
  H69      1.0000 0.42330  0.60450  0.85900  Biso   1.000  H
  H70      1.0000 0.49960  0.54980  0.79570  Biso   1.000  H
  H71      1.0000 0.50660  0.43440  0.80610  Biso   1.000  H
  H72      1.0000 0.33950  0.43760  0.94090  Biso   1.000  H
  H73      1.0000 0.03980  0.82810  0.03810  Biso   1.000  H
  H74      1.0000 0.97720  0.90520  0.99110  Biso   1.000  H
  H75      1.0000 0.98550  0.89400  0.90840  Biso   1.000  H
  H76      1.0000 0.11250  0.72340  0.91860  Biso   1.000  H
  H77      1.0000 0.91390  0.10300  0.38780  Biso   1.000  H
  H78      1.0000 0.01460  0.06360  0.32370  Biso   1.000  H
  H79      1.0000 0.03510  0.94960  0.32440  Biso   1.000  H
  H80      1.0000 0.84890  0.91660  0.44490  Biso   1.000  H
  H81      1.0000 0.52650  0.30520  0.55680  Biso   1.000  H
  H82      1.0000 0.49780  0.40340  0.51100  Biso   1.000  H
  H83      1.0000 0.52800  0.41040  0.42250  Biso   1.000  H
  H84      1.0000 0.60770  0.22360  0.42850  Biso   1.000  H
  H85      1.0000 0.18950  0.37130  0.71260  Biso   1.000  H
  H86      1.0000 0.25630  0.46730  0.68030  Biso   1.000  H
  H87      1.0000 0.20260  0.56630  0.70510  Biso   1.000  H
  H88      1.0000 0.00960  0.47950  0.79170  Biso   1.000  H
  H89      1.0000 0.17820  0.16580  0.89200  Biso   1.000  H
  H90      1.0000 0.06080  0.00280  0.91330  Biso   1.000  H
  H91      1.0000 0.11370  0.95710  0.97510  Biso   1.000  H
  H92      1.0000 0.20450  0.01460  0.99320  Biso   1.000  H
  H93      1.0000 0.10450  0.58420  0.88010  Biso   1.000  H
  H94      1.0000 0.30310  0.49020  0.80970  Biso   1.000  H
  H95      1.0000 0.11140  0.38810  0.87660  Biso   1.000  H
  H96      1.0000 0.21340  0.65540  0.89360  Biso   1.000  H
  H97      1.0000 0.28690  0.74440  0.83950  Biso   1.000  H
  H98      1.0000 0.30410  0.60480  0.75580  Biso   1.000  H
  H99      1.0000 0.00780  0.54910  0.96960  Biso   1.000  H
  H100     1.0000 0.87080  0.50880  0.01120  Biso   1.000  H
  H101     1.0000 0.97830  0.39980  0.90430  Biso   1.000  H
  H102     1.0000 0.29470  0.22210  0.82480  Biso   1.000  H
  H103     1.0000 0.20100  0.29270  0.87660  Biso   1.000  H
  H104     1.0000 0.34350  0.40140  0.76280  Biso   1.000  H
  H105     1.0000 0.85780  0.37970  0.77770  Biso   1.000  H
  H106     1.0000 0.78590  0.32560  0.66630  Biso   1.000  H
  H107     1.0000 0.63570  0.32680  0.80800  Biso   1.000  H
  H108     1.0000 0.91830  0.27880  0.64420  Biso   1.000  H
  H109     1.0000 0.07180  0.40800  0.63090  Biso   1.000  H
  H110     1.0000 0.95420  0.43640  0.70390  Biso   1.000  H
  H111     1.0000 0.83390  0.36580  0.86370  Biso   1.000  H
  H112     1.0000 0.62960  0.39700  0.96010  Biso   1.000  H
  H113     1.0000 0.60620  0.37870  0.88050  Biso   1.000  H
  H114     1.0000 0.54010  0.30920  0.77230  Biso   1.000  H
  H115     1.0000 0.70430  0.26870  0.64560  Biso   1.000  H
  H116     1.0000 0.57860  0.24220  0.63900  Biso   1.000  H
  H117     1.0000 0.23870  0.21330  0.13390  Biso   1.000  H
  H118     1.0000 0.44740  0.25980  0.14060  Biso   1.000  H
  H119     1.0000 0.25940  0.26710  0.26290  Biso   1.000  H
  H120     1.0000 0.10350  0.27180  0.17640  Biso   1.000  H
  H121     1.0000 0.14810  0.21800  0.30950  Biso   1.000  H
  H122     1.0000 0.00650  0.21330  0.32120  Biso   1.000  H
  H123     1.0000 0.50540  0.22650  0.21350  Biso   1.000  H
  H124     1.0000 0.34370  0.35900  0.27270  Biso   1.000  H
  H125     1.0000 0.45510  0.36410  0.30540  Biso   1.000  H
  H126     1.0000 0.30280  0.25060  0.04400  Biso   1.000  H
  H127     1.0000 0.48300  0.15660  0.08860  Biso   1.000  H
  H128     1.0000 0.50880  0.17160  0.99190  Biso   1.000  H
  H129     1.0000 0.83380  0.01680  0.31300  Biso   1.000  H
  H130     1.0000 0.64040  0.91530  0.38300  Biso   1.000  H
  H131     1.0000 0.63520  0.11110  0.38330  Biso   1.000  H
  H132     1.0000 0.83990  0.13230  0.25920  Biso   1.000  H
  H133     1.0000 0.73730  0.18370  0.39630  Biso   1.000  H
  H134     1.0000 0.81920  0.27130  0.34420  Biso   1.000  H
  H135     1.0000 0.86690  0.92770  0.26320  Biso   1.000  H
  H136     1.0000 0.83000  0.75000  0.33110  Biso   1.000  H
  H137     1.0000 0.73520  0.82210  0.38190  Biso   1.000  H
  H138     1.0000 0.50490  0.93470  0.39620  Biso   1.000  H
  H139     1.0000 0.52480  0.09540  0.45390  Biso   1.000  H
  H140     1.0000 0.39000  0.06410  0.48690  Biso   1.000  H
  H141     1.0000 0.32050  0.84050  0.15930  Biso   1.000  H
  H142     1.0000 0.17050  0.85470  0.29810  Biso   1.000  H
  H143     1.0000 0.39560  0.89700  0.26830  Biso   1.000  H
  H144     1.0000 0.50100  0.94620  0.19170  Biso   1.000  H
  H145     1.0000 0.61740  0.90600  0.12810  Biso   1.000  H
  H146     1.0000 0.44890  0.79370  0.13450  Biso   1.000  H
  H147     1.0000 0.37030  0.89910  0.35250  Biso   1.000  H
  H148     1.0000 0.14490  0.89490  0.37060  Biso   1.000  H
  H149     1.0000 0.16840  0.93230  0.44640  Biso   1.000  H
  H150     1.0000 0.07600  0.83430  0.26850  Biso   1.000  H
  H151     1.0000 0.10230  0.76970  0.13730  Biso   1.000  H
  H152     1.0000 0.23020  0.79940  0.13560  Biso   1.000  H
  H153     1.0000 0.27640  0.10330  0.78800  Biso   1.000  H
  H154     1.0000 0.20930  0.00820  0.82010  Biso   1.000  H
  H155     1.0000 0.26180  0.90890  0.79490  Biso   1.000  H
  H156     1.0000 0.45650  0.99450  0.70660  Biso   1.000  H
  H157     1.0000 0.41780  0.47750  0.59370  Biso   1.000  H
  H158     1.0000 0.35380  0.53370  0.53970  Biso   1.000  H
  H159     1.0000 0.26190  0.48530  0.51760  Biso   1.000  H
  H160     1.0000 0.29610  0.31810  0.60370  Biso   1.000  H
  H161     1.0000 0.57670  0.39550  0.14100  Biso   1.000  H
  H162     1.0000 0.50040  0.45020  0.20430  Biso   1.000  H
  H163     1.0000 0.49340  0.56560  0.19390  Biso   1.000  H
  H164     1.0000 0.66050  0.56240  0.05910  Biso   1.000  H
  H165     1.0000 0.96020  0.17190  0.96190  Biso   1.000  H
  H166     1.0000 0.02280  0.09480  0.00890  Biso   1.000  H
  H167     1.0000 0.01450  0.10600  0.09160  Biso   1.000  H
  H168     1.0000 0.88750  0.27660  0.08140  Biso   1.000  H
  H169     1.0000 0.08610  0.89700  0.61220  Biso   1.000  H
  H170     1.0000 0.98540  0.93640  0.67630  Biso   1.000  H
  H171     1.0000 0.96490  0.05040  0.67560  Biso   1.000  H
  H172     1.0000 0.15110  0.08340  0.55510  Biso   1.000  H
  H173     1.0000 0.47350  0.69480  0.44320  Biso   1.000  H
  H174     1.0000 0.50220  0.59660  0.48900  Biso   1.000  H
  H175     1.0000 0.47200  0.58960  0.57750  Biso   1.000  H
  H176     1.0000 0.39230  0.77640  0.57150  Biso   1.000  H
  H177     1.0000 0.81050  0.62870  0.28740  Biso   1.000  H
  H178     1.0000 0.74370  0.53270  0.31970  Biso   1.000  H
  H179     1.0000 0.79740  0.43370  0.29490  Biso   1.000  H
  H180     1.0000 0.99040  0.52050  0.20830  Biso   1.000  H
  H181     1.0000 0.82180  0.83420  0.10800  Biso   1.000  H
  H182     1.0000 0.93920  0.99720  0.08670  Biso   1.000  H
  H183     1.0000 0.88630  0.04290  0.02490  Biso   1.000  H
  H184     1.0000 0.79550  0.98540  0.00680  Biso   1.000  H
  C1       1.0000 0.86750  0.45460  0.12970  Biso   1.000  C
  C2       1.0000 0.79040  0.45400  0.15660  Biso   1.000  C
  C3       1.0000 0.74930  0.51090  0.17180  Biso   1.000  C
  C4       1.0000 0.78570  0.56950  0.15970  Biso   1.000  C
  C5       1.0000 0.86390  0.57220  0.13190  Biso   1.000  C
  C6       1.0000 0.90320  0.51460  0.11740  Biso   1.000  C
  C7       1.0000 0.75970  0.34400  0.14070  Biso   1.000  C
  C8       1.0000 0.71900  0.29560  0.17090  Biso   1.000  C
  C9       1.0000 0.70970  0.37110  0.21650  Biso   1.000  C
  C10      1.0000 0.01930  0.48120  0.04160  Biso   1.000  C
  C11      1.0000 0.09210  0.50170  0.02000  Biso   1.000  C
  C12      1.0000 0.03560  0.56020  0.08240  Biso   1.000  C
  C13      1.0000 0.70770  0.73210  0.18130  Biso   1.000  C
  C14      1.0000 0.75950  0.69420  0.15270  Biso   1.000  C
  C15      1.0000 0.68040  0.63460  0.21580  Biso   1.000  C
  C16      1.0000 0.18110  0.63540  0.23300  Biso   1.000  C
  C17      1.0000 0.16750  0.65000  0.28210  Biso   1.000  C
  C18      1.0000 0.22470  0.66850  0.29960  Biso   1.000  C
  C19      1.0000 0.29860  0.67860  0.26640  Biso   1.000  C
  C20      1.0000 0.31520  0.66650  0.21500  Biso   1.000  C
  C21      1.0000 0.25640  0.64450  0.20030  Biso   1.000  C
  C22      1.0000 0.05720  0.68570  0.35080  Biso   1.000  C
  C23      1.0000 0.97360  0.61510  0.35730  Biso   1.000  C
  C24      1.0000 0.03940  0.59730  0.31650  Biso   1.000  C
  C25      1.0000 0.21980  0.62780  0.12270  Biso   1.000  C
  C26      1.0000 0.33190  0.61070  0.06980  Biso   1.000  C
  C27      1.0000 0.34550  0.62140  0.11380  Biso   1.000  C
  C28      1.0000 0.43470  0.70440  0.25940  Biso   1.000  C
  C29      1.0000 0.34360  0.72630  0.32990  Biso   1.000  C
  C30      1.0000 0.41300  0.74180  0.33340  Biso   1.000  C
  C31      1.0000 0.73070  0.77330  0.84800  Biso   1.000  C
  C32      1.0000 0.65150  0.76550  0.87107  Biso   1.000  C
  C33      1.0000 0.60560  0.74540  0.84400  Biso   1.000  C
  C34      1.0000 0.63900  0.73320  0.79379  Biso   1.000  C
  C35      1.0000 0.71820  0.74100  0.77072  Biso   1.000  C
  C36      1.0000 0.76400  0.76110  0.79780  Biso   1.000  C
  C37      1.0000 0.90310  0.74820  0.79060  Biso   1.000  C
  C38      1.0000 0.87750  0.77270  0.71530  Biso   1.000  C
  C39      1.0000 0.95570  0.77410  0.70910  Biso   1.000  C
  C40      1.0000 0.52060  0.74050  0.76690  Biso   1.000  C
  C41      1.0000 0.61040  0.66730  0.73490  Biso   1.000  C
  C42      1.0000 0.54870  0.66490  0.71670  Biso   1.000  C
  C43      1.0000 0.65140  0.77760  0.95700  Biso   1.000  C
  C44      1.0000 0.55090  0.82610  0.93150  Biso   1.000  C
  C45      1.0000 0.53980  0.81900  0.98330  Biso   1.000  C
  C46      1.0000 0.21880  0.98430  0.66890  Biso   1.000  C
  C47      1.0000 0.25530  0.04270  0.65660  Biso   1.000  C
  C48      1.0000 0.33490  0.04500  0.62700  Biso   1.000  C
  C49      1.0000 0.37440  0.98590  0.61360  Biso   1.000  C
  C50      1.0000 0.33760  0.92800  0.62650  Biso   1.000  C
  C51      1.0000 0.26090  0.92720  0.65390  Biso   1.000  C
  C52      1.0000 0.17490  0.84360  0.71310  Biso   1.000  C
  C53      1.0000 0.23200  0.81640  0.63720  Biso   1.000  C
  C54      1.0000 0.18690  0.76840  0.66660  Biso   1.000  C
  C55      1.0000 0.15370  0.10790  0.71350  Biso   1.000  C
  C56      1.0000 0.17440  0.20440  0.67640  Biso   1.000  C
  C57      1.0000 0.22650  0.16520  0.64810  Biso   1.000  C
  C58      1.0000 0.50740  0.02930  0.58530  Biso   1.000  C
  C59      1.0000 0.49580  0.94080  0.55350  Biso   1.000  C
  C60      1.0000 0.57000  0.95800  0.53570  Biso   1.000  C
  C61      1.0000 0.63030  0.13110  0.79150  Biso   1.000  C
  C62      1.0000 0.68950  0.14970  0.80750  Biso   1.000  C
  C63      1.0000 0.76440  0.15400  0.77420  Biso   1.000  C
  C64      1.0000 0.77980  0.14070  0.72460  Biso   1.000  C
  C65      1.0000 0.71940  0.12000  0.70900  Biso   1.000  C
  C66      1.0000 0.64460  0.11590  0.74230  Biso   1.000  C
  C67      1.0000 0.49500  0.08910  0.82690  Biso   1.000  C
  C68      1.0000 0.43130  0.11200  0.86230  Biso   1.000  C
  C69      1.0000 0.52290  0.17430  0.85910  Biso   1.000  C
  C70      1.0000 0.68350  0.09660  0.63350  Biso   1.000  C
  C71      1.0000 0.80730  0.09850  0.62480  Biso   1.000  C
  C72      1.0000 0.79310  0.08000  0.58210  Biso   1.000  C
  C73      1.0000 0.90160  0.17810  0.76400  Biso   1.000  C
  C74      1.0000 0.88640  0.21340  0.83650  Biso   1.000  C
  C75      1.0000 0.81560  0.19750  0.83790  Biso   1.000  C
  C76      1.0000 0.57850  0.88120  0.27520  Biso   1.000  C
  C77      1.0000 0.62380  0.94210  0.25480  Biso   1.000  C
  C78      1.0000 0.70080  0.93740  0.22130  Biso   1.000  C
  C79      1.0000 0.74120  0.99420  0.20290  Biso   1.000  C
  C80      1.0000 0.70960  0.05370  0.21800  Biso   1.000  C
  C81      1.0000 0.63500  0.05970  0.25260  Biso   1.000  C
  C82      1.0000 0.60190  0.12340  0.27190  Biso   1.000  C
  C83      1.0000 0.59310  0.00270  0.27050  Biso   1.000  C
  C84      1.0000 0.60140  0.64260  0.35430  Biso   1.000  C
  C85      1.0000 0.63860  0.60810  0.39230  Biso   1.000  C
  C86      1.0000 0.62040  0.54300  0.41420  Biso   1.000  C
  C87      1.0000 0.65830  0.50950  0.44700  Biso   1.000  C
  C88      1.0000 0.71290  0.53840  0.46020  Biso   1.000  C
  C89      1.0000 0.73150  0.60230  0.44130  Biso   1.000  C
  C90      1.0000 0.69310  0.63800  0.40800  Biso   1.000  C
  C91      1.0000 0.79540  0.63530  0.45190  Biso   1.000  C
  C92      1.0000 0.32360  0.56120  0.94710  Biso   1.000  C
  C93      1.0000 0.37440  0.52720  0.90480  Biso   1.000  C
  C94      1.0000 0.42280  0.55880  0.86230  Biso   1.000  C
  C95      1.0000 0.46930  0.52670  0.82520  Biso   1.000  C
  C96      1.0000 0.47240  0.45730  0.83120  Biso   1.000  C
  C97      1.0000 0.42610  0.42380  0.87300  Biso   1.000  C
  C98      1.0000 0.37300  0.45950  0.91210  Biso   1.000  C
  C99      1.0000 0.43400  0.35070  0.88030  Biso   1.000  C
  C100     1.0000 0.12100  0.71500  0.01210  Biso   1.000  C
  C101     1.0000 0.08170  0.76820  0.98220  Biso   1.000  C
  C102     1.0000 0.04200  0.82270  0.00500  Biso   1.000  C
  C103     1.0000 0.00530  0.86900  0.97630  Biso   1.000  C
  C104     1.0000 0.01000  0.86230  0.92660  Biso   1.000  C
  C105     1.0000 0.05030  0.80940  0.90420  Biso   1.000  C
  C106     1.0000 0.08620  0.76040  0.93310  Biso   1.000  C
  C107     1.0000 0.05600  0.80000  0.85080  Biso   1.000  C
  C108     1.0000 0.80120  0.04750  0.46020  Biso   1.000  C
  C109     1.0000 0.87120  0.01370  0.42050  Biso   1.000  C
  C110     1.0000 0.92190  0.05790  0.38550  Biso   1.000  C
  C111     1.0000 0.98220  0.03510  0.34850  Biso   1.000  C
  C112     1.0000 0.99370  0.96690  0.34920  Biso   1.000  C
  C113     1.0000 0.94510  0.92380  0.38570  Biso   1.000  C
  C114     1.0000 0.88250  0.94540  0.42130  Biso   1.000  C
  C115     1.0000 0.96340  0.85290  0.38400  Biso   1.000  C
  C116     1.0000 0.59310  0.19270  0.52500  Biso   1.000  C
  C117     1.0000 0.57220  0.25520  0.49700  Biso   1.000  C
  C118     1.0000 0.53820  0.30820  0.52160  Biso   1.000  C
  C119     1.0000 0.52070  0.36710  0.49420  Biso   1.000  C
  C120     1.0000 0.53810  0.37110  0.44110  Biso   1.000  C
  C121     1.0000 0.57000  0.31710  0.41660  Biso   1.000  C
  C122     1.0000 0.58620  0.26030  0.44510  Biso   1.000  C
  C123     1.0000 0.58640  0.31820  0.36170  Biso   1.000  C
  C124     1.0000 0.04630  0.35350  0.77490  Biso   1.000  C
  C125     1.0000 0.09130  0.41480  0.75400  Biso   1.000  C
  C126     1.0000 0.16590  0.41170  0.72190  Biso   1.000  C
  C127     1.0000 0.20650  0.46960  0.70310  Biso   1.000  C
  C128     1.0000 0.17470  0.52840  0.71740  Biso   1.000  C
  C129     1.0000 0.10130  0.53210  0.75010  Biso   1.000  C
  C130     1.0000 0.05930  0.47630  0.76900  Biso   1.000  C
  C131     1.0000 0.06790  0.59880  0.76870  Biso   1.000  C
  C132     1.0000 0.26110  0.13380  0.95940  Biso   1.000  C
  C133     1.0000 0.19910  0.09760  0.94620  Biso   1.000  C
  C134     1.0000 0.16480  0.12410  0.90880  Biso   1.000  C
  C135     1.0000 0.11160  0.09130  0.89570  Biso   1.000  C
  C136     1.0000 0.09550  0.02680  0.92190  Biso   1.000  C
  C137     1.0000 0.12710  0.99870  0.95820  Biso   1.000  C
  C138     1.0000 0.18010  0.03410  0.96920  Biso   1.000  C
  C139     1.0000 0.07840  0.11690  0.85350  Biso   1.000  C
  C140     1.0000 0.13250  0.54540  0.87030  Biso   1.000  C
  C141     1.0000 0.20960  0.54600  0.84340  Biso   1.000  C
  C142     1.0000 0.25070  0.48910  0.82820  Biso   1.000  C
  C143     1.0000 0.21430  0.43050  0.84030  Biso   1.000  C
  C144     1.0000 0.13610  0.42780  0.86810  Biso   1.000  C
  C145     1.0000 0.09680  0.48540  0.88260  Biso   1.000  C
  C146     1.0000 0.24030  0.65600  0.85930  Biso   1.000  C
  C147     1.0000 0.28100  0.70440  0.82910  Biso   1.000  C
  C148     1.0000 0.29030  0.62890  0.78350  Biso   1.000  C
  C149     1.0000 0.98070  0.51880  0.95840  Biso   1.000  C
  C150     1.0000 0.90790  0.49830  0.98000  Biso   1.000  C
  C151     1.0000 0.96440  0.43980  0.91760  Biso   1.000  C
  C152     1.0000 0.29230  0.26790  0.81870  Biso   1.000  C
  C153     1.0000 0.24050  0.30580  0.84730  Biso   1.000  C
  C154     1.0000 0.31960  0.36540  0.78420  Biso   1.000  C
  C155     1.0000 0.81890  0.36460  0.76700  Biso   1.000  C
  C156     1.0000 0.83250  0.35000  0.71790  Biso   1.000  C
  C157     1.0000 0.77530  0.33150  0.70040  Biso   1.000  C
  C158     1.0000 0.70140  0.32140  0.73360  Biso   1.000  C
  C159     1.0000 0.68480  0.33350  0.78500  Biso   1.000  C
  C160     1.0000 0.74360  0.35550  0.79970  Biso   1.000  C
  C161     1.0000 0.94280  0.31430  0.64920  Biso   1.000  C
  C162     1.0000 0.02640  0.38490  0.64270  Biso   1.000  C
  C163     1.0000 0.96060  0.40270  0.68350  Biso   1.000  C
  C164     1.0000 0.78020  0.37220  0.87730  Biso   1.000  C
  C165     1.0000 0.66810  0.38930  0.93020  Biso   1.000  C
  C166     1.0000 0.65450  0.37860  0.88620  Biso   1.000  C
  C167     1.0000 0.56530  0.29560  0.74060  Biso   1.000  C
  C168     1.0000 0.65640  0.27370  0.67010  Biso   1.000  C
  C169     1.0000 0.58700  0.25820  0.66660  Biso   1.000  C
  C170     1.0000 0.26930  0.22670  0.15200  Biso   1.000  C
  C171     1.0000 0.34850  0.23450  0.12893  Biso   1.000  C
  C172     1.0000 0.39440  0.25460  0.15600  Biso   1.000  C
  C173     1.0000 0.36100  0.26680  0.20621  Biso   1.000  C
  C174     1.0000 0.28180  0.25900  0.22928  Biso   1.000  C
  C175     1.0000 0.23600  0.23890  0.20220  Biso   1.000  C
  C176     1.0000 0.09690  0.25180  0.20940  Biso   1.000  C
  C177     1.0000 0.12250  0.22730  0.28470  Biso   1.000  C
  C178     1.0000 0.04430  0.22590  0.29090  Biso   1.000  C
  C179     1.0000 0.47940  0.25950  0.23310  Biso   1.000  C
  C180     1.0000 0.38960  0.33270  0.26510  Biso   1.000  C
  C181     1.0000 0.45130  0.33510  0.28330  Biso   1.000  C
  C182     1.0000 0.34860  0.22240  0.04300  Biso   1.000  C
  C183     1.0000 0.44910  0.17390  0.06850  Biso   1.000  C
  C184     1.0000 0.46020  0.18100  0.01670  Biso   1.000  C
  C185     1.0000 0.78120  0.01570  0.33110  Biso   1.000  C
  C186     1.0000 0.74470  0.95730  0.34340  Biso   1.000  C
  C187     1.0000 0.66510  0.95500  0.37300  Biso   1.000  C
  C188     1.0000 0.62560  0.01410  0.38640  Biso   1.000  C
  C189     1.0000 0.66240  0.07200  0.37350  Biso   1.000  C
  C190     1.0000 0.73910  0.07280  0.34610  Biso   1.000  C
  C191     1.0000 0.82510  0.15640  0.28690  Biso   1.000  C
  C192     1.0000 0.76800  0.18360  0.36280  Biso   1.000  C
  C193     1.0000 0.81310  0.23160  0.33340  Biso   1.000  C
  C194     1.0000 0.84630  0.89210  0.28650  Biso   1.000  C
  C195     1.0000 0.82560  0.79560  0.32360  Biso   1.000  C
  C196     1.0000 0.77350  0.83480  0.35190  Biso   1.000  C
  C197     1.0000 0.49260  0.97070  0.41470  Biso   1.000  C
  C198     1.0000 0.50420  0.05920  0.44650  Biso   1.000  C
  C199     1.0000 0.43000  0.04200  0.46430  Biso   1.000  C
  C200     1.0000 0.36970  0.86890  0.20850  Biso   1.000  C
  C201     1.0000 0.31050  0.85030  0.19250  Biso   1.000  C
  C202     1.0000 0.23560  0.84600  0.22580  Biso   1.000  C
  C203     1.0000 0.22020  0.85930  0.27540  Biso   1.000  C
  C204     1.0000 0.28060  0.88000  0.29100  Biso   1.000  C
  C205     1.0000 0.35540  0.88410  0.25770  Biso   1.000  C
  C206     1.0000 0.50500  0.91090  0.17310  Biso   1.000  C
  C207     1.0000 0.56870  0.88800  0.13770  Biso   1.000  C
  C208     1.0000 0.47710  0.82570  0.14090  Biso   1.000  C
  C209     1.0000 0.31650  0.90340  0.36650  Biso   1.000  C
  C210     1.0000 0.19270  0.90150  0.37520  Biso   1.000  C
  C211     1.0000 0.20690  0.92000  0.41790  Biso   1.000  C
  C212     1.0000 0.09840  0.82190  0.23600  Biso   1.000  C
  C213     1.0000 0.11360  0.78660  0.16350  Biso   1.000  C
  C214     1.0000 0.18440  0.80250  0.16210  Biso   1.000  C
  C215     1.0000 0.42150  0.11880  0.72480  Biso   1.000  C
  C216     1.0000 0.37620  0.05790  0.74520  Biso   1.000  C
  C217     1.0000 0.29920  0.06260  0.77870  Biso   1.000  C
  C218     1.0000 0.25880  0.00580  0.79710  Biso   1.000  C
  C219     1.0000 0.29040  0.94630  0.78200  Biso   1.000  C
  C220     1.0000 0.36500  0.94030  0.74740  Biso   1.000  C
  C221     1.0000 0.39810  0.87660  0.72810  Biso   1.000  C
  C222     1.0000 0.40690  0.99730  0.72950  Biso   1.000  C
  C223     1.0000 0.39860  0.35740  0.64570  Biso   1.000  C
  C224     1.0000 0.36140  0.39190  0.60770  Biso   1.000  C
  C225     1.0000 0.37960  0.45700  0.58580  Biso   1.000  C
  C226     1.0000 0.34170  0.49050  0.55300  Biso   1.000  C
  C227     1.0000 0.28710  0.46160  0.53980  Biso   1.000  C
  C228     1.0000 0.26850  0.39770  0.55870  Biso   1.000  C
  C229     1.0000 0.30690  0.36200  0.59200  Biso   1.000  C
  C230     1.0000 0.20460  0.36470  0.54810  Biso   1.000  C
  C231     1.0000 0.67640  0.43880  0.05290  Biso   1.000  C
  C232     1.0000 0.62560  0.47280  0.09520  Biso   1.000  C
  C233     1.0000 0.57720  0.44120  0.13770  Biso   1.000  C
  C234     1.0000 0.53070  0.47330  0.17480  Biso   1.000  C
  C235     1.0000 0.52760  0.54270  0.16880  Biso   1.000  C
  C236     1.0000 0.57390  0.57620  0.12700  Biso   1.000  C
  C237     1.0000 0.62700  0.54050  0.08790  Biso   1.000  C
  C238     1.0000 0.56600  0.64930  0.11970  Biso   1.000  C
  C239     1.0000 0.87900  0.28500  0.98790  Biso   1.000  C
  C240     1.0000 0.91830  0.23180  0.01780  Biso   1.000  C
  C241     1.0000 0.95800  0.17730  0.99500  Biso   1.000  C
  C242     1.0000 0.99470  0.13100  0.02370  Biso   1.000  C
  C243     1.0000 0.99000  0.13770  0.07340  Biso   1.000  C
  C244     1.0000 0.94970  0.19060  0.09580  Biso   1.000  C
  C245     1.0000 0.91380  0.23960  0.06690  Biso   1.000  C
  C246     1.0000 0.94400  0.20000  0.14920  Biso   1.000  C
  C247     1.0000 0.19880  0.95250  0.53980  Biso   1.000  C
  C248     1.0000 0.12880  0.98630  0.57950  Biso   1.000  C
  C249     1.0000 0.07810  0.94210  0.61450  Biso   1.000  C
  C250     1.0000 0.01780  0.96490  0.65150  Biso   1.000  C
  C251     1.0000 0.00630  0.03310  0.65080  Biso   1.000  C
  C252     1.0000 0.05490  0.07620  0.61430  Biso   1.000  C
  C253     1.0000 0.11750  0.05460  0.57870  Biso   1.000  C
  C254     1.0000 0.03660  0.14710  0.61600  Biso   1.000  C
  C255     1.0000 0.40690  0.80730  0.47500  Biso   1.000  C
  C256     1.0000 0.42780  0.74480  0.50300  Biso   1.000  C
  C257     1.0000 0.46180  0.69180  0.47840  Biso   1.000  C
  C258     1.0000 0.47930  0.63290  0.50580  Biso   1.000  C
  C259     1.0000 0.46190  0.62890  0.55890  Biso   1.000  C
  C260     1.0000 0.43000  0.68290  0.58340  Biso   1.000  C
  C261     1.0000 0.41380  0.73970  0.55490  Biso   1.000  C
  C262     1.0000 0.41360  0.68180  0.63830  Biso   1.000  C
  C263     1.0000 0.95370  0.64650  0.22510  Biso   1.000  C
  C264     1.0000 0.90870  0.58520  0.24600  Biso   1.000  C
  C265     1.0000 0.83410  0.58830  0.27810  Biso   1.000  C
  C266     1.0000 0.79350  0.53040  0.29690  Biso   1.000  C
  C267     1.0000 0.82530  0.47160  0.28260  Biso   1.000  C
  C268     1.0000 0.89870  0.46790  0.24990  Biso   1.000  C
  C269     1.0000 0.94070  0.52370  0.23100  Biso   1.000  C
  C270     1.0000 0.93210  0.40120  0.23130  Biso   1.000  C
  C271     1.0000 0.73890  0.86620  0.04060  Biso   1.000  C
  C272     1.0000 0.80090  0.90240  0.05380  Biso   1.000  C
  C273     1.0000 0.83520  0.87590  0.09120  Biso   1.000  C
  C274     1.0000 0.88840  0.90870  0.10430  Biso   1.000  C
  C275     1.0000 0.90450  0.97320  0.07810  Biso   1.000  C
  C276     1.0000 0.87290  0.00130  0.04180  Biso   1.000  C
  C277     1.0000 0.81990  0.96590  0.03080  Biso   1.000  C
  C278     1.0000 0.92160  0.88310  0.14650  Biso   1.000  C
  N1       1.0000 0.65660  0.69640  0.22183  Biso   1.000  N
  N2       1.0000 0.74340  0.62930  0.17530  Biso   1.000  N
  N3       1.0000 0.75360  0.39330  0.17114  Biso   1.000  N
  N4       1.0000 0.68740  0.31140  0.21860  Biso   1.000  N
  N5       1.0000 0.98600  0.51690  0.08880  Biso   1.000  N
  N6       1.0000 0.10490  0.54590  0.05680  Biso   1.000  N
  N7       1.0000 0.25340  0.61320  0.07610  Biso   1.000  N
  N8       1.0000 0.27160  0.63250  0.14905  Biso   1.000  N
  N9       1.0000 0.98480  0.67040  0.37700  Biso   1.000  N
  N10      1.0000 0.09080  0.64380  0.31600  Biso   1.000  N
  N11      1.0000 0.46830  0.73000  0.28950  Biso   1.000  N
  N12      1.0000 0.35530  0.70200  0.28450  Biso   1.000  N
  N13      1.0000 0.97180  0.75830  0.75820  Biso   1.000  N
  N14      1.0000 0.84520  0.76830  0.77300  Biso   1.000  N
  N15      1.0000 0.59270  0.71470  0.76580  Biso   1.000  N
  N16      1.0000 0.49180  0.71280  0.73650  Biso   1.000  N
  N17      1.0000 0.60740  0.79970  0.99680  Biso   1.000  N
  N18      1.0000 0.62330  0.79740  0.91470  Biso   1.000  N
  N19      1.0000 0.15160  0.78530  0.71420  Biso   1.000  N
  N20      1.0000 0.22230  0.86540  0.66788  Biso   1.000  N
  N21      1.0000 0.21350  0.10280  0.67145  Biso   1.000  N
  N22      1.0000 0.12800  0.16940  0.71776  Biso   1.000  N
  N23      1.0000 0.45620  0.98660  0.58472  Biso   1.000  N
  N24      1.0000 0.57740  0.01410  0.55650  Biso   1.000  N
  N25      1.0000 0.71590  0.08260  0.58760  Biso   1.000  N
  N26      1.0000 0.73330  0.10450  0.65919  Biso   1.000  N
  N27      1.0000 0.82480  0.17530  0.79120  Biso   1.000  N
  N28      1.0000 0.93910  0.20200  0.79249  Biso   1.000  N
  N29      1.0000 0.55270  0.13130  0.82510  Biso   1.000  N
  N30      1.0000 0.44800  0.16550  0.88230  Biso   1.000  N
  N31      1.0000 0.34340  0.30360  0.77817  Biso   1.000  N
  N32      1.0000 0.25660  0.37070  0.82470  Biso   1.000  N
  N33      1.0000 0.24640  0.60670  0.82886  Biso   1.000  N
  N34      1.0000 0.31260  0.68860  0.78140  Biso   1.000  N
  N35      1.0000 0.01400  0.48310  0.91120  Biso   1.000  N
  N36      1.0000 0.89510  0.45410  0.94320  Biso   1.000  N
  N37      1.0000 0.74660  0.38680  0.92390  Biso   1.000  N
  N38      1.0000 0.72840  0.36750  0.85095  Biso   1.000  N
  N39      1.0000 0.01520  0.32960  0.62300  Biso   1.000  N
  N40      1.0000 0.90920  0.35620  0.68400  Biso   1.000  N
  N41      1.0000 0.53170  0.27000  0.71050  Biso   1.000  N
  N42      1.0000 0.64470  0.29800  0.71550  Biso   1.000  N
  N43      1.0000 0.02820  0.24170  0.24180  Biso   1.000  N
  N44      1.0000 0.15480  0.23170  0.22700  Biso   1.000  N
  N45      1.0000 0.40730  0.28530  0.23420  Biso   1.000  N
  N46      1.0000 0.50820  0.28720  0.26350  Biso   1.000  N
  N47      1.0000 0.39260  0.20030  0.00320  Biso   1.000  N
  N48      1.0000 0.37670  0.20260  0.08530  Biso   1.000  N
  N49      1.0000 0.84840  0.21470  0.28580  Biso   1.000  N
  N50      1.0000 0.77770  0.13460  0.33212  Biso   1.000  N
  N51      1.0000 0.78650  0.89720  0.32855  Biso   1.000  N
  N52      1.0000 0.87200  0.83060  0.28224  Biso   1.000  N
  N53      1.0000 0.54380  0.01340  0.41528  Biso   1.000  N
  N54      1.0000 0.42260  0.98590  0.44350  Biso   1.000  N
  N55      1.0000 0.28410  0.91740  0.41240  Biso   1.000  N
  N56      1.0000 0.26670  0.89550  0.34081  Biso   1.000  N
  N57      1.0000 0.17520  0.82470  0.20880  Biso   1.000  N
  N58      1.0000 0.06090  0.79800  0.20751  Biso   1.000  N
  N59      1.0000 0.44730  0.86870  0.17490  Biso   1.000  N
  N60      1.0000 0.55200  0.83450  0.11770  Biso   1.000  N
  O1       1.0000 0.63310  0.14840  0.49588  Biso   1.000  O
  O2       1.0000 0.93910  0.70320  0.49600  Biso   1.000  O
  O3       1.0000 0.57510  0.18160  0.57060  Biso   1.000  O
  O4       1.0000 0.57980  0.36960  0.33440  Biso   1.000  O
  O5       1.0000 0.60550  0.26360  0.34322  Biso   1.000  O
  O6       1.0000 0.75030  0.01210  0.48560  Biso   1.000  O
  O7       1.0000 0.80690  0.10890  0.46580  Biso   1.000  O
  O8       1.0000 0.91260  0.81540  0.41690  Biso   1.000  O
  O9       1.0000 0.02590  0.83220  0.35630  Biso   1.000  O
  O10      1.0000 0.08680  0.17900  0.83944  Biso   1.000  O
  O11      1.0000 0.04770  0.08210  0.83426  Biso   1.000  O
  O12      1.0000 0.29420  0.10590  0.98940  Biso   1.000  O
  O13      1.0000 0.27380  0.19040  0.93460  Biso   1.000  O
  O14      1.0000 0.98080  0.35790  0.80450  Biso   1.000  O
  O15      1.0000 0.08290  0.30160  0.75808  Biso   1.000  O
  O16      1.0000 0.00240  0.60320  0.79820  Biso   1.000  O
  O17      1.0000 0.11310  0.64549  0.75201  Biso   1.000  O
  O18      1.0000 0.26550  0.53520  0.97770  Biso   1.000  O
  O19      1.0000 0.34270  0.61730  0.95270  Biso   1.000  O
  O20      1.0000 0.37440  0.31800  0.90970  Biso   1.000  O
  O21      1.0000 0.49470  0.31920  0.85924  Biso   1.000  O
  O22      1.0000 0.16450  0.67220  0.98543  Biso   1.000  O
  O23      1.0000 0.10680  0.71400  0.05740  Biso   1.000  O
  O24      1.0000 0.07280  0.74050  0.83934  Biso   1.000  O
  O25      1.0000 0.04410  0.84610  0.82050  Biso   1.000  O
  O26      1.0000 0.61650  0.82710  0.26084  Biso   1.000  O
  O27      1.0000 0.51040  0.88530  0.30274  Biso   1.000  O
  O28      1.0000 0.64550  0.17170  0.25318  Biso   1.000  O
  O29      1.0000 0.53750  0.12710  0.30100  Biso   1.000  O
  O30      1.0000 0.80940  0.69470  0.43160  Biso   1.000  O
  O31      1.0000 0.83450  0.60160  0.47710  Biso   1.000  O
  O32      1.0000 0.61080  0.70420  0.34157  Biso   1.000  O
  O33      1.0000 0.56710  0.60920  0.33303  Biso   1.000  O
  O34      1.0000 0.36690  0.85160  0.50412  Biso   1.000  O
  O35      1.0000 0.06090  0.29680  0.50400  Biso   1.000  O
  O36      1.0000 0.42490  0.81840  0.42940  Biso   1.000  O
  O37      1.0000 0.42020  0.63040  0.66560  Biso   1.000  O
  O38      1.0000 0.39450  0.73640  0.65678  Biso   1.000  O
  O39      1.0000 0.24970  0.98790  0.51440  Biso   1.000  O
  O40      1.0000 0.19310  0.89110  0.53420  Biso   1.000  O
  O41      1.0000 0.08740  0.18460  0.58310  Biso   1.000  O
  O42      1.0000 0.97410  0.16780  0.64370  Biso   1.000  O
  O43      1.0000 0.91320  0.82100  0.16056  Biso   1.000  O
  O44      1.0000 0.95230  0.91790  0.16574  Biso   1.000  O
  O45      1.0000 0.70580  0.89410  0.01060  Biso   1.000  O
  O46      1.0000 0.72620  0.80960  0.06540  Biso   1.000  O
  O47      1.0000 0.01920  0.64210  0.19550  Biso   1.000  O
  O48      1.0000 0.91710  0.69840  0.24192  Biso   1.000  O
  O49      1.0000 0.99760  0.39680  0.20180  Biso   1.000  O
  O50      1.0000 0.88690  0.35451  0.24799  Biso   1.000  O
  O51      1.0000 0.73450  0.46480  0.02230  Biso   1.000  O
  O52      1.0000 0.65730  0.38270  0.04730  Biso   1.000  O
  O53      1.0000 0.62560  0.68200  0.09030  Biso   1.000  O
  O54      1.0000 0.50530  0.68080  0.14076  Biso   1.000  O
  O55      1.0000 0.83550  0.32780  0.01457  Biso   1.000  O
  O56      1.0000 0.89320  0.28600  0.94260  Biso   1.000  O
  O57      1.0000 0.92720  0.25950  0.16066  Biso   1.000  O
  O58      1.0000 0.95590  0.15390  0.17950  Biso   1.000  O
  O59      1.0000 0.38350  0.17290  0.73916  Biso   1.000  O
  O60      1.0000 0.48960  0.11470  0.69726  Biso   1.000  O
  O61      1.0000 0.35450  0.82830  0.74682  Biso   1.000  O
  O62      1.0000 0.46250  0.87290  0.69900  Biso   1.000  O
  O63      1.0000 0.19060  0.30530  0.56840  Biso   1.000  O
  O64      1.0000 0.16550  0.39840  0.52290  Biso   1.000  O
  O65      1.0000 0.38920  0.29580  0.65843  Biso   1.000  O
  O66      1.0000 0.43290  0.39080  0.66697  Biso   1.000  O
