data_image0
_cell_length_a       27.5842
_cell_length_b       27.5842
_cell_length_c       27.5842
_cell_angle_alpha    60
_cell_angle_beta     60
_cell_angle_gamma    60

_symmetry_space_group_name_H-M    P 1
_symmetry_int_tables_number       1

loop_
  _symmetry_equiv_pos_as_xyz
  'x, y, z'

loop_
  _atom_site_label
  _atom_site_occupancy
  _atom_site_fract_x
  _atom_site_fract_y
  _atom_site_fract_z
  _atom_site_thermal_displace_type
  _atom_site_B_iso_or_equiv
  _atom_site_type_symbol
  Hf1      1.0000 0.51836  0.04512  0.04512  Biso   1.000  Hf
  Hf2      1.0000 0.04513  0.51835  0.39140  Biso   1.000  Hf
  Hf3      1.0000 0.04513  0.39140  0.51835  Biso   1.000  Hf
  Hf4      1.0000 0.39141  0.04512  0.04512  Biso   1.000  Hf
  Hf5      1.0000 0.51836  0.04512  0.39140  Biso   1.000  Hf
  Hf6      1.0000 0.04513  0.39140  0.04512  Biso   1.000  Hf
  Hf7      1.0000 0.04513  0.51835  0.04512  Biso   1.000  Hf
  Hf8      1.0000 0.39141  0.04512  0.51835  Biso   1.000  Hf
  Hf9      1.0000 0.51836  0.39140  0.04512  Biso   1.000  Hf
  Hf10     1.0000 0.04513  0.04512  0.51835  Biso   1.000  Hf
  Hf11     1.0000 0.04513  0.04512  0.39140  Biso   1.000  Hf
  Hf12     1.0000 0.39141  0.51835  0.04512  Biso   1.000  Hf
  Hf13     1.0000 0.95487  0.48165  0.95488  Biso   1.000  Hf
  Hf14     1.0000 0.48164  0.95488  0.60860  Biso   1.000  Hf
  Hf15     1.0000 0.60859  0.95488  0.48165  Biso   1.000  Hf
  Hf16     1.0000 0.95487  0.60860  0.95488  Biso   1.000  Hf
  Hf17     1.0000 0.95487  0.48165  0.60860  Biso   1.000  Hf
  Hf18     1.0000 0.60859  0.95488  0.95488  Biso   1.000  Hf
  Hf19     1.0000 0.48164  0.95488  0.95488  Biso   1.000  Hf
  Hf20     1.0000 0.95487  0.60860  0.48165  Biso   1.000  Hf
  Hf21     1.0000 0.60859  0.48165  0.95488  Biso   1.000  Hf
  Hf22     1.0000 0.95487  0.95488  0.48165  Biso   1.000  Hf
  Hf23     1.0000 0.95487  0.95488  0.60860  Biso   1.000  Hf
  Hf24     1.0000 0.48164  0.60860  0.95488  Biso   1.000  Hf
  Hf25     1.0000 0.50000  0.91091  0.08909  Biso   1.000  Hf
  Hf26     1.0000 0.91091  0.50000  0.50000  Biso   1.000  Hf
  Hf27     1.0000 0.08909  0.50000  0.50000  Biso   1.000  Hf
  Hf28     1.0000 0.50000  0.08909  0.91091  Biso   1.000  Hf
  Hf29     1.0000 0.50000  0.08909  0.50000  Biso   1.000  Hf
  Hf30     1.0000 0.91091  0.50000  0.08909  Biso   1.000  Hf
  Hf31     1.0000 0.08909  0.50000  0.91091  Biso   1.000  Hf
  Hf32     1.0000 0.50000  0.91091  0.50000  Biso   1.000  Hf
  Hf33     1.0000 0.50000  0.50000  0.91091  Biso   1.000  Hf
  Hf34     1.0000 0.91091  0.08909  0.50000  Biso   1.000  Hf
  Hf35     1.0000 0.08909  0.91091  0.50000  Biso   1.000  Hf
  Hf36     1.0000 0.50000  0.50000  0.08909  Biso   1.000  Hf
  H1       1.0000 0.63220  0.72060  0.15720  Biso   1.000  H
  H2       1.0000 0.72060  0.63220  0.49000  Biso   1.000  H
  H3       1.0000 0.15720  0.49000  0.63220  Biso   1.000  H
  H4       1.0000 0.49000  0.15720  0.72060  Biso   1.000  H
  H5       1.0000 0.63220  0.15720  0.49000  Biso   1.000  H
  H6       1.0000 0.72060  0.49000  0.15720  Biso   1.000  H
  H7       1.0000 0.15720  0.63220  0.72060  Biso   1.000  H
  H8       1.0000 0.49000  0.72060  0.63220  Biso   1.000  H
  H9       1.0000 0.63220  0.49000  0.72060  Biso   1.000  H
  H10      1.0000 0.72060  0.15720  0.63220  Biso   1.000  H
  H11      1.0000 0.15720  0.72060  0.49000  Biso   1.000  H
  H12      1.0000 0.49000  0.63220  0.15720  Biso   1.000  H
  H13      1.0000 0.27940  0.36780  0.84280  Biso   1.000  H
  H14      1.0000 0.36780  0.27940  0.51000  Biso   1.000  H
  H15      1.0000 0.51000  0.84280  0.36780  Biso   1.000  H
  H16      1.0000 0.84280  0.51000  0.27940  Biso   1.000  H
  H17      1.0000 0.84280  0.36780  0.51000  Biso   1.000  H
  H18      1.0000 0.51000  0.27940  0.84280  Biso   1.000  H
  H19      1.0000 0.36780  0.84280  0.27940  Biso   1.000  H
  H20      1.0000 0.27940  0.51000  0.36780  Biso   1.000  H
  H21      1.0000 0.51000  0.36780  0.27940  Biso   1.000  H
  H22      1.0000 0.84280  0.27940  0.36780  Biso   1.000  H
  H23      1.0000 0.27940  0.84280  0.51000  Biso   1.000  H
  H24      1.0000 0.36780  0.51000  0.84280  Biso   1.000  H
  H25      1.0000 0.36780  0.27940  0.84280  Biso   1.000  H
  H26      1.0000 0.27940  0.36780  0.51000  Biso   1.000  H
  H27      1.0000 0.84280  0.51000  0.36780  Biso   1.000  H
  H28      1.0000 0.51000  0.84280  0.27940  Biso   1.000  H
  H29      1.0000 0.36780  0.84280  0.51000  Biso   1.000  H
  H30      1.0000 0.27940  0.51000  0.84280  Biso   1.000  H
  H31      1.0000 0.84280  0.36780  0.27940  Biso   1.000  H
  H32      1.0000 0.51000  0.27940  0.36780  Biso   1.000  H
  H33      1.0000 0.36780  0.51000  0.27940  Biso   1.000  H
  H34      1.0000 0.27940  0.84280  0.36780  Biso   1.000  H
  H35      1.0000 0.84280  0.27940  0.51000  Biso   1.000  H
  H36      1.0000 0.51000  0.36780  0.84280  Biso   1.000  H
  H37      1.0000 0.72060  0.63220  0.15720  Biso   1.000  H
  H38      1.0000 0.63220  0.72060  0.49000  Biso   1.000  H
  H39      1.0000 0.49000  0.15720  0.63220  Biso   1.000  H
  H40      1.0000 0.15720  0.49000  0.72060  Biso   1.000  H
  H41      1.0000 0.15720  0.63220  0.49000  Biso   1.000  H
  H42      1.0000 0.49000  0.72060  0.15720  Biso   1.000  H
  H43      1.0000 0.63220  0.15720  0.72060  Biso   1.000  H
  H44      1.0000 0.72060  0.49000  0.63220  Biso   1.000  H
  H45      1.0000 0.49000  0.63220  0.72060  Biso   1.000  H
  H46      1.0000 0.15720  0.72060  0.63220  Biso   1.000  H
  H47      1.0000 0.72060  0.15720  0.49000  Biso   1.000  H
  H48      1.0000 0.63220  0.49000  0.15720  Biso   1.000  H
  C1       1.0000 0.63419  0.82653  0.05893  Biso   1.000  C
  C2       1.0000 0.67760  0.76600  0.07620  Biso   1.000  C
  C3       1.0000 0.66840  0.71920  0.12620  Biso   1.000  C
  C4       1.0000 0.82653  0.63419  0.48035  Biso   1.000  C
  C5       1.0000 0.76600  0.67760  0.48020  Biso   1.000  C
  C6       1.0000 0.71920  0.66840  0.48620  Biso   1.000  C
  C7       1.0000 0.05893  0.48035  0.63419  Biso   1.000  C
  C8       1.0000 0.07620  0.48020  0.67760  Biso   1.000  C
  C9       1.0000 0.12620  0.48620  0.66840  Biso   1.000  C
  C10      1.0000 0.48035  0.05893  0.82653  Biso   1.000  C
  C11      1.0000 0.48020  0.07620  0.76600  Biso   1.000  C
  C12      1.0000 0.48620  0.12620  0.71920  Biso   1.000  C
  C13      1.0000 0.63419  0.05893  0.48035  Biso   1.000  C
  C14      1.0000 0.67760  0.07620  0.48020  Biso   1.000  C
  C15      1.0000 0.66840  0.12620  0.48620  Biso   1.000  C
  C16      1.0000 0.82653  0.48035  0.05893  Biso   1.000  C
  C17      1.0000 0.76600  0.48020  0.07620  Biso   1.000  C
  C18      1.0000 0.71920  0.48620  0.12620  Biso   1.000  C
  C19      1.0000 0.05893  0.63419  0.82653  Biso   1.000  C
  C20      1.0000 0.07620  0.67760  0.76600  Biso   1.000  C
  C21      1.0000 0.12620  0.66840  0.71920  Biso   1.000  C
  C22      1.0000 0.48035  0.82653  0.63419  Biso   1.000  C
  C23      1.0000 0.48020  0.76600  0.67760  Biso   1.000  C
  C24      1.0000 0.48620  0.71920  0.66840  Biso   1.000  C
  C25      1.0000 0.63419  0.48035  0.82653  Biso   1.000  C
  C26      1.0000 0.67760  0.48020  0.76600  Biso   1.000  C
  C27      1.0000 0.66840  0.48620  0.71920  Biso   1.000  C
  C28      1.0000 0.82653  0.05893  0.63419  Biso   1.000  C
  C29      1.0000 0.76600  0.07620  0.67760  Biso   1.000  C
  C30      1.0000 0.71920  0.12620  0.66840  Biso   1.000  C
  C31      1.0000 0.05893  0.82653  0.48035  Biso   1.000  C
  C32      1.0000 0.07620  0.76600  0.48020  Biso   1.000  C
  C33      1.0000 0.12620  0.71920  0.48620  Biso   1.000  C
  C34      1.0000 0.48035  0.63419  0.05893  Biso   1.000  C
  C35      1.0000 0.48020  0.67760  0.07620  Biso   1.000  C
  C36      1.0000 0.48620  0.66840  0.12620  Biso   1.000  C
  C37      1.0000 0.17347  0.36581  0.94107  Biso   1.000  C
  C38      1.0000 0.23400  0.32240  0.92380  Biso   1.000  C
  C39      1.0000 0.28080  0.33160  0.87380  Biso   1.000  C
  C40      1.0000 0.36581  0.17347  0.51965  Biso   1.000  C
  C41      1.0000 0.32240  0.23400  0.51980  Biso   1.000  C
  C42      1.0000 0.33160  0.28080  0.51380  Biso   1.000  C
  C43      1.0000 0.51965  0.94107  0.36581  Biso   1.000  C
  C44      1.0000 0.51980  0.92380  0.32240  Biso   1.000  C
  C45      1.0000 0.51380  0.87380  0.33160  Biso   1.000  C
  C46      1.0000 0.94107  0.51965  0.17347  Biso   1.000  C
  C47      1.0000 0.92380  0.51980  0.23400  Biso   1.000  C
  C48      1.0000 0.87380  0.51380  0.28080  Biso   1.000  C
  C49      1.0000 0.94107  0.36581  0.51965  Biso   1.000  C
  C50      1.0000 0.92380  0.32240  0.51980  Biso   1.000  C
  C51      1.0000 0.87380  0.33160  0.51380  Biso   1.000  C
  C52      1.0000 0.51965  0.17347  0.94107  Biso   1.000  C
  C53      1.0000 0.51980  0.23400  0.92380  Biso   1.000  C
  C54      1.0000 0.51380  0.28080  0.87380  Biso   1.000  C
  C55      1.0000 0.36581  0.94107  0.17347  Biso   1.000  C
  C56      1.0000 0.32240  0.92380  0.23400  Biso   1.000  C
  C57      1.0000 0.33160  0.87380  0.28080  Biso   1.000  C
  C58      1.0000 0.17347  0.51965  0.36581  Biso   1.000  C
  C59      1.0000 0.23400  0.51980  0.32240  Biso   1.000  C
  C60      1.0000 0.28080  0.51380  0.33160  Biso   1.000  C
  C61      1.0000 0.51965  0.36581  0.17347  Biso   1.000  C
  C62      1.0000 0.51980  0.32240  0.23400  Biso   1.000  C
  C63      1.0000 0.51380  0.33160  0.28080  Biso   1.000  C
  C64      1.0000 0.94107  0.17347  0.36581  Biso   1.000  C
  C65      1.0000 0.92380  0.23400  0.32240  Biso   1.000  C
  C66      1.0000 0.87380  0.28080  0.33160  Biso   1.000  C
  C67      1.0000 0.17347  0.94107  0.51965  Biso   1.000  C
  C68      1.0000 0.23400  0.92380  0.51980  Biso   1.000  C
  C69      1.0000 0.28080  0.87380  0.51380  Biso   1.000  C
  C70      1.0000 0.36581  0.51965  0.94107  Biso   1.000  C
  C71      1.0000 0.32240  0.51980  0.92380  Biso   1.000  C
  C72      1.0000 0.33160  0.51380  0.87380  Biso   1.000  C
  C73      1.0000 0.36581  0.17347  0.94107  Biso   1.000  C
  C74      1.0000 0.32240  0.23400  0.92380  Biso   1.000  C
  C75      1.0000 0.33160  0.28080  0.87380  Biso   1.000  C
  C76      1.0000 0.17347  0.36581  0.51965  Biso   1.000  C
  C77      1.0000 0.23400  0.32240  0.51980  Biso   1.000  C
  C78      1.0000 0.28080  0.33160  0.51380  Biso   1.000  C
  C79      1.0000 0.94107  0.51965  0.36581  Biso   1.000  C
  C80      1.0000 0.92380  0.51980  0.32240  Biso   1.000  C
  C81      1.0000 0.87380  0.51380  0.33160  Biso   1.000  C
  C82      1.0000 0.51965  0.94107  0.17347  Biso   1.000  C
  C83      1.0000 0.51980  0.92380  0.23400  Biso   1.000  C
  C84      1.0000 0.51380  0.87380  0.28080  Biso   1.000  C
  C85      1.0000 0.36581  0.94107  0.51965  Biso   1.000  C
  C86      1.0000 0.32240  0.92380  0.51980  Biso   1.000  C
  C87      1.0000 0.33160  0.87380  0.51380  Biso   1.000  C
  C88      1.0000 0.17347  0.51965  0.94107  Biso   1.000  C
  C89      1.0000 0.23400  0.51980  0.92380  Biso   1.000  C
  C90      1.0000 0.28080  0.51380  0.87380  Biso   1.000  C
  C91      1.0000 0.94107  0.36581  0.17347  Biso   1.000  C
  C92      1.0000 0.92380  0.32240  0.23400  Biso   1.000  C
  C93      1.0000 0.87380  0.33160  0.28080  Biso   1.000  C
  C94      1.0000 0.51965  0.17347  0.36581  Biso   1.000  C
  C95      1.0000 0.51980  0.23400  0.32240  Biso   1.000  C
  C96      1.0000 0.51380  0.28080  0.33160  Biso   1.000  C
  C97      1.0000 0.36581  0.51965  0.17347  Biso   1.000  C
  C98      1.0000 0.32240  0.51980  0.23400  Biso   1.000  C
  C99      1.0000 0.33160  0.51380  0.28080  Biso   1.000  C
  C100     1.0000 0.17347  0.94107  0.36581  Biso   1.000  C
  C101     1.0000 0.23400  0.92380  0.32240  Biso   1.000  C
  C102     1.0000 0.28080  0.87380  0.33160  Biso   1.000  C
  C103     1.0000 0.94107  0.17347  0.51965  Biso   1.000  C
  C104     1.0000 0.92380  0.23400  0.51980  Biso   1.000  C
  C105     1.0000 0.87380  0.28080  0.51380  Biso   1.000  C
  C106     1.0000 0.51965  0.36581  0.94107  Biso   1.000  C
  C107     1.0000 0.51980  0.32240  0.92380  Biso   1.000  C
  C108     1.0000 0.51380  0.33160  0.87380  Biso   1.000  C
  C109     1.0000 0.82653  0.63419  0.05893  Biso   1.000  C
  C110     1.0000 0.76600  0.67760  0.07620  Biso   1.000  C
  C111     1.0000 0.71920  0.66840  0.12620  Biso   1.000  C
  C112     1.0000 0.63419  0.82653  0.48035  Biso   1.000  C
  C113     1.0000 0.67760  0.76600  0.48020  Biso   1.000  C
  C114     1.0000 0.66840  0.71920  0.48620  Biso   1.000  C
  C115     1.0000 0.48035  0.05893  0.63419  Biso   1.000  C
  C116     1.0000 0.48020  0.07620  0.67760  Biso   1.000  C
  C117     1.0000 0.48620  0.12620  0.66840  Biso   1.000  C
  C118     1.0000 0.05893  0.48035  0.82653  Biso   1.000  C
  C119     1.0000 0.07620  0.48020  0.76600  Biso   1.000  C
  C120     1.0000 0.12620  0.48620  0.71920  Biso   1.000  C
  C121     1.0000 0.05893  0.63419  0.48035  Biso   1.000  C
  C122     1.0000 0.07620  0.67760  0.48020  Biso   1.000  C
  C123     1.0000 0.12620  0.66840  0.48620  Biso   1.000  C
  C124     1.0000 0.48035  0.82653  0.05893  Biso   1.000  C
  C125     1.0000 0.48020  0.76600  0.07620  Biso   1.000  C
  C126     1.0000 0.48620  0.71920  0.12620  Biso   1.000  C
  C127     1.0000 0.63419  0.05893  0.82653  Biso   1.000  C
  C128     1.0000 0.67760  0.07620  0.76600  Biso   1.000  C
  C129     1.0000 0.66840  0.12620  0.71920  Biso   1.000  C
  C130     1.0000 0.82653  0.48035  0.63419  Biso   1.000  C
  C131     1.0000 0.76600  0.48020  0.67760  Biso   1.000  C
  C132     1.0000 0.71920  0.48620  0.66840  Biso   1.000  C
  C133     1.0000 0.48035  0.63419  0.82653  Biso   1.000  C
  C134     1.0000 0.48020  0.67760  0.76600  Biso   1.000  C
  C135     1.0000 0.48620  0.66840  0.71920  Biso   1.000  C
  C136     1.0000 0.05893  0.82653  0.63419  Biso   1.000  C
  C137     1.0000 0.07620  0.76600  0.67760  Biso   1.000  C
  C138     1.0000 0.12620  0.71920  0.66840  Biso   1.000  C
  C139     1.0000 0.82653  0.05893  0.48035  Biso   1.000  C
  C140     1.0000 0.76600  0.07620  0.48020  Biso   1.000  C
  C141     1.0000 0.71920  0.12620  0.48620  Biso   1.000  C
  C142     1.0000 0.63419  0.48035  0.05893  Biso   1.000  C
  C143     1.0000 0.67760  0.48020  0.07620  Biso   1.000  C
  C144     1.0000 0.66840  0.48620  0.12620  Biso   1.000  C
  S1       1.0000 0.74888  0.74888  0.02838  Biso   1.000  S
  S2       1.0000 0.74888  0.74888  0.47386  Biso   1.000  S
  S3       1.0000 0.02838  0.47386  0.74888  Biso   1.000  S
  S4       1.0000 0.47386  0.02838  0.74888  Biso   1.000  S
  S5       1.0000 0.74888  0.02838  0.47386  Biso   1.000  S
  S6       1.0000 0.74888  0.47386  0.02838  Biso   1.000  S
  S7       1.0000 0.02838  0.74888  0.74888  Biso   1.000  S
  S8       1.0000 0.47386  0.74888  0.74888  Biso   1.000  S
  S9       1.0000 0.74888  0.47386  0.74888  Biso   1.000  S
  S10      1.0000 0.74888  0.02838  0.74888  Biso   1.000  S
  S11      1.0000 0.02838  0.74888  0.47386  Biso   1.000  S
  S12      1.0000 0.47386  0.74888  0.02838  Biso   1.000  S
  S13      1.0000 0.25112  0.25112  0.97162  Biso   1.000  S
  S14      1.0000 0.25112  0.25112  0.52614  Biso   1.000  S
  S15      1.0000 0.52614  0.97162  0.25112  Biso   1.000  S
  S16      1.0000 0.97162  0.52614  0.25112  Biso   1.000  S
  S17      1.0000 0.97162  0.25112  0.52614  Biso   1.000  S
  S18      1.0000 0.52614  0.25112  0.97162  Biso   1.000  S
  S19      1.0000 0.25112  0.97162  0.25112  Biso   1.000  S
  S20      1.0000 0.25112  0.52614  0.25112  Biso   1.000  S
  S21      1.0000 0.52614  0.25112  0.25112  Biso   1.000  S
  S22      1.0000 0.97162  0.25112  0.25112  Biso   1.000  S
  S23      1.0000 0.25112  0.97162  0.52614  Biso   1.000  S
  S24      1.0000 0.25112  0.52614  0.97162  Biso   1.000  S
  O1       1.0000 0.65261  0.86267  0.00891  Biso   1.000  O
  O2       1.0000 0.58225  0.83541  0.09649  Biso   1.000  O
  O3       1.0000 0.86267  0.65261  0.47581  Biso   1.000  O
  O4       1.0000 0.83541  0.58225  0.48585  Biso   1.000  O
  O5       1.0000 0.00891  0.47581  0.65261  Biso   1.000  O
  O6       1.0000 0.09649  0.48585  0.58225  Biso   1.000  O
  O7       1.0000 0.47581  0.00891  0.86267  Biso   1.000  O
  O8       1.0000 0.48585  0.09649  0.83541  Biso   1.000  O
  O9       1.0000 0.65261  0.00891  0.47581  Biso   1.000  O
  O10      1.0000 0.58225  0.09649  0.48585  Biso   1.000  O
  O11      1.0000 0.86267  0.47581  0.00891  Biso   1.000  O
  O12      1.0000 0.83541  0.48585  0.09649  Biso   1.000  O
  O13      1.0000 0.00891  0.65261  0.86267  Biso   1.000  O
  O14      1.0000 0.09649  0.58225  0.83541  Biso   1.000  O
  O15      1.0000 0.47581  0.86267  0.65261  Biso   1.000  O
  O16      1.0000 0.48585  0.83541  0.58225  Biso   1.000  O
  O17      1.0000 0.65261  0.47581  0.86267  Biso   1.000  O
  O18      1.0000 0.58225  0.48585  0.83541  Biso   1.000  O
  O19      1.0000 0.86267  0.00891  0.65261  Biso   1.000  O
  O20      1.0000 0.83541  0.09649  0.58225  Biso   1.000  O
  O21      1.0000 0.00891  0.86267  0.47581  Biso   1.000  O
  O22      1.0000 0.09649  0.83541  0.48585  Biso   1.000  O
  O23      1.0000 0.47581  0.65261  0.00891  Biso   1.000  O
  O24      1.0000 0.48585  0.58225  0.09649  Biso   1.000  O
  O25      1.0000 0.13733  0.34739  0.99109  Biso   1.000  O
  O26      1.0000 0.16459  0.41775  0.90351  Biso   1.000  O
  O27      1.0000 0.34739  0.13733  0.52419  Biso   1.000  O
  O28      1.0000 0.41775  0.16459  0.51415  Biso   1.000  O
  O29      1.0000 0.52419  0.99109  0.34739  Biso   1.000  O
  O30      1.0000 0.51415  0.90351  0.41775  Biso   1.000  O
  O31      1.0000 0.99109  0.52419  0.13733  Biso   1.000  O
  O32      1.0000 0.90351  0.51415  0.16459  Biso   1.000  O
  O33      1.0000 0.99109  0.34739  0.52419  Biso   1.000  O
  O34      1.0000 0.90351  0.41775  0.51415  Biso   1.000  O
  O35      1.0000 0.52419  0.13733  0.99109  Biso   1.000  O
  O36      1.0000 0.51415  0.16459  0.90351  Biso   1.000  O
  O37      1.0000 0.34739  0.99109  0.13733  Biso   1.000  O
  O38      1.0000 0.41775  0.90351  0.16459  Biso   1.000  O
  O39      1.0000 0.13733  0.52419  0.34739  Biso   1.000  O
  O40      1.0000 0.16459  0.51415  0.41775  Biso   1.000  O
  O41      1.0000 0.52419  0.34739  0.13733  Biso   1.000  O
  O42      1.0000 0.51415  0.41775  0.16459  Biso   1.000  O
  O43      1.0000 0.99109  0.13733  0.34739  Biso   1.000  O
  O44      1.0000 0.90351  0.16459  0.41775  Biso   1.000  O
  O45      1.0000 0.13733  0.99109  0.52419  Biso   1.000  O
  O46      1.0000 0.16459  0.90351  0.51415  Biso   1.000  O
  O47      1.0000 0.34739  0.52419  0.99109  Biso   1.000  O
  O48      1.0000 0.41775  0.51415  0.90351  Biso   1.000  O
  O49      1.0000 0.34739  0.13733  0.99109  Biso   1.000  O
  O50      1.0000 0.41775  0.16459  0.90351  Biso   1.000  O
  O51      1.0000 0.13733  0.34739  0.52419  Biso   1.000  O
  O52      1.0000 0.16459  0.41775  0.51415  Biso   1.000  O
  O53      1.0000 0.99109  0.52419  0.34739  Biso   1.000  O
  O54      1.0000 0.90351  0.51415  0.41775  Biso   1.000  O
  O55      1.0000 0.52419  0.99109  0.13733  Biso   1.000  O
  O56      1.0000 0.51415  0.90351  0.16459  Biso   1.000  O
  O57      1.0000 0.34739  0.99109  0.52419  Biso   1.000  O
  O58      1.0000 0.41775  0.90351  0.51415  Biso   1.000  O
  O59      1.0000 0.13733  0.52419  0.99109  Biso   1.000  O
  O60      1.0000 0.16459  0.51415  0.90351  Biso   1.000  O
  O61      1.0000 0.99109  0.34739  0.13733  Biso   1.000  O
  O62      1.0000 0.90351  0.41775  0.16459  Biso   1.000  O
  O63      1.0000 0.52419  0.13733  0.34739  Biso   1.000  O
  O64      1.0000 0.51415  0.16459  0.41775  Biso   1.000  O
  O65      1.0000 0.34739  0.52419  0.13733  Biso   1.000  O
  O66      1.0000 0.41775  0.51415  0.16459  Biso   1.000  O
  O67      1.0000 0.13733  0.99109  0.34739  Biso   1.000  O
  O68      1.0000 0.16459  0.90351  0.41775  Biso   1.000  O
  O69      1.0000 0.99109  0.13733  0.52419  Biso   1.000  O
  O70      1.0000 0.90351  0.16459  0.51415  Biso   1.000  O
  O71      1.0000 0.52419  0.34739  0.99109  Biso   1.000  O
  O72      1.0000 0.51415  0.41775  0.90351  Biso   1.000  O
  O73      1.0000 0.86267  0.65261  0.00891  Biso   1.000  O
  O74      1.0000 0.83541  0.58225  0.09649  Biso   1.000  O
  O75      1.0000 0.65261  0.86267  0.47581  Biso   1.000  O
  O76      1.0000 0.58225  0.83541  0.48585  Biso   1.000  O
  O77      1.0000 0.47581  0.00891  0.65261  Biso   1.000  O
  O78      1.0000 0.48585  0.09649  0.58225  Biso   1.000  O
  O79      1.0000 0.00891  0.47581  0.86267  Biso   1.000  O
  O80      1.0000 0.09649  0.48585  0.83541  Biso   1.000  O
  O81      1.0000 0.00891  0.65261  0.47581  Biso   1.000  O
  O82      1.0000 0.09649  0.58225  0.48585  Biso   1.000  O
  O83      1.0000 0.47581  0.86267  0.00891  Biso   1.000  O
  O84      1.0000 0.48585  0.83541  0.09649  Biso   1.000  O
  O85      1.0000 0.65261  0.00891  0.86267  Biso   1.000  O
  O86      1.0000 0.58225  0.09649  0.83541  Biso   1.000  O
  O87      1.0000 0.86267  0.47581  0.65261  Biso   1.000  O
  O88      1.0000 0.83541  0.48585  0.58225  Biso   1.000  O
  O89      1.0000 0.47581  0.65261  0.86267  Biso   1.000  O
  O90      1.0000 0.48585  0.58225  0.83541  Biso   1.000  O
  O91      1.0000 0.00891  0.86267  0.65261  Biso   1.000  O
  O92      1.0000 0.09649  0.83541  0.58225  Biso   1.000  O
  O93      1.0000 0.86267  0.00891  0.47581  Biso   1.000  O
  O94      1.0000 0.83541  0.09649  0.48585  Biso   1.000  O
  O95      1.0000 0.65261  0.47581  0.00891  Biso   1.000  O
  O96      1.0000 0.58225  0.48585  0.09649  Biso   1.000  O
  O97      1.0000 0.59904  0.04270  0.04270  Biso   1.000  O
  O98      1.0000 0.45326  0.10054  0.10054  Biso   1.000  O
  O99      1.0000 0.04270  0.59904  0.31556  Biso   1.000  O
  O100     1.0000 0.10054  0.45326  0.34566  Biso   1.000  O
  O101     1.0000 0.04270  0.31556  0.59904  Biso   1.000  O
  O102     1.0000 0.10054  0.34566  0.45326  Biso   1.000  O
  O103     1.0000 0.31556  0.04270  0.04270  Biso   1.000  O
  O104     1.0000 0.34566  0.10054  0.10054  Biso   1.000  O
  O105     1.0000 0.59904  0.04270  0.31556  Biso   1.000  O
  O106     1.0000 0.45326  0.10054  0.34566  Biso   1.000  O
  O107     1.0000 0.04270  0.31556  0.04270  Biso   1.000  O
  O108     1.0000 0.10054  0.34566  0.10054  Biso   1.000  O
  O109     1.0000 0.04270  0.59904  0.04270  Biso   1.000  O
  O110     1.0000 0.10054  0.45326  0.10054  Biso   1.000  O
  O111     1.0000 0.31556  0.04270  0.59904  Biso   1.000  O
  O112     1.0000 0.34566  0.10054  0.45326  Biso   1.000  O
  O113     1.0000 0.59904  0.31556  0.04270  Biso   1.000  O
  O114     1.0000 0.45326  0.34566  0.10054  Biso   1.000  O
  O115     1.0000 0.04270  0.04270  0.59904  Biso   1.000  O
  O116     1.0000 0.10054  0.10054  0.45326  Biso   1.000  O
  O117     1.0000 0.04270  0.04270  0.31556  Biso   1.000  O
  O118     1.0000 0.10054  0.10054  0.34566  Biso   1.000  O
  O119     1.0000 0.31556  0.59904  0.04270  Biso   1.000  O
  O120     1.0000 0.34566  0.45326  0.10054  Biso   1.000  O
  O121     1.0000 0.95730  0.40096  0.95730  Biso   1.000  O
  O122     1.0000 0.89946  0.54674  0.89946  Biso   1.000  O
  O123     1.0000 0.40096  0.95730  0.68444  Biso   1.000  O
  O124     1.0000 0.54674  0.89946  0.65434  Biso   1.000  O
  O125     1.0000 0.68444  0.95730  0.40096  Biso   1.000  O
  O126     1.0000 0.65434  0.89946  0.54674  Biso   1.000  O
  O127     1.0000 0.95730  0.68444  0.95730  Biso   1.000  O
  O128     1.0000 0.89946  0.65434  0.89946  Biso   1.000  O
  O129     1.0000 0.95730  0.40096  0.68444  Biso   1.000  O
  O130     1.0000 0.89946  0.54674  0.65434  Biso   1.000  O
  O131     1.0000 0.68444  0.95730  0.95730  Biso   1.000  O
  O132     1.0000 0.65434  0.89946  0.89946  Biso   1.000  O
  O133     1.0000 0.40096  0.95730  0.95730  Biso   1.000  O
  O134     1.0000 0.54674  0.89946  0.89946  Biso   1.000  O
  O135     1.0000 0.95730  0.68444  0.40096  Biso   1.000  O
  O136     1.0000 0.89946  0.65434  0.54674  Biso   1.000  O
  O137     1.0000 0.68444  0.40096  0.95730  Biso   1.000  O
  O138     1.0000 0.65434  0.54674  0.89946  Biso   1.000  O
  O139     1.0000 0.95730  0.95730  0.40096  Biso   1.000  O
  O140     1.0000 0.89946  0.89946  0.54674  Biso   1.000  O
  O141     1.0000 0.95730  0.95730  0.68444  Biso   1.000  O
  O142     1.0000 0.89946  0.89946  0.65434  Biso   1.000  O
  O143     1.0000 0.40096  0.68444  0.95730  Biso   1.000  O
  O144     1.0000 0.54674  0.65434  0.89946  Biso   1.000  O
  O145     1.0000 0.56407  0.95687  0.04313  Biso   1.000  O
  O146     1.0000 0.95687  0.56407  0.43593  Biso   1.000  O
  O147     1.0000 0.04313  0.43593  0.56407  Biso   1.000  O
  O148     1.0000 0.43593  0.04313  0.95687  Biso   1.000  O
  O149     1.0000 0.56407  0.04313  0.43593  Biso   1.000  O
  O150     1.0000 0.95687  0.43593  0.04313  Biso   1.000  O
  O151     1.0000 0.04313  0.56407  0.95687  Biso   1.000  O
  O152     1.0000 0.43593  0.95687  0.56407  Biso   1.000  O
  O153     1.0000 0.56407  0.43593  0.95687  Biso   1.000  O
  O154     1.0000 0.95687  0.04313  0.56407  Biso   1.000  O
  O155     1.0000 0.04313  0.95687  0.43593  Biso   1.000  O
  O156     1.0000 0.43593  0.56407  0.04313  Biso   1.000  O
  O157     1.0000 0.04313  0.43593  0.95687  Biso   1.000  O
  O158     1.0000 0.43593  0.04313  0.56407  Biso   1.000  O
  O159     1.0000 0.56407  0.95687  0.43593  Biso   1.000  O
  O160     1.0000 0.95687  0.56407  0.04313  Biso   1.000  O
  O161     1.0000 0.95687  0.43593  0.56407  Biso   1.000  O
  O162     1.0000 0.56407  0.04313  0.95687  Biso   1.000  O
  O163     1.0000 0.43593  0.95687  0.04313  Biso   1.000  O
  O164     1.0000 0.04313  0.56407  0.43593  Biso   1.000  O
  O165     1.0000 0.56407  0.43593  0.04313  Biso   1.000  O
  O166     1.0000 0.95687  0.04313  0.43593  Biso   1.000  O
  O167     1.0000 0.04313  0.95687  0.56407  Biso   1.000  O
  O168     1.0000 0.43593  0.56407  0.95687  Biso   1.000  O
  O169     1.0000 0.45580  0.00064  0.08776  Biso   1.000  O
  O170     1.0000 0.00064  0.45580  0.45580  Biso   1.000  O
  O171     1.0000 0.08776  0.45580  0.45580  Biso   1.000  O
  O172     1.0000 0.45580  0.08776  0.00064  Biso   1.000  O
  O173     1.0000 0.45580  0.08776  0.45580  Biso   1.000  O
  O174     1.0000 0.00064  0.45580  0.08776  Biso   1.000  O
  O175     1.0000 0.08776  0.45580  0.00064  Biso   1.000  O
  O176     1.0000 0.45580  0.00064  0.45580  Biso   1.000  O
  O177     1.0000 0.45580  0.45580  0.00064  Biso   1.000  O
  O178     1.0000 0.00064  0.08776  0.45580  Biso   1.000  O
  O179     1.0000 0.08776  0.00064  0.45580  Biso   1.000  O
  O180     1.0000 0.45580  0.45580  0.08776  Biso   1.000  O
  O181     1.0000 0.99936  0.54420  0.91224  Biso   1.000  O
  O182     1.0000 0.54420  0.99936  0.54420  Biso   1.000  O
  O183     1.0000 0.54420  0.91224  0.54420  Biso   1.000  O
  O184     1.0000 0.91224  0.54420  0.99936  Biso   1.000  O
  O185     1.0000 0.91224  0.54420  0.54420  Biso   1.000  O
  O186     1.0000 0.54420  0.99936  0.91224  Biso   1.000  O
  O187     1.0000 0.54420  0.91224  0.99936  Biso   1.000  O
  O188     1.0000 0.99936  0.54420  0.54420  Biso   1.000  O
  O189     1.0000 0.54420  0.54420  0.99936  Biso   1.000  O
  O190     1.0000 0.91224  0.99936  0.54420  Biso   1.000  O
  O191     1.0000 0.99936  0.91224  0.54420  Biso   1.000  O
  O192     1.0000 0.54420  0.54420  0.91224  Biso   1.000  O
