data_image0
_cell_length_a       11.721
_cell_length_b       14.9546
_cell_length_c       14.9546
_cell_angle_alpha    96.4485
_cell_angle_beta     107.06
_cell_angle_gamma    107.06

_symmetry_space_group_name_H-M    P 1
_symmetry_int_tables_number       1

loop_
  _symmetry_equiv_pos_as_xyz
  'x, y, z'

loop_
  _atom_site_label
  _atom_site_occupancy
  _atom_site_fract_x
  _atom_site_fract_y
  _atom_site_fract_z
  _atom_site_thermal_displace_type
  _atom_site_B_iso_or_equiv
  _atom_site_type_symbol
  Zn1      1.0000 0.88190  0.80543  0.56081  Biso   1.000  Zn
  Zn2      1.0000 0.88190  0.56081  0.80543  Biso   1.000  Zn
  H1       1.0000 0.08050  0.74040  0.50980  Biso   1.000  H
  H2       1.0000 0.29300  0.79570  0.53070  Biso   1.000  H
  H3       1.0000 0.31480  0.05030  0.66150  Biso   1.000  H
  H4       1.0000 0.10490  0.98870  0.63950  Biso   1.000  H
  H5       1.0000 0.49550  0.84690  0.56850  Biso   1.000  H
  H6       1.0000 0.80740  0.08260  0.65760  Biso   1.000  H
  H7       1.0000 0.95160  0.37980  0.84800  Biso   1.000  H
  H8       1.0000 0.87160  0.21650  0.79510  Biso   1.000  H
  H9       1.0000 0.55490  0.24390  0.62450  Biso   1.000  H
  H10      1.0000 0.64460  0.40490  0.67810  Biso   1.000  H
  H11      1.0000 0.08050  0.50980  0.74040  Biso   1.000  H
  H12      1.0000 0.29300  0.53070  0.79570  Biso   1.000  H
  H13      1.0000 0.31480  0.66150  0.05030  Biso   1.000  H
  H14      1.0000 0.10490  0.63950  0.98870  Biso   1.000  H
  H15      1.0000 0.49550  0.56850  0.84690  Biso   1.000  H
  H16      1.0000 0.80740  0.65760  0.08260  Biso   1.000  H
  H17      1.0000 0.95160  0.84800  0.37980  Biso   1.000  H
  H18      1.0000 0.87160  0.79510  0.21650  Biso   1.000  H
  H19      1.0000 0.55490  0.62450  0.24390  Biso   1.000  H
  H20      1.0000 0.64460  0.67810  0.40490  Biso   1.000  H
  C1       1.0000 0.12860  0.80370  0.54130  Biso   1.000  C
  C2       1.0000 0.25660  0.83660  0.55340  Biso   1.000  C
  C3       1.0000 0.33030  0.93040  0.59960  Biso   1.000  C
  C4       1.0000 0.26950  0.98650  0.63070  Biso   1.000  C
  C5       1.0000 0.14310  0.94910  0.61690  Biso   1.000  C
  C6       1.0000 0.46840  0.97110  0.61350  Biso   1.000  C
  C7       1.0000 0.53590  0.91260  0.59220  Biso   1.000  C
  C8       1.0000 0.66380  0.95550  0.60710  Biso   1.000  C
  C9       1.0000 0.72100  0.05270  0.64530  Biso   1.000  C
  C10      1.0000 0.64790  0.10550  0.66490  Biso   1.000  C
  C11      1.0000 0.87120  0.35180  0.80140  Biso   1.000  C
  C12      1.0000 0.82360  0.25350  0.77050  Biso   1.000  C
  C13      1.0000 0.70290  0.21030  0.70190  Biso   1.000  C
  C14      1.0000 0.63670  0.27000  0.66920  Biso   1.000  C
  C15      1.0000 0.69060  0.36650  0.70230  Biso   1.000  C
  C16      1.0000 0.74040  0.89620  0.58340  Biso   1.000  C
  C17      1.0000 0.12860  0.54130  0.80370  Biso   1.000  C
  C18      1.0000 0.25660  0.55340  0.83660  Biso   1.000  C
  C19      1.0000 0.33030  0.59960  0.93040  Biso   1.000  C
  C20      1.0000 0.26950  0.63070  0.98650  Biso   1.000  C
  C21      1.0000 0.14310  0.61690  0.94910  Biso   1.000  C
  C22      1.0000 0.46840  0.61350  0.97110  Biso   1.000  C
  C23      1.0000 0.53590  0.59220  0.91260  Biso   1.000  C
  C24      1.0000 0.66380  0.60710  0.95550  Biso   1.000  C
  C25      1.0000 0.72100  0.64530  0.05270  Biso   1.000  C
  C26      1.0000 0.64790  0.66490  0.10550  Biso   1.000  C
  C27      1.0000 0.87120  0.80140  0.35180  Biso   1.000  C
  C28      1.0000 0.82360  0.77050  0.25350  Biso   1.000  C
  C29      1.0000 0.70290  0.70190  0.21030  Biso   1.000  C
  C30      1.0000 0.63670  0.66920  0.27000  Biso   1.000  C
  C31      1.0000 0.69060  0.70230  0.36650  Biso   1.000  C
  C32      1.0000 0.74040  0.58340  0.89620  Biso   1.000  C
  C33      1.0000 0.91240  0.72740  0.72740  Biso   1.000  C
  C34      1.0000 0.86670  0.64180  0.64180  Biso   1.000  C
  N1       1.0000 0.07160  0.85878  0.57278  Biso   1.000  N
  N2       1.0000 0.52300  0.06523  0.64837  Biso   1.000  N
  N3       1.0000 0.80740  0.40898  0.76808  Biso   1.000  N
  N4       1.0000 0.07160  0.57278  0.85878  Biso   1.000  N
  N5       1.0000 0.52300  0.64837  0.06523  Biso   1.000  N
  N6       1.0000 0.80740  0.76808  0.40898  Biso   1.000  N
  O1       1.0000 0.68980  0.80780  0.55960  Biso   1.000  O
  O2       1.0000 0.85200  0.93956  0.58828  Biso   1.000  O
  O3       1.0000 0.92930  0.80817  0.70865  Biso   1.000  O
  O4       1.0000 0.85000  0.65988  0.55982  Biso   1.000  O
  O5       1.0000 0.68980  0.55960  0.80780  Biso   1.000  O
  O6       1.0000 0.85200  0.58828  0.93956  Biso   1.000  O
  O7       1.0000 0.92930  0.70865  0.80817  Biso   1.000  O
  O8       1.0000 0.85000  0.55982  0.65988  Biso   1.000  O
  Zn3      1.0000 0.11810  0.43919  0.19457  Biso   1.000  Zn
  Zn4      1.0000 0.11810  0.19457  0.43919  Biso   1.000  Zn
  H21      1.0000 0.91950  0.49020  0.25960  Biso   1.000  H
  H22      1.0000 0.70700  0.46930  0.20430  Biso   1.000  H
  H23      1.0000 0.68520  0.33850  0.94970  Biso   1.000  H
  H24      1.0000 0.89510  0.36050  0.01130  Biso   1.000  H
  H25      1.0000 0.50450  0.43150  0.15310  Biso   1.000  H
  H26      1.0000 0.19260  0.34240  0.91740  Biso   1.000  H
  H27      1.0000 0.04840  0.15200  0.62020  Biso   1.000  H
  H28      1.0000 0.12840  0.20490  0.78350  Biso   1.000  H
  H29      1.0000 0.44510  0.37550  0.75610  Biso   1.000  H
  H30      1.0000 0.35540  0.32190  0.59510  Biso   1.000  H
  H31      1.0000 0.91950  0.25960  0.49020  Biso   1.000  H
  H32      1.0000 0.70700  0.20430  0.46930  Biso   1.000  H
  H33      1.0000 0.68520  0.94970  0.33850  Biso   1.000  H
  H34      1.0000 0.89510  0.01130  0.36050  Biso   1.000  H
  H35      1.0000 0.50450  0.15310  0.43150  Biso   1.000  H
  H36      1.0000 0.19260  0.91740  0.34240  Biso   1.000  H
  H37      1.0000 0.04840  0.62020  0.15200  Biso   1.000  H
  H38      1.0000 0.12840  0.78350  0.20490  Biso   1.000  H
  H39      1.0000 0.44510  0.75610  0.37550  Biso   1.000  H
  H40      1.0000 0.35540  0.59510  0.32190  Biso   1.000  H
  C35      1.0000 0.87140  0.45870  0.19630  Biso   1.000  C
  C36      1.0000 0.74340  0.44660  0.16340  Biso   1.000  C
  C37      1.0000 0.66970  0.40040  0.06960  Biso   1.000  C
  C38      1.0000 0.73050  0.36930  0.01350  Biso   1.000  C
  C39      1.0000 0.85690  0.38310  0.05090  Biso   1.000  C
  C40      1.0000 0.53160  0.38650  0.02890  Biso   1.000  C
  C41      1.0000 0.46410  0.40780  0.08740  Biso   1.000  C
  C42      1.0000 0.33620  0.39290  0.04450  Biso   1.000  C
  C43      1.0000 0.27900  0.35470  0.94730  Biso   1.000  C
  C44      1.0000 0.35210  0.33510  0.89450  Biso   1.000  C
  C45      1.0000 0.12880  0.19860  0.64820  Biso   1.000  C
  C46      1.0000 0.17640  0.22950  0.74650  Biso   1.000  C
  C47      1.0000 0.29710  0.29810  0.78970  Biso   1.000  C
  C48      1.0000 0.36330  0.33080  0.73000  Biso   1.000  C
  C49      1.0000 0.30940  0.29770  0.63350  Biso   1.000  C
  C50      1.0000 0.25960  0.41660  0.10380  Biso   1.000  C
  C51      1.0000 0.87140  0.19630  0.45870  Biso   1.000  C
  C52      1.0000 0.74340  0.16340  0.44660  Biso   1.000  C
  C53      1.0000 0.66970  0.06960  0.40040  Biso   1.000  C
  C54      1.0000 0.73050  0.01350  0.36930  Biso   1.000  C
  C55      1.0000 0.85690  0.05090  0.38310  Biso   1.000  C
  C56      1.0000 0.53160  0.02890  0.38650  Biso   1.000  C
  C57      1.0000 0.46410  0.08740  0.40780  Biso   1.000  C
  C58      1.0000 0.33620  0.04450  0.39290  Biso   1.000  C
  C59      1.0000 0.27900  0.94730  0.35470  Biso   1.000  C
  C60      1.0000 0.35210  0.89450  0.33510  Biso   1.000  C
  C61      1.0000 0.12880  0.64820  0.19860  Biso   1.000  C
  C62      1.0000 0.17640  0.74650  0.22950  Biso   1.000  C
  C63      1.0000 0.29710  0.78970  0.29810  Biso   1.000  C
  C64      1.0000 0.36330  0.73000  0.33080  Biso   1.000  C
  C65      1.0000 0.30940  0.63350  0.29770  Biso   1.000  C
  C66      1.0000 0.25960  0.10380  0.41660  Biso   1.000  C
  C67      1.0000 0.08760  0.27260  0.27260  Biso   1.000  C
  C68      1.0000 0.13330  0.35820  0.35820  Biso   1.000  C
  N7       1.0000 0.92840  0.42722  0.14122  Biso   1.000  N
  N8       1.0000 0.47700  0.35163  0.93477  Biso   1.000  N
  N9       1.0000 0.19260  0.23192  0.59102  Biso   1.000  N
  N10      1.0000 0.92840  0.14122  0.42722  Biso   1.000  N
  N11      1.0000 0.47700  0.93477  0.35163  Biso   1.000  N
  N12      1.0000 0.19260  0.59102  0.23192  Biso   1.000  N
  O9       1.0000 0.31020  0.44040  0.19220  Biso   1.000  O
  O10      1.0000 0.14800  0.41172  0.06044  Biso   1.000  O
  O11      1.0000 0.07070  0.29135  0.19183  Biso   1.000  O
  O12      1.0000 0.15000  0.44018  0.34012  Biso   1.000  O
  O13      1.0000 0.31020  0.19220  0.44040  Biso   1.000  O
  O14      1.0000 0.14800  0.06044  0.41172  Biso   1.000  O
  O15      1.0000 0.07070  0.19183  0.29135  Biso   1.000  O
  O16      1.0000 0.15000  0.34012  0.44018  Biso   1.000  O
