data_image0
_cell_length_a       14.809
_cell_length_b       19.3008
_cell_length_c       31.842
_cell_angle_alpha    101.76
_cell_angle_beta     90
_cell_angle_gamma    112.559

_symmetry_space_group_name_H-M    P 1
_symmetry_int_tables_number       1

loop_
  _symmetry_equiv_pos_as_xyz
  'x, y, z'

loop_
  _atom_site_label
  _atom_site_occupancy
  _atom_site_fract_x
  _atom_site_fract_y
  _atom_site_fract_z
  _atom_site_thermal_displace_type
  _atom_site_B_iso_or_equiv
  _atom_site_type_symbol
  Zn1      1.0000 0.21590  0.25200  0.56284  Biso   1.000  Zn
  Zn2      1.0000 0.70745  0.67294  0.73189  Biso   1.000  Zn
  Zn3      1.0000 0.28250  0.82084  0.41934  Biso   1.000  Zn
  Zn4      1.0000 0.03610  0.25200  0.06284  Biso   1.000  Zn
  Zn5      1.0000 0.96549  0.67294  0.23189  Biso   1.000  Zn
  Zn6      1.0000 0.53834  0.82084  0.91934  Biso   1.000  Zn
  H1       1.0000 0.63190  0.97160  0.48360  Biso   1.000  H
  H2       1.0000 0.59360  0.74100  0.60340  Biso   1.000  H
  H3       1.0000 0.58580  0.67180  0.65570  Biso   1.000  H
  H4       1.0000 0.34880  0.75960  0.48620  Biso   1.000  H
  H5       1.0000 0.48920  0.77900  0.52790  Biso   1.000  H
  H6       1.0000 0.87630  0.87040  0.64650  Biso   1.000  H
  H7       1.0000 0.48730  0.94740  0.44450  Biso   1.000  H
  H8       1.0000 0.51160  0.68280  0.84460  Biso   1.000  H
  H9       1.0000 0.40020  0.60700  0.78560  Biso   1.000  H
  H10      1.0000 0.33370  0.78200  0.88860  Biso   1.000  H
  H11      1.0000 0.91150  0.73500  0.77280  Biso   1.000  H
  H12      1.0000 0.31490  0.47040  0.69430  Biso   1.000  H
  H13      1.0000 0.32890  0.37080  0.64400  Biso   1.000  H
  H14      1.0000 0.07280  0.32480  0.58440  Biso   1.000  H
  H15      1.0000 0.05020  0.70740  0.77310  Biso   1.000  H
  H16      1.0000 0.77300  0.54780  0.68370  Biso   1.000  H
  H17      1.0000 0.04890  0.42000  0.63470  Biso   1.000  H
  H18      1.0000 0.21820  0.70940  0.83130  Biso   1.000  H
  H19      1.0000 0.90840  0.51700  0.68050  Biso   1.000  H
  H20      1.0000 0.89450  0.03800  0.49690  Biso   1.000  H
  H21      1.0000 0.96300  0.04880  0.62070  Biso   1.000  H
  H22      1.0000 0.10110  0.15740  0.62090  Biso   1.000  H
  H23      1.0000 0.03670  0.14720  0.49980  Biso   1.000  H
  H24      1.0000 0.85960  0.79720  0.69760  Biso   1.000  H
  H25      1.0000 0.33970  0.97160  0.98360  Biso   1.000  H
  H26      1.0000 0.14740  0.74100  0.10340  Biso   1.000  H
  H27      1.0000 0.08600  0.67180  0.15570  Biso   1.000  H
  H28      1.0000 0.41080  0.75960  0.98620  Biso   1.000  H
  H29      1.0000 0.28980  0.77900  0.02790  Biso   1.000  H
  H30      1.0000 0.99410  0.87040  0.14650  Biso   1.000  H
  H31      1.0000 0.46010  0.94740  0.94450  Biso   1.000  H
  H32      1.0000 0.17120  0.68280  0.34460  Biso   1.000  H
  H33      1.0000 0.20680  0.60700  0.28560  Biso   1.000  H
  H34      1.0000 0.44830  0.78200  0.38860  Biso   1.000  H
  H35      1.0000 0.82350  0.73500  0.27280  Biso   1.000  H
  H36      1.0000 0.15550  0.47040  0.19430  Biso   1.000  H
  H37      1.0000 0.04190  0.37080  0.14400  Biso   1.000  H
  H38      1.0000 0.25200  0.32480  0.08440  Biso   1.000  H
  H39      1.0000 0.65720  0.70740  0.27310  Biso   1.000  H
  H40      1.0000 0.77480  0.54780  0.18370  Biso   1.000  H
  H41      1.0000 0.37110  0.42000  0.13470  Biso   1.000  H
  H42      1.0000 0.49120  0.70940  0.33130  Biso   1.000  H
  H43      1.0000 0.60860  0.51700  0.18050  Biso   1.000  H
  H44      1.0000 0.14350  0.03800  0.99690  Biso   1.000  H
  H45      1.0000 0.08580  0.04880  0.12070  Biso   1.000  H
  H46      1.0000 0.05630  0.15740  0.12090  Biso   1.000  H
  H47      1.0000 0.11050  0.14720  0.99980  Biso   1.000  H
  H48      1.0000 0.93760  0.79720  0.19760  Biso   1.000  H
  C1       1.0000 0.91521  0.03042  0.55801  Biso   1.000  C
  C2       1.0000 0.66700  0.88980  0.53604  Biso   1.000  C
  C3       1.0000 0.57635  0.87670  0.50985  Biso   1.000  C
  C4       1.0000 0.73921  0.86402  0.58906  Biso   1.000  C
  C5       1.0000 0.82529  0.96158  0.55810  Biso   1.000  C
  C6       1.0000 0.73409  0.81558  0.62053  Biso   1.000  C
  C7       1.0000 0.57460  0.92740  0.48468  Biso   1.000  C
  C8       1.0000 0.64926  0.75472  0.62291  Biso   1.000  C
  C9       1.0000 0.64555  0.71350  0.65411  Biso   1.000  C
  C10      1.0000 0.40732  0.80304  0.48570  Biso   1.000  C
  C11      1.0000 0.49096  0.81412  0.51059  Biso   1.000  C
  C12      1.0000 0.81493  0.83046  0.64830  Biso   1.000  C
  C13      1.0000 0.48838  0.91236  0.46135  Biso   1.000  C
  C14      1.0000 0.45120  0.68860  0.84154  Biso   1.000  C
  C15      1.0000 0.38506  0.64312  0.80632  Biso   1.000  C
  C16      1.0000 0.34785  0.74630  0.86715  Biso   1.000  C
  C17      1.0000 0.91080  0.68960  0.75406  Biso   1.000  C
  C18      1.0000 0.26360  0.44060  0.67225  Biso   1.000  C
  C19      1.0000 0.22498  0.60856  0.76429  Biso   1.000  C
  C20      1.0000 0.16719  0.51738  0.70310  Biso   1.000  C
  C21      1.0000 0.27183  0.38146  0.64192  Biso   1.000  C
  C22      1.0000 0.17972  0.45604  0.67021  Biso   1.000  C
  C23      1.0000 0.12212  0.35424  0.60737  Biso   1.000  C
  C24      1.0000 0.99384  0.60788  0.72723  Biso   1.000  C
  C25      1.0000 0.99361  0.67362  0.75441  Biso   1.000  C
  C26      1.0000 0.08164  0.58908  0.72834  Biso   1.000  C
  C27      1.0000 0.83041  0.58082  0.70205  Biso   1.000  C
  C28      1.0000 0.29728  0.65116  0.80176  Biso   1.000  C
  C29      1.0000 0.10748  0.41136  0.63701  Biso   1.000  C
  C30      1.0000 0.27860  0.70320  0.83312  Biso   1.000  C
  C31      1.0000 0.91038  0.56176  0.70025  Biso   1.000  C
  C32      1.0000 0.93681  0.06102  0.52263  Biso   1.000  C
  C33      1.0000 0.97730  0.06780  0.59518  Biso   1.000  C
  C34      1.0000 0.05932  0.13224  0.59501  Biso   1.000  C
  C35      1.0000 0.02169  0.12638  0.52471  Biso   1.000  C
  C36      1.0000 0.80440  0.78620  0.67850  Biso   1.000  C
  C37      1.0000 0.11521  0.03042  0.05801  Biso   1.000  C
  C38      1.0000 0.22280  0.88980  0.03604  Biso   1.000  C
  C39      1.0000 0.30035  0.87670  0.00985  Biso   1.000  C
  C40      1.0000 0.12481  0.86402  0.08906  Biso   1.000  C
  C41      1.0000 0.13629  0.96158  0.05810  Biso   1.000  C
  C42      1.0000 0.08149  0.81558  0.12053  Biso   1.000  C
  C43      1.0000 0.35280  0.92740  0.98468  Biso   1.000  C
  C44      1.0000 0.10546  0.75472  0.12291  Biso   1.000  C
  C45      1.0000 0.06795  0.71350  0.15411  Biso   1.000  C
  C46      1.0000 0.39572  0.80304  0.98570  Biso   1.000  C
  C47      1.0000 0.32316  0.81412  0.01059  Biso   1.000  C
  C48      1.0000 0.01553  0.83046  0.14830  Biso   1.000  C
  C49      1.0000 0.42398  0.91236  0.96135  Biso   1.000  C
  C50      1.0000 0.23740  0.68860  0.34154  Biso   1.000  C
  C51      1.0000 0.25806  0.64312  0.30632  Biso   1.000  C
  C52      1.0000 0.39845  0.74630  0.36715  Biso   1.000  C
  C53      1.0000 0.77880  0.68960  0.25406  Biso   1.000  C
  C54      1.0000 0.17700  0.44060  0.17225  Biso   1.000  C
  C55      1.0000 0.38358  0.60856  0.26429  Biso   1.000  C
  C56      1.0000 0.35019  0.51738  0.20310  Biso   1.000  C
  C57      1.0000 0.10963  0.38146  0.14192  Biso   1.000  C
  C58      1.0000 0.27632  0.45604  0.17021  Biso   1.000  C
  C59      1.0000 0.23212  0.35424  0.10737  Biso   1.000  C
  C60      1.0000 0.61404  0.60788  0.22723  Biso   1.000  C
  C61      1.0000 0.68001  0.67362  0.25441  Biso   1.000  C
  C62      1.0000 0.50744  0.58908  0.22834  Biso   1.000  C
  C63      1.0000 0.75041  0.58082  0.20205  Biso   1.000  C
  C64      1.0000 0.35388  0.65116  0.30176  Biso   1.000  C
  C65      1.0000 0.30388  0.41136  0.13701  Biso   1.000  C
  C66      1.0000 0.42460  0.70320  0.33312  Biso   1.000  C
  C67      1.0000 0.65138  0.56176  0.20025  Biso   1.000  C
  C68      1.0000 0.12421  0.06102  0.02263  Biso   1.000  C
  C69      1.0000 0.09050  0.06780  0.09518  Biso   1.000  C
  C70      1.0000 0.07292  0.13224  0.09501  Biso   1.000  C
  C71      1.0000 0.10469  0.12638  0.02471  Biso   1.000  C
  C72      1.0000 0.98180  0.78620  0.17850  Biso   1.000  C
  I1       1.0000 0.54822  0.55366  0.71115  Biso   1.000  I
  I2       1.0000 0.33644  0.20996  0.59701  Biso   1.000  I
  I3       1.0000 0.23051  0.29126  0.49103  Biso   1.000  I
  I4       1.0000 0.13416  0.74972  0.45638  Biso   1.000  I
  I5       1.0000 0.73088  0.76878  0.80285  Biso   1.000  I
  I6       1.0000 0.31154  0.93432  0.38463  Biso   1.000  I
  I7       1.0000 0.00544  0.55366  0.21115  Biso   1.000  I
  I8       1.0000 0.87352  0.20996  0.09701  Biso   1.000  I
  I9       1.0000 0.06075  0.29126  0.99103  Biso   1.000  I
  I10      1.0000 0.61556  0.74972  0.95638  Biso   1.000  I
  I11      1.0000 0.03790  0.76878  0.30285  Biso   1.000  I
  I12      1.0000 0.62278  0.93432  0.88463  Biso   1.000  I
  N1       1.0000 0.40633  0.85106  0.46122  Biso   1.000  N
  N2       1.0000 0.75024  0.94588  0.52985  Biso   1.000  N
  N3       1.0000 0.65717  0.84774  0.56521  Biso   1.000  N
  N4       1.0000 0.82467  0.92174  0.58822  Biso   1.000  N
  N5       1.0000 0.08318  0.16116  0.56033  Biso   1.000  N
  N6       1.0000 0.72130  0.72920  0.68198  Biso   1.000  N
  N7       1.0000 0.82933  0.64386  0.72845  Biso   1.000  N
  N8       1.0000 0.08831  0.53342  0.69754  Biso   1.000  N
  N9       1.0000 0.23733  0.55206  0.73583  Biso   1.000  N
  N10      1.0000 0.20174  0.33828  0.60942  Biso   1.000  N
  N11      1.0000 0.43341  0.74022  0.87132  Biso   1.000  N
  N12      1.0000 0.14819  0.62878  0.76187  Biso   1.000  N
  N13      1.0000 0.44473  0.85106  0.96122  Biso   1.000  N
  N14      1.0000 0.19564  0.94588  0.02985  Biso   1.000  N
  N15      1.0000 0.19057  0.84774  0.06521  Biso   1.000  N
  N16      1.0000 0.09707  0.92174  0.08822  Biso   1.000  N
  N17      1.0000 0.07798  0.16116  0.06033  Biso   1.000  N
  N18      1.0000 0.00790  0.72920  0.18198  Biso   1.000  N
  N19      1.0000 0.81453  0.64386  0.22845  Biso   1.000  N
  N20      1.0000 0.44511  0.53342  0.19754  Biso   1.000  N
  N21      1.0000 0.31473  0.55206  0.23583  Biso   1.000  N
  N22      1.0000 0.13654  0.33828  0.10942  Biso   1.000  N
  N23      1.0000 0.30681  0.74022  0.37132  Biso   1.000  N
  N24      1.0000 0.48059  0.62878  0.26187  Biso   1.000  N
  Zn7      1.0000 0.96390  0.74800  0.93716  Biso   1.000  Zn
  Zn8      1.0000 0.03451  0.32706  0.76811  Biso   1.000  Zn
  Zn9      1.0000 0.46166  0.17916  0.08066  Biso   1.000  Zn
  Zn10     1.0000 0.78410  0.74800  0.43716  Biso   1.000  Zn
  Zn11     1.0000 0.29255  0.32706  0.26811  Biso   1.000  Zn
  Zn12     1.0000 0.71750  0.17916  0.58066  Biso   1.000  Zn
  H49      1.0000 0.66030  0.02840  0.01640  Biso   1.000  H
  H50      1.0000 0.85260  0.25900  0.89660  Biso   1.000  H
  H51      1.0000 0.91400  0.32820  0.84430  Biso   1.000  H
  H52      1.0000 0.58920  0.24040  0.01380  Biso   1.000  H
  H53      1.0000 0.71020  0.22100  0.97210  Biso   1.000  H
  H54      1.0000 0.00590  0.12960  0.85350  Biso   1.000  H
  H55      1.0000 0.53990  0.05260  0.05550  Biso   1.000  H
  H56      1.0000 0.82880  0.31720  0.65540  Biso   1.000  H
  H57      1.0000 0.79320  0.39300  0.71440  Biso   1.000  H
  H58      1.0000 0.55170  0.21800  0.61140  Biso   1.000  H
  H59      1.0000 0.17650  0.26500  0.72720  Biso   1.000  H
  H60      1.0000 0.84450  0.52960  0.80570  Biso   1.000  H
  H61      1.0000 0.95810  0.62920  0.85600  Biso   1.000  H
  H62      1.0000 0.74800  0.67520  0.91560  Biso   1.000  H
  H63      1.0000 0.34280  0.29260  0.72690  Biso   1.000  H
  H64      1.0000 0.22520  0.45220  0.81630  Biso   1.000  H
  H65      1.0000 0.62890  0.58000  0.86530  Biso   1.000  H
  H66      1.0000 0.50880  0.29060  0.66870  Biso   1.000  H
  H67      1.0000 0.39140  0.48300  0.81950  Biso   1.000  H
  H68      1.0000 0.85650  0.96200  0.00310  Biso   1.000  H
  H69      1.0000 0.91420  0.95120  0.87930  Biso   1.000  H
  H70      1.0000 0.94370  0.84260  0.87910  Biso   1.000  H
  H71      1.0000 0.88950  0.85280  0.00020  Biso   1.000  H
  H72      1.0000 0.06240  0.20280  0.80240  Biso   1.000  H
  H73      1.0000 0.36810  0.02840  0.51640  Biso   1.000  H
  H74      1.0000 0.40640  0.25900  0.39660  Biso   1.000  H
  H75      1.0000 0.41420  0.32820  0.34430  Biso   1.000  H
  H76      1.0000 0.65120  0.24040  0.51380  Biso   1.000  H
  H77      1.0000 0.51080  0.22100  0.47210  Biso   1.000  H
  H78      1.0000 0.12370  0.12960  0.35350  Biso   1.000  H
  H79      1.0000 0.51270  0.05260  0.55550  Biso   1.000  H
  H80      1.0000 0.48840  0.31720  0.15540  Biso   1.000  H
  H81      1.0000 0.59980  0.39300  0.21440  Biso   1.000  H
  H82      1.0000 0.66630  0.21800  0.11140  Biso   1.000  H
  H83      1.0000 0.08850  0.26500  0.22720  Biso   1.000  H
  H84      1.0000 0.68510  0.52960  0.30570  Biso   1.000  H
  H85      1.0000 0.67110  0.62920  0.35600  Biso   1.000  H
  H86      1.0000 0.92720  0.67520  0.41560  Biso   1.000  H
  H87      1.0000 0.94980  0.29260  0.22690  Biso   1.000  H
  H88      1.0000 0.22700  0.45220  0.31630  Biso   1.000  H
  H89      1.0000 0.95110  0.58000  0.36530  Biso   1.000  H
  H90      1.0000 0.78180  0.29060  0.16870  Biso   1.000  H
  H91      1.0000 0.09160  0.48300  0.31950  Biso   1.000  H
  H92      1.0000 0.10550  0.96200  0.50310  Biso   1.000  H
  H93      1.0000 0.03700  0.95120  0.37930  Biso   1.000  H
  H94      1.0000 0.89890  0.84260  0.37910  Biso   1.000  H
  H95      1.0000 0.96330  0.85280  0.50020  Biso   1.000  H
  H96      1.0000 0.14040  0.20280  0.30240  Biso   1.000  H
  C73      1.0000 0.88479  0.96958  0.94199  Biso   1.000  C
  C74      1.0000 0.77720  0.11020  0.96396  Biso   1.000  C
  C75      1.0000 0.69965  0.12330  0.99015  Biso   1.000  C
  C76      1.0000 0.87519  0.13598  0.91094  Biso   1.000  C
  C77      1.0000 0.86371  0.03842  0.94190  Biso   1.000  C
  C78      1.0000 0.91851  0.18442  0.87947  Biso   1.000  C
  C79      1.0000 0.64720  0.07260  0.01532  Biso   1.000  C
  C80      1.0000 0.89454  0.24528  0.87709  Biso   1.000  C
  C81      1.0000 0.93205  0.28650  0.84589  Biso   1.000  C
  C82      1.0000 0.60428  0.19696  0.01430  Biso   1.000  C
  C83      1.0000 0.67684  0.18588  0.98941  Biso   1.000  C
  C84      1.0000 0.98447  0.16954  0.85170  Biso   1.000  C
  C85      1.0000 0.57602  0.08764  0.03865  Biso   1.000  C
  C86      1.0000 0.76260  0.31140  0.65846  Biso   1.000  C
  C87      1.0000 0.74194  0.35688  0.69368  Biso   1.000  C
  C88      1.0000 0.60155  0.25370  0.63285  Biso   1.000  C
  C89      1.0000 0.22120  0.31040  0.74594  Biso   1.000  C
  C90      1.0000 0.82300  0.55940  0.82775  Biso   1.000  C
  C91      1.0000 0.61642  0.39144  0.73571  Biso   1.000  C
  C92      1.0000 0.64981  0.48262  0.79690  Biso   1.000  C
  C93      1.0000 0.89037  0.61854  0.85808  Biso   1.000  C
  C94      1.0000 0.72368  0.54396  0.82979  Biso   1.000  C
  C95      1.0000 0.76788  0.64576  0.89263  Biso   1.000  C
  C96      1.0000 0.38596  0.39212  0.77277  Biso   1.000  C
  C97      1.0000 0.31999  0.32638  0.74559  Biso   1.000  C
  C98      1.0000 0.49256  0.41092  0.77166  Biso   1.000  C
  C99      1.0000 0.24959  0.41918  0.79795  Biso   1.000  C
  C100     1.0000 0.64612  0.34884  0.69824  Biso   1.000  C
  C101     1.0000 0.69612  0.58864  0.86299  Biso   1.000  C
  C102     1.0000 0.57540  0.29680  0.66688  Biso   1.000  C
  C103     1.0000 0.34862  0.43824  0.79975  Biso   1.000  C
  C104     1.0000 0.87579  0.93898  0.97737  Biso   1.000  C
  C105     1.0000 0.90950  0.93220  0.90482  Biso   1.000  C
  C106     1.0000 0.92708  0.86776  0.90499  Biso   1.000  C
  C107     1.0000 0.89531  0.87362  0.97529  Biso   1.000  C
  C108     1.0000 0.01820  0.21380  0.82150  Biso   1.000  C
  C109     1.0000 0.08479  0.96958  0.44199  Biso   1.000  C
  C110     1.0000 0.33300  0.11020  0.46396  Biso   1.000  C
  C111     1.0000 0.42365  0.12330  0.49015  Biso   1.000  C
  C112     1.0000 0.26079  0.13598  0.41094  Biso   1.000  C
  C113     1.0000 0.17471  0.03842  0.44190  Biso   1.000  C
  C114     1.0000 0.26591  0.18442  0.37947  Biso   1.000  C
  C115     1.0000 0.42540  0.07260  0.51532  Biso   1.000  C
  C116     1.0000 0.35074  0.24528  0.37709  Biso   1.000  C
  C117     1.0000 0.35445  0.28650  0.34589  Biso   1.000  C
  C118     1.0000 0.59268  0.19696  0.51430  Biso   1.000  C
  C119     1.0000 0.50904  0.18588  0.48941  Biso   1.000  C
  C120     1.0000 0.18507  0.16954  0.35170  Biso   1.000  C
  C121     1.0000 0.51162  0.08764  0.53865  Biso   1.000  C
  C122     1.0000 0.54880  0.31140  0.15846  Biso   1.000  C
  C123     1.0000 0.61494  0.35688  0.19368  Biso   1.000  C
  C124     1.0000 0.65215  0.25370  0.13285  Biso   1.000  C
  C125     1.0000 0.08920  0.31040  0.24594  Biso   1.000  C
  C126     1.0000 0.73640  0.55940  0.32775  Biso   1.000  C
  C127     1.0000 0.77502  0.39144  0.23571  Biso   1.000  C
  C128     1.0000 0.83281  0.48262  0.29690  Biso   1.000  C
  C129     1.0000 0.72817  0.61854  0.35808  Biso   1.000  C
  C130     1.0000 0.82028  0.54396  0.32979  Biso   1.000  C
  C131     1.0000 0.87788  0.64576  0.39263  Biso   1.000  C
  C132     1.0000 0.00616  0.39212  0.27277  Biso   1.000  C
  C133     1.0000 0.00639  0.32638  0.24559  Biso   1.000  C
  C134     1.0000 0.91836  0.41092  0.27166  Biso   1.000  C
  C135     1.0000 0.16959  0.41918  0.29795  Biso   1.000  C
  C136     1.0000 0.70272  0.34884  0.19824  Biso   1.000  C
  C137     1.0000 0.89252  0.58864  0.36299  Biso   1.000  C
  C138     1.0000 0.72140  0.29680  0.16688  Biso   1.000  C
  C139     1.0000 0.08962  0.43824  0.29975  Biso   1.000  C
  C140     1.0000 0.06319  0.93898  0.47737  Biso   1.000  C
  C141     1.0000 0.02270  0.93220  0.40482  Biso   1.000  C
  C142     1.0000 0.94068  0.86776  0.40499  Biso   1.000  C
  C143     1.0000 0.97831  0.87362  0.47529  Biso   1.000  C
  C144     1.0000 0.19560  0.21380  0.32150  Biso   1.000  C
  I13      1.0000 0.99456  0.44634  0.78885  Biso   1.000  I
  I14      1.0000 0.12648  0.79004  0.90300  Biso   1.000  I
  I15      1.0000 0.93925  0.70874  0.00897  Biso   1.000  I
  I16      1.0000 0.38444  0.25028  0.04362  Biso   1.000  I
  I17      1.0000 0.96210  0.23122  0.69715  Biso   1.000  I
  I18      1.0000 0.37722  0.06568  0.11537  Biso   1.000  I
  I19      1.0000 0.45178  0.44634  0.28885  Biso   1.000  I
  I20      1.0000 0.66356  0.79004  0.40300  Biso   1.000  I
  I21      1.0000 0.76949  0.70874  0.50897  Biso   1.000  I
  I22      1.0000 0.86584  0.25028  0.54362  Biso   1.000  I
  I23      1.0000 0.26912  0.23122  0.19715  Biso   1.000  I
  I24      1.0000 0.68846  0.06568  0.61537  Biso   1.000  I
  N25      1.0000 0.55527  0.14894  0.03878  Biso   1.000  N
  N26      1.0000 0.80436  0.05412  0.97015  Biso   1.000  N
  N27      1.0000 0.80943  0.15226  0.93479  Biso   1.000  N
  N28      1.0000 0.90293  0.07826  0.91178  Biso   1.000  N
  N29      1.0000 0.92202  0.83884  0.93967  Biso   1.000  N
  N30      1.0000 0.99210  0.27080  0.81802  Biso   1.000  N
  N31      1.0000 0.18547  0.35614  0.77155  Biso   1.000  N
  N32      1.0000 0.55489  0.46658  0.80246  Biso   1.000  N
  N33      1.0000 0.68527  0.44794  0.76417  Biso   1.000  N
  N34      1.0000 0.86346  0.66172  0.89058  Biso   1.000  N
  N35      1.0000 0.69319  0.25978  0.62868  Biso   1.000  N
  N36      1.0000 0.51941  0.37122  0.73813  Biso   1.000  N
  N37      1.0000 0.59367  0.14894  0.53878  Biso   1.000  N
  N38      1.0000 0.24976  0.05412  0.47015  Biso   1.000  N
  N39      1.0000 0.34283  0.15226  0.43479  Biso   1.000  N
  N40      1.0000 0.17533  0.07826  0.41178  Biso   1.000  N
  N41      1.0000 0.91682  0.83884  0.43967  Biso   1.000  N
  N42      1.0000 0.27870  0.27080  0.31802  Biso   1.000  N
  N43      1.0000 0.17067  0.35614  0.27155  Biso   1.000  N
  N44      1.0000 0.91169  0.46658  0.30246  Biso   1.000  N
  N45      1.0000 0.76267  0.44794  0.26417  Biso   1.000  N
  N46      1.0000 0.79826  0.66172  0.39058  Biso   1.000  N
  N47      1.0000 0.56659  0.25978  0.12868  Biso   1.000  N
  N48      1.0000 0.85181  0.37122  0.23813  Biso   1.000  N
