data_image0
_cell_length_a       14.845
_cell_length_b       19.4518
_cell_length_c       30.8
_cell_angle_alpha    101.946
_cell_angle_beta     90
_cell_angle_gamma    112.432

_symmetry_space_group_name_H-M    P 1
_symmetry_int_tables_number       1

loop_
  _symmetry_equiv_pos_as_xyz
  'x, y, z'

loop_
  _atom_site_label
  _atom_site_occupancy
  _atom_site_fract_x
  _atom_site_fract_y
  _atom_site_fract_z
  _atom_site_thermal_displace_type
  _atom_site_B_iso_or_equiv
  _atom_site_type_symbol
  Zn1      1.0000 0.96093  0.17056  0.59292  Biso   1.000  Zn
  Zn2      1.0000 0.81461  0.34630  0.77362  Biso   1.000  Zn
  Zn3      1.0000 0.28813  0.76002  0.93428  Biso   1.000  Zn
  Zn4      1.0000 0.20963  0.17056  0.09292  Biso   1.000  Zn
  Zn5      1.0000 0.53169  0.34630  0.27362  Biso   1.000  Zn
  Zn6      1.0000 0.47189  0.76002  0.43428  Biso   1.000  Zn
  H1       1.0000 0.43990  0.69640  0.91600  Biso   1.000  H
  H2       1.0000 0.46510  0.59480  0.87200  Biso   1.000  H
  H3       1.0000 0.20000  0.53180  0.80750  Biso   1.000  H
  H4       1.0000 0.18330  0.63580  0.85350  Biso   1.000  H
  H5       1.0000 0.46800  0.30020  0.73480  Biso   1.000  H
  H6       1.0000 0.61250  0.28020  0.73290  Biso   1.000  H
  H7       1.0000 0.74730  0.46960  0.82210  Biso   1.000  H
  H8       1.0000 0.60720  0.49500  0.82760  Biso   1.000  H
  H9       1.0000 0.11620  0.39500  0.72310  Biso   1.000  H
  H10      1.0000 0.99930  0.31640  0.66460  Biso   1.000  H
  H11      1.0000 0.14740  0.18660  0.63300  Biso   1.000  H
  H12      1.0000 0.26970  0.26320  0.68760  Biso   1.000  H
  H13      1.0000 0.03070  0.04160  0.55780  Biso   1.000  H
  H14      1.0000 0.15000  0.02100  0.51460  Biso   1.000  H
  H15      1.0000 0.22080  0.23040  0.48860  Biso   1.000  H
  H16      1.0000 0.10410  0.24660  0.53440  Biso   1.000  H
  H17      1.0000 0.33940  0.95660  0.50120  Biso   1.000  H
  H18      1.0000 0.37880  0.85160  0.49630  Biso   1.000  H
  H19      1.0000 0.48600  0.87280  0.38240  Biso   1.000  H
  H20      1.0000 0.44560  0.97680  0.38240  Biso   1.000  H
  H21      1.0000 0.34360  0.26480  0.40060  Biso   1.000  H
  H22      1.0000 0.40910  0.34100  0.35260  Biso   1.000  H
  H23      1.0000 0.55780  0.22040  0.30640  Biso   1.000  H
  H24      1.0000 0.49190  0.13740  0.35170  Biso   1.000  H
  H25      1.0000 0.25650  0.69640  0.41600  Biso   1.000  H
  H26      1.0000 0.12970  0.59480  0.37200  Biso   1.000  H
  H27      1.0000 0.33180  0.53180  0.30750  Biso   1.000  H
  H28      1.0000 0.45250  0.63580  0.35350  Biso   1.000  H
  H29      1.0000 0.83220  0.30020  0.23480  Biso   1.000  H
  H30      1.0000 0.66770  0.28020  0.23290  Biso   1.000  H
  H31      1.0000 0.72230  0.46960  0.32210  Biso   1.000  H
  H32      1.0000 0.88780  0.49500  0.32760  Biso   1.000  H
  H33      1.0000 0.27880  0.39500  0.22310  Biso   1.000  H
  H34      1.0000 0.31710  0.31640  0.16460  Biso   1.000  H
  H35      1.0000 0.03920  0.18660  0.13300  Biso   1.000  H
  H36      1.0000 0.99350  0.26320  0.18760  Biso   1.000  H
  H37      1.0000 0.01090  0.04160  0.05780  Biso   1.000  H
  H38      1.0000 0.87100  0.02100  0.01460  Biso   1.000  H
  H39      1.0000 0.00960  0.23040  0.98860  Biso   1.000  H
  H40      1.0000 0.14250  0.24660  0.03440  Biso   1.000  H
  H41      1.0000 0.61720  0.95660  0.00120  Biso   1.000  H
  H42      1.0000 0.47280  0.85160  0.99630  Biso   1.000  H
  H43      1.0000 0.38680  0.87280  0.88240  Biso   1.000  H
  H44      1.0000 0.53120  0.97680  0.88240  Biso   1.000  H
  H45      1.0000 0.92120  0.26480  0.90060  Biso   1.000  H
  H46      1.0000 0.93190  0.34100  0.85260  Biso   1.000  H
  H47      1.0000 0.66260  0.22040  0.80640  Biso   1.000  H
  H48      1.0000 0.64550  0.13740  0.85170  Biso   1.000  H
  C1       1.0000 0.38989  0.66178  0.89380  Biso   1.000  C
  C2       1.0000 0.40602  0.60164  0.86760  Biso   1.000  C
  C3       1.0000 0.33471  0.55202  0.83505  Biso   1.000  C
  C4       1.0000 0.25059  0.56498  0.82990  Biso   1.000  C
  C5       1.0000 0.24088  0.62676  0.85760  Biso   1.000  C
  C6       1.0000 0.34682  0.48744  0.80444  Biso   1.000  C
  C7       1.0000 0.43168  0.41576  0.78091  Biso   1.000  C
  C8       1.0000 0.28472  0.38644  0.74715  Biso   1.000  C
  C9       1.0000 0.52207  0.40054  0.78150  Biso   1.000  C
  C10      1.0000 0.52459  0.33598  0.75330  Biso   1.000  C
  C11      1.0000 0.61111  0.32442  0.75250  Biso   1.000  C
  C12      1.0000 0.68926  0.43452  0.80440  Biso   1.000  C
  C13      1.0000 0.60638  0.45036  0.80770  Biso   1.000  C
  C14      1.0000 0.20620  0.33760  0.71090  Biso   1.000  C
  C15      1.0000 0.12469  0.35298  0.70430  Biso   1.000  C
  C16      1.0000 0.05524  0.30568  0.66960  Biso   1.000  C
  C17      1.0000 0.14213  0.23066  0.65110  Biso   1.000  C
  C18      1.0000 0.21420  0.27500  0.68370  Biso   1.000  C
  C19      1.0000 0.07090  0.08060  0.54400  Biso   1.000  C
  C20      1.0000 0.14099  0.06758  0.51784  Biso   1.000  C
  C21      1.0000 0.19778  0.12336  0.49635  Biso   1.000  C
  C22      1.0000 0.18311  0.19102  0.50280  Biso   1.000  C
  C23      1.0000 0.11336  0.20012  0.52990  Biso   1.000  C
  C24      1.0000 0.27168  0.11116  0.46740  Biso   1.000  C
  C25      1.0000 0.36201  0.04422  0.44247  Biso   1.000  C
  C26      1.0000 0.36678  0.14056  0.41210  Biso   1.000  C
  C27      1.0000 0.38832  0.97824  0.44212  Biso   1.000  C
  C28      1.0000 0.36899  0.94018  0.47600  Biso   1.000  C
  C29      1.0000 0.39314  0.87788  0.47270  Biso   1.000  C
  C30      1.0000 0.45450  0.88960  0.40680  Biso   1.000  C
  C31      1.0000 0.43160  0.95220  0.40670  Biso   1.000  C
  C32      1.0000 0.40769  0.19098  0.38050  Biso   1.000  C
  C33      1.0000 0.38650  0.25300  0.38030  Biso   1.000  C
  C34      1.0000 0.42560  0.29820  0.35170  Biso   1.000  C
  C35      1.0000 0.51010  0.22820  0.32510  Biso   1.000  C
  C36      1.0000 0.47270  0.17900  0.35240  Biso   1.000  C
  C37      1.0000 0.27189  0.66178  0.39380  Biso   1.000  C
  C38      1.0000 0.19562  0.60164  0.36760  Biso   1.000  C
  C39      1.0000 0.21731  0.55202  0.33505  Biso   1.000  C
  C40      1.0000 0.31439  0.56498  0.32990  Biso   1.000  C
  C41      1.0000 0.38588  0.62676  0.35760  Biso   1.000  C
  C42      1.0000 0.14062  0.48744  0.30444  Biso   1.000  C
  C43      1.0000 0.98408  0.41576  0.28091  Biso   1.000  C
  C44      1.0000 0.10172  0.38644  0.24715  Biso   1.000  C
  C45      1.0000 0.87847  0.40054  0.28150  Biso   1.000  C
  C46      1.0000 0.81139  0.33598  0.25330  Biso   1.000  C
  C47      1.0000 0.71331  0.32442  0.25250  Biso   1.000  C
  C48      1.0000 0.74526  0.43452  0.30440  Biso   1.000  C
  C49      1.0000 0.84398  0.45036  0.30770  Biso   1.000  C
  C50      1.0000 0.13140  0.33760  0.21090  Biso   1.000  C
  C51      1.0000 0.22829  0.35298  0.20430  Biso   1.000  C
  C52      1.0000 0.25044  0.30568  0.16960  Biso   1.000  C
  C53      1.0000 0.08853  0.23066  0.15110  Biso   1.000  C
  C54      1.0000 0.06080  0.27500  0.18370  Biso   1.000  C
  C55      1.0000 0.00970  0.08060  0.04400  Biso   1.000  C
  C56      1.0000 0.92659  0.06758  0.01784  Biso   1.000  C
  C57      1.0000 0.92558  0.12336  0.99635  Biso   1.000  C
  C58      1.0000 0.00791  0.19102  0.00280  Biso   1.000  C
  C59      1.0000 0.08676  0.20012  0.02990  Biso   1.000  C
  C60      1.0000 0.83948  0.11116  0.96740  Biso   1.000  C
  C61      1.0000 0.68221  0.04422  0.94247  Biso   1.000  C
  C62      1.0000 0.77378  0.14056  0.91210  Biso   1.000  C
  C63      1.0000 0.58992  0.97824  0.94212  Biso   1.000  C
  C64      1.0000 0.57119  0.94018  0.97600  Biso   1.000  C
  C65      1.0000 0.48474  0.87788  0.97270  Biso   1.000  C
  C66      1.0000 0.43510  0.88960  0.90680  Biso   1.000  C
  C67      1.0000 0.52060  0.95220  0.90670  Biso   1.000  C
  C68      1.0000 0.78329  0.19098  0.88050  Biso   1.000  C
  C69      1.0000 0.86650  0.25300  0.88030  Biso   1.000  C
  C70      1.0000 0.87260  0.29820  0.85170  Biso   1.000  C
  C71      1.0000 0.71810  0.22820  0.82510  Biso   1.000  C
  C72      1.0000 0.70630  0.17900  0.85240  Biso   1.000  C
  I1       1.0000 0.15827  0.78848  0.89718  Biso   1.000  I
  I2       1.0000 0.96764  0.46664  0.79764  Biso   1.000  I
  I3       1.0000 0.79006  0.24951  0.70045  Biso   1.000  I
  I4       1.0000 0.27307  0.71938  0.00787  Biso   1.000  I
  I5       1.0000 0.88852  0.24154  0.55291  Biso   1.000  I
  I6       1.0000 0.86809  0.05520  0.62410  Biso   1.000  I
  I7       1.0000 0.63021  0.78848  0.39718  Biso   1.000  I
  I8       1.0000 0.49900  0.46664  0.29764  Biso   1.000  I
  I9       1.0000 0.45945  0.24951  0.20045  Biso   1.000  I
  I10      1.0000 0.44631  0.71938  0.50787  Biso   1.000  I
  I11      1.0000 0.35302  0.24154  0.05291  Biso   1.000  I
  I12      1.0000 0.18711  0.05520  0.12410  Biso   1.000  I
  N1       1.0000 0.30918  0.67416  0.88982  Biso   1.000  N
  N2       1.0000 0.27429  0.44598  0.77257  Biso   1.000  N
  N3       1.0000 0.36116  0.36852  0.74972  Biso   1.000  N
  N4       1.0000 0.42813  0.47506  0.81027  Biso   1.000  N
  N5       1.0000 0.06449  0.24578  0.64306  Biso   1.000  N
  N6       1.0000 0.69165  0.37190  0.77746  Biso   1.000  N
  N7       1.0000 0.48567  0.28534  0.32250  Biso   1.000  N
  N8       1.0000 0.30214  0.05648  0.47232  Biso   1.000  N
  N9       1.0000 0.39780  0.08520  0.41192  Biso   1.000  N
  N10      1.0000 0.30208  0.15516  0.43783  Biso   1.000  N
  N11      1.0000 0.05761  0.14602  0.55055  Biso   1.000  N
  N12      1.0000 0.43501  0.85222  0.43902  Biso   1.000  N
  N13      1.0000 0.36498  0.67416  0.38982  Biso   1.000  N
  N14      1.0000 0.17169  0.44598  0.27257  Biso   1.000  N
  N15      1.0000 0.00736  0.36852  0.24972  Biso   1.000  N
  N16      1.0000 0.04693  0.47506  0.31027  Biso   1.000  N
  N17      1.0000 0.18129  0.24578  0.14306  Biso   1.000  N
  N18      1.0000 0.68025  0.37190  0.27746  Biso   1.000  N
  N19      1.0000 0.79967  0.28534  0.82250  Biso   1.000  N
  N20      1.0000 0.75434  0.05648  0.97232  Biso   1.000  N
  N21      1.0000 0.68740  0.08520  0.91192  Biso   1.000  N
  N22      1.0000 0.85308  0.15516  0.93783  Biso   1.000  N
  N23      1.0000 0.08841  0.14602  0.05055  Biso   1.000  N
  N24      1.0000 0.41721  0.85222  0.93902  Biso   1.000  N
  Zn7      1.0000 0.79037  0.82944  0.90708  Biso   1.000  Zn
  Zn8      1.0000 0.46831  0.65370  0.72638  Biso   1.000  Zn
  Zn9      1.0000 0.52811  0.23998  0.56572  Biso   1.000  Zn
  Zn10     1.0000 0.03907  0.82944  0.40708  Biso   1.000  Zn
  Zn11     1.0000 0.18539  0.65370  0.22638  Biso   1.000  Zn
  Zn12     1.0000 0.71187  0.23998  0.06572  Biso   1.000  Zn
  H49      1.0000 0.74350  0.30360  0.58400  Biso   1.000  H
  H50      1.0000 0.87030  0.40520  0.62800  Biso   1.000  H
  H51      1.0000 0.66820  0.46820  0.69250  Biso   1.000  H
  H52      1.0000 0.54750  0.36420  0.64650  Biso   1.000  H
  H53      1.0000 0.16780  0.69980  0.76520  Biso   1.000  H
  H54      1.0000 0.33230  0.71980  0.76710  Biso   1.000  H
  H55      1.0000 0.27770  0.53040  0.67790  Biso   1.000  H
  H56      1.0000 0.11220  0.50500  0.67240  Biso   1.000  H
  H57      1.0000 0.72120  0.60500  0.77690  Biso   1.000  H
  H58      1.0000 0.68290  0.68360  0.83540  Biso   1.000  H
  H59      1.0000 0.96080  0.81340  0.86700  Biso   1.000  H
  H60      1.0000 0.00650  0.73680  0.81240  Biso   1.000  H
  H61      1.0000 0.98910  0.95840  0.94220  Biso   1.000  H
  H62      1.0000 0.12900  0.97900  0.98540  Biso   1.000  H
  H63      1.0000 0.99040  0.76960  0.01140  Biso   1.000  H
  H64      1.0000 0.85750  0.75340  0.96560  Biso   1.000  H
  H65      1.0000 0.38280  0.04340  0.99880  Biso   1.000  H
  H66      1.0000 0.52720  0.14840  0.00370  Biso   1.000  H
  H67      1.0000 0.61320  0.12720  0.11760  Biso   1.000  H
  H68      1.0000 0.46880  0.02320  0.11760  Biso   1.000  H
  H69      1.0000 0.07880  0.73520  0.09940  Biso   1.000  H
  H70      1.0000 0.06810  0.65900  0.14740  Biso   1.000  H
  H71      1.0000 0.33740  0.77960  0.19360  Biso   1.000  H
  H72      1.0000 0.35450  0.86260  0.14830  Biso   1.000  H
  H73      1.0000 0.56010  0.30360  0.08400  Biso   1.000  H
  H74      1.0000 0.53490  0.40520  0.12800  Biso   1.000  H
  H75      1.0000 0.80000  0.46820  0.19250  Biso   1.000  H
  H76      1.0000 0.81670  0.36420  0.14650  Biso   1.000  H
  H77      1.0000 0.53200  0.69980  0.26520  Biso   1.000  H
  H78      1.0000 0.38750  0.71980  0.26710  Biso   1.000  H
  H79      1.0000 0.25270  0.53040  0.17790  Biso   1.000  H
  H80      1.0000 0.39280  0.50500  0.17240  Biso   1.000  H
  H81      1.0000 0.88380  0.60500  0.27690  Biso   1.000  H
  H82      1.0000 0.00070  0.68360  0.33540  Biso   1.000  H
  H83      1.0000 0.85260  0.81340  0.36700  Biso   1.000  H
  H84      1.0000 0.73030  0.73680  0.31240  Biso   1.000  H
  H85      1.0000 0.96930  0.95840  0.44220  Biso   1.000  H
  H86      1.0000 0.85000  0.97900  0.48540  Biso   1.000  H
  H87      1.0000 0.77920  0.76960  0.51140  Biso   1.000  H
  H88      1.0000 0.89590  0.75340  0.46560  Biso   1.000  H
  H89      1.0000 0.66060  0.04340  0.49880  Biso   1.000  H
  H90      1.0000 0.62120  0.14840  0.50370  Biso   1.000  H
  H91      1.0000 0.51400  0.12720  0.61760  Biso   1.000  H
  H92      1.0000 0.55440  0.02320  0.61760  Biso   1.000  H
  H93      1.0000 0.65640  0.73520  0.59940  Biso   1.000  H
  H94      1.0000 0.59090  0.65900  0.64740  Biso   1.000  H
  H95      1.0000 0.44220  0.77960  0.69360  Biso   1.000  H
  H96      1.0000 0.50810  0.86260  0.64830  Biso   1.000  H
  C73      1.0000 0.72811  0.33822  0.60620  Biso   1.000  C
  C74      1.0000 0.80438  0.39836  0.63240  Biso   1.000  C
  C75      1.0000 0.78269  0.44798  0.66495  Biso   1.000  C
  C76      1.0000 0.68561  0.43502  0.67010  Biso   1.000  C
  C77      1.0000 0.61412  0.37324  0.64240  Biso   1.000  C
  C78      1.0000 0.85938  0.51256  0.69556  Biso   1.000  C
  C79      1.0000 0.01592  0.58424  0.71909  Biso   1.000  C
  C80      1.0000 0.89828  0.61356  0.75285  Biso   1.000  C
  C81      1.0000 0.12153  0.59946  0.71850  Biso   1.000  C
  C82      1.0000 0.18861  0.66402  0.74670  Biso   1.000  C
  C83      1.0000 0.28669  0.67558  0.74750  Biso   1.000  C
  C84      1.0000 0.25474  0.56548  0.69560  Biso   1.000  C
  C85      1.0000 0.15602  0.54964  0.69230  Biso   1.000  C
  C86      1.0000 0.86860  0.66240  0.78910  Biso   1.000  C
  C87      1.0000 0.77171  0.64702  0.79570  Biso   1.000  C
  C88      1.0000 0.74956  0.69432  0.83040  Biso   1.000  C
  C89      1.0000 0.91147  0.76934  0.84890  Biso   1.000  C
  C90      1.0000 0.93920  0.72500  0.81630  Biso   1.000  C
  C91      1.0000 0.99030  0.91940  0.95600  Biso   1.000  C
  C92      1.0000 0.07341  0.93242  0.98216  Biso   1.000  C
  C93      1.0000 0.07442  0.87664  0.00365  Biso   1.000  C
  C94      1.0000 0.99209  0.80898  0.99720  Biso   1.000  C
  C95      1.0000 0.91324  0.79988  0.97010  Biso   1.000  C
  C96      1.0000 0.16052  0.88884  0.03260  Biso   1.000  C
  C97      1.0000 0.31779  0.95578  0.05753  Biso   1.000  C
  C98      1.0000 0.22622  0.85944  0.08790  Biso   1.000  C
  C99      1.0000 0.41008  0.02176  0.05788  Biso   1.000  C
  C100     1.0000 0.42881  0.05982  0.02400  Biso   1.000  C
  C101     1.0000 0.51526  0.12212  0.02730  Biso   1.000  C
  C102     1.0000 0.56490  0.11040  0.09320  Biso   1.000  C
  C103     1.0000 0.47940  0.04780  0.09330  Biso   1.000  C
  C104     1.0000 0.21671  0.80902  0.11950  Biso   1.000  C
  C105     1.0000 0.13350  0.74700  0.11970  Biso   1.000  C
  C106     1.0000 0.12740  0.70180  0.14830  Biso   1.000  C
  C107     1.0000 0.28190  0.77180  0.17490  Biso   1.000  C
  C108     1.0000 0.29370  0.82100  0.14760  Biso   1.000  C
  C109     1.0000 0.61011  0.33822  0.10620  Biso   1.000  C
  C110     1.0000 0.59398  0.39836  0.13240  Biso   1.000  C
  C111     1.0000 0.66529  0.44798  0.16495  Biso   1.000  C
  C112     1.0000 0.74941  0.43502  0.17010  Biso   1.000  C
  C113     1.0000 0.75912  0.37324  0.14240  Biso   1.000  C
  C114     1.0000 0.65318  0.51256  0.19556  Biso   1.000  C
  C115     1.0000 0.56832  0.58424  0.21909  Biso   1.000  C
  C116     1.0000 0.71528  0.61356  0.25285  Biso   1.000  C
  C117     1.0000 0.47793  0.59946  0.21850  Biso   1.000  C
  C118     1.0000 0.47541  0.66402  0.24670  Biso   1.000  C
  C119     1.0000 0.38889  0.67558  0.24750  Biso   1.000  C
  C120     1.0000 0.31074  0.56548  0.19560  Biso   1.000  C
  C121     1.0000 0.39362  0.54964  0.19230  Biso   1.000  C
  C122     1.0000 0.79380  0.66240  0.28910  Biso   1.000  C
  C123     1.0000 0.87531  0.64702  0.29570  Biso   1.000  C
  C124     1.0000 0.94476  0.69432  0.33040  Biso   1.000  C
  C125     1.0000 0.85787  0.76934  0.34890  Biso   1.000  C
  C126     1.0000 0.78580  0.72500  0.31630  Biso   1.000  C
  C127     1.0000 0.92910  0.91940  0.45600  Biso   1.000  C
  C128     1.0000 0.85901  0.93242  0.48216  Biso   1.000  C
  C129     1.0000 0.80222  0.87664  0.50365  Biso   1.000  C
  C130     1.0000 0.81689  0.80898  0.49720  Biso   1.000  C
  C131     1.0000 0.88664  0.79988  0.47010  Biso   1.000  C
  C132     1.0000 0.72832  0.88884  0.53260  Biso   1.000  C
  C133     1.0000 0.63799  0.95578  0.55753  Biso   1.000  C
  C134     1.0000 0.63322  0.85944  0.58790  Biso   1.000  C
  C135     1.0000 0.61168  0.02176  0.55788  Biso   1.000  C
  C136     1.0000 0.63101  0.05982  0.52400  Biso   1.000  C
  C137     1.0000 0.60686  0.12212  0.52730  Biso   1.000  C
  C138     1.0000 0.54550  0.11040  0.59320  Biso   1.000  C
  C139     1.0000 0.56840  0.04780  0.59330  Biso   1.000  C
  C140     1.0000 0.59231  0.80902  0.61950  Biso   1.000  C
  C141     1.0000 0.61350  0.74700  0.61970  Biso   1.000  C
  C142     1.0000 0.57440  0.70180  0.64830  Biso   1.000  C
  C143     1.0000 0.48990  0.77180  0.67490  Biso   1.000  C
  C144     1.0000 0.52730  0.82100  0.64760  Biso   1.000  C
  I13      1.0000 0.36979  0.21152  0.60282  Biso   1.000  I
  I14      1.0000 0.50100  0.53336  0.70236  Biso   1.000  I
  I15      1.0000 0.54055  0.75049  0.79955  Biso   1.000  I
  I16      1.0000 0.55369  0.28062  0.49213  Biso   1.000  I
  I17      1.0000 0.64698  0.75846  0.94709  Biso   1.000  I
  I18      1.0000 0.81289  0.94480  0.87590  Biso   1.000  I
  I19      1.0000 0.84173  0.21152  0.10282  Biso   1.000  I
  I20      1.0000 0.03236  0.53336  0.20236  Biso   1.000  I
  I21      1.0000 0.20994  0.75049  0.29955  Biso   1.000  I
  I22      1.0000 0.72693  0.28062  0.99213  Biso   1.000  I
  I23      1.0000 0.11148  0.75846  0.44709  Biso   1.000  I
  I24      1.0000 0.13191  0.94480  0.37590  Biso   1.000  I
  N25      1.0000 0.63502  0.32584  0.61018  Biso   1.000  N
  N26      1.0000 0.82831  0.55402  0.72743  Biso   1.000  N
  N27      1.0000 0.99264  0.63148  0.75028  Biso   1.000  N
  N28      1.0000 0.95307  0.52494  0.68973  Biso   1.000  N
  N29      1.0000 0.81871  0.75422  0.85694  Biso   1.000  N
  N30      1.0000 0.31975  0.62810  0.72254  Biso   1.000  N
  N31      1.0000 0.20033  0.71466  0.17750  Biso   1.000  N
  N32      1.0000 0.24566  0.94352  0.02768  Biso   1.000  N
  N33      1.0000 0.31260  0.91480  0.08808  Biso   1.000  N
  N34      1.0000 0.14692  0.84484  0.06217  Biso   1.000  N
  N35      1.0000 0.91159  0.85398  0.94945  Biso   1.000  N
  N36      1.0000 0.58279  0.14778  0.06098  Biso   1.000  N
  N37      1.0000 0.69082  0.32584  0.11018  Biso   1.000  N
  N38      1.0000 0.72571  0.55402  0.22743  Biso   1.000  N
  N39      1.0000 0.63884  0.63148  0.25028  Biso   1.000  N
  N40      1.0000 0.57187  0.52494  0.18973  Biso   1.000  N
  N41      1.0000 0.93551  0.75422  0.35694  Biso   1.000  N
  N42      1.0000 0.30835  0.62810  0.22254  Biso   1.000  N
  N43      1.0000 0.51433  0.71466  0.67750  Biso   1.000  N
  N44      1.0000 0.69786  0.94352  0.52768  Biso   1.000  N
  N45      1.0000 0.60220  0.91480  0.58808  Biso   1.000  N
  N46      1.0000 0.69792  0.84484  0.56217  Biso   1.000  N
  N47      1.0000 0.94239  0.85398  0.44945  Biso   1.000  N
  N48      1.0000 0.56499  0.14778  0.56098  Biso   1.000  N
