data_image0
_cell_length_a       10.725
_cell_length_b       13.331
_cell_length_c       15.2614
_cell_angle_alpha    65.641
_cell_angle_beta     86.004
_cell_angle_gamma    74.007

_symmetry_space_group_name_H-M    P 1
_symmetry_int_tables_number       1

loop_
  _symmetry_equiv_pos_as_xyz
  'x, y, z'

loop_
  _atom_site_label
  _atom_site_occupancy
  _atom_site_fract_x
  _atom_site_fract_y
  _atom_site_fract_z
  _atom_site_thermal_displace_type
  _atom_site_B_iso_or_equiv
  _atom_site_type_symbol
  Co1      1.0000 0.12862  0.01340  0.58857  Biso   1.000  Co
  Co2      1.0000 0.87138  0.98660  0.41143  Biso   1.000  Co
  H1       1.0000 0.21170  0.75210  0.69780  Biso   1.000  H
  H2       1.0000 0.14150  0.59980  0.80200  Biso   1.000  H
  H3       1.0000 0.80210  0.81610  0.80180  Biso   1.000  H
  H4       1.0000 0.87790  0.96640  0.69600  Biso   1.000  H
  H5       1.0000 0.97040  0.51770  0.90330  Biso   1.000  H
  H6       1.0000 0.84940  0.39640  0.92580  Biso   1.000  H
  H7       1.0000 0.75450  0.25070  0.03130  Biso   1.000  H
  H8       1.0000 0.61350  0.28380  0.14130  Biso   1.000  H
  H9       1.0000 0.43650  0.58770  0.22300  Biso   1.000  H
  H10      1.0000 0.51280  0.73550  0.11100  Biso   1.000  H
  H11      1.0000 0.65810  0.70400  0.00460  Biso   1.000  H
  H12      1.0000 0.30730  0.47030  0.23110  Biso   1.000  H
  H13      1.0000 0.46050  0.16900  0.35370  Biso   1.000  H
  H14      1.0000 0.37370  0.03860  0.47550  Biso   1.000  H
  H15      1.0000 0.06200  0.27690  0.46530  Biso   1.000  H
  H16      1.0000 0.14070  0.41350  0.34750  Biso   1.000  H
  H17      1.0000 0.50960  0.92350  0.78160  Biso   1.000  H
  H18      1.0000 0.61880  0.92330  0.90600  Biso   1.000  H
  H19      1.0000 0.28650  0.08190  0.98220  Biso   1.000  H
  H20      1.0000 0.17810  0.08030  0.85410  Biso   1.000  H
  H21      1.0000 0.44780  0.39600  0.43330  Biso   1.000  H
  H22      1.0000 0.60040  0.23500  0.44120  Biso   1.000  H
  H23      1.0000 0.84470  0.29400  0.58550  Biso   1.000  H
  H24      1.0000 0.68940  0.45730  0.57810  Biso   1.000  H
  H25      1.0000 0.78830  0.24790  0.30220  Biso   1.000  H
  H26      1.0000 0.85850  0.40020  0.19800  Biso   1.000  H
  H27      1.0000 0.19790  0.18390  0.19820  Biso   1.000  H
  H28      1.0000 0.12210  0.03360  0.30400  Biso   1.000  H
  H29      1.0000 0.02960  0.48230  0.09670  Biso   1.000  H
  H30      1.0000 0.15060  0.60360  0.07420  Biso   1.000  H
  H31      1.0000 0.24550  0.74930  0.96870  Biso   1.000  H
  H32      1.0000 0.38650  0.71620  0.85870  Biso   1.000  H
  H33      1.0000 0.56350  0.41230  0.77700  Biso   1.000  H
  H34      1.0000 0.48720  0.26450  0.88900  Biso   1.000  H
  H35      1.0000 0.34190  0.29600  0.99540  Biso   1.000  H
  H36      1.0000 0.69270  0.52970  0.76890  Biso   1.000  H
  H37      1.0000 0.53950  0.83100  0.64630  Biso   1.000  H
  H38      1.0000 0.62630  0.96140  0.52450  Biso   1.000  H
  H39      1.0000 0.93800  0.72310  0.53470  Biso   1.000  H
  H40      1.0000 0.85930  0.58650  0.65250  Biso   1.000  H
  H41      1.0000 0.49040  0.07650  0.21840  Biso   1.000  H
  H42      1.0000 0.38120  0.07670  0.09400  Biso   1.000  H
  H43      1.0000 0.71350  0.91810  0.01780  Biso   1.000  H
  H44      1.0000 0.82190  0.91970  0.14590  Biso   1.000  H
  H45      1.0000 0.55220  0.60400  0.56670  Biso   1.000  H
  H46      1.0000 0.39960  0.76500  0.55880  Biso   1.000  H
  H47      1.0000 0.15530  0.70600  0.41450  Biso   1.000  H
  H48      1.0000 0.31060  0.54270  0.42190  Biso   1.000  H
  C1       1.0000 0.12780  0.76560  0.71900  Biso   1.000  C
  C2       1.0000 0.08620  0.67340  0.78160  Biso   1.000  C
  C3       1.0000 0.96210  0.69070  0.81380  Biso   1.000  C
  C4       1.0000 0.88610  0.80130  0.78110  Biso   1.000  C
  C5       1.0000 0.93190  0.89210  0.71760  Biso   1.000  C
  C6       1.0000 0.91570  0.59160  0.88190  Biso   1.000  C
  C7       1.0000 0.75500  0.51670  0.97360  Biso   1.000  C
  C8       1.0000 0.79000  0.41040  0.96950  Biso   1.000  C
  C9       1.0000 0.73280  0.32170  0.03420  Biso   1.000  C
  C10      1.0000 0.64780  0.34200  0.09890  Biso   1.000  C
  C11      1.0000 0.61110  0.44790  0.10300  Biso   1.000  C
  C12      1.0000 0.52180  0.47200  0.17070  Biso   1.000  C
  C13      1.0000 0.49040  0.57550  0.17580  Biso   1.000  C
  C14      1.0000 0.53930  0.66330  0.11010  Biso   1.000  C
  C15      1.0000 0.62390  0.64510  0.04580  Biso   1.000  C
  C16      1.0000 0.66230  0.53750  0.03950  Biso   1.000  C
  C17      1.0000 0.36190  0.39680  0.26170  Biso   1.000  C
  C18      1.0000 0.31020  0.30730  0.33760  Biso   1.000  C
  C19      1.0000 0.37970  0.19300  0.37590  Biso   1.000  C
  C20      1.0000 0.32560  0.11490  0.44830  Biso   1.000  C
  C21      1.0000 0.14320  0.25490  0.44270  Biso   1.000  C
  C22      1.0000 0.18990  0.33750  0.37200  Biso   1.000  C
  C23      1.0000 0.33440  0.99690  0.80530  Biso   1.000  C
  C24      1.0000 0.46220  0.95470  0.82210  Biso   1.000  C
  C25      1.0000 0.52930  0.95480  0.89760  Biso   1.000  C
  C26      1.0000 0.46560  0.00040  0.95910  Biso   1.000  C
  C27      1.0000 0.33300  0.04860  0.94270  Biso   1.000  C
  C28      1.0000 0.26720  0.04710  0.86500  Biso   1.000  C
  C29      1.0000 0.54960  0.44860  0.50240  Biso   1.000  C
  C30      1.0000 0.52810  0.37710  0.46400  Biso   1.000  C
  C31      1.0000 0.61940  0.27990  0.46890  Biso   1.000  C
  C32      1.0000 0.73820  0.24850  0.51440  Biso   1.000  C
  C33      1.0000 0.76420  0.31450  0.55440  Biso   1.000  C
  C34      1.0000 0.67040  0.41360  0.54930  Biso   1.000  C
  C35      1.0000 0.26460  0.99970  0.72340  Biso   1.000  C
  C36      1.0000 0.83930  0.14300  0.51780  Biso   1.000  C
  C37      1.0000 0.87220  0.23440  0.28100  Biso   1.000  C
  C38      1.0000 0.91380  0.32660  0.21840  Biso   1.000  C
  C39      1.0000 0.03790  0.30930  0.18620  Biso   1.000  C
  C40      1.0000 0.11390  0.19870  0.21890  Biso   1.000  C
  C41      1.0000 0.06810  0.10790  0.28240  Biso   1.000  C
  C42      1.0000 0.08430  0.40840  0.11810  Biso   1.000  C
  C43      1.0000 0.24500  0.48330  0.02640  Biso   1.000  C
  C44      1.0000 0.21000  0.58960  0.03050  Biso   1.000  C
  C45      1.0000 0.26720  0.67830  0.96580  Biso   1.000  C
  C46      1.0000 0.35220  0.65800  0.90110  Biso   1.000  C
  C47      1.0000 0.38890  0.55210  0.89700  Biso   1.000  C
  C48      1.0000 0.47820  0.52800  0.82930  Biso   1.000  C
  C49      1.0000 0.50960  0.42450  0.82420  Biso   1.000  C
  C50      1.0000 0.46070  0.33670  0.88990  Biso   1.000  C
  C51      1.0000 0.37610  0.35490  0.95420  Biso   1.000  C
  C52      1.0000 0.33770  0.46250  0.96050  Biso   1.000  C
  C53      1.0000 0.63810  0.60320  0.73830  Biso   1.000  C
  C54      1.0000 0.68980  0.69270  0.66240  Biso   1.000  C
  C55      1.0000 0.62030  0.80700  0.62410  Biso   1.000  C
  C56      1.0000 0.67440  0.88510  0.55170  Biso   1.000  C
  C57      1.0000 0.85680  0.74510  0.55730  Biso   1.000  C
  C58      1.0000 0.81010  0.66250  0.62800  Biso   1.000  C
  C59      1.0000 0.66560  0.00310  0.19470  Biso   1.000  C
  C60      1.0000 0.53780  0.04530  0.17790  Biso   1.000  C
  C61      1.0000 0.47070  0.04520  0.10240  Biso   1.000  C
  C62      1.0000 0.53440  0.99960  0.04090  Biso   1.000  C
  C63      1.0000 0.66700  0.95140  0.05730  Biso   1.000  C
  C64      1.0000 0.73280  0.95290  0.13500  Biso   1.000  C
  C65      1.0000 0.45040  0.55140  0.49760  Biso   1.000  C
  C66      1.0000 0.47190  0.62290  0.53600  Biso   1.000  C
  C67      1.0000 0.38060  0.72010  0.53110  Biso   1.000  C
  C68      1.0000 0.26180  0.75150  0.48560  Biso   1.000  C
  C69      1.0000 0.23580  0.68550  0.44560  Biso   1.000  C
  C70      1.0000 0.32960  0.58640  0.45070  Biso   1.000  C
  C71      1.0000 0.73540  0.00030  0.27660  Biso   1.000  C
  C72      1.0000 0.16070  0.85700  0.48220  Biso   1.000  C
  N1       1.0000 0.05360  0.87360  0.68710  Biso   1.000  N
  N2       1.0000 0.79940  0.60960  0.91040  Biso   1.000  N
  N3       1.0000 0.47810  0.37550  0.23780  Biso   1.000  N
  N4       1.0000 0.20880  0.14370  0.48080  Biso   1.000  N
  N5       1.0000 0.94640  0.12640  0.31290  Biso   1.000  N
  N6       1.0000 0.20060  0.39040  0.08960  Biso   1.000  N
  N7       1.0000 0.52190  0.62450  0.76220  Biso   1.000  N
  N8       1.0000 0.79120  0.85630  0.51920  Biso   1.000  N
  O1       1.0000 0.31540  0.94610  0.67680  Biso   1.000  O
  O2       1.0000 0.14650  0.05960  0.70410  Biso   1.000  O
  O3       1.0000 0.95140  0.12740  0.54910  Biso   1.000  O
  O4       1.0000 0.80490  0.07940  0.48820  Biso   1.000  O
  O5       1.0000 0.68460  0.05390  0.32320  Biso   1.000  O
  O6       1.0000 0.85350  0.94040  0.29590  Biso   1.000  O
  O7       1.0000 0.04860  0.87260  0.45090  Biso   1.000  O
  O8       1.0000 0.19510  0.92060  0.51180  Biso   1.000  O
