data_image0
_cell_length_a       11.22
_cell_length_b       11.22
_cell_length_c       21.149
_cell_angle_alpha    95.7329
_cell_angle_beta     95.7329
_cell_angle_gamma    107.107

_symmetry_space_group_name_H-M    P 1
_symmetry_int_tables_number       1

loop_
  _symmetry_equiv_pos_as_xyz
  'x, y, z'

loop_
  _atom_site_label
  _atom_site_occupancy
  _atom_site_fract_x
  _atom_site_fract_y
  _atom_site_fract_z
  _atom_site_thermal_displace_type
  _atom_site_B_iso_or_equiv
  _atom_site_type_symbol
  Co1      1.0000 0.01988  0.50526  0.80707  Biso   1.000  Co
  Co2      1.0000 0.49474  0.98012  0.69293  Biso   1.000  Co
  Co3      1.0000 0.98012  0.49474  0.19293  Biso   1.000  Co
  Co4      1.0000 0.50526  0.01988  0.30707  Biso   1.000  Co
  Co5      1.0000 0.24716  0.75284  0.75000  Biso   1.000  Co
  Co6      1.0000 0.75284  0.24716  0.25000  Biso   1.000  Co
  H1       1.0000 0.04840  0.65200  0.60910  Biso   1.000  H
  H2       1.0000 0.03060  0.74320  0.50640  Biso   1.000  H
  H3       1.0000 0.00620  0.71920  0.39690  Biso   1.000  H
  H4       1.0000 0.23830  0.01010  0.52950  Biso   1.000  H
  H5       1.0000 0.17020  0.06480  0.42280  Biso   1.000  H
  H6       1.0000 0.51870  0.73350  0.90540  Biso   1.000  H
  H7       1.0000 0.28570  0.39510  0.92300  Biso   1.000  H
  H8       1.0000 0.34300  0.27780  0.00970  Biso   1.000  H
  H9       1.0000 0.76550  0.26710  0.81790  Biso   1.000  H
  H10      1.0000 0.58290  0.25690  0.85470  Biso   1.000  H
  H11      1.0000 0.59090  0.25430  0.92900  Biso   1.000  H
  H12      1.0000 0.59070  0.37830  0.90080  Biso   1.000  H
  H13      1.0000 0.98200  0.90060  0.64700  Biso   1.000  H
  H14      1.0000 0.79840  0.48720  0.97080  Biso   1.000  H
  H15      1.0000 0.80870  0.36250  0.99490  Biso   1.000  H
  H16      1.0000 0.91270  0.43950  0.95760  Biso   1.000  H
  H17      1.0000 0.34800  0.95160  0.89090  Biso   1.000  H
  H18      1.0000 0.25680  0.96940  0.99360  Biso   1.000  H
  H19      1.0000 0.28080  0.99380  0.10310  Biso   1.000  H
  H20      1.0000 0.98990  0.76170  0.97050  Biso   1.000  H
  H21      1.0000 0.93520  0.82980  0.07720  Biso   1.000  H
  H22      1.0000 0.26650  0.48130  0.59460  Biso   1.000  H
  H23      1.0000 0.60490  0.71430  0.57700  Biso   1.000  H
  H24      1.0000 0.72220  0.65700  0.49030  Biso   1.000  H
  H25      1.0000 0.73290  0.23450  0.68210  Biso   1.000  H
  H26      1.0000 0.74310  0.41710  0.64530  Biso   1.000  H
  H27      1.0000 0.74570  0.40910  0.57100  Biso   1.000  H
  H28      1.0000 0.62170  0.40930  0.59920  Biso   1.000  H
  H29      1.0000 0.09940  0.01800  0.85300  Biso   1.000  H
  H30      1.0000 0.51280  0.20160  0.52920  Biso   1.000  H
  H31      1.0000 0.63750  0.19130  0.50510  Biso   1.000  H
  H32      1.0000 0.56050  0.08730  0.54240  Biso   1.000  H
  H33      1.0000 0.95160  0.34800  0.39090  Biso   1.000  H
  H34      1.0000 0.96940  0.25680  0.49360  Biso   1.000  H
  H35      1.0000 0.99380  0.28080  0.60310  Biso   1.000  H
  H36      1.0000 0.76170  0.98990  0.47050  Biso   1.000  H
  H37      1.0000 0.82980  0.93520  0.57720  Biso   1.000  H
  H38      1.0000 0.48130  0.26650  0.09460  Biso   1.000  H
  H39      1.0000 0.71430  0.60490  0.07700  Biso   1.000  H
  H40      1.0000 0.65700  0.72220  0.99030  Biso   1.000  H
  H41      1.0000 0.23450  0.73290  0.18210  Biso   1.000  H
  H42      1.0000 0.41710  0.74310  0.14530  Biso   1.000  H
  H43      1.0000 0.40910  0.74570  0.07100  Biso   1.000  H
  H44      1.0000 0.40930  0.62170  0.09920  Biso   1.000  H
  H45      1.0000 0.01800  0.09940  0.35300  Biso   1.000  H
  H46      1.0000 0.20160  0.51280  0.02920  Biso   1.000  H
  H47      1.0000 0.19130  0.63750  0.00510  Biso   1.000  H
  H48      1.0000 0.08730  0.56050  0.04240  Biso   1.000  H
  H49      1.0000 0.65200  0.04840  0.10910  Biso   1.000  H
  H50      1.0000 0.74320  0.03060  0.00640  Biso   1.000  H
  H51      1.0000 0.71920  0.00620  0.89690  Biso   1.000  H
  H52      1.0000 0.01010  0.23830  0.02950  Biso   1.000  H
  H53      1.0000 0.06480  0.17020  0.92280  Biso   1.000  H
  H54      1.0000 0.73350  0.51870  0.40540  Biso   1.000  H
  H55      1.0000 0.39510  0.28570  0.42300  Biso   1.000  H
  H56      1.0000 0.27780  0.34300  0.50970  Biso   1.000  H
  H57      1.0000 0.26710  0.76550  0.31790  Biso   1.000  H
  H58      1.0000 0.25690  0.58290  0.35470  Biso   1.000  H
  H59      1.0000 0.25430  0.59090  0.42900  Biso   1.000  H
  H60      1.0000 0.37830  0.59070  0.40080  Biso   1.000  H
  H61      1.0000 0.90060  0.98200  0.14700  Biso   1.000  H
  H62      1.0000 0.48720  0.79840  0.47080  Biso   1.000  H
  H63      1.0000 0.36250  0.80870  0.49490  Biso   1.000  H
  H64      1.0000 0.43950  0.91270  0.45760  Biso   1.000  H
  C1       1.0000 0.01140  0.56040  0.51773  Biso   1.000  C
  C2       1.0000 0.03070  0.57290  0.58549  Biso   1.000  C
  C3       1.0000 0.03390  0.48350  0.68820  Biso   1.000  C
  C4       1.0000 0.01630  0.66390  0.48370  Biso   1.000  C
  C5       1.0000 0.02370  0.47130  0.61675  Biso   1.000  C
  C6       1.0000 0.00080  0.64980  0.41835  Biso   1.000  C
  C7       1.0000 0.06170  0.01250  0.49200  Biso   1.000  C
  C8       1.0000 0.22260  0.92080  0.64003  Biso   1.000  C
  C9       1.0000 0.15590  0.99310  0.53830  Biso   1.000  C
  C10      1.0000 0.12640  0.95100  0.59390  Biso   1.000  C
  C11      1.0000 0.08950  0.05170  0.43350  Biso   1.000  C
  C12      1.0000 0.44410  0.45070  0.98987  Biso   1.000  C
  C13      1.0000 0.50020  0.66300  0.92670  Biso   1.000  C
  C14      1.0000 0.38750  0.56490  0.90634  Biso   1.000  C
  C15      1.0000 0.35980  0.46040  0.93689  Biso   1.000  C
  C16      1.0000 0.29440  0.57680  0.85160  Biso   1.000  C
  C17      1.0000 0.41720  0.34360  0.02270  Biso   1.000  C
  C18      1.0000 0.81290  0.31830  0.85460  Biso   1.000  C
  C19      1.0000 0.61820  0.30500  0.89600  Biso   1.000  C
  C20      1.0000 0.00200  0.92880  0.60840  Biso   1.000  C
  C21      1.0000 0.82440  0.41400  0.96120  Biso   1.000  C
  C22      1.0000 0.43960  0.98860  0.98227  Biso   1.000  C
  C23      1.0000 0.42710  0.96930  0.91451  Biso   1.000  C
  C24      1.0000 0.51650  0.96610  0.81180  Biso   1.000  C
  C25      1.0000 0.33610  0.98370  0.01630  Biso   1.000  C
  C26      1.0000 0.52870  0.97630  0.88325  Biso   1.000  C
  C27      1.0000 0.35020  0.99920  0.08165  Biso   1.000  C
  C28      1.0000 0.98750  0.93830  0.00800  Biso   1.000  C
  C29      1.0000 0.07920  0.77740  0.85997  Biso   1.000  C
  C30      1.0000 0.00690  0.84410  0.96170  Biso   1.000  C
  C31      1.0000 0.04900  0.87360  0.90610  Biso   1.000  C
  C32      1.0000 0.94830  0.91050  0.06650  Biso   1.000  C
  C33      1.0000 0.54930  0.55590  0.51013  Biso   1.000  C
  C34      1.0000 0.33700  0.49980  0.57330  Biso   1.000  C
  C35      1.0000 0.43510  0.61250  0.59366  Biso   1.000  C
  C36      1.0000 0.53960  0.64020  0.56311  Biso   1.000  C
  C37      1.0000 0.42320  0.70560  0.64840  Biso   1.000  C
  C38      1.0000 0.65640  0.58280  0.47730  Biso   1.000  C
  C39      1.0000 0.68170  0.18710  0.64540  Biso   1.000  C
  C40      1.0000 0.69500  0.38180  0.60400  Biso   1.000  C
  C41      1.0000 0.07120  0.99800  0.89160  Biso   1.000  C
  C42      1.0000 0.58600  0.17560  0.53880  Biso   1.000  C
  C43      1.0000 0.98860  0.43960  0.48227  Biso   1.000  C
  C44      1.0000 0.96930  0.42710  0.41451  Biso   1.000  C
  C45      1.0000 0.96610  0.51650  0.31180  Biso   1.000  C
  C46      1.0000 0.98370  0.33610  0.51630  Biso   1.000  C
  C47      1.0000 0.97630  0.52870  0.38325  Biso   1.000  C
  C48      1.0000 0.99920  0.35020  0.58165  Biso   1.000  C
  C49      1.0000 0.93830  0.98750  0.50800  Biso   1.000  C
  C50      1.0000 0.77740  0.07920  0.35997  Biso   1.000  C
  C51      1.0000 0.84410  0.00690  0.46170  Biso   1.000  C
  C52      1.0000 0.87360  0.04900  0.40610  Biso   1.000  C
  C53      1.0000 0.91050  0.94830  0.56650  Biso   1.000  C
  C54      1.0000 0.55590  0.54930  0.01013  Biso   1.000  C
  C55      1.0000 0.49980  0.33700  0.07330  Biso   1.000  C
  C56      1.0000 0.61250  0.43510  0.09366  Biso   1.000  C
  C57      1.0000 0.64020  0.53960  0.06311  Biso   1.000  C
  C58      1.0000 0.70560  0.42320  0.14840  Biso   1.000  C
  C59      1.0000 0.58280  0.65640  0.97730  Biso   1.000  C
  C60      1.0000 0.18710  0.68170  0.14540  Biso   1.000  C
  C61      1.0000 0.38180  0.69500  0.10400  Biso   1.000  C
  C62      1.0000 0.99800  0.07120  0.39160  Biso   1.000  C
  C63      1.0000 0.17560  0.58600  0.03880  Biso   1.000  C
  C64      1.0000 0.56040  0.01140  0.01773  Biso   1.000  C
  C65      1.0000 0.57290  0.03070  0.08549  Biso   1.000  C
  C66      1.0000 0.48350  0.03390  0.18820  Biso   1.000  C
  C67      1.0000 0.66390  0.01630  0.98370  Biso   1.000  C
  C68      1.0000 0.47130  0.02370  0.11675  Biso   1.000  C
  C69      1.0000 0.64980  0.00080  0.91835  Biso   1.000  C
  C70      1.0000 0.01250  0.06170  0.99200  Biso   1.000  C
  C71      1.0000 0.92080  0.22260  0.14003  Biso   1.000  C
  C72      1.0000 0.99310  0.15590  0.03830  Biso   1.000  C
  C73      1.0000 0.95100  0.12640  0.09390  Biso   1.000  C
  C74      1.0000 0.05170  0.08950  0.93350  Biso   1.000  C
  C75      1.0000 0.45070  0.44410  0.48987  Biso   1.000  C
  C76      1.0000 0.66300  0.50020  0.42670  Biso   1.000  C
  C77      1.0000 0.56490  0.38750  0.40634  Biso   1.000  C
  C78      1.0000 0.46040  0.35980  0.43689  Biso   1.000  C
  C79      1.0000 0.57680  0.29440  0.35160  Biso   1.000  C
  C80      1.0000 0.34360  0.41720  0.52270  Biso   1.000  C
  C81      1.0000 0.31830  0.81290  0.35460  Biso   1.000  C
  C82      1.0000 0.30500  0.61820  0.39600  Biso   1.000  C
  C83      1.0000 0.92880  0.00200  0.10840  Biso   1.000  C
  C84      1.0000 0.41400  0.82440  0.46120  Biso   1.000  C
  N1       1.0000 0.75460  0.34320  0.90150  Biso   1.000  N
  N2       1.0000 0.65680  0.24540  0.59850  Biso   1.000  N
  N3       1.0000 0.24540  0.65680  0.09850  Biso   1.000  N
  N4       1.0000 0.34320  0.75460  0.40150  Biso   1.000  N
  O1       1.0000 0.07760  0.59220  0.72111  Biso   1.000  O
  O2       1.0000 0.18157  0.86063  0.68366  Biso   1.000  O
  O3       1.0000 0.99421  0.38819  0.71490  Biso   1.000  O
  O4       1.0000 0.19065  0.49115  0.84102  Biso   1.000  O
  O5       1.0000 0.93050  0.35970  0.85590  Biso   1.000  O
  O6       1.0000 0.32825  0.66855  0.82247  Biso   1.000  O
  O7       1.0000 0.33700  0.95960  0.63034  Biso   1.000  O
  O8       1.0000 0.40780  0.92240  0.77889  Biso   1.000  O
  O9       1.0000 0.13937  0.81843  0.81634  Biso   1.000  O
  O10      1.0000 0.61181  0.00579  0.78510  Biso   1.000  O
  O11      1.0000 0.50885  0.80935  0.65898  Biso   1.000  O
  O12      1.0000 0.64030  0.06950  0.64410  Biso   1.000  O
  O13      1.0000 0.33145  0.67175  0.67753  Biso   1.000  O
  O14      1.0000 0.04040  0.66300  0.86966  Biso   1.000  O
  O15      1.0000 0.92240  0.40780  0.27889  Biso   1.000  O
  O16      1.0000 0.81843  0.13937  0.31634  Biso   1.000  O
  O17      1.0000 0.00579  0.61181  0.28510  Biso   1.000  O
  O18      1.0000 0.80935  0.50885  0.15898  Biso   1.000  O
  O19      1.0000 0.06950  0.64030  0.14410  Biso   1.000  O
  O20      1.0000 0.67175  0.33145  0.17753  Biso   1.000  O
  O21      1.0000 0.66300  0.04040  0.36966  Biso   1.000  O
  O22      1.0000 0.59220  0.07760  0.22111  Biso   1.000  O
  O23      1.0000 0.86063  0.18157  0.18366  Biso   1.000  O
  O24      1.0000 0.38819  0.99421  0.21490  Biso   1.000  O
  O25      1.0000 0.49115  0.19065  0.34102  Biso   1.000  O
  O26      1.0000 0.35970  0.93050  0.35590  Biso   1.000  O
  O27      1.0000 0.66855  0.32825  0.32247  Biso   1.000  O
  O28      1.0000 0.95960  0.33700  0.13034  Biso   1.000  O
