data_image0
_cell_length_a       12.646
_cell_length_b       14.834
_cell_length_c       16.0521
_cell_angle_alpha    90
_cell_angle_beta     98.1263
_cell_angle_gamma    90

_symmetry_space_group_name_H-M    P 1
_symmetry_int_tables_number       1

loop_
  _symmetry_equiv_pos_as_xyz
  'x, y, z'

loop_
  _atom_site_label
  _atom_site_occupancy
  _atom_site_fract_x
  _atom_site_fract_y
  _atom_site_fract_z
  _atom_site_thermal_displace_type
  _atom_site_B_iso_or_equiv
  _atom_site_type_symbol
  Mn1      1.0000 0.02249  0.24871  0.01530  Biso   1.000  Mn
  Mn2      1.0000 0.47751  0.74871  0.48470  Biso   1.000  Mn
  Mn3      1.0000 0.97751  0.75129  0.98470  Biso   1.000  Mn
  Mn4      1.0000 0.52249  0.25129  0.51530  Biso   1.000  Mn
  Mn5      1.0000 0.00000  0.00000  0.00000  Biso   1.000  Mn
  Mn6      1.0000 0.50000  0.50000  0.50000  Biso   1.000  Mn
  Mn7      1.0000 0.00000  0.50000  0.00000  Biso   1.000  Mn
  Mn8      1.0000 0.50000  0.00000  0.50000  Biso   1.000  Mn
  H1       1.0000 0.71870  0.05470  0.80870  Biso   1.000  H
  H2       1.0000 0.54470  0.05290  0.74610  Biso   1.000  H
  H3       1.0000 0.47230  0.24590  0.90490  Biso   1.000  H
  H4       1.0000 0.65260  0.25420  0.96130  Biso   1.000  H
  H5       1.0000 0.20750  0.11110  0.61460  Biso   1.000  H
  H6       1.0000 0.32090  0.14010  0.89750  Biso   1.000  H
  H7       1.0000 0.05090  0.01690  0.60280  Biso   1.000  H
  H8       1.0000 0.87580  0.01050  0.54380  Biso   1.000  H
  H9       1.0000 0.80740  0.20380  0.70460  Biso   1.000  H
  H10      1.0000 0.98090  0.20130  0.76740  Biso   1.000  H
  H11      1.0000 0.26590  0.06610  0.29820  Biso   1.000  H
  H12      1.0000 0.26070  0.17170  0.29760  Biso   1.000  H
  H13      1.0000 0.33890  0.12160  0.24570  Biso   1.000  H
  H14      1.0000 0.02530  0.37410  0.88080  Biso   1.000  H
  H15      1.0000 0.90570  0.36820  0.89690  Biso   1.000  H
  H16      1.0000 0.78130  0.55470  0.69130  Biso   1.000  H
  H17      1.0000 0.95530  0.55290  0.75390  Biso   1.000  H
  H18      1.0000 0.02770  0.74590  0.59510  Biso   1.000  H
  H19      1.0000 0.84740  0.75420  0.53870  Biso   1.000  H
  H20      1.0000 0.29250  0.61110  0.88540  Biso   1.000  H
  H21      1.0000 0.17910  0.64010  0.60250  Biso   1.000  H
  H22      1.0000 0.44910  0.51690  0.89720  Biso   1.000  H
  H23      1.0000 0.62420  0.51050  0.95620  Biso   1.000  H
  H24      1.0000 0.69260  0.70380  0.79540  Biso   1.000  H
  H25      1.0000 0.51910  0.70130  0.73260  Biso   1.000  H
  H26      1.0000 0.23410  0.56610  0.20180  Biso   1.000  H
  H27      1.0000 0.23930  0.67170  0.20240  Biso   1.000  H
  H28      1.0000 0.16110  0.62160  0.25430  Biso   1.000  H
  H29      1.0000 0.47470  0.87410  0.61920  Biso   1.000  H
  H30      1.0000 0.59430  0.86820  0.60310  Biso   1.000  H
  H31      1.0000 0.28130  0.94530  0.19130  Biso   1.000  H
  H32      1.0000 0.45530  0.94710  0.25390  Biso   1.000  H
  H33      1.0000 0.52770  0.75410  0.09510  Biso   1.000  H
  H34      1.0000 0.34740  0.74580  0.03870  Biso   1.000  H
  H35      1.0000 0.79250  0.88890  0.38540  Biso   1.000  H
  H36      1.0000 0.67910  0.85990  0.10250  Biso   1.000  H
  H37      1.0000 0.94910  0.98310  0.39720  Biso   1.000  H
  H38      1.0000 0.12420  0.98950  0.45620  Biso   1.000  H
  H39      1.0000 0.19260  0.79620  0.29540  Biso   1.000  H
  H40      1.0000 0.01910  0.79870  0.23260  Biso   1.000  H
  H41      1.0000 0.73410  0.93390  0.70180  Biso   1.000  H
  H42      1.0000 0.73930  0.82830  0.70240  Biso   1.000  H
  H43      1.0000 0.66110  0.87840  0.75430  Biso   1.000  H
  H44      1.0000 0.97470  0.62590  0.11920  Biso   1.000  H
  H45      1.0000 0.09430  0.63180  0.10310  Biso   1.000  H
  H46      1.0000 0.21870  0.44530  0.30870  Biso   1.000  H
  H47      1.0000 0.04470  0.44710  0.24610  Biso   1.000  H
  H48      1.0000 0.97230  0.25410  0.40490  Biso   1.000  H
  H49      1.0000 0.15260  0.24580  0.46130  Biso   1.000  H
  H50      1.0000 0.70750  0.38890  0.11460  Biso   1.000  H
  H51      1.0000 0.82090  0.35990  0.39750  Biso   1.000  H
  H52      1.0000 0.55090  0.48310  0.10280  Biso   1.000  H
  H53      1.0000 0.37580  0.48950  0.04380  Biso   1.000  H
  H54      1.0000 0.30740  0.29620  0.20460  Biso   1.000  H
  H55      1.0000 0.48090  0.29870  0.26740  Biso   1.000  H
  H56      1.0000 0.76590  0.43390  0.79820  Biso   1.000  H
  H57      1.0000 0.76070  0.32830  0.79760  Biso   1.000  H
  H58      1.0000 0.83890  0.37840  0.74570  Biso   1.000  H
  H59      1.0000 0.52530  0.12590  0.38080  Biso   1.000  H
  H60      1.0000 0.40570  0.13180  0.39690  Biso   1.000  H
  C1       1.0000 0.82000  0.15010  0.93560  Biso   1.000  C
  C2       1.0000 0.70510  0.15370  0.89260  Biso   1.000  C
  C3       1.0000 0.67000  0.09390  0.82780  Biso   1.000  C
  C4       1.0000 0.56540  0.09130  0.79120  Biso   1.000  C
  C5       1.0000 0.48950  0.14660  0.82160  Biso   1.000  C
  C6       1.0000 0.52180  0.20790  0.88520  Biso   1.000  C
  C7       1.0000 0.63030  0.21200  0.91970  Biso   1.000  C
  C8       1.0000 0.37190  0.13870  0.78600  Biso   1.000  C
  C9       1.0000 0.33630  0.12930  0.69950  Biso   1.000  C
  C10      1.0000 0.40930  0.13370  0.63260  Biso   1.000  C
  C11      1.0000 0.22980  0.11830  0.67200  Biso   1.000  C
  C12      1.0000 0.15250  0.11760  0.72710  Biso   1.000  C
  C13      1.0000 0.18830  0.12660  0.81390  Biso   1.000  C
  C14      1.0000 0.11390  0.12270  0.88040  Biso   1.000  C
  C15      1.0000 0.29730  0.13580  0.84010  Biso   1.000  C
  C16      1.0000 0.03460  0.11240  0.69100  Biso   1.000  C
  C17      1.0000 0.00110  0.05360  0.62360  Biso   1.000  C
  C18      1.0000 0.89680  0.04980  0.58830  Biso   1.000  C
  C19      1.0000 0.82060  0.10510  0.61900  Biso   1.000  C
  C20      1.0000 0.85550  0.16440  0.68510  Biso   1.000  C
  C21      1.0000 0.96010  0.16450  0.72100  Biso   1.000  C
  C22      1.0000 0.70380  0.10780  0.57820  Biso   1.000  C
  C23      1.0000 0.15010  0.11630  0.13470  Biso   1.000  C
  C24      1.0000 0.27030  0.11920  0.26460  Biso   1.000  C
  C25      1.0000 0.68000  0.65010  0.56440  Biso   1.000  C
  C26      1.0000 0.79490  0.65370  0.60740  Biso   1.000  C
  C27      1.0000 0.83000  0.59390  0.67220  Biso   1.000  C
  C28      1.0000 0.93460  0.59130  0.70880  Biso   1.000  C
  C29      1.0000 0.01050  0.64660  0.67840  Biso   1.000  C
  C30      1.0000 0.97820  0.70790  0.61480  Biso   1.000  C
  C31      1.0000 0.86970  0.71200  0.58030  Biso   1.000  C
  C32      1.0000 0.12810  0.63870  0.71400  Biso   1.000  C
  C33      1.0000 0.16370  0.62930  0.80050  Biso   1.000  C
  C34      1.0000 0.09070  0.63370  0.86740  Biso   1.000  C
  C35      1.0000 0.27020  0.61830  0.82800  Biso   1.000  C
  C36      1.0000 0.34750  0.61760  0.77290  Biso   1.000  C
  C37      1.0000 0.31170  0.62660  0.68610  Biso   1.000  C
  C38      1.0000 0.38610  0.62270  0.61960  Biso   1.000  C
  C39      1.0000 0.20270  0.63580  0.65990  Biso   1.000  C
  C40      1.0000 0.46540  0.61240  0.80900  Biso   1.000  C
  C41      1.0000 0.49890  0.55360  0.87640  Biso   1.000  C
  C42      1.0000 0.60320  0.54980  0.91170  Biso   1.000  C
  C43      1.0000 0.67940  0.60510  0.88100  Biso   1.000  C
  C44      1.0000 0.64450  0.66440  0.81490  Biso   1.000  C
  C45      1.0000 0.53990  0.66450  0.77900  Biso   1.000  C
  C46      1.0000 0.79620  0.60780  0.92180  Biso   1.000  C
  C47      1.0000 0.34990  0.61630  0.36530  Biso   1.000  C
  C48      1.0000 0.22970  0.61920  0.23540  Biso   1.000  C
  C49      1.0000 0.18000  0.84990  0.06440  Biso   1.000  C
  C50      1.0000 0.29490  0.84630  0.10740  Biso   1.000  C
  C51      1.0000 0.33000  0.90610  0.17220  Biso   1.000  C
  C52      1.0000 0.43460  0.90870  0.20880  Biso   1.000  C
  C53      1.0000 0.51050  0.85340  0.17840  Biso   1.000  C
  C54      1.0000 0.47820  0.79210  0.11480  Biso   1.000  C
  C55      1.0000 0.36970  0.78800  0.08030  Biso   1.000  C
  C56      1.0000 0.62810  0.86130  0.21400  Biso   1.000  C
  C57      1.0000 0.66370  0.87070  0.30050  Biso   1.000  C
  C58      1.0000 0.59070  0.86630  0.36740  Biso   1.000  C
  C59      1.0000 0.77020  0.88170  0.32800  Biso   1.000  C
  C60      1.0000 0.84750  0.88240  0.27290  Biso   1.000  C
  C61      1.0000 0.81170  0.87340  0.18610  Biso   1.000  C
  C62      1.0000 0.88610  0.87730  0.11960  Biso   1.000  C
  C63      1.0000 0.70270  0.86420  0.15990  Biso   1.000  C
  C64      1.0000 0.96540  0.88760  0.30900  Biso   1.000  C
  C65      1.0000 0.99890  0.94640  0.37640  Biso   1.000  C
  C66      1.0000 0.10320  0.95020  0.41170  Biso   1.000  C
  C67      1.0000 0.17940  0.89490  0.38100  Biso   1.000  C
  C68      1.0000 0.14450  0.83560  0.31490  Biso   1.000  C
  C69      1.0000 0.03990  0.83550  0.27900  Biso   1.000  C
  C70      1.0000 0.29620  0.89220  0.42180  Biso   1.000  C
  C71      1.0000 0.84990  0.88370  0.86530  Biso   1.000  C
  C72      1.0000 0.72970  0.88080  0.73540  Biso   1.000  C
  C73      1.0000 0.32000  0.34990  0.43560  Biso   1.000  C
  C74      1.0000 0.20510  0.34630  0.39260  Biso   1.000  C
  C75      1.0000 0.17000  0.40610  0.32780  Biso   1.000  C
  C76      1.0000 0.06540  0.40870  0.29120  Biso   1.000  C
  C77      1.0000 0.98950  0.35340  0.32160  Biso   1.000  C
  C78      1.0000 0.02180  0.29210  0.38520  Biso   1.000  C
  C79      1.0000 0.13030  0.28800  0.41970  Biso   1.000  C
  C80      1.0000 0.87190  0.36130  0.28600  Biso   1.000  C
  C81      1.0000 0.83630  0.37070  0.19950  Biso   1.000  C
  C82      1.0000 0.90930  0.36630  0.13260  Biso   1.000  C
  C83      1.0000 0.72980  0.38170  0.17200  Biso   1.000  C
  C84      1.0000 0.65250  0.38240  0.22710  Biso   1.000  C
  C85      1.0000 0.68830  0.37340  0.31390  Biso   1.000  C
  C86      1.0000 0.61390  0.37730  0.38040  Biso   1.000  C
  C87      1.0000 0.79730  0.36420  0.34010  Biso   1.000  C
  C88      1.0000 0.53460  0.38760  0.19100  Biso   1.000  C
  C89      1.0000 0.50110  0.44640  0.12360  Biso   1.000  C
  C90      1.0000 0.39680  0.45020  0.08830  Biso   1.000  C
  C91      1.0000 0.32060  0.39490  0.11900  Biso   1.000  C
  C92      1.0000 0.35550  0.33560  0.18510  Biso   1.000  C
  C93      1.0000 0.46010  0.33550  0.22100  Biso   1.000  C
  C94      1.0000 0.20380  0.39220  0.07820  Biso   1.000  C
  C95      1.0000 0.65010  0.38370  0.63470  Biso   1.000  C
  C96      1.0000 0.77030  0.38080  0.76460  Biso   1.000  C
  N1       1.0000 0.18790  0.11620  0.19280  Biso   1.000  N
  N2       1.0000 0.31210  0.61620  0.30720  Biso   1.000  N
  N3       1.0000 0.81210  0.88380  0.80720  Biso   1.000  N
  N4       1.0000 0.68790  0.38380  0.69280  Biso   1.000  N
  O1       1.0000 0.86070  0.22430  0.95880  Biso   1.000  O
  O2       1.0000 0.86050  0.07530  0.94550  Biso   1.000  O
  O3       1.0000 0.45440  0.20810  0.62340  Biso   1.000  O
  O4       1.0000 0.41870  0.06450  0.59010  Biso   1.000  O
  O5       1.0000 0.09620  0.19590  0.91390  Biso   1.000  O
  O6       1.0000 0.08090  0.04680  0.89870  Biso   1.000  O
  O7       1.0000 0.66000  0.03510  0.55930  Biso   1.000  O
  O8       1.0000 0.66500  0.18520  0.56670  Biso   1.000  O
  O9       1.0000 0.07200  0.11780  0.07950  Biso   1.000  O
  O10      1.0000 0.97900  0.37320  0.92410  Biso   1.000  O
  O11      1.0000 0.63930  0.72430  0.54120  Biso   1.000  O
  O12      1.0000 0.63950  0.57530  0.55450  Biso   1.000  O
  O13      1.0000 0.04560  0.70810  0.87660  Biso   1.000  O
  O14      1.0000 0.08130  0.56450  0.90990  Biso   1.000  O
  O15      1.0000 0.40380  0.69590  0.58610  Biso   1.000  O
  O16      1.0000 0.41910  0.54680  0.60130  Biso   1.000  O
  O17      1.0000 0.84000  0.53510  0.94070  Biso   1.000  O
  O18      1.0000 0.83500  0.68520  0.93330  Biso   1.000  O
  O19      1.0000 0.42800  0.61780  0.42050  Biso   1.000  O
  O20      1.0000 0.52100  0.87320  0.57590  Biso   1.000  O
  O21      1.0000 0.13930  0.77570  0.04120  Biso   1.000  O
  O22      1.0000 0.13950  0.92470  0.05450  Biso   1.000  O
  O23      1.0000 0.54560  0.79190  0.37660  Biso   1.000  O
  O24      1.0000 0.58130  0.93550  0.40990  Biso   1.000  O
  O25      1.0000 0.90380  0.80410  0.08610  Biso   1.000  O
  O26      1.0000 0.91910  0.95320  0.10130  Biso   1.000  O
  O27      1.0000 0.34000  0.96490  0.44070  Biso   1.000  O
  O28      1.0000 0.33500  0.81480  0.43330  Biso   1.000  O
  O29      1.0000 0.92800  0.88220  0.92050  Biso   1.000  O
  O30      1.0000 0.02100  0.62680  0.07590  Biso   1.000  O
  O31      1.0000 0.36070  0.27570  0.45880  Biso   1.000  O
  O32      1.0000 0.36050  0.42470  0.44550  Biso   1.000  O
  O33      1.0000 0.95440  0.29190  0.12340  Biso   1.000  O
  O34      1.0000 0.91870  0.43550  0.09010  Biso   1.000  O
  O35      1.0000 0.59620  0.30410  0.41390  Biso   1.000  O
  O36      1.0000 0.58090  0.45320  0.39870  Biso   1.000  O
  O37      1.0000 0.16000  0.46490  0.05930  Biso   1.000  O
  O38      1.0000 0.16500  0.31480  0.06670  Biso   1.000  O
  O39      1.0000 0.57200  0.38220  0.57950  Biso   1.000  O
  O40      1.0000 0.47900  0.12680  0.42410  Biso   1.000  O
