data_image0
_cell_length_a       13.372
_cell_length_b       14.164
_cell_length_c       16.713
_cell_angle_alpha    69.626
_cell_angle_beta     68.786
_cell_angle_gamma    73.544

_symmetry_space_group_name_H-M    P 1
_symmetry_int_tables_number       1

loop_
  _symmetry_equiv_pos_as_xyz
  'x, y, z'

loop_
  _atom_site_label
  _atom_site_occupancy
  _atom_site_fract_x
  _atom_site_fract_y
  _atom_site_fract_z
  _atom_site_thermal_displace_type
  _atom_site_B_iso_or_equiv
  _atom_site_type_symbol
  Mn1      1.0000 0.50000  0.00000  0.50000  Biso   1.000  Mn
  Zn1      1.0000 0.08223  0.56710  0.95932  Biso   1.000  Zn
  Zn2      1.0000 0.91777  0.43290  0.04068  Biso   1.000  Zn
  H1       1.0000 0.95850  0.77410  0.74300  Biso   1.000  H
  H2       1.0000 0.85400  0.87340  0.63200  Biso   1.000  H
  H3       1.0000 0.61550  0.72190  0.78790  Biso   1.000  H
  H4       1.0000 0.71540  0.62390  0.88150  Biso   1.000  H
  H5       1.0000 0.59440  0.95090  0.78120  Biso   1.000  H
  H6       1.0000 0.44350  0.09710  0.78180  Biso   1.000  H
  H7       1.0000 0.18800  0.29300  0.57310  Biso   1.000  H
  H8       1.0000 0.18050  0.28310  0.43460  Biso   1.000  H
  H9       1.0000 0.39640  0.32650  0.64130  Biso   1.000  H
  H10      1.0000 0.31010  0.42380  0.75260  Biso   1.000  H
  H11      1.0000 0.08370  0.23460  0.87410  Biso   1.000  H
  H12      1.0000 0.18420  0.14550  0.76210  Biso   1.000  H
  H13      1.0000 0.17690  0.59880  0.08140  Biso   1.000  H
  H14      1.0000 0.29080  0.69670  0.07570  Biso   1.000  H
  H15      1.0000 0.31120  0.83030  0.81260  Biso   1.000  H
  H16      1.0000 0.21320  0.72490  0.83160  Biso   1.000  H
  H17      1.0000 0.26330  0.13310  0.95410  Biso   1.000  H
  H18      1.0000 0.65520  0.75980  0.02780  Biso   1.000  H
  H19      1.0000 0.04150  0.22590  0.25700  Biso   1.000  H
  H20      1.0000 0.14600  0.12660  0.36800  Biso   1.000  H
  H21      1.0000 0.38450  0.27810  0.21210  Biso   1.000  H
  H22      1.0000 0.28460  0.37610  0.11850  Biso   1.000  H
  H23      1.0000 0.40560  0.04910  0.21880  Biso   1.000  H
  H24      1.0000 0.55650  0.90290  0.21820  Biso   1.000  H
  H25      1.0000 0.81200  0.70700  0.42690  Biso   1.000  H
  H26      1.0000 0.81950  0.71690  0.56540  Biso   1.000  H
  H27      1.0000 0.60360  0.67350  0.35870  Biso   1.000  H
  H28      1.0000 0.68990  0.57620  0.24740  Biso   1.000  H
  H29      1.0000 0.91630  0.76540  0.12590  Biso   1.000  H
  H30      1.0000 0.81580  0.85450  0.23790  Biso   1.000  H
  H31      1.0000 0.82310  0.40120  0.91860  Biso   1.000  H
  H32      1.0000 0.70920  0.30330  0.92430  Biso   1.000  H
  H33      1.0000 0.68880  0.16970  0.18740  Biso   1.000  H
  H34      1.0000 0.78680  0.27510  0.16840  Biso   1.000  H
  H35      1.0000 0.73670  0.86690  0.04590  Biso   1.000  H
  H36      1.0000 0.34480  0.24020  0.97220  Biso   1.000  H
  C1       1.0000 0.91410  0.63280  0.88400  Biso   1.000  C
  C2       1.0000 0.84180  0.69050  0.82050  Biso   1.000  C
  C3       1.0000 0.89010  0.76290  0.75030  Biso   1.000  C
  C4       1.0000 0.82600  0.82470  0.68400  Biso   1.000  C
  C5       1.0000 0.72290  0.80310  0.70700  Biso   1.000  C
  C6       1.0000 0.68520  0.73320  0.77630  Biso   1.000  C
  C7       1.0000 0.74440  0.67540  0.83280  Biso   1.000  C
  C8       1.0000 0.65660  0.86510  0.64100  Biso   1.000  C
  C9       1.0000 0.58090  0.94650  0.66010  Biso   1.000  C
  C10      1.0000 0.55750  0.98020  0.73820  Biso   1.000  C
  C11      1.0000 0.47440  0.06040  0.73950  Biso   1.000  C
  C12      1.0000 0.44420  0.07650  0.66150  Biso   1.000  C
  C13      1.0000 0.35320  0.15420  0.64000  Biso   1.000  C
  C14      1.0000 0.32940  0.17170  0.56240  Biso   1.000  C
  C15      1.0000 0.23530  0.24870  0.53990  Biso   1.000  C
  C16      1.0000 0.23080  0.24310  0.46520  Biso   1.000  C
  C17      1.0000 0.32020  0.16180  0.43850  Biso   1.000  C
  C18      1.0000 0.29920  0.21880  0.69870  Biso   1.000  C
  C19      1.0000 0.33640  0.30720  0.68910  Biso   1.000  C
  C20      1.0000 0.28220  0.37010  0.75350  Biso   1.000  C
  C21      1.0000 0.18720  0.34150  0.81440  Biso   1.000  C
  C22      1.0000 0.14490  0.25480  0.82820  Biso   1.000  C
  C23      1.0000 0.21100  0.20060  0.76020  Biso   1.000  C
  C24      1.0000 0.11930  0.40830  0.88880  Biso   1.000  C
  C25      1.0000 0.20320  0.64570  0.02740  Biso   1.000  C
  C26      1.0000 0.27130  0.71160  0.02400  Biso   1.000  C
  C27      1.0000 0.31090  0.79150  0.95720  Biso   1.000  C
  C28      1.0000 0.28500  0.78810  0.86940  Biso   1.000  C
  C29      1.0000 0.22080  0.71720  0.88680  Biso   1.000  C
  C30      1.0000 0.32700  0.95230  0.95250  Biso   1.000  C
  C31      1.0000 0.46700  0.80200  0.98310  Biso   1.000  C
  C32      1.0000 0.32960  0.10610  0.96670  Biso   1.000  C
  C33      1.0000 0.36900  0.00800  0.97120  Biso   1.000  C
  C34      1.0000 0.47720  0.96390  0.99280  Biso   1.000  C
  C35      1.0000 0.52200  0.86160  0.99800  Biso   1.000  C
  C36      1.0000 0.62180  0.82810  0.02090  Biso   1.000  C
  C37      1.0000 0.08590  0.36720  0.11600  Biso   1.000  C
  C38      1.0000 0.15820  0.30950  0.17950  Biso   1.000  C
  C39      1.0000 0.10990  0.23710  0.24970  Biso   1.000  C
  C40      1.0000 0.17400  0.17530  0.31600  Biso   1.000  C
  C41      1.0000 0.27710  0.19690  0.29300  Biso   1.000  C
  C42      1.0000 0.31480  0.26680  0.22370  Biso   1.000  C
  C43      1.0000 0.25560  0.32460  0.16720  Biso   1.000  C
  C44      1.0000 0.34340  0.13490  0.35900  Biso   1.000  C
  C45      1.0000 0.41910  0.05350  0.33990  Biso   1.000  C
  C46      1.0000 0.44250  0.01980  0.26180  Biso   1.000  C
  C47      1.0000 0.52560  0.93960  0.26050  Biso   1.000  C
  C48      1.0000 0.55580  0.92350  0.33850  Biso   1.000  C
  C49      1.0000 0.64680  0.84580  0.36000  Biso   1.000  C
  C50      1.0000 0.67060  0.82830  0.43760  Biso   1.000  C
  C51      1.0000 0.76470  0.75130  0.46010  Biso   1.000  C
  C52      1.0000 0.76920  0.75690  0.53480  Biso   1.000  C
  C53      1.0000 0.67980  0.83820  0.56150  Biso   1.000  C
  C54      1.0000 0.70080  0.78120  0.30130  Biso   1.000  C
  C55      1.0000 0.66360  0.69280  0.31090  Biso   1.000  C
  C56      1.0000 0.71780  0.62990  0.24650  Biso   1.000  C
  C57      1.0000 0.81280  0.65850  0.18560  Biso   1.000  C
  C58      1.0000 0.85510  0.74520  0.17180  Biso   1.000  C
  C59      1.0000 0.78900  0.79940  0.23980  Biso   1.000  C
  C60      1.0000 0.88070  0.59170  0.11120  Biso   1.000  C
  C61      1.0000 0.79680  0.35430  0.97260  Biso   1.000  C
  C62      1.0000 0.72870  0.28840  0.97600  Biso   1.000  C
  C63      1.0000 0.68910  0.20850  0.04280  Biso   1.000  C
  C64      1.0000 0.71500  0.21190  0.13060  Biso   1.000  C
  C65      1.0000 0.77920  0.28280  0.11320  Biso   1.000  C
  C66      1.0000 0.67300  0.04770  0.04750  Biso   1.000  C
  C67      1.0000 0.53300  0.19800  0.01690  Biso   1.000  C
  C68      1.0000 0.67040  0.89390  0.03330  Biso   1.000  C
  C69      1.0000 0.63100  0.99200  0.02880  Biso   1.000  C
  C70      1.0000 0.52280  0.03610  0.00720  Biso   1.000  C
  C71      1.0000 0.47800  0.13840  0.00200  Biso   1.000  C
  C72      1.0000 0.37820  0.17190  0.97910  Biso   1.000  C
  N1       1.0000 0.50550  0.01060  0.61190  Biso   1.000  N
  N2       1.0000 0.37520  0.11190  0.50460  Biso   1.000  N
  N3       1.0000 0.16960  0.65010  0.93790  Biso   1.000  N
  N4       1.0000 0.36450  0.85290  0.95940  Biso   1.000  N
  N5       1.0000 0.49450  0.98940  0.38810  Biso   1.000  N
  N6       1.0000 0.62480  0.88810  0.49540  Biso   1.000  N
  N7       1.0000 0.83040  0.34990  0.06210  Biso   1.000  N
  N8       1.0000 0.63550  0.14710  0.04060  Biso   1.000  N
  O1       1.0000 0.99850  0.65890  0.87490  Biso   1.000  O
  O2       1.0000 0.86840  0.55450  0.94150  Biso   1.000  O
  O3       1.0000 0.03310  0.37550  0.94000  Biso   1.000  O
  O4       1.0000 0.16180  0.48380  0.87400  Biso   1.000  O
  O5       1.0000 0.23700  0.97880  0.93270  Biso   1.000  O
  O6       1.0000 0.50330  0.70820  0.98840  Biso   1.000  O
  O7       1.0000 0.00150  0.34110  0.12510  Biso   1.000  O
  O8       1.0000 0.13160  0.44550  0.05850  Biso   1.000  O
  O9       1.0000 0.96690  0.62450  0.06000  Biso   1.000  O
  O10      1.0000 0.83820  0.51620  0.12600  Biso   1.000  O
  O11      1.0000 0.76300  0.02120  0.06730  Biso   1.000  O
  O12      1.0000 0.49670  0.29180  0.01160  Biso   1.000  O
