data_image0
_cell_length_a       14.552
_cell_length_b       15.639
_cell_length_c       16.764
_cell_angle_alpha    90
_cell_angle_beta     90
_cell_angle_gamma    90

_symmetry_space_group_name_H-M    P 1
_symmetry_int_tables_number       1

loop_
  _symmetry_equiv_pos_as_xyz
  'x, y, z'

loop_
  _atom_site_label
  _atom_site_occupancy
  _atom_site_fract_x
  _atom_site_fract_y
  _atom_site_fract_z
  _atom_site_thermal_displace_type
  _atom_site_B_iso_or_equiv
  _atom_site_type_symbol
  Zn1      1.0000 0.65608  0.47633  0.21036  Biso   1.000  Zn
  Zn2      1.0000 0.91323  0.97403  0.26238  Biso   1.000  Zn
  Zn3      1.0000 0.15608  0.02367  0.78964  Biso   1.000  Zn
  Zn4      1.0000 0.41323  0.52597  0.73762  Biso   1.000  Zn
  H1       1.0000 0.73480  0.71230  0.38430  Biso   1.000  H
  H2       1.0000 0.80810  0.71010  0.23320  Biso   1.000  H
  H3       1.0000 0.54900  0.50370  0.96590  Biso   1.000  H
  H4       1.0000 0.56380  0.33440  0.92760  Biso   1.000  H
  H5       1.0000 0.77320  0.31610  0.14540  Biso   1.000  H
  H6       1.0000 0.90190  0.25200  0.21780  Biso   1.000  H
  H7       1.0000 0.80130  0.44150  0.34530  Biso   1.000  H
  H8       1.0000 0.99540  0.29940  0.34380  Biso   1.000  H
  H9       1.0000 0.95770  0.37670  0.39330  Biso   1.000  H
  H10      1.0000 0.90260  0.34660  0.52220  Biso   1.000  H
  H11      1.0000 0.86510  0.24980  0.62130  Biso   1.000  H
  H12      1.0000 0.86270  0.06030  0.46180  Biso   1.000  H
  H13      1.0000 0.89780  0.15770  0.36060  Biso   1.000  H
  H14      1.0000 0.83940  0.02370  0.59220  Biso   1.000  H
  H15      1.0000 0.77960  0.09190  0.63700  Biso   1.000  H
  H16      1.0000 0.99380  0.14810  0.83720  Biso   1.000  H
  H17      1.0000 0.85330  0.17040  0.76030  Biso   1.000  H
  H18      1.0000 0.00830  0.00140  0.64740  Biso   1.000  H
  H19      1.0000 0.98520  0.89110  0.42990  Biso   1.000  H
  H20      1.0000 0.10890  0.95250  0.50910  Biso   1.000  H
  H21      1.0000 0.07590  0.09210  0.31490  Biso   1.000  H
  H22      1.0000 0.23610  0.07150  0.47590  Biso   1.000  H
  H23      1.0000 0.22160  0.12500  0.39790  Biso   1.000  H
  H24      1.0000 0.13750  0.10960  0.59590  Biso   1.000  H
  H25      1.0000 0.09480  0.22420  0.67500  Biso   1.000  H
  H26      1.0000 0.12160  0.38100  0.48740  Biso   1.000  H
  H27      1.0000 0.16040  0.26560  0.40720  Biso   1.000  H
  H28      1.0000 0.02800  0.37620  0.67420  Biso   1.000  H
  H29      1.0000 0.06530  0.43930  0.60900  Biso   1.000  H
  H30      1.0000 0.29290  0.39220  0.83460  Biso   1.000  H
  H31      1.0000 0.14280  0.33650  0.79280  Biso   1.000  H
  H32      1.0000 0.23180  0.49740  0.62950  Biso   1.000  H
  H33      1.0000 0.23480  0.78770  0.61570  Biso   1.000  H
  H34      1.0000 0.30810  0.78990  0.76680  Biso   1.000  H
  H35      1.0000 0.04900  0.99630  0.03410  Biso   1.000  H
  H36      1.0000 0.06380  0.16560  0.07240  Biso   1.000  H
  H37      1.0000 0.27320  0.18390  0.85460  Biso   1.000  H
  H38      1.0000 0.40190  0.24800  0.78220  Biso   1.000  H
  H39      1.0000 0.30130  0.05850  0.65470  Biso   1.000  H
  H40      1.0000 0.49540  0.20060  0.65620  Biso   1.000  H
  H41      1.0000 0.45770  0.12330  0.60670  Biso   1.000  H
  H42      1.0000 0.40260  0.15340  0.47780  Biso   1.000  H
  H43      1.0000 0.36510  0.25020  0.37870  Biso   1.000  H
  H44      1.0000 0.36270  0.43970  0.53820  Biso   1.000  H
  H45      1.0000 0.39780  0.34230  0.63940  Biso   1.000  H
  H46      1.0000 0.33940  0.47630  0.40780  Biso   1.000  H
  H47      1.0000 0.27960  0.40810  0.36300  Biso   1.000  H
  H48      1.0000 0.49380  0.35190  0.16280  Biso   1.000  H
  H49      1.0000 0.35330  0.32960  0.23970  Biso   1.000  H
  H50      1.0000 0.50830  0.49860  0.35260  Biso   1.000  H
  H51      1.0000 0.48520  0.60890  0.57010  Biso   1.000  H
  H52      1.0000 0.60890  0.54750  0.49090  Biso   1.000  H
  H53      1.0000 0.57590  0.40790  0.68510  Biso   1.000  H
  H54      1.0000 0.73610  0.42850  0.52410  Biso   1.000  H
  H55      1.0000 0.72160  0.37500  0.60210  Biso   1.000  H
  H56      1.0000 0.63750  0.39040  0.40410  Biso   1.000  H
  H57      1.0000 0.59480  0.27580  0.32500  Biso   1.000  H
  H58      1.0000 0.62160  0.11900  0.51260  Biso   1.000  H
  H59      1.0000 0.66040  0.23440  0.59280  Biso   1.000  H
  H60      1.0000 0.52800  0.12380  0.32580  Biso   1.000  H
  H61      1.0000 0.56530  0.06070  0.39100  Biso   1.000  H
  H62      1.0000 0.79290  0.10780  0.16540  Biso   1.000  H
  H63      1.0000 0.64280  0.16350  0.20720  Biso   1.000  H
  H64      1.0000 0.73180  0.00260  0.37050  Biso   1.000  H
  C1       1.0000 0.70060  0.60860  0.31000  Biso   1.000  C
  C2       1.0000 0.74440  0.69090  0.33320  Biso   1.000  C
  C3       1.0000 0.79680  0.73450  0.28290  Biso   1.000  C
  C4       1.0000 0.83890  0.81910  0.29950  Biso   1.000  C
  C5       1.0000 0.61420  0.42710  0.05240  Biso   1.000  C
  C6       1.0000 0.56610  0.44730  0.97500  Biso   1.000  C
  C7       1.0000 0.54680  0.39110  0.91980  Biso   1.000  C
  C8       1.0000 0.49860  0.41520  0.84530  Biso   1.000  C
  C9       1.0000 0.79490  0.33350  0.19500  Biso   1.000  C
  C10      1.0000 0.86570  0.29740  0.23490  Biso   1.000  C
  C11      1.0000 0.80960  0.40200  0.30440  Biso   1.000  C
  C12      1.0000 0.94060  0.32320  0.36810  Biso   1.000  C
  C13      1.0000 0.90660  0.26200  0.43180  Biso   1.000  C
  C14      1.0000 0.89530  0.28910  0.50960  Biso   1.000  C
  C15      1.0000 0.87310  0.23080  0.56920  Biso   1.000  C
  C16      1.0000 0.86280  0.14550  0.55200  Biso   1.000  C
  C17      1.0000 0.87130  0.11780  0.47400  Biso   1.000  C
  C18      1.0000 0.89280  0.17630  0.41310  Biso   1.000  C
  C19      1.0000 0.84040  0.08030  0.61600  Biso   1.000  C
  C20      1.0000 0.97890  0.12130  0.78940  Biso   1.000  C
  C21      1.0000 0.90120  0.13360  0.74730  Biso   1.000  C
  C22      1.0000 0.98730  0.04020  0.68520  Biso   1.000  C
  C23      1.0000 0.01900  0.93960  0.41680  Biso   1.000  C
  C24      1.0000 0.08720  0.97280  0.46050  Biso   1.000  C
  C25      1.0000 0.06830  0.04960  0.35320  Biso   1.000  C
  C26      1.0000 0.19090  0.10270  0.44490  Biso   1.000  C
  C27      1.0000 0.15640  0.17630  0.49370  Biso   1.000  C
  C28      1.0000 0.13470  0.16420  0.57400  Biso   1.000  C
  C29      1.0000 0.10920  0.23280  0.62160  Biso   1.000  C
  C30      1.0000 0.10510  0.31510  0.58870  Biso   1.000  C
  C31      1.0000 0.12460  0.32650  0.50940  Biso   1.000  C
  C32      1.0000 0.14910  0.25720  0.46130  Biso   1.000  C
  C33      1.0000 0.08100  0.39040  0.64180  Biso   1.000  C
  C34      1.0000 0.26200  0.40660  0.78800  Biso   1.000  C
  C35      1.0000 0.17900  0.37550  0.76510  Biso   1.000  C
  C36      1.0000 0.22900  0.46450  0.67560  Biso   1.000  C
  C37      1.0000 0.20060  0.89140  0.69000  Biso   1.000  C
  C38      1.0000 0.24440  0.80910  0.66680  Biso   1.000  C
  C39      1.0000 0.29680  0.76550  0.71710  Biso   1.000  C
  C40      1.0000 0.33890  0.68090  0.70050  Biso   1.000  C
  C41      1.0000 0.11420  0.07290  0.94760  Biso   1.000  C
  C42      1.0000 0.06610  0.05270  0.02500  Biso   1.000  C
  C43      1.0000 0.04680  0.10890  0.08020  Biso   1.000  C
  C44      1.0000 0.99860  0.08480  0.15470  Biso   1.000  C
  C45      1.0000 0.29490  0.16650  0.80500  Biso   1.000  C
  C46      1.0000 0.36570  0.20260  0.76510  Biso   1.000  C
  C47      1.0000 0.30960  0.09800  0.69560  Biso   1.000  C
  C48      1.0000 0.44060  0.17680  0.63190  Biso   1.000  C
  C49      1.0000 0.40660  0.23800  0.56820  Biso   1.000  C
  C50      1.0000 0.39530  0.21090  0.49040  Biso   1.000  C
  C51      1.0000 0.37310  0.26920  0.43080  Biso   1.000  C
  C52      1.0000 0.36280  0.35450  0.44800  Biso   1.000  C
  C53      1.0000 0.37130  0.38220  0.52600  Biso   1.000  C
  C54      1.0000 0.39280  0.32370  0.58690  Biso   1.000  C
  C55      1.0000 0.34040  0.41970  0.38400  Biso   1.000  C
  C56      1.0000 0.47890  0.37870  0.21060  Biso   1.000  C
  C57      1.0000 0.40120  0.36640  0.25270  Biso   1.000  C
  C58      1.0000 0.48730  0.45980  0.31480  Biso   1.000  C
  C59      1.0000 0.51900  0.56040  0.58320  Biso   1.000  C
  C60      1.0000 0.58720  0.52720  0.53950  Biso   1.000  C
  C61      1.0000 0.56830  0.45040  0.64680  Biso   1.000  C
  C62      1.0000 0.69090  0.39730  0.55510  Biso   1.000  C
  C63      1.0000 0.65640  0.32370  0.50630  Biso   1.000  C
  C64      1.0000 0.63470  0.33580  0.42600  Biso   1.000  C
  C65      1.0000 0.60920  0.26720  0.37840  Biso   1.000  C
  C66      1.0000 0.60510  0.18490  0.41130  Biso   1.000  C
  C67      1.0000 0.62460  0.17350  0.49060  Biso   1.000  C
  C68      1.0000 0.64910  0.24280  0.53870  Biso   1.000  C
  C69      1.0000 0.58100  0.10960  0.35820  Biso   1.000  C
  C70      1.0000 0.76200  0.09340  0.21200  Biso   1.000  C
  C71      1.0000 0.67900  0.12450  0.23490  Biso   1.000  C
  C72      1.0000 0.72900  0.03550  0.32440  Biso   1.000  C
  N1       1.0000 0.76000  0.40010  0.23950  Biso   1.000  N
  N2       1.0000 0.87330  0.34100  0.30520  Biso   1.000  N
  N3       1.0000 0.03310  0.06230  0.74970  Biso   1.000  N
  N4       1.0000 0.90630  0.08100  0.68120  Biso   1.000  N
  N5       1.0000 0.00660  0.98850  0.34910  Biso   1.000  N
  N6       1.0000 0.11880  0.04290  0.41930  Biso   1.000  N
  N7       1.0000 0.29310  0.46320  0.73063  Biso   1.000  N
  N8       1.0000 0.15890  0.41240  0.69390  Biso   1.000  N
  N9       1.0000 0.26000  0.09990  0.76050  Biso   1.000  N
  N10      1.0000 0.37330  0.15900  0.69480  Biso   1.000  N
  N11      1.0000 0.53310  0.43770  0.25030  Biso   1.000  N
  N12      1.0000 0.40630  0.41900  0.31880  Biso   1.000  N
  N13      1.0000 0.50660  0.51150  0.65090  Biso   1.000  N
  N14      1.0000 0.61880  0.45710  0.58070  Biso   1.000  N
  N15      1.0000 0.79310  0.03680  0.26937  Biso   1.000  N
  N16      1.0000 0.65890  0.08760  0.30610  Biso   1.000  N
  O1       1.0000 0.69640  0.59167  0.23663  Biso   1.000  O
  O2       1.0000 0.67500  0.55840  0.36230  Biso   1.000  O
  O3       1.0000 0.87780  0.85459  0.23950  Biso   1.000  O
  O4       1.0000 0.83210  0.85418  0.36623  Biso   1.000  O
  O5       1.0000 0.62710  0.49240  0.09722  Biso   1.000  O
  O6       1.0000 0.63470  0.35280  0.07060  Biso   1.000  O
  O7       1.0000 0.46530  0.49190  0.84172  Biso   1.000  O
  O8       1.0000 0.49370  0.36209  0.79130  Biso   1.000  O
  O9       1.0000 0.19640  0.90833  0.76337  Biso   1.000  O
  O10      1.0000 0.17500  0.94160  0.63770  Biso   1.000  O
  O11      1.0000 0.37780  0.64541  0.76050  Biso   1.000  O
  O12      1.0000 0.33210  0.64582  0.63377  Biso   1.000  O
  O13      1.0000 0.12710  0.00760  0.90278  Biso   1.000  O
  O14      1.0000 0.13470  0.14720  0.92940  Biso   1.000  O
  O15      1.0000 0.96530  0.00810  0.15828  Biso   1.000  O
  O16      1.0000 0.99370  0.13791  0.20870  Biso   1.000  O
  Zn5      1.0000 0.84392  0.52367  0.71036  Biso   1.000  Zn
  Zn6      1.0000 0.58677  0.02597  0.76238  Biso   1.000  Zn
  Zn7      1.0000 0.34392  0.97633  0.28964  Biso   1.000  Zn
  Zn8      1.0000 0.08677  0.47403  0.23762  Biso   1.000  Zn
  H65      1.0000 0.76520  0.28770  0.88430  Biso   1.000  H
  H66      1.0000 0.69190  0.28990  0.73320  Biso   1.000  H
  H67      1.0000 0.95100  0.49630  0.46590  Biso   1.000  H
  H68      1.0000 0.93620  0.66560  0.42760  Biso   1.000  H
  H69      1.0000 0.72680  0.68390  0.64540  Biso   1.000  H
  H70      1.0000 0.59810  0.74800  0.71780  Biso   1.000  H
  H71      1.0000 0.69870  0.55850  0.84530  Biso   1.000  H
  H72      1.0000 0.50460  0.70060  0.84380  Biso   1.000  H
  H73      1.0000 0.54230  0.62330  0.89330  Biso   1.000  H
  H74      1.0000 0.59740  0.65340  0.02220  Biso   1.000  H
  H75      1.0000 0.63490  0.75020  0.12130  Biso   1.000  H
  H76      1.0000 0.63730  0.93970  0.96180  Biso   1.000  H
  H77      1.0000 0.60220  0.84230  0.86060  Biso   1.000  H
  H78      1.0000 0.66060  0.97630  0.09220  Biso   1.000  H
  H79      1.0000 0.72040  0.90810  0.13700  Biso   1.000  H
  H80      1.0000 0.50620  0.85190  0.33720  Biso   1.000  H
  H81      1.0000 0.64670  0.82960  0.26030  Biso   1.000  H
  H82      1.0000 0.49170  0.99860  0.14740  Biso   1.000  H
  H83      1.0000 0.51480  0.10890  0.92990  Biso   1.000  H
  H84      1.0000 0.39110  0.04750  0.00910  Biso   1.000  H
  H85      1.0000 0.42410  0.90790  0.81490  Biso   1.000  H
  H86      1.0000 0.26390  0.92850  0.97590  Biso   1.000  H
  H87      1.0000 0.27840  0.87500  0.89790  Biso   1.000  H
  H88      1.0000 0.36250  0.89040  0.09590  Biso   1.000  H
  H89      1.0000 0.40520  0.77580  0.17500  Biso   1.000  H
  H90      1.0000 0.37840  0.61900  0.98740  Biso   1.000  H
  H91      1.0000 0.33960  0.73440  0.90720  Biso   1.000  H
  H92      1.0000 0.47200  0.62380  0.17420  Biso   1.000  H
  H93      1.0000 0.43470  0.56070  0.10900  Biso   1.000  H
  H94      1.0000 0.20710  0.60780  0.33460  Biso   1.000  H
  H95      1.0000 0.35720  0.66350  0.29280  Biso   1.000  H
  H96      1.0000 0.26820  0.50260  0.12950  Biso   1.000  H
  H97      1.0000 0.26520  0.21230  0.11570  Biso   1.000  H
  H98      1.0000 0.19190  0.21010  0.26680  Biso   1.000  H
  H99      1.0000 0.45100  0.00370  0.53410  Biso   1.000  H
  H100     1.0000 0.43620  0.83440  0.57240  Biso   1.000  H
  H101     1.0000 0.22680  0.81610  0.35460  Biso   1.000  H
  H102     1.0000 0.09810  0.75200  0.28220  Biso   1.000  H
  H103     1.0000 0.19870  0.94150  0.15470  Biso   1.000  H
  H104     1.0000 0.00460  0.79940  0.15620  Biso   1.000  H
  H105     1.0000 0.04230  0.87670  0.10670  Biso   1.000  H
  H106     1.0000 0.09740  0.84660  0.97780  Biso   1.000  H
  H107     1.0000 0.13490  0.74980  0.87870  Biso   1.000  H
  H108     1.0000 0.13730  0.56030  0.03820  Biso   1.000  H
  H109     1.0000 0.10220  0.65770  0.13940  Biso   1.000  H
  H110     1.0000 0.16060  0.52370  0.90780  Biso   1.000  H
  H111     1.0000 0.22040  0.59190  0.86300  Biso   1.000  H
  H112     1.0000 0.00620  0.64810  0.66280  Biso   1.000  H
  H113     1.0000 0.14670  0.67040  0.73970  Biso   1.000  H
  H114     1.0000 0.99170  0.50140  0.85260  Biso   1.000  H
  H115     1.0000 0.01480  0.39110  0.07010  Biso   1.000  H
  H116     1.0000 0.89110  0.45250  0.99090  Biso   1.000  H
  H117     1.0000 0.92410  0.59210  0.18510  Biso   1.000  H
  H118     1.0000 0.76390  0.57150  0.02410  Biso   1.000  H
  H119     1.0000 0.77840  0.62500  0.10210  Biso   1.000  H
  H120     1.0000 0.86250  0.60960  0.90410  Biso   1.000  H
  H121     1.0000 0.90520  0.72420  0.82500  Biso   1.000  H
  H122     1.0000 0.87840  0.88100  0.01260  Biso   1.000  H
  H123     1.0000 0.83960  0.76560  0.09280  Biso   1.000  H
  H124     1.0000 0.97200  0.87620  0.82580  Biso   1.000  H
  H125     1.0000 0.93470  0.93930  0.89100  Biso   1.000  H
  H126     1.0000 0.70710  0.89220  0.66540  Biso   1.000  H
  H127     1.0000 0.85720  0.83650  0.70720  Biso   1.000  H
  H128     1.0000 0.76820  0.99740  0.87050  Biso   1.000  H
  C73      1.0000 0.79940  0.39140  0.81000  Biso   1.000  C
  C74      1.0000 0.75560  0.30910  0.83320  Biso   1.000  C
  C75      1.0000 0.70320  0.26550  0.78290  Biso   1.000  C
  C76      1.0000 0.66110  0.18090  0.79950  Biso   1.000  C
  C77      1.0000 0.88580  0.57290  0.55240  Biso   1.000  C
  C78      1.0000 0.93390  0.55270  0.47500  Biso   1.000  C
  C79      1.0000 0.95320  0.60890  0.41980  Biso   1.000  C
  C80      1.0000 0.00140  0.58480  0.34530  Biso   1.000  C
  C81      1.0000 0.70510  0.66650  0.69500  Biso   1.000  C
  C82      1.0000 0.63430  0.70260  0.73490  Biso   1.000  C
  C83      1.0000 0.69040  0.59800  0.80440  Biso   1.000  C
  C84      1.0000 0.55940  0.67680  0.86810  Biso   1.000  C
  C85      1.0000 0.59340  0.73800  0.93180  Biso   1.000  C
  C86      1.0000 0.60470  0.71090  0.00960  Biso   1.000  C
  C87      1.0000 0.62690  0.76920  0.06920  Biso   1.000  C
  C88      1.0000 0.63720  0.85450  0.05200  Biso   1.000  C
  C89      1.0000 0.62870  0.88220  0.97400  Biso   1.000  C
  C90      1.0000 0.60720  0.82370  0.91310  Biso   1.000  C
  C91      1.0000 0.65960  0.91970  0.11600  Biso   1.000  C
  C92      1.0000 0.52110  0.87870  0.28940  Biso   1.000  C
  C93      1.0000 0.59880  0.86640  0.24730  Biso   1.000  C
  C94      1.0000 0.51270  0.95980  0.18520  Biso   1.000  C
  C95      1.0000 0.48100  0.06040  0.91680  Biso   1.000  C
  C96      1.0000 0.41280  0.02720  0.96050  Biso   1.000  C
  C97      1.0000 0.43170  0.95040  0.85320  Biso   1.000  C
  C98      1.0000 0.30910  0.89730  0.94490  Biso   1.000  C
  C99      1.0000 0.34360  0.82370  0.99370  Biso   1.000  C
  C100     1.0000 0.36530  0.83580  0.07400  Biso   1.000  C
  C101     1.0000 0.39080  0.76720  0.12160  Biso   1.000  C
  C102     1.0000 0.39490  0.68490  0.08870  Biso   1.000  C
  C103     1.0000 0.37540  0.67350  0.00940  Biso   1.000  C
  C104     1.0000 0.35090  0.74280  0.96130  Biso   1.000  C
  C105     1.0000 0.41900  0.60960  0.14180  Biso   1.000  C
  C106     1.0000 0.23800  0.59340  0.28800  Biso   1.000  C
  C107     1.0000 0.32100  0.62450  0.26510  Biso   1.000  C
  C108     1.0000 0.27100  0.53550  0.17560  Biso   1.000  C
  C109     1.0000 0.29940  0.10860  0.19000  Biso   1.000  C
  C110     1.0000 0.25560  0.19090  0.16680  Biso   1.000  C
  C111     1.0000 0.20320  0.23450  0.21710  Biso   1.000  C
  C112     1.0000 0.16110  0.31910  0.20050  Biso   1.000  C
  C113     1.0000 0.38580  0.92710  0.44760  Biso   1.000  C
  C114     1.0000 0.43390  0.94730  0.52500  Biso   1.000  C
  C115     1.0000 0.45320  0.89110  0.58020  Biso   1.000  C
  C116     1.0000 0.50140  0.91520  0.65470  Biso   1.000  C
  C117     1.0000 0.20510  0.83350  0.30500  Biso   1.000  C
  C118     1.0000 0.13430  0.79740  0.26510  Biso   1.000  C
  C119     1.0000 0.19040  0.90200  0.19560  Biso   1.000  C
  C120     1.0000 0.05940  0.82320  0.13190  Biso   1.000  C
  C121     1.0000 0.09340  0.76200  0.06820  Biso   1.000  C
  C122     1.0000 0.10470  0.78910  0.99040  Biso   1.000  C
  C123     1.0000 0.12690  0.73080  0.93080  Biso   1.000  C
  C124     1.0000 0.13720  0.64550  0.94800  Biso   1.000  C
  C125     1.0000 0.12870  0.61780  0.02600  Biso   1.000  C
  C126     1.0000 0.10720  0.67630  0.08690  Biso   1.000  C
  C127     1.0000 0.15960  0.58030  0.88400  Biso   1.000  C
  C128     1.0000 0.02110  0.62130  0.71060  Biso   1.000  C
  C129     1.0000 0.09880  0.63360  0.75270  Biso   1.000  C
  C130     1.0000 0.01270  0.54020  0.81480  Biso   1.000  C
  C131     1.0000 0.98100  0.43960  0.08320  Biso   1.000  C
  C132     1.0000 0.91280  0.47280  0.03950  Biso   1.000  C
  C133     1.0000 0.93170  0.54960  0.14680  Biso   1.000  C
  C134     1.0000 0.80910  0.60270  0.05510  Biso   1.000  C
  C135     1.0000 0.84360  0.67630  0.00630  Biso   1.000  C
  C136     1.0000 0.86530  0.66420  0.92600  Biso   1.000  C
  C137     1.0000 0.89080  0.73280  0.87840  Biso   1.000  C
  C138     1.0000 0.89490  0.81510  0.91130  Biso   1.000  C
  C139     1.0000 0.87540  0.82650  0.99060  Biso   1.000  C
  C140     1.0000 0.85090  0.75720  0.03870  Biso   1.000  C
  C141     1.0000 0.91900  0.89040  0.85820  Biso   1.000  C
  C142     1.0000 0.73800  0.90660  0.71200  Biso   1.000  C
  C143     1.0000 0.82100  0.87550  0.73490  Biso   1.000  C
  C144     1.0000 0.77100  0.96450  0.82440  Biso   1.000  C
  N17      1.0000 0.74000  0.59990  0.73950  Biso   1.000  N
  N18      1.0000 0.62670  0.65900  0.80520  Biso   1.000  N
  N19      1.0000 0.46690  0.93770  0.24970  Biso   1.000  N
  N20      1.0000 0.59370  0.91900  0.18120  Biso   1.000  N
  N21      1.0000 0.49340  0.01150  0.84910  Biso   1.000  N
  N22      1.0000 0.38120  0.95710  0.91930  Biso   1.000  N
  N23      1.0000 0.20690  0.53680  0.23063  Biso   1.000  N
  N24      1.0000 0.34110  0.58760  0.19390  Biso   1.000  N
  N25      1.0000 0.24000  0.90010  0.26050  Biso   1.000  N
  N26      1.0000 0.12670  0.84100  0.19480  Biso   1.000  N
  N27      1.0000 0.96690  0.56230  0.75030  Biso   1.000  N
  N28      1.0000 0.09370  0.58100  0.81880  Biso   1.000  N
  N29      1.0000 0.99340  0.48850  0.15090  Biso   1.000  N
  N30      1.0000 0.88120  0.54290  0.08070  Biso   1.000  N
  N31      1.0000 0.70690  0.96320  0.76937  Biso   1.000  N
  N32      1.0000 0.84110  0.91240  0.80610  Biso   1.000  N
  O17      1.0000 0.80360  0.40833  0.73663  Biso   1.000  O
  O18      1.0000 0.82500  0.44160  0.86230  Biso   1.000  O
  O19      1.0000 0.62220  0.14541  0.73950  Biso   1.000  O
  O20      1.0000 0.66790  0.14582  0.86623  Biso   1.000  O
  O21      1.0000 0.87290  0.50760  0.59722  Biso   1.000  O
  O22      1.0000 0.86530  0.64720  0.57060  Biso   1.000  O
  O23      1.0000 0.03470  0.50810  0.34172  Biso   1.000  O
  O24      1.0000 0.00630  0.63791  0.29130  Biso   1.000  O
  O25      1.0000 0.30360  0.09167  0.26337  Biso   1.000  O
  O26      1.0000 0.32500  0.05840  0.13770  Biso   1.000  O
  O27      1.0000 0.12220  0.35459  0.26050  Biso   1.000  O
  O28      1.0000 0.16790  0.35418  0.13377  Biso   1.000  O
  O29      1.0000 0.37290  0.99240  0.40278  Biso   1.000  O
  O30      1.0000 0.36530  0.85280  0.42940  Biso   1.000  O
  O31      1.0000 0.53470  0.99190  0.65828  Biso   1.000  O
  O32      1.0000 0.50630  0.86209  0.70870  Biso   1.000  O
