data_image0
_cell_length_a       11.3887
_cell_length_b       13.7495
_cell_length_c       13.7495
_cell_angle_alpha    80.1238
_cell_angle_beta     65.5341
_cell_angle_gamma    65.5342

_symmetry_space_group_name_H-M    P 1
_symmetry_int_tables_number       1

loop_
  _symmetry_equiv_pos_as_xyz
  'x, y, z'

loop_
  _atom_site_label
  _atom_site_occupancy
  _atom_site_fract_x
  _atom_site_fract_y
  _atom_site_fract_z
  _atom_site_thermal_displace_type
  _atom_site_B_iso_or_equiv
  _atom_site_type_symbol
  Zn1      1.0000 0.33712  0.55080  0.47294  Biso   1.000  Zn
  Zn2      1.0000 0.86086  0.94920  0.02706  Biso   1.000  Zn
  Zn3      1.0000 0.81006  0.52706  0.05080  Biso   1.000  Zn
  Zn4      1.0000 0.88792  0.97294  0.44920  Biso   1.000  Zn
  Zn5      1.0000 0.66288  0.44920  0.52706  Biso   1.000  Zn
  Zn6      1.0000 0.13914  0.05080  0.97294  Biso   1.000  Zn
  Zn7      1.0000 0.18994  0.47294  0.94920  Biso   1.000  Zn
  Zn8      1.0000 0.11208  0.02706  0.55080  Biso   1.000  Zn
  H1       1.0000 0.91020  0.42180  0.34300  Biso   1.000  H
  H2       1.0000 0.95580  0.38470  0.22670  Biso   1.000  H
  H3       1.0000 0.93480  0.50080  0.24680  Biso   1.000  H
  H4       1.0000 0.50400  0.57360  0.22600  Biso   1.000  H
  H5       1.0000 0.18810  0.29400  0.43800  Biso   1.000  H
  H6       1.0000 0.06310  0.40510  0.46450  Biso   1.000  H
  H7       1.0000 0.17520  0.37960  0.34760  Biso   1.000  H
  H8       1.0000 0.17500  0.07820  0.15700  Biso   1.000  H
  H9       1.0000 0.06720  0.11530  0.27330  Biso   1.000  H
  H10      1.0000 0.18240  0.99920  0.25320  Biso   1.000  H
  H11      1.0000 0.80360  0.92640  0.27400  Biso   1.000  H
  H12      1.0000 0.42010  0.20600  0.06200  Biso   1.000  H
  H13      1.0000 0.43270  0.09490  0.03550  Biso   1.000  H
  H14      1.0000 0.40240  0.12040  0.15240  Biso   1.000  H
  H15      1.0000 0.25320  0.65700  0.92180  Biso   1.000  H
  H16      1.0000 0.18250  0.77330  0.88470  Biso   1.000  H
  H17      1.0000 0.18160  0.75320  0.00080  Biso   1.000  H
  H18      1.0000 0.73000  0.77400  0.07360  Biso   1.000  H
  H19      1.0000 0.62610  0.56200  0.79400  Biso   1.000  H
  H20      1.0000 0.52760  0.53550  0.90510  Biso   1.000  H
  H21      1.0000 0.52280  0.65240  0.87960  Biso   1.000  H
  H22      1.0000 0.33200  0.84300  0.57820  Biso   1.000  H
  H23      1.0000 0.34050  0.72670  0.61530  Biso   1.000  H
  H24      1.0000 0.43560  0.74680  0.49920  Biso   1.000  H
  H25      1.0000 0.07760  0.72600  0.42640  Biso   1.000  H
  H26      1.0000 0.48210  0.93800  0.70600  Biso   1.000  H
  H27      1.0000 0.46820  0.96450  0.59490  Biso   1.000  H
  H28      1.0000 0.55480  0.84760  0.62040  Biso   1.000  H
  H29      1.0000 0.08980  0.57820  0.65700  Biso   1.000  H
  H30      1.0000 0.04420  0.61530  0.77330  Biso   1.000  H
  H31      1.0000 0.06520  0.49920  0.75320  Biso   1.000  H
  H32      1.0000 0.49600  0.42640  0.77400  Biso   1.000  H
  H33      1.0000 0.81190  0.70600  0.56200  Biso   1.000  H
  H34      1.0000 0.93690  0.59490  0.53550  Biso   1.000  H
  H35      1.0000 0.82480  0.62040  0.65240  Biso   1.000  H
  H36      1.0000 0.82500  0.92180  0.84300  Biso   1.000  H
  H37      1.0000 0.93280  0.88470  0.72670  Biso   1.000  H
  H38      1.0000 0.81760  0.00080  0.74680  Biso   1.000  H
  H39      1.0000 0.19640  0.07360  0.72600  Biso   1.000  H
  H40      1.0000 0.57990  0.79400  0.93800  Biso   1.000  H
  H41      1.0000 0.56730  0.90510  0.96450  Biso   1.000  H
  H42      1.0000 0.59760  0.87960  0.84760  Biso   1.000  H
  H43      1.0000 0.74680  0.34300  0.07820  Biso   1.000  H
  H44      1.0000 0.81750  0.22670  0.11530  Biso   1.000  H
  H45      1.0000 0.81840  0.24680  0.99920  Biso   1.000  H
  H46      1.0000 0.27000  0.22600  0.92640  Biso   1.000  H
  H47      1.0000 0.37390  0.43800  0.20600  Biso   1.000  H
  H48      1.0000 0.47240  0.46450  0.09490  Biso   1.000  H
  H49      1.0000 0.47720  0.34760  0.12040  Biso   1.000  H
  H50      1.0000 0.66800  0.15700  0.42180  Biso   1.000  H
  H51      1.0000 0.65950  0.27330  0.38470  Biso   1.000  H
  H52      1.0000 0.56440  0.25320  0.50080  Biso   1.000  H
  H53      1.0000 0.92240  0.27400  0.57360  Biso   1.000  H
  H54      1.0000 0.51790  0.06200  0.29400  Biso   1.000  H
  H55      1.0000 0.53180  0.03550  0.40510  Biso   1.000  H
  H56      1.0000 0.44520  0.15240  0.37960  Biso   1.000  H
  C1       1.0000 0.90150  0.44410  0.27530  Biso   1.000  C
  C2       1.0000 0.75150  0.48290  0.29030  Biso   1.000  C
  C3       1.0000 0.56627  0.54535  0.26051  Biso   1.000  C
  C4       1.0000 0.16030  0.36890  0.42210  Biso   1.000  C
  C5       1.0000 0.24480  0.41280  0.44680  Biso   1.000  C
  C6       1.0000 0.12090  0.05590  0.22470  Biso   1.000  C
  C7       1.0000 0.02470  0.01710  0.20970  Biso   1.000  C
  C8       1.0000 0.87213  0.95465  0.23949  Biso   1.000  C
  C9       1.0000 0.45130  0.13110  0.07790  Biso   1.000  C
  C10      1.0000 0.60440  0.08720  0.05320  Biso   1.000  C
  C11      1.0000 0.17680  0.72470  0.94410  Biso   1.000  C
  C12      1.0000 0.04180  0.70970  0.98290  Biso   1.000  C
  C13      1.0000 0.82678  0.73949  0.04535  Biso   1.000  C
  C14      1.0000 0.58240  0.57790  0.86890  Biso   1.000  C
  C15      1.0000 0.69160  0.55320  0.91280  Biso   1.000  C
  C16      1.0000 0.34560  0.77530  0.55590  Biso   1.000  C
  C17      1.0000 0.23440  0.79030  0.51710  Biso   1.000  C
  C18      1.0000 0.11162  0.76051  0.45465  Biso   1.000  C
  C19      1.0000 0.52920  0.92210  0.63110  Biso   1.000  C
  C20      1.0000 0.65760  0.94680  0.58720  Biso   1.000  C
  C21      1.0000 0.09850  0.55590  0.72470  Biso   1.000  C
  C22      1.0000 0.24850  0.51710  0.70970  Biso   1.000  C
  C23      1.0000 0.43373  0.45465  0.73949  Biso   1.000  C
  C24      1.0000 0.83970  0.63110  0.57790  Biso   1.000  C
  C25      1.0000 0.75520  0.58720  0.55320  Biso   1.000  C
  C26      1.0000 0.87910  0.94410  0.77530  Biso   1.000  C
  C27      1.0000 0.97530  0.98290  0.79030  Biso   1.000  C
  C28      1.0000 0.12787  0.04535  0.76051  Biso   1.000  C
  C29      1.0000 0.54870  0.86890  0.92210  Biso   1.000  C
  C30      1.0000 0.39560  0.91280  0.94680  Biso   1.000  C
  C31      1.0000 0.82320  0.27530  0.05590  Biso   1.000  C
  C32      1.0000 0.95820  0.29030  0.01710  Biso   1.000  C
  C33      1.0000 0.17322  0.26051  0.95465  Biso   1.000  C
  C34      1.0000 0.41760  0.42210  0.13110  Biso   1.000  C
  C35      1.0000 0.30840  0.44680  0.08720  Biso   1.000  C
  C36      1.0000 0.65440  0.22470  0.44410  Biso   1.000  C
  C37      1.0000 0.76560  0.20970  0.48290  Biso   1.000  C
  C38      1.0000 0.88838  0.23949  0.54535  Biso   1.000  C
  C39      1.0000 0.47080  0.07790  0.36890  Biso   1.000  C
  C40      1.0000 0.34240  0.05320  0.41280  Biso   1.000  C
  N1       1.0000 0.52914  0.52680  0.36332  Biso   1.000  N
  N2       1.0000 0.65003  0.48617  0.38297  Biso   1.000  N
  N3       1.0000 0.70461  0.51889  0.21049  Biso   1.000  N
  N4       1.0000 0.91926  0.97320  0.13668  Biso   1.000  N
  N5       1.0000 0.01917  0.01383  0.11703  Biso   1.000  N
  N6       1.0000 0.93399  0.98111  0.28951  Biso   1.000  N
  N7       1.0000 0.89246  0.63668  0.02680  Biso   1.000  N
  N8       1.0000 0.03300  0.61703  0.98617  Biso   1.000  N
  N9       1.0000 0.91510  0.78951  0.01889  Biso   1.000  N
  N10      1.0000 0.05594  0.86332  0.47320  Biso   1.000  N
  N11      1.0000 0.13620  0.88297  0.51383  Biso   1.000  N
  N12      1.0000 0.22350  0.71049  0.48111  Biso   1.000  N
  N13      1.0000 0.47086  0.47320  0.63668  Biso   1.000  N
  N14      1.0000 0.34997  0.51383  0.61703  Biso   1.000  N
  N15      1.0000 0.29539  0.48111  0.78951  Biso   1.000  N
  N16      1.0000 0.08074  0.02680  0.86332  Biso   1.000  N
  N17      1.0000 0.98083  0.98617  0.88297  Biso   1.000  N
  N18      1.0000 0.06601  0.01889  0.71049  Biso   1.000  N
  N19      1.0000 0.10754  0.36332  0.97320  Biso   1.000  N
  N20      1.0000 0.96700  0.38297  0.01383  Biso   1.000  N
  N21      1.0000 0.08490  0.21049  0.98111  Biso   1.000  N
  N22      1.0000 0.94406  0.13668  0.52680  Biso   1.000  N
  N23      1.0000 0.86380  0.11703  0.48617  Biso   1.000  N
  N24      1.0000 0.77650  0.28951  0.51889  Biso   1.000  N
  O1       1.0000 0.22140  0.50973  0.43047  Biso   1.000  O
  O2       1.0000 0.33380  0.35560  0.48320  Biso   1.000  O
  O3       1.0000 0.66160  0.99027  0.06953  Biso   1.000  O
  O4       1.0000 0.67260  0.14440  0.01680  Biso   1.000  O
  O5       1.0000 0.65187  0.56953  0.00973  Biso   1.000  O
  O6       1.0000 0.81700  0.51680  0.85560  Biso   1.000  O
  O7       1.0000 0.73113  0.93047  0.49027  Biso   1.000  O
  O8       1.0000 0.68940  0.98320  0.64440  Biso   1.000  O
  O9       1.0000 0.77860  0.49027  0.56953  Biso   1.000  O
  O10      1.0000 0.66620  0.64440  0.51680  Biso   1.000  O
  O11      1.0000 0.33840  0.00973  0.93047  Biso   1.000  O
  O12      1.0000 0.32740  0.85560  0.98320  Biso   1.000  O
  O13      1.0000 0.34813  0.43047  0.99027  Biso   1.000  O
  O14      1.0000 0.18300  0.48320  0.14440  Biso   1.000  O
  O15      1.0000 0.26887  0.06953  0.50973  Biso   1.000  O
  O16      1.0000 0.31060  0.01680  0.35560  Biso   1.000  O
