data_image0
_cell_length_a       15.2764
_cell_length_b       15.4318
_cell_length_c       15.4318
_cell_angle_alpha    120
_cell_angle_beta     90
_cell_angle_gamma    90

_symmetry_space_group_name_H-M    P 1
_symmetry_int_tables_number       1

loop_
  _symmetry_equiv_pos_as_xyz
  'x, y, z'

loop_
  _atom_site_label
  _atom_site_occupancy
  _atom_site_fract_x
  _atom_site_fract_y
  _atom_site_fract_z
  _atom_site_thermal_displace_type
  _atom_site_B_iso_or_equiv
  _atom_site_type_symbol
  Nd1      1.0000 0.75000  0.33333  0.66666  Biso   1.000  Nd
  Nd2      1.0000 0.75000  0.66667  0.33334  Biso   1.000  Nd
  Nd3      1.0000 0.25000  0.66667  0.33334  Biso   1.000  Nd
  Nd4      1.0000 0.25000  0.33333  0.66666  Biso   1.000  Nd
  Co1      1.0000 0.00000  0.50000  0.50000  Biso   1.000  Co
  Co2      1.0000 0.00000  0.00000  0.50000  Biso   1.000  Co
  Co3      1.0000 0.00000  0.50000  0.00000  Biso   1.000  Co
  Co4      1.0000 0.50000  0.00000  0.50000  Biso   1.000  Co
  Co5      1.0000 0.50000  0.50000  0.50000  Biso   1.000  Co
  Co6      1.0000 0.50000  0.50000  0.00000  Biso   1.000  Co
  H1       1.0000 0.84440  0.71290  0.76590  Biso   1.000  H
  H2       1.0000 0.84440  0.05300  0.28710  Biso   1.000  H
  H3       1.0000 0.84440  0.23410  0.94700  Biso   1.000  H
  H4       1.0000 0.84440  0.28710  0.23410  Biso   1.000  H
  H5       1.0000 0.84440  0.94700  0.71290  Biso   1.000  H
  H6       1.0000 0.84440  0.76590  0.05300  Biso   1.000  H
  H7       1.0000 0.65560  0.94700  0.23410  Biso   1.000  H
  H8       1.0000 0.65560  0.76590  0.71290  Biso   1.000  H
  H9       1.0000 0.65560  0.28710  0.05300  Biso   1.000  H
  H10      1.0000 0.65560  0.05300  0.76590  Biso   1.000  H
  H11      1.0000 0.65560  0.23410  0.28710  Biso   1.000  H
  H12      1.0000 0.65560  0.71290  0.94700  Biso   1.000  H
  H13      1.0000 0.15560  0.28710  0.23410  Biso   1.000  H
  H14      1.0000 0.15560  0.94700  0.71290  Biso   1.000  H
  H15      1.0000 0.15560  0.76590  0.05300  Biso   1.000  H
  H16      1.0000 0.15560  0.71290  0.76590  Biso   1.000  H
  H17      1.0000 0.15560  0.05300  0.28710  Biso   1.000  H
  H18      1.0000 0.15560  0.23410  0.94700  Biso   1.000  H
  H19      1.0000 0.34440  0.05300  0.76590  Biso   1.000  H
  H20      1.0000 0.34440  0.23410  0.28710  Biso   1.000  H
  H21      1.0000 0.34440  0.71290  0.94700  Biso   1.000  H
  H22      1.0000 0.34440  0.94700  0.23410  Biso   1.000  H
  H23      1.0000 0.34440  0.76590  0.71290  Biso   1.000  H
  H24      1.0000 0.34440  0.28710  0.05300  Biso   1.000  H
  H25      1.0000 0.75000  0.80000  0.90000  Biso   1.000  H
  H26      1.0000 0.75000  0.10000  0.20000  Biso   1.000  H
  H27      1.0000 0.75000  0.10000  0.90000  Biso   1.000  H
  H28      1.0000 0.75000  0.20000  0.10000  Biso   1.000  H
  H29      1.0000 0.75000  0.90000  0.80000  Biso   1.000  H
  H30      1.0000 0.75000  0.90000  0.10000  Biso   1.000  H
  H31      1.0000 0.25000  0.20000  0.10000  Biso   1.000  H
  H32      1.0000 0.25000  0.90000  0.80000  Biso   1.000  H
  H33      1.0000 0.25000  0.90000  0.10000  Biso   1.000  H
  H34      1.0000 0.25000  0.80000  0.90000  Biso   1.000  H
  H35      1.0000 0.25000  0.10000  0.20000  Biso   1.000  H
  H36      1.0000 0.25000  0.10000  0.90000  Biso   1.000  H
  C1       1.0000 0.86120  0.51150  0.64650  Biso   1.000  C
  C2       1.0000 0.80340  0.57540  0.73500  Biso   1.000  C
  C3       1.0000 0.80600  0.67900  0.78540  Biso   1.000  C
  C4       1.0000 0.86120  0.13500  0.48850  Biso   1.000  C
  C5       1.0000 0.80340  0.15960  0.42460  Biso   1.000  C
  C6       1.0000 0.80600  0.10640  0.32100  Biso   1.000  C
  C7       1.0000 0.86120  0.35350  0.86500  Biso   1.000  C
  C8       1.0000 0.80340  0.26500  0.84040  Biso   1.000  C
  C9       1.0000 0.80600  0.21460  0.89360  Biso   1.000  C
  C10      1.0000 0.86120  0.48850  0.35350  Biso   1.000  C
  C11      1.0000 0.80340  0.42460  0.26500  Biso   1.000  C
  C12      1.0000 0.80600  0.32100  0.21460  Biso   1.000  C
  C13      1.0000 0.86120  0.86500  0.51150  Biso   1.000  C
  C14      1.0000 0.80340  0.84040  0.57540  Biso   1.000  C
  C15      1.0000 0.80600  0.89360  0.67900  Biso   1.000  C
  C16      1.0000 0.86120  0.64650  0.13500  Biso   1.000  C
  C17      1.0000 0.80340  0.73500  0.15960  Biso   1.000  C
  C18      1.0000 0.80600  0.78540  0.10640  Biso   1.000  C
  C19      1.0000 0.63880  0.86500  0.35350  Biso   1.000  C
  C20      1.0000 0.69660  0.84040  0.26500  Biso   1.000  C
  C21      1.0000 0.69400  0.89360  0.21460  Biso   1.000  C
  C22      1.0000 0.63880  0.64650  0.51150  Biso   1.000  C
  C23      1.0000 0.69660  0.73500  0.57540  Biso   1.000  C
  C24      1.0000 0.69400  0.78540  0.67900  Biso   1.000  C
  C25      1.0000 0.63880  0.48850  0.13500  Biso   1.000  C
  C26      1.0000 0.69660  0.42460  0.15960  Biso   1.000  C
  C27      1.0000 0.69400  0.32100  0.10640  Biso   1.000  C
  C28      1.0000 0.63880  0.13500  0.64650  Biso   1.000  C
  C29      1.0000 0.69660  0.15960  0.73500  Biso   1.000  C
  C30      1.0000 0.69400  0.10640  0.78540  Biso   1.000  C
  C31      1.0000 0.63880  0.35350  0.48850  Biso   1.000  C
  C32      1.0000 0.69660  0.26500  0.42460  Biso   1.000  C
  C33      1.0000 0.69400  0.21460  0.32100  Biso   1.000  C
  C34      1.0000 0.63880  0.51150  0.86500  Biso   1.000  C
  C35      1.0000 0.69660  0.57540  0.84040  Biso   1.000  C
  C36      1.0000 0.69400  0.67900  0.89360  Biso   1.000  C
  C37      1.0000 0.13880  0.48850  0.35350  Biso   1.000  C
  C38      1.0000 0.19660  0.42460  0.26500  Biso   1.000  C
  C39      1.0000 0.19400  0.32100  0.21460  Biso   1.000  C
  C40      1.0000 0.13880  0.86500  0.51150  Biso   1.000  C
  C41      1.0000 0.19660  0.84040  0.57540  Biso   1.000  C
  C42      1.0000 0.19400  0.89360  0.67900  Biso   1.000  C
  C43      1.0000 0.13880  0.64650  0.13500  Biso   1.000  C
  C44      1.0000 0.19660  0.73500  0.15960  Biso   1.000  C
  C45      1.0000 0.19400  0.78540  0.10640  Biso   1.000  C
  C46      1.0000 0.13880  0.51150  0.64650  Biso   1.000  C
  C47      1.0000 0.19660  0.57540  0.73500  Biso   1.000  C
  C48      1.0000 0.19400  0.67900  0.78540  Biso   1.000  C
  C49      1.0000 0.13880  0.13500  0.48850  Biso   1.000  C
  C50      1.0000 0.19660  0.15960  0.42460  Biso   1.000  C
  C51      1.0000 0.19400  0.10640  0.32100  Biso   1.000  C
  C52      1.0000 0.13880  0.35350  0.86500  Biso   1.000  C
  C53      1.0000 0.19660  0.26500  0.84040  Biso   1.000  C
  C54      1.0000 0.19400  0.21460  0.89360  Biso   1.000  C
  C55      1.0000 0.36120  0.13500  0.64650  Biso   1.000  C
  C56      1.0000 0.30340  0.15960  0.73500  Biso   1.000  C
  C57      1.0000 0.30600  0.10640  0.78540  Biso   1.000  C
  C58      1.0000 0.36120  0.35350  0.48850  Biso   1.000  C
  C59      1.0000 0.30340  0.26500  0.42460  Biso   1.000  C
  C60      1.0000 0.30600  0.21460  0.32100  Biso   1.000  C
  C61      1.0000 0.36120  0.51150  0.86500  Biso   1.000  C
  C62      1.0000 0.30340  0.57540  0.84040  Biso   1.000  C
  C63      1.0000 0.30600  0.67900  0.89360  Biso   1.000  C
  C64      1.0000 0.36120  0.86500  0.35350  Biso   1.000  C
  C65      1.0000 0.30340  0.84040  0.26500  Biso   1.000  C
  C66      1.0000 0.30600  0.89360  0.21460  Biso   1.000  C
  C67      1.0000 0.36120  0.64650  0.51150  Biso   1.000  C
  C68      1.0000 0.30340  0.73500  0.57540  Biso   1.000  C
  C69      1.0000 0.30600  0.78540  0.67900  Biso   1.000  C
  C70      1.0000 0.36120  0.48850  0.13500  Biso   1.000  C
  C71      1.0000 0.30340  0.42460  0.15960  Biso   1.000  C
  C72      1.0000 0.30600  0.32100  0.10640  Biso   1.000  C
  C73      1.0000 0.75000  0.73040  0.86520  Biso   1.000  C
  C74      1.0000 0.75000  0.13480  0.26960  Biso   1.000  C
  C75      1.0000 0.75000  0.13480  0.86520  Biso   1.000  C
  C76      1.0000 0.75000  0.26960  0.13480  Biso   1.000  C
  C77      1.0000 0.75000  0.86520  0.73040  Biso   1.000  C
  C78      1.0000 0.75000  0.86520  0.13480  Biso   1.000  C
  C79      1.0000 0.25000  0.26960  0.13480  Biso   1.000  C
  C80      1.0000 0.25000  0.86520  0.73040  Biso   1.000  C
  C81      1.0000 0.25000  0.86520  0.13480  Biso   1.000  C
  C82      1.0000 0.25000  0.73040  0.86520  Biso   1.000  C
  C83      1.0000 0.25000  0.13480  0.26960  Biso   1.000  C
  C84      1.0000 0.25000  0.13480  0.86520  Biso   1.000  C
  N1       1.0000 0.75000  0.52490  0.76245  Biso   1.000  N
  N2       1.0000 0.75000  0.23755  0.47510  Biso   1.000  N
  N3       1.0000 0.75000  0.23755  0.76245  Biso   1.000  N
  N4       1.0000 0.75000  0.47510  0.23755  Biso   1.000  N
  N5       1.0000 0.75000  0.76245  0.52490  Biso   1.000  N
  N6       1.0000 0.75000  0.76245  0.23755  Biso   1.000  N
  N7       1.0000 0.25000  0.47510  0.23755  Biso   1.000  N
  N8       1.0000 0.25000  0.76245  0.52490  Biso   1.000  N
  N9       1.0000 0.25000  0.76245  0.23755  Biso   1.000  N
  N10      1.0000 0.25000  0.52490  0.76245  Biso   1.000  N
  N11      1.0000 0.25000  0.23755  0.47510  Biso   1.000  N
  N12      1.0000 0.25000  0.23755  0.76245  Biso   1.000  N
  O1       1.0000 0.85850  0.41740  0.61340  Biso   1.000  O
  O2       1.0000 0.90600  0.55460  0.61260  Biso   1.000  O
  O3       1.0000 0.85850  0.19600  0.58260  Biso   1.000  O
  O4       1.0000 0.90600  0.05800  0.44540  Biso   1.000  O
  O5       1.0000 0.85850  0.38660  0.80400  Biso   1.000  O
  O6       1.0000 0.90600  0.38740  0.94200  Biso   1.000  O
  O7       1.0000 0.85850  0.58260  0.38660  Biso   1.000  O
  O8       1.0000 0.90600  0.44540  0.38740  Biso   1.000  O
  O9       1.0000 0.85850  0.80400  0.41740  Biso   1.000  O
  O10      1.0000 0.90600  0.94200  0.55460  Biso   1.000  O
  O11      1.0000 0.85850  0.61340  0.19600  Biso   1.000  O
  O12      1.0000 0.90600  0.61260  0.05800  Biso   1.000  O
  O13      1.0000 0.64150  0.80400  0.38660  Biso   1.000  O
  O14      1.0000 0.59400  0.94200  0.38740  Biso   1.000  O
  O15      1.0000 0.64150  0.61340  0.41740  Biso   1.000  O
  O16      1.0000 0.59400  0.61260  0.55460  Biso   1.000  O
  O17      1.0000 0.64150  0.58260  0.19600  Biso   1.000  O
  O18      1.0000 0.59400  0.44540  0.05800  Biso   1.000  O
  O19      1.0000 0.64150  0.19600  0.61340  Biso   1.000  O
  O20      1.0000 0.59400  0.05800  0.61260  Biso   1.000  O
  O21      1.0000 0.64150  0.38660  0.58260  Biso   1.000  O
  O22      1.0000 0.59400  0.38740  0.44540  Biso   1.000  O
  O23      1.0000 0.64150  0.41740  0.80400  Biso   1.000  O
  O24      1.0000 0.59400  0.55460  0.94200  Biso   1.000  O
  O25      1.0000 0.14150  0.58260  0.38660  Biso   1.000  O
  O26      1.0000 0.09400  0.44540  0.38740  Biso   1.000  O
  O27      1.0000 0.14150  0.80400  0.41740  Biso   1.000  O
  O28      1.0000 0.09400  0.94200  0.55460  Biso   1.000  O
  O29      1.0000 0.14150  0.61340  0.19600  Biso   1.000  O
  O30      1.0000 0.09400  0.61260  0.05800  Biso   1.000  O
  O31      1.0000 0.14150  0.41740  0.61340  Biso   1.000  O
  O32      1.0000 0.09400  0.55460  0.61260  Biso   1.000  O
  O33      1.0000 0.14150  0.19600  0.58260  Biso   1.000  O
  O34      1.0000 0.09400  0.05800  0.44540  Biso   1.000  O
  O35      1.0000 0.14150  0.38660  0.80400  Biso   1.000  O
  O36      1.0000 0.09400  0.38740  0.94200  Biso   1.000  O
  O37      1.0000 0.35850  0.19600  0.61340  Biso   1.000  O
  O38      1.0000 0.40600  0.05800  0.61260  Biso   1.000  O
  O39      1.0000 0.35850  0.38660  0.58260  Biso   1.000  O
  O40      1.0000 0.40600  0.38740  0.44540  Biso   1.000  O
  O41      1.0000 0.35850  0.41740  0.80400  Biso   1.000  O
  O42      1.0000 0.40600  0.55460  0.94200  Biso   1.000  O
  O43      1.0000 0.35850  0.80400  0.38660  Biso   1.000  O
  O44      1.0000 0.40600  0.94200  0.38740  Biso   1.000  O
  O45      1.0000 0.35850  0.61340  0.41740  Biso   1.000  O
  O46      1.0000 0.40600  0.61260  0.55460  Biso   1.000  O
  O47      1.0000 0.35850  0.58260  0.19600  Biso   1.000  O
  O48      1.0000 0.40600  0.44540  0.05800  Biso   1.000  O
  O49      1.0000 0.00000  0.35550  0.48880  Biso   1.000  O
  O50      1.0000 0.00000  0.13330  0.64450  Biso   1.000  O
  O51      1.0000 0.00000  0.51120  0.86670  Biso   1.000  O
  O52      1.0000 0.00000  0.64450  0.51120  Biso   1.000  O
  O53      1.0000 0.00000  0.86670  0.35550  Biso   1.000  O
  O54      1.0000 0.00000  0.48880  0.13330  Biso   1.000  O
  O55      1.0000 0.50000  0.86670  0.51120  Biso   1.000  O
  O56      1.0000 0.50000  0.48880  0.35550  Biso   1.000  O
  O57      1.0000 0.50000  0.64450  0.13330  Biso   1.000  O
  O58      1.0000 0.50000  0.13330  0.48880  Biso   1.000  O
  O59      1.0000 0.50000  0.51120  0.64450  Biso   1.000  O
  O60      1.0000 0.50000  0.35550  0.86670  Biso   1.000  O
