data_image0
_cell_length_a       9.7763
_cell_length_b       11.1487
_cell_length_c       14.3643
_cell_angle_alpha    91.3883
_cell_angle_beta     90
_cell_angle_gamma    90

_symmetry_space_group_name_H-M    P 1
_symmetry_int_tables_number       1

loop_
  _symmetry_equiv_pos_as_xyz
  'x, y, z'

loop_
  _atom_site_label
  _atom_site_occupancy
  _atom_site_fract_x
  _atom_site_fract_y
  _atom_site_fract_z
  _atom_site_thermal_displace_type
  _atom_site_B_iso_or_equiv
  _atom_site_type_symbol
  Ni1      1.0000 0.92361  0.24442  0.36491  Biso   1.000  Ni
  Ni2      1.0000 0.61731  0.24096  0.30774  Biso   1.000  Ni
  Ni3      1.0000 0.42361  0.25558  0.13509  Biso   1.000  Ni
  Ni4      1.0000 0.11731  0.25904  0.19226  Biso   1.000  Ni
  Ni5      1.0000 0.07639  0.75558  0.63509  Biso   1.000  Ni
  Ni6      1.0000 0.38269  0.75904  0.69226  Biso   1.000  Ni
  Ni7      1.0000 0.57639  0.74442  0.86491  Biso   1.000  Ni
  Ni8      1.0000 0.88269  0.74096  0.80774  Biso   1.000  Ni
  Ni9      1.0000 0.00000  0.50000  0.50000  Biso   1.000  Ni
  Ni10     1.0000 0.50000  0.00000  0.00000  Biso   1.000  Ni
  Ni11     1.0000 0.00000  0.00000  0.50000  Biso   1.000  Ni
  Ni12     1.0000 0.50000  0.50000  0.00000  Biso   1.000  Ni
  H1       1.0000 0.70710  0.00990  0.48600  Biso   1.000  H
  H2       1.0000 0.62210  0.44400  0.45180  Biso   1.000  H
  H3       1.0000 0.19410  0.01730  0.27080  Biso   1.000  H
  H4       1.0000 0.76440  0.14550  0.12900  Biso   1.000  H
  H5       1.0000 0.15680  0.30320  0.57150  Biso   1.000  H
  H6       1.0000 0.05320  0.52250  0.23860  Biso   1.000  H
  H7       1.0000 0.20710  0.49010  0.01400  Biso   1.000  H
  H8       1.0000 0.12210  0.05600  0.04820  Biso   1.000  H
  H9       1.0000 0.69410  0.48270  0.22920  Biso   1.000  H
  H10      1.0000 0.26440  0.35450  0.37100  Biso   1.000  H
  H11      1.0000 0.65680  0.19680  0.92850  Biso   1.000  H
  H12      1.0000 0.55320  0.97750  0.26140  Biso   1.000  H
  H13      1.0000 0.29290  0.99010  0.51400  Biso   1.000  H
  H14      1.0000 0.37790  0.55600  0.54820  Biso   1.000  H
  H15      1.0000 0.80590  0.98270  0.72920  Biso   1.000  H
  H16      1.0000 0.23560  0.85450  0.87100  Biso   1.000  H
  H17      1.0000 0.84320  0.69680  0.42850  Biso   1.000  H
  H18      1.0000 0.94680  0.47750  0.76140  Biso   1.000  H
  H19      1.0000 0.79290  0.50990  0.98600  Biso   1.000  H
  H20      1.0000 0.87790  0.94400  0.95180  Biso   1.000  H
  H21      1.0000 0.30590  0.51730  0.77080  Biso   1.000  H
  H22      1.0000 0.73560  0.64550  0.62900  Biso   1.000  H
  H23      1.0000 0.34320  0.80320  0.07150  Biso   1.000  H
  H24      1.0000 0.44680  0.02250  0.73860  Biso   1.000  H
  C1       1.0000 0.72500  0.07170  0.44540  Biso   1.000  C
  C2       1.0000 0.71490  0.42700  0.44620  Biso   1.000  C
  C3       1.0000 0.13300  0.04525  0.31605  Biso   1.000  C
  C4       1.0000 0.83450  0.17281  0.16781  Biso   1.000  C
  C5       1.0000 0.10210  0.25764  0.53124  Biso   1.000  C
  C6       1.0000 0.02540  0.48155  0.29095  Biso   1.000  C
  C7       1.0000 0.22500  0.42830  0.05460  Biso   1.000  C
  C8       1.0000 0.21490  0.07300  0.05380  Biso   1.000  C
  C9       1.0000 0.63300  0.45475  0.18395  Biso   1.000  C
  C10      1.0000 0.33450  0.32719  0.33219  Biso   1.000  C
  C11      1.0000 0.60210  0.24236  0.96876  Biso   1.000  C
  C12      1.0000 0.52540  0.01845  0.20905  Biso   1.000  C
  C13      1.0000 0.27500  0.92830  0.55460  Biso   1.000  C
  C14      1.0000 0.28510  0.57300  0.55380  Biso   1.000  C
  C15      1.0000 0.86700  0.95475  0.68395  Biso   1.000  C
  C16      1.0000 0.16550  0.82719  0.83219  Biso   1.000  C
  C17      1.0000 0.89790  0.74236  0.46876  Biso   1.000  C
  C18      1.0000 0.97460  0.51845  0.70905  Biso   1.000  C
  C19      1.0000 0.77500  0.57170  0.94540  Biso   1.000  C
  C20      1.0000 0.78510  0.92700  0.94620  Biso   1.000  C
  C21      1.0000 0.36700  0.54525  0.81605  Biso   1.000  C
  C22      1.0000 0.66550  0.67281  0.66781  Biso   1.000  C
  C23      1.0000 0.39790  0.75764  0.03124  Biso   1.000  C
  C24      1.0000 0.47460  0.98155  0.79095  Biso   1.000  C
  O1       1.0000 0.84960  0.10290  0.43749  Biso   1.000  O
  O2       1.0000 0.62541  0.11439  0.40502  Biso   1.000  O
  O3       1.0000 0.80524  0.19005  0.25337  Biso   1.000  O
  O4       1.0000 0.74821  0.34635  0.38677  Biso   1.000  O
  O5       1.0000 0.08594  0.14973  0.30562  Biso   1.000  O
  O6       1.0000 0.01096  0.36930  0.28153  Biso   1.000  O
  O7       1.0000 0.02507  0.31521  0.47593  Biso   1.000  O
  O8       1.0000 0.94766  0.18895  0.13125  Biso   1.000  O
  O9       1.0000 0.00630  0.54204  0.36224  Biso   1.000  O
  O10      1.0000 0.79311  0.48532  0.49742  Biso   1.000  O
  O11      1.0000 0.10720  0.97662  0.37900  Biso   1.000  O
  O12      1.0000 0.11095  0.14790  0.53654  Biso   1.000  O
  O13      1.0000 0.34960  0.39710  0.06251  Biso   1.000  O
  O14      1.0000 0.12541  0.38561  0.09498  Biso   1.000  O
  O15      1.0000 0.30524  0.30995  0.24663  Biso   1.000  O
  O16      1.0000 0.24821  0.15365  0.11323  Biso   1.000  O
  O17      1.0000 0.58594  0.35027  0.19438  Biso   1.000  O
  O18      1.0000 0.51096  0.13070  0.21847  Biso   1.000  O
  O19      1.0000 0.52507  0.18479  0.02407  Biso   1.000  O
  O20      1.0000 0.44766  0.31105  0.36875  Biso   1.000  O
  O21      1.0000 0.50630  0.95796  0.13776  Biso   1.000  O
  O22      1.0000 0.29311  0.01468  0.00258  Biso   1.000  O
  O23      1.0000 0.60720  0.52338  0.12100  Biso   1.000  O
  O24      1.0000 0.61095  0.35210  0.96346  Biso   1.000  O
  O25      1.0000 0.15040  0.89710  0.56251  Biso   1.000  O
  O26      1.0000 0.37459  0.88561  0.59498  Biso   1.000  O
  O27      1.0000 0.19476  0.80995  0.74663  Biso   1.000  O
  O28      1.0000 0.25179  0.65365  0.61323  Biso   1.000  O
  O29      1.0000 0.91406  0.85027  0.69438  Biso   1.000  O
  O30      1.0000 0.98904  0.63070  0.71847  Biso   1.000  O
  O31      1.0000 0.97493  0.68479  0.52407  Biso   1.000  O
  O32      1.0000 0.05234  0.81105  0.86875  Biso   1.000  O
  O33      1.0000 0.99370  0.45796  0.63776  Biso   1.000  O
  O34      1.0000 0.20689  0.51468  0.50258  Biso   1.000  O
  O35      1.0000 0.89280  0.02338  0.62100  Biso   1.000  O
  O36      1.0000 0.88905  0.85210  0.46346  Biso   1.000  O
  O37      1.0000 0.65040  0.60290  0.93749  Biso   1.000  O
  O38      1.0000 0.87459  0.61439  0.90502  Biso   1.000  O
  O39      1.0000 0.69476  0.69005  0.75337  Biso   1.000  O
  O40      1.0000 0.75179  0.84635  0.88677  Biso   1.000  O
  O41      1.0000 0.41406  0.64973  0.80562  Biso   1.000  O
  O42      1.0000 0.48904  0.86930  0.78153  Biso   1.000  O
  O43      1.0000 0.47493  0.81521  0.97593  Biso   1.000  O
  O44      1.0000 0.55234  0.68895  0.63125  Biso   1.000  O
  O45      1.0000 0.49370  0.04204  0.86224  Biso   1.000  O
  O46      1.0000 0.70689  0.98532  0.99742  Biso   1.000  O
  O47      1.0000 0.39280  0.47662  0.87900  Biso   1.000  O
  O48      1.0000 0.38905  0.64790  0.03654  Biso   1.000  O
