data_image0
_cell_length_a       10.5787
_cell_length_b       10.5787
_cell_length_c       15.828
_cell_angle_alpha    90
_cell_angle_beta     90
_cell_angle_gamma    104.376

_symmetry_space_group_name_H-M    P 1
_symmetry_int_tables_number       1

loop_
  _symmetry_equiv_pos_as_xyz
  'x, y, z'

loop_
  _atom_site_label
  _atom_site_occupancy
  _atom_site_fract_x
  _atom_site_fract_y
  _atom_site_fract_z
  _atom_site_thermal_displace_type
  _atom_site_B_iso_or_equiv
  _atom_site_type_symbol
  Zn1      1.0000 0.12886  0.23752  0.92379  Biso   1.000  Zn
  Zn2      1.0000 0.44207  0.27871  0.94336  Biso   1.000  Zn
  Zn3      1.0000 0.87114  0.76248  0.42379  Biso   1.000  Zn
  Zn4      1.0000 0.55793  0.72129  0.44336  Biso   1.000  Zn
  Zn5      1.0000 0.76248  0.87114  0.57621  Biso   1.000  Zn
  Zn6      1.0000 0.72129  0.55793  0.55664  Biso   1.000  Zn
  Zn7      1.0000 0.23752  0.12886  0.07621  Biso   1.000  Zn
  Zn8      1.0000 0.27871  0.44207  0.05664  Biso   1.000  Zn
  H1       1.0000 0.50570  0.08050  0.71200  Biso   1.000  H
  H2       1.0000 0.25390  0.82990  0.54940  Biso   1.000  H
  H3       1.0000 0.11460  0.04620  0.71630  Biso   1.000  H
  H4       1.0000 0.49430  0.91950  0.21200  Biso   1.000  H
  H5       1.0000 0.74610  0.17010  0.04940  Biso   1.000  H
  H6       1.0000 0.88540  0.95380  0.21630  Biso   1.000  H
  H7       1.0000 0.91950  0.49430  0.78800  Biso   1.000  H
  H8       1.0000 0.17010  0.74610  0.95060  Biso   1.000  H
  H9       1.0000 0.95380  0.88540  0.78370  Biso   1.000  H
  H10      1.0000 0.08050  0.50570  0.28800  Biso   1.000  H
  H11      1.0000 0.82990  0.25390  0.45060  Biso   1.000  H
  H12      1.0000 0.04620  0.11460  0.28370  Biso   1.000  H
  C1       1.0000 0.31550  0.08910  0.71970  Biso   1.000  C
  C2       1.0000 0.42230  0.05070  0.68980  Biso   1.000  C
  C3       1.0000 0.38930  0.95250  0.61520  Biso   1.000  C
  C4       1.0000 0.26750  0.89670  0.58920  Biso   1.000  C
  C5       1.0000 0.15430  0.93990  0.62290  Biso   1.000  C
  C6       1.0000 0.18450  0.02570  0.68840  Biso   1.000  C
  C7       1.0000 0.32900  0.17440  0.79150  Biso   1.000  C
  C8       1.0000 0.51000  0.90140  0.58330  Biso   1.000  C
  C9       1.0000 0.02900  0.89600  0.57720  Biso   1.000  C
  C10      1.0000 0.68450  0.91090  0.21970  Biso   1.000  C
  C11      1.0000 0.57770  0.94930  0.18980  Biso   1.000  C
  C12      1.0000 0.61070  0.04750  0.11520  Biso   1.000  C
  C13      1.0000 0.73250  0.10330  0.08920  Biso   1.000  C
  C14      1.0000 0.84570  0.06010  0.12290  Biso   1.000  C
  C15      1.0000 0.81550  0.97430  0.18840  Biso   1.000  C
  C16      1.0000 0.67100  0.82560  0.29150  Biso   1.000  C
  C17      1.0000 0.49000  0.09860  0.08330  Biso   1.000  C
  C18      1.0000 0.97100  0.10400  0.07720  Biso   1.000  C
  C19      1.0000 0.91090  0.68450  0.78030  Biso   1.000  C
  C20      1.0000 0.94930  0.57770  0.81020  Biso   1.000  C
  C21      1.0000 0.04750  0.61070  0.88480  Biso   1.000  C
  C22      1.0000 0.10330  0.73250  0.91080  Biso   1.000  C
  C23      1.0000 0.06010  0.84570  0.87710  Biso   1.000  C
  C24      1.0000 0.97430  0.81550  0.81160  Biso   1.000  C
  C25      1.0000 0.82560  0.67100  0.70850  Biso   1.000  C
  C26      1.0000 0.09860  0.49000  0.91670  Biso   1.000  C
  C27      1.0000 0.10400  0.97100  0.92280  Biso   1.000  C
  C28      1.0000 0.08910  0.31550  0.28030  Biso   1.000  C
  C29      1.0000 0.05070  0.42230  0.31020  Biso   1.000  C
  C30      1.0000 0.95250  0.38930  0.38480  Biso   1.000  C
  C31      1.0000 0.89670  0.26750  0.41080  Biso   1.000  C
  C32      1.0000 0.93990  0.15430  0.37710  Biso   1.000  C
  C33      1.0000 0.02570  0.18450  0.31160  Biso   1.000  C
  C34      1.0000 0.17440  0.32900  0.20850  Biso   1.000  C
  C35      1.0000 0.90140  0.51000  0.41670  Biso   1.000  C
  C36      1.0000 0.89600  0.02900  0.42280  Biso   1.000  C
  O1       1.0000 0.25091  0.24609  0.80460  Biso   1.000  O
  O2       1.0000 0.43129  0.17551  0.84233  Biso   1.000  O
  O3       1.0000 0.61707  0.93693  0.61770  Biso   1.000  O
  O4       1.0000 0.47487  0.82913  0.51860  Biso   1.000  O
  O5       1.0000 0.94366  0.95314  0.60742  Biso   1.000  O
  O6       1.0000 0.01113  0.80159  0.52910  Biso   1.000  O
  O7       1.0000 0.74909  0.75391  0.30460  Biso   1.000  O
  O8       1.0000 0.56871  0.82449  0.34233  Biso   1.000  O
  O9       1.0000 0.38293  0.06307  0.11770  Biso   1.000  O
  O10      1.0000 0.52513  0.17087  0.01860  Biso   1.000  O
  O11      1.0000 0.05634  0.04686  0.10742  Biso   1.000  O
  O12      1.0000 0.98887  0.19841  0.02910  Biso   1.000  O
  O13      1.0000 0.75391  0.74909  0.69540  Biso   1.000  O
  O14      1.0000 0.82449  0.56871  0.65767  Biso   1.000  O
  O15      1.0000 0.06307  0.38293  0.88230  Biso   1.000  O
  O16      1.0000 0.17087  0.52513  0.98140  Biso   1.000  O
  O17      1.0000 0.04686  0.05634  0.89258  Biso   1.000  O
  O18      1.0000 0.19841  0.98887  0.97090  Biso   1.000  O
  O19      1.0000 0.24609  0.25091  0.19540  Biso   1.000  O
  O20      1.0000 0.17551  0.43129  0.15767  Biso   1.000  O
  O21      1.0000 0.93693  0.61707  0.38230  Biso   1.000  O
  O22      1.0000 0.82913  0.47487  0.48140  Biso   1.000  O
  O23      1.0000 0.95314  0.94366  0.39258  Biso   1.000  O
  O24      1.0000 0.80159  0.01113  0.47090  Biso   1.000  O
  O25      1.0000 0.28320  0.28320  0.00000  Biso   1.000  O
  O26      1.0000 0.71680  0.71680  0.50000  Biso   1.000  O
