data_image0
_cell_length_a       7.18098
_cell_length_b       11.3511
_cell_length_c       11.3511
_cell_angle_alpha    66.3221
_cell_angle_beta     71.56
_cell_angle_gamma    71.5599

_symmetry_space_group_name_H-M    P 1
_symmetry_int_tables_number       1

loop_
  _symmetry_equiv_pos_as_xyz
  'x, y, z'

loop_
  _atom_site_label
  _atom_site_occupancy
  _atom_site_fract_x
  _atom_site_fract_y
  _atom_site_fract_z
  _atom_site_thermal_displace_type
  _atom_site_B_iso_or_equiv
  _atom_site_type_symbol
  Cu1      1.0000 0.34052  0.88889  0.61111  Biso   1.000  Cu
  Cu2      1.0000 0.84052  0.11111  0.38889  Biso   1.000  Cu
  H1       1.0000 0.75390  0.84810  0.44130  Biso   1.000  H
  H2       1.0000 0.26620  0.62850  0.67710  Biso   1.000  H
  H3       1.0000 0.41550  0.49330  0.72490  Biso   1.000  H
  H4       1.0000 0.33200  0.52910  0.59990  Biso   1.000  H
  H5       1.0000 0.07490  0.75500  0.33120  Biso   1.000  H
  H6       1.0000 0.05910  0.64950  0.28050  Biso   1.000  H
  H7       1.0000 0.14470  0.60440  0.40660  Biso   1.000  H
  H8       1.0000 0.04330  0.15190  0.55870  Biso   1.000  H
  H9       1.0000 0.57180  0.37150  0.32290  Biso   1.000  H
  H10      1.0000 0.63370  0.50670  0.27510  Biso   1.000  H
  H11      1.0000 0.46100  0.47090  0.40010  Biso   1.000  H
  H12      1.0000 0.16110  0.24500  0.66880  Biso   1.000  H
  H13      1.0000 0.98910  0.35050  0.71950  Biso   1.000  H
  H14      1.0000 0.15570  0.39560  0.59340  Biso   1.000  H
  H15      1.0000 0.25390  0.94130  0.34810  Biso   1.000  H
  H16      1.0000 0.76620  0.17710  0.12850  Biso   1.000  H
  H17      1.0000 0.91550  0.22490  0.99330  Biso   1.000  H
  H18      1.0000 0.83200  0.09990  0.02910  Biso   1.000  H
  H19      1.0000 0.57490  0.83120  0.25500  Biso   1.000  H
  H20      1.0000 0.55910  0.78050  0.14950  Biso   1.000  H
  H21      1.0000 0.64470  0.90660  0.10440  Biso   1.000  H
  H22      1.0000 0.54330  0.05870  0.65190  Biso   1.000  H
  H23      1.0000 0.07180  0.82290  0.87150  Biso   1.000  H
  H24      1.0000 0.13370  0.77510  0.00670  Biso   1.000  H
  H25      1.0000 0.96100  0.90010  0.97090  Biso   1.000  H
  H26      1.0000 0.66110  0.16880  0.74500  Biso   1.000  H
  H27      1.0000 0.48910  0.21950  0.85050  Biso   1.000  H
  H28      1.0000 0.65570  0.09340  0.89560  Biso   1.000  H
  C1       1.0000 0.73740  0.56820  0.50160  Biso   1.000  C
  C2       1.0000 0.84460  0.66700  0.44000  Biso   1.000  C
  C3       1.0000 0.54750  0.62520  0.56460  Biso   1.000  C
  C4       1.0000 0.37500  0.56370  0.64910  Biso   1.000  C
  C5       1.0000 0.04850  0.66910  0.35750  Biso   1.000  C
  C6       1.0000 0.80720  0.43180  0.49840  Biso   1.000  C
  C7       1.0000 0.95160  0.33300  0.56000  Biso   1.000  C
  C8       1.0000 0.73730  0.37480  0.43540  Biso   1.000  C
  C9       1.0000 0.58780  0.43630  0.35090  Biso   1.000  C
  C10      1.0000 0.07510  0.33090  0.64250  Biso   1.000  C
  C11      1.0000 0.23740  0.00160  0.06820  Biso   1.000  C
  C12      1.0000 0.34460  0.94000  0.16700  Biso   1.000  C
  C13      1.0000 0.04750  0.06460  0.12520  Biso   1.000  C
  C14      1.0000 0.87500  0.14910  0.06370  Biso   1.000  C
  C15      1.0000 0.54850  0.85750  0.16910  Biso   1.000  C
  C16      1.0000 0.30720  0.99840  0.93180  Biso   1.000  C
  C17      1.0000 0.45160  0.06000  0.83300  Biso   1.000  C
  C18      1.0000 0.23730  0.93540  0.87480  Biso   1.000  C
  C19      1.0000 0.08780  0.85090  0.93630  Biso   1.000  C
  C20      1.0000 0.57510  0.14250  0.83090  Biso   1.000  C
  Br1      1.0000 0.49303  0.09474  0.40526  Biso   1.000  Br
  Br2      1.0000 0.99303  0.90526  0.59474  Biso   1.000  Br
  N1       1.0000 0.54106  0.75024  0.54444  Biso   1.000  N
  N2       1.0000 0.72140  0.77330  0.46850  Biso   1.000  N
  N3       1.0000 0.83574  0.24976  0.45556  Biso   1.000  N
  N4       1.0000 0.96320  0.22670  0.53150  Biso   1.000  N
  N5       1.0000 0.04106  0.04444  0.25024  Biso   1.000  N
  N6       1.0000 0.22140  0.96850  0.27330  Biso   1.000  N
  N7       1.0000 0.33574  0.95556  0.74976  Biso   1.000  N
  N8       1.0000 0.46320  0.03150  0.72670  Biso   1.000  N
