data_image0
_cell_length_a       13.657
_cell_length_b       18.777
_cell_length_c       19.983
_cell_angle_alpha    90
_cell_angle_beta     90
_cell_angle_gamma    90

_symmetry_space_group_name_H-M    P 1
_symmetry_int_tables_number       1

loop_
  _symmetry_equiv_pos_as_xyz
  'x, y, z'

loop_
  _atom_site_label
  _atom_site_occupancy
  _atom_site_fract_x
  _atom_site_fract_y
  _atom_site_fract_z
  _atom_site_thermal_displace_type
  _atom_site_B_iso_or_equiv
  _atom_site_type_symbol
  Zn1      1.0000 0.36632  0.06072  0.10727  Biso   1.000  Zn
  Zn2      1.0000 0.40652  0.95108  0.99030  Biso   1.000  Zn
  Zn3      1.0000 0.63368  0.43928  0.60727  Biso   1.000  Zn
  Zn4      1.0000 0.59348  0.54892  0.49030  Biso   1.000  Zn
  Zn5      1.0000 0.63368  0.93928  0.89273  Biso   1.000  Zn
  Zn6      1.0000 0.59348  0.04892  0.00970  Biso   1.000  Zn
  Zn7      1.0000 0.36632  0.56072  0.39273  Biso   1.000  Zn
  Zn8      1.0000 0.40652  0.45108  0.50970  Biso   1.000  Zn
  H1       1.0000 0.41030  0.68800  0.21480  Biso   1.000  H
  H2       1.0000 0.41890  0.77600  0.13470  Biso   1.000  H
  H3       1.0000 0.39760  0.92520  0.27450  Biso   1.000  H
  H4       1.0000 0.38520  0.83860  0.35500  Biso   1.000  H
  H5       1.0000 0.04150  0.06070  0.09610  Biso   1.000  H
  H6       1.0000 0.11850  0.94900  0.93440  Biso   1.000  H
  H7       1.0000 0.39940  0.78670  0.02040  Biso   1.000  H
  H8       1.0000 0.38170  0.67820  0.96300  Biso   1.000  H
  H9       1.0000 0.36020  0.68100  0.84860  Biso   1.000  H
  H10      1.0000 0.32760  0.99980  0.70450  Biso   1.000  H
  H11      1.0000 0.33210  0.09650  0.77300  Biso   1.000  H
  H12      1.0000 0.36430  0.08170  0.88550  Biso   1.000  H
  H13      1.0000 0.56600  0.91000  0.99500  Biso   1.000  H
  H14      1.0000 0.58970  0.81200  0.71480  Biso   1.000  H
  H15      1.0000 0.58110  0.72400  0.63470  Biso   1.000  H
  H16      1.0000 0.60240  0.57480  0.77450  Biso   1.000  H
  H17      1.0000 0.61480  0.66140  0.85500  Biso   1.000  H
  H18      1.0000 0.95850  0.43930  0.59610  Biso   1.000  H
  H19      1.0000 0.88150  0.55100  0.43440  Biso   1.000  H
  H20      1.0000 0.60060  0.71330  0.52040  Biso   1.000  H
  H21      1.0000 0.61830  0.82180  0.46300  Biso   1.000  H
  H22      1.0000 0.63980  0.81900  0.34860  Biso   1.000  H
  H23      1.0000 0.67240  0.50020  0.20450  Biso   1.000  H
  H24      1.0000 0.66790  0.40350  0.27300  Biso   1.000  H
  H25      1.0000 0.63570  0.41830  0.38550  Biso   1.000  H
  H26      1.0000 0.43400  0.59000  0.49500  Biso   1.000  H
  H27      1.0000 0.58970  0.31200  0.78520  Biso   1.000  H
  H28      1.0000 0.58110  0.22400  0.86530  Biso   1.000  H
  H29      1.0000 0.60240  0.07480  0.72550  Biso   1.000  H
  H30      1.0000 0.61480  0.16140  0.64500  Biso   1.000  H
  H31      1.0000 0.95850  0.93930  0.90390  Biso   1.000  H
  H32      1.0000 0.88150  0.05100  0.06560  Biso   1.000  H
  H33      1.0000 0.60060  0.21330  0.97960  Biso   1.000  H
  H34      1.0000 0.61830  0.32180  0.03700  Biso   1.000  H
  H35      1.0000 0.63980  0.31900  0.15140  Biso   1.000  H
  H36      1.0000 0.67240  0.00020  0.29550  Biso   1.000  H
  H37      1.0000 0.66790  0.90350  0.22700  Biso   1.000  H
  H38      1.0000 0.63570  0.91830  0.11450  Biso   1.000  H
  H39      1.0000 0.43400  0.09000  0.00500  Biso   1.000  H
  H40      1.0000 0.41030  0.18800  0.28520  Biso   1.000  H
  H41      1.0000 0.41890  0.27600  0.36530  Biso   1.000  H
  H42      1.0000 0.39760  0.42520  0.22550  Biso   1.000  H
  H43      1.0000 0.38520  0.33860  0.14500  Biso   1.000  H
  H44      1.0000 0.04150  0.56070  0.40390  Biso   1.000  H
  H45      1.0000 0.11850  0.44900  0.56560  Biso   1.000  H
  H46      1.0000 0.39940  0.28670  0.47960  Biso   1.000  H
  H47      1.0000 0.38170  0.17820  0.53700  Biso   1.000  H
  H48      1.0000 0.36020  0.18100  0.65140  Biso   1.000  H
  H49      1.0000 0.32760  0.49980  0.79550  Biso   1.000  H
  H50      1.0000 0.33210  0.59650  0.72700  Biso   1.000  H
  H51      1.0000 0.36430  0.58170  0.61450  Biso   1.000  H
  H52      1.0000 0.56600  0.41000  0.50500  Biso   1.000  H
  C1       1.0000 0.39550  0.75410  0.29310  Biso   1.000  C
  C2       1.0000 0.40650  0.73570  0.22730  Biso   1.000  C
  C3       1.0000 0.41190  0.78910  0.17930  Biso   1.000  C
  C4       1.0000 0.40730  0.85940  0.19440  Biso   1.000  C
  C5       1.0000 0.39870  0.87750  0.26210  Biso   1.000  C
  C6       1.0000 0.39210  0.82560  0.31040  Biso   1.000  C
  C7       1.0000 0.38540  0.69790  0.34730  Biso   1.000  C
  C8       1.0000 0.40940  0.91600  0.14160  Biso   1.000  C
  C9       1.0000 0.20410  0.00750  0.03850  Biso   1.000  C
  C10      1.0000 0.09730  0.00330  0.01960  Biso   1.000  C
  C11      1.0000 0.02480  0.03560  0.05760  Biso   1.000  C
  C12      1.0000 0.07040  0.96920  0.96130  Biso   1.000  C
  C13      1.0000 0.39010  0.78710  0.97430  Biso   1.000  C
  C14      1.0000 0.37960  0.72120  0.94010  Biso   1.000  C
  C15      1.0000 0.36650  0.72320  0.87260  Biso   1.000  C
  C16      1.0000 0.36240  0.78720  0.84020  Biso   1.000  C
  C17      1.0000 0.35100  0.78780  0.76770  Biso   1.000  C
  C18      1.0000 0.34840  0.86040  0.73390  Biso   1.000  C
  C19      1.0000 0.35140  0.92630  0.77710  Biso   1.000  C
  C20      1.0000 0.33860  0.99420  0.75020  Biso   1.000  C
  C21      1.0000 0.34210  0.05110  0.79030  Biso   1.000  C
  C22      1.0000 0.36110  0.04170  0.85810  Biso   1.000  C
  C23      1.0000 0.36680  0.91920  0.84400  Biso   1.000  C
  C24      1.0000 0.37360  0.84850  0.87710  Biso   1.000  C
  C25      1.0000 0.60450  0.74590  0.79310  Biso   1.000  C
  C26      1.0000 0.59350  0.76430  0.72730  Biso   1.000  C
  C27      1.0000 0.58810  0.71090  0.67930  Biso   1.000  C
  C28      1.0000 0.59270  0.64060  0.69440  Biso   1.000  C
  C29      1.0000 0.60130  0.62250  0.76210  Biso   1.000  C
  C30      1.0000 0.60790  0.67440  0.81040  Biso   1.000  C
  C31      1.0000 0.61460  0.80210  0.84730  Biso   1.000  C
  C32      1.0000 0.59060  0.58400  0.64160  Biso   1.000  C
  C33      1.0000 0.79590  0.49250  0.53850  Biso   1.000  C
  C34      1.0000 0.90270  0.49670  0.51960  Biso   1.000  C
  C35      1.0000 0.97520  0.46440  0.55760  Biso   1.000  C
  C36      1.0000 0.92960  0.53080  0.46130  Biso   1.000  C
  C37      1.0000 0.60990  0.71290  0.47430  Biso   1.000  C
  C38      1.0000 0.62040  0.77880  0.44010  Biso   1.000  C
  C39      1.0000 0.63350  0.77680  0.37260  Biso   1.000  C
  C40      1.0000 0.63760  0.71280  0.34020  Biso   1.000  C
  C41      1.0000 0.64900  0.71220  0.26770  Biso   1.000  C
  C42      1.0000 0.65160  0.63960  0.23390  Biso   1.000  C
  C43      1.0000 0.64860  0.57370  0.27710  Biso   1.000  C
  C44      1.0000 0.66140  0.50580  0.25020  Biso   1.000  C
  C45      1.0000 0.65790  0.44890  0.29030  Biso   1.000  C
  C46      1.0000 0.63890  0.45830  0.35810  Biso   1.000  C
  C47      1.0000 0.63320  0.58080  0.34400  Biso   1.000  C
  C48      1.0000 0.62640  0.65150  0.37710  Biso   1.000  C
  C49      1.0000 0.60450  0.24590  0.70690  Biso   1.000  C
  C50      1.0000 0.59350  0.26430  0.77270  Biso   1.000  C
  C51      1.0000 0.58810  0.21090  0.82070  Biso   1.000  C
  C52      1.0000 0.59270  0.14060  0.80560  Biso   1.000  C
  C53      1.0000 0.60130  0.12250  0.73790  Biso   1.000  C
  C54      1.0000 0.60790  0.17440  0.68960  Biso   1.000  C
  C55      1.0000 0.61460  0.30210  0.65270  Biso   1.000  C
  C56      1.0000 0.59060  0.08400  0.85840  Biso   1.000  C
  C57      1.0000 0.79590  0.99250  0.96150  Biso   1.000  C
  C58      1.0000 0.90270  0.99670  0.98040  Biso   1.000  C
  C59      1.0000 0.97520  0.96440  0.94240  Biso   1.000  C
  C60      1.0000 0.92960  0.03080  0.03870  Biso   1.000  C
  C61      1.0000 0.60990  0.21290  0.02570  Biso   1.000  C
  C62      1.0000 0.62040  0.27880  0.05990  Biso   1.000  C
  C63      1.0000 0.63350  0.27680  0.12740  Biso   1.000  C
  C64      1.0000 0.63760  0.21280  0.15980  Biso   1.000  C
  C65      1.0000 0.64900  0.21220  0.23230  Biso   1.000  C
  C66      1.0000 0.65160  0.13960  0.26610  Biso   1.000  C
  C67      1.0000 0.64860  0.07370  0.22290  Biso   1.000  C
  C68      1.0000 0.66140  0.00580  0.24980  Biso   1.000  C
  C69      1.0000 0.65790  0.94890  0.20970  Biso   1.000  C
  C70      1.0000 0.63890  0.95830  0.14190  Biso   1.000  C
  C71      1.0000 0.63320  0.08080  0.15600  Biso   1.000  C
  C72      1.0000 0.62640  0.15150  0.12290  Biso   1.000  C
  C73      1.0000 0.39550  0.25410  0.20690  Biso   1.000  C
  C74      1.0000 0.40650  0.23570  0.27270  Biso   1.000  C
  C75      1.0000 0.41190  0.28910  0.32070  Biso   1.000  C
  C76      1.0000 0.40730  0.35940  0.30560  Biso   1.000  C
  C77      1.0000 0.39870  0.37750  0.23790  Biso   1.000  C
  C78      1.0000 0.39210  0.32560  0.18960  Biso   1.000  C
  C79      1.0000 0.38540  0.19790  0.15270  Biso   1.000  C
  C80      1.0000 0.40940  0.41600  0.35840  Biso   1.000  C
  C81      1.0000 0.20410  0.50750  0.46150  Biso   1.000  C
  C82      1.0000 0.09730  0.50330  0.48040  Biso   1.000  C
  C83      1.0000 0.02480  0.53560  0.44240  Biso   1.000  C
  C84      1.0000 0.07040  0.46920  0.53870  Biso   1.000  C
  C85      1.0000 0.39010  0.28710  0.52570  Biso   1.000  C
  C86      1.0000 0.37960  0.22120  0.55990  Biso   1.000  C
  C87      1.0000 0.36650  0.22320  0.62740  Biso   1.000  C
  C88      1.0000 0.36240  0.28720  0.65980  Biso   1.000  C
  C89      1.0000 0.35100  0.28780  0.73230  Biso   1.000  C
  C90      1.0000 0.34840  0.36040  0.76610  Biso   1.000  C
  C91      1.0000 0.35140  0.42630  0.72290  Biso   1.000  C
  C92      1.0000 0.33860  0.49420  0.74980  Biso   1.000  C
  C93      1.0000 0.34210  0.55110  0.70970  Biso   1.000  C
  C94      1.0000 0.36110  0.54170  0.64190  Biso   1.000  C
  C95      1.0000 0.36680  0.41920  0.65600  Biso   1.000  C
  C96      1.0000 0.37360  0.34850  0.62290  Biso   1.000  C
  N1       1.0000 0.38690  0.84880  0.94290  Biso   1.000  N
  N2       1.0000 0.37510  0.97680  0.88590  Biso   1.000  N
  N3       1.0000 0.61310  0.65120  0.44290  Biso   1.000  N
  N4       1.0000 0.62490  0.52320  0.38590  Biso   1.000  N
  N5       1.0000 0.61310  0.15120  0.05710  Biso   1.000  N
  N6       1.0000 0.62490  0.02320  0.11410  Biso   1.000  N
  N7       1.0000 0.38690  0.34880  0.55710  Biso   1.000  N
  N8       1.0000 0.37510  0.47680  0.61410  Biso   1.000  N
  O1       1.0000 0.38980  0.63340  0.32720  Biso   1.000  O
  O2       1.0000 0.37200  0.71720  0.40400  Biso   1.000  O
  O3       1.0000 0.42450  0.89820  0.08280  Biso   1.000  O
  O4       1.0000 0.39410  0.97820  0.16370  Biso   1.000  O
  O5       1.0000 0.26010  0.96630  0.00870  Biso   1.000  O
  O6       1.0000 0.22730  0.05120  0.08380  Biso   1.000  O
  O7       1.0000 0.34220  0.73540  0.73410  Biso   1.000  O
  O8       1.0000 0.34290  0.86670  0.67210  Biso   1.000  O
  O9       1.0000 0.55910  0.94630  0.97650  Biso   1.000  O
  O10      1.0000 0.61020  0.86660  0.82720  Biso   1.000  O
  O11      1.0000 0.62800  0.78280  0.90400  Biso   1.000  O
  O12      1.0000 0.57550  0.60180  0.58280  Biso   1.000  O
  O13      1.0000 0.60590  0.52180  0.66370  Biso   1.000  O
  O14      1.0000 0.73990  0.53370  0.50870  Biso   1.000  O
  O15      1.0000 0.77270  0.44880  0.58380  Biso   1.000  O
  O16      1.0000 0.65780  0.76460  0.23410  Biso   1.000  O
  O17      1.0000 0.65710  0.63330  0.17210  Biso   1.000  O
  O18      1.0000 0.44090  0.55370  0.47650  Biso   1.000  O
  O19      1.0000 0.61020  0.36660  0.67280  Biso   1.000  O
  O20      1.0000 0.62800  0.28280  0.59600  Biso   1.000  O
  O21      1.0000 0.57550  0.10180  0.91720  Biso   1.000  O
  O22      1.0000 0.60590  0.02180  0.83630  Biso   1.000  O
  O23      1.0000 0.73990  0.03370  0.99130  Biso   1.000  O
  O24      1.0000 0.77270  0.94880  0.91620  Biso   1.000  O
  O25      1.0000 0.65780  0.26460  0.26590  Biso   1.000  O
  O26      1.0000 0.65710  0.13330  0.32790  Biso   1.000  O
  O27      1.0000 0.44090  0.05370  0.02350  Biso   1.000  O
  O28      1.0000 0.38980  0.13340  0.17280  Biso   1.000  O
  O29      1.0000 0.37200  0.21720  0.09600  Biso   1.000  O
  O30      1.0000 0.42450  0.39820  0.41720  Biso   1.000  O
  O31      1.0000 0.39410  0.47820  0.33630  Biso   1.000  O
  O32      1.0000 0.26010  0.46630  0.49130  Biso   1.000  O
  O33      1.0000 0.22730  0.55120  0.41620  Biso   1.000  O
  O34      1.0000 0.34220  0.23540  0.76590  Biso   1.000  O
  O35      1.0000 0.34290  0.36670  0.82790  Biso   1.000  O
  O36      1.0000 0.55910  0.44630  0.52350  Biso   1.000  O
  Zn9      1.0000 0.86632  0.93928  0.39273  Biso   1.000  Zn
  Zn10     1.0000 0.90652  0.04892  0.50970  Biso   1.000  Zn
  Zn11     1.0000 0.13368  0.56072  0.89273  Biso   1.000  Zn
  Zn12     1.0000 0.09348  0.45108  0.00970  Biso   1.000  Zn
  Zn13     1.0000 0.13368  0.06072  0.60727  Biso   1.000  Zn
  Zn14     1.0000 0.09348  0.95108  0.49030  Biso   1.000  Zn
  Zn15     1.0000 0.86632  0.43928  0.10727  Biso   1.000  Zn
  Zn16     1.0000 0.90652  0.54892  0.99030  Biso   1.000  Zn
  H53      1.0000 0.91030  0.31200  0.28520  Biso   1.000  H
  H54      1.0000 0.91890  0.22400  0.36530  Biso   1.000  H
  H55      1.0000 0.89760  0.07480  0.22550  Biso   1.000  H
  H56      1.0000 0.88520  0.16140  0.14500  Biso   1.000  H
  H57      1.0000 0.54150  0.93930  0.40390  Biso   1.000  H
  H58      1.0000 0.61850  0.05100  0.56560  Biso   1.000  H
  H59      1.0000 0.89940  0.21330  0.47960  Biso   1.000  H
  H60      1.0000 0.88170  0.32180  0.53700  Biso   1.000  H
  H61      1.0000 0.86020  0.31900  0.65140  Biso   1.000  H
  H62      1.0000 0.82760  0.00020  0.79550  Biso   1.000  H
  H63      1.0000 0.83210  0.90350  0.72700  Biso   1.000  H
  H64      1.0000 0.86430  0.91830  0.61450  Biso   1.000  H
  H65      1.0000 0.06600  0.09000  0.50500  Biso   1.000  H
  H66      1.0000 0.08970  0.18800  0.78520  Biso   1.000  H
  H67      1.0000 0.08110  0.27600  0.86530  Biso   1.000  H
  H68      1.0000 0.10240  0.42520  0.72550  Biso   1.000  H
  H69      1.0000 0.11480  0.33860  0.64500  Biso   1.000  H
  H70      1.0000 0.45850  0.56070  0.90390  Biso   1.000  H
  H71      1.0000 0.38150  0.44900  0.06560  Biso   1.000  H
  H72      1.0000 0.10060  0.28670  0.97960  Biso   1.000  H
  H73      1.0000 0.11830  0.17820  0.03700  Biso   1.000  H
  H74      1.0000 0.13980  0.18100  0.15140  Biso   1.000  H
  H75      1.0000 0.17240  0.49980  0.29550  Biso   1.000  H
  H76      1.0000 0.16790  0.59650  0.22700  Biso   1.000  H
  H77      1.0000 0.13570  0.58170  0.11450  Biso   1.000  H
  H78      1.0000 0.93400  0.41000  0.00500  Biso   1.000  H
  H79      1.0000 0.08970  0.68800  0.71480  Biso   1.000  H
  H80      1.0000 0.08110  0.77600  0.63470  Biso   1.000  H
  H81      1.0000 0.10240  0.92520  0.77450  Biso   1.000  H
  H82      1.0000 0.11480  0.83860  0.85500  Biso   1.000  H
  H83      1.0000 0.45850  0.06070  0.59610  Biso   1.000  H
  H84      1.0000 0.38150  0.94900  0.43440  Biso   1.000  H
  H85      1.0000 0.10060  0.78670  0.52040  Biso   1.000  H
  H86      1.0000 0.11830  0.67820  0.46300  Biso   1.000  H
  H87      1.0000 0.13980  0.68100  0.34860  Biso   1.000  H
  H88      1.0000 0.17240  0.99980  0.20450  Biso   1.000  H
  H89      1.0000 0.16790  0.09650  0.27300  Biso   1.000  H
  H90      1.0000 0.13570  0.08170  0.38550  Biso   1.000  H
  H91      1.0000 0.93400  0.91000  0.49500  Biso   1.000  H
  H92      1.0000 0.91030  0.81200  0.21480  Biso   1.000  H
  H93      1.0000 0.91890  0.72400  0.13470  Biso   1.000  H
  H94      1.0000 0.89760  0.57480  0.27450  Biso   1.000  H
  H95      1.0000 0.88520  0.66140  0.35500  Biso   1.000  H
  H96      1.0000 0.54150  0.43930  0.09610  Biso   1.000  H
  H97      1.0000 0.61850  0.55100  0.93440  Biso   1.000  H
  H98      1.0000 0.89940  0.71330  0.02040  Biso   1.000  H
  H99      1.0000 0.88170  0.82180  0.96300  Biso   1.000  H
  H100     1.0000 0.86020  0.81900  0.84860  Biso   1.000  H
  H101     1.0000 0.82760  0.50020  0.70450  Biso   1.000  H
  H102     1.0000 0.83210  0.40350  0.77300  Biso   1.000  H
  H103     1.0000 0.86430  0.41830  0.88550  Biso   1.000  H
  H104     1.0000 0.06600  0.59000  0.99500  Biso   1.000  H
  C97      1.0000 0.89550  0.24590  0.20690  Biso   1.000  C
  C98      1.0000 0.90650  0.26430  0.27270  Biso   1.000  C
  C99      1.0000 0.91190  0.21090  0.32070  Biso   1.000  C
  C100     1.0000 0.90730  0.14060  0.30560  Biso   1.000  C
  C101     1.0000 0.89870  0.12250  0.23790  Biso   1.000  C
  C102     1.0000 0.89210  0.17440  0.18960  Biso   1.000  C
  C103     1.0000 0.88540  0.30210  0.15270  Biso   1.000  C
  C104     1.0000 0.90940  0.08400  0.35840  Biso   1.000  C
  C105     1.0000 0.70410  0.99250  0.46150  Biso   1.000  C
  C106     1.0000 0.59730  0.99670  0.48040  Biso   1.000  C
  C107     1.0000 0.52480  0.96440  0.44240  Biso   1.000  C
  C108     1.0000 0.57040  0.03080  0.53870  Biso   1.000  C
  C109     1.0000 0.89010  0.21290  0.52570  Biso   1.000  C
  C110     1.0000 0.87960  0.27880  0.55990  Biso   1.000  C
  C111     1.0000 0.86650  0.27680  0.62740  Biso   1.000  C
  C112     1.0000 0.86240  0.21280  0.65980  Biso   1.000  C
  C113     1.0000 0.85100  0.21220  0.73230  Biso   1.000  C
  C114     1.0000 0.84840  0.13960  0.76610  Biso   1.000  C
  C115     1.0000 0.85140  0.07370  0.72290  Biso   1.000  C
  C116     1.0000 0.83860  0.00580  0.74980  Biso   1.000  C
  C117     1.0000 0.84210  0.94890  0.70970  Biso   1.000  C
  C118     1.0000 0.86110  0.95830  0.64190  Biso   1.000  C
  C119     1.0000 0.86680  0.08080  0.65600  Biso   1.000  C
  C120     1.0000 0.87360  0.15150  0.62290  Biso   1.000  C
  C121     1.0000 0.10450  0.25410  0.70690  Biso   1.000  C
  C122     1.0000 0.09350  0.23570  0.77270  Biso   1.000  C
  C123     1.0000 0.08810  0.28910  0.82070  Biso   1.000  C
  C124     1.0000 0.09270  0.35940  0.80560  Biso   1.000  C
  C125     1.0000 0.10130  0.37750  0.73790  Biso   1.000  C
  C126     1.0000 0.10790  0.32560  0.68960  Biso   1.000  C
  C127     1.0000 0.11460  0.19790  0.65270  Biso   1.000  C
  C128     1.0000 0.09060  0.41600  0.85840  Biso   1.000  C
  C129     1.0000 0.29590  0.50750  0.96150  Biso   1.000  C
  C130     1.0000 0.40270  0.50330  0.98040  Biso   1.000  C
  C131     1.0000 0.47520  0.53560  0.94240  Biso   1.000  C
  C132     1.0000 0.42960  0.46920  0.03870  Biso   1.000  C
  C133     1.0000 0.10990  0.28710  0.02570  Biso   1.000  C
  C134     1.0000 0.12040  0.22120  0.05990  Biso   1.000  C
  C135     1.0000 0.13350  0.22320  0.12740  Biso   1.000  C
  C136     1.0000 0.13760  0.28720  0.15980  Biso   1.000  C
  C137     1.0000 0.14900  0.28780  0.23230  Biso   1.000  C
  C138     1.0000 0.15160  0.36040  0.26610  Biso   1.000  C
  C139     1.0000 0.14860  0.42630  0.22290  Biso   1.000  C
  C140     1.0000 0.16140  0.49420  0.24980  Biso   1.000  C
  C141     1.0000 0.15790  0.55110  0.20970  Biso   1.000  C
  C142     1.0000 0.13890  0.54170  0.14190  Biso   1.000  C
  C143     1.0000 0.13320  0.41920  0.15600  Biso   1.000  C
  C144     1.0000 0.12640  0.34850  0.12290  Biso   1.000  C
  C145     1.0000 0.10450  0.75410  0.79310  Biso   1.000  C
  C146     1.0000 0.09350  0.73570  0.72730  Biso   1.000  C
  C147     1.0000 0.08810  0.78910  0.67930  Biso   1.000  C
  C148     1.0000 0.09270  0.85940  0.69440  Biso   1.000  C
  C149     1.0000 0.10130  0.87750  0.76210  Biso   1.000  C
  C150     1.0000 0.10790  0.82560  0.81040  Biso   1.000  C
  C151     1.0000 0.11460  0.69790  0.84730  Biso   1.000  C
  C152     1.0000 0.09060  0.91600  0.64160  Biso   1.000  C
  C153     1.0000 0.29590  0.00750  0.53850  Biso   1.000  C
  C154     1.0000 0.40270  0.00330  0.51960  Biso   1.000  C
  C155     1.0000 0.47520  0.03560  0.55760  Biso   1.000  C
  C156     1.0000 0.42960  0.96920  0.46130  Biso   1.000  C
  C157     1.0000 0.10990  0.78710  0.47430  Biso   1.000  C
  C158     1.0000 0.12040  0.72120  0.44010  Biso   1.000  C
  C159     1.0000 0.13350  0.72320  0.37260  Biso   1.000  C
  C160     1.0000 0.13760  0.78720  0.34020  Biso   1.000  C
  C161     1.0000 0.14900  0.78780  0.26770  Biso   1.000  C
  C162     1.0000 0.15160  0.86040  0.23390  Biso   1.000  C
  C163     1.0000 0.14860  0.92630  0.27710  Biso   1.000  C
  C164     1.0000 0.16140  0.99420  0.25020  Biso   1.000  C
  C165     1.0000 0.15790  0.05110  0.29030  Biso   1.000  C
  C166     1.0000 0.13890  0.04170  0.35810  Biso   1.000  C
  C167     1.0000 0.13320  0.91920  0.34400  Biso   1.000  C
  C168     1.0000 0.12640  0.84850  0.37710  Biso   1.000  C
  C169     1.0000 0.89550  0.74590  0.29310  Biso   1.000  C
  C170     1.0000 0.90650  0.76430  0.22730  Biso   1.000  C
  C171     1.0000 0.91190  0.71090  0.17930  Biso   1.000  C
  C172     1.0000 0.90730  0.64060  0.19440  Biso   1.000  C
  C173     1.0000 0.89870  0.62250  0.26210  Biso   1.000  C
  C174     1.0000 0.89210  0.67440  0.31040  Biso   1.000  C
  C175     1.0000 0.88540  0.80210  0.34730  Biso   1.000  C
  C176     1.0000 0.90940  0.58400  0.14160  Biso   1.000  C
  C177     1.0000 0.70410  0.49250  0.03850  Biso   1.000  C
  C178     1.0000 0.59730  0.49670  0.01960  Biso   1.000  C
  C179     1.0000 0.52480  0.46440  0.05760  Biso   1.000  C
  C180     1.0000 0.57040  0.53080  0.96130  Biso   1.000  C
  C181     1.0000 0.89010  0.71290  0.97430  Biso   1.000  C
  C182     1.0000 0.87960  0.77880  0.94010  Biso   1.000  C
  C183     1.0000 0.86650  0.77680  0.87260  Biso   1.000  C
  C184     1.0000 0.86240  0.71280  0.84020  Biso   1.000  C
  C185     1.0000 0.85100  0.71220  0.76770  Biso   1.000  C
  C186     1.0000 0.84840  0.63960  0.73390  Biso   1.000  C
  C187     1.0000 0.85140  0.57370  0.77710  Biso   1.000  C
  C188     1.0000 0.83860  0.50580  0.75020  Biso   1.000  C
  C189     1.0000 0.84210  0.44890  0.79030  Biso   1.000  C
  C190     1.0000 0.86110  0.45830  0.85810  Biso   1.000  C
  C191     1.0000 0.86680  0.58080  0.84400  Biso   1.000  C
  C192     1.0000 0.87360  0.65150  0.87710  Biso   1.000  C
  N9       1.0000 0.88690  0.15120  0.55710  Biso   1.000  N
  N10      1.0000 0.87510  0.02320  0.61410  Biso   1.000  N
  N11      1.0000 0.11310  0.34880  0.05710  Biso   1.000  N
  N12      1.0000 0.12490  0.47680  0.11410  Biso   1.000  N
  N13      1.0000 0.11310  0.84880  0.44290  Biso   1.000  N
  N14      1.0000 0.12490  0.97680  0.38590  Biso   1.000  N
  N15      1.0000 0.88690  0.65120  0.94290  Biso   1.000  N
  N16      1.0000 0.87510  0.52320  0.88590  Biso   1.000  N
  O37      1.0000 0.88980  0.36660  0.17280  Biso   1.000  O
  O38      1.0000 0.87200  0.28280  0.09600  Biso   1.000  O
  O39      1.0000 0.92450  0.10180  0.41720  Biso   1.000  O
  O40      1.0000 0.89410  0.02180  0.33630  Biso   1.000  O
  O41      1.0000 0.76010  0.03370  0.49130  Biso   1.000  O
  O42      1.0000 0.72730  0.94880  0.41620  Biso   1.000  O
  O43      1.0000 0.84220  0.26460  0.76590  Biso   1.000  O
  O44      1.0000 0.84290  0.13330  0.82790  Biso   1.000  O
  O45      1.0000 0.05910  0.05370  0.52350  Biso   1.000  O
  O46      1.0000 0.11020  0.13340  0.67280  Biso   1.000  O
  O47      1.0000 0.12800  0.21720  0.59600  Biso   1.000  O
  O48      1.0000 0.07550  0.39820  0.91720  Biso   1.000  O
  O49      1.0000 0.10590  0.47820  0.83630  Biso   1.000  O
  O50      1.0000 0.23990  0.46630  0.99130  Biso   1.000  O
  O51      1.0000 0.27270  0.55120  0.91620  Biso   1.000  O
  O52      1.0000 0.15780  0.23540  0.26590  Biso   1.000  O
  O53      1.0000 0.15710  0.36670  0.32790  Biso   1.000  O
  O54      1.0000 0.94090  0.44630  0.02350  Biso   1.000  O
  O55      1.0000 0.11020  0.63340  0.82720  Biso   1.000  O
  O56      1.0000 0.12800  0.71720  0.90400  Biso   1.000  O
  O57      1.0000 0.07550  0.89820  0.58280  Biso   1.000  O
  O58      1.0000 0.10590  0.97820  0.66370  Biso   1.000  O
  O59      1.0000 0.23990  0.96630  0.50870  Biso   1.000  O
  O60      1.0000 0.27270  0.05120  0.58380  Biso   1.000  O
  O61      1.0000 0.15780  0.73540  0.23410  Biso   1.000  O
  O62      1.0000 0.15710  0.86670  0.17210  Biso   1.000  O
  O63      1.0000 0.94090  0.94630  0.47650  Biso   1.000  O
  O64      1.0000 0.88980  0.86660  0.32720  Biso   1.000  O
  O65      1.0000 0.87200  0.78280  0.40400  Biso   1.000  O
  O66      1.0000 0.92450  0.60180  0.08280  Biso   1.000  O
  O67      1.0000 0.89410  0.52180  0.16370  Biso   1.000  O
  O68      1.0000 0.76010  0.53370  0.00870  Biso   1.000  O
  O69      1.0000 0.72730  0.44880  0.08380  Biso   1.000  O
  O70      1.0000 0.84220  0.76460  0.73410  Biso   1.000  O
  O71      1.0000 0.84290  0.63330  0.67210  Biso   1.000  O
  O72      1.0000 0.05910  0.55370  0.97650  Biso   1.000  O
