data_image0
_cell_length_a       6.3029
_cell_length_b       16.413
_cell_length_c       17.139
_cell_angle_alpha    90
_cell_angle_beta     98.63
_cell_angle_gamma    90

_symmetry_space_group_name_H-M    P 1
_symmetry_int_tables_number       1

loop_
  _symmetry_equiv_pos_as_xyz
  'x, y, z'

loop_
  _atom_site_label
  _atom_site_occupancy
  _atom_site_fract_x
  _atom_site_fract_y
  _atom_site_fract_z
  _atom_site_thermal_displace_type
  _atom_site_B_iso_or_equiv
  _atom_site_type_symbol
  Co1      1.0000 0.75940  0.52269  0.32269  Biso   1.000  Co
  Co2      1.0000 0.92573  0.58952  0.50794  Biso   1.000  Co
  Co3      1.0000 0.74060  0.02269  0.17731  Biso   1.000  Co
  Co4      1.0000 0.57427  0.08952  0.99206  Biso   1.000  Co
  Co5      1.0000 0.24060  0.47731  0.67731  Biso   1.000  Co
  Co6      1.0000 0.07427  0.41048  0.49206  Biso   1.000  Co
  Co7      1.0000 0.25940  0.97731  0.82269  Biso   1.000  Co
  Co8      1.0000 0.42573  0.91048  0.00794  Biso   1.000  Co
  H1       1.0000 0.12710  0.66240  0.63120  Biso   1.000  H
  H2       1.0000 0.69770  0.46450  0.46240  Biso   1.000  H
  H3       1.0000 0.06130  0.88090  0.58310  Biso   1.000  H
  H4       1.0000 0.18190  0.89920  0.65340  Biso   1.000  H
  H5       1.0000 0.66350  0.81130  0.38180  Biso   1.000  H
  H6       1.0000 0.71840  0.48250  0.58320  Biso   1.000  H
  H7       1.0000 0.61060  0.57530  0.61830  Biso   1.000  H
  H8       1.0000 0.92220  0.78780  0.28220  Biso   1.000  H
  H9       1.0000 0.31810  0.69840  0.53680  Biso   1.000  H
  H10      1.0000 0.11540  0.76160  0.50480  Biso   1.000  H
  H11      1.0000 0.38980  0.78880  0.65840  Biso   1.000  H
  H12      1.0000 0.39060  0.84430  0.56860  Biso   1.000  H
  H13      1.0000 0.08480  0.78900  0.71840  Biso   1.000  H
  H14      1.0000 0.87410  0.85210  0.69040  Biso   1.000  H
  H15      1.0000 0.79360  0.71610  0.64450  Biso   1.000  H
  H16      1.0000 0.79070  0.76290  0.56560  Biso   1.000  H
  H17      1.0000 0.37290  0.16240  0.86880  Biso   1.000  H
  H18      1.0000 0.80230  0.96450  0.03760  Biso   1.000  H
  H19      1.0000 0.43870  0.38090  0.91690  Biso   1.000  H
  H20      1.0000 0.31810  0.39920  0.84660  Biso   1.000  H
  H21      1.0000 0.83650  0.31130  0.11820  Biso   1.000  H
  H22      1.0000 0.78160  0.98250  0.91680  Biso   1.000  H
  H23      1.0000 0.88940  0.07530  0.88170  Biso   1.000  H
  H24      1.0000 0.57780  0.28780  0.21780  Biso   1.000  H
  H25      1.0000 0.18190  0.19840  0.96320  Biso   1.000  H
  H26      1.0000 0.38460  0.26160  0.99520  Biso   1.000  H
  H27      1.0000 0.11020  0.28880  0.84160  Biso   1.000  H
  H28      1.0000 0.10940  0.34430  0.93140  Biso   1.000  H
  H29      1.0000 0.41520  0.28900  0.78160  Biso   1.000  H
  H30      1.0000 0.62590  0.35210  0.80960  Biso   1.000  H
  H31      1.0000 0.70640  0.21610  0.85550  Biso   1.000  H
  H32      1.0000 0.70930  0.26290  0.93440  Biso   1.000  H
  H33      1.0000 0.87290  0.33760  0.36880  Biso   1.000  H
  H34      1.0000 0.30230  0.53550  0.53760  Biso   1.000  H
  H35      1.0000 0.93870  0.11910  0.41690  Biso   1.000  H
  H36      1.0000 0.81810  0.10080  0.34660  Biso   1.000  H
  H37      1.0000 0.33650  0.18870  0.61820  Biso   1.000  H
  H38      1.0000 0.28160  0.51750  0.41680  Biso   1.000  H
  H39      1.0000 0.38940  0.42470  0.38170  Biso   1.000  H
  H40      1.0000 0.07780  0.21220  0.71780  Biso   1.000  H
  H41      1.0000 0.68190  0.30160  0.46320  Biso   1.000  H
  H42      1.0000 0.88460  0.23840  0.49520  Biso   1.000  H
  H43      1.0000 0.61020  0.21120  0.34160  Biso   1.000  H
  H44      1.0000 0.60940  0.15570  0.43140  Biso   1.000  H
  H45      1.0000 0.91520  0.21100  0.28160  Biso   1.000  H
  H46      1.0000 0.12590  0.14790  0.30960  Biso   1.000  H
  H47      1.0000 0.20640  0.28390  0.35550  Biso   1.000  H
  H48      1.0000 0.20930  0.23710  0.43440  Biso   1.000  H
  H49      1.0000 0.62710  0.83760  0.13120  Biso   1.000  H
  H50      1.0000 0.19770  0.03550  0.96240  Biso   1.000  H
  H51      1.0000 0.56130  0.61910  0.08310  Biso   1.000  H
  H52      1.0000 0.68190  0.60080  0.15340  Biso   1.000  H
  H53      1.0000 0.16350  0.68870  0.88180  Biso   1.000  H
  H54      1.0000 0.21840  0.01750  0.08320  Biso   1.000  H
  H55      1.0000 0.11060  0.92470  0.11830  Biso   1.000  H
  H56      1.0000 0.42220  0.71220  0.78220  Biso   1.000  H
  H57      1.0000 0.81810  0.80160  0.03680  Biso   1.000  H
  H58      1.0000 0.61540  0.73840  0.00480  Biso   1.000  H
  H59      1.0000 0.88980  0.71120  0.15840  Biso   1.000  H
  H60      1.0000 0.89060  0.65570  0.06860  Biso   1.000  H
  H61      1.0000 0.58480  0.71100  0.21840  Biso   1.000  H
  H62      1.0000 0.37410  0.64790  0.19040  Biso   1.000  H
  H63      1.0000 0.29360  0.78390  0.14450  Biso   1.000  H
  H64      1.0000 0.29070  0.73710  0.06560  Biso   1.000  H
  C1       1.0000 0.55900  0.66210  0.39593  Biso   1.000  C
  C2       1.0000 0.07950  0.64950  0.35640  Biso   1.000  C
  C3       1.0000 0.52290  0.95040  0.30580  Biso   1.000  C
  C4       1.0000 0.41940  0.73490  0.36977  Biso   1.000  C
  C5       1.0000 0.51670  0.81020  0.36248  Biso   1.000  C
  C6       1.0000 0.40340  0.87560  0.32565  Biso   1.000  C
  C7       1.0000 0.18530  0.86610  0.29838  Biso   1.000  C
  C8       1.0000 0.08500  0.79200  0.30736  Biso   1.000  C
  C9       1.0000 0.20020  0.72590  0.34208  Biso   1.000  C
  C10      1.0000 0.04910  0.93420  0.26020  Biso   1.000  C
  C11      1.0000 0.20980  0.73890  0.55260  Biso   1.000  C
  C12      1.0000 0.30630  0.80950  0.60320  Biso   1.000  C
  C13      1.0000 0.98570  0.81260  0.66850  Biso   1.000  C
  C14      1.0000 0.89500  0.74180  0.61800  Biso   1.000  C
  C15      1.0000 0.94100  0.16210  0.10407  Biso   1.000  C
  C16      1.0000 0.42050  0.14950  0.14360  Biso   1.000  C
  C17      1.0000 0.97710  0.45040  0.19420  Biso   1.000  C
  C18      1.0000 0.08060  0.23490  0.13023  Biso   1.000  C
  C19      1.0000 0.98330  0.31020  0.13752  Biso   1.000  C
  C20      1.0000 0.09660  0.37560  0.17435  Biso   1.000  C
  C21      1.0000 0.31470  0.36610  0.20162  Biso   1.000  C
  C22      1.0000 0.41500  0.29200  0.19264  Biso   1.000  C
  C23      1.0000 0.29980  0.22590  0.15792  Biso   1.000  C
  C24      1.0000 0.45090  0.43420  0.23980  Biso   1.000  C
  C25      1.0000 0.29020  0.23890  0.94740  Biso   1.000  C
  C26      1.0000 0.19370  0.30950  0.89680  Biso   1.000  C
  C27      1.0000 0.51430  0.31260  0.83150  Biso   1.000  C
  C28      1.0000 0.60500  0.24180  0.88200  Biso   1.000  C
  C29      1.0000 0.44100  0.33790  0.60407  Biso   1.000  C
  C30      1.0000 0.92050  0.35050  0.64360  Biso   1.000  C
  C31      1.0000 0.47710  0.04960  0.69420  Biso   1.000  C
  C32      1.0000 0.58060  0.26510  0.63023  Biso   1.000  C
  C33      1.0000 0.48330  0.18980  0.63752  Biso   1.000  C
  C34      1.0000 0.59660  0.12440  0.67435  Biso   1.000  C
  C35      1.0000 0.81470  0.13390  0.70162  Biso   1.000  C
  C36      1.0000 0.91500  0.20800  0.69264  Biso   1.000  C
  C37      1.0000 0.79980  0.27410  0.65792  Biso   1.000  C
  C38      1.0000 0.95090  0.06580  0.73980  Biso   1.000  C
  C39      1.0000 0.79020  0.26110  0.44740  Biso   1.000  C
  C40      1.0000 0.69370  0.19050  0.39680  Biso   1.000  C
  C41      1.0000 0.01430  0.18740  0.33150  Biso   1.000  C
  C42      1.0000 0.10500  0.25820  0.38200  Biso   1.000  C
  C43      1.0000 0.05900  0.83790  0.89593  Biso   1.000  C
  C44      1.0000 0.57950  0.85050  0.85640  Biso   1.000  C
  C45      1.0000 0.02290  0.54960  0.80580  Biso   1.000  C
  C46      1.0000 0.91940  0.76510  0.86977  Biso   1.000  C
  C47      1.0000 0.01670  0.68980  0.86248  Biso   1.000  C
  C48      1.0000 0.90340  0.62440  0.82565  Biso   1.000  C
  C49      1.0000 0.68530  0.63390  0.79838  Biso   1.000  C
  C50      1.0000 0.58500  0.70800  0.80736  Biso   1.000  C
  C51      1.0000 0.70020  0.77410  0.84208  Biso   1.000  C
  C52      1.0000 0.54910  0.56580  0.76020  Biso   1.000  C
  C53      1.0000 0.70980  0.76110  0.05260  Biso   1.000  C
  C54      1.0000 0.80630  0.69050  0.10320  Biso   1.000  C
  C55      1.0000 0.48570  0.68740  0.16850  Biso   1.000  C
  C56      1.0000 0.39500  0.75820  0.11800  Biso   1.000  C
  N1       1.0000 0.05620  0.68936  0.58918  Biso   1.000  N
  N2       1.0000 0.12920  0.86130  0.62520  Biso   1.000  N
  N3       1.0000 0.44380  0.18936  0.91082  Biso   1.000  N
  N4       1.0000 0.37080  0.36130  0.87480  Biso   1.000  N
  N5       1.0000 0.94380  0.31064  0.41082  Biso   1.000  N
  N6       1.0000 0.87080  0.13870  0.37480  Biso   1.000  N
  N7       1.0000 0.55620  0.81064  0.08918  Biso   1.000  N
  N8       1.0000 0.62920  0.63870  0.12520  Biso   1.000  N
  O1       1.0000 0.52660  0.59983  0.35424  Biso   1.000  O
  O2       1.0000 0.83510  0.48721  0.43807  Biso   1.000  O
  O3       1.0000 0.92680  0.62801  0.30493  Biso   1.000  O
  O4       1.0000 0.53370  0.95752  0.23401  Biso   1.000  O
  O5       1.0000 0.94200  0.91861  0.19221  Biso   1.000  O
  O6       1.0000 0.70350  0.67210  0.45469  Biso   1.000  O
  O7       1.0000 0.13530  0.61508  0.42283  Biso   1.000  O
  O8       1.0000 0.69320  0.54542  0.57682  Biso   1.000  O
  O9       1.0000 0.03500  0.99919  0.29400  Biso   1.000  O
  O10      1.0000 0.60720  0.99545  0.35950  Biso   1.000  O
  O11      1.0000 0.97340  0.09983  0.14576  Biso   1.000  O
  O12      1.0000 0.66490  0.98721  0.06193  Biso   1.000  O
  O13      1.0000 0.57320  0.12801  0.19507  Biso   1.000  O
  O14      1.0000 0.96630  0.45752  0.26599  Biso   1.000  O
  O15      1.0000 0.55800  0.41861  0.30779  Biso   1.000  O
  O16      1.0000 0.79650  0.17210  0.04531  Biso   1.000  O
  O17      1.0000 0.36470  0.11508  0.07717  Biso   1.000  O
  O18      1.0000 0.80680  0.04542  0.92318  Biso   1.000  O
  O19      1.0000 0.46500  0.49919  0.20600  Biso   1.000  O
  O20      1.0000 0.89280  0.49545  0.14050  Biso   1.000  O
  O21      1.0000 0.47340  0.40017  0.64576  Biso   1.000  O
  O22      1.0000 0.16490  0.51279  0.56193  Biso   1.000  O
  O23      1.0000 0.07320  0.37199  0.69507  Biso   1.000  O
  O24      1.0000 0.46630  0.04248  0.76599  Biso   1.000  O
  O25      1.0000 0.05800  0.08139  0.80779  Biso   1.000  O
  O26      1.0000 0.29650  0.32790  0.54531  Biso   1.000  O
  O27      1.0000 0.86470  0.38492  0.57717  Biso   1.000  O
  O28      1.0000 0.30680  0.45458  0.42318  Biso   1.000  O
  O29      1.0000 0.96500  0.00081  0.70600  Biso   1.000  O
  O30      1.0000 0.39280  0.00455  0.64050  Biso   1.000  O
  O31      1.0000 0.02660  0.90017  0.85424  Biso   1.000  O
  O32      1.0000 0.33510  0.01279  0.93807  Biso   1.000  O
  O33      1.0000 0.42680  0.87199  0.80493  Biso   1.000  O
  O34      1.0000 0.03370  0.54248  0.73401  Biso   1.000  O
  O35      1.0000 0.44200  0.58139  0.69221  Biso   1.000  O
  O36      1.0000 0.20350  0.82790  0.95469  Biso   1.000  O
  O37      1.0000 0.63530  0.88492  0.92283  Biso   1.000  O
  O38      1.0000 0.19320  0.95458  0.07682  Biso   1.000  O
  O39      1.0000 0.53500  0.50081  0.79400  Biso   1.000  O
  O40      1.0000 0.10720  0.50455  0.85950  Biso   1.000  O
