data_image0
_cell_length_a       12.816
_cell_length_b       18.3929
_cell_length_c       24.816
_cell_angle_alpha    90
_cell_angle_beta     90
_cell_angle_gamma    110.389

_symmetry_space_group_name_H-M    P 1
_symmetry_int_tables_number       1

loop_
  _symmetry_equiv_pos_as_xyz
  'x, y, z'

loop_
  _atom_site_label
  _atom_site_occupancy
  _atom_site_fract_x
  _atom_site_fract_y
  _atom_site_fract_z
  _atom_site_thermal_displace_type
  _atom_site_B_iso_or_equiv
  _atom_site_type_symbol
  Gd1      1.0000 0.23105  0.77008  0.78572  Biso   1.000  Gd
  Gd2      1.0000 0.76895  0.22992  0.28572  Biso   1.000  Gd
  Gd3      1.0000 0.53903  0.77008  0.71428  Biso   1.000  Gd
  Gd4      1.0000 0.46097  0.22992  0.21428  Biso   1.000  Gd
  H1       1.0000 0.07370  0.89020  0.76500  Biso   1.000  H
  H2       1.0000 0.04270  0.99780  0.80010  Biso   1.000  H
  H3       1.0000 0.14340  0.06160  0.87430  Biso   1.000  H
  H4       1.0000 0.27500  0.01780  0.91350  Biso   1.000  H
  H5       1.0000 0.30600  0.91020  0.87830  Biso   1.000  H
  H6       1.0000 0.06970  0.54800  0.90350  Biso   1.000  H
  H7       1.0000 0.06460  0.79460  0.93500  Biso   1.000  H
  H8       1.0000 0.91630  0.78180  0.07890  Biso   1.000  H
  H9       1.0000 0.90340  0.65440  0.08810  Biso   1.000  H
  H10      1.0000 0.98820  0.42140  0.90840  Biso   1.000  H
  H11      1.0000 0.09940  0.43160  0.93970  Biso   1.000  H
  H12      1.0000 0.99500  0.29800  0.93030  Biso   1.000  H
  H13      1.0000 0.00520  0.32020  0.99160  Biso   1.000  H
  H14      1.0000 0.89460  0.31000  0.96030  Biso   1.000  H
  H15      1.0000 0.67980  0.36960  0.09230  Biso   1.000  H
  H16      1.0000 0.92150  0.43900  0.24010  Biso   1.000  H
  H17      1.0000 0.18050  0.61960  0.18630  Biso   1.000  H
  H18      1.0000 0.09430  0.61720  0.10610  Biso   1.000  H
  H19      1.0000 0.72440  0.34440  0.00040  Biso   1.000  H
  H20      1.0000 0.61800  0.36800  0.99470  Biso   1.000  H
  H21      1.0000 0.67240  0.33920  0.90980  Biso   1.000  H
  H22      1.0000 0.68370  0.42680  0.91190  Biso   1.000  H
  H23      1.0000 0.78970  0.40340  0.91760  Biso   1.000  H
  H24      1.0000 0.40710  0.84040  0.90880  Biso   1.000  H
  H25      1.0000 0.71230  0.98080  0.80320  Biso   1.000  H
  H26      1.0000 0.90660  0.14180  0.90350  Biso   1.000  H
  H27      1.0000 0.78600  0.09340  0.97320  Biso   1.000  H
  H28      1.0000 0.27950  0.83740  0.97790  Biso   1.000  H
  H29      1.0000 0.34810  0.78340  0.99060  Biso   1.000  H
  H30      1.0000 0.20910  0.76340  0.05170  Biso   1.000  H
  H31      1.0000 0.32470  0.79760  0.08060  Biso   1.000  H
  H32      1.0000 0.25590  0.85120  0.06780  Biso   1.000  H
  H33      1.0000 0.97440  0.66060  0.74370  Biso   1.000  H
  H34      1.0000 0.86600  0.77440  0.63960  Biso   1.000  H
  H35      1.0000 0.94010  0.81740  0.68820  Biso   1.000  H
  H36      1.0000 0.03610  0.86000  0.60710  Biso   1.000  H
  H37      1.0000 0.10080  0.81820  0.64170  Biso   1.000  H
  H38      1.0000 0.02690  0.77480  0.59320  Biso   1.000  H
  H39      1.0000 0.83800  0.59260  0.68350  Biso   1.000  H
  H40      1.0000 0.76890  0.64200  0.66180  Biso   1.000  H
  H41      1.0000 0.81160  0.57400  0.59100  Biso   1.000  H
  H42      1.0000 0.86960  0.66320  0.58120  Biso   1.000  H
  H43      1.0000 0.93910  0.61420  0.60280  Biso   1.000  H
  H44      1.0000 0.92630  0.10980  0.26500  Biso   1.000  H
  H45      1.0000 0.95730  0.00220  0.30010  Biso   1.000  H
  H46      1.0000 0.85660  0.93840  0.37430  Biso   1.000  H
  H47      1.0000 0.72500  0.98220  0.41350  Biso   1.000  H
  H48      1.0000 0.69400  0.08980  0.37830  Biso   1.000  H
  H49      1.0000 0.93030  0.45200  0.40350  Biso   1.000  H
  H50      1.0000 0.93540  0.20540  0.43500  Biso   1.000  H
  H51      1.0000 0.08370  0.21820  0.57890  Biso   1.000  H
  H52      1.0000 0.09660  0.34560  0.58810  Biso   1.000  H
  H53      1.0000 0.01180  0.57860  0.40840  Biso   1.000  H
  H54      1.0000 0.90060  0.56840  0.43970  Biso   1.000  H
  H55      1.0000 0.00500  0.70200  0.43030  Biso   1.000  H
  H56      1.0000 0.99480  0.67980  0.49160  Biso   1.000  H
  H57      1.0000 0.10540  0.69000  0.46030  Biso   1.000  H
  H58      1.0000 0.32020  0.63040  0.59230  Biso   1.000  H
  H59      1.0000 0.07850  0.56100  0.74010  Biso   1.000  H
  H60      1.0000 0.81950  0.38040  0.68630  Biso   1.000  H
  H61      1.0000 0.90570  0.38280  0.60610  Biso   1.000  H
  H62      1.0000 0.27560  0.65560  0.50040  Biso   1.000  H
  H63      1.0000 0.38200  0.63200  0.49470  Biso   1.000  H
  H64      1.0000 0.32760  0.66080  0.40980  Biso   1.000  H
  H65      1.0000 0.31630  0.57320  0.41190  Biso   1.000  H
  H66      1.0000 0.21030  0.59660  0.41760  Biso   1.000  H
  H67      1.0000 0.59290  0.15960  0.40880  Biso   1.000  H
  H68      1.0000 0.28770  0.01920  0.30320  Biso   1.000  H
  H69      1.0000 0.09340  0.85820  0.40350  Biso   1.000  H
  H70      1.0000 0.21400  0.90660  0.47320  Biso   1.000  H
  H71      1.0000 0.72050  0.16260  0.47790  Biso   1.000  H
  H72      1.0000 0.65190  0.21660  0.49060  Biso   1.000  H
  H73      1.0000 0.79090  0.23660  0.55170  Biso   1.000  H
  H74      1.0000 0.67530  0.20240  0.58060  Biso   1.000  H
  H75      1.0000 0.74410  0.14880  0.56780  Biso   1.000  H
  H76      1.0000 0.02560  0.33940  0.24370  Biso   1.000  H
  H77      1.0000 0.13400  0.22560  0.13960  Biso   1.000  H
  H78      1.0000 0.05990  0.18260  0.18820  Biso   1.000  H
  H79      1.0000 0.96390  0.14000  0.10710  Biso   1.000  H
  H80      1.0000 0.89920  0.18180  0.14170  Biso   1.000  H
  H81      1.0000 0.97310  0.22520  0.09320  Biso   1.000  H
  H82      1.0000 0.16200  0.40740  0.18350  Biso   1.000  H
  H83      1.0000 0.23110  0.35800  0.16180  Biso   1.000  H
  H84      1.0000 0.18840  0.42600  0.09100  Biso   1.000  H
  H85      1.0000 0.13040  0.33680  0.08120  Biso   1.000  H
  H86      1.0000 0.06090  0.38580  0.10280  Biso   1.000  H
  H87      1.0000 0.81650  0.89020  0.73500  Biso   1.000  H
  H88      1.0000 0.95510  0.99780  0.69990  Biso   1.000  H
  H89      1.0000 0.91820  0.06160  0.62570  Biso   1.000  H
  H90      1.0000 0.74280  0.01780  0.58650  Biso   1.000  H
  H91      1.0000 0.60420  0.91020  0.62170  Biso   1.000  H
  H92      1.0000 0.47830  0.54800  0.59650  Biso   1.000  H
  H93      1.0000 0.73000  0.79460  0.56500  Biso   1.000  H
  H94      1.0000 0.86550  0.78180  0.42110  Biso   1.000  H
  H95      1.0000 0.75100  0.65440  0.41190  Biso   1.000  H
  H96      1.0000 0.43320  0.42140  0.59160  Biso   1.000  H
  H97      1.0000 0.33220  0.43160  0.56030  Biso   1.000  H
  H98      1.0000 0.30300  0.29800  0.56970  Biso   1.000  H
  H99      1.0000 0.31500  0.32020  0.50840  Biso   1.000  H
  H100     1.0000 0.41540  0.31000  0.53970  Biso   1.000  H
  H101     1.0000 0.68980  0.36960  0.40770  Biso   1.000  H
  H102     1.0000 0.51750  0.43900  0.25990  Biso   1.000  H
  H103     1.0000 0.43910  0.61960  0.31370  Biso   1.000  H
  H104     1.0000 0.52290  0.61720  0.39390  Biso   1.000  H
  H105     1.0000 0.62000  0.34440  0.49960  Biso   1.000  H
  H106     1.0000 0.75000  0.36800  0.50530  Biso   1.000  H
  H107     1.0000 0.66680  0.33920  0.59020  Biso   1.000  H
  H108     1.0000 0.74310  0.42680  0.58810  Biso   1.000  H
  H109     1.0000 0.61370  0.40340  0.58240  Biso   1.000  H
  H110     1.0000 0.43330  0.84040  0.59120  Biso   1.000  H
  H111     1.0000 0.26850  0.98080  0.69680  Biso   1.000  H
  H112     1.0000 0.23520  0.14180  0.59650  Biso   1.000  H
  H113     1.0000 0.30740  0.09340  0.52680  Biso   1.000  H
  H114     1.0000 0.55790  0.83740  0.52210  Biso   1.000  H
  H115     1.0000 0.43530  0.78340  0.50940  Biso   1.000  H
  H116     1.0000 0.55430  0.76340  0.44830  Biso   1.000  H
  H117     1.0000 0.47290  0.79760  0.41940  Biso   1.000  H
  H118     1.0000 0.59530  0.85120  0.43220  Biso   1.000  H
  H119     1.0000 0.68620  0.66060  0.75630  Biso   1.000  H
  H120     1.0000 0.90840  0.77440  0.86040  Biso   1.000  H
  H121     1.0000 0.87730  0.81740  0.81180  Biso   1.000  H
  H122     1.0000 0.82390  0.86000  0.89290  Biso   1.000  H
  H123     1.0000 0.71740  0.81820  0.85830  Biso   1.000  H
  H124     1.0000 0.74790  0.77480  0.90680  Biso   1.000  H
  H125     1.0000 0.75460  0.59260  0.81650  Biso   1.000  H
  H126     1.0000 0.87310  0.64200  0.83820  Biso   1.000  H
  H127     1.0000 0.76240  0.57400  0.90900  Biso   1.000  H
  H128     1.0000 0.79360  0.66320  0.91880  Biso   1.000  H
  H129     1.0000 0.67510  0.61420  0.89720  Biso   1.000  H
  H130     1.0000 0.18350  0.10980  0.23500  Biso   1.000  H
  H131     1.0000 0.04490  0.00220  0.19990  Biso   1.000  H
  H132     1.0000 0.08180  0.93840  0.12570  Biso   1.000  H
  H133     1.0000 0.25720  0.98220  0.08650  Biso   1.000  H
  H134     1.0000 0.39580  0.08980  0.12170  Biso   1.000  H
  H135     1.0000 0.52170  0.45200  0.09650  Biso   1.000  H
  H136     1.0000 0.27000  0.20540  0.06500  Biso   1.000  H
  H137     1.0000 0.13450  0.21820  0.92110  Biso   1.000  H
  H138     1.0000 0.24900  0.34560  0.91190  Biso   1.000  H
  H139     1.0000 0.56680  0.57860  0.09160  Biso   1.000  H
  H140     1.0000 0.66780  0.56840  0.06030  Biso   1.000  H
  H141     1.0000 0.69700  0.70200  0.06970  Biso   1.000  H
  H142     1.0000 0.68500  0.67980  0.00840  Biso   1.000  H
  H143     1.0000 0.58460  0.69000  0.03970  Biso   1.000  H
  H144     1.0000 0.31020  0.63040  0.90770  Biso   1.000  H
  H145     1.0000 0.48250  0.56100  0.75990  Biso   1.000  H
  H146     1.0000 0.56090  0.38040  0.81370  Biso   1.000  H
  H147     1.0000 0.47710  0.38280  0.89390  Biso   1.000  H
  H148     1.0000 0.38000  0.65560  0.99960  Biso   1.000  H
  H149     1.0000 0.25000  0.63200  0.00530  Biso   1.000  H
  H150     1.0000 0.33320  0.66080  0.09020  Biso   1.000  H
  H151     1.0000 0.25690  0.57320  0.08810  Biso   1.000  H
  H152     1.0000 0.38630  0.59660  0.08240  Biso   1.000  H
  H153     1.0000 0.56670  0.15960  0.09120  Biso   1.000  H
  H154     1.0000 0.73150  0.01920  0.19680  Biso   1.000  H
  H155     1.0000 0.76480  0.85820  0.09650  Biso   1.000  H
  H156     1.0000 0.69260  0.90660  0.02680  Biso   1.000  H
  H157     1.0000 0.44210  0.16260  0.02210  Biso   1.000  H
  H158     1.0000 0.56470  0.21660  0.00940  Biso   1.000  H
  H159     1.0000 0.44570  0.23660  0.94830  Biso   1.000  H
  H160     1.0000 0.52710  0.20240  0.91940  Biso   1.000  H
  H161     1.0000 0.40470  0.14880  0.93220  Biso   1.000  H
  H162     1.0000 0.31380  0.33940  0.25630  Biso   1.000  H
  H163     1.0000 0.09160  0.22560  0.36040  Biso   1.000  H
  H164     1.0000 0.12270  0.18260  0.31180  Biso   1.000  H
  H165     1.0000 0.17610  0.14000  0.39290  Biso   1.000  H
  H166     1.0000 0.28260  0.18180  0.35830  Biso   1.000  H
  H167     1.0000 0.25210  0.22520  0.40680  Biso   1.000  H
  H168     1.0000 0.24540  0.40740  0.31650  Biso   1.000  H
  H169     1.0000 0.12690  0.35800  0.33820  Biso   1.000  H
  H170     1.0000 0.23760  0.42600  0.40900  Biso   1.000  H
  H171     1.0000 0.20640  0.33680  0.41880  Biso   1.000  H
  H172     1.0000 0.32490  0.38580  0.39720  Biso   1.000  H
  C1       1.0000 0.11410  0.91580  0.79470  Biso   1.000  C
  C2       1.0000 0.09550  0.98020  0.81580  Biso   1.000  C
  C3       1.0000 0.15570  0.01840  0.86030  Biso   1.000  C
  C4       1.0000 0.23460  0.99220  0.88370  Biso   1.000  C
  C5       1.0000 0.25320  0.92780  0.86260  Biso   1.000  C
  C6       1.0000 0.96393  0.56506  0.02030  Biso   1.000  C
  C7       1.0000 0.00086  0.53072  0.97860  Biso   1.000  C
  C8       1.0000 0.04805  0.57270  0.93180  Biso   1.000  C
  C9       1.0000 0.06215  0.65050  0.92790  Biso   1.000  C
  C10      1.0000 0.02575  0.68790  0.96940  Biso   1.000  C
  C11      1.0000 0.03251  0.76582  0.96530  Biso   1.000  C
  C12      1.0000 0.99193  0.79946  0.00590  Biso   1.000  C
  C13      1.0000 0.94329  0.75798  0.05190  Biso   1.000  C
  C14      1.0000 0.93527  0.68174  0.05720  Biso   1.000  C
  C15      1.0000 0.97525  0.64430  0.01610  Biso   1.000  C
  C16      1.0000 0.11790  0.69320  0.87780  Biso   1.000  C
  C17      1.0000 0.01880  0.41320  0.94260  Biso   1.000  C
  C18      1.0000 0.97430  0.32740  0.95760  Biso   1.000  C
  C19      1.0000 0.90654  0.51588  0.06720  Biso   1.000  C
  C20      1.0000 0.80295  0.45950  0.05840  Biso   1.000  C
  C21      1.0000 0.74952  0.40644  0.09910  Biso   1.000  C
  C22      1.0000 0.79721  0.40762  0.14790  Biso   1.000  C
  C23      1.0000 0.90200  0.46580  0.16030  Biso   1.000  C
  C24      1.0000 0.95541  0.47302  0.21240  Biso   1.000  C
  C25      1.0000 0.05560  0.53000  0.22050  Biso   1.000  C
  C26      1.0000 0.11040  0.58280  0.18000  Biso   1.000  C
  C27      1.0000 0.06000  0.57960  0.13170  Biso   1.000  C
  C28      1.0000 0.95556  0.52052  0.11840  Biso   1.000  C
  C29      1.0000 0.73818  0.34376  0.18750  Biso   1.000  C
  C30      1.0000 0.69640  0.38300  0.98580  Biso   1.000  C
  C31      1.0000 0.71200  0.38860  0.92590  Biso   1.000  C
  C32      1.0000 0.59170  0.97980  0.97330  Biso   1.000  C
  C33      1.0000 0.49650  0.91780  0.96490  Biso   1.000  C
  C34      1.0000 0.47250  0.88240  0.91400  Biso   1.000  C
  C35      1.0000 0.54541  0.90942  0.87170  Biso   1.000  C
  C36      1.0000 0.64670  0.97120  0.87940  Biso   1.000  C
  C37      1.0000 0.72500  0.00180  0.83770  Biso   1.000  C
  C38      1.0000 0.81820  0.06180  0.84880  Biso   1.000  C
  C39      1.0000 0.84230  0.09900  0.89850  Biso   1.000  C
  C40      1.0000 0.76920  0.07080  0.93930  Biso   1.000  C
  C41      1.0000 0.66660  0.00720  0.93180  Biso   1.000  C
  C42      1.0000 0.50910  0.86820  0.81890  Biso   1.000  C
  C43      1.0000 0.32950  0.82700  0.00370  Biso   1.000  C
  C44      1.0000 0.27530  0.80820  0.05520  Biso   1.000  C
  C45      1.0000 0.98600  0.70780  0.72680  Biso   1.000  C
  C46      1.0000 0.93330  0.78000  0.65960  Biso   1.000  C
  C47      1.0000 0.03370  0.81120  0.62190  Biso   1.000  C
  C48      1.0000 0.84140  0.63640  0.66090  Biso   1.000  C
  C49      1.0000 0.86780  0.62040  0.60380  Biso   1.000  C
  C50      1.0000 0.88590  0.08420  0.29470  Biso   1.000  C
  C51      1.0000 0.90450  0.01980  0.31580  Biso   1.000  C
  C52      1.0000 0.84430  0.98160  0.36030  Biso   1.000  C
  C53      1.0000 0.76540  0.00780  0.38370  Biso   1.000  C
  C54      1.0000 0.74680  0.07220  0.36260  Biso   1.000  C
  C55      1.0000 0.03607  0.43494  0.52030  Biso   1.000  C
  C56      1.0000 0.99914  0.46928  0.47860  Biso   1.000  C
  C57      1.0000 0.95195  0.42730  0.43180  Biso   1.000  C
  C58      1.0000 0.93785  0.34950  0.42790  Biso   1.000  C
  C59      1.0000 0.97425  0.31210  0.46940  Biso   1.000  C
  C60      1.0000 0.96749  0.23418  0.46530  Biso   1.000  C
  C61      1.0000 0.00807  0.20054  0.50590  Biso   1.000  C
  C62      1.0000 0.05671  0.24202  0.55190  Biso   1.000  C
  C63      1.0000 0.06473  0.31826  0.55720  Biso   1.000  C
  C64      1.0000 0.02475  0.35570  0.51610  Biso   1.000  C
  C65      1.0000 0.88210  0.30680  0.37780  Biso   1.000  C
  C66      1.0000 0.98120  0.58680  0.44260  Biso   1.000  C
  C67      1.0000 0.02570  0.67260  0.45760  Biso   1.000  C
  C68      1.0000 0.09346  0.48412  0.56720  Biso   1.000  C
  C69      1.0000 0.19705  0.54050  0.55840  Biso   1.000  C
  C70      1.0000 0.25048  0.59356  0.59910  Biso   1.000  C
  C71      1.0000 0.20279  0.59238  0.64790  Biso   1.000  C
  C72      1.0000 0.09800  0.53420  0.66030  Biso   1.000  C
  C73      1.0000 0.04459  0.52698  0.71240  Biso   1.000  C
  C74      1.0000 0.94440  0.47000  0.72050  Biso   1.000  C
  C75      1.0000 0.88960  0.41720  0.68000  Biso   1.000  C
  C76      1.0000 0.94000  0.42040  0.63170  Biso   1.000  C
  C77      1.0000 0.04444  0.47948  0.61840  Biso   1.000  C
  C78      1.0000 0.26182  0.65624  0.68750  Biso   1.000  C
  C79      1.0000 0.30360  0.61700  0.48580  Biso   1.000  C
  C80      1.0000 0.28800  0.61140  0.42590  Biso   1.000  C
  C81      1.0000 0.40830  0.02020  0.47330  Biso   1.000  C
  C82      1.0000 0.50350  0.08220  0.46490  Biso   1.000  C
  C83      1.0000 0.52750  0.11760  0.41400  Biso   1.000  C
  C84      1.0000 0.45459  0.09058  0.37170  Biso   1.000  C
  C85      1.0000 0.35330  0.02880  0.37940  Biso   1.000  C
  C86      1.0000 0.27500  0.99820  0.33770  Biso   1.000  C
  C87      1.0000 0.18180  0.93820  0.34880  Biso   1.000  C
  C88      1.0000 0.15770  0.90100  0.39850  Biso   1.000  C
  C89      1.0000 0.23080  0.92920  0.43930  Biso   1.000  C
  C90      1.0000 0.33340  0.99280  0.43180  Biso   1.000  C
  C91      1.0000 0.49090  0.13180  0.31890  Biso   1.000  C
  C92      1.0000 0.67050  0.17300  0.50370  Biso   1.000  C
  C93      1.0000 0.72470  0.19180  0.55520  Biso   1.000  C
  C94      1.0000 0.01400  0.29220  0.22680  Biso   1.000  C
  C95      1.0000 0.06670  0.22000  0.15960  Biso   1.000  C
  C96      1.0000 0.96630  0.18880  0.12190  Biso   1.000  C
  C97      1.0000 0.15860  0.36360  0.16090  Biso   1.000  C
  C98      1.0000 0.13220  0.37960  0.10380  Biso   1.000  C
  C99      1.0000 0.80170  0.91580  0.70530  Biso   1.000  C
  C100     1.0000 0.88470  0.98020  0.68420  Biso   1.000  C
  C101     1.0000 0.86270  0.01840  0.63970  Biso   1.000  C
  C102     1.0000 0.75760  0.99220  0.61630  Biso   1.000  C
  C103     1.0000 0.67460  0.92780  0.63740  Biso   1.000  C
  C104     1.0000 0.60113  0.56506  0.47970  Biso   1.000  C
  C105     1.0000 0.52986  0.53072  0.52140  Biso   1.000  C
  C106     1.0000 0.52465  0.57270  0.56820  Biso   1.000  C
  C107     1.0000 0.58835  0.65050  0.57210  Biso   1.000  C
  C108     1.0000 0.66215  0.68790  0.53060  Biso   1.000  C
  C109     1.0000 0.73331  0.76582  0.53470  Biso   1.000  C
  C110     1.0000 0.80753  0.79946  0.49410  Biso   1.000  C
  C111     1.0000 0.81469  0.75798  0.44810  Biso   1.000  C
  C112     1.0000 0.74647  0.68174  0.44280  Biso   1.000  C
  C113     1.0000 0.66905  0.64430  0.48390  Biso   1.000  C
  C114     1.0000 0.57530  0.69320  0.62220  Biso   1.000  C
  C115     1.0000 0.39440  0.41320  0.55740  Biso   1.000  C
  C116     1.0000 0.35310  0.32740  0.54240  Biso   1.000  C
  C117     1.0000 0.60934  0.51588  0.43280  Biso   1.000  C
  C118     1.0000 0.65655  0.45950  0.44160  Biso   1.000  C
  C119     1.0000 0.65692  0.40644  0.40090  Biso   1.000  C
  C120     1.0000 0.61041  0.40762  0.35210  Biso   1.000  C
  C121     1.0000 0.56380  0.46580  0.33970  Biso   1.000  C
  C122     1.0000 0.51761  0.47302  0.28760  Biso   1.000  C
  C123     1.0000 0.47440  0.53000  0.27950  Biso   1.000  C
  C124     1.0000 0.47240  0.58280  0.32000  Biso   1.000  C
  C125     1.0000 0.51960  0.57960  0.36830  Biso   1.000  C
  C126     1.0000 0.56496  0.52052  0.38160  Biso   1.000  C
  C127     1.0000 0.60558  0.34376  0.31250  Biso   1.000  C
  C128     1.0000 0.68660  0.38300  0.51420  Biso   1.000  C
  C129     1.0000 0.67660  0.38860  0.57410  Biso   1.000  C
  C130     1.0000 0.38810  0.97980  0.52670  Biso   1.000  C
  C131     1.0000 0.42130  0.91780  0.53510  Biso   1.000  C
  C132     1.0000 0.40990  0.88240  0.58600  Biso   1.000  C
  C133     1.0000 0.36401  0.90942  0.62830  Biso   1.000  C
  C134     1.0000 0.32450  0.97120  0.62060  Biso   1.000  C
  C135     1.0000 0.27680  0.00180  0.66230  Biso   1.000  C
  C136     1.0000 0.24360  0.06180  0.65120  Biso   1.000  C
  C137     1.0000 0.25670  0.09900  0.60150  Biso   1.000  C
  C138     1.0000 0.30160  0.07080  0.56070  Biso   1.000  C
  C139     1.0000 0.34060  0.00720  0.56820  Biso   1.000  C
  C140     1.0000 0.35910  0.86820  0.68110  Biso   1.000  C
  C141     1.0000 0.49750  0.82700  0.49630  Biso   1.000  C
  C142     1.0000 0.53290  0.80820  0.44480  Biso   1.000  C
  C143     1.0000 0.72180  0.70780  0.77320  Biso   1.000  C
  C144     1.0000 0.84670  0.78000  0.84040  Biso   1.000  C
  C145     1.0000 0.77750  0.81120  0.87810  Biso   1.000  C
  C146     1.0000 0.79500  0.63640  0.83910  Biso   1.000  C
  C147     1.0000 0.75260  0.62040  0.89620  Biso   1.000  C
  C148     1.0000 0.19830  0.08420  0.20530  Biso   1.000  C
  C149     1.0000 0.11530  0.01980  0.18420  Biso   1.000  C
  C150     1.0000 0.13730  0.98160  0.13970  Biso   1.000  C
  C151     1.0000 0.24240  0.00780  0.11630  Biso   1.000  C
  C152     1.0000 0.32540  0.07220  0.13740  Biso   1.000  C
  C153     1.0000 0.39887  0.43494  0.97970  Biso   1.000  C
  C154     1.0000 0.47014  0.46928  0.02140  Biso   1.000  C
  C155     1.0000 0.47535  0.42730  0.06820  Biso   1.000  C
  C156     1.0000 0.41165  0.34950  0.07210  Biso   1.000  C
  C157     1.0000 0.33785  0.31210  0.03060  Biso   1.000  C
  C158     1.0000 0.26669  0.23418  0.03470  Biso   1.000  C
  C159     1.0000 0.19247  0.20054  0.99410  Biso   1.000  C
  C160     1.0000 0.18531  0.24202  0.94810  Biso   1.000  C
  C161     1.0000 0.25353  0.31826  0.94280  Biso   1.000  C
  C162     1.0000 0.33095  0.35570  0.98390  Biso   1.000  C
  C163     1.0000 0.42470  0.30680  0.12220  Biso   1.000  C
  C164     1.0000 0.60560  0.58680  0.05740  Biso   1.000  C
  C165     1.0000 0.64690  0.67260  0.04240  Biso   1.000  C
  C166     1.0000 0.39066  0.48412  0.93280  Biso   1.000  C
  C167     1.0000 0.34345  0.54050  0.94160  Biso   1.000  C
  C168     1.0000 0.34308  0.59356  0.90090  Biso   1.000  C
  C169     1.0000 0.38959  0.59238  0.85210  Biso   1.000  C
  C170     1.0000 0.43620  0.53420  0.83970  Biso   1.000  C
  C171     1.0000 0.48239  0.52698  0.78760  Biso   1.000  C
  C172     1.0000 0.52560  0.47000  0.77950  Biso   1.000  C
  C173     1.0000 0.52760  0.41720  0.82000  Biso   1.000  C
  C174     1.0000 0.48040  0.42040  0.86830  Biso   1.000  C
  C175     1.0000 0.43504  0.47948  0.88160  Biso   1.000  C
  C176     1.0000 0.39442  0.65624  0.81250  Biso   1.000  C
  C177     1.0000 0.31340  0.61700  0.01420  Biso   1.000  C
  C178     1.0000 0.32340  0.61140  0.07410  Biso   1.000  C
  C179     1.0000 0.61190  0.02020  0.02670  Biso   1.000  C
  C180     1.0000 0.57870  0.08220  0.03510  Biso   1.000  C
  C181     1.0000 0.59010  0.11760  0.08600  Biso   1.000  C
  C182     1.0000 0.63599  0.09058  0.12830  Biso   1.000  C
  C183     1.0000 0.67550  0.02880  0.12060  Biso   1.000  C
  C184     1.0000 0.72320  0.99820  0.16230  Biso   1.000  C
  C185     1.0000 0.75640  0.93820  0.15120  Biso   1.000  C
  C186     1.0000 0.74330  0.90100  0.10150  Biso   1.000  C
  C187     1.0000 0.69840  0.92920  0.06070  Biso   1.000  C
  C188     1.0000 0.65940  0.99280  0.06820  Biso   1.000  C
  C189     1.0000 0.64090  0.13180  0.18110  Biso   1.000  C
  C190     1.0000 0.50250  0.17300  0.99630  Biso   1.000  C
  C191     1.0000 0.46710  0.19180  0.94480  Biso   1.000  C
  C192     1.0000 0.27820  0.29220  0.27320  Biso   1.000  C
  C193     1.0000 0.15330  0.22000  0.34040  Biso   1.000  C
  C194     1.0000 0.22250  0.18880  0.37810  Biso   1.000  C
  C195     1.0000 0.20500  0.36360  0.33910  Biso   1.000  C
  C196     1.0000 0.24740  0.37960  0.39620  Biso   1.000  C
  N1       1.0000 0.19288  0.88956  0.81820  Biso   1.000  N
  N2       1.0000 0.92420  0.70660  0.68290  Biso   1.000  N
  N3       1.0000 0.80712  0.11044  0.31820  Biso   1.000  N
  N4       1.0000 0.07580  0.29340  0.18290  Biso   1.000  N
  N5       1.0000 0.69668  0.88956  0.68180  Biso   1.000  N
  N6       1.0000 0.78240  0.70660  0.81710  Biso   1.000  N
  N7       1.0000 0.30332  0.11044  0.18180  Biso   1.000  N
  N8       1.0000 0.21760  0.29340  0.31710  Biso   1.000  N
  Cl1      1.0000 0.99581  0.89542  0.00022  Biso   1.000  Cl
  Cl2      1.0000 0.11974  0.53644  0.28393  Biso   1.000  Cl
  Cl3      1.0000 0.91557  0.10154  0.79650  Biso   1.000  Cl
  Cl4      1.0000 0.00419  0.10458  0.50022  Biso   1.000  Cl
  Cl5      1.0000 0.88026  0.46356  0.78393  Biso   1.000  Cl
  Cl6      1.0000 0.08443  0.89846  0.29650  Biso   1.000  Cl
  Cl7      1.0000 0.89961  0.89542  0.49978  Biso   1.000  Cl
  Cl8      1.0000 0.41670  0.53644  0.21607  Biso   1.000  Cl
  Cl9      1.0000 0.18597  0.10154  0.70350  Biso   1.000  Cl
  Cl10     1.0000 0.10039  0.10458  0.99978  Biso   1.000  Cl
  Cl11     1.0000 0.58330  0.46356  0.71607  Biso   1.000  Cl
  Cl12     1.0000 0.81403  0.89846  0.20350  Biso   1.000  Cl
  O1       1.0000 0.19503  0.75646  0.88242  Biso   1.000  O
  O2       1.0000 0.08369  0.66378  0.83261  Biso   1.000  O
  O3       1.0000 0.98533  0.45366  0.98490  Biso   1.000  O
  O4       1.0000 0.63453  0.32106  0.18750  Biso   1.000  O
  O5       1.0000 0.79817  0.31554  0.21490  Biso   1.000  O
  O6       1.0000 0.75727  0.45814  0.00803  Biso   1.000  O
  O7       1.0000 0.40656  0.84352  0.80990  Biso   1.000  O
  O8       1.0000 0.58062  0.85924  0.78820  Biso   1.000  O
  O9       1.0000 0.42588  0.89176  0.00820  Biso   1.000  O
  O10      1.0000 0.05505  0.76410  0.74655  Biso   1.000  O
  O11      1.0000 0.80497  0.24354  0.38242  Biso   1.000  O
  O12      1.0000 0.91631  0.33622  0.33261  Biso   1.000  O
  O13      1.0000 0.01467  0.54634  0.48490  Biso   1.000  O
  O14      1.0000 0.36547  0.67894  0.68750  Biso   1.000  O
  O15      1.0000 0.20183  0.68446  0.71490  Biso   1.000  O
  O16      1.0000 0.24273  0.54186  0.50803  Biso   1.000  O
  O17      1.0000 0.59344  0.15648  0.30990  Biso   1.000  O
  O18      1.0000 0.41938  0.14076  0.28820  Biso   1.000  O
  O19      1.0000 0.57412  0.10824  0.50820  Biso   1.000  O
  O20      1.0000 0.94495  0.23590  0.24655  Biso   1.000  O
  O21      1.0000 0.56143  0.75646  0.61758  Biso   1.000  O
  O22      1.0000 0.58009  0.66378  0.66739  Biso   1.000  O
  O23      1.0000 0.46833  0.45366  0.51510  Biso   1.000  O
  O24      1.0000 0.68653  0.32106  0.31250  Biso   1.000  O
  O25      1.0000 0.51737  0.31554  0.28510  Biso   1.000  O
  O26      1.0000 0.70087  0.45814  0.49197  Biso   1.000  O
  O27      1.0000 0.43696  0.84352  0.69010  Biso   1.000  O
  O28      1.0000 0.27862  0.85924  0.71180  Biso   1.000  O
  O29      1.0000 0.46588  0.89176  0.49180  Biso   1.000  O
  O30      1.0000 0.70905  0.76410  0.75345  Biso   1.000  O
  O31      1.0000 0.43857  0.24354  0.11758  Biso   1.000  O
  O32      1.0000 0.41991  0.33622  0.16739  Biso   1.000  O
  O33      1.0000 0.53167  0.54634  0.01510  Biso   1.000  O
  O34      1.0000 0.31347  0.67894  0.81250  Biso   1.000  O
  O35      1.0000 0.48263  0.68446  0.78510  Biso   1.000  O
  O36      1.0000 0.29913  0.54186  0.99197  Biso   1.000  O
  O37      1.0000 0.56304  0.15648  0.19010  Biso   1.000  O
  O38      1.0000 0.72138  0.14076  0.21180  Biso   1.000  O
  O39      1.0000 0.53412  0.10824  0.99180  Biso   1.000  O
  O40      1.0000 0.29095  0.23590  0.25345  Biso   1.000  O
