data_image0
_cell_length_a       12.776
_cell_length_b       18.3001
_cell_length_c       24.724
_cell_angle_alpha    90
_cell_angle_beta     90
_cell_angle_gamma    110.43

_symmetry_space_group_name_H-M    P 1
_symmetry_int_tables_number       1

loop_
  _symmetry_equiv_pos_as_xyz
  'x, y, z'

loop_
  _atom_site_label
  _atom_site_occupancy
  _atom_site_fract_x
  _atom_site_fract_y
  _atom_site_fract_z
  _atom_site_thermal_displace_type
  _atom_site_B_iso_or_equiv
  _atom_site_type_symbol
  Er1      1.0000 0.23021  0.76948  0.78565  Biso   1.000  Er
  Er2      1.0000 0.76979  0.23052  0.28565  Biso   1.000  Er
  Er3      1.0000 0.53927  0.76948  0.71435  Biso   1.000  Er
  Er4      1.0000 0.46073  0.23052  0.21435  Biso   1.000  Er
  H1       1.0000 0.07290  0.88860  0.76210  Biso   1.000  H
  H2       1.0000 0.03080  0.99140  0.79930  Biso   1.000  H
  H3       1.0000 0.12440  0.05420  0.87600  Biso   1.000  H
  H4       1.0000 0.26020  0.01420  0.91540  Biso   1.000  H
  H5       1.0000 0.30220  0.91120  0.87830  Biso   1.000  H
  H6       1.0000 0.07120  0.54620  0.90290  Biso   1.000  H
  H7       1.0000 0.06470  0.79660  0.93480  Biso   1.000  H
  H8       1.0000 0.91860  0.78220  0.07950  Biso   1.000  H
  H9       1.0000 0.90190  0.65300  0.08810  Biso   1.000  H
  H10      1.0000 0.98790  0.42020  0.90700  Biso   1.000  H
  H11      1.0000 0.09890  0.42980  0.93880  Biso   1.000  H
  H12      1.0000 0.99280  0.29580  0.92880  Biso   1.000  H
  H13      1.0000 0.00310  0.31780  0.99040  Biso   1.000  H
  H14      1.0000 0.89250  0.30840  0.95900  Biso   1.000  H
  H15      1.0000 0.67770  0.36660  0.09200  Biso   1.000  H
  H16      1.0000 0.91800  0.43980  0.24120  Biso   1.000  H
  H17      1.0000 0.17990  0.62000  0.18580  Biso   1.000  H
  H18      1.0000 0.09340  0.61660  0.10510  Biso   1.000  H
  H19      1.0000 0.72120  0.34040  0.00090  Biso   1.000  H
  H20      1.0000 0.61560  0.36540  0.99500  Biso   1.000  H
  H21      1.0000 0.66880  0.33460  0.90900  Biso   1.000  H
  H22      1.0000 0.68300  0.42320  0.91060  Biso   1.000  H
  H23      1.0000 0.78770  0.39780  0.91650  Biso   1.000  H
  H24      1.0000 0.40390  0.84000  0.90930  Biso   1.000  H
  H25      1.0000 0.70940  0.97760  0.80180  Biso   1.000  H
  H26      1.0000 0.91040  0.13880  0.90040  Biso   1.000  H
  H27      1.0000 0.78900  0.09260  0.97170  Biso   1.000  H
  H28      1.0000 0.27500  0.84820  0.98050  Biso   1.000  H
  H29      1.0000 0.33470  0.78720  0.98980  Biso   1.000  H
  H30      1.0000 0.20370  0.77360  0.05590  Biso   1.000  H
  H31      1.0000 0.32300  0.80160  0.08200  Biso   1.000  H
  H32      1.0000 0.26170  0.86120  0.07230  Biso   1.000  H
  H33      1.0000 0.97670  0.65820  0.74360  Biso   1.000  H
  H34      1.0000 0.86840  0.77400  0.63920  Biso   1.000  H
  H35      1.0000 0.94230  0.81760  0.68810  Biso   1.000  H
  H36      1.0000 0.04230  0.85720  0.60700  Biso   1.000  H
  H37      1.0000 0.10330  0.81400  0.64320  Biso   1.000  H
  H38      1.0000 0.02960  0.77060  0.59440  Biso   1.000  H
  H39      1.0000 0.83780  0.59120  0.68430  Biso   1.000  H
  H40      1.0000 0.77060  0.64160  0.66180  Biso   1.000  H
  H41      1.0000 0.80920  0.57040  0.59310  Biso   1.000  H
  H42      1.0000 0.86980  0.65960  0.58180  Biso   1.000  H
  H43      1.0000 0.93750  0.60940  0.60430  Biso   1.000  H
  H44      1.0000 0.92710  0.11140  0.26210  Biso   1.000  H
  H45      1.0000 0.96920  0.00860  0.29930  Biso   1.000  H
  H46      1.0000 0.87560  0.94580  0.37600  Biso   1.000  H
  H47      1.0000 0.73980  0.98580  0.41540  Biso   1.000  H
  H48      1.0000 0.69780  0.08880  0.37830  Biso   1.000  H
  H49      1.0000 0.92880  0.45380  0.40290  Biso   1.000  H
  H50      1.0000 0.93530  0.20340  0.43480  Biso   1.000  H
  H51      1.0000 0.08140  0.21780  0.57950  Biso   1.000  H
  H52      1.0000 0.09810  0.34700  0.58810  Biso   1.000  H
  H53      1.0000 0.01210  0.57980  0.40700  Biso   1.000  H
  H54      1.0000 0.90110  0.57020  0.43880  Biso   1.000  H
  H55      1.0000 0.00720  0.70420  0.42880  Biso   1.000  H
  H56      1.0000 0.99690  0.68220  0.49040  Biso   1.000  H
  H57      1.0000 0.10750  0.69160  0.45900  Biso   1.000  H
  H58      1.0000 0.32230  0.63340  0.59200  Biso   1.000  H
  H59      1.0000 0.08200  0.56020  0.74120  Biso   1.000  H
  H60      1.0000 0.82010  0.38000  0.68580  Biso   1.000  H
  H61      1.0000 0.90660  0.38340  0.60510  Biso   1.000  H
  H62      1.0000 0.27880  0.65960  0.50090  Biso   1.000  H
  H63      1.0000 0.38440  0.63460  0.49500  Biso   1.000  H
  H64      1.0000 0.33120  0.66540  0.40900  Biso   1.000  H
  H65      1.0000 0.31700  0.57680  0.41060  Biso   1.000  H
  H66      1.0000 0.21230  0.60220  0.41650  Biso   1.000  H
  H67      1.0000 0.59610  0.16000  0.40930  Biso   1.000  H
  H68      1.0000 0.29060  0.02240  0.30180  Biso   1.000  H
  H69      1.0000 0.08960  0.86120  0.40040  Biso   1.000  H
  H70      1.0000 0.21100  0.90740  0.47170  Biso   1.000  H
  H71      1.0000 0.72500  0.15180  0.48050  Biso   1.000  H
  H72      1.0000 0.66530  0.21280  0.48980  Biso   1.000  H
  H73      1.0000 0.79630  0.22640  0.55590  Biso   1.000  H
  H74      1.0000 0.67700  0.19840  0.58200  Biso   1.000  H
  H75      1.0000 0.73830  0.13880  0.57230  Biso   1.000  H
  H76      1.0000 0.02330  0.34180  0.24360  Biso   1.000  H
  H77      1.0000 0.13160  0.22600  0.13920  Biso   1.000  H
  H78      1.0000 0.05770  0.18240  0.18810  Biso   1.000  H
  H79      1.0000 0.95770  0.14280  0.10700  Biso   1.000  H
  H80      1.0000 0.89670  0.18600  0.14320  Biso   1.000  H
  H81      1.0000 0.97040  0.22940  0.09440  Biso   1.000  H
  H82      1.0000 0.16220  0.40880  0.18430  Biso   1.000  H
  H83      1.0000 0.22940  0.35840  0.16180  Biso   1.000  H
  H84      1.0000 0.19080  0.42960  0.09310  Biso   1.000  H
  H85      1.0000 0.13020  0.34040  0.08180  Biso   1.000  H
  H86      1.0000 0.06250  0.39060  0.10430  Biso   1.000  H
  H87      1.0000 0.81570  0.88860  0.73790  Biso   1.000  H
  H88      1.0000 0.96060  0.99140  0.70070  Biso   1.000  H
  H89      1.0000 0.92980  0.05420  0.62400  Biso   1.000  H
  H90      1.0000 0.75400  0.01420  0.58460  Biso   1.000  H
  H91      1.0000 0.60900  0.91120  0.62170  Biso   1.000  H
  H92      1.0000 0.47500  0.54620  0.59710  Biso   1.000  H
  H93      1.0000 0.73190  0.79660  0.56520  Biso   1.000  H
  H94      1.0000 0.86360  0.78220  0.42050  Biso   1.000  H
  H95      1.0000 0.75110  0.65300  0.41190  Biso   1.000  H
  H96      1.0000 0.43230  0.42020  0.59300  Biso   1.000  H
  H97      1.0000 0.33090  0.42980  0.56120  Biso   1.000  H
  H98      1.0000 0.30300  0.29580  0.57120  Biso   1.000  H
  H99      1.0000 0.31470  0.31780  0.50960  Biso   1.000  H
  H100     1.0000 0.41590  0.30840  0.54100  Biso   1.000  H
  H101     1.0000 0.68890  0.36660  0.40800  Biso   1.000  H
  H102     1.0000 0.52180  0.43980  0.25880  Biso   1.000  H
  H103     1.0000 0.44010  0.62000  0.31420  Biso   1.000  H
  H104     1.0000 0.52320  0.61660  0.39490  Biso   1.000  H
  H105     1.0000 0.61920  0.34040  0.49910  Biso   1.000  H
  H106     1.0000 0.74980  0.36540  0.50500  Biso   1.000  H
  H107     1.0000 0.66580  0.33460  0.59100  Biso   1.000  H
  H108     1.0000 0.74020  0.42320  0.58940  Biso   1.000  H
  H109     1.0000 0.61010  0.39780  0.58350  Biso   1.000  H
  H110     1.0000 0.43610  0.84000  0.59070  Biso   1.000  H
  H111     1.0000 0.26820  0.97760  0.69820  Biso   1.000  H
  H112     1.0000 0.22840  0.13880  0.59960  Biso   1.000  H
  H113     1.0000 0.30360  0.09260  0.52830  Biso   1.000  H
  H114     1.0000 0.57320  0.84820  0.51950  Biso   1.000  H
  H115     1.0000 0.45250  0.78720  0.51020  Biso   1.000  H
  H116     1.0000 0.56990  0.77360  0.44410  Biso   1.000  H
  H117     1.0000 0.47860  0.80160  0.41800  Biso   1.000  H
  H118     1.0000 0.59950  0.86120  0.42770  Biso   1.000  H
  H119     1.0000 0.68150  0.65820  0.75640  Biso   1.000  H
  H120     1.0000 0.90560  0.77400  0.86080  Biso   1.000  H
  H121     1.0000 0.87530  0.81760  0.81190  Biso   1.000  H
  H122     1.0000 0.81490  0.85720  0.89300  Biso   1.000  H
  H123     1.0000 0.71070  0.81400  0.85680  Biso   1.000  H
  H124     1.0000 0.74100  0.77060  0.90560  Biso   1.000  H
  H125     1.0000 0.75340  0.59120  0.81570  Biso   1.000  H
  H126     1.0000 0.87100  0.64160  0.83820  Biso   1.000  H
  H127     1.0000 0.76120  0.57040  0.90690  Biso   1.000  H
  H128     1.0000 0.78980  0.65960  0.91820  Biso   1.000  H
  H129     1.0000 0.67190  0.60940  0.89570  Biso   1.000  H
  H130     1.0000 0.18430  0.11140  0.23790  Biso   1.000  H
  H131     1.0000 0.03940  0.00860  0.20070  Biso   1.000  H
  H132     1.0000 0.07020  0.94580  0.12400  Biso   1.000  H
  H133     1.0000 0.24600  0.98580  0.08460  Biso   1.000  H
  H134     1.0000 0.39100  0.08880  0.12170  Biso   1.000  H
  H135     1.0000 0.52500  0.45380  0.09710  Biso   1.000  H
  H136     1.0000 0.26810  0.20340  0.06520  Biso   1.000  H
  H137     1.0000 0.13640  0.21780  0.92050  Biso   1.000  H
  H138     1.0000 0.24890  0.34700  0.91190  Biso   1.000  H
  H139     1.0000 0.56770  0.57980  0.09300  Biso   1.000  H
  H140     1.0000 0.66910  0.57020  0.06120  Biso   1.000  H
  H141     1.0000 0.69700  0.70420  0.07120  Biso   1.000  H
  H142     1.0000 0.68530  0.68220  0.00960  Biso   1.000  H
  H143     1.0000 0.58410  0.69160  0.04100  Biso   1.000  H
  H144     1.0000 0.31110  0.63340  0.90800  Biso   1.000  H
  H145     1.0000 0.47820  0.56020  0.75880  Biso   1.000  H
  H146     1.0000 0.55990  0.38000  0.81420  Biso   1.000  H
  H147     1.0000 0.47680  0.38340  0.89490  Biso   1.000  H
  H148     1.0000 0.38080  0.65960  0.99910  Biso   1.000  H
  H149     1.0000 0.25020  0.63460  0.00500  Biso   1.000  H
  H150     1.0000 0.33420  0.66540  0.09100  Biso   1.000  H
  H151     1.0000 0.25980  0.57680  0.08940  Biso   1.000  H
  H152     1.0000 0.38990  0.60220  0.08350  Biso   1.000  H
  H153     1.0000 0.56390  0.16000  0.09070  Biso   1.000  H
  H154     1.0000 0.73180  0.02240  0.19820  Biso   1.000  H
  H155     1.0000 0.77160  0.86120  0.09960  Biso   1.000  H
  H156     1.0000 0.69640  0.90740  0.02830  Biso   1.000  H
  H157     1.0000 0.42680  0.15180  0.01950  Biso   1.000  H
  H158     1.0000 0.54750  0.21280  0.01020  Biso   1.000  H
  H159     1.0000 0.43010  0.22640  0.94410  Biso   1.000  H
  H160     1.0000 0.52140  0.19840  0.91800  Biso   1.000  H
  H161     1.0000 0.40050  0.13880  0.92770  Biso   1.000  H
  H162     1.0000 0.31850  0.34180  0.25640  Biso   1.000  H
  H163     1.0000 0.09440  0.22600  0.36080  Biso   1.000  H
  H164     1.0000 0.12470  0.18240  0.31190  Biso   1.000  H
  H165     1.0000 0.18510  0.14280  0.39300  Biso   1.000  H
  H166     1.0000 0.28930  0.18600  0.35680  Biso   1.000  H
  H167     1.0000 0.25900  0.22940  0.40560  Biso   1.000  H
  H168     1.0000 0.24660  0.40880  0.31570  Biso   1.000  H
  H169     1.0000 0.12900  0.35840  0.33820  Biso   1.000  H
  H170     1.0000 0.23880  0.42960  0.40690  Biso   1.000  H
  H171     1.0000 0.21020  0.34040  0.41820  Biso   1.000  H
  H172     1.0000 0.32810  0.39060  0.39570  Biso   1.000  H
  C1       1.0000 0.11050  0.91380  0.79290  Biso   1.000  C
  C2       1.0000 0.08520  0.97540  0.81510  Biso   1.000  C
  C3       1.0000 0.14130  0.01300  0.86110  Biso   1.000  C
  C4       1.0000 0.22260  0.98900  0.88470  Biso   1.000  C
  C5       1.0000 0.24790  0.92740  0.86240  Biso   1.000  C
  C6       1.0000 0.96320  0.56440  0.01930  Biso   1.000  C
  C7       1.0000 0.00020  0.52940  0.97700  Biso   1.000  C
  C8       1.0000 0.04790  0.57100  0.93080  Biso   1.000  C
  C9       1.0000 0.06090  0.64980  0.92630  Biso   1.000  C
  C10      1.0000 0.03230  0.76700  0.96500  Biso   1.000  C
  C11      1.0000 0.99210  0.79960  0.00550  Biso   1.000  C
  C12      1.0000 0.94410  0.75800  0.05200  Biso   1.000  C
  C13      1.0000 0.93440  0.68080  0.05720  Biso   1.000  C
  C14      1.0000 0.97426  0.64352  0.01520  Biso   1.000  C
  C15      1.0000 0.02510  0.68760  0.96850  Biso   1.000  C
  C16      1.0000 0.11690  0.69300  0.87620  Biso   1.000  C
  C17      1.0000 0.01810  0.41160  0.94150  Biso   1.000  C
  C18      1.0000 0.97240  0.32540  0.95630  Biso   1.000  C
  C19      1.0000 0.90593  0.51426  0.06670  Biso   1.000  C
  C20      1.0000 0.80180  0.45760  0.05740  Biso   1.000  C
  C21      1.0000 0.74750  0.40400  0.09870  Biso   1.000  C
  C22      1.0000 0.79579  0.40638  0.14770  Biso   1.000  C
  C23      1.0000 0.95300  0.47300  0.21300  Biso   1.000  C
  C24      1.0000 0.05440  0.53060  0.22100  Biso   1.000  C
  C25      1.0000 0.10940  0.58300  0.17980  Biso   1.000  C
  C26      1.0000 0.05890  0.57920  0.13110  Biso   1.000  C
  C27      1.0000 0.95430  0.51980  0.11840  Biso   1.000  C
  C28      1.0000 0.90086  0.46432  0.16020  Biso   1.000  C
  C29      1.0000 0.73540  0.34180  0.18800  Biso   1.000  C
  C30      1.0000 0.69410  0.37940  0.98590  Biso   1.000  C
  C31      1.0000 0.70980  0.38420  0.92490  Biso   1.000  C
  C32      1.0000 0.59350  0.97960  0.97340  Biso   1.000  C
  C33      1.0000 0.49660  0.91820  0.96500  Biso   1.000  C
  C34      1.0000 0.47060  0.88160  0.91410  Biso   1.000  C
  C35      1.0000 0.54440  0.90760  0.87130  Biso   1.000  C
  C36      1.0000 0.72430  0.99920  0.83630  Biso   1.000  C
  C37      1.0000 0.81980  0.06000  0.84610  Biso   1.000  C
  C38      1.0000 0.84480  0.09640  0.89560  Biso   1.000  C
  C39      1.0000 0.77140  0.06920  0.93790  Biso   1.000  C
  C40      1.0000 0.66840  0.00540  0.93090  Biso   1.000  C
  C41      1.0000 0.64780  0.96860  0.87860  Biso   1.000  C
  C42      1.0000 0.50350  0.86600  0.81890  Biso   1.000  C
  C43      1.0000 0.32400  0.83320  0.00460  Biso   1.000  C
  C44      1.0000 0.27380  0.81600  0.05830  Biso   1.000  C
  C45      1.0000 0.98780  0.70580  0.72690  Biso   1.000  C
  C46      1.0000 0.93540  0.77960  0.65970  Biso   1.000  C
  C47      1.0000 0.03710  0.80800  0.62270  Biso   1.000  C
  C48      1.0000 0.84280  0.63520  0.66130  Biso   1.000  C
  C49      1.0000 0.86690  0.61700  0.60520  Biso   1.000  C
  C50      1.0000 0.88950  0.08620  0.29290  Biso   1.000  C
  C51      1.0000 0.91480  0.02460  0.31510  Biso   1.000  C
  C52      1.0000 0.85870  0.98700  0.36110  Biso   1.000  C
  C53      1.0000 0.77740  0.01100  0.38470  Biso   1.000  C
  C54      1.0000 0.75210  0.07260  0.36240  Biso   1.000  C
  C55      1.0000 0.03680  0.43560  0.51930  Biso   1.000  C
  C56      1.0000 0.99980  0.47060  0.47700  Biso   1.000  C
  C57      1.0000 0.95210  0.42900  0.43080  Biso   1.000  C
  C58      1.0000 0.93910  0.35020  0.42630  Biso   1.000  C
  C59      1.0000 0.96770  0.23300  0.46500  Biso   1.000  C
  C60      1.0000 0.00790  0.20040  0.50550  Biso   1.000  C
  C61      1.0000 0.05590  0.24200  0.55200  Biso   1.000  C
  C62      1.0000 0.06560  0.31920  0.55720  Biso   1.000  C
  C63      1.0000 0.02574  0.35648  0.51520  Biso   1.000  C
  C64      1.0000 0.97490  0.31240  0.46850  Biso   1.000  C
  C65      1.0000 0.88310  0.30700  0.37620  Biso   1.000  C
  C66      1.0000 0.98190  0.58840  0.44150  Biso   1.000  C
  C67      1.0000 0.02760  0.67460  0.45630  Biso   1.000  C
  C68      1.0000 0.09407  0.48574  0.56670  Biso   1.000  C
  C69      1.0000 0.19820  0.54240  0.55740  Biso   1.000  C
  C70      1.0000 0.25250  0.59600  0.59870  Biso   1.000  C
  C71      1.0000 0.20421  0.59362  0.64770  Biso   1.000  C
  C72      1.0000 0.04700  0.52700  0.71300  Biso   1.000  C
  C73      1.0000 0.94560  0.46940  0.72100  Biso   1.000  C
  C74      1.0000 0.89060  0.41700  0.67980  Biso   1.000  C
  C75      1.0000 0.94110  0.42080  0.63110  Biso   1.000  C
  C76      1.0000 0.04570  0.48020  0.61840  Biso   1.000  C
  C77      1.0000 0.09914  0.53568  0.66020  Biso   1.000  C
  C78      1.0000 0.26460  0.65820  0.68800  Biso   1.000  C
  C79      1.0000 0.30590  0.62060  0.48590  Biso   1.000  C
  C80      1.0000 0.29020  0.61580  0.42490  Biso   1.000  C
  C81      1.0000 0.40650  0.02040  0.47340  Biso   1.000  C
  C82      1.0000 0.50340  0.08180  0.46500  Biso   1.000  C
  C83      1.0000 0.52940  0.11840  0.41410  Biso   1.000  C
  C84      1.0000 0.45560  0.09240  0.37130  Biso   1.000  C
  C85      1.0000 0.27570  0.00080  0.33630  Biso   1.000  C
  C86      1.0000 0.18020  0.94000  0.34610  Biso   1.000  C
  C87      1.0000 0.15520  0.90360  0.39560  Biso   1.000  C
  C88      1.0000 0.22860  0.93080  0.43790  Biso   1.000  C
  C89      1.0000 0.33160  0.99460  0.43090  Biso   1.000  C
  C90      1.0000 0.35220  0.03140  0.37860  Biso   1.000  C
  C91      1.0000 0.49650  0.13400  0.31890  Biso   1.000  C
  C92      1.0000 0.67600  0.16680  0.50460  Biso   1.000  C
  C93      1.0000 0.72620  0.18400  0.55830  Biso   1.000  C
  C94      1.0000 0.01220  0.29420  0.22690  Biso   1.000  C
  C95      1.0000 0.06460  0.22040  0.15970  Biso   1.000  C
  C96      1.0000 0.96290  0.19200  0.12270  Biso   1.000  C
  C97      1.0000 0.15720  0.36480  0.16130  Biso   1.000  C
  C98      1.0000 0.13310  0.38300  0.10520  Biso   1.000  C
  C99      1.0000 0.80330  0.91380  0.70710  Biso   1.000  C
  C100     1.0000 0.89020  0.97540  0.68490  Biso   1.000  C
  C101     1.0000 0.87170  0.01300  0.63890  Biso   1.000  C
  C102     1.0000 0.76640  0.98900  0.61530  Biso   1.000  C
  C103     1.0000 0.67950  0.92740  0.63760  Biso   1.000  C
  C104     1.0000 0.60120  0.56440  0.48070  Biso   1.000  C
  C105     1.0000 0.52920  0.52940  0.52300  Biso   1.000  C
  C106     1.0000 0.52310  0.57100  0.56920  Biso   1.000  C
  C107     1.0000 0.58890  0.64980  0.57370  Biso   1.000  C
  C108     1.0000 0.73470  0.76700  0.53500  Biso   1.000  C
  C109     1.0000 0.80750  0.79960  0.49450  Biso   1.000  C
  C110     1.0000 0.81390  0.75800  0.44800  Biso   1.000  C
  C111     1.0000 0.74640  0.68080  0.44280  Biso   1.000  C
  C112     1.0000 0.66926  0.64352  0.48480  Biso   1.000  C
  C113     1.0000 0.66250  0.68760  0.53150  Biso   1.000  C
  C114     1.0000 0.57610  0.69300  0.62380  Biso   1.000  C
  C115     1.0000 0.39350  0.41160  0.55850  Biso   1.000  C
  C116     1.0000 0.35300  0.32540  0.54370  Biso   1.000  C
  C117     1.0000 0.60833  0.51426  0.43330  Biso   1.000  C
  C118     1.0000 0.65580  0.45760  0.44260  Biso   1.000  C
  C119     1.0000 0.65650  0.40400  0.40130  Biso   1.000  C
  C120     1.0000 0.61059  0.40638  0.35230  Biso   1.000  C
  C121     1.0000 0.52000  0.47300  0.28700  Biso   1.000  C
  C122     1.0000 0.47620  0.53060  0.27900  Biso   1.000  C
  C123     1.0000 0.47360  0.58300  0.32020  Biso   1.000  C
  C124     1.0000 0.52030  0.57920  0.36890  Biso   1.000  C
  C125     1.0000 0.56550  0.51980  0.38160  Biso   1.000  C
  C126     1.0000 0.56346  0.46432  0.33980  Biso   1.000  C
  C127     1.0000 0.60640  0.34180  0.31200  Biso   1.000  C
  C128     1.0000 0.68530  0.37940  0.51410  Biso   1.000  C
  C129     1.0000 0.67440  0.38420  0.57510  Biso   1.000  C
  C130     1.0000 0.38610  0.97960  0.52660  Biso   1.000  C
  C131     1.0000 0.42160  0.91820  0.53500  Biso   1.000  C
  C132     1.0000 0.41100  0.88160  0.58590  Biso   1.000  C
  C133     1.0000 0.36320  0.90760  0.62870  Biso   1.000  C
  C134     1.0000 0.27490  0.99920  0.66370  Biso   1.000  C
  C135     1.0000 0.24020  0.06000  0.65390  Biso   1.000  C
  C136     1.0000 0.25160  0.09640  0.60440  Biso   1.000  C
  C137     1.0000 0.29780  0.06920  0.56210  Biso   1.000  C
  C138     1.0000 0.33700  0.00540  0.56910  Biso   1.000  C
  C139     1.0000 0.32080  0.96860  0.62140  Biso   1.000  C
  C140     1.0000 0.36250  0.86600  0.68110  Biso   1.000  C
  C141     1.0000 0.50920  0.83320  0.49540  Biso   1.000  C
  C142     1.0000 0.54220  0.81600  0.44170  Biso   1.000  C
  C143     1.0000 0.71800  0.70580  0.77310  Biso   1.000  C
  C144     1.0000 0.84420  0.77960  0.84030  Biso   1.000  C
  C145     1.0000 0.77090  0.80800  0.87730  Biso   1.000  C
  C146     1.0000 0.79240  0.63520  0.83870  Biso   1.000  C
  C147     1.0000 0.75010  0.61700  0.89480  Biso   1.000  C
  C148     1.0000 0.19670  0.08620  0.20710  Biso   1.000  C
  C149     1.0000 0.10980  0.02460  0.18490  Biso   1.000  C
  C150     1.0000 0.12830  0.98700  0.13890  Biso   1.000  C
  C151     1.0000 0.23360  0.01100  0.11530  Biso   1.000  C
  C152     1.0000 0.32050  0.07260  0.13760  Biso   1.000  C
  C153     1.0000 0.39880  0.43560  0.98070  Biso   1.000  C
  C154     1.0000 0.47080  0.47060  0.02300  Biso   1.000  C
  C155     1.0000 0.47690  0.42900  0.06920  Biso   1.000  C
  C156     1.0000 0.41110  0.35020  0.07370  Biso   1.000  C
  C157     1.0000 0.26530  0.23300  0.03500  Biso   1.000  C
  C158     1.0000 0.19250  0.20040  0.99450  Biso   1.000  C
  C159     1.0000 0.18610  0.24200  0.94800  Biso   1.000  C
  C160     1.0000 0.25360  0.31920  0.94280  Biso   1.000  C
  C161     1.0000 0.33074  0.35648  0.98480  Biso   1.000  C
  C162     1.0000 0.33750  0.31240  0.03150  Biso   1.000  C
  C163     1.0000 0.42390  0.30700  0.12380  Biso   1.000  C
  C164     1.0000 0.60650  0.58840  0.05850  Biso   1.000  C
  C165     1.0000 0.64700  0.67460  0.04370  Biso   1.000  C
  C166     1.0000 0.39167  0.48574  0.93330  Biso   1.000  C
  C167     1.0000 0.34420  0.54240  0.94260  Biso   1.000  C
  C168     1.0000 0.34350  0.59600  0.90130  Biso   1.000  C
  C169     1.0000 0.38941  0.59362  0.85230  Biso   1.000  C
  C170     1.0000 0.48000  0.52700  0.78700  Biso   1.000  C
  C171     1.0000 0.52380  0.46940  0.77900  Biso   1.000  C
  C172     1.0000 0.52640  0.41700  0.82020  Biso   1.000  C
  C173     1.0000 0.47970  0.42080  0.86890  Biso   1.000  C
  C174     1.0000 0.43450  0.48020  0.88160  Biso   1.000  C
  C175     1.0000 0.43654  0.53568  0.83980  Biso   1.000  C
  C176     1.0000 0.39360  0.65820  0.81200  Biso   1.000  C
  C177     1.0000 0.31470  0.62060  0.01410  Biso   1.000  C
  C178     1.0000 0.32560  0.61580  0.07510  Biso   1.000  C
  C179     1.0000 0.61390  0.02040  0.02660  Biso   1.000  C
  C180     1.0000 0.57840  0.08180  0.03500  Biso   1.000  C
  C181     1.0000 0.58900  0.11840  0.08590  Biso   1.000  C
  C182     1.0000 0.63680  0.09240  0.12870  Biso   1.000  C
  C183     1.0000 0.72510  0.00080  0.16370  Biso   1.000  C
  C184     1.0000 0.75980  0.94000  0.15390  Biso   1.000  C
  C185     1.0000 0.74840  0.90360  0.10440  Biso   1.000  C
  C186     1.0000 0.70220  0.93080  0.06210  Biso   1.000  C
  C187     1.0000 0.66300  0.99460  0.06910  Biso   1.000  C
  C188     1.0000 0.67920  0.03140  0.12140  Biso   1.000  C
  C189     1.0000 0.63750  0.13400  0.18110  Biso   1.000  C
  C190     1.0000 0.49080  0.16680  0.99540  Biso   1.000  C
  C191     1.0000 0.45780  0.18400  0.94170  Biso   1.000  C
  C192     1.0000 0.28200  0.29420  0.27310  Biso   1.000  C
  C193     1.0000 0.15580  0.22040  0.34030  Biso   1.000  C
  C194     1.0000 0.22910  0.19200  0.37730  Biso   1.000  C
  C195     1.0000 0.20760  0.36480  0.33870  Biso   1.000  C
  C196     1.0000 0.24990  0.38300  0.39480  Biso   1.000  C
  N1       1.0000 0.19176  0.88972  0.81650  Biso   1.000  N
  N2       1.0000 0.92660  0.70540  0.68350  Biso   1.000  N
  N3       1.0000 0.80824  0.11028  0.31650  Biso   1.000  N
  N4       1.0000 0.07340  0.29460  0.18350  Biso   1.000  N
  N5       1.0000 0.69796  0.88972  0.68350  Biso   1.000  N
  N6       1.0000 0.77880  0.70540  0.81650  Biso   1.000  N
  N7       1.0000 0.30204  0.11028  0.18350  Biso   1.000  N
  N8       1.0000 0.22120  0.29460  0.31650  Biso   1.000  N
  Cl1      1.0000 0.99738  0.89636  0.00027  Biso   1.000  Cl
  Cl2      1.0000 0.11830  0.53820  0.28485  Biso   1.000  Cl
  Cl3      1.0000 0.91634  0.09828  0.79327  Biso   1.000  Cl
  Cl4      1.0000 0.00262  0.10364  0.50027  Biso   1.000  Cl
  Cl5      1.0000 0.88170  0.46180  0.78485  Biso   1.000  Cl
  Cl6      1.0000 0.08366  0.90172  0.29327  Biso   1.000  Cl
  Cl7      1.0000 0.89898  0.89636  0.49973  Biso   1.000  Cl
  Cl8      1.0000 0.41990  0.53820  0.21515  Biso   1.000  Cl
  Cl9      1.0000 0.18194  0.09828  0.70673  Biso   1.000  Cl
  Cl10     1.0000 0.10102  0.10364  0.99973  Biso   1.000  Cl
  Cl11     1.0000 0.58010  0.46180  0.71515  Biso   1.000  Cl
  Cl12     1.0000 0.81806  0.90172  0.20673  Biso   1.000  Cl
  O1       1.0000 0.19385  0.75690  0.88033  Biso   1.000  O
  O2       1.0000 0.08491  0.66282  0.83062  Biso   1.000  O
  O3       1.0000 0.98417  0.45174  0.98380  Biso   1.000  O
  O4       1.0000 0.63185  0.31930  0.18730  Biso   1.000  O
  O5       1.0000 0.79495  0.31450  0.21580  Biso   1.000  O
  O6       1.0000 0.75718  0.45536  0.00700  Biso   1.000  O
  O7       1.0000 0.40250  0.84400  0.81000  Biso   1.000  O
  O8       1.0000 0.57523  0.85546  0.78790  Biso   1.000  O
  O9       1.0000 0.42600  0.89360  0.00900  Biso   1.000  O
  O10      1.0000 0.05667  0.76274  0.74643  Biso   1.000  O
  O11      1.0000 0.80615  0.24310  0.38033  Biso   1.000  O
  O12      1.0000 0.91509  0.33718  0.33062  Biso   1.000  O
  O13      1.0000 0.01583  0.54826  0.48380  Biso   1.000  O
  O14      1.0000 0.36815  0.68070  0.68730  Biso   1.000  O
  O15      1.0000 0.20505  0.68550  0.71580  Biso   1.000  O
  O16      1.0000 0.24282  0.54464  0.50700  Biso   1.000  O
  O17      1.0000 0.59750  0.15600  0.31000  Biso   1.000  O
  O18      1.0000 0.42477  0.14454  0.28790  Biso   1.000  O
  O19      1.0000 0.57400  0.10640  0.50900  Biso   1.000  O
  O20      1.0000 0.94333  0.23726  0.24643  Biso   1.000  O
  O21      1.0000 0.56305  0.75690  0.61967  Biso   1.000  O
  O22      1.0000 0.57791  0.66282  0.66938  Biso   1.000  O
  O23      1.0000 0.46757  0.45174  0.51620  Biso   1.000  O
  O24      1.0000 0.68745  0.31930  0.31270  Biso   1.000  O
  O25      1.0000 0.51955  0.31450  0.28420  Biso   1.000  O
  O26      1.0000 0.69818  0.45536  0.49300  Biso   1.000  O
  O27      1.0000 0.44150  0.84400  0.69000  Biso   1.000  O
  O28      1.0000 0.28023  0.85546  0.71210  Biso   1.000  O
  O29      1.0000 0.46760  0.89360  0.49100  Biso   1.000  O
  O30      1.0000 0.70607  0.76274  0.75357  Biso   1.000  O
  O31      1.0000 0.43695  0.24310  0.11967  Biso   1.000  O
  O32      1.0000 0.42209  0.33718  0.16938  Biso   1.000  O
  O33      1.0000 0.53243  0.54826  0.01620  Biso   1.000  O
  O34      1.0000 0.31255  0.68070  0.81270  Biso   1.000  O
  O35      1.0000 0.48045  0.68550  0.78420  Biso   1.000  O
  O36      1.0000 0.30182  0.54464  0.99300  Biso   1.000  O
  O37      1.0000 0.55850  0.15600  0.19000  Biso   1.000  O
  O38      1.0000 0.71977  0.14454  0.21210  Biso   1.000  O
  O39      1.0000 0.53240  0.10640  0.99100  Biso   1.000  O
  O40      1.0000 0.29393  0.23726  0.25357  Biso   1.000  O
