data_image0
_cell_length_a       16.158
_cell_length_b       22.4561
_cell_length_c       26.4807
_cell_angle_alpha    74.6196
_cell_angle_beta     72.2364
_cell_angle_gamma    68.9141

_symmetry_space_group_name_H-M    P 1
_symmetry_int_tables_number       1

loop_
  _symmetry_equiv_pos_as_xyz
  'x, y, z'

loop_
  _atom_site_label
  _atom_site_occupancy
  _atom_site_fract_x
  _atom_site_fract_y
  _atom_site_fract_z
  _atom_site_thermal_displace_type
  _atom_site_B_iso_or_equiv
  _atom_site_type_symbol
  K1       1.0000 0.57480  0.08420  0.83460  Biso   1.000  K
  K2       1.0000 0.74740  0.52150  0.87950  Biso   1.000  K
  K3       1.0000 0.49360  0.41580  0.66540  Biso   1.000  K
  K4       1.0000 0.14840  0.97850  0.62050  Biso   1.000  K
  K5       1.0000 0.42520  0.91580  0.16540  Biso   1.000  K
  K6       1.0000 0.25260  0.47850  0.12050  Biso   1.000  K
  K7       1.0000 0.50640  0.58420  0.33460  Biso   1.000  K
  K8       1.0000 0.85160  0.02150  0.37950  Biso   1.000  K
  Cr1      1.0000 0.79391  0.96668  0.77890  Biso   1.000  Cr
  Cr2      1.0000 0.97900  0.00870  0.74770  Biso   1.000  Cr
  Cr3      1.0000 0.95012  0.88956  0.84780  Biso   1.000  Cr
  Cr4      1.0000 0.53949  0.53332  0.72110  Biso   1.000  Cr
  Cr5      1.0000 0.73540  0.49130  0.75230  Biso   1.000  Cr
  Cr6      1.0000 0.68748  0.61044  0.65220  Biso   1.000  Cr
  Cr7      1.0000 0.20609  0.03332  0.22110  Biso   1.000  Cr
  Cr8      1.0000 0.02100  0.99130  0.25230  Biso   1.000  Cr
  Cr9      1.0000 0.04988  0.11044  0.15220  Biso   1.000  Cr
  Cr10     1.0000 0.46051  0.46668  0.27890  Biso   1.000  Cr
  Cr11     1.0000 0.26460  0.50870  0.24770  Biso   1.000  Cr
  Cr12     1.0000 0.31252  0.38956  0.34780  Biso   1.000  Cr
  Co1      1.0000 0.39462  0.78906  0.96410  Biso   1.000  Co
  Co2      1.0000 0.14778  0.71094  0.53590  Biso   1.000  Co
  Co3      1.0000 0.60538  0.21094  0.03590  Biso   1.000  Co
  Co4      1.0000 0.85222  0.28906  0.46410  Biso   1.000  Co
  H1       1.0000 0.78230  0.19920  0.74400  Biso   1.000  H
  H2       1.0000 0.70020  0.18130  0.78770  Biso   1.000  H
  H3       1.0000 0.70830  0.18450  0.72650  Biso   1.000  H
  H4       1.0000 0.23290  0.80380  0.76700  Biso   1.000  H
  H5       1.0000 0.25930  0.86690  0.73670  Biso   1.000  H
  H6       1.0000 0.21880  0.83430  0.70850  Biso   1.000  H
  H7       1.0000 0.91780  0.72690  0.80050  Biso   1.000  H
  H8       1.0000 0.88870  0.76800  0.74740  Biso   1.000  H
  H9       1.0000 0.81410  0.75660  0.79980  Biso   1.000  H
  H10      1.0000 0.01210  0.07730  0.87410  Biso   1.000  H
  H11      1.0000 0.94760  0.04820  0.92420  Biso   1.000  H
  H12      1.0000 0.05290  0.01330  0.91170  Biso   1.000  H
  H13      1.0000 0.86580  0.97280  0.60560  Biso   1.000  H
  H14      1.0000 0.97210  0.95510  0.59450  Biso   1.000  H
  H15      1.0000 0.91200  0.02800  0.58760  Biso   1.000  H
  H16      1.0000 0.70370  0.92460  0.98140  Biso   1.000  H
  H17      1.0000 0.63070  0.92940  0.95160  Biso   1.000  H
  H18      1.0000 0.64890  0.99250  0.95410  Biso   1.000  H
  H19      1.0000 0.72550  0.30080  0.75600  Biso   1.000  H
  H20      1.0000 0.66920  0.31870  0.71230  Biso   1.000  H
  H21      1.0000 0.61930  0.31550  0.77350  Biso   1.000  H
  H22      1.0000 0.80370  0.69620  0.73300  Biso   1.000  H
  H23      1.0000 0.86290  0.63310  0.76330  Biso   1.000  H
  H24      1.0000 0.76160  0.66570  0.79150  Biso   1.000  H
  H25      1.0000 0.44520  0.77310  0.69950  Biso   1.000  H
  H26      1.0000 0.40410  0.73200  0.75260  Biso   1.000  H
  H27      1.0000 0.37050  0.74340  0.70020  Biso   1.000  H
  H28      1.0000 0.96350  0.42270  0.62590  Biso   1.000  H
  H29      1.0000 0.92000  0.45180  0.57580  Biso   1.000  H
  H30      1.0000 0.97790  0.48670  0.58830  Biso   1.000  H
  H31      1.0000 0.44420  0.52720  0.89440  Biso   1.000  H
  H32      1.0000 0.52170  0.54490  0.90550  Biso   1.000  H
  H33      1.0000 0.52760  0.47200  0.91240  Biso   1.000  H
  H34      1.0000 0.60970  0.57540  0.51860  Biso   1.000  H
  H35      1.0000 0.51170  0.57060  0.54840  Biso   1.000  H
  H36      1.0000 0.59550  0.50750  0.54590  Biso   1.000  H
  H37      1.0000 0.21770  0.80080  0.25600  Biso   1.000  H
  H38      1.0000 0.29980  0.81870  0.21230  Biso   1.000  H
  H39      1.0000 0.29170  0.81550  0.27350  Biso   1.000  H
  H40      1.0000 0.76710  0.19620  0.23300  Biso   1.000  H
  H41      1.0000 0.74070  0.13310  0.26330  Biso   1.000  H
  H42      1.0000 0.78120  0.16570  0.29150  Biso   1.000  H
  H43      1.0000 0.08220  0.27310  0.19950  Biso   1.000  H
  H44      1.0000 0.11130  0.23200  0.25260  Biso   1.000  H
  H45      1.0000 0.18590  0.24340  0.20020  Biso   1.000  H
  H46      1.0000 0.98790  0.92270  0.12590  Biso   1.000  H
  H47      1.0000 0.05240  0.95180  0.07580  Biso   1.000  H
  H48      1.0000 0.94710  0.98670  0.08830  Biso   1.000  H
  H49      1.0000 0.13420  0.02720  0.39440  Biso   1.000  H
  H50      1.0000 0.02790  0.04490  0.40550  Biso   1.000  H
  H51      1.0000 0.08800  0.97200  0.41240  Biso   1.000  H
  H52      1.0000 0.29630  0.07540  0.01860  Biso   1.000  H
  H53      1.0000 0.36930  0.07060  0.04840  Biso   1.000  H
  H54      1.0000 0.35110  0.00750  0.04590  Biso   1.000  H
  H55      1.0000 0.27450  0.69920  0.24400  Biso   1.000  H
  H56      1.0000 0.33080  0.68130  0.28770  Biso   1.000  H
  H57      1.0000 0.38070  0.68450  0.22650  Biso   1.000  H
  H58      1.0000 0.19630  0.30380  0.26700  Biso   1.000  H
  H59      1.0000 0.13710  0.36690  0.23670  Biso   1.000  H
  H60      1.0000 0.23840  0.33430  0.20850  Biso   1.000  H
  H61      1.0000 0.55480  0.22690  0.30050  Biso   1.000  H
  H62      1.0000 0.59590  0.26800  0.24740  Biso   1.000  H
  H63      1.0000 0.62950  0.25660  0.29980  Biso   1.000  H
  H64      1.0000 0.03650  0.57730  0.37410  Biso   1.000  H
  H65      1.0000 0.08000  0.54820  0.42420  Biso   1.000  H
  H66      1.0000 0.02210  0.51330  0.41170  Biso   1.000  H
  H67      1.0000 0.55580  0.47280  0.10560  Biso   1.000  H
  H68      1.0000 0.47830  0.45510  0.09450  Biso   1.000  H
  H69      1.0000 0.47240  0.52800  0.08760  Biso   1.000  H
  H70      1.0000 0.39030  0.42460  0.48140  Biso   1.000  H
  H71      1.0000 0.48830  0.42940  0.45160  Biso   1.000  H
  H72      1.0000 0.40450  0.49250  0.45410  Biso   1.000  H
  W1       1.0000 0.45252  0.93330  0.91198  Biso   1.000  W
  W2       1.0000 0.49228  0.83448  0.04360  Biso   1.000  W
  W3       1.0000 0.42923  0.70218  0.09172  Biso   1.000  W
  W4       1.0000 0.28610  0.73815  0.89453  Biso   1.000  W
  W5       1.0000 0.23491  0.94460  0.95362  Biso   1.000  W
  W6       1.0000 0.56538  0.63994  0.96546  Biso   1.000  W
  W7       1.0000 0.27462  0.84569  0.08587  Biso   1.000  W
  W8       1.0000 0.62996  0.77188  0.91762  Biso   1.000  W
  W9       1.0000 0.16505  0.79556  0.00606  Biso   1.000  W
  W10      1.0000 0.35486  0.88802  0.84214  Biso   1.000  W
  W11      1.0000 0.53236  0.72609  0.84799  Biso   1.000  W
  W12      1.0000 0.32033  0.65161  0.01175  Biso   1.000  W
  W13      1.0000 0.29780  0.56670  0.58802  Biso   1.000  W
  W14      1.0000 0.37036  0.66552  0.45640  Biso   1.000  W
  W15      1.0000 0.22313  0.79782  0.40828  Biso   1.000  W
  W16      1.0000 0.91878  0.76185  0.60547  Biso   1.000  W
  W17      1.0000 0.13313  0.55540  0.54638  Biso   1.000  W
  W18      1.0000 0.17078  0.86006  0.53454  Biso   1.000  W
  W19      1.0000 0.20618  0.65431  0.41413  Biso   1.000  W
  W20      1.0000 0.31946  0.72812  0.58238  Biso   1.000  W
  W21      1.0000 0.96667  0.70444  0.49394  Biso   1.000  W
  W22      1.0000 0.08502  0.61198  0.65786  Biso   1.000  W
  W23      1.0000 0.10644  0.77391  0.65201  Biso   1.000  W
  W24      1.0000 0.98369  0.84839  0.48825  Biso   1.000  W
  W25      1.0000 0.54748  0.06670  0.08802  Biso   1.000  W
  W26      1.0000 0.50772  0.16552  0.95640  Biso   1.000  W
  W27      1.0000 0.57077  0.29782  0.90828  Biso   1.000  W
  W28      1.0000 0.71390  0.26185  0.10547  Biso   1.000  W
  W29      1.0000 0.76509  0.05540  0.04638  Biso   1.000  W
  W30      1.0000 0.43462  0.36006  0.03454  Biso   1.000  W
  W31      1.0000 0.72538  0.15431  0.91413  Biso   1.000  W
  W32      1.0000 0.37004  0.22812  0.08238  Biso   1.000  W
  W33      1.0000 0.83495  0.20444  0.99394  Biso   1.000  W
  W34      1.0000 0.64514  0.11198  0.15786  Biso   1.000  W
  W35      1.0000 0.46764  0.27391  0.15201  Biso   1.000  W
  W36      1.0000 0.67967  0.34839  0.98825  Biso   1.000  W
  W37      1.0000 0.70220  0.43330  0.41198  Biso   1.000  W
  W38      1.0000 0.62964  0.33448  0.54360  Biso   1.000  W
  W39      1.0000 0.77687  0.20218  0.59172  Biso   1.000  W
  W40      1.0000 0.08122  0.23815  0.39453  Biso   1.000  W
  W41      1.0000 0.86687  0.44460  0.45362  Biso   1.000  W
  W42      1.0000 0.82922  0.13994  0.46546  Biso   1.000  W
  W43      1.0000 0.79382  0.34569  0.58587  Biso   1.000  W
  W44      1.0000 0.68054  0.27188  0.41762  Biso   1.000  W
  W45      1.0000 0.03333  0.29556  0.50606  Biso   1.000  W
  W46      1.0000 0.91498  0.38802  0.34214  Biso   1.000  W
  W47      1.0000 0.89356  0.22609  0.34799  Biso   1.000  W
  W48      1.0000 0.01631  0.15161  0.51175  Biso   1.000  W
  C1       1.0000 0.12350  0.88360  0.76480  Biso   1.000  C
  C2       1.0000 0.90620  0.98580  0.66780  Biso   1.000  C
  C3       1.0000 0.99000  0.99860  0.86140  Biso   1.000  C
  C4       1.0000 0.74150  0.17320  0.75380  Biso   1.000  C
  C5       1.0000 0.75100  0.94030  0.89770  Biso   1.000  C
  C6       1.0000 0.21710  0.84360  0.74220  Biso   1.000  C
  C7       1.0000 0.87340  0.76330  0.78590  Biso   1.000  C
  C8       1.0000 0.86960  0.82330  0.80150  Biso   1.000  C
  C9       1.0000 0.00200  0.03790  0.89610  Biso   1.000  C
  C10      1.0000 0.79640  0.10260  0.75860  Biso   1.000  C
  C11      1.0000 0.91520  0.98540  0.60820  Biso   1.000  C
  C12      1.0000 0.67660  0.94740  0.95140  Biso   1.000  C
  C13      1.0000 0.77190  0.61640  0.73520  Biso   1.000  C
  C14      1.0000 0.55980  0.51420  0.83220  Biso   1.000  C
  C15      1.0000 0.85000  0.50140  0.63860  Biso   1.000  C
  C16      1.0000 0.66850  0.32680  0.74620  Biso   1.000  C
  C17      1.0000 0.58900  0.55970  0.60230  Biso   1.000  C
  C18      1.0000 0.80290  0.65640  0.75780  Biso   1.000  C
  C19      1.0000 0.42260  0.73670  0.71410  Biso   1.000  C
  C20      1.0000 0.49440  0.67670  0.69850  Biso   1.000  C
  C21      1.0000 0.93600  0.46210  0.60390  Biso   1.000  C
  C22      1.0000 0.65760  0.39740  0.74140  Biso   1.000  C
  C23      1.0000 0.50880  0.51460  0.89180  Biso   1.000  C
  C24      1.0000 0.57540  0.55260  0.54860  Biso   1.000  C
  C25      1.0000 0.87650  0.11640  0.23520  Biso   1.000  C
  C26      1.0000 0.09380  0.01420  0.33220  Biso   1.000  C
  C27      1.0000 0.01000  0.00140  0.13860  Biso   1.000  C
  C28      1.0000 0.25850  0.82680  0.24620  Biso   1.000  C
  C29      1.0000 0.24900  0.05970  0.10230  Biso   1.000  C
  C30      1.0000 0.78290  0.15640  0.25780  Biso   1.000  C
  C31      1.0000 0.12660  0.23670  0.21410  Biso   1.000  C
  C32      1.0000 0.13040  0.17670  0.19850  Biso   1.000  C
  C33      1.0000 0.99800  0.96210  0.10390  Biso   1.000  C
  C34      1.0000 0.20360  0.89740  0.24140  Biso   1.000  C
  C35      1.0000 0.08480  0.01460  0.39180  Biso   1.000  C
  C36      1.0000 0.32340  0.05260  0.04860  Biso   1.000  C
  C37      1.0000 0.22810  0.38360  0.26480  Biso   1.000  C
  C38      1.0000 0.44020  0.48580  0.16780  Biso   1.000  C
  C39      1.0000 0.15000  0.49860  0.36140  Biso   1.000  C
  C40      1.0000 0.33150  0.67320  0.25380  Biso   1.000  C
  C41      1.0000 0.41100  0.44030  0.39770  Biso   1.000  C
  C42      1.0000 0.19710  0.34360  0.24220  Biso   1.000  C
  C43      1.0000 0.57740  0.26330  0.28590  Biso   1.000  C
  C44      1.0000 0.50560  0.32330  0.30150  Biso   1.000  C
  C45      1.0000 0.06400  0.53790  0.39610  Biso   1.000  C
  C46      1.0000 0.34240  0.60260  0.25860  Biso   1.000  C
  C47      1.0000 0.49120  0.48540  0.10820  Biso   1.000  C
  C48      1.0000 0.42460  0.44740  0.45140  Biso   1.000  C
  O1       1.0000 0.50170  0.99370  0.89430  Biso   1.000  O
  O2       1.0000 0.75210  0.06200  0.77120  Biso   1.000  O
  O3       1.0000 0.17970  0.87590  0.96910  Biso   1.000  O
  O4       1.0000 0.30510  0.57860  0.04340  Biso   1.000  O
  O5       1.0000 0.88140  0.08860  0.74760  Biso   1.000  O
  O6       1.0000 0.55440  0.85830  0.89730  Biso   1.000  O
  O7       1.0000 0.83690  0.97270  0.70030  Biso   1.000  O
  O8       1.0000 0.32120  0.76100  0.12780  Biso   1.000  O
  O9       1.0000 0.96600  0.00030  0.67810  Biso   1.000  O
  O10      1.0000 0.25570  0.91150  0.02430  Biso   1.000  O
  O11      1.0000 0.81410  0.87450  0.78310  Biso   1.000  O
  O12      1.0000 0.57360  0.70780  0.78560  Biso   1.000  O
  O13      1.0000 0.92580  0.82070  0.82670  Biso   1.000  O
  O14      1.0000 0.99900  0.81770  0.90950  Biso   1.000  O
  O15      1.0000 0.20860  0.80750  0.06130  Biso   1.000  O
  O16      1.0000 0.63350  0.56220  0.97920  Biso   1.000  O
  O17      1.0000 0.32890  0.98500  0.93600  Biso   1.000  O
  O18      1.0000 0.29580  0.65840  0.94260  Biso   1.000  O
  O19      1.0000 0.52430  0.66450  0.03350  Biso   1.000  O
  O20      1.0000 0.05160  0.81400  0.03280  Biso   1.000  O
  O21      1.0000 0.63560  0.75290  0.85030  Biso   1.000  O
  O22      1.0000 0.41630  0.71290  0.86870  Biso   1.000  O
  O23      1.0000 0.42930  0.93930  0.84350  Biso   1.000  O
  O24      1.0000 0.19460  0.70420  0.03560  Biso   1.000  O
  O25      1.0000 0.45860  0.90170  0.98630  Biso   1.000  O
  O26      1.0000 0.73580  0.78260  0.90280  Biso   1.000  O
  O27      1.0000 0.58150  0.78920  0.98980  Biso   1.000  O
  O28      1.0000 0.24770  0.94920  0.87740  Biso   1.000  O
  O29      1.0000 0.30740  0.75340  0.96680  Biso   1.000  O
  O30      1.0000 0.50640  0.74120  0.93100  Biso   1.000  O
  O31      1.0000 0.09430  0.93700  0.73680  Biso   1.000  O
  O32      1.0000 0.29290  0.82310  0.86450  Biso   1.000  O
  O33      1.0000 0.14380  0.01120  0.96540  Biso   1.000  O
  O34      1.0000 0.34360  0.91720  0.77780  Biso   1.000  O
  O35      1.0000 0.55220  0.86400  0.06900  Biso   1.000  O
  O36      1.0000 0.45380  0.64070  0.14370  Biso   1.000  O
  O37      1.0000 0.66800  0.98230  0.76490  Biso   1.000  O
  O38      1.0000 0.97560  0.94720  0.87900  Biso   1.000  O
  O39      1.0000 0.07670  0.86230  0.80770  Biso   1.000  O
  O40      1.0000 0.16630  0.77610  0.93870  Biso   1.000  O
  O41      1.0000 0.37470  0.87010  0.09130  Biso   1.000  O
  O42      1.0000 0.46400  0.81720  0.83220  Biso   1.000  O
  O43      1.0000 0.44670  0.63020  0.97840  Biso   1.000  O
  O44      1.0000 0.39860  0.79110  0.03170  Biso   1.000  O
  O45      1.0000 0.83340  0.90530  0.90030  Biso   1.000  O
  O46      1.0000 0.05920  0.06560  0.70000  Biso   1.000  O
  O47      1.0000 0.58520  0.64340  0.88900  Biso   1.000  O
  O48      1.0000 0.66240  0.68020  0.94680  Biso   1.000  O
  O49      1.0000 0.72810  0.96570  0.85510  Biso   1.000  O
  O50      1.0000 0.36360  0.87200  0.92440  Biso   1.000  O
  O51      1.0000 0.90820  0.95400  0.79260  Biso   1.000  O
  O52      1.0000 0.35340  0.67510  0.06510  Biso   1.000  O
  O53      1.0000 0.00500  0.02590  0.81090  Biso   1.000  O
  O54      1.0000 0.19130  0.88150  0.13590  Biso   1.000  O
  O55      1.0000 0.25200  0.71950  0.84590  Biso   1.000  O
  O56      1.0000 0.50160  0.75160  0.09400  Biso   1.000  O
  O57      1.0000 0.33930  0.90240  0.60100  Biso   1.000  O
  O58      1.0000 0.38970  0.50630  0.60570  Biso   1.000  O
  O59      1.0000 0.58530  0.43800  0.72880  Biso   1.000  O
  O60      1.0000 0.02470  0.62410  0.53090  Biso   1.000  O
  O61      1.0000 0.92710  0.92140  0.45660  Biso   1.000  O
  O62      1.0000 0.71760  0.41140  0.75240  Biso   1.000  O
  O63      1.0000 0.31000  0.64170  0.60270  Biso   1.000  O
  O64      1.0000 0.50990  0.52730  0.79970  Biso   1.000  O
  O65      1.0000 0.21000  0.73900  0.37220  Biso   1.000  O
  O66      1.0000 0.64440  0.49970  0.82190  Biso   1.000  O
  O67      1.0000 0.19150  0.58850  0.47570  Biso   1.000  O
  O68      1.0000 0.47170  0.62550  0.71690  Biso   1.000  O
  O69      1.0000 0.06700  0.79220  0.71440  Biso   1.000  O
  O70      1.0000 0.57320  0.67930  0.67330  Biso   1.000  O
  O71      1.0000 0.72620  0.68230  0.59050  Biso   1.000  O
  O72      1.0000 0.07740  0.69250  0.43870  Biso   1.000  O
  O73      1.0000 0.17490  0.93780  0.52080  Biso   1.000  O
  O74      1.0000 0.24990  0.51500  0.56400  Biso   1.000  O
  O75      1.0000 0.89680  0.84160  0.55740  Biso   1.000  O
  O76      1.0000 0.22230  0.83550  0.46650  Biso   1.000  O
  O77      1.0000 0.89840  0.68600  0.46720  Biso   1.000  O
  O78      1.0000 0.23880  0.74710  0.64970  Biso   1.000  O
  O79      1.0000 0.99790  0.78710  0.63130  Biso   1.000  O
  O80      1.0000 0.21210  0.56070  0.65650  Biso   1.000  O
  O81      1.0000 0.93440  0.79580  0.46440  Biso   1.000  O
  O82      1.0000 0.34660  0.59830  0.51370  Biso   1.000  O
  O83      1.0000 0.42120  0.71740  0.59720  Biso   1.000  O
  O84      1.0000 0.36050  0.71080  0.51020  Biso   1.000  O
  O85      1.0000 0.07430  0.55080  0.62260  Biso   1.000  O
  O86      1.0000 0.02760  0.74660  0.53320  Biso   1.000  O
  O87      1.0000 0.17860  0.75880  0.56900  Biso   1.000  O
  O88      1.0000 0.76810  0.56300  0.76320  Biso   1.000  O
  O89      1.0000 0.98050  0.67690  0.63550  Biso   1.000  O
  O90      1.0000 0.12040  0.48880  0.53460  Biso   1.000  O
  O91      1.0000 0.03860  0.58280  0.72220  Biso   1.000  O
  O92      1.0000 0.48520  0.63600  0.43100  Biso   1.000  O
  O93      1.0000 0.23820  0.85930  0.35630  Biso   1.000  O
  O94      1.0000 0.41520  0.51770  0.73510  Biso   1.000  O
  O95      1.0000 0.80180  0.55280  0.62100  Biso   1.000  O
  O96      1.0000 0.74670  0.63770  0.69230  Biso   1.000  O
  O97      1.0000 0.88110  0.72390  0.56130  Biso   1.000  O
  O98      1.0000 0.33610  0.62990  0.40870  Biso   1.000  O
  O99      1.0000 0.11340  0.68280  0.66780  Biso   1.000  O
  O100     1.0000 0.05530  0.86980  0.52160  Biso   1.000  O
  O101     1.0000 0.22140  0.70890  0.46830  Biso   1.000  O
  O102     1.0000 0.63900  0.59470  0.59970  Biso   1.000  O
  O103     1.0000 0.82480  0.43440  0.80000  Biso   1.000  O
  O104     1.0000 0.11760  0.85660  0.61100  Biso   1.000  O
  O105     1.0000 0.28940  0.81980  0.55320  Biso   1.000  O
  O106     1.0000 0.54890  0.53430  0.64490  Biso   1.000  O
  O107     1.0000 0.16000  0.62800  0.57560  Biso   1.000  O
  O108     1.0000 0.65480  0.54600  0.70740  Biso   1.000  O
  O109     1.0000 0.09360  0.82490  0.43490  Biso   1.000  O
  O110     1.0000 0.84180  0.47410  0.68910  Biso   1.000  O
  O111     1.0000 0.20870  0.61850  0.36410  Biso   1.000  O
  O112     1.0000 0.81740  0.78050  0.65410  Biso   1.000  O
  O113     1.0000 0.34720  0.74840  0.40600  Biso   1.000  O
  O114     1.0000 0.84270  0.59760  0.89900  Biso   1.000  O
  O115     1.0000 0.49830  0.00630  0.10570  Biso   1.000  O
  O116     1.0000 0.24790  0.93800  0.22880  Biso   1.000  O
  O117     1.0000 0.82030  0.12410  0.03090  Biso   1.000  O
  O118     1.0000 0.69490  0.42140  0.95660  Biso   1.000  O
  O119     1.0000 0.11860  0.91140  0.25240  Biso   1.000  O
  O120     1.0000 0.44560  0.14170  0.10270  Biso   1.000  O
  O121     1.0000 0.16310  0.02730  0.29970  Biso   1.000  O
  O122     1.0000 0.67880  0.23900  0.87220  Biso   1.000  O
  O123     1.0000 0.03400  0.99970  0.32190  Biso   1.000  O
  O124     1.0000 0.74430  0.08850  0.97570  Biso   1.000  O
  O125     1.0000 0.18590  0.12550  0.21690  Biso   1.000  O
  O126     1.0000 0.42640  0.29220  0.21440  Biso   1.000  O
  O127     1.0000 0.07420  0.17930  0.17330  Biso   1.000  O
  O128     1.0000 0.00100  0.18230  0.09050  Biso   1.000  O
  O129     1.0000 0.79140  0.19250  0.93870  Biso   1.000  O
  O130     1.0000 0.36650  0.43780  0.02080  Biso   1.000  O
  O131     1.0000 0.67110  0.01500  0.06400  Biso   1.000  O
  O132     1.0000 0.70420  0.34160  0.05740  Biso   1.000  O
  O133     1.0000 0.47570  0.33550  0.96650  Biso   1.000  O
  O134     1.0000 0.94840  0.18600  0.96720  Biso   1.000  O
  O135     1.0000 0.36440  0.24710  0.14970  Biso   1.000  O
  O136     1.0000 0.58370  0.28710  0.13130  Biso   1.000  O
  O137     1.0000 0.57070  0.06070  0.15650  Biso   1.000  O
  O138     1.0000 0.80540  0.29580  0.96440  Biso   1.000  O
  O139     1.0000 0.54140  0.09830  0.01370  Biso   1.000  O
  O140     1.0000 0.26420  0.21740  0.09720  Biso   1.000  O
  O141     1.0000 0.41850  0.21080  0.01020  Biso   1.000  O
  O142     1.0000 0.75230  0.05080  0.12260  Biso   1.000  O
  O143     1.0000 0.69260  0.24660  0.03320  Biso   1.000  O
  O144     1.0000 0.49360  0.25880  0.06900  Biso   1.000  O
  O145     1.0000 0.90570  0.06300  0.26320  Biso   1.000  O
  O146     1.0000 0.70710  0.17690  0.13550  Biso   1.000  O
  O147     1.0000 0.85620  0.98880  0.03460  Biso   1.000  O
  O148     1.0000 0.65640  0.08280  0.22220  Biso   1.000  O
  O149     1.0000 0.44780  0.13600  0.93100  Biso   1.000  O
  O150     1.0000 0.54620  0.35930  0.85630  Biso   1.000  O
  O151     1.0000 0.33200  0.01770  0.23510  Biso   1.000  O
  O152     1.0000 0.02440  0.05280  0.12100  Biso   1.000  O
  O153     1.0000 0.92330  0.13770  0.19230  Biso   1.000  O
  O154     1.0000 0.83370  0.22390  0.06130  Biso   1.000  O
  O155     1.0000 0.62530  0.12990  0.90870  Biso   1.000  O
  O156     1.0000 0.53600  0.18280  0.16780  Biso   1.000  O
  O157     1.0000 0.55330  0.36980  0.02160  Biso   1.000  O
  O158     1.0000 0.60140  0.20890  0.96830  Biso   1.000  O
  O159     1.0000 0.16660  0.09470  0.09970  Biso   1.000  O
  O160     1.0000 0.94080  0.93440  0.30000  Biso   1.000  O
  O161     1.0000 0.41480  0.35660  0.11100  Biso   1.000  O
  O162     1.0000 0.33760  0.31980  0.05320  Biso   1.000  O
  O163     1.0000 0.27190  0.03430  0.14490  Biso   1.000  O
  O164     1.0000 0.63640  0.12800  0.07560  Biso   1.000  O
  O165     1.0000 0.09180  0.04600  0.20740  Biso   1.000  O
  O166     1.0000 0.64660  0.32490  0.93490  Biso   1.000  O
  O167     1.0000 0.99500  0.97410  0.18910  Biso   1.000  O
  O168     1.0000 0.80870  0.11850  0.86410  Biso   1.000  O
  O169     1.0000 0.74800  0.28050  0.15410  Biso   1.000  O
  O170     1.0000 0.49840  0.24840  0.90600  Biso   1.000  O
  O171     1.0000 0.66070  0.09760  0.39900  Biso   1.000  O
  O172     1.0000 0.61030  0.49370  0.39430  Biso   1.000  O
  O173     1.0000 0.41470  0.56200  0.27120  Biso   1.000  O
  O174     1.0000 0.97530  0.37590  0.46910  Biso   1.000  O
  O175     1.0000 0.07290  0.07860  0.54340  Biso   1.000  O
  O176     1.0000 0.28240  0.58860  0.24760  Biso   1.000  O
  O177     1.0000 0.69000  0.35830  0.39730  Biso   1.000  O
  O178     1.0000 0.49010  0.47270  0.20030  Biso   1.000  O
  O179     1.0000 0.79000  0.26100  0.62780  Biso   1.000  O
  O180     1.0000 0.35560  0.50030  0.17810  Biso   1.000  O
  O181     1.0000 0.80850  0.41150  0.52430  Biso   1.000  O
  O182     1.0000 0.52830  0.37450  0.28310  Biso   1.000  O
  O183     1.0000 0.93300  0.20780  0.28560  Biso   1.000  O
  O184     1.0000 0.42680  0.32070  0.32670  Biso   1.000  O
  O185     1.0000 0.27380  0.31770  0.40950  Biso   1.000  O
  O186     1.0000 0.92260  0.30750  0.56130  Biso   1.000  O
  O187     1.0000 0.82510  0.06220  0.47920  Biso   1.000  O
  O188     1.0000 0.75010  0.48500  0.43600  Biso   1.000  O
  O189     1.0000 0.10320  0.15840  0.44260  Biso   1.000  O
  O190     1.0000 0.77770  0.16450  0.53350  Biso   1.000  O
  O191     1.0000 0.10160  0.31400  0.53280  Biso   1.000  O
  O192     1.0000 0.76120  0.25290  0.35030  Biso   1.000  O
  O193     1.0000 0.00210  0.21290  0.36870  Biso   1.000  O
  O194     1.0000 0.78790  0.43930  0.34350  Biso   1.000  O
  O195     1.0000 0.06560  0.20420  0.53560  Biso   1.000  O
  O196     1.0000 0.65340  0.40170  0.48630  Biso   1.000  O
  O197     1.0000 0.57880  0.28260  0.40280  Biso   1.000  O
  O198     1.0000 0.63950  0.28920  0.48980  Biso   1.000  O
  O199     1.0000 0.92570  0.44920  0.37740  Biso   1.000  O
  O200     1.0000 0.97240  0.25340  0.46680  Biso   1.000  O
  O201     1.0000 0.82140  0.24120  0.43100  Biso   1.000  O
  O202     1.0000 0.23190  0.43700  0.23680  Biso   1.000  O
  O203     1.0000 0.01950  0.32310  0.36450  Biso   1.000  O
  O204     1.0000 0.87960  0.51120  0.46540  Biso   1.000  O
  O205     1.0000 0.96140  0.41720  0.27780  Biso   1.000  O
  O206     1.0000 0.51480  0.36400  0.56900  Biso   1.000  O
  O207     1.0000 0.76180  0.14070  0.64370  Biso   1.000  O
  O208     1.0000 0.58480  0.48230  0.26490  Biso   1.000  O
  O209     1.0000 0.19820  0.44720  0.37900  Biso   1.000  O
  O210     1.0000 0.25330  0.36230  0.30770  Biso   1.000  O
  O211     1.0000 0.11890  0.27610  0.43870  Biso   1.000  O
  O212     1.0000 0.66390  0.37010  0.59130  Biso   1.000  O
  O213     1.0000 0.88660  0.31720  0.33220  Biso   1.000  O
  O214     1.0000 0.94470  0.13020  0.47840  Biso   1.000  O
  O215     1.0000 0.77860  0.29110  0.53170  Biso   1.000  O
  O216     1.0000 0.36100  0.40530  0.40030  Biso   1.000  O
  O217     1.0000 0.17520  0.56560  0.20000  Biso   1.000  O
  O218     1.0000 0.88240  0.14340  0.38900  Biso   1.000  O
  O219     1.0000 0.71060  0.18020  0.44680  Biso   1.000  O
  O220     1.0000 0.45110  0.46570  0.35510  Biso   1.000  O
  O221     1.0000 0.84000  0.37200  0.42440  Biso   1.000  O
  O222     1.0000 0.34520  0.45400  0.29260  Biso   1.000  O
  O223     1.0000 0.90640  0.17510  0.56510  Biso   1.000  O
  O224     1.0000 0.15820  0.52590  0.31090  Biso   1.000  O
  O225     1.0000 0.79130  0.38150  0.63590  Biso   1.000  O
  O226     1.0000 0.18260  0.21950  0.34590  Biso   1.000  O
  O227     1.0000 0.65280  0.25160  0.59400  Biso   1.000  O
  O228     1.0000 0.15730  0.40240  0.10100  Biso   1.000  O
