data_image0
_cell_length_a       9.67881
_cell_length_b       17.4058
_cell_length_c       31.4114
_cell_angle_alpha    77.0011
_cell_angle_beta     81.1374
_cell_angle_gamma    73.8571

_symmetry_space_group_name_H-M    P 1
_symmetry_int_tables_number       1

loop_
  _symmetry_equiv_pos_as_xyz
  'x, y, z'

loop_
  _atom_site_label
  _atom_site_occupancy
  _atom_site_fract_x
  _atom_site_fract_y
  _atom_site_fract_z
  _atom_site_thermal_displace_type
  _atom_site_B_iso_or_equiv
  _atom_site_type_symbol
  Zn1      1.0000 0.40538  0.44741  0.48821  Biso   1.000  Zn
  Zn2      1.0000 0.67104  0.34028  0.53766  Biso   1.000  Zn
  Zn3      1.0000 0.34100  0.05259  0.01179  Biso   1.000  Zn
  Zn4      1.0000 0.54898  0.15972  0.96234  Biso   1.000  Zn
  Zn5      1.0000 0.59462  0.55259  0.51179  Biso   1.000  Zn
  Zn6      1.0000 0.32896  0.65972  0.46234  Biso   1.000  Zn
  Zn7      1.0000 0.65900  0.94741  0.98821  Biso   1.000  Zn
  Zn8      1.0000 0.45102  0.84028  0.03766  Biso   1.000  Zn
  Si1      1.0000 0.54034  0.99085  0.39215  Biso   1.000  Si
  Si2      1.0000 0.92334  0.50915  0.10785  Biso   1.000  Si
  Si3      1.0000 0.45966  0.00915  0.60785  Biso   1.000  Si
  Si4      1.0000 0.07666  0.49085  0.89215  Biso   1.000  Si
  Si5      1.0000 0.99880  0.25000  0.75000  Biso   1.000  Si
  Si6      1.0000 0.00120  0.75000  0.25000  Biso   1.000  Si
  H1       1.0000 0.42200  0.16650  0.37790  Biso   1.000  H
  H2       1.0000 0.42500  0.27370  0.41030  Biso   1.000  H
  H3       1.0000 0.72690  0.11960  0.48740  Biso   1.000  H
  H4       1.0000 0.71170  0.01210  0.45710  Biso   1.000  H
  H5       1.0000 0.39790  0.86010  0.39870  Biso   1.000  H
  H6       1.0000 0.17020  0.84000  0.42000  Biso   1.000  H
  H7       1.0000 0.98740  0.93800  0.44740  Biso   1.000  H
  H8       1.0000 0.03580  0.06030  0.45470  Biso   1.000  H
  H9       1.0000 0.26490  0.07920  0.43480  Biso   1.000  H
  H10      1.0000 0.66470  0.10540  0.31980  Biso   1.000  H
  H11      1.0000 0.67180  0.14030  0.24550  Biso   1.000  H
  H12      1.0000 0.60250  0.06110  0.20670  Biso   1.000  H
  H13      1.0000 0.53400  0.94370  0.24610  Biso   1.000  H
  H14      1.0000 0.48360  0.92570  0.32150  Biso   1.000  H
  H15      1.0000 0.57730  0.85130  0.46670  Biso   1.000  H
  H16      1.0000 0.75670  0.73250  0.48750  Biso   1.000  H
  H17      1.0000 0.01240  0.79800  0.37920  Biso   1.000  H
  H18      1.0000 0.82800  0.91160  0.35600  Biso   1.000  H
  H19      1.0000 0.96690  0.37430  0.66690  Biso   1.000  H
  H20      1.0000 0.11550  0.40640  0.60460  Biso   1.000  H
  H21      1.0000 0.45390  0.23900  0.65760  Biso   1.000  H
  H22      1.0000 0.30370  0.20470  0.71990  Biso   1.000  H
  H23      1.0000 0.75960  0.24030  0.70870  Biso   1.000  H
  H24      1.0000 0.68700  0.14510  0.68350  Biso   1.000  H
  H25      1.0000 0.82130  0.01350  0.69410  Biso   1.000  H
  H26      1.0000 0.02480  0.97390  0.73290  Biso   1.000  H
  H27      1.0000 0.09780  0.07290  0.75810  Biso   1.000  H
  H28      1.0000 0.96640  0.33350  0.12210  Biso   1.000  H
  H29      1.0000 0.10900  0.22630  0.08970  Biso   1.000  H
  H30      1.0000 0.33390  0.38040  0.01260  Biso   1.000  H
  H31      1.0000 0.18090  0.48790  0.04290  Biso   1.000  H
  H32      1.0000 0.65670  0.63990  0.10130  Biso   1.000  H
  H33      1.0000 0.43020  0.66000  0.08000  Biso   1.000  H
  H34      1.0000 0.37280  0.56200  0.05260  Biso   1.000  H
  H35      1.0000 0.55080  0.43970  0.04530  Biso   1.000  H
  H36      1.0000 0.77890  0.42080  0.06520  Biso   1.000  H
  H37      1.0000 0.08990  0.39460  0.18020  Biso   1.000  H
  H38      1.0000 0.05760  0.35970  0.25450  Biso   1.000  H
  H39      1.0000 0.87030  0.43890  0.29330  Biso   1.000  H
  H40      1.0000 0.72380  0.55630  0.25390  Biso   1.000  H
  H41      1.0000 0.73080  0.57430  0.17850  Biso   1.000  H
  H42      1.0000 0.89530  0.64870  0.03330  Biso   1.000  H
  H43      1.0000 0.97670  0.76750  0.01250  Biso   1.000  H
  H44      1.0000 0.18960  0.70200  0.12080  Biso   1.000  H
  H45      1.0000 0.09560  0.58840  0.14400  Biso   1.000  H
  H46      1.0000 0.00810  0.12570  0.83310  Biso   1.000  H
  H47      1.0000 0.12650  0.09360  0.89540  Biso   1.000  H
  H48      1.0000 0.35050  0.26100  0.84240  Biso   1.000  H
  H49      1.0000 0.22830  0.29530  0.78010  Biso   1.000  H
  H50      1.0000 0.70860  0.25970  0.79130  Biso   1.000  H
  H51      1.0000 0.51560  0.35490  0.81650  Biso   1.000  H
  H52      1.0000 0.52890  0.48650  0.80590  Biso   1.000  H
  H53      1.0000 0.73160  0.52610  0.76710  Biso   1.000  H
  H54      1.0000 0.92880  0.42710  0.74190  Biso   1.000  H
  H55      1.0000 0.57800  0.83350  0.62210  Biso   1.000  H
  H56      1.0000 0.57500  0.72630  0.58970  Biso   1.000  H
  H57      1.0000 0.27310  0.88040  0.51260  Biso   1.000  H
  H58      1.0000 0.28830  0.98790  0.54290  Biso   1.000  H
  H59      1.0000 0.60210  0.13990  0.60130  Biso   1.000  H
  H60      1.0000 0.82980  0.16000  0.58000  Biso   1.000  H
  H61      1.0000 0.01260  0.06200  0.55260  Biso   1.000  H
  H62      1.0000 0.96420  0.93970  0.54530  Biso   1.000  H
  H63      1.0000 0.73510  0.92080  0.56520  Biso   1.000  H
  H64      1.0000 0.33530  0.89460  0.68020  Biso   1.000  H
  H65      1.0000 0.32820  0.85970  0.75450  Biso   1.000  H
  H66      1.0000 0.39750  0.93890  0.79330  Biso   1.000  H
  H67      1.0000 0.46600  0.05630  0.75390  Biso   1.000  H
  H68      1.0000 0.51640  0.07430  0.67850  Biso   1.000  H
  H69      1.0000 0.42270  0.14870  0.53330  Biso   1.000  H
  H70      1.0000 0.24330  0.26750  0.51250  Biso   1.000  H
  H71      1.0000 0.98760  0.20200  0.62080  Biso   1.000  H
  H72      1.0000 0.17200  0.08840  0.64400  Biso   1.000  H
  H73      1.0000 0.03310  0.62570  0.33310  Biso   1.000  H
  H74      1.0000 0.88450  0.59360  0.39540  Biso   1.000  H
  H75      1.0000 0.54610  0.76100  0.34240  Biso   1.000  H
  H76      1.0000 0.69630  0.79530  0.28010  Biso   1.000  H
  H77      1.0000 0.24040  0.75970  0.29130  Biso   1.000  H
  H78      1.0000 0.31300  0.85490  0.31650  Biso   1.000  H
  H79      1.0000 0.17870  0.98650  0.30590  Biso   1.000  H
  H80      1.0000 0.97520  0.02610  0.26710  Biso   1.000  H
  H81      1.0000 0.90220  0.92710  0.24190  Biso   1.000  H
  H82      1.0000 0.03360  0.66650  0.87790  Biso   1.000  H
  H83      1.0000 0.89100  0.77370  0.91030  Biso   1.000  H
  H84      1.0000 0.66610  0.61960  0.98740  Biso   1.000  H
  H85      1.0000 0.81910  0.51210  0.95710  Biso   1.000  H
  H86      1.0000 0.34330  0.36010  0.89870  Biso   1.000  H
  H87      1.0000 0.56980  0.34000  0.92000  Biso   1.000  H
  H88      1.0000 0.62720  0.43800  0.94740  Biso   1.000  H
  H89      1.0000 0.44920  0.56030  0.95470  Biso   1.000  H
  H90      1.0000 0.22110  0.57920  0.93480  Biso   1.000  H
  H91      1.0000 0.91010  0.60540  0.81980  Biso   1.000  H
  H92      1.0000 0.94240  0.64030  0.74550  Biso   1.000  H
  H93      1.0000 0.12970  0.56110  0.70670  Biso   1.000  H
  H94      1.0000 0.27620  0.44370  0.74610  Biso   1.000  H
  H95      1.0000 0.26920  0.42570  0.82150  Biso   1.000  H
  H96      1.0000 0.10470  0.35130  0.96670  Biso   1.000  H
  H97      1.0000 0.02330  0.23250  0.98750  Biso   1.000  H
  H98      1.0000 0.81040  0.29800  0.87920  Biso   1.000  H
  H99      1.0000 0.90440  0.41160  0.85600  Biso   1.000  H
  H100     1.0000 0.99190  0.87430  0.16690  Biso   1.000  H
  H101     1.0000 0.87350  0.90640  0.10460  Biso   1.000  H
  H102     1.0000 0.64950  0.73900  0.15760  Biso   1.000  H
  H103     1.0000 0.77170  0.70470  0.21990  Biso   1.000  H
  H104     1.0000 0.29140  0.74030  0.20870  Biso   1.000  H
  H105     1.0000 0.48440  0.64510  0.18350  Biso   1.000  H
  H106     1.0000 0.47110  0.51350  0.19410  Biso   1.000  H
  H107     1.0000 0.26840  0.47390  0.23290  Biso   1.000  H
  H108     1.0000 0.07120  0.57290  0.25810  Biso   1.000  H
  C1       1.0000 0.56417  0.07666  0.41460  Biso   1.000  C
  C2       1.0000 0.48180  0.15630  0.40090  Biso   1.000  C
  C3       1.0000 0.48456  0.22078  0.41970  Biso   1.000  C
  C4       1.0000 0.57571  0.20698  0.45260  Biso   1.000  C
  C5       1.0000 0.66223  0.12914  0.46580  Biso   1.000  C
  C6       1.0000 0.65401  0.06518  0.44720  Biso   1.000  C
  C7       1.0000 0.57282  0.27540  0.47476  Biso   1.000  C
  C8       1.0000 0.35685  0.97380  0.41330  Biso   1.000  C
  C9       1.0000 0.32426  0.90148  0.41000  Biso   1.000  C
  C10      1.0000 0.18890  0.88930  0.42270  Biso   1.000  C
  C11      1.0000 0.08130  0.94660  0.43900  Biso   1.000  C
  C12      1.0000 0.11010  0.01950  0.44330  Biso   1.000  C
  C13      1.0000 0.24600  0.03060  0.43100  Biso   1.000  C
  C14      1.0000 0.55890  0.01760  0.33040  Biso   1.000  C
  C15      1.0000 0.62470  0.07610  0.30490  Biso   1.000  C
  C16      1.0000 0.63630  0.09480  0.26060  Biso   1.000  C
  C17      1.0000 0.59740  0.04830  0.23790  Biso   1.000  C
  C18      1.0000 0.54980  0.98150  0.26130  Biso   1.000  C
  C19      1.0000 0.52510  0.96890  0.30650  Biso   1.000  C
  C20      1.0000 0.68281  0.89452  0.40906  Biso   1.000  C
  C21      1.0000 0.66527  0.84016  0.44830  Biso   1.000  C
  C22      1.0000 0.77294  0.77002  0.46130  Biso   1.000  C
  C23      1.0000 0.90264  0.75560  0.43592  Biso   1.000  C
  C24      1.0000 0.92284  0.80844  0.39688  Biso   1.000  C
  C25      1.0000 0.81345  0.87661  0.38329  Biso   1.000  C
  C26      1.0000 0.02604  0.68437  0.45075  Biso   1.000  C
  C27      1.0000 0.11790  0.28650  0.70130  Biso   1.000  C
  C28      1.0000 0.06643  0.34624  0.66550  Biso   1.000  C
  C29      1.0000 0.15509  0.36565  0.62837  Biso   1.000  C
  C30      1.0000 0.29934  0.32765  0.62487  Biso   1.000  C
  C31      1.0000 0.35440  0.26690  0.65950  Biso   1.000  C
  C32      1.0000 0.26430  0.24690  0.69670  Biso   1.000  C
  C33      1.0000 0.39757  0.34778  0.58508  Biso   1.000  C
  C34      1.0000 0.93620  0.16700  0.73660  Biso   1.000  C
  C35      1.0000 0.81530  0.18530  0.71390  Biso   1.000  C
  C36      1.0000 0.77140  0.12940  0.69860  Biso   1.000  C
  C37      1.0000 0.84930  0.05290  0.70510  Biso   1.000  C
  C38      1.0000 0.97090  0.02920  0.72780  Biso   1.000  C
  C39      1.0000 0.01350  0.08830  0.74310  Biso   1.000  C
  C40      1.0000 0.05543  0.42334  0.08540  Biso   1.000  C
  C41      1.0000 0.03900  0.34370  0.09910  Biso   1.000  C
  C42      1.0000 0.12504  0.27922  0.08030  Biso   1.000  C
  C43      1.0000 0.23529  0.29302  0.04740  Biso   1.000  C
  C44      1.0000 0.25717  0.37086  0.03420  Biso   1.000  C
  C45      1.0000 0.16639  0.43482  0.05280  Biso   1.000  C
  C46      1.0000 0.32298  0.22460  0.02524  Biso   1.000  C
  C47      1.0000 0.74395  0.52620  0.08670  Biso   1.000  C
  C48      1.0000 0.63574  0.59852  0.09000  Biso   1.000  C
  C49      1.0000 0.50090  0.61070  0.07730  Biso   1.000  C
  C50      1.0000 0.46690  0.55340  0.06100  Biso   1.000  C
  C51      1.0000 0.57290  0.48050  0.05670  Biso   1.000  C
  C52      1.0000 0.70760  0.46940  0.06900  Biso   1.000  C
  C53      1.0000 0.90690  0.48240  0.16960  Biso   1.000  C
  C54      1.0000 0.00570  0.42390  0.19510  Biso   1.000  C
  C55      1.0000 0.99170  0.40520  0.23940  Biso   1.000  C
  C56      1.0000 0.88360  0.45170  0.26210  Biso   1.000  C
  C57      1.0000 0.79260  0.51850  0.23870  Biso   1.000  C
  C58      1.0000 0.80050  0.53110  0.19350  Biso   1.000  C
  C59      1.0000 0.98639  0.60548  0.09094  Biso   1.000  C
  C60      1.0000 0.95373  0.65984  0.05170  Biso   1.000  C
  C61      1.0000 0.00426  0.72998  0.03870  Biso   1.000  C
  C62      1.0000 0.09416  0.74440  0.06408  Biso   1.000  C
  C63      1.0000 0.12816  0.69156  0.10312  Biso   1.000  C
  C64      1.0000 0.07335  0.62339  0.11671  Biso   1.000  C
  C65      1.0000 0.16116  0.81563  0.04925  Biso   1.000  C
  C66      1.0000 0.10570  0.21350  0.79870  Biso   1.000  C
  C67      1.0000 0.07817  0.15376  0.83450  Biso   1.000  C
  C68      1.0000 0.14911  0.13435  0.87163  Biso   1.000  C
  C69      1.0000 0.25186  0.17235  0.87513  Biso   1.000  C
  C70      1.0000 0.28080  0.23310  0.84050  Biso   1.000  C
  C71      1.0000 0.20790  0.25310  0.80330  Biso   1.000  C
  C72      1.0000 0.33043  0.15222  0.91492  Biso   1.000  C
  C73      1.0000 0.83980  0.33300  0.76340  Biso   1.000  C
  C74      1.0000 0.71450  0.31470  0.78610  Biso   1.000  C
  C75      1.0000 0.59940  0.37060  0.80140  Biso   1.000  C
  C76      1.0000 0.60730  0.44710  0.79490  Biso   1.000  C
  C77      1.0000 0.72790  0.47080  0.77220  Biso   1.000  C
  C78      1.0000 0.84490  0.41170  0.75690  Biso   1.000  C
  C79      1.0000 0.43583  0.92334  0.58540  Biso   1.000  C
  C80      1.0000 0.51820  0.84370  0.59910  Biso   1.000  C
  C81      1.0000 0.51544  0.77922  0.58030  Biso   1.000  C
  C82      1.0000 0.42429  0.79302  0.54740  Biso   1.000  C
  C83      1.0000 0.33777  0.87086  0.53420  Biso   1.000  C
  C84      1.0000 0.34599  0.93482  0.55280  Biso   1.000  C
  C85      1.0000 0.42718  0.72460  0.52524  Biso   1.000  C
  C86      1.0000 0.64315  0.02620  0.58670  Biso   1.000  C
  C87      1.0000 0.67574  0.09852  0.59000  Biso   1.000  C
  C88      1.0000 0.81110  0.11070  0.57730  Biso   1.000  C
  C89      1.0000 0.91870  0.05340  0.56100  Biso   1.000  C
  C90      1.0000 0.88990  0.98050  0.55670  Biso   1.000  C
  C91      1.0000 0.75400  0.96940  0.56900  Biso   1.000  C
  C92      1.0000 0.44110  0.98240  0.66960  Biso   1.000  C
  C93      1.0000 0.37530  0.92390  0.69510  Biso   1.000  C
  C94      1.0000 0.36370  0.90520  0.73940  Biso   1.000  C
  C95      1.0000 0.40260  0.95170  0.76210  Biso   1.000  C
  C96      1.0000 0.45020  0.01850  0.73870  Biso   1.000  C
  C97      1.0000 0.47490  0.03110  0.69350  Biso   1.000  C
  C98      1.0000 0.31719  0.10548  0.59094  Biso   1.000  C
  C99      1.0000 0.33473  0.15984  0.55170  Biso   1.000  C
  C100     1.0000 0.22706  0.22998  0.53870  Biso   1.000  C
  C101     1.0000 0.09736  0.24440  0.56408  Biso   1.000  C
  C102     1.0000 0.07716  0.19156  0.60312  Biso   1.000  C
  C103     1.0000 0.18655  0.12339  0.61671  Biso   1.000  C
  C104     1.0000 0.97396  0.31563  0.54925  Biso   1.000  C
  C105     1.0000 0.88210  0.71350  0.29870  Biso   1.000  C
  C106     1.0000 0.93357  0.65376  0.33450  Biso   1.000  C
  C107     1.0000 0.84491  0.63435  0.37163  Biso   1.000  C
  C108     1.0000 0.70066  0.67235  0.37513  Biso   1.000  C
  C109     1.0000 0.64560  0.73310  0.34050  Biso   1.000  C
  C110     1.0000 0.73570  0.75310  0.30330  Biso   1.000  C
  C111     1.0000 0.60243  0.65222  0.41492  Biso   1.000  C
  C112     1.0000 0.06380  0.83300  0.26340  Biso   1.000  C
  C113     1.0000 0.18470  0.81470  0.28610  Biso   1.000  C
  C114     1.0000 0.22860  0.87060  0.30140  Biso   1.000  C
  C115     1.0000 0.15070  0.94710  0.29490  Biso   1.000  C
  C116     1.0000 0.02910  0.97080  0.27220  Biso   1.000  C
  C117     1.0000 0.98650  0.91170  0.25690  Biso   1.000  C
  C118     1.0000 0.94457  0.57666  0.91460  Biso   1.000  C
  C119     1.0000 0.96100  0.65630  0.90090  Biso   1.000  C
  C120     1.0000 0.87496  0.72078  0.91970  Biso   1.000  C
  C121     1.0000 0.76471  0.70698  0.95260  Biso   1.000  C
  C122     1.0000 0.74283  0.62914  0.96580  Biso   1.000  C
  C123     1.0000 0.83361  0.56518  0.94720  Biso   1.000  C
  C124     1.0000 0.67702  0.77540  0.97476  Biso   1.000  C
  C125     1.0000 0.25605  0.47380  0.91330  Biso   1.000  C
  C126     1.0000 0.36426  0.40148  0.91000  Biso   1.000  C
  C127     1.0000 0.49910  0.38930  0.92270  Biso   1.000  C
  C128     1.0000 0.53310  0.44660  0.93900  Biso   1.000  C
  C129     1.0000 0.42710  0.51950  0.94330  Biso   1.000  C
  C130     1.0000 0.29240  0.53060  0.93100  Biso   1.000  C
  C131     1.0000 0.09310  0.51760  0.83040  Biso   1.000  C
  C132     1.0000 0.99430  0.57610  0.80490  Biso   1.000  C
  C133     1.0000 0.00830  0.59480  0.76060  Biso   1.000  C
  C134     1.0000 0.11640  0.54830  0.73790  Biso   1.000  C
  C135     1.0000 0.20740  0.48150  0.76130  Biso   1.000  C
  C136     1.0000 0.19950  0.46890  0.80650  Biso   1.000  C
  C137     1.0000 0.01361  0.39452  0.90906  Biso   1.000  C
  C138     1.0000 0.04627  0.34016  0.94830  Biso   1.000  C
  C139     1.0000 0.99574  0.27002  0.96130  Biso   1.000  C
  C140     1.0000 0.90584  0.25560  0.93592  Biso   1.000  C
  C141     1.0000 0.87184  0.30844  0.89688  Biso   1.000  C
  C142     1.0000 0.92665  0.37661  0.88329  Biso   1.000  C
  C143     1.0000 0.83884  0.18437  0.95075  Biso   1.000  C
  C144     1.0000 0.89430  0.78650  0.20130  Biso   1.000  C
  C145     1.0000 0.92183  0.84624  0.16550  Biso   1.000  C
  C146     1.0000 0.85089  0.86565  0.12837  Biso   1.000  C
  C147     1.0000 0.74814  0.82765  0.12487  Biso   1.000  C
  C148     1.0000 0.71920  0.76690  0.15950  Biso   1.000  C
  C149     1.0000 0.79210  0.74690  0.19670  Biso   1.000  C
  C150     1.0000 0.66957  0.84778  0.08508  Biso   1.000  C
  C151     1.0000 0.16020  0.66700  0.23660  Biso   1.000  C
  C152     1.0000 0.28550  0.68530  0.21390  Biso   1.000  C
  C153     1.0000 0.40060  0.62940  0.19860  Biso   1.000  C
  C154     1.0000 0.39270  0.55290  0.20510  Biso   1.000  C
  C155     1.0000 0.27210  0.52920  0.22780  Biso   1.000  C
  C156     1.0000 0.15510  0.58830  0.24310  Biso   1.000  C
  O1       1.0000 0.18774  0.46560  0.47752  Biso   1.000  O
  O2       1.0000 0.46760  0.33746  0.46874  Biso   1.000  O
  O3       1.0000 0.67262  0.26420  0.49856  Biso   1.000  O
  O4       1.0000 0.15165  0.69416  0.43494  Biso   1.000  O
  O5       1.0000 0.00388  0.62303  0.47661  Biso   1.000  O
  O6       1.0000 0.62548  0.44090  0.49554  Biso   1.000  O
  O7       1.0000 0.53147  0.31202  0.58604  Biso   1.000  O
  O8       1.0000 0.34401  0.39988  0.55310  Biso   1.000  O
  O9       1.0000 0.13086  0.03440  0.02248  Biso   1.000  O
  O10      1.0000 0.27380  0.16254  0.03126  Biso   1.000  O
  O11      1.0000 0.43538  0.23580  0.00144  Biso   1.000  O
  O12      1.0000 0.28075  0.80584  0.06506  Biso   1.000  O
  O13      1.0000 0.10352  0.87697  0.02339  Biso   1.000  O
  O14      1.0000 0.56192  0.05910  0.00446  Biso   1.000  O
  O15      1.0000 0.42953  0.18798  0.91396  Biso   1.000  O
  O16      1.0000 0.29699  0.10012  0.94690  Biso   1.000  O
  O17      1.0000 0.81226  0.53440  0.52248  Biso   1.000  O
  O18      1.0000 0.53240  0.66254  0.53126  Biso   1.000  O
  O19      1.0000 0.32738  0.73580  0.50144  Biso   1.000  O
  O20      1.0000 0.84835  0.30584  0.56506  Biso   1.000  O
  O21      1.0000 0.99612  0.37697  0.52339  Biso   1.000  O
  O22      1.0000 0.37452  0.55910  0.50446  Biso   1.000  O
  O23      1.0000 0.46853  0.68798  0.41396  Biso   1.000  O
  O24      1.0000 0.65599  0.60012  0.44690  Biso   1.000  O
  O25      1.0000 0.86914  0.96560  0.97752  Biso   1.000  O
  O26      1.0000 0.72620  0.83746  0.96874  Biso   1.000  O
  O27      1.0000 0.56462  0.76420  0.99856  Biso   1.000  O
  O28      1.0000 0.71925  0.19416  0.93494  Biso   1.000  O
  O29      1.0000 0.89648  0.12303  0.97661  Biso   1.000  O
  O30      1.0000 0.43808  0.94090  0.99554  Biso   1.000  O
  O31      1.0000 0.57047  0.81202  0.08604  Biso   1.000  O
  O32      1.0000 0.70301  0.89988  0.05310  Biso   1.000  O
