data_XOTXUB_freeONLY
_audit_creation_date              2015-10-16
_audit_creation_method            'Materials Studio'
_symmetry_space_group_name_H-M    'P1'
_symmetry_Int_Tables_number       1
_symmetry_cell_setting            triclinic
loop_
_symmetry_equiv_pos_as_xyz
  x,y,z
_cell_length_a                    5.5010
_cell_length_b                    22.2970
_cell_length_c                    20.7990
_cell_angle_alpha                 97.5430
_cell_angle_beta                  90.0000
_cell_angle_gamma                 90.0000
loop_
_atom_site_label
_atom_site_type_symbol
_atom_site_fract_x
_atom_site_fract_y
_atom_site_fract_z
_atom_site_U_iso_or_equiv
_atom_site_adp_type
_atom_site_occupancy
Mn1    Mn    0.31180   0.21215   0.29929   0.01267  Uiso   1.00
Mn2    Mn    0.68820   0.78785   0.70071   0.01267  Uiso   1.00
Mn3    Mn    0.81180   0.78785   0.20071   0.01267  Uiso   1.00
Mn4    Mn    0.18820   0.21215   0.79929   0.01267  Uiso   1.00
H1     H     0.05850   0.83830   0.11620   0.01267  Uiso   1.00
H2     H     0.45550   0.49220   0.39230   0.01267  Uiso   1.00
H3     H     0.72610   0.91460   0.47250   0.01267  Uiso   1.00
H4     H     0.25270   0.70380   0.10760   0.01267  Uiso   1.00
H5     H     0.26260   0.59490   0.57110   0.01267  Uiso   1.00
H6     H     0.55850   0.16170   0.38380   0.01267  Uiso   1.00
H7     H     0.02000   0.11500   0.67520   0.01267  Uiso   1.00
H8     H     0.75270   0.29620   0.39240   0.01267  Uiso   1.00
H9     H     0.20260   0.28140   0.54220   0.01267  Uiso   1.00
H10    H     0.50590   0.97780   0.90630   0.01267  Uiso   1.00
H11    H     0.27240   0.47100   0.85020   0.01267  Uiso   1.00
H12    H     0.77240   0.52900   0.64980   0.01267  Uiso   1.00
H13    H     0.35980   0.35630   0.83070   0.01267  Uiso   1.00
H14    H     0.72760   0.52900   0.14980   0.01267  Uiso   1.00
H15    H     0.45210   0.27220   0.72740   0.01267  Uiso   1.00
H16    H     0.79740   0.71860   0.45780   0.01267  Uiso   1.00
H17    H     0.42890   0.17750   0.06520   0.01267  Uiso   1.00
H18    H     0.56580   0.35090   0.09580   0.01267  Uiso   1.00
H19    H     0.52000   0.88500   0.82480   0.01267  Uiso   1.00
H20    H     0.56300   0.68790   0.01060   0.01267  Uiso   1.00
H21    H     0.16400   0.71070   0.85120   0.01267  Uiso   1.00
H22    H     0.22760   0.47100   0.35020   0.01267  Uiso   1.00
H23    H     0.86620   0.14280   0.52280   0.01267  Uiso   1.00
H24    H     0.76260   0.40510   0.92890   0.01267  Uiso   1.00
H25    H     0.20780   0.42670   0.00700   0.01267  Uiso   1.00
H26    H     0.54110   0.54320   0.90610   0.01267  Uiso   1.00
H27    H     0.13380   0.85720   0.47720   0.01267  Uiso   1.00
H28    H     0.25620   0.82570   0.14560   0.01267  Uiso   1.00
H29    H     0.12150   0.75570   0.75800   0.01267  Uiso   1.00
H30    H     0.73740   0.40510   0.42890   0.01267  Uiso   1.00
H31    H     0.87020   0.03430   0.38260   0.01267  Uiso   1.00
H32    H     0.78340   0.32370   0.05290   0.01267  Uiso   1.00
H33    H     0.29740   0.28140   0.04220   0.01267  Uiso   1.00
H34    H     0.20550   0.81770   0.87550   0.01267  Uiso   1.00
H35    H     0.71660   0.32370   0.55290   0.01267  Uiso   1.00
H36    H     0.95210   0.72780   0.77260   0.01267  Uiso   1.00
H37    H     0.36620   0.85720   0.97720   0.01267  Uiso   1.00
H38    H     0.63380   0.14280   0.02280   0.01267  Uiso   1.00
H39    H     0.45400   0.91940   0.55600   0.01267  Uiso   1.00
H40    H     0.57110   0.82250   0.93480   0.01267  Uiso   1.00
H41    H     0.99410   0.97780   0.40630   0.01267  Uiso   1.00
H42    H     0.94150   0.16170   0.88380   0.01267  Uiso   1.00
H43    H     0.43420   0.64910   0.90420   0.01267  Uiso   1.00
H44    H     0.19860   0.77120   0.53010   0.01267  Uiso   1.00
H45    H     0.21660   0.67630   0.94710   0.01267  Uiso   1.00
H46    H     0.54790   0.72780   0.27260   0.01267  Uiso   1.00
H47    H     0.04110   0.45680   0.59390   0.01267  Uiso   1.00
H48    H     0.95400   0.08060   0.94400   0.01267  Uiso   1.00
H49    H     0.62980   0.03430   0.88260   0.01267  Uiso   1.00
H50    H     0.54600   0.08060   0.44400   0.01267  Uiso   1.00
H51    H     0.44640   0.99810   0.30560   0.01267  Uiso   1.00
H52    H     0.83600   0.28930   0.14880   0.01267  Uiso   1.00
H53    H     0.09120   0.91110   0.72170   0.01267  Uiso   1.00
H54    H     0.55360   0.00190   0.69440   0.01267  Uiso   1.00
H55    H     0.79450   0.18230   0.12450   0.01267  Uiso   1.00
H56    H     0.49410   0.02220   0.09370   0.01267  Uiso   1.00
H57    H     0.93700   0.68790   0.51060   0.01267  Uiso   1.00
H58    H     0.74730   0.29620   0.89240   0.01267  Uiso   1.00
H59    H     0.95550   0.50780   0.10770   0.01267  Uiso   1.00
H60    H     0.59120   0.08890   0.77830   0.01267  Uiso   1.00
H61    H     0.33600   0.71070   0.35120   0.01267  Uiso   1.00
H62    H     0.07110   0.17750   0.56520   0.01267  Uiso   1.00
H63    H     0.06300   0.31210   0.48940   0.01267  Uiso   1.00
H64    H     0.70260   0.71860   0.95780   0.01267  Uiso   1.00
H65    H     0.98000   0.88500   0.32480   0.01267  Uiso   1.00
H66    H     0.37020   0.96570   0.11740   0.01267  Uiso   1.00
H67    H     0.92890   0.82250   0.43480   0.01267  Uiso   1.00
H68    H     0.28340   0.67630   0.44710   0.01267  Uiso   1.00
H69    H     0.90880   0.08890   0.27830   0.01267  Uiso   1.00
H70    H     0.69860   0.22880   0.96990   0.01267  Uiso   1.00
H71    H     0.44150   0.83830   0.61620   0.01267  Uiso   1.00
H72    H     0.24730   0.70380   0.60760   0.01267  Uiso   1.00
H73    H     0.07410   0.78770   0.93020   0.01267  Uiso   1.00
H74    H     0.70550   0.18230   0.62450   0.01267  Uiso   1.00
H75    H     0.74380   0.17430   0.85440   0.01267  Uiso   1.00
H76    H     0.64020   0.64370   0.16930   0.01267  Uiso   1.00
H77    H     0.95890   0.54320   0.40610   0.01267  Uiso   1.00
H78    H     0.92590   0.21230   0.06980   0.01267  Uiso   1.00
H79    H     0.80140   0.22880   0.46990   0.01267  Uiso   1.00
H80    H     0.04790   0.27220   0.22740   0.01267  Uiso   1.00
H81    H     0.75620   0.17430   0.35440   0.01267  Uiso   1.00
H82    H     0.94640   0.00190   0.19440   0.01267  Uiso   1.00
H83    H     0.87850   0.24430   0.24200   0.01267  Uiso   1.00
H84    H     0.42590   0.78770   0.43020   0.01267  Uiso   1.00
H85    H     0.40880   0.91110   0.22170   0.01267  Uiso   1.00
H86    H     0.00590   0.02220   0.59370   0.01267  Uiso   1.00
H87    H     0.77390   0.91460   0.97250   0.01267  Uiso   1.00
H88    H     0.24380   0.82570   0.64560   0.01267  Uiso   1.00
H89    H     0.29450   0.81770   0.37550   0.01267  Uiso   1.00
H90    H     0.45890   0.45680   0.09390   0.01267  Uiso   1.00
H91    H     0.23740   0.59490   0.07110   0.01267  Uiso   1.00
H92    H     0.62150   0.24430   0.74200   0.01267  Uiso   1.00
H93    H     0.27390   0.08540   0.52750   0.01267  Uiso   1.00
H94    H     0.04450   0.49220   0.89230   0.01267  Uiso   1.00
H95    H     0.14020   0.35630   0.33070   0.01267  Uiso   1.00
H96    H     0.57410   0.21230   0.56980   0.01267  Uiso   1.00
H97    H     0.79220   0.57330   0.99300   0.01267  Uiso   1.00
H98    H     0.66400   0.28930   0.64880   0.01267  Uiso   1.00
H99    H     0.22610   0.08540   0.02750   0.01267  Uiso   1.00
H100   H     0.12980   0.96570   0.61740   0.01267  Uiso   1.00
H101   H     0.48000   0.11500   0.17520   0.01267  Uiso   1.00
H102   H     0.05360   0.99810   0.80560   0.01267  Uiso   1.00
H103   H     0.43700   0.31210   0.98940   0.01267  Uiso   1.00
H104   H     0.29220   0.42670   0.50700   0.01267  Uiso   1.00
H105   H     0.04600   0.91940   0.05600   0.01267  Uiso   1.00
H106   H     0.70780   0.57330   0.49300   0.01267  Uiso   1.00
H107   H     0.06580   0.64910   0.40420   0.01267  Uiso   1.00
H108   H     0.37850   0.75570   0.25800   0.01267  Uiso   1.00
H109   H     0.93420   0.35090   0.59580   0.01267  Uiso   1.00
H110   H     0.85980   0.64370   0.66930   0.01267  Uiso   1.00
H111   H     0.30140   0.77120   0.03010   0.01267  Uiso   1.00
H112   H     0.54450   0.50780   0.60770   0.01267  Uiso   1.00
C1     C     0.27190   0.79090   0.40821   0.01267  Uiso   1.00
C2     C     0.47110   0.95260   0.53360   0.01267  Uiso   1.00
C3     C     0.50720   0.73284   0.82564   0.01267  Uiso   1.00
C4     C     0.63570   0.80190   0.06148   0.01267  Uiso   1.00
C5     C     0.36510   0.05040   0.51680   0.01267  Uiso   1.00
C6     C     0.47000   0.08340   0.74690   0.01267  Uiso   1.00
C7     C     0.45520   0.28550   0.02236   0.01267  Uiso   1.00
C8     C     0.47610   0.47427   0.05590   0.01267  Uiso   1.00
C9     C     0.15940   0.00620   0.60680   0.01267  Uiso   1.00
C10    C     0.18320   0.46510   0.88910   0.01267  Uiso   1.00
C11    C     0.99280   0.73284   0.32564   0.01267  Uiso   1.00
C12    C     0.77190   0.20910   0.09179   0.01267  Uiso   1.00
C13    C     0.58100   0.18240   0.04291   0.01267  Uiso   1.00
C14    C     0.36570   0.68640   0.92600   0.01267  Uiso   1.00
C15    C     0.84680   0.51790   0.55230   0.01267  Uiso   1.00
C16    C     0.38040   0.61770   0.59520   0.01267  Uiso   1.00
C17    C     0.13430   0.68640   0.42600   0.01267  Uiso   1.00
C18    C     0.04160   0.77655   0.50929   0.01267  Uiso   1.00
C19    C     0.55000   0.96490   0.29940   0.01267  Uiso   1.00
C20    C     0.68320   0.53490   0.61090   0.01267  Uiso   1.00
C21    C     0.65940   0.99380   0.89320   0.01267  Uiso   1.00
C22    C     0.70910   0.64550   0.64940   0.01267  Uiso   1.00
C23    C     0.54480   0.71450   0.97764   0.01267  Uiso   1.00
C24    C     0.11960   0.61770   0.09520   0.01267  Uiso   1.00
C25    C     0.84060   0.99380   0.39320   0.01267  Uiso   1.00
C26    C     0.87410   0.32190   0.88460   0.01267  Uiso   1.00
C27    C     0.82470   0.54370   0.49610   0.01267  Uiso   1.00
C28    C     0.79090   0.64550   0.14940   0.01267  Uiso   1.00
C29    C     0.05000   0.03510   0.20060   0.01267  Uiso   1.00
C30    C     0.29090   0.35450   0.35060   0.01267  Uiso   1.00
C31    C     0.52890   0.04740   0.46640   0.01267  Uiso   1.00
C32    C     0.61960   0.38230   0.40480   0.01267  Uiso   1.00
C33    C     0.33370   0.00270   0.55150   0.01267  Uiso   1.00
C34    C     0.45000   0.03510   0.70060   0.01267  Uiso   1.00
C35    C     0.88040   0.38230   0.90480   0.01267  Uiso   1.00
C36    C     0.00720   0.26716   0.67436   0.01267  Uiso   1.00
C37    C     0.97000   0.91660   0.75310   0.01267  Uiso   1.00
C38    C     0.95520   0.71450   0.47764   0.01267  Uiso   1.00
C39    C     0.13490   0.05040   0.01680   0.01267  Uiso   1.00
C40    C     0.20910   0.35450   0.85060   0.01267  Uiso   1.00
C41    C     0.04480   0.28550   0.52236   0.01267  Uiso   1.00
C42    C     0.54160   0.22345   0.99071   0.01267  Uiso   1.00
C43    C     0.52390   0.52573   0.94410   0.01267  Uiso   1.00
C44    C     0.95000   0.96490   0.79940   0.01267  Uiso   1.00
C45    C     0.15320   0.48210   0.44770   0.01267  Uiso   1.00
C46    C     0.81680   0.53490   0.11090   0.01267  Uiso   1.00
C47    C     0.63430   0.31360   0.07400   0.01267  Uiso   1.00
C48    C     0.86570   0.31360   0.57400   0.01267  Uiso   1.00
C49    C     0.80560   0.27170   0.62461   0.01267  Uiso   1.00
C50    C     0.69440   0.27170   0.12461   0.01267  Uiso   1.00
C51    C     0.97610   0.52573   0.44410   0.01267  Uiso   1.00
C52    C     0.19440   0.72830   0.37539   0.01267  Uiso   1.00
C53    C     0.83370   0.99730   0.94850   0.01267  Uiso   1.00
C54    C     0.66630   0.99730   0.44850   0.01267  Uiso   1.00
C55    C     0.37410   0.67810   0.61540   0.01267  Uiso   1.00
C56    C     0.02390   0.47427   0.55590   0.01267  Uiso   1.00
C57    C     0.03000   0.08340   0.24690   0.01267  Uiso   1.00
C58    C     0.45840   0.77655   0.00929   0.01267  Uiso   1.00
C59    C     0.95840   0.22345   0.49071   0.01267  Uiso   1.00
C60    C     0.86510   0.94960   0.98320   0.01267  Uiso   1.00
C61    C     0.49280   0.26716   0.17436   0.01267  Uiso   1.00
C62    C     0.22810   0.79090   0.90821   0.01267  Uiso   1.00
C63    C     0.34060   0.00620   0.10680   0.01267  Uiso   1.00
C64    C     0.08100   0.81760   0.45709   0.01267  Uiso   1.00
C65    C     0.86430   0.80190   0.56148   0.01267  Uiso   1.00
C66    C     0.41900   0.81760   0.95709   0.01267  Uiso   1.00
C67    C     0.97110   0.04740   0.96640   0.01267  Uiso   1.00
C68    C     0.34170   0.09770   0.19070   0.01267  Uiso   1.00
C69    C     0.84170   0.90230   0.30930   0.01267  Uiso   1.00
C70    C     0.91900   0.18240   0.54291   0.01267  Uiso   1.00
C71    C     0.12590   0.67810   0.11540   0.01267  Uiso   1.00
C72    C     0.36430   0.19810   0.93852   0.01267  Uiso   1.00
C73    C     0.62590   0.32190   0.38460   0.01267  Uiso   1.00
C74    C     0.17530   0.45630   0.50390   0.01267  Uiso   1.00
C75    C     0.72810   0.20910   0.59179   0.01267  Uiso   1.00
C76    C     0.02890   0.95260   0.03360   0.01267  Uiso   1.00
C77    C     0.32470   0.45630   0.00390   0.01267  Uiso   1.00
C78    C     0.16630   0.00270   0.05150   0.01267  Uiso   1.00
C79    C     0.13570   0.19810   0.43852   0.01267  Uiso   1.00
C80    C     0.67530   0.54370   0.99610   0.01267  Uiso   1.00
C81    C     0.31680   0.46510   0.38910   0.01267  Uiso   1.00
C82    C     0.65320   0.51790   0.05230   0.01267  Uiso   1.00
C83    C     0.30560   0.72830   0.87539   0.01267  Uiso   1.00
C84    C     0.15830   0.09770   0.69070   0.01267  Uiso   1.00
C85    C     0.53000   0.91660   0.25310   0.01267  Uiso   1.00
C86    C     0.34680   0.48210   0.94770   0.01267  Uiso   1.00
C87    C     0.63490   0.94960   0.48320   0.01267  Uiso   1.00
C88    C     0.65830   0.90230   0.80930   0.01267  Uiso   1.00
N1     N     0.24890   0.04426   0.66456   0.01267  Uiso   1.00
N2     N     0.41720   0.30417   0.35083   0.01267  Uiso   1.00
N3     N     0.21520   0.12315   0.24049   0.01267  Uiso   1.00
N4     N     0.25110   0.04426   0.16456   0.01267  Uiso   1.00
N5     N     0.08280   0.30417   0.85083   0.01267  Uiso   1.00
N6     N     0.40500   0.40269   0.38250   0.01267  Uiso   1.00
N7     N     0.59500   0.59731   0.61750   0.01267  Uiso   1.00
N8     N     0.58280   0.69583   0.64917   0.01267  Uiso   1.00
N9     N     0.09500   0.40269   0.88250   0.01267  Uiso   1.00
N10    N     0.91720   0.69583   0.14917   0.01267  Uiso   1.00
N11    N     0.75110   0.95574   0.33544   0.01267  Uiso   1.00
N12    N     0.74890   0.95574   0.83544   0.01267  Uiso   1.00
N13    N     0.90500   0.59731   0.11750   0.01267  Uiso   1.00
N14    N     0.71520   0.87685   0.25951   0.01267  Uiso   1.00
N15    N     0.78480   0.87685   0.75951   0.01267  Uiso   1.00
N16    N     0.28480   0.12315   0.74049   0.01267  Uiso   1.00
O1     O     0.49420   0.25907   0.76068   0.01267  Uiso   1.00
O2     O     0.33970   0.18131   0.45509   0.01267  Uiso   1.00
O3     O     0.66030   0.81869   0.54491   0.01267  Uiso   1.00
O4     O     0.57170   0.80225   0.12041   0.01267  Uiso   1.00
O5     O     0.46420   0.76826   0.78331   0.01267  Uiso   1.00
O6     O     0.07170   0.19775   0.37959   0.01267  Uiso   1.00
O7     O     0.96420   0.23174   0.71669   0.01267  Uiso   1.00
O8     O     0.53580   0.23174   0.21669   0.01267  Uiso   1.00
O9     O     0.03580   0.76826   0.28331   0.01267  Uiso   1.00
O10    O     0.92830   0.80225   0.62041   0.01267  Uiso   1.00
O11    O     0.00580   0.25907   0.26068   0.01267  Uiso   1.00
O12    O     0.50580   0.74093   0.23932   0.01267  Uiso   1.00
O13    O     0.60440   0.16793   0.34773   0.01267  Uiso   1.00
O14    O     0.39560   0.83207   0.65227   0.01267  Uiso   1.00
O15    O     0.99420   0.74093   0.73932   0.01267  Uiso   1.00
O16    O     0.19760   0.29659   0.67296   0.01267  Uiso   1.00
O17    O     0.80240   0.70341   0.32704   0.01267  Uiso   1.00
O18    O     0.42830   0.19775   0.87959   0.01267  Uiso   1.00
O19    O     0.16030   0.18131   0.95509   0.01267  Uiso   1.00
O20    O     0.69760   0.70341   0.82704   0.01267  Uiso   1.00
O21    O     0.89560   0.16793   0.84773   0.01267  Uiso   1.00
O22    O     0.83970   0.81869   0.04491   0.01267  Uiso   1.00
O23    O     0.10440   0.83207   0.15227   0.01267  Uiso   1.00
O24    O     0.30240   0.29659   0.17296   0.01267  Uiso   1.00
