data_image0
_cell_length_a       6.4467
_cell_length_b       16.6485
_cell_length_c       21.6974
_cell_angle_alpha    90
_cell_angle_beta     90
_cell_angle_gamma    91.283

_symmetry_space_group_name_H-M    P 1
_symmetry_int_tables_number       1

loop_
  _symmetry_equiv_pos_as_xyz
  'x, y, z'

loop_
  _atom_site_label
  _atom_site_occupancy
  _atom_site_fract_x
  _atom_site_fract_y
  _atom_site_fract_z
  _atom_site_thermal_displace_type
  _atom_site_B_iso_or_equiv
  _atom_site_type_symbol
  Na1      1.0000 0.61170  0.53804  0.92583  Biso   1.000  Na
  Na2      1.0000 0.38830  0.96196  0.42583  Biso   1.000  Na
  Na3      1.0000 0.38830  0.46196  0.07417  Biso   1.000  Na
  Na4      1.0000 0.61170  0.03804  0.57417  Biso   1.000  Na
  La1      1.0000 0.56246  0.78069  0.92227  Biso   1.000  La
  La2      1.0000 0.43754  0.71931  0.42227  Biso   1.000  La
  La3      1.0000 0.43754  0.21931  0.07773  Biso   1.000  La
  La4      1.0000 0.56246  0.28069  0.57773  Biso   1.000  La
  H1       1.0000 0.54350  0.64500  0.70720  Biso   1.000  H
  H2       1.0000 0.59700  0.64640  0.60130  Biso   1.000  H
  H3       1.0000 0.40340  0.84670  0.74540  Biso   1.000  H
  H4       1.0000 0.45760  0.84630  0.63990  Biso   1.000  H
  H5       1.0000 0.45650  0.85500  0.20720  Biso   1.000  H
  H6       1.0000 0.40300  0.85360  0.10130  Biso   1.000  H
  H7       1.0000 0.59660  0.65330  0.24540  Biso   1.000  H
  H8       1.0000 0.54240  0.65370  0.13990  Biso   1.000  H
  H9       1.0000 0.45650  0.35500  0.29280  Biso   1.000  H
  H10      1.0000 0.40300  0.35360  0.39870  Biso   1.000  H
  H11      1.0000 0.59660  0.15330  0.25460  Biso   1.000  H
  H12      1.0000 0.54240  0.15370  0.36010  Biso   1.000  H
  H13      1.0000 0.54350  0.14500  0.79280  Biso   1.000  H
  H14      1.0000 0.59700  0.14640  0.89870  Biso   1.000  H
  H15      1.0000 0.40340  0.34670  0.75460  Biso   1.000  H
  H16      1.0000 0.45760  0.34630  0.86010  Biso   1.000  H
  C1       1.0000 0.79410  0.71288  0.72982  Biso   1.000  C
  C2       1.0000 0.65740  0.67290  0.69091  Biso   1.000  C
  C3       1.0000 0.68940  0.67400  0.62699  Biso   1.000  C
  C4       1.0000 0.85460  0.71516  0.60207  Biso   1.000  C
  C5       1.0000 0.01850  0.74562  0.64147  Biso   1.000  C
  C6       1.0000 0.98670  0.74445  0.70626  Biso   1.000  C
  C7       1.0000 0.14890  0.77600  0.74568  Biso   1.000  C
  C8       1.0000 0.31220  0.81787  0.72004  Biso   1.000  C
  C9       1.0000 0.34440  0.81810  0.65625  Biso   1.000  C
  C10      1.0000 0.21130  0.77719  0.61763  Biso   1.000  C
  C11      1.0000 0.71450  0.73425  0.79249  Biso   1.000  C
  C12      1.0000 0.83570  0.74082  0.53582  Biso   1.000  C
  C13      1.0000 0.16680  0.75214  0.81252  Biso   1.000  C
  C14      1.0000 0.29020  0.75670  0.55443  Biso   1.000  C
  C15      1.0000 0.20590  0.78712  0.22982  Biso   1.000  C
  C16      1.0000 0.34260  0.82710  0.19091  Biso   1.000  C
  C17      1.0000 0.31060  0.82600  0.12699  Biso   1.000  C
  C18      1.0000 0.14540  0.78484  0.10207  Biso   1.000  C
  C19      1.0000 0.98150  0.75438  0.14147  Biso   1.000  C
  C20      1.0000 0.01330  0.75555  0.20626  Biso   1.000  C
  C21      1.0000 0.85110  0.72400  0.24568  Biso   1.000  C
  C22      1.0000 0.68780  0.68213  0.22004  Biso   1.000  C
  C23      1.0000 0.65560  0.68190  0.15625  Biso   1.000  C
  C24      1.0000 0.78870  0.72281  0.11763  Biso   1.000  C
  C25      1.0000 0.28550  0.76575  0.29249  Biso   1.000  C
  C26      1.0000 0.16430  0.75918  0.03582  Biso   1.000  C
  C27      1.0000 0.83320  0.74786  0.31252  Biso   1.000  C
  C28      1.0000 0.70980  0.74330  0.05443  Biso   1.000  C
  C29      1.0000 0.20590  0.28712  0.27018  Biso   1.000  C
  C30      1.0000 0.34260  0.32710  0.30909  Biso   1.000  C
  C31      1.0000 0.31060  0.32600  0.37301  Biso   1.000  C
  C32      1.0000 0.14540  0.28484  0.39793  Biso   1.000  C
  C33      1.0000 0.98150  0.25438  0.35853  Biso   1.000  C
  C34      1.0000 0.01330  0.25555  0.29374  Biso   1.000  C
  C35      1.0000 0.85110  0.22400  0.25432  Biso   1.000  C
  C36      1.0000 0.68780  0.18213  0.27996  Biso   1.000  C
  C37      1.0000 0.65560  0.18190  0.34375  Biso   1.000  C
  C38      1.0000 0.78870  0.22281  0.38237  Biso   1.000  C
  C39      1.0000 0.28550  0.26575  0.20751  Biso   1.000  C
  C40      1.0000 0.16430  0.25918  0.46418  Biso   1.000  C
  C41      1.0000 0.83320  0.24786  0.18748  Biso   1.000  C
  C42      1.0000 0.70980  0.24330  0.44557  Biso   1.000  C
  C43      1.0000 0.79410  0.21288  0.77018  Biso   1.000  C
  C44      1.0000 0.65740  0.17290  0.80909  Biso   1.000  C
  C45      1.0000 0.68940  0.17400  0.87301  Biso   1.000  C
  C46      1.0000 0.85460  0.21516  0.89793  Biso   1.000  C
  C47      1.0000 0.01850  0.24562  0.85853  Biso   1.000  C
  C48      1.0000 0.98670  0.24445  0.79374  Biso   1.000  C
  C49      1.0000 0.14890  0.27600  0.75432  Biso   1.000  C
  C50      1.0000 0.31220  0.31787  0.77996  Biso   1.000  C
  C51      1.0000 0.34440  0.31810  0.84375  Biso   1.000  C
  C52      1.0000 0.21130  0.27719  0.88237  Biso   1.000  C
  C53      1.0000 0.71450  0.23425  0.70751  Biso   1.000  C
  C54      1.0000 0.83570  0.24082  0.96418  Biso   1.000  C
  C55      1.0000 0.16680  0.25214  0.68748  Biso   1.000  C
  C56      1.0000 0.29020  0.25670  0.94557  Biso   1.000  C
  O1       1.0000 0.59450  0.68579  0.82068  Biso   1.000  O
  O2       1.0000 0.75590  0.80302  0.81412  Biso   1.000  O
  O3       1.0000 0.10190  0.68185  0.82613  Biso   1.000  O
  O4       1.0000 0.25690  0.79956  0.84943  Biso   1.000  O
  O5       1.0000 0.40650  0.80677  0.52663  Biso   1.000  O
  O6       1.0000 0.24830  0.68818  0.53208  Biso   1.000  O
  O7       1.0000 0.89850  0.81076  0.52214  Biso   1.000  O
  O8       1.0000 0.74430  0.69358  0.49790  Biso   1.000  O
  O9       1.0000 0.91450  0.85979  0.92153  Biso   1.000  O
  O10      1.0000 0.50030  0.92812  0.92018  Biso   1.000  O
  O11      1.0000 0.35450  0.64511  0.92482  Biso   1.000  O
  O12      1.0000 0.83870  0.66700  0.92387  Biso   1.000  O
  O13      1.0000 0.51820  0.52592  0.81510  Biso   1.000  O
  O14      1.0000 0.88400  0.44724  0.90163  Biso   1.000  O
  O15      1.0000 0.31220  0.46337  0.96330  Biso   1.000  O
  O16      1.0000 0.40550  0.81421  0.32068  Biso   1.000  O
  O17      1.0000 0.24410  0.69698  0.31412  Biso   1.000  O
  O18      1.0000 0.89810  0.81815  0.32613  Biso   1.000  O
  O19      1.0000 0.74310  0.70044  0.34943  Biso   1.000  O
  O20      1.0000 0.59350  0.69323  0.02663  Biso   1.000  O
  O21      1.0000 0.75170  0.81182  0.03208  Biso   1.000  O
  O22      1.0000 0.10150  0.68924  0.02214  Biso   1.000  O
  O23      1.0000 0.25570  0.80642  0.99790  Biso   1.000  O
  O24      1.0000 0.08550  0.64021  0.42153  Biso   1.000  O
  O25      1.0000 0.49970  0.57188  0.42018  Biso   1.000  O
  O26      1.0000 0.64550  0.85489  0.42482  Biso   1.000  O
  O27      1.0000 0.16130  0.83300  0.42387  Biso   1.000  O
  O28      1.0000 0.48180  0.97408  0.31510  Biso   1.000  O
  O29      1.0000 0.11600  0.05276  0.40163  Biso   1.000  O
  O30      1.0000 0.68780  0.03663  0.46330  Biso   1.000  O
  O31      1.0000 0.40550  0.31421  0.17932  Biso   1.000  O
  O32      1.0000 0.24410  0.19698  0.18588  Biso   1.000  O
  O33      1.0000 0.89810  0.31815  0.17387  Biso   1.000  O
  O34      1.0000 0.74310  0.20044  0.15057  Biso   1.000  O
  O35      1.0000 0.59350  0.19323  0.47337  Biso   1.000  O
  O36      1.0000 0.75170  0.31182  0.46792  Biso   1.000  O
  O37      1.0000 0.10150  0.18924  0.47786  Biso   1.000  O
  O38      1.0000 0.25570  0.30642  0.50210  Biso   1.000  O
  O39      1.0000 0.08550  0.14021  0.07847  Biso   1.000  O
  O40      1.0000 0.49970  0.07188  0.07982  Biso   1.000  O
  O41      1.0000 0.64550  0.35489  0.07518  Biso   1.000  O
  O42      1.0000 0.16130  0.33300  0.07613  Biso   1.000  O
  O43      1.0000 0.48180  0.47408  0.18490  Biso   1.000  O
  O44      1.0000 0.11600  0.55276  0.09837  Biso   1.000  O
  O45      1.0000 0.68780  0.53663  0.03670  Biso   1.000  O
  O46      1.0000 0.59450  0.18579  0.67932  Biso   1.000  O
  O47      1.0000 0.75590  0.30302  0.68588  Biso   1.000  O
  O48      1.0000 0.10190  0.18185  0.67387  Biso   1.000  O
  O49      1.0000 0.25690  0.29956  0.65057  Biso   1.000  O
  O50      1.0000 0.40650  0.30677  0.97337  Biso   1.000  O
  O51      1.0000 0.24830  0.18818  0.96792  Biso   1.000  O
  O52      1.0000 0.89850  0.31076  0.97786  Biso   1.000  O
  O53      1.0000 0.74430  0.19358  0.00210  Biso   1.000  O
  O54      1.0000 0.91450  0.35979  0.57847  Biso   1.000  O
  O55      1.0000 0.50030  0.42812  0.57982  Biso   1.000  O
  O56      1.0000 0.35450  0.14511  0.57518  Biso   1.000  O
  O57      1.0000 0.83870  0.16700  0.57613  Biso   1.000  O
  O58      1.0000 0.51820  0.02592  0.68490  Biso   1.000  O
  O59      1.0000 0.88400  0.94724  0.59837  Biso   1.000  O
  O60      1.0000 0.31220  0.96337  0.53670  Biso   1.000  O
