data_image0
_cell_length_a       8.6842
_cell_length_b       9.942
_cell_length_c       11.733
_cell_angle_alpha    74.67
_cell_angle_beta     69.85
_cell_angle_gamma    86.02

_symmetry_space_group_name_H-M    P 1
_symmetry_int_tables_number       1

loop_
  _symmetry_equiv_pos_as_xyz
  'x, y, z'

loop_
  _atom_site_label
  _atom_site_occupancy
  _atom_site_fract_x
  _atom_site_fract_y
  _atom_site_fract_z
  _atom_site_thermal_displace_type
  _atom_site_B_iso_or_equiv
  _atom_site_type_symbol
  Ce1      1.0000 0.74555  0.47777  0.51191  Biso   1.000  Ce
  Ce2      1.0000 0.25445  0.52223  0.48809  Biso   1.000  Ce
  H1       1.0000 0.20460  0.46200  0.83880  Biso   1.000  H
  H2       1.0000 0.23120  0.30090  0.86340  Biso   1.000  H
  H3       1.0000 0.37630  0.30720  0.99230  Biso   1.000  H
  H4       1.0000 0.37780  0.47060  0.95680  Biso   1.000  H
  H5       1.0000 0.09410  0.29900  0.10330  Biso   1.000  H
  H6       1.0000 0.08720  0.46200  0.06100  Biso   1.000  H
  H7       1.0000 0.26650  0.47220  0.17260  Biso   1.000  H
  H8       1.0000 0.24250  0.31080  0.22620  Biso   1.000  H
  H9       1.0000 0.97840  0.87650  0.59780  Biso   1.000  H
  H10      1.0000 0.03670  0.01980  0.60290  Biso   1.000  H
  H11      1.0000 0.75620  0.98170  0.72030  Biso   1.000  H
  H12      1.0000 0.72010  0.96760  0.60190  Biso   1.000  H
  H13      1.0000 0.66440  0.70860  0.64060  Biso   1.000  H
  H14      1.0000 0.52900  0.65920  0.62790  Biso   1.000  H
  H15      1.0000 0.96820  0.71530  0.34690  Biso   1.000  H
  H16      1.0000 0.87870  0.70090  0.27440  Biso   1.000  H
  H17      1.0000 0.79540  0.53800  0.16120  Biso   1.000  H
  H18      1.0000 0.76880  0.69910  0.13660  Biso   1.000  H
  H19      1.0000 0.62370  0.69280  0.00770  Biso   1.000  H
  H20      1.0000 0.62220  0.52940  0.04320  Biso   1.000  H
  H21      1.0000 0.90590  0.70100  0.89670  Biso   1.000  H
  H22      1.0000 0.91280  0.53800  0.93900  Biso   1.000  H
  H23      1.0000 0.73350  0.52780  0.82740  Biso   1.000  H
  H24      1.0000 0.75750  0.68920  0.77380  Biso   1.000  H
  H25      1.0000 0.02160  0.12350  0.40220  Biso   1.000  H
  H26      1.0000 0.96330  0.98020  0.39710  Biso   1.000  H
  H27      1.0000 0.24380  0.01830  0.27970  Biso   1.000  H
  H28      1.0000 0.27990  0.03240  0.39810  Biso   1.000  H
  H29      1.0000 0.33560  0.29140  0.35940  Biso   1.000  H
  H30      1.0000 0.47100  0.34080  0.37210  Biso   1.000  H
  H31      1.0000 0.03180  0.28470  0.65310  Biso   1.000  H
  H32      1.0000 0.12130  0.29910  0.72560  Biso   1.000  H
  C1       1.0000 0.43100  0.41330  0.74030  Biso   1.000  C
  C2       1.0000 0.28170  0.38950  0.85260  Biso   1.000  C
  C3       1.0000 0.31270  0.38820  0.97150  Biso   1.000  C
  C4       1.0000 0.15500  0.38510  0.08380  Biso   1.000  C
  C5       1.0000 0.18870  0.39540  0.19780  Biso   1.000  C
  C6       1.0000 0.04760  0.41590  0.30690  Biso   1.000  C
  C7       1.0000 0.96840  0.97680  0.57140  Biso   1.000  C
  C8       1.0000 0.78930  0.01460  0.62960  Biso   1.000  C
  C9       1.0000 0.76360  0.17090  0.59390  Biso   1.000  C
  C10      1.0000 0.56900  0.58670  0.25970  Biso   1.000  C
  C11      1.0000 0.71830  0.61050  0.14740  Biso   1.000  C
  C12      1.0000 0.68730  0.61180  0.02850  Biso   1.000  C
  C13      1.0000 0.84500  0.61490  0.91620  Biso   1.000  C
  C14      1.0000 0.81130  0.60460  0.80220  Biso   1.000  C
  C15      1.0000 0.95240  0.58410  0.69310  Biso   1.000  C
  C16      1.0000 0.03160  0.02320  0.42860  Biso   1.000  C
  C17      1.0000 0.21070  0.98540  0.37040  Biso   1.000  C
  C18      1.0000 0.23640  0.82910  0.40610  Biso   1.000  C
  O1       1.0000 0.42440  0.45520  0.62800  Biso   1.000  O
  O2       1.0000 0.57430  0.39240  0.74840  Biso   1.000  O
  O3       1.0000 0.90180  0.38370  0.31580  Biso   1.000  O
  O4       1.0000 0.06550  0.46570  0.38930  Biso   1.000  O
  O5       1.0000 0.86210  0.25200  0.59970  Biso   1.000  O
  O6       1.0000 0.64250  0.21660  0.56010  Biso   1.000  O
  O7       1.0000 0.62190  0.70070  0.58630  Biso   1.000  O
  O8       1.0000 0.87040  0.70400  0.34820  Biso   1.000  O
  O9       1.0000 0.57560  0.54480  0.37200  Biso   1.000  O
  O10      1.0000 0.42570  0.60760  0.25160  Biso   1.000  O
  O11      1.0000 0.09820  0.61630  0.68420  Biso   1.000  O
  O12      1.0000 0.93450  0.53430  0.61070  Biso   1.000  O
  O13      1.0000 0.13790  0.74800  0.40030  Biso   1.000  O
  O14      1.0000 0.35750  0.78340  0.43990  Biso   1.000  O
  O15      1.0000 0.37810  0.29930  0.41370  Biso   1.000  O
  O16      1.0000 0.12960  0.29600  0.65180  Biso   1.000  O
