data_image0
_cell_length_a       9.2275
_cell_length_b       9.771
_cell_length_c       10.699
_cell_angle_alpha    67.81
_cell_angle_beta     84.49
_cell_angle_gamma    61.84

_symmetry_space_group_name_H-M    P 1
_symmetry_int_tables_number       1

loop_
  _symmetry_equiv_pos_as_xyz
  'x, y, z'

loop_
  _atom_site_label
  _atom_site_occupancy
  _atom_site_fract_x
  _atom_site_fract_y
  _atom_site_fract_z
  _atom_site_thermal_displace_type
  _atom_site_B_iso_or_equiv
  _atom_site_type_symbol
  Ce1      1.0000 0.72285  0.04384  0.98314  Biso   1.000  Ce
  Ce2      1.0000 0.27715  0.95616  0.01686  Biso   1.000  Ce
  H1       1.0000 0.10120  0.44900  0.13300  Biso   1.000  H
  H2       1.0000 0.06630  0.46070  0.27580  Biso   1.000  H
  H3       1.0000 0.88010  0.39700  0.13020  Biso   1.000  H
  H4       1.0000 0.82810  0.42600  0.26590  Biso   1.000  H
  H5       1.0000 0.13200  0.16190  0.24810  Biso   1.000  H
  H6       1.0000 0.07360  0.18890  0.38320  Biso   1.000  H
  H7       1.0000 0.85970  0.12690  0.37030  Biso   1.000  H
  H8       1.0000 0.03330  0.97500  0.37920  Biso   1.000  H
  H9       1.0000 0.32980  0.09670  0.65120  Biso   1.000  H
  H10      1.0000 0.38330  0.23110  0.56060  Biso   1.000  H
  H11      1.0000 0.58700  0.88120  0.62770  Biso   1.000  H
  H12      1.0000 0.63280  0.01900  0.53150  Biso   1.000  H
  H13      1.0000 0.72720  0.31630  0.76860  Biso   1.000  H
  H14      1.0000 0.84480  0.29940  0.85090  Biso   1.000  H
  H15      1.0000 0.43790  0.38760  0.99220  Biso   1.000  H
  H16      1.0000 0.38000  0.29060  0.97210  Biso   1.000  H
  H17      1.0000 0.89880  0.55100  0.86700  Biso   1.000  H
  H18      1.0000 0.93370  0.53930  0.72420  Biso   1.000  H
  H19      1.0000 0.11990  0.60300  0.86980  Biso   1.000  H
  H20      1.0000 0.17190  0.57400  0.73410  Biso   1.000  H
  H21      1.0000 0.86800  0.83810  0.75190  Biso   1.000  H
  H22      1.0000 0.92640  0.81110  0.61680  Biso   1.000  H
  H23      1.0000 0.14030  0.87310  0.62970  Biso   1.000  H
  H24      1.0000 0.96670  0.02500  0.62080  Biso   1.000  H
  H25      1.0000 0.67020  0.90330  0.34880  Biso   1.000  H
  H26      1.0000 0.61670  0.76890  0.43940  Biso   1.000  H
  H27      1.0000 0.41300  0.11880  0.37230  Biso   1.000  H
  H28      1.0000 0.36720  0.98100  0.46850  Biso   1.000  H
  H29      1.0000 0.27280  0.68370  0.23140  Biso   1.000  H
  H30      1.0000 0.15520  0.70060  0.14910  Biso   1.000  H
  H31      1.0000 0.56210  0.61240  0.00780  Biso   1.000  H
  H32      1.0000 0.62000  0.70940  0.02790  Biso   1.000  H
  C1       1.0000 0.90600  0.67270  0.12270  Biso   1.000  C
  C2       1.0000 0.01430  0.48510  0.19000  Biso   1.000  C
  C3       1.0000 0.92160  0.38420  0.21600  Biso   1.000  C
  C4       1.0000 0.03580  0.20040  0.29650  Biso   1.000  C
  C5       1.0000 0.95580  0.08860  0.32180  Biso   1.000  C
  C6       1.0000 0.90340  0.08670  0.19310  Biso   1.000  C
  C7       1.0000 0.51060  0.09450  0.74890  Biso   1.000  C
  C8       1.0000 0.42380  0.11670  0.62570  Biso   1.000  C
  C9       1.0000 0.54170  0.99480  0.56040  Biso   1.000  C
  C10      1.0000 0.09400  0.32730  0.87730  Biso   1.000  C
  C11      1.0000 0.98570  0.51490  0.81000  Biso   1.000  C
  C12      1.0000 0.07840  0.61580  0.78400  Biso   1.000  C
  C13      1.0000 0.96420  0.79960  0.70350  Biso   1.000  C
  C14      1.0000 0.04420  0.91140  0.67820  Biso   1.000  C
  C15      1.0000 0.09660  0.91330  0.80690  Biso   1.000  C
  C16      1.0000 0.48940  0.90550  0.25110  Biso   1.000  C
  C17      1.0000 0.57620  0.88330  0.37430  Biso   1.000  C
  C18      1.0000 0.45830  0.00520  0.43960  Biso   1.000  C
  O1       1.0000 0.92150  0.76770  0.17120  Biso   1.000  O
  O2       1.0000 0.80710  0.73450  0.02150  Biso   1.000  O
  O3       1.0000 0.75710  0.11960  0.17260  Biso   1.000  O
  O4       1.0000 0.00820  0.05000  0.11100  Biso   1.000  O
  O5       1.0000 0.62580  0.13390  0.73510  Biso   1.000  O
  O6       1.0000 0.47480  0.03200  0.86600  Biso   1.000  O
  O7       1.0000 0.75430  0.29880  0.85030  Biso   1.000  O
  O8       1.0000 0.46370  0.31040  0.96160  Biso   1.000  O
  O9       1.0000 0.07850  0.23230  0.82880  Biso   1.000  O
  O10      1.0000 0.19290  0.26550  0.97850  Biso   1.000  O
  O11      1.0000 0.24290  0.88040  0.82740  Biso   1.000  O
  O12      1.0000 0.99180  0.95000  0.88900  Biso   1.000  O
  O13      1.0000 0.37420  0.86610  0.26490  Biso   1.000  O
  O14      1.0000 0.52520  0.96800  0.13400  Biso   1.000  O
  O15      1.0000 0.24570  0.70120  0.14970  Biso   1.000  O
  O16      1.0000 0.53630  0.68960  0.03840  Biso   1.000  O
