data_image0
_cell_length_a       17.075
_cell_length_b       20.205
_cell_length_c       20.519
_cell_angle_alpha    90
_cell_angle_beta     90
_cell_angle_gamma    90.12

_symmetry_space_group_name_H-M    P 1
_symmetry_int_tables_number       1

loop_
  _symmetry_equiv_pos_as_xyz
  'x, y, z'

loop_
  _atom_site_label
  _atom_site_occupancy
  _atom_site_fract_x
  _atom_site_fract_y
  _atom_site_fract_z
  _atom_site_thermal_displace_type
  _atom_site_B_iso_or_equiv
  _atom_site_type_symbol
  Na1      1.0000 0.39050  0.23300  0.64450  Biso   1.000  Na
  Na2      1.0000 0.10950  0.26700  0.14450  Biso   1.000  Na
  Na3      1.0000 0.60950  0.76700  0.35550  Biso   1.000  Na
  Na4      1.0000 0.89050  0.73300  0.85550  Biso   1.000  Na
  Zn1      1.0000 0.65113  0.37481  0.00557  Biso   1.000  Zn
  Zn2      1.0000 0.84887  0.12519  0.50557  Biso   1.000  Zn
  Zn3      1.0000 0.34887  0.62519  0.99443  Biso   1.000  Zn
  Zn4      1.0000 0.15113  0.87481  0.49443  Biso   1.000  Zn
  Zn5      1.0000 0.50000  0.50000  0.00000  Biso   1.000  Zn
  Zn6      1.0000 0.00000  0.00000  0.50000  Biso   1.000  Zn
  H1       1.0000 0.53880  0.27930  0.17540  Biso   1.000  H
  H2       1.0000 0.49160  0.25120  0.27840  Biso   1.000  H
  H3       1.0000 0.41450  0.43820  0.30320  Biso   1.000  H
  H4       1.0000 0.46170  0.46620  0.20030  Biso   1.000  H
  H5       1.0000 0.13920  0.13480  0.49290  Biso   1.000  H
  H6       1.0000 0.20580  0.23390  0.47460  Biso   1.000  H
  H7       1.0000 0.39950  0.13160  0.42470  Biso   1.000  H
  H8       1.0000 0.33290  0.03250  0.44300  Biso   1.000  H
  H9       1.0000 0.61690  0.37420  0.78990  Biso   1.000  H
  H10      1.0000 0.57450  0.39220  0.68350  Biso   1.000  H
  H11      1.0000 0.36070  0.44250  0.75080  Biso   1.000  H
  H12      1.0000 0.40310  0.42440  0.85730  Biso   1.000  H
  H13      1.0000 0.36560  0.73350  0.61940  Biso   1.000  H
  H14      1.0000 0.41250  0.62630  0.63450  Biso   1.000  H
  H15      1.0000 0.27410  0.56160  0.48820  Biso   1.000  H
  H16      1.0000 0.22720  0.66880  0.47310  Biso   1.000  H
  H17      1.0000 0.45270  0.41370  0.40790  Biso   1.000  H
  H18      1.0000 0.37920  0.23530  0.34360  Biso   1.000  H
  H19      1.0000 0.40750  0.52990  0.66600  Biso   1.000  H
  H20      1.0000 0.35510  0.48350  0.47970  Biso   1.000  H
  H21      1.0000 0.21740  0.33000  0.52670  Biso   1.000  H
  H22      1.0000 0.27230  0.37220  0.57330  Biso   1.000  H
  H23      1.0000 0.58440  0.31900  0.59630  Biso   1.000  H
  H24      1.0000 0.54660  0.34500  0.53030  Biso   1.000  H
  H25      1.0000 0.16970  0.32810  0.63360  Biso   1.000  H
  H26      1.0000 0.19240  0.25550  0.61060  Biso   1.000  H
  H27      1.0000 0.50040  0.24420  0.50410  Biso   1.000  H
  H28      1.0000 0.58780  0.23230  0.52650  Biso   1.000  H
  H29      1.0000 0.18940  0.30260  0.74600  Biso   1.000  H
  H30      1.0000 0.20760  0.22800  0.72620  Biso   1.000  H
  H31      1.0000 0.61110  0.14890  0.60610  Biso   1.000  H
  H32      1.0000 0.60260  0.21520  0.64690  Biso   1.000  H
  H33      1.0000 0.31090  0.31350  0.79240  Biso   1.000  H
  H34      1.0000 0.26900  0.25100  0.82360  Biso   1.000  H
  H35      1.0000 0.51490  0.09860  0.67060  Biso   1.000  H
  H36      1.0000 0.58410  0.12500  0.71580  Biso   1.000  H
  H37      1.0000 0.44450  0.26820  0.81660  Biso   1.000  H
  H38      1.0000 0.39840  0.21150  0.85470  Biso   1.000  H
  H39      1.0000 0.52270  0.17870  0.80970  Biso   1.000  H
  H40      1.0000 0.45120  0.13140  0.79380  Biso   1.000  H
  H41      1.0000 0.21540  0.11450  0.60760  Biso   1.000  H
  H42      1.0000 0.17270  0.99980  0.66150  Biso   1.000  H
  H43      1.0000 0.24300  0.95430  0.68430  Biso   1.000  H
  H44      1.0000 0.21950  0.95740  0.60970  Biso   1.000  H
  H45      1.0000 0.38510  0.06730  0.61970  Biso   1.000  H
  H46      1.0000 0.36170  0.00070  0.58370  Biso   1.000  H
  H47      1.0000 0.38280  0.99980  0.65890  Biso   1.000  H
  H48      1.0000 0.96120  0.22070  0.67540  Biso   1.000  H
  H49      1.0000 0.00840  0.24880  0.77840  Biso   1.000  H
  H50      1.0000 0.08550  0.06180  0.80320  Biso   1.000  H
  H51      1.0000 0.03830  0.03380  0.70030  Biso   1.000  H
  H52      1.0000 0.36080  0.36520  0.99290  Biso   1.000  H
  H53      1.0000 0.29420  0.26610  0.97460  Biso   1.000  H
  H54      1.0000 0.10050  0.36840  0.92470  Biso   1.000  H
  H55      1.0000 0.16710  0.46750  0.94300  Biso   1.000  H
  H56      1.0000 0.88310  0.12580  0.28990  Biso   1.000  H
  H57      1.0000 0.92550  0.10780  0.18350  Biso   1.000  H
  H58      1.0000 0.13930  0.05750  0.25080  Biso   1.000  H
  H59      1.0000 0.09690  0.07560  0.35730  Biso   1.000  H
  H60      1.0000 0.13440  0.76650  0.11940  Biso   1.000  H
  H61      1.0000 0.08750  0.87370  0.13450  Biso   1.000  H
  H62      1.0000 0.22590  0.93840  0.98820  Biso   1.000  H
  H63      1.0000 0.27280  0.83120  0.97310  Biso   1.000  H
  H64      1.0000 0.04730  0.08630  0.90790  Biso   1.000  H
  H65      1.0000 0.12080  0.26470  0.84360  Biso   1.000  H
  H66      1.0000 0.09250  0.97010  0.16600  Biso   1.000  H
  H67      1.0000 0.14490  0.01650  0.97970  Biso   1.000  H
  H68      1.0000 0.28260  0.17000  0.02670  Biso   1.000  H
  H69      1.0000 0.22770  0.12780  0.07330  Biso   1.000  H
  H70      1.0000 0.91560  0.18100  0.09630  Biso   1.000  H
  H71      1.0000 0.95340  0.15500  0.03030  Biso   1.000  H
  H72      1.0000 0.33030  0.17190  0.13360  Biso   1.000  H
  H73      1.0000 0.30760  0.24450  0.11060  Biso   1.000  H
  H74      1.0000 0.99960  0.25580  0.00410  Biso   1.000  H
  H75      1.0000 0.91220  0.26770  0.02650  Biso   1.000  H
  H76      1.0000 0.31060  0.19740  0.24600  Biso   1.000  H
  H77      1.0000 0.29240  0.27200  0.22620  Biso   1.000  H
  H78      1.0000 0.88890  0.35110  0.10610  Biso   1.000  H
  H79      1.0000 0.89740  0.28480  0.14690  Biso   1.000  H
  H80      1.0000 0.18910  0.18650  0.29240  Biso   1.000  H
  H81      1.0000 0.23100  0.24900  0.32360  Biso   1.000  H
  H82      1.0000 0.98510  0.40140  0.17060  Biso   1.000  H
  H83      1.0000 0.91590  0.37500  0.21580  Biso   1.000  H
  H84      1.0000 0.05550  0.23180  0.31660  Biso   1.000  H
  H85      1.0000 0.10160  0.28850  0.35470  Biso   1.000  H
  H86      1.0000 0.97730  0.32130  0.30970  Biso   1.000  H
  H87      1.0000 0.04880  0.36860  0.29380  Biso   1.000  H
  H88      1.0000 0.28460  0.38550  0.10760  Biso   1.000  H
  H89      1.0000 0.32730  0.50020  0.16150  Biso   1.000  H
  H90      1.0000 0.25700  0.54570  0.18430  Biso   1.000  H
  H91      1.0000 0.28050  0.54260  0.10970  Biso   1.000  H
  H92      1.0000 0.11490  0.43270  0.11970  Biso   1.000  H
  H93      1.0000 0.13830  0.49930  0.08370  Biso   1.000  H
  H94      1.0000 0.11720  0.50020  0.15890  Biso   1.000  H
  H95      1.0000 0.46120  0.72070  0.82460  Biso   1.000  H
  H96      1.0000 0.50840  0.74880  0.72160  Biso   1.000  H
  H97      1.0000 0.58550  0.56180  0.69680  Biso   1.000  H
  H98      1.0000 0.53830  0.53380  0.79970  Biso   1.000  H
  H99      1.0000 0.86080  0.86520  0.50710  Biso   1.000  H
  H100     1.0000 0.79420  0.76610  0.52540  Biso   1.000  H
  H101     1.0000 0.60050  0.86840  0.57530  Biso   1.000  H
  H102     1.0000 0.66710  0.96750  0.55700  Biso   1.000  H
  H103     1.0000 0.38310  0.62580  0.21010  Biso   1.000  H
  H104     1.0000 0.42550  0.60780  0.31650  Biso   1.000  H
  H105     1.0000 0.63930  0.55750  0.24920  Biso   1.000  H
  H106     1.0000 0.59690  0.57560  0.14270  Biso   1.000  H
  H107     1.0000 0.63440  0.26650  0.38060  Biso   1.000  H
  H108     1.0000 0.58750  0.37370  0.36550  Biso   1.000  H
  H109     1.0000 0.72590  0.43840  0.51180  Biso   1.000  H
  H110     1.0000 0.77280  0.33120  0.52690  Biso   1.000  H
  H111     1.0000 0.54730  0.58630  0.59210  Biso   1.000  H
  H112     1.0000 0.62080  0.76470  0.65640  Biso   1.000  H
  H113     1.0000 0.59250  0.47010  0.33400  Biso   1.000  H
  H114     1.0000 0.64490  0.51650  0.52030  Biso   1.000  H
  H115     1.0000 0.78260  0.67000  0.47330  Biso   1.000  H
  H116     1.0000 0.72770  0.62780  0.42670  Biso   1.000  H
  H117     1.0000 0.41560  0.68100  0.40370  Biso   1.000  H
  H118     1.0000 0.45340  0.65500  0.46970  Biso   1.000  H
  H119     1.0000 0.83030  0.67190  0.36640  Biso   1.000  H
  H120     1.0000 0.80760  0.74450  0.38940  Biso   1.000  H
  H121     1.0000 0.49960  0.75580  0.49590  Biso   1.000  H
  H122     1.0000 0.41220  0.76770  0.47350  Biso   1.000  H
  H123     1.0000 0.81060  0.69740  0.25400  Biso   1.000  H
  H124     1.0000 0.79240  0.77200  0.27380  Biso   1.000  H
  H125     1.0000 0.38890  0.85110  0.39390  Biso   1.000  H
  H126     1.0000 0.39740  0.78480  0.35310  Biso   1.000  H
  H127     1.0000 0.68910  0.68650  0.20760  Biso   1.000  H
  H128     1.0000 0.73100  0.74900  0.17640  Biso   1.000  H
  H129     1.0000 0.48510  0.90140  0.32940  Biso   1.000  H
  H130     1.0000 0.41590  0.87500  0.28420  Biso   1.000  H
  H131     1.0000 0.55550  0.73180  0.18340  Biso   1.000  H
  H132     1.0000 0.60160  0.78850  0.14530  Biso   1.000  H
  H133     1.0000 0.47730  0.82130  0.19030  Biso   1.000  H
  H134     1.0000 0.54880  0.86860  0.20620  Biso   1.000  H
  H135     1.0000 0.78460  0.88550  0.39240  Biso   1.000  H
  H136     1.0000 0.82730  0.00020  0.33850  Biso   1.000  H
  H137     1.0000 0.75700  0.04570  0.31570  Biso   1.000  H
  H138     1.0000 0.78050  0.04260  0.39030  Biso   1.000  H
  H139     1.0000 0.61490  0.93270  0.38030  Biso   1.000  H
  H140     1.0000 0.63830  0.99930  0.41630  Biso   1.000  H
  H141     1.0000 0.61720  0.00020  0.34110  Biso   1.000  H
  H142     1.0000 0.03880  0.77930  0.32460  Biso   1.000  H
  H143     1.0000 0.99160  0.75120  0.22160  Biso   1.000  H
  H144     1.0000 0.91450  0.93820  0.19680  Biso   1.000  H
  H145     1.0000 0.96170  0.96620  0.29970  Biso   1.000  H
  H146     1.0000 0.63920  0.63480  0.00710  Biso   1.000  H
  H147     1.0000 0.70580  0.73390  0.02540  Biso   1.000  H
  H148     1.0000 0.89950  0.63160  0.07530  Biso   1.000  H
  H149     1.0000 0.83290  0.53250  0.05700  Biso   1.000  H
  H150     1.0000 0.11690  0.87420  0.71010  Biso   1.000  H
  H151     1.0000 0.07450  0.89220  0.81650  Biso   1.000  H
  H152     1.0000 0.86070  0.94250  0.74920  Biso   1.000  H
  H153     1.0000 0.90310  0.92440  0.64270  Biso   1.000  H
  H154     1.0000 0.86560  0.23350  0.88060  Biso   1.000  H
  H155     1.0000 0.91250  0.12630  0.86550  Biso   1.000  H
  H156     1.0000 0.77410  0.06160  0.01180  Biso   1.000  H
  H157     1.0000 0.72720  0.16880  0.02690  Biso   1.000  H
  H158     1.0000 0.95270  0.91370  0.09210  Biso   1.000  H
  H159     1.0000 0.87920  0.73530  0.15640  Biso   1.000  H
  H160     1.0000 0.90750  0.02990  0.83400  Biso   1.000  H
  H161     1.0000 0.85510  0.98350  0.02030  Biso   1.000  H
  H162     1.0000 0.71740  0.83000  0.97330  Biso   1.000  H
  H163     1.0000 0.77230  0.87220  0.92670  Biso   1.000  H
  H164     1.0000 0.08440  0.81900  0.90370  Biso   1.000  H
  H165     1.0000 0.04660  0.84500  0.96970  Biso   1.000  H
  H166     1.0000 0.66970  0.82810  0.86640  Biso   1.000  H
  H167     1.0000 0.69240  0.75550  0.88940  Biso   1.000  H
  H168     1.0000 0.00040  0.74420  0.99590  Biso   1.000  H
  H169     1.0000 0.08780  0.73230  0.97350  Biso   1.000  H
  H170     1.0000 0.68940  0.80260  0.75400  Biso   1.000  H
  H171     1.0000 0.70760  0.72800  0.77380  Biso   1.000  H
  H172     1.0000 0.11110  0.64890  0.89390  Biso   1.000  H
  H173     1.0000 0.10260  0.71520  0.85310  Biso   1.000  H
  H174     1.0000 0.81090  0.81350  0.70760  Biso   1.000  H
  H175     1.0000 0.76900  0.75100  0.67640  Biso   1.000  H
  H176     1.0000 0.01490  0.59860  0.82940  Biso   1.000  H
  H177     1.0000 0.08410  0.62500  0.78420  Biso   1.000  H
  H178     1.0000 0.94450  0.76820  0.68340  Biso   1.000  H
  H179     1.0000 0.89840  0.71150  0.64530  Biso   1.000  H
  H180     1.0000 0.02270  0.67870  0.69030  Biso   1.000  H
  H181     1.0000 0.95120  0.63140  0.70620  Biso   1.000  H
  H182     1.0000 0.71540  0.61450  0.89240  Biso   1.000  H
  H183     1.0000 0.67270  0.49980  0.83850  Biso   1.000  H
  H184     1.0000 0.74300  0.45430  0.81570  Biso   1.000  H
  H185     1.0000 0.71950  0.45740  0.89030  Biso   1.000  H
  H186     1.0000 0.88510  0.56730  0.88030  Biso   1.000  H
  H187     1.0000 0.86170  0.50070  0.91630  Biso   1.000  H
  H188     1.0000 0.88280  0.49980  0.84110  Biso   1.000  H
  C1       1.0000 0.50480  0.37550  0.17790  Biso   1.000  C
  C2       1.0000 0.51370  0.31130  0.20120  Biso   1.000  C
  C3       1.0000 0.48560  0.29460  0.26260  Biso   1.000  C
  C4       1.0000 0.44850  0.34200  0.30070  Biso   1.000  C
  C5       1.0000 0.43960  0.40610  0.27740  Biso   1.000  C
  C6       1.0000 0.46770  0.42290  0.21600  Biso   1.000  C
  C7       1.0000 0.53370  0.39340  0.11630  Biso   1.000  C
  C8       1.0000 0.22960  0.07410  0.46970  Biso   1.000  C
  C9       1.0000 0.19170  0.13420  0.47910  Biso   1.000  C
  C10      1.0000 0.23150  0.19330  0.46820  Biso   1.000  C
  C11      1.0000 0.30910  0.19230  0.44790  Biso   1.000  C
  C12      1.0000 0.34700  0.13220  0.43840  Biso   1.000  C
  C13      1.0000 0.30730  0.07320  0.44930  Biso   1.000  C
  C14      1.0000 0.18950  0.01660  0.48380  Biso   1.000  C
  C15      1.0000 0.51410  0.39760  0.83390  Biso   1.000  C
  C16      1.0000 0.56520  0.38800  0.78200  Biso   1.000  C
  C17      1.0000 0.53990  0.39870  0.71850  Biso   1.000  C
  C18      1.0000 0.46350  0.41910  0.70690  Biso   1.000  C
  C19      1.0000 0.41240  0.42870  0.75870  Biso   1.000  C
  C20      1.0000 0.43770  0.41790  0.82220  Biso   1.000  C
  C21      1.0000 0.26500  0.77530  0.53570  Biso   1.000  C
  C22      1.0000 0.29190  0.71150  0.54480  Biso   1.000  C
  C23      1.0000 0.34710  0.69880  0.59300  Biso   1.000  C
  C24      1.0000 0.37510  0.63490  0.60200  Biso   1.000  C
  C25      1.0000 0.34780  0.58360  0.56280  Biso   1.000  C
  C26      1.0000 0.29250  0.59630  0.51470  Biso   1.000  C
  C27      1.0000 0.26460  0.66020  0.50570  Biso   1.000  C
  C28      1.0000 0.53830  0.39040  0.89800  Biso   1.000  C
  C29      1.0000 0.39450  0.36010  0.47630  Biso   1.000  C
  C30      1.0000 0.42690  0.37330  0.41550  Biso   1.000  C
  C31      1.0000 0.42120  0.32660  0.36590  Biso   1.000  C
  C32      1.0000 0.38300  0.26690  0.37710  Biso   1.000  C
  C33      1.0000 0.35070  0.25370  0.43790  Biso   1.000  C
  C34      1.0000 0.35640  0.30040  0.48750  Biso   1.000  C
  C35      1.0000 0.40470  0.40800  0.53010  Biso   1.000  C
  C36      1.0000 0.43500  0.39010  0.59050  Biso   1.000  C
  C37      1.0000 0.43600  0.43570  0.64130  Biso   1.000  C
  C38      1.0000 0.40680  0.49910  0.63170  Biso   1.000  C
  C39      1.0000 0.37660  0.51700  0.57130  Biso   1.000  C
  C40      1.0000 0.37560  0.47140  0.52050  Biso   1.000  C
  C41      1.0000 0.25390  0.32730  0.56340  Biso   1.000  C
  C42      1.0000 0.53980  0.31410  0.56660  Biso   1.000  C
  C43      1.0000 0.21340  0.29950  0.62080  Biso   1.000  C
  C44      1.0000 0.53570  0.24520  0.54180  Biso   1.000  C
  C45      1.0000 0.23090  0.27190  0.73300  Biso   1.000  C
  C46      1.0000 0.57420  0.17600  0.63060  Biso   1.000  C
  C47      1.0000 0.29170  0.26870  0.78330  Biso   1.000  C
  C48      1.0000 0.54200  0.13840  0.68600  Biso   1.000  C
  C49      1.0000 0.41870  0.22510  0.81210  Biso   1.000  C
  C50      1.0000 0.47290  0.17560  0.78610  Biso   1.000  C
  C51      1.0000 0.25400  0.10430  0.64160  Biso   1.000  C
  C52      1.0000 0.22400  0.98300  0.65000  Biso   1.000  C
  C53      1.0000 0.35800  0.02500  0.62400  Biso   1.000  C
  C54      1.0000 0.99520  0.12450  0.67790  Biso   1.000  C
  C55      1.0000 0.98630  0.18870  0.70120  Biso   1.000  C
  C56      1.0000 0.01440  0.20540  0.76260  Biso   1.000  C
  C57      1.0000 0.05150  0.15800  0.80070  Biso   1.000  C
  C58      1.0000 0.06040  0.09390  0.77740  Biso   1.000  C
  C59      1.0000 0.03230  0.07710  0.71600  Biso   1.000  C
  C60      1.0000 0.96630  0.10660  0.61630  Biso   1.000  C
  C61      1.0000 0.27040  0.42590  0.96970  Biso   1.000  C
  C62      1.0000 0.30830  0.36580  0.97910  Biso   1.000  C
  C63      1.0000 0.26850  0.30670  0.96820  Biso   1.000  C
  C64      1.0000 0.19090  0.30770  0.94790  Biso   1.000  C
  C65      1.0000 0.15300  0.36780  0.93840  Biso   1.000  C
  C66      1.0000 0.19270  0.42680  0.94930  Biso   1.000  C
  C67      1.0000 0.31050  0.48340  0.98380  Biso   1.000  C
  C68      1.0000 0.98590  0.10240  0.33390  Biso   1.000  C
  C69      1.0000 0.93480  0.11200  0.28200  Biso   1.000  C
  C70      1.0000 0.96010  0.10130  0.21850  Biso   1.000  C
  C71      1.0000 0.03650  0.08090  0.20690  Biso   1.000  C
  C72      1.0000 0.08760  0.07130  0.25870  Biso   1.000  C
  C73      1.0000 0.06230  0.08210  0.32220  Biso   1.000  C
  C74      1.0000 0.23500  0.72470  0.03570  Biso   1.000  C
  C75      1.0000 0.20810  0.78850  0.04480  Biso   1.000  C
  C76      1.0000 0.15290  0.80120  0.09300  Biso   1.000  C
  C77      1.0000 0.12490  0.86510  0.10200  Biso   1.000  C
  C78      1.0000 0.15220  0.91640  0.06280  Biso   1.000  C
  C79      1.0000 0.20750  0.90370  0.01470  Biso   1.000  C
  C80      1.0000 0.23540  0.83980  0.00570  Biso   1.000  C
  C81      1.0000 0.96170  0.10960  0.39800  Biso   1.000  C
  C82      1.0000 0.10550  0.13990  0.97630  Biso   1.000  C
  C83      1.0000 0.07310  0.12670  0.91550  Biso   1.000  C
  C84      1.0000 0.07880  0.17340  0.86590  Biso   1.000  C
  C85      1.0000 0.11700  0.23310  0.87710  Biso   1.000  C
  C86      1.0000 0.14930  0.24630  0.93790  Biso   1.000  C
  C87      1.0000 0.14360  0.19960  0.98750  Biso   1.000  C
  C88      1.0000 0.09530  0.09200  0.03010  Biso   1.000  C
  C89      1.0000 0.06500  0.10990  0.09050  Biso   1.000  C
  C90      1.0000 0.06400  0.06430  0.14130  Biso   1.000  C
  C91      1.0000 0.09320  0.00090  0.13170  Biso   1.000  C
  C92      1.0000 0.12340  0.98300  0.07130  Biso   1.000  C
  C93      1.0000 0.12440  0.02860  0.02050  Biso   1.000  C
  C94      1.0000 0.24610  0.17270  0.06340  Biso   1.000  C
  C95      1.0000 0.96020  0.18590  0.06660  Biso   1.000  C
  C96      1.0000 0.28660  0.20050  0.12080  Biso   1.000  C
  C97      1.0000 0.96430  0.25480  0.04180  Biso   1.000  C
  C98      1.0000 0.26910  0.22810  0.23300  Biso   1.000  C
  C99      1.0000 0.92580  0.32400  0.13060  Biso   1.000  C
  C100     1.0000 0.20830  0.23130  0.28330  Biso   1.000  C
  C101     1.0000 0.95800  0.36160  0.18600  Biso   1.000  C
  C102     1.0000 0.08130  0.27490  0.31210  Biso   1.000  C
  C103     1.0000 0.02710  0.32440  0.28610  Biso   1.000  C
  C104     1.0000 0.24600  0.39570  0.14160  Biso   1.000  C
  C105     1.0000 0.27600  0.51700  0.15000  Biso   1.000  C
  C106     1.0000 0.14200  0.47500  0.12400  Biso   1.000  C
  C107     1.0000 0.49520  0.62450  0.82210  Biso   1.000  C
  C108     1.0000 0.48630  0.68870  0.79880  Biso   1.000  C
  C109     1.0000 0.51440  0.70540  0.73740  Biso   1.000  C
  C110     1.0000 0.55150  0.65800  0.69930  Biso   1.000  C
  C111     1.0000 0.56040  0.59390  0.72260  Biso   1.000  C
  C112     1.0000 0.53230  0.57710  0.78400  Biso   1.000  C
  C113     1.0000 0.46630  0.60660  0.88370  Biso   1.000  C
  C114     1.0000 0.77040  0.92590  0.53030  Biso   1.000  C
  C115     1.0000 0.80830  0.86580  0.52090  Biso   1.000  C
  C116     1.0000 0.76850  0.80670  0.53180  Biso   1.000  C
  C117     1.0000 0.69090  0.80770  0.55210  Biso   1.000  C
  C118     1.0000 0.65300  0.86780  0.56160  Biso   1.000  C
  C119     1.0000 0.69270  0.92680  0.55070  Biso   1.000  C
  C120     1.0000 0.81050  0.98340  0.51620  Biso   1.000  C
  C121     1.0000 0.48590  0.60240  0.16610  Biso   1.000  C
  C122     1.0000 0.43480  0.61200  0.21800  Biso   1.000  C
  C123     1.0000 0.46010  0.60130  0.28150  Biso   1.000  C
  C124     1.0000 0.53650  0.58090  0.29310  Biso   1.000  C
  C125     1.0000 0.58760  0.57130  0.24130  Biso   1.000  C
  C126     1.0000 0.56230  0.58210  0.17780  Biso   1.000  C
  C127     1.0000 0.73500  0.22470  0.46430  Biso   1.000  C
  C128     1.0000 0.70810  0.28850  0.45520  Biso   1.000  C
  C129     1.0000 0.65290  0.30120  0.40700  Biso   1.000  C
  C130     1.0000 0.62490  0.36510  0.39800  Biso   1.000  C
  C131     1.0000 0.65220  0.41640  0.43720  Biso   1.000  C
  C132     1.0000 0.70750  0.40370  0.48530  Biso   1.000  C
  C133     1.0000 0.73540  0.33980  0.49430  Biso   1.000  C
  C134     1.0000 0.46170  0.60960  0.10200  Biso   1.000  C
  C135     1.0000 0.60550  0.63990  0.52370  Biso   1.000  C
  C136     1.0000 0.57310  0.62670  0.58450  Biso   1.000  C
  C137     1.0000 0.57880  0.67340  0.63410  Biso   1.000  C
  C138     1.0000 0.61700  0.73310  0.62290  Biso   1.000  C
  C139     1.0000 0.64930  0.74630  0.56210  Biso   1.000  C
  C140     1.0000 0.64360  0.69960  0.51250  Biso   1.000  C
  C141     1.0000 0.59530  0.59200  0.46990  Biso   1.000  C
  C142     1.0000 0.56500  0.60990  0.40950  Biso   1.000  C
  C143     1.0000 0.56400  0.56430  0.35870  Biso   1.000  C
  C144     1.0000 0.59320  0.50090  0.36830  Biso   1.000  C
  C145     1.0000 0.62340  0.48300  0.42870  Biso   1.000  C
  C146     1.0000 0.62440  0.52860  0.47950  Biso   1.000  C
  C147     1.0000 0.74610  0.67270  0.43660  Biso   1.000  C
  C148     1.0000 0.46020  0.68590  0.43340  Biso   1.000  C
  C149     1.0000 0.78660  0.70050  0.37920  Biso   1.000  C
  C150     1.0000 0.46430  0.75480  0.45820  Biso   1.000  C
  C151     1.0000 0.76910  0.72810  0.26700  Biso   1.000  C
  C152     1.0000 0.42580  0.82400  0.36940  Biso   1.000  C
  C153     1.0000 0.70830  0.73130  0.21670  Biso   1.000  C
  C154     1.0000 0.45800  0.86160  0.31400  Biso   1.000  C
  C155     1.0000 0.58130  0.77490  0.18790  Biso   1.000  C
  C156     1.0000 0.52710  0.82440  0.21390  Biso   1.000  C
  C157     1.0000 0.74600  0.89570  0.35840  Biso   1.000  C
  C158     1.0000 0.77600  0.01700  0.35000  Biso   1.000  C
  C159     1.0000 0.64200  0.97500  0.37600  Biso   1.000  C
  C160     1.0000 0.00480  0.87550  0.32210  Biso   1.000  C
  C161     1.0000 0.01370  0.81130  0.29880  Biso   1.000  C
  C162     1.0000 0.98560  0.79460  0.23740  Biso   1.000  C
  C163     1.0000 0.94850  0.84200  0.19930  Biso   1.000  C
  C164     1.0000 0.93960  0.90610  0.22260  Biso   1.000  C
  C165     1.0000 0.96770  0.92290  0.28400  Biso   1.000  C
  C166     1.0000 0.03370  0.89340  0.38370  Biso   1.000  C
  C167     1.0000 0.72960  0.57410  0.03030  Biso   1.000  C
  C168     1.0000 0.69170  0.63420  0.02090  Biso   1.000  C
  C169     1.0000 0.73150  0.69330  0.03180  Biso   1.000  C
  C170     1.0000 0.80910  0.69230  0.05210  Biso   1.000  C
  C171     1.0000 0.84700  0.63220  0.06160  Biso   1.000  C
  C172     1.0000 0.80730  0.57320  0.05070  Biso   1.000  C
  C173     1.0000 0.68950  0.51660  0.01620  Biso   1.000  C
  C174     1.0000 0.01410  0.89760  0.66610  Biso   1.000  C
  C175     1.0000 0.06520  0.88800  0.71800  Biso   1.000  C
  C176     1.0000 0.03990  0.89870  0.78150  Biso   1.000  C
  C177     1.0000 0.96350  0.91910  0.79310  Biso   1.000  C
  C178     1.0000 0.91240  0.92870  0.74130  Biso   1.000  C
  C179     1.0000 0.93770  0.91790  0.67780  Biso   1.000  C
  C180     1.0000 0.76500  0.27530  0.96430  Biso   1.000  C
  C181     1.0000 0.79190  0.21150  0.95520  Biso   1.000  C
  C182     1.0000 0.84710  0.19880  0.90700  Biso   1.000  C
  C183     1.0000 0.87510  0.13490  0.89800  Biso   1.000  C
  C184     1.0000 0.84780  0.08360  0.93720  Biso   1.000  C
  C185     1.0000 0.79250  0.09630  0.98530  Biso   1.000  C
  C186     1.0000 0.76460  0.16020  0.99430  Biso   1.000  C
  C187     1.0000 0.03830  0.89040  0.60200  Biso   1.000  C
  C188     1.0000 0.89450  0.86010  0.02370  Biso   1.000  C
  C189     1.0000 0.92690  0.87330  0.08450  Biso   1.000  C
  C190     1.0000 0.92120  0.82660  0.13410  Biso   1.000  C
  C191     1.0000 0.88300  0.76690  0.12290  Biso   1.000  C
  C192     1.0000 0.85070  0.75370  0.06210  Biso   1.000  C
  C193     1.0000 0.85640  0.80040  0.01250  Biso   1.000  C
  C194     1.0000 0.90470  0.90800  0.96990  Biso   1.000  C
  C195     1.0000 0.93500  0.89010  0.90950  Biso   1.000  C
  C196     1.0000 0.93600  0.93570  0.85870  Biso   1.000  C
  C197     1.0000 0.90680  0.99910  0.86830  Biso   1.000  C
  C198     1.0000 0.87660  0.01700  0.92870  Biso   1.000  C
  C199     1.0000 0.87560  0.97140  0.97950  Biso   1.000  C
  C200     1.0000 0.75390  0.82730  0.93660  Biso   1.000  C
  C201     1.0000 0.03980  0.81410  0.93340  Biso   1.000  C
  C202     1.0000 0.71340  0.79950  0.87920  Biso   1.000  C
  C203     1.0000 0.03570  0.74520  0.95820  Biso   1.000  C
  C204     1.0000 0.73090  0.77190  0.76700  Biso   1.000  C
  C205     1.0000 0.07420  0.67600  0.86940  Biso   1.000  C
  C206     1.0000 0.79170  0.76870  0.71670  Biso   1.000  C
  C207     1.0000 0.04200  0.63840  0.81400  Biso   1.000  C
  C208     1.0000 0.91870  0.72510  0.68790  Biso   1.000  C
  C209     1.0000 0.97290  0.67560  0.71390  Biso   1.000  C
  C210     1.0000 0.75400  0.60430  0.85840  Biso   1.000  C
  C211     1.0000 0.72400  0.48300  0.85000  Biso   1.000  C
  C212     1.0000 0.85800  0.52500  0.87600  Biso   1.000  C
  N1       1.0000 0.27710  0.03660  0.64020  Biso   1.000  N
  N2       1.0000 0.22290  0.46340  0.14020  Biso   1.000  N
  N3       1.0000 0.72290  0.96340  0.35980  Biso   1.000  N
  N4       1.0000 0.77710  0.53660  0.85980  Biso   1.000  N
  O1       1.0000 0.51850  0.45290  0.08740  Biso   1.000  O
  O2       1.0000 0.58390  0.35500  0.08170  Biso   1.000  O
  O3       1.0000 0.11920  0.01020  0.51520  Biso   1.000  O
  O4       1.0000 0.21540  0.95480  0.46930  Biso   1.000  O
  O5       1.0000 0.20860  0.79090  0.49200  Biso   1.000  O
  O6       1.0000 0.29090  0.83070  0.56740  Biso   1.000  O
  O7       1.0000 0.49850  0.40830  0.95240  Biso   1.000  O
  O8       1.0000 0.60990  0.37070  0.91650  Biso   1.000  O
  O9       1.0000 0.31950  0.28640  0.54600  Biso   1.000  O
  O10      1.0000 0.46650  0.32800  0.60100  Biso   1.000  O
  O11      1.0000 0.26960  0.29520  0.67290  Biso   1.000  O
  O12      1.0000 0.50980  0.19790  0.58720  Biso   1.000  O
  O13      1.0000 0.35580  0.22800  0.76370  Biso   1.000  O
  O14      1.0000 0.48720  0.18350  0.71880  Biso   1.000  O
  O15      1.0000 0.33090  0.13530  0.62810  Biso   1.000  O
  O16      1.0000 0.98150  0.04710  0.58740  Biso   1.000  O
  O17      1.0000 0.91610  0.14500  0.58170  Biso   1.000  O
  O18      1.0000 0.38080  0.48980  0.01520  Biso   1.000  O
  O19      1.0000 0.28460  0.54520  0.96930  Biso   1.000  O
  O20      1.0000 0.29140  0.70910  0.99200  Biso   1.000  O
  O21      1.0000 0.20910  0.66930  0.06740  Biso   1.000  O
  O22      1.0000 0.00150  0.09170  0.45240  Biso   1.000  O
  O23      1.0000 0.89010  0.12930  0.41650  Biso   1.000  O
  O24      1.0000 0.18050  0.21360  0.04600  Biso   1.000  O
  O25      1.0000 0.03350  0.17200  0.10100  Biso   1.000  O
  O26      1.0000 0.23040  0.20480  0.17290  Biso   1.000  O
  O27      1.0000 0.99020  0.30210  0.08720  Biso   1.000  O
  O28      1.0000 0.14420  0.27200  0.26370  Biso   1.000  O
  O29      1.0000 0.01280  0.31650  0.21880  Biso   1.000  O
  O30      1.0000 0.16910  0.36470  0.12810  Biso   1.000  O
  O31      1.0000 0.48150  0.54710  0.91260  Biso   1.000  O
  O32      1.0000 0.41610  0.64500  0.91830  Biso   1.000  O
  O33      1.0000 0.88080  0.98980  0.48480  Biso   1.000  O
  O34      1.0000 0.78460  0.04520  0.53070  Biso   1.000  O
  O35      1.0000 0.79140  0.20910  0.50800  Biso   1.000  O
  O36      1.0000 0.70910  0.16930  0.43260  Biso   1.000  O
  O37      1.0000 0.50150  0.59170  0.04760  Biso   1.000  O
  O38      1.0000 0.39010  0.62930  0.08350  Biso   1.000  O
  O39      1.0000 0.68050  0.71360  0.45400  Biso   1.000  O
  O40      1.0000 0.53350  0.67200  0.39900  Biso   1.000  O
  O41      1.0000 0.73040  0.70480  0.32710  Biso   1.000  O
  O42      1.0000 0.49020  0.80210  0.41280  Biso   1.000  O
  O43      1.0000 0.64420  0.77200  0.23630  Biso   1.000  O
  O44      1.0000 0.51280  0.81650  0.28120  Biso   1.000  O
  O45      1.0000 0.66910  0.86470  0.37190  Biso   1.000  O
  O46      1.0000 0.01850  0.95290  0.41260  Biso   1.000  O
  O47      1.0000 0.08390  0.85500  0.41830  Biso   1.000  O
  O48      1.0000 0.61920  0.51020  0.98480  Biso   1.000  O
  O49      1.0000 0.71540  0.45480  0.03070  Biso   1.000  O
  O50      1.0000 0.70860  0.29090  0.00800  Biso   1.000  O
  O51      1.0000 0.79090  0.33070  0.93260  Biso   1.000  O
  O52      1.0000 0.99850  0.90830  0.54760  Biso   1.000  O
  O53      1.0000 0.10990  0.87070  0.58350  Biso   1.000  O
  O54      1.0000 0.81950  0.78640  0.95400  Biso   1.000  O
  O55      1.0000 0.96650  0.82800  0.89900  Biso   1.000  O
  O56      1.0000 0.76960  0.79520  0.82710  Biso   1.000  O
  O57      1.0000 0.00980  0.69790  0.91280  Biso   1.000  O
  O58      1.0000 0.85580  0.72800  0.73630  Biso   1.000  O
  O59      1.0000 0.98720  0.68350  0.78120  Biso   1.000  O
  O60      1.0000 0.83090  0.63530  0.87190  Biso   1.000  O
