data_image0
_cell_length_a       9.924
_cell_length_b       11.738
_cell_length_c       15.203
_cell_angle_alpha    94.77
_cell_angle_beta     98.94
_cell_angle_gamma    112.62

_symmetry_space_group_name_H-M    P 1
_symmetry_int_tables_number       1

loop_
  _symmetry_equiv_pos_as_xyz
  'x, y, z'

loop_
  _atom_site_label
  _atom_site_occupancy
  _atom_site_fract_x
  _atom_site_fract_y
  _atom_site_fract_z
  _atom_site_thermal_displace_type
  _atom_site_B_iso_or_equiv
  _atom_site_type_symbol
  Zn1      1.0000 0.98544  0.06757  0.79206  Biso   1.000  Zn
  Zn2      1.0000 0.44328  0.10860  0.56835  Biso   1.000  Zn
  Zn3      1.0000 0.11375  0.81516  0.83346  Biso   1.000  Zn
  Zn4      1.0000 0.01456  0.93243  0.20794  Biso   1.000  Zn
  Zn5      1.0000 0.55672  0.89140  0.43165  Biso   1.000  Zn
  Zn6      1.0000 0.88625  0.18484  0.16654  Biso   1.000  Zn
  Zn7      1.0000 0.50000  0.00000  0.00000  Biso   1.000  Zn
  H1       1.0000 0.76980  0.53680  0.94010  Biso   1.000  H
  H2       1.0000 0.26280  0.66870  0.59050  Biso   1.000  H
  H3       1.0000 0.68180  0.96510  0.85550  Biso   1.000  H
  H4       1.0000 0.06340  0.17720  0.00920  Biso   1.000  H
  H5       1.0000 0.71070  0.15280  0.73120  Biso   1.000  H
  H6       1.0000 0.82760  0.93250  0.58870  Biso   1.000  H
  H7       1.0000 0.17310  0.13780  0.63940  Biso   1.000  H
  H8       1.0000 0.35560  0.91190  0.70820  Biso   1.000  H
  H9       1.0000 0.20160  0.49050  0.83270  Biso   1.000  H
  H10      1.0000 0.53400  0.37920  0.89860  Biso   1.000  H
  H11      1.0000 0.62580  0.74580  0.91300  Biso   1.000  H
  H12      1.0000 0.69960  0.50260  0.67500  Biso   1.000  H
  H13      1.0000 0.29560  0.48210  0.56550  Biso   1.000  H
  H14      1.0000 0.60620  0.80390  0.70810  Biso   1.000  H
  H15      1.0000 0.23020  0.46320  0.05990  Biso   1.000  H
  H16      1.0000 0.73720  0.33130  0.40950  Biso   1.000  H
  H17      1.0000 0.31820  0.03490  0.14450  Biso   1.000  H
  H18      1.0000 0.93660  0.82280  0.99080  Biso   1.000  H
  H19      1.0000 0.28930  0.84720  0.26880  Biso   1.000  H
  H20      1.0000 0.17240  0.06750  0.41130  Biso   1.000  H
  H21      1.0000 0.82690  0.86220  0.36060  Biso   1.000  H
  H22      1.0000 0.64440  0.08810  0.29180  Biso   1.000  H
  H23      1.0000 0.79840  0.50950  0.16730  Biso   1.000  H
  H24      1.0000 0.46600  0.62080  0.10140  Biso   1.000  H
  H25      1.0000 0.37420  0.25420  0.08700  Biso   1.000  H
  H26      1.0000 0.30040  0.49740  0.32500  Biso   1.000  H
  H27      1.0000 0.70440  0.51790  0.43450  Biso   1.000  H
  H28      1.0000 0.39380  0.19610  0.29190  Biso   1.000  H
  C1       1.0000 0.75440  0.01470  0.90530  Biso   1.000  C
  C2       1.0000 0.96190  0.12960  0.98850  Biso   1.000  C
  C3       1.0000 0.71290  0.09760  0.68440  Biso   1.000  C
  C4       1.0000 0.77580  0.97820  0.60750  Biso   1.000  C
  C5       1.0000 0.19420  0.07700  0.66680  Biso   1.000  C
  C6       1.0000 0.29330  0.95430  0.70380  Biso   1.000  C
  C7       1.0000 0.34890  0.73470  0.86630  Biso   1.000  C
  C8       1.0000 0.23890  0.28300  0.85250  Biso   1.000  C
  C9       1.0000 0.40490  0.63430  0.87340  Biso   1.000  C
  C10      1.0000 0.30230  0.50970  0.85340  Biso   1.000  C
  C11      1.0000 0.35060  0.41460  0.86440  Biso   1.000  C
  C12      1.0000 0.50130  0.44290  0.89180  Biso   1.000  C
  C13      1.0000 0.60310  0.56650  0.90910  Biso   1.000  C
  C14      1.0000 0.55680  0.66310  0.90070  Biso   1.000  C
  C15      1.0000 0.82850  0.74050  0.75520  Biso   1.000  C
  C16      1.0000 0.44160  0.33600  0.58180  Biso   1.000  C
  C17      1.0000 0.67690  0.66550  0.69930  Biso   1.000  C
  C18      1.0000 0.63290  0.54050  0.66460  Biso   1.000  C
  C19      1.0000 0.49140  0.47260  0.61510  Biso   1.000  C
  C20      1.0000 0.39140  0.52820  0.59910  Biso   1.000  C
  C21      1.0000 0.43510  0.65230  0.63320  Biso   1.000  C
  C22      1.0000 0.57780  0.72060  0.68420  Biso   1.000  C
  C23      1.0000 0.24560  0.98530  0.09470  Biso   1.000  C
  C24      1.0000 0.03810  0.87040  0.01150  Biso   1.000  C
  C25      1.0000 0.28710  0.90240  0.31560  Biso   1.000  C
  C26      1.0000 0.22420  0.02180  0.39250  Biso   1.000  C
  C27      1.0000 0.80580  0.92300  0.33320  Biso   1.000  C
  C28      1.0000 0.70670  0.04570  0.29620  Biso   1.000  C
  C29      1.0000 0.65110  0.26530  0.13370  Biso   1.000  C
  C30      1.0000 0.76110  0.71700  0.14750  Biso   1.000  C
  C31      1.0000 0.59510  0.36570  0.12660  Biso   1.000  C
  C32      1.0000 0.69770  0.49030  0.14660  Biso   1.000  C
  C33      1.0000 0.64940  0.58540  0.13560  Biso   1.000  C
  C34      1.0000 0.49870  0.55710  0.10820  Biso   1.000  C
  C35      1.0000 0.39690  0.43350  0.09090  Biso   1.000  C
  C36      1.0000 0.44320  0.33690  0.09930  Biso   1.000  C
  C37      1.0000 0.17150  0.25950  0.24480  Biso   1.000  C
  C38      1.0000 0.55840  0.66400  0.41820  Biso   1.000  C
  C39      1.0000 0.32310  0.33450  0.30070  Biso   1.000  C
  C40      1.0000 0.36710  0.45950  0.33540  Biso   1.000  C
  C41      1.0000 0.50860  0.52740  0.38490  Biso   1.000  C
  C42      1.0000 0.60860  0.47180  0.40090  Biso   1.000  C
  C43      1.0000 0.56490  0.34770  0.36680  Biso   1.000  C
  C44      1.0000 0.42220  0.27940  0.31580  Biso   1.000  C
  N1       1.0000 0.72380  0.03990  0.98410  Biso   1.000  N
  N2       1.0000 0.90020  0.06750  0.90370  Biso   1.000  N
  N3       1.0000 0.86020  0.11450  0.03840  Biso   1.000  N
  N4       1.0000 0.81640  0.05010  0.68800  Biso   1.000  N
  N5       1.0000 0.61420  0.05750  0.60750  Biso   1.000  N
  N6       1.0000 0.65640  0.97840  0.55790  Biso   1.000  N
  N7       1.0000 0.12130  0.01750  0.72570  Biso   1.000  N
  N8       1.0000 0.18560  0.93560  0.74990  Biso   1.000  N
  N9       1.0000 0.30250  0.04090  0.65010  Biso   1.000  N
  N10      1.0000 0.27620  0.96010  0.01590  Biso   1.000  N
  N11      1.0000 0.09980  0.93250  0.09630  Biso   1.000  N
  N12      1.0000 0.13980  0.88550  0.96160  Biso   1.000  N
  N13      1.0000 0.18360  0.94990  0.31200  Biso   1.000  N
  N14      1.0000 0.38580  0.94250  0.39250  Biso   1.000  N
  N15      1.0000 0.34360  0.02160  0.44210  Biso   1.000  N
  N16      1.0000 0.87870  0.98250  0.27430  Biso   1.000  N
  N17      1.0000 0.81440  0.06440  0.25010  Biso   1.000  N
  N18      1.0000 0.69750  0.95910  0.34990  Biso   1.000  N
  O1       1.0000 0.43420  0.84840  0.88860  Biso   1.000  O
  O2       1.0000 0.20860  0.69750  0.83680  Biso   1.000  O
  O3       1.0000 0.10800  0.25520  0.80540  Biso   1.000  O
  O4       1.0000 0.27120  0.20170  0.88860  Biso   1.000  O
  O5       1.0000 0.75360  0.59980  0.93620  Biso   1.000  O
  O6       1.0000 0.86430  0.84870  0.79080  Biso   1.000  O
  O7       1.0000 0.92100  0.68690  0.76470  Biso   1.000  O
  O8       1.0000 0.53990  0.28930  0.59850  Biso   1.000  O
  O9       1.0000 0.31170  0.27080  0.54200  Biso   1.000  O
  O10      1.0000 0.34440  0.71580  0.62100  Biso   1.000  O
  O11      1.0000 0.49650  0.12500  0.90880  Biso   1.000  O
  O12      1.0000 0.56580  0.15160  0.11140  Biso   1.000  O
  O13      1.0000 0.79140  0.30250  0.16320  Biso   1.000  O
  O14      1.0000 0.89200  0.74480  0.19460  Biso   1.000  O
  O15      1.0000 0.72880  0.79830  0.11140  Biso   1.000  O
  O16      1.0000 0.24640  0.40020  0.06380  Biso   1.000  O
  O17      1.0000 0.13570  0.15130  0.20920  Biso   1.000  O
  O18      1.0000 0.07900  0.31310  0.23530  Biso   1.000  O
  O19      1.0000 0.46010  0.71070  0.40150  Biso   1.000  O
  O20      1.0000 0.68830  0.72920  0.45800  Biso   1.000  O
  O21      1.0000 0.65560  0.28420  0.37900  Biso   1.000  O
  O22      1.0000 0.50350  0.87500  0.09120  Biso   1.000  O
