data_image0
_cell_length_a       9.758
_cell_length_b       11.89
_cell_length_c       15.22
_cell_angle_alpha    95.544
_cell_angle_beta     99.068
_cell_angle_gamma    112.874

_symmetry_space_group_name_H-M    P 1
_symmetry_int_tables_number       1

loop_
  _symmetry_equiv_pos_as_xyz
  'x, y, z'

loop_
  _atom_site_label
  _atom_site_occupancy
  _atom_site_fract_x
  _atom_site_fract_y
  _atom_site_fract_z
  _atom_site_thermal_displace_type
  _atom_site_B_iso_or_equiv
  _atom_site_type_symbol
  Zn1      1.0000 0.00986  0.92810  0.20549  Biso   1.000  Zn
  Zn2      1.0000 0.55713  0.89077  0.43142  Biso   1.000  Zn
  Zn3      1.0000 0.10884  0.81187  0.83079  Biso   1.000  Zn
  Zn4      1.0000 0.99014  0.07190  0.79451  Biso   1.000  Zn
  Zn5      1.0000 0.44287  0.10923  0.56858  Biso   1.000  Zn
  Zn6      1.0000 0.89116  0.18813  0.16921  Biso   1.000  Zn
  Zn7      1.0000 0.50000  0.00000  0.00000  Biso   1.000  Zn
  H1       1.0000 0.31630  0.03380  0.14350  Biso   1.000  H
  H2       1.0000 0.92700  0.82330  0.98710  Biso   1.000  H
  H3       1.0000 0.82260  0.86340  0.35580  Biso   1.000  H
  H4       1.0000 0.65050  0.09620  0.29700  Biso   1.000  H
  H5       1.0000 0.27680  0.83520  0.27200  Biso   1.000  H
  H6       1.0000 0.18010  0.07830  0.40460  Biso   1.000  H
  H7       1.0000 0.80230  0.51040  0.16550  Biso   1.000  H
  H8       1.0000 0.45610  0.61120  0.10030  Biso   1.000  H
  H9       1.0000 0.28400  0.40530  0.07530  Biso   1.000  H
  H10      1.0000 0.37510  0.25040  0.08540  Biso   1.000  H
  H11      1.0000 0.30730  0.49480  0.32400  Biso   1.000  H
  H12      1.0000 0.72330  0.53830  0.44450  Biso   1.000  H
  H13      1.0000 0.66540  0.33440  0.39150  Biso   1.000  H
  H14      1.0000 0.43050  0.21110  0.30130  Biso   1.000  H
  H15      1.0000 0.68370  0.96620  0.85650  Biso   1.000  H
  H16      1.0000 0.07300  0.17670  0.01290  Biso   1.000  H
  H17      1.0000 0.17740  0.13660  0.64420  Biso   1.000  H
  H18      1.0000 0.34950  0.90380  0.70300  Biso   1.000  H
  H19      1.0000 0.72320  0.16480  0.72800  Biso   1.000  H
  H20      1.0000 0.81990  0.92170  0.59540  Biso   1.000  H
  H21      1.0000 0.19770  0.48960  0.83450  Biso   1.000  H
  H22      1.0000 0.54390  0.38880  0.89970  Biso   1.000  H
  H23      1.0000 0.71600  0.59470  0.92470  Biso   1.000  H
  H24      1.0000 0.62490  0.74960  0.91460  Biso   1.000  H
  H25      1.0000 0.69270  0.50520  0.67600  Biso   1.000  H
  H26      1.0000 0.27670  0.46170  0.55550  Biso   1.000  H
  H27      1.0000 0.33460  0.66560  0.60850  Biso   1.000  H
  H28      1.0000 0.56950  0.78890  0.69870  Biso   1.000  H
  C1       1.0000 0.24240  0.98450  0.09300  Biso   1.000  C
  C2       1.0000 0.03070  0.87040  0.00860  Biso   1.000  C
  C3       1.0000 0.80320  0.92530  0.33050  Biso   1.000  C
  C4       1.0000 0.71040  0.05150  0.29860  Biso   1.000  C
  C5       1.0000 0.27990  0.89550  0.31690  Biso   1.000  C
  C6       1.0000 0.22730  0.02700  0.38910  Biso   1.000  C
  C7       1.0000 0.65690  0.26750  0.13560  Biso   1.000  C
  C8       1.0000 0.75990  0.71370  0.14790  Biso   1.000  C
  C9       1.0000 0.59870  0.36650  0.12680  Biso   1.000  C
  C10      1.0000 0.69900  0.48940  0.14530  Biso   1.000  C
  C11      1.0000 0.64870  0.58260  0.13430  Biso   1.000  C
  C12      1.0000 0.49130  0.54960  0.10740  Biso   1.000  C
  C13      1.0000 0.38800  0.42630  0.09110  Biso   1.000  C
  C14      1.0000 0.44270  0.33350  0.09880  Biso   1.000  C
  C15      1.0000 0.18920  0.25880  0.24620  Biso   1.000  C
  C16      1.0000 0.56670  0.67350  0.41710  Biso   1.000  C
  C17      1.0000 0.34360  0.34120  0.30340  Biso   1.000  C
  C18      1.0000 0.38010  0.46290  0.33600  Biso   1.000  C
  C19      1.0000 0.52390  0.53940  0.38680  Biso   1.000  C
  C20      1.0000 0.62810  0.48870  0.40820  Biso   1.000  C
  C21      1.0000 0.59380  0.36700  0.37690  Biso   1.000  C
  C22      1.0000 0.45330  0.29330  0.32390  Biso   1.000  C
  C23      1.0000 0.75760  0.01550  0.90700  Biso   1.000  C
  C24      1.0000 0.96930  0.12960  0.99140  Biso   1.000  C
  C25      1.0000 0.19680  0.07470  0.66950  Biso   1.000  C
  C26      1.0000 0.28960  0.94850  0.70140  Biso   1.000  C
  C27      1.0000 0.72010  0.10450  0.68310  Biso   1.000  C
  C28      1.0000 0.77270  0.97300  0.61090  Biso   1.000  C
  C29      1.0000 0.34310  0.73250  0.86440  Biso   1.000  C
  C30      1.0000 0.24010  0.28630  0.85210  Biso   1.000  C
  C31      1.0000 0.40130  0.63350  0.87320  Biso   1.000  C
  C32      1.0000 0.30100  0.51060  0.85470  Biso   1.000  C
  C33      1.0000 0.35130  0.41740  0.86570  Biso   1.000  C
  C34      1.0000 0.50870  0.45040  0.89260  Biso   1.000  C
  C35      1.0000 0.61200  0.57370  0.90890  Biso   1.000  C
  C36      1.0000 0.55730  0.66650  0.90120  Biso   1.000  C
  C37      1.0000 0.81080  0.74120  0.75380  Biso   1.000  C
  C38      1.0000 0.43330  0.32650  0.58290  Biso   1.000  C
  C39      1.0000 0.65640  0.65880  0.69660  Biso   1.000  C
  C40      1.0000 0.61990  0.53710  0.66400  Biso   1.000  C
  C41      1.0000 0.47610  0.46060  0.61320  Biso   1.000  C
  C42      1.0000 0.37190  0.51130  0.59180  Biso   1.000  C
  C43      1.0000 0.40620  0.63300  0.62310  Biso   1.000  C
  C44      1.0000 0.54670  0.70670  0.67610  Biso   1.000  C
  N1       1.0000 0.27460  0.96100  0.01420  Biso   1.000  N
  N2       1.0000 0.13410  0.88540  0.95850  Biso   1.000  N
  N3       1.0000 0.09290  0.93080  0.09380  Biso   1.000  N
  N4       1.0000 0.87770  0.98520  0.27150  Biso   1.000  N
  N5       1.0000 0.81600  0.06780  0.25140  Biso   1.000  N
  N6       1.0000 0.69820  0.96320  0.34960  Biso   1.000  N
  N7       1.0000 0.38190  0.93810  0.39390  Biso   1.000  N
  N8       1.0000 0.34570  0.02380  0.44190  Biso   1.000  N
  N9       1.0000 0.18220  0.94840  0.31060  Biso   1.000  N
  N10      1.0000 0.72540  0.03900  0.98580  Biso   1.000  N
  N11      1.0000 0.86590  0.11460  0.04150  Biso   1.000  N
  N12      1.0000 0.90710  0.06920  0.90620  Biso   1.000  N
  N13      1.0000 0.12230  0.01480  0.72850  Biso   1.000  N
  N14      1.0000 0.18400  0.93220  0.74860  Biso   1.000  N
  N15      1.0000 0.30180  0.03680  0.65040  Biso   1.000  N
  N16      1.0000 0.61810  0.06190  0.60610  Biso   1.000  N
  N17      1.0000 0.65430  0.97620  0.55810  Biso   1.000  N
  N18      1.0000 0.81780  0.05160  0.68940  Biso   1.000  N
  O1       1.0000 0.57240  0.15630  0.11120  Biso   1.000  O
  O2       1.0000 0.80020  0.30750  0.16760  Biso   1.000  O
  O3       1.0000 0.89180  0.74320  0.19690  Biso   1.000  O
  O4       1.0000 0.72790  0.79130  0.10850  Biso   1.000  O
  O5       1.0000 0.15730  0.15030  0.21740  Biso   1.000  O
  O6       1.0000 0.09590  0.30950  0.22740  Biso   1.000  O
  O7       1.0000 0.46070  0.71170  0.39470  Biso   1.000  O
  O8       1.0000 0.69380  0.74420  0.46030  Biso   1.000  O
  O9       1.0000 0.50790  0.88100  0.09200  Biso   1.000  O
  O10      1.0000 0.42760  0.84370  0.88880  Biso   1.000  O
  O11      1.0000 0.19980  0.69250  0.83240  Biso   1.000  O
  O12      1.0000 0.10820  0.25680  0.80310  Biso   1.000  O
  O13      1.0000 0.27210  0.20870  0.89150  Biso   1.000  O
  O14      1.0000 0.84270  0.84970  0.78260  Biso   1.000  O
  O15      1.0000 0.90410  0.69050  0.77260  Biso   1.000  O
  O16      1.0000 0.53930  0.28830  0.60530  Biso   1.000  O
  O17      1.0000 0.30620  0.25580  0.53970  Biso   1.000  O
  O18      1.0000 0.49210  0.11900  0.90800  Biso   1.000  O
