data_image0
_cell_length_a       11.098
_cell_length_b       11.194
_cell_length_c       16.587
_cell_angle_alpha    99.085
_cell_angle_beta     109.296
_cell_angle_gamma    91.098

_symmetry_space_group_name_H-M    P 1
_symmetry_int_tables_number       1

loop_
  _symmetry_equiv_pos_as_xyz
  'x, y, z'

loop_
  _atom_site_label
  _atom_site_occupancy
  _atom_site_fract_x
  _atom_site_fract_y
  _atom_site_fract_z
  _atom_site_thermal_displace_type
  _atom_site_B_iso_or_equiv
  _atom_site_type_symbol
  Co1      1.0000 0.17774  0.86659  0.25096  Biso   1.000  Co
  Co2      1.0000 0.20119  0.70816  0.04874  Biso   1.000  Co
  Co3      1.0000 0.92064  0.76726  0.03597  Biso   1.000  Co
  Co4      1.0000 0.24146  0.08115  0.45632  Biso   1.000  Co
  Co5      1.0000 0.17249  0.80943  0.46057  Biso   1.000  Co
  Co6      1.0000 0.82226  0.13341  0.74904  Biso   1.000  Co
  Co7      1.0000 0.79881  0.29184  0.95126  Biso   1.000  Co
  Co8      1.0000 0.07936  0.23274  0.96403  Biso   1.000  Co
  Co9      1.0000 0.75854  0.91885  0.54368  Biso   1.000  Co
  Co10     1.0000 0.82751  0.19057  0.53943  Biso   1.000  Co
  H1       1.0000 0.56860  0.05510  0.35840  Biso   1.000  H
  H2       1.0000 0.49610  0.02700  0.20470  Biso   1.000  H
  H3       1.0000 0.63510  0.97240  0.13730  Biso   1.000  H
  H4       1.0000 0.89080  0.66080  0.36610  Biso   1.000  H
  H5       1.0000 0.80320  0.61930  0.21830  Biso   1.000  H
  H6       1.0000 0.59370  0.67110  0.15400  Biso   1.000  H
  H7       1.0000 0.97730  0.17410  0.14210  Biso   1.000  H
  H8       1.0000 0.00370  0.21710  0.28950  Biso   1.000  H
  H9       1.0000 0.06700  0.41540  0.36500  Biso   1.000  H
  H10      1.0000 0.36520  0.50050  0.15120  Biso   1.000  H
  H11      1.0000 0.43160  0.52290  0.30270  Biso   1.000  H
  H12      1.0000 0.38210  0.36040  0.36070  Biso   1.000  H
  H13      1.0000 0.32690  0.89550  0.40460  Biso   1.000  H
  H14      1.0000 0.10710  0.77960  0.59620  Biso   1.000  H
  H15      1.0000 0.00930  0.71420  0.52330  Biso   1.000  H
  H16      1.0000 0.40510  0.75940  0.51170  Biso   1.000  H
  H17      1.0000 0.33630  0.66710  0.52830  Biso   1.000  H
  H18      1.0000 0.12260  0.89800  0.09570  Biso   1.000  H
  H19      1.0000 0.25670  0.90430  0.00110  Biso   1.000  H
  H20      1.0000 0.34760  0.82580  0.99030  Biso   1.000  H
  H21      1.0000 0.24580  0.50060  0.98020  Biso   1.000  H
  H22      1.0000 0.21990  0.57080  0.91540  Biso   1.000  H
  H23      1.0000 0.43140  0.94490  0.64160  Biso   1.000  H
  H24      1.0000 0.50390  0.97300  0.79530  Biso   1.000  H
  H25      1.0000 0.36490  0.02760  0.86270  Biso   1.000  H
  H26      1.0000 0.10920  0.33920  0.63390  Biso   1.000  H
  H27      1.0000 0.19680  0.38070  0.78170  Biso   1.000  H
  H28      1.0000 0.40630  0.32890  0.84600  Biso   1.000  H
  H29      1.0000 0.02270  0.82590  0.85790  Biso   1.000  H
  H30      1.0000 0.99630  0.78290  0.71050  Biso   1.000  H
  H31      1.0000 0.93300  0.58460  0.63500  Biso   1.000  H
  H32      1.0000 0.63480  0.49950  0.84880  Biso   1.000  H
  H33      1.0000 0.56840  0.47710  0.69730  Biso   1.000  H
  H34      1.0000 0.61790  0.63960  0.63930  Biso   1.000  H
  H35      1.0000 0.67310  0.10450  0.59540  Biso   1.000  H
  H36      1.0000 0.89290  0.22040  0.40380  Biso   1.000  H
  H37      1.0000 0.99070  0.28580  0.47670  Biso   1.000  H
  H38      1.0000 0.59490  0.24060  0.48830  Biso   1.000  H
  H39      1.0000 0.66370  0.33290  0.47170  Biso   1.000  H
  H40      1.0000 0.87740  0.10200  0.90430  Biso   1.000  H
  H41      1.0000 0.74330  0.09570  0.99890  Biso   1.000  H
  H42      1.0000 0.65240  0.17420  0.00970  Biso   1.000  H
  H43      1.0000 0.75420  0.49940  0.01980  Biso   1.000  H
  H44      1.0000 0.78010  0.42920  0.08460  Biso   1.000  H
  C1       1.0000 0.62270  0.03250  0.32710  Biso   1.000  C
  C2       1.0000 0.58020  0.01570  0.23650  Biso   1.000  C
  C3       1.0000 0.66450  0.98300  0.19760  Biso   1.000  C
  C4       1.0000 0.78890  0.96340  0.23620  Biso   1.000  C
  C5       1.0000 0.83650  0.98700  0.32470  Biso   1.000  C
  C6       1.0000 0.96750  0.97360  0.37990  Biso   1.000  C
  C7       1.0000 0.87910  0.91300  0.19080  Biso   1.000  C
  C8       1.0000 0.80590  0.67630  0.34010  Biso   1.000  C
  C9       1.0000 0.75590  0.65320  0.25200  Biso   1.000  C
  C10      1.0000 0.62960  0.68270  0.21410  Biso   1.000  C
  C11      1.0000 0.55770  0.72820  0.26330  Biso   1.000  C
  C12      1.0000 0.61240  0.74160  0.35340  Biso   1.000  C
  C13      1.0000 0.54550  0.77720  0.41870  Biso   1.000  C
  C14      1.0000 0.42160  0.75560  0.22060  Biso   1.000  C
  C15      1.0000 0.99470  0.25360  0.17200  Biso   1.000  C
  C16      1.0000 0.01400  0.27880  0.26030  Biso   1.000  C
  C17      1.0000 0.04940  0.39930  0.30530  Biso   1.000  C
  C18      1.0000 0.05790  0.48850  0.26510  Biso   1.000  C
  C19      1.0000 0.03470  0.46220  0.17130  Biso   1.000  C
  C20      1.0000 0.04130  0.55530  0.11560  Biso   1.000  C
  C21      1.0000 0.10230  0.61710  0.30520  Biso   1.000  C
  C22      1.0000 0.35580  0.43500  0.17740  Biso   1.000  C
  C23      1.0000 0.39120  0.45060  0.26720  Biso   1.000  C
  C24      1.0000 0.36270  0.35130  0.30090  Biso   1.000  C
  C25      1.0000 0.30810  0.24210  0.25200  Biso   1.000  C
  C26      1.0000 0.28260  0.22620  0.15980  Biso   1.000  C
  C27      1.0000 0.23980  0.11630  0.09490  Biso   1.000  C
  C28      1.0000 0.27510  0.14150  0.28970  Biso   1.000  C
  C29      1.0000 0.37730  0.96750  0.67290  Biso   1.000  C
  C30      1.0000 0.41980  0.98430  0.76350  Biso   1.000  C
  C31      1.0000 0.33550  0.01700  0.80240  Biso   1.000  C
  C32      1.0000 0.21110  0.03660  0.76380  Biso   1.000  C
  C33      1.0000 0.16350  0.01300  0.67530  Biso   1.000  C
  C34      1.0000 0.03250  0.02640  0.62010  Biso   1.000  C
  C35      1.0000 0.12090  0.08700  0.80920  Biso   1.000  C
  C36      1.0000 0.19410  0.32370  0.65990  Biso   1.000  C
  C37      1.0000 0.24410  0.34680  0.74800  Biso   1.000  C
  C38      1.0000 0.37040  0.31730  0.78590  Biso   1.000  C
  C39      1.0000 0.44230  0.27180  0.73670  Biso   1.000  C
  C40      1.0000 0.38760  0.25840  0.64660  Biso   1.000  C
  C41      1.0000 0.45450  0.22280  0.58130  Biso   1.000  C
  C42      1.0000 0.57840  0.24440  0.77940  Biso   1.000  C
  C43      1.0000 0.00530  0.74640  0.82800  Biso   1.000  C
  C44      1.0000 0.98600  0.72120  0.73970  Biso   1.000  C
  C45      1.0000 0.95060  0.60070  0.69470  Biso   1.000  C
  C46      1.0000 0.94210  0.51150  0.73490  Biso   1.000  C
  C47      1.0000 0.96530  0.53780  0.82870  Biso   1.000  C
  C48      1.0000 0.95870  0.44470  0.88440  Biso   1.000  C
  C49      1.0000 0.89770  0.38290  0.69480  Biso   1.000  C
  C50      1.0000 0.64420  0.56500  0.82260  Biso   1.000  C
  C51      1.0000 0.60880  0.54940  0.73280  Biso   1.000  C
  C52      1.0000 0.63730  0.64870  0.69910  Biso   1.000  C
  C53      1.0000 0.69190  0.75790  0.74800  Biso   1.000  C
  C54      1.0000 0.71740  0.77380  0.84020  Biso   1.000  C
  C55      1.0000 0.76020  0.88370  0.90510  Biso   1.000  C
  C56      1.0000 0.72490  0.85850  0.71030  Biso   1.000  C
  N1       1.0000 0.74760  0.01390  0.36690  Biso   1.000  N
  N2       1.0000 0.73780  0.72160  0.39340  Biso   1.000  N
  N3       1.0000 0.00170  0.34520  0.13070  Biso   1.000  N
  N4       1.0000 0.30690  0.32380  0.12710  Biso   1.000  N
  N5       1.0000 0.25240  0.98610  0.63310  Biso   1.000  N
  N6       1.0000 0.26220  0.27840  0.60660  Biso   1.000  N
  N7       1.0000 0.99830  0.65480  0.86930  Biso   1.000  N
  N8       1.0000 0.69310  0.67620  0.87290  Biso   1.000  N
  O1       1.0000 0.79230  0.02730  0.45350  Biso   1.000  O
  O2       1.0000 0.04010  0.06900  0.40170  Biso   1.000  O
  O3       1.0000 0.99600  0.87240  0.39970  Biso   1.000  O
  O4       1.0000 0.99850  0.93100  0.23500  Biso   1.000  O
  O5       1.0000 0.83190  0.85560  0.11410  Biso   1.000  O
  O6       1.0000 0.78580  0.74390  0.47720  Biso   1.000  O
  O7       1.0000 0.47370  0.69380  0.42510  Biso   1.000  O
  O8       1.0000 0.56510  0.88750  0.45870  Biso   1.000  O
  O9       1.0000 0.36320  0.80800  0.26560  Biso   1.000  O
  O10      1.0000 0.37790  0.72120  0.13710  Biso   1.000  O
  O11      1.0000 0.97350  0.32070  0.04400  Biso   1.000  O
  O12      1.0000 0.14140  0.56740  0.10250  Biso   1.000  O
  O13      1.0000 0.93960  0.61170  0.09160  Biso   1.000  O
  O14      1.0000 0.11720  0.69110  0.25950  Biso   1.000  O
  O15      1.0000 0.12070  0.64130  0.38570  Biso   1.000  O
  O16      1.0000 0.27190  0.31780  0.04150  Biso   1.000  O
  O17      1.0000 0.12140  0.10190  0.04790  Biso   1.000  O
  O18      1.0000 0.32310  0.04650  0.08630  Biso   1.000  O
  O19      1.0000 0.24340  0.03920  0.24190  Biso   1.000  O
  O20      1.0000 0.27540  0.16640  0.36780  Biso   1.000  O
  O21      1.0000 0.24800  0.90850  0.38970  Biso   1.000  O
  O22      1.0000 0.08830  0.73790  0.54560  Biso   1.000  O
  O23      1.0000 0.34700  0.74340  0.53210  Biso   1.000  O
  O24      1.0000 0.11070  0.83070  0.11060  Biso   1.000  O
  O25      1.0000 0.26830  0.83220  0.98170  Biso   1.000  O
  O26      1.0000 0.26090  0.56940  0.96850  Biso   1.000  O
  O27      1.0000 0.20770  0.97270  0.54650  Biso   1.000  O
  O28      1.0000 0.95990  0.93100  0.59830  Biso   1.000  O
  O29      1.0000 0.00400  0.12760  0.60030  Biso   1.000  O
  O30      1.0000 0.00150  0.06900  0.76500  Biso   1.000  O
  O31      1.0000 0.16810  0.14440  0.88590  Biso   1.000  O
  O32      1.0000 0.21420  0.25610  0.52280  Biso   1.000  O
  O33      1.0000 0.52630  0.30620  0.57490  Biso   1.000  O
  O34      1.0000 0.43490  0.11250  0.54130  Biso   1.000  O
  O35      1.0000 0.63680  0.19200  0.73440  Biso   1.000  O
  O36      1.0000 0.62210  0.27880  0.86290  Biso   1.000  O
  O37      1.0000 0.02650  0.67930  0.95600  Biso   1.000  O
  O38      1.0000 0.85860  0.43260  0.89750  Biso   1.000  O
  O39      1.0000 0.06040  0.38830  0.90840  Biso   1.000  O
  O40      1.0000 0.88280  0.30890  0.74050  Biso   1.000  O
  O41      1.0000 0.87930  0.35870  0.61430  Biso   1.000  O
  O42      1.0000 0.72810  0.68220  0.95850  Biso   1.000  O
  O43      1.0000 0.87860  0.89810  0.95210  Biso   1.000  O
  O44      1.0000 0.67690  0.95350  0.91370  Biso   1.000  O
  O45      1.0000 0.75660  0.96080  0.75810  Biso   1.000  O
  O46      1.0000 0.72460  0.83360  0.63220  Biso   1.000  O
  O47      1.0000 0.75200  0.09150  0.61030  Biso   1.000  O
  O48      1.0000 0.91170  0.26210  0.45440  Biso   1.000  O
  O49      1.0000 0.65300  0.25660  0.46790  Biso   1.000  O
  O50      1.0000 0.88930  0.16930  0.88940  Biso   1.000  O
  O51      1.0000 0.73170  0.16780  0.01830  Biso   1.000  O
  O52      1.0000 0.73910  0.43060  0.03150  Biso   1.000  O
