data_image0
_cell_length_a       7.036
_cell_length_b       15.8921
_cell_length_c       26.561
_cell_angle_alpha    90
_cell_angle_beta     90
_cell_angle_gamma    90

_symmetry_space_group_name_H-M    P 1
_symmetry_int_tables_number       1

loop_
  _symmetry_equiv_pos_as_xyz
  'x, y, z'

loop_
  _atom_site_label
  _atom_site_occupancy
  _atom_site_fract_x
  _atom_site_fract_y
  _atom_site_fract_z
  _atom_site_thermal_displace_type
  _atom_site_B_iso_or_equiv
  _atom_site_type_symbol
  Cd1      1.0000 0.59302  0.51981  0.98568  Biso   1.000  Cd
  Cd2      1.0000 0.34696  0.75398  0.99770  Biso   1.000  Cd
  Cd3      1.0000 0.27660  0.50851  0.88659  Biso   1.000  Cd
  Cd4      1.0000 0.90698  0.48019  0.48568  Biso   1.000  Cd
  Cd5      1.0000 0.15304  0.24602  0.49770  Biso   1.000  Cd
  Cd6      1.0000 0.22340  0.49149  0.38659  Biso   1.000  Cd
  Cd7      1.0000 0.40698  0.01981  0.51432  Biso   1.000  Cd
  Cd8      1.0000 0.65304  0.25398  0.50230  Biso   1.000  Cd
  Cd9      1.0000 0.72340  0.00851  0.61341  Biso   1.000  Cd
  Cd10     1.0000 0.09302  0.98019  0.01432  Biso   1.000  Cd
  Cd11     1.0000 0.84696  0.74602  0.00230  Biso   1.000  Cd
  Cd12     1.0000 0.77660  0.99149  0.11341  Biso   1.000  Cd
  P1       1.0000 0.09360  0.55956  0.99999  Biso   1.000  P
  P2       1.0000 0.59660  0.67172  0.90095  Biso   1.000  P
  P3       1.0000 0.40640  0.44044  0.49999  Biso   1.000  P
  P4       1.0000 0.90340  0.32828  0.40095  Biso   1.000  P
  P5       1.0000 0.90640  0.05956  0.50001  Biso   1.000  P
  P6       1.0000 0.40340  0.17172  0.59905  Biso   1.000  P
  P7       1.0000 0.59360  0.94044  0.00001  Biso   1.000  P
  P8       1.0000 0.09660  0.82828  0.09905  Biso   1.000  P
  H1       1.0000 0.00120  0.63390  0.87370  Biso   1.000  H
  H2       1.0000 0.17010  0.67130  0.85860  Biso   1.000  H
  H3       1.0000 0.97600  0.40510  0.88060  Biso   1.000  H
  H4       1.0000 0.92580  0.47490  0.85210  Biso   1.000  H
  H5       1.0000 0.90660  0.42340  0.06050  Biso   1.000  H
  H6       1.0000 0.50230  0.79220  0.82080  Biso   1.000  H
  H7       1.0000 0.02530  0.54500  0.08490  Biso   1.000  H
  H8       1.0000 0.23220  0.51360  0.07430  Biso   1.000  H
  H9       1.0000 0.08050  0.38930  0.99170  Biso   1.000  H
  H10      1.0000 0.25040  0.36470  0.02710  Biso   1.000  H
  H11      1.0000 0.89730  0.28180  0.02510  Biso   1.000  H
  H12      1.0000 0.08640  0.24450  0.00320  Biso   1.000  H
  H13      1.0000 0.21850  0.24350  0.08440  Biso   1.000  H
  H14      1.0000 0.86120  0.29810  0.11850  Biso   1.000  H
  H15      1.0000 0.03250  0.27590  0.15390  Biso   1.000  H
  H16      1.0000 0.20800  0.38720  0.12240  Biso   1.000  H
  H17      1.0000 0.01170  0.42200  0.14110  Biso   1.000  H
  H18      1.0000 0.53220  0.64970  0.81620  Biso   1.000  H
  H19      1.0000 0.75140  0.65950  0.82400  Biso   1.000  H
  H20      1.0000 0.76040  0.74830  0.74710  Biso   1.000  H
  H21      1.0000 0.54070  0.73300  0.74240  Biso   1.000  H
  H22      1.0000 0.48580  0.87890  0.74290  Biso   1.000  H
  H23      1.0000 0.62460  0.85620  0.69860  Biso   1.000  H
  H24      1.0000 0.88580  0.89690  0.74660  Biso   1.000  H
  H25      1.0000 0.85220  0.95150  0.82630  Biso   1.000  H
  H26      1.0000 0.63090  0.94140  0.82360  Biso   1.000  H
  H27      1.0000 0.74810  0.83250  0.87200  Biso   1.000  H
  H28      1.0000 0.89280  0.80690  0.82970  Biso   1.000  H
  H29      1.0000 0.49880  0.36610  0.37370  Biso   1.000  H
  H30      1.0000 0.32990  0.32870  0.35860  Biso   1.000  H
  H31      1.0000 0.52400  0.59490  0.38060  Biso   1.000  H
  H32      1.0000 0.57420  0.52510  0.35210  Biso   1.000  H
  H33      1.0000 0.59340  0.57660  0.56050  Biso   1.000  H
  H34      1.0000 0.99770  0.20780  0.32080  Biso   1.000  H
  H35      1.0000 0.47470  0.45500  0.58490  Biso   1.000  H
  H36      1.0000 0.26780  0.48640  0.57430  Biso   1.000  H
  H37      1.0000 0.41950  0.61070  0.49170  Biso   1.000  H
  H38      1.0000 0.24960  0.63530  0.52710  Biso   1.000  H
  H39      1.0000 0.60270  0.71820  0.52510  Biso   1.000  H
  H40      1.0000 0.41360  0.75550  0.50320  Biso   1.000  H
  H41      1.0000 0.28150  0.75650  0.58440  Biso   1.000  H
  H42      1.0000 0.63880  0.70190  0.61850  Biso   1.000  H
  H43      1.0000 0.46750  0.72410  0.65390  Biso   1.000  H
  H44      1.0000 0.29200  0.61280  0.62240  Biso   1.000  H
  H45      1.0000 0.48830  0.57800  0.64110  Biso   1.000  H
  H46      1.0000 0.96780  0.35030  0.31620  Biso   1.000  H
  H47      1.0000 0.74860  0.34050  0.32400  Biso   1.000  H
  H48      1.0000 0.73960  0.25170  0.24710  Biso   1.000  H
  H49      1.0000 0.95930  0.26700  0.24240  Biso   1.000  H
  H50      1.0000 0.01420  0.12110  0.24290  Biso   1.000  H
  H51      1.0000 0.87540  0.14380  0.19860  Biso   1.000  H
  H52      1.0000 0.61420  0.10310  0.24660  Biso   1.000  H
  H53      1.0000 0.64780  0.04850  0.32630  Biso   1.000  H
  H54      1.0000 0.86910  0.05860  0.32360  Biso   1.000  H
  H55      1.0000 0.75190  0.16750  0.37200  Biso   1.000  H
  H56      1.0000 0.60720  0.19310  0.32970  Biso   1.000  H
  H57      1.0000 0.99880  0.13390  0.62630  Biso   1.000  H
  H58      1.0000 0.82990  0.17130  0.64140  Biso   1.000  H
  H59      1.0000 0.02400  0.90510  0.61940  Biso   1.000  H
  H60      1.0000 0.07420  0.97490  0.64790  Biso   1.000  H
  H61      1.0000 0.09340  0.92340  0.43950  Biso   1.000  H
  H62      1.0000 0.49770  0.29220  0.67920  Biso   1.000  H
  H63      1.0000 0.97470  0.04500  0.41510  Biso   1.000  H
  H64      1.0000 0.76780  0.01360  0.42570  Biso   1.000  H
  H65      1.0000 0.91950  0.88930  0.50830  Biso   1.000  H
  H66      1.0000 0.74960  0.86470  0.47290  Biso   1.000  H
  H67      1.0000 0.10270  0.78180  0.47490  Biso   1.000  H
  H68      1.0000 0.91360  0.74450  0.49680  Biso   1.000  H
  H69      1.0000 0.78150  0.74350  0.41560  Biso   1.000  H
  H70      1.0000 0.13880  0.79810  0.38150  Biso   1.000  H
  H71      1.0000 0.96750  0.77590  0.34610  Biso   1.000  H
  H72      1.0000 0.79200  0.88720  0.37760  Biso   1.000  H
  H73      1.0000 0.98830  0.92200  0.35890  Biso   1.000  H
  H74      1.0000 0.46780  0.14970  0.68380  Biso   1.000  H
  H75      1.0000 0.24860  0.15950  0.67600  Biso   1.000  H
  H76      1.0000 0.23960  0.24830  0.75290  Biso   1.000  H
  H77      1.0000 0.45930  0.23300  0.75760  Biso   1.000  H
  H78      1.0000 0.51420  0.37890  0.75710  Biso   1.000  H
  H79      1.0000 0.37540  0.35620  0.80140  Biso   1.000  H
  H80      1.0000 0.11420  0.39690  0.75340  Biso   1.000  H
  H81      1.0000 0.14780  0.45150  0.67370  Biso   1.000  H
  H82      1.0000 0.36910  0.44140  0.67640  Biso   1.000  H
  H83      1.0000 0.25190  0.33250  0.62800  Biso   1.000  H
  H84      1.0000 0.10720  0.30690  0.67030  Biso   1.000  H
  H85      1.0000 0.50120  0.86610  0.12630  Biso   1.000  H
  H86      1.0000 0.67010  0.82870  0.14140  Biso   1.000  H
  H87      1.0000 0.47600  0.09490  0.11940  Biso   1.000  H
  H88      1.0000 0.42580  0.02510  0.14790  Biso   1.000  H
  H89      1.0000 0.40660  0.07660  0.93950  Biso   1.000  H
  H90      1.0000 0.00230  0.70780  0.17920  Biso   1.000  H
  H91      1.0000 0.52530  0.95500  0.91510  Biso   1.000  H
  H92      1.0000 0.73220  0.98640  0.92570  Biso   1.000  H
  H93      1.0000 0.58050  0.11070  0.00830  Biso   1.000  H
  H94      1.0000 0.75040  0.13530  0.97290  Biso   1.000  H
  H95      1.0000 0.39730  0.21820  0.97490  Biso   1.000  H
  H96      1.0000 0.58640  0.25550  0.99680  Biso   1.000  H
  H97      1.0000 0.71850  0.25650  0.91560  Biso   1.000  H
  H98      1.0000 0.36120  0.20190  0.88150  Biso   1.000  H
  H99      1.0000 0.53250  0.22410  0.84610  Biso   1.000  H
  H100     1.0000 0.70800  0.11280  0.87760  Biso   1.000  H
  H101     1.0000 0.51170  0.07800  0.85890  Biso   1.000  H
  H102     1.0000 0.03220  0.85030  0.18380  Biso   1.000  H
  H103     1.0000 0.25140  0.84050  0.17600  Biso   1.000  H
  H104     1.0000 0.26040  0.75170  0.25290  Biso   1.000  H
  H105     1.0000 0.04070  0.76700  0.25760  Biso   1.000  H
  H106     1.0000 0.98580  0.62110  0.25710  Biso   1.000  H
  H107     1.0000 0.12460  0.64380  0.30140  Biso   1.000  H
  H108     1.0000 0.38580  0.60310  0.25340  Biso   1.000  H
  H109     1.0000 0.35220  0.54850  0.17370  Biso   1.000  H
  H110     1.0000 0.13090  0.55860  0.17640  Biso   1.000  H
  H111     1.0000 0.24810  0.66750  0.12800  Biso   1.000  H
  H112     1.0000 0.39280  0.69310  0.17030  Biso   1.000  H
  C1       1.0000 0.10210  0.51150  0.06220  Biso   1.000  C
  C2       1.0000 0.11300  0.36670  0.02450  Biso   1.000  C
  C3       1.0000 0.03400  0.27990  0.02950  Biso   1.000  C
  C4       1.0000 0.08000  0.24140  0.08070  Biso   1.000  C
  C5       1.0000 0.99870  0.29780  0.12100  Biso   1.000  C
  C6       1.0000 0.07230  0.38670  0.11600  Biso   1.000  C
  C7       1.0000 0.02360  0.14670  0.08120  Biso   1.000  C
  C8       1.0000 0.62880  0.68300  0.83300  Biso   1.000  C
  C9       1.0000 0.63700  0.77000  0.75650  Biso   1.000  C
  C10      1.0000 0.61200  0.85810  0.73490  Biso   1.000  C
  C11      1.0000 0.76000  0.91720  0.75670  Biso   1.000  C
  C12      1.0000 0.75050  0.91660  0.81310  Biso   1.000  C
  C13      1.0000 0.76670  0.82930  0.83590  Biso   1.000  C
  C14      1.0000 0.73420  0.00680  0.73570  Biso   1.000  C
  C15      1.0000 0.39790  0.48850  0.56220  Biso   1.000  C
  C16      1.0000 0.38700  0.63330  0.52450  Biso   1.000  C
  C17      1.0000 0.46600  0.72010  0.52950  Biso   1.000  C
  C18      1.0000 0.42000  0.75860  0.58070  Biso   1.000  C
  C19      1.0000 0.50130  0.70220  0.62100  Biso   1.000  C
  C20      1.0000 0.42770  0.61330  0.61600  Biso   1.000  C
  C21      1.0000 0.47640  0.85330  0.58120  Biso   1.000  C
  C22      1.0000 0.87120  0.31700  0.33300  Biso   1.000  C
  C23      1.0000 0.86300  0.23000  0.25650  Biso   1.000  C
  C24      1.0000 0.88800  0.14190  0.23490  Biso   1.000  C
  C25      1.0000 0.74000  0.08280  0.25670  Biso   1.000  C
  C26      1.0000 0.74950  0.08340  0.31310  Biso   1.000  C
  C27      1.0000 0.73330  0.17070  0.33590  Biso   1.000  C
  C28      1.0000 0.76580  0.99320  0.23570  Biso   1.000  C
  C29      1.0000 0.89790  0.01150  0.43780  Biso   1.000  C
  C30      1.0000 0.88700  0.86670  0.47550  Biso   1.000  C
  C31      1.0000 0.96600  0.77990  0.47050  Biso   1.000  C
  C32      1.0000 0.92000  0.74140  0.41930  Biso   1.000  C
  C33      1.0000 0.00130  0.79780  0.37900  Biso   1.000  C
  C34      1.0000 0.92770  0.88670  0.38400  Biso   1.000  C
  C35      1.0000 0.97640  0.64670  0.41880  Biso   1.000  C
  C36      1.0000 0.37120  0.18300  0.66700  Biso   1.000  C
  C37      1.0000 0.36300  0.27000  0.74350  Biso   1.000  C
  C38      1.0000 0.38800  0.35810  0.76510  Biso   1.000  C
  C39      1.0000 0.24000  0.41720  0.74330  Biso   1.000  C
  C40      1.0000 0.24950  0.41660  0.68690  Biso   1.000  C
  C41      1.0000 0.23330  0.32930  0.66410  Biso   1.000  C
  C42      1.0000 0.26580  0.50680  0.76430  Biso   1.000  C
  C43      1.0000 0.60210  0.98850  0.93780  Biso   1.000  C
  C44      1.0000 0.61300  0.13330  0.97550  Biso   1.000  C
  C45      1.0000 0.53400  0.22010  0.97050  Biso   1.000  C
  C46      1.0000 0.58000  0.25860  0.91930  Biso   1.000  C
  C47      1.0000 0.49870  0.20220  0.87900  Biso   1.000  C
  C48      1.0000 0.57230  0.11330  0.88400  Biso   1.000  C
  C49      1.0000 0.52360  0.35330  0.91880  Biso   1.000  C
  C50      1.0000 0.12880  0.81700  0.16700  Biso   1.000  C
  C51      1.0000 0.13700  0.73000  0.24350  Biso   1.000  C
  C52      1.0000 0.11200  0.64190  0.26510  Biso   1.000  C
  C53      1.0000 0.26000  0.58280  0.24330  Biso   1.000  C
  C54      1.0000 0.25050  0.58340  0.18690  Biso   1.000  C
  C55      1.0000 0.26670  0.67070  0.16410  Biso   1.000  C
  C56      1.0000 0.23420  0.49320  0.26430  Biso   1.000  C
  N1       1.0000 0.03500  0.42230  0.06470  Biso   1.000  N
  N2       1.0000 0.61900  0.77120  0.81310  Biso   1.000  N
  N3       1.0000 0.46500  0.57770  0.56470  Biso   1.000  N
  N4       1.0000 0.88100  0.22880  0.31310  Biso   1.000  N
  N5       1.0000 0.96500  0.92230  0.43530  Biso   1.000  N
  N6       1.0000 0.38100  0.27120  0.68690  Biso   1.000  N
  N7       1.0000 0.53500  0.07770  0.93530  Biso   1.000  N
  N8       1.0000 0.11900  0.72880  0.18690  Biso   1.000  N
  Cl1      1.0000 0.59330  0.43780  0.06915  Biso   1.000  Cl
  Cl2      1.0000 0.58200  0.65231  0.04191  Biso   1.000  Cl
  Cl3      1.0000 0.90670  0.56220  0.56915  Biso   1.000  Cl
  Cl4      1.0000 0.91800  0.34769  0.54191  Biso   1.000  Cl
  Cl5      1.0000 0.40670  0.93780  0.43085  Biso   1.000  Cl
  Cl6      1.0000 0.41800  0.15231  0.45809  Biso   1.000  Cl
  Cl7      1.0000 0.09330  0.06220  0.93085  Biso   1.000  Cl
  Cl8      1.0000 0.08200  0.84769  0.95809  Biso   1.000  Cl
  O1       1.0000 0.91110  0.52960  0.97700  Biso   1.000  O
  O2       1.0000 0.10440  0.65490  0.00710  Biso   1.000  O
  O3       1.0000 0.26840  0.52600  0.97170  Biso   1.000  O
  O4       1.0000 0.87860  0.12720  0.10540  Biso   1.000  O
  O5       1.0000 0.12100  0.09980  0.05600  Biso   1.000  O
  O6       1.0000 0.55920  0.57760  0.90640  Biso   1.000  O
  O7       1.0000 0.78100  0.69800  0.92560  Biso   1.000  O
  O8       1.0000 0.42530  0.72450  0.91730  Biso   1.000  O
  O9       1.0000 0.65650  0.01660  0.69540  Biso   1.000  O
  O10      1.0000 0.81720  0.06370  0.76040  Biso   1.000  O
  O11      1.0000 0.11730  0.64160  0.88130  Biso   1.000  O
  O12      1.0000 0.97350  0.45850  0.87980  Biso   1.000  O
  O13      1.0000 0.58890  0.47040  0.47700  Biso   1.000  O
  O14      1.0000 0.39560  0.34510  0.50710  Biso   1.000  O
  O15      1.0000 0.23160  0.47400  0.47170  Biso   1.000  O
  O16      1.0000 0.62140  0.87280  0.60540  Biso   1.000  O
  O17      1.0000 0.37900  0.90020  0.55600  Biso   1.000  O
  O18      1.0000 0.94080  0.42240  0.40640  Biso   1.000  O
  O19      1.0000 0.71900  0.30200  0.42560  Biso   1.000  O
  O20      1.0000 0.07470  0.27550  0.41730  Biso   1.000  O
  O21      1.0000 0.84350  0.98340  0.19540  Biso   1.000  O
  O22      1.0000 0.68280  0.93630  0.26040  Biso   1.000  O
  O23      1.0000 0.38270  0.35840  0.38130  Biso   1.000  O
  O24      1.0000 0.52650  0.54150  0.37980  Biso   1.000  O
  O25      1.0000 0.08890  0.02960  0.52300  Biso   1.000  O
  O26      1.0000 0.89560  0.15490  0.49290  Biso   1.000  O
  O27      1.0000 0.73160  0.02600  0.52830  Biso   1.000  O
  O28      1.0000 0.12140  0.62720  0.39460  Biso   1.000  O
  O29      1.0000 0.87900  0.59980  0.44400  Biso   1.000  O
  O30      1.0000 0.44080  0.07760  0.59360  Biso   1.000  O
  O31      1.0000 0.21900  0.19800  0.57440  Biso   1.000  O
  O32      1.0000 0.57470  0.22450  0.58270  Biso   1.000  O
  O33      1.0000 0.34350  0.51660  0.80460  Biso   1.000  O
  O34      1.0000 0.18280  0.56370  0.73960  Biso   1.000  O
  O35      1.0000 0.88270  0.14160  0.61870  Biso   1.000  O
  O36      1.0000 0.02650  0.95850  0.62020  Biso   1.000  O
  O37      1.0000 0.41110  0.97040  0.02300  Biso   1.000  O
  O38      1.0000 0.60440  0.84510  0.99290  Biso   1.000  O
  O39      1.0000 0.76840  0.97400  0.02830  Biso   1.000  O
  O40      1.0000 0.37860  0.37280  0.89460  Biso   1.000  O
  O41      1.0000 0.62100  0.40020  0.94400  Biso   1.000  O
  O42      1.0000 0.05920  0.92240  0.09360  Biso   1.000  O
  O43      1.0000 0.28100  0.80200  0.07440  Biso   1.000  O
  O44      1.0000 0.92530  0.77550  0.08270  Biso   1.000  O
  O45      1.0000 0.15650  0.48340  0.30460  Biso   1.000  O
  O46      1.0000 0.31720  0.43630  0.23960  Biso   1.000  O
  O47      1.0000 0.61730  0.85840  0.11870  Biso   1.000  O
  O48      1.0000 0.47350  0.04150  0.12020  Biso   1.000  O
