data_image0
_cell_length_a       13.5874
_cell_length_b       13.5874
_cell_length_c       25.7243
_cell_angle_alpha    83.8019
_cell_angle_beta     75.0966
_cell_angle_gamma    107.979

_symmetry_space_group_name_H-M    P 1
_symmetry_int_tables_number       1

loop_
  _symmetry_equiv_pos_as_xyz
  'x, y, z'

loop_
  _atom_site_label
  _atom_site_occupancy
  _atom_site_fract_x
  _atom_site_fract_y
  _atom_site_fract_z
  _atom_site_thermal_displace_type
  _atom_site_B_iso_or_equiv
  _atom_site_type_symbol
  Zn1      1.0000 0.67495  0.88669  0.05254  Biso   1.000  Zn
  Zn2      1.0000 0.23529  0.82606  0.08705  Biso   1.000  Zn
  Zn3      1.0000 0.49056  0.09265  0.12821  Biso   1.000  Zn
  Zn4      1.0000 0.43923  0.72749  0.44746  Biso   1.000  Zn
  Zn5      1.0000 0.41311  0.32234  0.41295  Biso   1.000  Zn
  Zn6      1.0000 0.72086  0.61877  0.37179  Biso   1.000  Zn
  Zn7      1.0000 0.32505  0.11331  0.94746  Biso   1.000  Zn
  Zn8      1.0000 0.76471  0.17394  0.91295  Biso   1.000  Zn
  Zn9      1.0000 0.50944  0.90735  0.87179  Biso   1.000  Zn
  Zn10     1.0000 0.56077  0.27251  0.55254  Biso   1.000  Zn
  Zn11     1.0000 0.58689  0.67766  0.58705  Biso   1.000  Zn
  Zn12     1.0000 0.27914  0.38123  0.62821  Biso   1.000  Zn
  Zn13     1.0000 0.50000  0.00000  0.00000  Biso   1.000  Zn
  Zn14     1.0000 0.50000  0.50000  0.50000  Biso   1.000  Zn
  Cd1      1.0000 0.86747  0.73920  0.18309  Biso   1.000  Cd
  Cd2      1.0000 0.42229  0.05056  0.31691  Biso   1.000  Cd
  Cd3      1.0000 0.13253  0.26080  0.81691  Biso   1.000  Cd
  Cd4      1.0000 0.57771  0.94944  0.68309  Biso   1.000  Cd
  P1       1.0000 0.43933  0.85458  0.12305  Biso   1.000  P
  P2       1.0000 0.70739  0.12708  0.04087  Biso   1.000  P
  P3       1.0000 0.69320  0.92915  0.92779  Biso   1.000  P
  P4       1.0000 0.47763  0.56238  0.37695  Biso   1.000  P
  P5       1.0000 0.66795  0.74826  0.45913  Biso   1.000  P
  P6       1.0000 0.35694  0.62099  0.57221  Biso   1.000  P
  P7       1.0000 0.56067  0.14542  0.87695  Biso   1.000  P
  P8       1.0000 0.29261  0.87292  0.95913  Biso   1.000  P
  P9       1.0000 0.30680  0.07085  0.07221  Biso   1.000  P
  P10      1.0000 0.52237  0.43762  0.62305  Biso   1.000  P
  P11      1.0000 0.33205  0.25174  0.54087  Biso   1.000  P
  P12      1.0000 0.64306  0.37901  0.42779  Biso   1.000  P
  H1       1.0000 0.04380  0.48810  0.15090  Biso   1.000  H
  H2       1.0000 0.13430  0.46830  0.17420  Biso   1.000  H
  H3       1.0000 0.21430  0.49000  0.08090  Biso   1.000  H
  H4       1.0000 0.16910  0.58060  0.06670  Biso   1.000  H
  H5       1.0000 0.33570  0.59800  0.11810  Biso   1.000  H
  H6       1.0000 0.34550  0.67560  0.06510  Biso   1.000  H
  H7       1.0000 0.34180  0.69350  0.18490  Biso   1.000  H
  H8       1.0000 0.27940  0.77260  0.19620  Biso   1.000  H
  H9       1.0000 0.13330  0.61080  0.21050  Biso   1.000  H
  H10      1.0000 0.69470  0.30870  0.16740  Biso   1.000  H
  H11      1.0000 0.51690  0.36430  0.19000  Biso   1.000  H
  H12      1.0000 0.63310  0.44030  0.15240  Biso   1.000  H
  H13      1.0000 0.54260  0.43300  0.08860  Biso   1.000  H
  H14      1.0000 0.46320  0.31590  0.11630  Biso   1.000  H
  H15      1.0000 0.59040  0.29090  0.04250  Biso   1.000  H
  H16      1.0000 0.68850  0.37630  0.05320  Biso   1.000  H
  H17      1.0000 0.73170  0.16890  0.12340  Biso   1.000  H
  H18      1.0000 0.78640  0.27120  0.07680  Biso   1.000  H
  H19      1.0000 0.86650  0.76970  0.99320  Biso   1.000  H
  H20      1.0000 0.80410  0.59200  0.00430  Biso   1.000  H
  H21      1.0000 0.71210  0.57780  0.05950  Biso   1.000  H
  H22      1.0000 0.70070  0.62020  0.95130  Biso   1.000  H
  H23      1.0000 0.60870  0.53900  0.00230  Biso   1.000  H
  H24      1.0000 0.56840  0.67170  0.04110  Biso   1.000  H
  H25      1.0000 0.58510  0.71040  0.97830  Biso   1.000  H
  H26      1.0000 0.77540  0.80180  0.91860  Biso   1.000  H
  H27      1.0000 0.84500  0.89490  0.93970  Biso   1.000  H
  H28      1.0000 0.13900  0.19470  0.34910  Biso   1.000  H
  H29      1.0000 0.14250  0.30850  0.32580  Biso   1.000  H
  H30      1.0000 0.07090  0.29520  0.41910  Biso   1.000  H
  H31      1.0000 0.14730  0.23580  0.43330  Biso   1.000  H
  H32      1.0000 0.21610  0.45380  0.38190  Biso   1.000  H
  H33      1.0000 0.24070  0.41060  0.43490  Biso   1.000  H
  H34      1.0000 0.37840  0.52670  0.31510  Biso   1.000  H
  H35      1.0000 0.46880  0.47560  0.30380  Biso   1.000  H
  H36      1.0000 0.32130  0.34380  0.28950  Biso   1.000  H
  H37      1.0000 0.97610  0.86210  0.33260  Biso   1.000  H
  H38      1.0000 0.05430  0.70690  0.31000  Biso   1.000  H
  H39      1.0000 0.09270  0.78550  0.34760  Biso   1.000  H
  H40      1.0000 0.02160  0.63120  0.41140  Biso   1.000  H
  H41      1.0000 0.93220  0.57950  0.38370  Biso   1.000  H
  H42      1.0000 0.83340  0.63290  0.45750  Biso   1.000  H
  H43      1.0000 0.92950  0.74170  0.44680  Biso   1.000  H
  H44      1.0000 0.79230  0.85510  0.37660  Biso   1.000  H
  H45      1.0000 0.84800  0.86320  0.42320  Biso   1.000  H
  H46      1.0000 0.26290  0.85970  0.50680  Biso   1.000  H
  H47      1.0000 0.09630  0.80840  0.49570  Biso   1.000  H
  H48      1.0000 0.13730  0.77160  0.44050  Biso   1.000  H
  H49      1.0000 0.07150  0.65200  0.54870  Biso   1.000  H
  H50      1.0000 0.04130  0.61100  0.49770  Biso   1.000  H
  H51      1.0000 0.21280  0.60950  0.45890  Biso   1.000  H
  H52      1.0000 0.18870  0.56340  0.52170  Biso   1.000  H
  H53      1.0000 0.22040  0.69400  0.58140  Biso   1.000  H
  H54      1.0000 0.33460  0.78470  0.56030  Biso   1.000  H
  H55      1.0000 0.95620  0.51190  0.84910  Biso   1.000  H
  H56      1.0000 0.86570  0.53170  0.82580  Biso   1.000  H
  H57      1.0000 0.78570  0.51000  0.91910  Biso   1.000  H
  H58      1.0000 0.83090  0.41940  0.93330  Biso   1.000  H
  H59      1.0000 0.66430  0.40200  0.88190  Biso   1.000  H
  H60      1.0000 0.65450  0.32440  0.93490  Biso   1.000  H
  H61      1.0000 0.65820  0.30650  0.81510  Biso   1.000  H
  H62      1.0000 0.72060  0.22740  0.80380  Biso   1.000  H
  H63      1.0000 0.86670  0.38920  0.78950  Biso   1.000  H
  H64      1.0000 0.30530  0.69130  0.83260  Biso   1.000  H
  H65      1.0000 0.48310  0.63570  0.81000  Biso   1.000  H
  H66      1.0000 0.36690  0.55970  0.84760  Biso   1.000  H
  H67      1.0000 0.45740  0.56700  0.91140  Biso   1.000  H
  H68      1.0000 0.53680  0.68410  0.88370  Biso   1.000  H
  H69      1.0000 0.40960  0.70910  0.95750  Biso   1.000  H
  H70      1.0000 0.31150  0.62370  0.94680  Biso   1.000  H
  H71      1.0000 0.26830  0.83110  0.87660  Biso   1.000  H
  H72      1.0000 0.21360  0.72880  0.92320  Biso   1.000  H
  H73      1.0000 0.13350  0.23030  0.00680  Biso   1.000  H
  H74      1.0000 0.19590  0.40800  0.99570  Biso   1.000  H
  H75      1.0000 0.28790  0.42220  0.94050  Biso   1.000  H
  H76      1.0000 0.29930  0.37980  0.04870  Biso   1.000  H
  H77      1.0000 0.39130  0.46100  0.99770  Biso   1.000  H
  H78      1.0000 0.43160  0.32830  0.95890  Biso   1.000  H
  H79      1.0000 0.41490  0.28960  0.02170  Biso   1.000  H
  H80      1.0000 0.22460  0.19820  0.08140  Biso   1.000  H
  H81      1.0000 0.15500  0.10510  0.06030  Biso   1.000  H
  H82      1.0000 0.86100  0.80530  0.65090  Biso   1.000  H
  H83      1.0000 0.85750  0.69150  0.67420  Biso   1.000  H
  H84      1.0000 0.92910  0.70480  0.58090  Biso   1.000  H
  H85      1.0000 0.85270  0.76420  0.56670  Biso   1.000  H
  H86      1.0000 0.78390  0.54620  0.61810  Biso   1.000  H
  H87      1.0000 0.75930  0.58940  0.56510  Biso   1.000  H
  H88      1.0000 0.62160  0.47330  0.68490  Biso   1.000  H
  H89      1.0000 0.53120  0.52440  0.69620  Biso   1.000  H
  H90      1.0000 0.67870  0.65620  0.71050  Biso   1.000  H
  H91      1.0000 0.02390  0.13790  0.66740  Biso   1.000  H
  H92      1.0000 0.94570  0.29310  0.69000  Biso   1.000  H
  H93      1.0000 0.90730  0.21450  0.65240  Biso   1.000  H
  H94      1.0000 0.97840  0.36880  0.58860  Biso   1.000  H
  H95      1.0000 0.06780  0.42050  0.61630  Biso   1.000  H
  H96      1.0000 0.16660  0.36710  0.54250  Biso   1.000  H
  H97      1.0000 0.07050  0.25830  0.55320  Biso   1.000  H
  H98      1.0000 0.20770  0.14490  0.62340  Biso   1.000  H
  H99      1.0000 0.15200  0.13680  0.57680  Biso   1.000  H
  H100     1.0000 0.73710  0.14030  0.49320  Biso   1.000  H
  H101     1.0000 0.90370  0.19160  0.50430  Biso   1.000  H
  H102     1.0000 0.86270  0.22840  0.55950  Biso   1.000  H
  H103     1.0000 0.92850  0.34800  0.45130  Biso   1.000  H
  H104     1.0000 0.95870  0.38900  0.50230  Biso   1.000  H
  H105     1.0000 0.78720  0.39050  0.54110  Biso   1.000  H
  H106     1.0000 0.81130  0.43660  0.47830  Biso   1.000  H
  H107     1.0000 0.77960  0.30600  0.41860  Biso   1.000  H
  H108     1.0000 0.66540  0.21530  0.43970  Biso   1.000  H
  C1       1.0000 0.11830  0.51890  0.15120  Biso   1.000  C
  C2       1.0000 0.19740  0.55000  0.09280  Biso   1.000  C
  C3       1.0000 0.29650  0.63190  0.10020  Biso   1.000  C
  C4       1.0000 0.31930  0.74600  0.16750  Biso   1.000  C
  C5       1.0000 0.13580  0.62240  0.17180  Biso   1.000  C
  C6       1.0000 0.05070  0.66840  0.16450  Biso   1.000  C
  C7       1.0000 0.54580  0.19510  0.21290  Biso   1.000  C
  C8       1.0000 0.62140  0.28190  0.16390  Biso   1.000  C
  C9       1.0000 0.57670  0.37230  0.15760  Biso   1.000  C
  C10      1.0000 0.53750  0.36430  0.10680  Biso   1.000  C
  C11      1.0000 0.61800  0.32140  0.07060  Biso   1.000  C
  C12      1.0000 0.72210  0.20810  0.09240  Biso   1.000  C
  C13      1.0000 0.80110  0.76340  0.07630  Biso   1.000  C
  C14      1.0000 0.79390  0.73940  0.02010  Biso   1.000  C
  C15      1.0000 0.74710  0.61730  0.02200  Biso   1.000  C
  C16      1.0000 0.66560  0.60810  0.99050  Biso   1.000  C
  C17      1.0000 0.62030  0.69330  0.00460  Biso   1.000  C
  C18      1.0000 0.77140  0.84920  0.94400  Biso   1.000  C
  C19      1.0000 0.17010  0.26950  0.34880  Biso   1.000  C
  C20      1.0000 0.14280  0.29020  0.40720  Biso   1.000  C
  C21      1.0000 0.23210  0.39670  0.39980  Biso   1.000  C
  C22      1.0000 0.41350  0.48680  0.33250  Biso   1.000  C
  C23      1.0000 0.29420  0.30760  0.32820  Biso   1.000  C
  C24      1.0000 0.33290  0.21520  0.33550  Biso   1.000  C
  C25      1.0000 0.90800  0.75870  0.28710  Biso   1.000  C
  C26      1.0000 0.94580  0.78530  0.33610  Biso   1.000  C
  C27      1.0000 0.02990  0.73430  0.34240  Biso   1.000  C
  C28      1.0000 0.97110  0.64430  0.39320  Biso   1.000  C
  C29      1.0000 0.89200  0.68860  0.42940  Biso   1.000  C
  C30      1.0000 0.80050  0.81450  0.40760  Biso   1.000  C
  C31      1.0000 0.33970  0.87740  0.42370  Biso   1.000  C
  C32      1.0000 0.25950  0.81400  0.47990  Biso   1.000  C
  C33      1.0000 0.13930  0.76910  0.47800  Biso   1.000  C
  C34      1.0000 0.09860  0.65610  0.50950  Biso   1.000  C
  C35      1.0000 0.19790  0.62490  0.49540  Biso   1.000  C
  C36      1.0000 0.29320  0.71540  0.55600  Biso   1.000  C
  C37      1.0000 0.88170  0.48110  0.84880  Biso   1.000  C
  C38      1.0000 0.80260  0.45000  0.90720  Biso   1.000  C
  C39      1.0000 0.70350  0.36810  0.89980  Biso   1.000  C
  C40      1.0000 0.68070  0.25400  0.83250  Biso   1.000  C
  C41      1.0000 0.86420  0.37760  0.82820  Biso   1.000  C
  C42      1.0000 0.94930  0.33160  0.83550  Biso   1.000  C
  C43      1.0000 0.45420  0.80490  0.78710  Biso   1.000  C
  C44      1.0000 0.37860  0.71810  0.83610  Biso   1.000  C
  C45      1.0000 0.42330  0.62770  0.84240  Biso   1.000  C
  C46      1.0000 0.46250  0.63570  0.89320  Biso   1.000  C
  C47      1.0000 0.38200  0.67860  0.92940  Biso   1.000  C
  C48      1.0000 0.27790  0.79190  0.90760  Biso   1.000  C
  C49      1.0000 0.19890  0.23660  0.92370  Biso   1.000  C
  C50      1.0000 0.20610  0.26060  0.97990  Biso   1.000  C
  C51      1.0000 0.25290  0.38270  0.97800  Biso   1.000  C
  C52      1.0000 0.33440  0.39190  0.00950  Biso   1.000  C
  C53      1.0000 0.37970  0.30670  0.99540  Biso   1.000  C
  C54      1.0000 0.22860  0.15080  0.05600  Biso   1.000  C
  C55      1.0000 0.82990  0.73050  0.65120  Biso   1.000  C
  C56      1.0000 0.85720  0.70980  0.59280  Biso   1.000  C
  C57      1.0000 0.76790  0.60330  0.60020  Biso   1.000  C
  C58      1.0000 0.58650  0.51320  0.66750  Biso   1.000  C
  C59      1.0000 0.70580  0.69240  0.67180  Biso   1.000  C
  C60      1.0000 0.66710  0.78480  0.66450  Biso   1.000  C
  C61      1.0000 0.09200  0.24130  0.71290  Biso   1.000  C
  C62      1.0000 0.05420  0.21470  0.66390  Biso   1.000  C
  C63      1.0000 0.97010  0.26570  0.65760  Biso   1.000  C
  C64      1.0000 0.02890  0.35570  0.60680  Biso   1.000  C
  C65      1.0000 0.10800  0.31140  0.57060  Biso   1.000  C
  C66      1.0000 0.19950  0.18550  0.59240  Biso   1.000  C
  C67      1.0000 0.66030  0.12260  0.57630  Biso   1.000  C
  C68      1.0000 0.74050  0.18600  0.52010  Biso   1.000  C
  C69      1.0000 0.86070  0.23090  0.52200  Biso   1.000  C
  C70      1.0000 0.90140  0.34390  0.49050  Biso   1.000  C
  C71      1.0000 0.80210  0.37510  0.50460  Biso   1.000  C
  C72      1.0000 0.70680  0.28460  0.44400  Biso   1.000  C
  N1       1.0000 0.24780  0.69650  0.13610  Biso   1.000  N
  N2       1.0000 0.71960  0.78670  0.00150  Biso   1.000  N
  N3       1.0000 0.62400  0.23910  0.11170  Biso   1.000  N
  N4       1.0000 0.33260  0.38390  0.36390  Biso   1.000  N
  N5       1.0000 0.28820  0.72110  0.49850  Biso   1.000  N
  N6       1.0000 0.85080  0.73570  0.38830  Biso   1.000  N
  N7       1.0000 0.75220  0.30350  0.86390  Biso   1.000  N
  N8       1.0000 0.28040  0.21330  0.99850  Biso   1.000  N
  N9       1.0000 0.37600  0.76090  0.88830  Biso   1.000  N
  N10      1.0000 0.66740  0.61610  0.63610  Biso   1.000  N
  N11      1.0000 0.71180  0.27890  0.50150  Biso   1.000  N
  N12      1.0000 0.14920  0.26430  0.61170  Biso   1.000  N
  O1       1.0000 0.53326  0.81360  0.10714  Biso   1.000  O
  O2       1.0000 0.40621  0.88610  0.07229  Biso   1.000  O
  O3       1.0000 0.46170  0.94100  0.15590  Biso   1.000  O
  O4       1.0000 0.07496  0.75400  0.13124  Biso   1.000  O
  O5       1.0000 0.95363  0.61830  0.19467  Biso   1.000  O
  O6       1.0000 0.69860  0.59810  0.21570  Biso   1.000  O
  O7       1.0000 0.47726  0.11310  0.20644  Biso   1.000  O
  O8       1.0000 0.55380  0.20840  0.25940  Biso   1.000  O
  O9       1.0000 0.58398  0.08620  0.04842  Biso   1.000  O
  O10      1.0000 0.74946  0.03770  0.05344  Biso   1.000  O
  O11      1.0000 0.77419  0.19890  0.98491  Biso   1.000  O
  O12      1.0000 0.84980  0.71410  0.09890  Biso   1.000  O
  O13      1.0000 0.76152  0.82810  0.09538  Biso   1.000  O
  O14      1.0000 0.77801  0.03840  0.89699  Biso   1.000  O
  O15      1.0000 0.62779  0.87790  0.89191  Biso   1.000  O
  O16      1.0000 0.62200  0.93290  0.98450  Biso   1.000  O
  O17      1.0000 0.75500  0.83400  0.20960  Biso   1.000  O
  O18      1.0000 0.42074  0.64040  0.39286  Biso   1.000  O
  O19      1.0000 0.45839  0.47850  0.42771  Biso   1.000  O
  O20      1.0000 0.59690  0.61760  0.34410  Biso   1.000  O
  O21      1.0000 0.38524  0.20620  0.36876  Biso   1.000  O
  O22      1.0000 0.31297  0.14830  0.30533  Biso   1.000  O
  O23      1.0000 0.31380  0.91430  0.28430  Biso   1.000  O
  O24      1.0000 0.81954  0.68370  0.29356  Biso   1.000  O
  O25      1.0000 0.96780  0.81320  0.24060  Biso   1.000  O
  O26      1.0000 0.63462  0.63240  0.45158  Biso   1.000  O
  O27      1.0000 0.59114  0.80290  0.44656  Biso   1.000  O
  O28      1.0000 0.68381  0.75910  0.51509  Biso   1.000  O
  O29      1.0000 0.31300  0.94870  0.40110  Biso   1.000  O
  O30      1.0000 0.42348  0.85690  0.40462  Biso   1.000  O
  O31      1.0000 0.43539  0.67500  0.60301  Biso   1.000  O
  O32      1.0000 0.26981  0.51970  0.60809  Biso   1.000  O
  O33      1.0000 0.41740  0.60650  0.51550  Biso   1.000  O
  O34      1.0000 0.54360  0.96460  0.29040  Biso   1.000  O
  O35      1.0000 0.46674  0.18640  0.89286  Biso   1.000  O
  O36      1.0000 0.59379  0.11390  0.92771  Biso   1.000  O
  O37      1.0000 0.53830  0.05900  0.84410  Biso   1.000  O
  O38      1.0000 0.92504  0.24600  0.86876  Biso   1.000  O
  O39      1.0000 0.04637  0.38170  0.80533  Biso   1.000  O
  O40      1.0000 0.30140  0.40190  0.78430  Biso   1.000  O
  O41      1.0000 0.52274  0.88690  0.79356  Biso   1.000  O
  O42      1.0000 0.44620  0.79160  0.74060  Biso   1.000  O
  O43      1.0000 0.41602  0.91380  0.95158  Biso   1.000  O
  O44      1.0000 0.25054  0.96230  0.94656  Biso   1.000  O
  O45      1.0000 0.22581  0.80110  0.01509  Biso   1.000  O
  O46      1.0000 0.15020  0.28590  0.90110  Biso   1.000  O
  O47      1.0000 0.23848  0.17190  0.90462  Biso   1.000  O
  O48      1.0000 0.22199  0.96160  0.10301  Biso   1.000  O
  O49      1.0000 0.37221  0.12210  0.10809  Biso   1.000  O
  O50      1.0000 0.37800  0.06710  0.01550  Biso   1.000  O
  O51      1.0000 0.24500  0.16600  0.79040  Biso   1.000  O
  O52      1.0000 0.57926  0.35960  0.60714  Biso   1.000  O
  O53      1.0000 0.54161  0.52150  0.57229  Biso   1.000  O
  O54      1.0000 0.40310  0.38240  0.65590  Biso   1.000  O
  O55      1.0000 0.61476  0.79380  0.63124  Biso   1.000  O
  O56      1.0000 0.68703  0.85170  0.69467  Biso   1.000  O
  O57      1.0000 0.68620  0.08570  0.71570  Biso   1.000  O
  O58      1.0000 0.18046  0.31630  0.70644  Biso   1.000  O
  O59      1.0000 0.03220  0.18680  0.75940  Biso   1.000  O
  O60      1.0000 0.36538  0.36760  0.54842  Biso   1.000  O
  O61      1.0000 0.40886  0.19710  0.55344  Biso   1.000  O
  O62      1.0000 0.31619  0.24090  0.48491  Biso   1.000  O
  O63      1.0000 0.68700  0.05130  0.59890  Biso   1.000  O
  O64      1.0000 0.57652  0.14310  0.59538  Biso   1.000  O
  O65      1.0000 0.56461  0.32500  0.39699  Biso   1.000  O
  O66      1.0000 0.73019  0.48030  0.39191  Biso   1.000  O
  O67      1.0000 0.58260  0.39350  0.48450  Biso   1.000  O
  O68      1.0000 0.45640  0.03540  0.70960  Biso   1.000  O
