data_image0
_cell_length_a       11.569
_cell_length_b       15.447
_cell_length_c       21.19
_cell_angle_alpha    76.794
_cell_angle_beta     79.025
_cell_angle_gamma    89.615

_symmetry_space_group_name_H-M    P 1
_symmetry_int_tables_number       1

loop_
  _symmetry_equiv_pos_as_xyz
  'x, y, z'

loop_
  _atom_site_label
  _atom_site_occupancy
  _atom_site_fract_x
  _atom_site_fract_y
  _atom_site_fract_z
  _atom_site_thermal_displace_type
  _atom_site_B_iso_or_equiv
  _atom_site_type_symbol
  Zn1      1.0000 0.96485  0.47913  0.57266  Biso   1.000  Zn
  Zn2      1.0000 0.03515  0.52087  0.42734  Biso   1.000  Zn
  Zn3      1.0000 0.50000  0.50000  0.00000  Biso   1.000  Zn
  H1       1.0000 0.31120  0.34830  0.43770  Biso   1.000  H
  H2       1.0000 0.43480  0.22940  0.43060  Biso   1.000  H
  H3       1.0000 0.26510  0.09790  0.61090  Biso   1.000  H
  H4       1.0000 0.15170  0.21780  0.62130  Biso   1.000  H
  H5       1.0000 0.29670  0.98690  0.53400  Biso   1.000  H
  H6       1.0000 0.55510  0.17600  0.58260  Biso   1.000  H
  H7       1.0000 0.67640  0.29500  0.58440  Biso   1.000  H
  H8       1.0000 0.83240  0.30540  0.39550  Biso   1.000  H
  H9       1.0000 0.71880  0.18060  0.39630  Biso   1.000  H
  H10      1.0000 0.72290  0.46070  0.64540  Biso   1.000  H
  H11      1.0000 0.61440  0.46040  0.74480  Biso   1.000  H
  H12      1.0000 0.91030  0.52300  0.80050  Biso   1.000  H
  H13      1.0000 0.00590  0.52410  0.69480  Biso   1.000  H
  H14      1.0000 0.69760  0.31690  0.83840  Biso   1.000  H
  H15      1.0000 0.59090  0.20710  0.93150  Biso   1.000  H
  H16      1.0000 0.24760  0.23220  0.13740  Biso   1.000  H
  H17      1.0000 0.25870  0.33150  0.22130  Biso   1.000  H
  H18      1.0000 0.68880  0.65170  0.56230  Biso   1.000  H
  H19      1.0000 0.56520  0.77060  0.56940  Biso   1.000  H
  H20      1.0000 0.73490  0.90210  0.38910  Biso   1.000  H
  H21      1.0000 0.84830  0.78220  0.37870  Biso   1.000  H
  H22      1.0000 0.70330  0.01310  0.46600  Biso   1.000  H
  H23      1.0000 0.44490  0.82400  0.41740  Biso   1.000  H
  H24      1.0000 0.32360  0.70500  0.41560  Biso   1.000  H
  H25      1.0000 0.16760  0.69460  0.60450  Biso   1.000  H
  H26      1.0000 0.28120  0.81940  0.60370  Biso   1.000  H
  H27      1.0000 0.27710  0.53930  0.35460  Biso   1.000  H
  H28      1.0000 0.38560  0.53960  0.25520  Biso   1.000  H
  H29      1.0000 0.08970  0.47700  0.19950  Biso   1.000  H
  H30      1.0000 0.99410  0.47590  0.30520  Biso   1.000  H
  H31      1.0000 0.30240  0.68310  0.16160  Biso   1.000  H
  H32      1.0000 0.40910  0.79290  0.06850  Biso   1.000  H
  H33      1.0000 0.75240  0.76780  0.86260  Biso   1.000  H
  H34      1.0000 0.74130  0.66850  0.77870  Biso   1.000  H
  C1       1.0000 0.13450  0.36940  0.53060  Biso   1.000  C
  C2       1.0000 0.21820  0.29480  0.52890  Biso   1.000  C
  C3       1.0000 0.30270  0.29740  0.47350  Biso   1.000  C
  C4       1.0000 0.37600  0.22660  0.46900  Biso   1.000  C
  C5       1.0000 0.36310  0.15180  0.52060  Biso   1.000  C
  C6       1.0000 0.27640  0.14980  0.57600  Biso   1.000  C
  C7       1.0000 0.20730  0.21960  0.58170  Biso   1.000  C
  C8       1.0000 0.43530  0.07400  0.51280  Biso   1.000  C
  C9       1.0000 0.37980  0.99260  0.51970  Biso   1.000  C
  C10      1.0000 0.56000  0.08160  0.49330  Biso   1.000  C
  C11      1.0000 0.62700  0.16430  0.49030  Biso   1.000  C
  C12      1.0000 0.61390  0.20050  0.54490  Biso   1.000  C
  C13      1.0000 0.68490  0.27230  0.54580  Biso   1.000  C
  C14      1.0000 0.76770  0.31050  0.49060  Biso   1.000  C
  C15      1.0000 0.77820  0.27760  0.43440  Biso   1.000  C
  C16      1.0000 0.70930  0.20400  0.43470  Biso   1.000  C
  C17      1.0000 0.84850  0.38460  0.49300  Biso   1.000  C
  C18      1.0000 0.76200  0.47100  0.67870  Biso   1.000  C
  C19      1.0000 0.69700  0.47220  0.73690  Biso   1.000  C
  C20      1.0000 0.74780  0.49010  0.78580  Biso   1.000  C
  C21      1.0000 0.86840  0.50900  0.76950  Biso   1.000  C
  C22      1.0000 0.92470  0.50660  0.70690  Biso   1.000  C
  C23      1.0000 0.67640  0.49200  0.85350  Biso   1.000  C
  C24      1.0000 0.63070  0.41610  0.89200  Biso   1.000  C
  C25      1.0000 0.65170  0.32950  0.87720  Biso   1.000  C
  C26      1.0000 0.59400  0.27260  0.92850  Biso   1.000  C
  C27      1.0000 0.48500  0.32450  0.96230  Biso   1.000  C
  C28      1.0000 0.40300  0.28740  0.01660  Biso   1.000  C
  C29      1.0000 0.33040  0.20280  0.01500  Biso   1.000  C
  C30      1.0000 0.22870  0.19020  0.99180  Biso   1.000  C
  C31      1.0000 0.18730  0.10460  0.99540  Biso   1.000  C
  C32      1.0000 0.24770  0.03150  0.02220  Biso   1.000  C
  C33      1.0000 0.34940  0.04410  0.04550  Biso   1.000  C
  C34      1.0000 0.39080  0.12970  0.04180  Biso   1.000  C
  C35      1.0000 0.40100  0.32230  0.08030  Biso   1.000  C
  C36      1.0000 0.29600  0.28350  0.13330  Biso   1.000  C
  C37      1.0000 0.28700  0.34300  0.17500  Biso   1.000  C
  C38      1.0000 0.66610  0.57340  0.87010  Biso   1.000  C
  C39      1.0000 0.86550  0.63060  0.46940  Biso   1.000  C
  C40      1.0000 0.78180  0.70520  0.47110  Biso   1.000  C
  C41      1.0000 0.69730  0.70260  0.52650  Biso   1.000  C
  C42      1.0000 0.62400  0.77340  0.53100  Biso   1.000  C
  C43      1.0000 0.63690  0.84820  0.47940  Biso   1.000  C
  C44      1.0000 0.72360  0.85020  0.42400  Biso   1.000  C
  C45      1.0000 0.79270  0.78040  0.41830  Biso   1.000  C
  C46      1.0000 0.56470  0.92600  0.48720  Biso   1.000  C
  C47      1.0000 0.62020  0.00740  0.48030  Biso   1.000  C
  C48      1.0000 0.44000  0.91840  0.50670  Biso   1.000  C
  C49      1.0000 0.37300  0.83570  0.50970  Biso   1.000  C
  C50      1.0000 0.38610  0.79950  0.45510  Biso   1.000  C
  C51      1.0000 0.31510  0.72770  0.45420  Biso   1.000  C
  C52      1.0000 0.23230  0.68950  0.50940  Biso   1.000  C
  C53      1.0000 0.22180  0.72240  0.56560  Biso   1.000  C
  C54      1.0000 0.29070  0.79600  0.56530  Biso   1.000  C
  C55      1.0000 0.15150  0.61540  0.50700  Biso   1.000  C
  C56      1.0000 0.23800  0.52900  0.32130  Biso   1.000  C
  C57      1.0000 0.30300  0.52780  0.26310  Biso   1.000  C
  C58      1.0000 0.25220  0.50990  0.21420  Biso   1.000  C
  C59      1.0000 0.13160  0.49100  0.23050  Biso   1.000  C
  C60      1.0000 0.07530  0.49340  0.29310  Biso   1.000  C
  C61      1.0000 0.32360  0.50800  0.14650  Biso   1.000  C
  C62      1.0000 0.36930  0.58390  0.10800  Biso   1.000  C
  C63      1.0000 0.34830  0.67050  0.12280  Biso   1.000  C
  C64      1.0000 0.40600  0.72740  0.07150  Biso   1.000  C
  C65      1.0000 0.51500  0.67550  0.03770  Biso   1.000  C
  C66      1.0000 0.59700  0.71260  0.98340  Biso   1.000  C
  C67      1.0000 0.66960  0.79720  0.98500  Biso   1.000  C
  C68      1.0000 0.77130  0.80980  0.00820  Biso   1.000  C
  C69      1.0000 0.81270  0.89540  0.00460  Biso   1.000  C
  C70      1.0000 0.75230  0.96850  0.97780  Biso   1.000  C
  C71      1.0000 0.65060  0.95590  0.95450  Biso   1.000  C
  C72      1.0000 0.60920  0.87030  0.95820  Biso   1.000  C
  C73      1.0000 0.59900  0.67770  0.91970  Biso   1.000  C
  C74      1.0000 0.70400  0.71650  0.86670  Biso   1.000  C
  C75      1.0000 0.71300  0.65700  0.82500  Biso   1.000  C
  C76      1.0000 0.33390  0.42660  0.12990  Biso   1.000  C
  N1       1.0000 0.87760  0.48320  0.66370  Biso   1.000  N
  N2       1.0000 0.55480  0.40450  0.95280  Biso   1.000  N
  N3       1.0000 0.40340  0.40970  0.07380  Biso   1.000  N
  N4       1.0000 0.12240  0.51680  0.33630  Biso   1.000  N
  N5       1.0000 0.44520  0.59550  0.04720  Biso   1.000  N
  N6       1.0000 0.59660  0.59030  0.92620  Biso   1.000  N
  O1       1.0000 0.07800  0.37790  0.58480  Biso   1.000  O
  O2       1.0000 0.12680  0.41910  0.47530  Biso   1.000  O
  O3       1.0000 0.90510  0.42840  0.43859  Biso   1.000  O
  O4       1.0000 0.85430  0.39620  0.54823  Biso   1.000  O
  O5       1.0000 0.64700  0.48400  0.04840  Biso   1.000  O
  O6       1.0000 0.92200  0.62210  0.41520  Biso   1.000  O
  O7       1.0000 0.87320  0.58090  0.52470  Biso   1.000  O
  O8       1.0000 0.09490  0.57160  0.56141  Biso   1.000  O
  O9       1.0000 0.14570  0.60380  0.45177  Biso   1.000  O
  O10      1.0000 0.35300  0.51600  0.95160  Biso   1.000  O
  F1       1.0000 0.16940  0.26190  0.96540  Biso   1.000  F
  F2       1.0000 0.08430  0.09180  0.97190  Biso   1.000  F
  F3       1.0000 0.20620  0.94560  0.02590  Biso   1.000  F
  F4       1.0000 0.41010  0.97060  0.07240  Biso   1.000  F
  F5       1.0000 0.49310  0.14230  0.06520  Biso   1.000  F
  F6       1.0000 0.83060  0.73810  0.03460  Biso   1.000  F
  F7       1.0000 0.91570  0.90820  0.02810  Biso   1.000  F
  F8       1.0000 0.79380  0.05440  0.97410  Biso   1.000  F
  F9       1.0000 0.58990  0.02940  0.92760  Biso   1.000  F
  F10      1.0000 0.50690  0.85770  0.93480  Biso   1.000  F
