data_image0
_cell_length_a       12.3879
_cell_length_b       21.4074
_cell_length_c       27.1119
_cell_angle_alpha    90
_cell_angle_beta     90
_cell_angle_gamma    90

_symmetry_space_group_name_H-M    P 1
_symmetry_int_tables_number       1

loop_
  _symmetry_equiv_pos_as_xyz
  'x, y, z'

loop_
  _atom_site_label
  _atom_site_occupancy
  _atom_site_fract_x
  _atom_site_fract_y
  _atom_site_fract_z
  _atom_site_thermal_displace_type
  _atom_site_B_iso_or_equiv
  _atom_site_type_symbol
  Cd1      1.0000 0.58995  0.58172  0.90244  Biso   1.000  Cd
  Cd2      1.0000 0.51060  0.62703  0.61137  Biso   1.000  Cd
  Cd3      1.0000 0.41005  0.08172  0.59756  Biso   1.000  Cd
  Cd4      1.0000 0.48940  0.12703  0.88863  Biso   1.000  Cd
  Cd5      1.0000 0.91005  0.08172  0.40244  Biso   1.000  Cd
  Cd6      1.0000 0.98940  0.12703  0.11137  Biso   1.000  Cd
  Cd7      1.0000 0.08995  0.58172  0.09756  Biso   1.000  Cd
  Cd8      1.0000 0.01060  0.62703  0.38863  Biso   1.000  Cd
  H1       1.0000 0.54890  0.59660  0.72620  Biso   1.000  H
  H2       1.0000 0.85910  0.56950  0.76040  Biso   1.000  H
  H3       1.0000 0.89740  0.56690  0.67720  Biso   1.000  H
  H4       1.0000 0.76070  0.58320  0.62110  Biso   1.000  H
  H5       1.0000 0.38920  0.57580  0.98060  Biso   1.000  H
  H6       1.0000 0.10200  0.58430  0.91350  Biso   1.000  H
  H7       1.0000 0.19150  0.58510  0.83900  Biso   1.000  H
  H8       1.0000 0.37700  0.58540  0.83720  Biso   1.000  H
  H9       1.0000 0.30570  0.60940  0.52720  Biso   1.000  H
  H10      1.0000 0.22050  0.77730  0.47670  Biso   1.000  H
  H11      1.0000 0.34090  0.82170  0.53230  Biso   1.000  H
  H12      1.0000 0.44530  0.75770  0.58040  Biso   1.000  H
  H13      1.0000 0.43710  0.00600  0.95460  Biso   1.000  H
  H14      1.0000 0.45800  0.90050  0.95800  Biso   1.000  H
  H15      1.0000 0.66800  0.91250  0.84880  Biso   1.000  H
  H16      1.0000 0.64140  0.01730  0.84740  Biso   1.000  H
  H17      1.0000 0.69710  0.81510  0.85430  Biso   1.000  H
  H18      1.0000 0.70340  0.70880  0.85300  Biso   1.000  H
  H19      1.0000 0.47810  0.69830  0.95070  Biso   1.000  H
  H20      1.0000 0.46160  0.80410  0.95400  Biso   1.000  H
  H21      1.0000 0.63330  0.46280  0.92900  Biso   1.000  H
  H22      1.0000 0.62680  0.46080  0.87850  Biso   1.000  H
  H23      1.0000 0.45110  0.09660  0.77380  Biso   1.000  H
  H24      1.0000 0.14090  0.06950  0.73960  Biso   1.000  H
  H25      1.0000 0.10260  0.06690  0.82280  Biso   1.000  H
  H26      1.0000 0.23930  0.08320  0.87890  Biso   1.000  H
  H27      1.0000 0.61080  0.07580  0.51940  Biso   1.000  H
  H28      1.0000 0.89800  0.08430  0.58650  Biso   1.000  H
  H29      1.0000 0.80850  0.08510  0.66100  Biso   1.000  H
  H30      1.0000 0.62300  0.08540  0.66280  Biso   1.000  H
  H31      1.0000 0.69430  0.10940  0.97280  Biso   1.000  H
  H32      1.0000 0.77950  0.27730  0.02330  Biso   1.000  H
  H33      1.0000 0.65910  0.32170  0.96770  Biso   1.000  H
  H34      1.0000 0.55470  0.25770  0.91960  Biso   1.000  H
  H35      1.0000 0.56290  0.50600  0.54540  Biso   1.000  H
  H36      1.0000 0.54200  0.40050  0.54200  Biso   1.000  H
  H37      1.0000 0.33200  0.41250  0.65120  Biso   1.000  H
  H38      1.0000 0.35860  0.51730  0.65260  Biso   1.000  H
  H39      1.0000 0.30290  0.31510  0.64570  Biso   1.000  H
  H40      1.0000 0.29660  0.20880  0.64700  Biso   1.000  H
  H41      1.0000 0.52190  0.19830  0.54930  Biso   1.000  H
  H42      1.0000 0.53840  0.30410  0.54600  Biso   1.000  H
  H43      1.0000 0.36670  0.96280  0.57100  Biso   1.000  H
  H44      1.0000 0.37320  0.96080  0.62150  Biso   1.000  H
  H45      1.0000 0.95110  0.09660  0.22620  Biso   1.000  H
  H46      1.0000 0.64090  0.06950  0.26040  Biso   1.000  H
  H47      1.0000 0.60260  0.06690  0.17720  Biso   1.000  H
  H48      1.0000 0.73930  0.08320  0.12110  Biso   1.000  H
  H49      1.0000 0.11080  0.07580  0.48060  Biso   1.000  H
  H50      1.0000 0.39800  0.08430  0.41350  Biso   1.000  H
  H51      1.0000 0.30850  0.08510  0.33900  Biso   1.000  H
  H52      1.0000 0.12300  0.08540  0.33720  Biso   1.000  H
  H53      1.0000 0.19430  0.10940  0.02720  Biso   1.000  H
  H54      1.0000 0.27950  0.27730  0.97670  Biso   1.000  H
  H55      1.0000 0.15910  0.32170  0.03230  Biso   1.000  H
  H56      1.0000 0.05470  0.25770  0.08040  Biso   1.000  H
  H57      1.0000 0.06290  0.50600  0.45460  Biso   1.000  H
  H58      1.0000 0.04200  0.40050  0.45800  Biso   1.000  H
  H59      1.0000 0.83200  0.41250  0.34880  Biso   1.000  H
  H60      1.0000 0.85860  0.51730  0.34740  Biso   1.000  H
  H61      1.0000 0.80290  0.31510  0.35430  Biso   1.000  H
  H62      1.0000 0.79660  0.20880  0.35300  Biso   1.000  H
  H63      1.0000 0.02190  0.19830  0.45070  Biso   1.000  H
  H64      1.0000 0.03840  0.30410  0.45400  Biso   1.000  H
  H65      1.0000 0.86670  0.96280  0.42900  Biso   1.000  H
  H66      1.0000 0.87320  0.96080  0.37850  Biso   1.000  H
  H67      1.0000 0.04890  0.59660  0.27380  Biso   1.000  H
  H68      1.0000 0.35910  0.56950  0.23960  Biso   1.000  H
  H69      1.0000 0.39740  0.56690  0.32280  Biso   1.000  H
  H70      1.0000 0.26070  0.58320  0.37890  Biso   1.000  H
  H71      1.0000 0.88920  0.57580  0.01940  Biso   1.000  H
  H72      1.0000 0.60200  0.58430  0.08650  Biso   1.000  H
  H73      1.0000 0.69150  0.58510  0.16100  Biso   1.000  H
  H74      1.0000 0.87700  0.58540  0.16280  Biso   1.000  H
  H75      1.0000 0.80570  0.60940  0.47280  Biso   1.000  H
  H76      1.0000 0.72050  0.77730  0.52330  Biso   1.000  H
  H77      1.0000 0.84090  0.82170  0.46770  Biso   1.000  H
  H78      1.0000 0.94530  0.75770  0.41960  Biso   1.000  H
  H79      1.0000 0.93710  0.00600  0.04540  Biso   1.000  H
  H80      1.0000 0.95800  0.90050  0.04200  Biso   1.000  H
  H81      1.0000 0.16800  0.91250  0.15120  Biso   1.000  H
  H82      1.0000 0.14140  0.01730  0.15260  Biso   1.000  H
  H83      1.0000 0.19710  0.81510  0.14570  Biso   1.000  H
  H84      1.0000 0.20340  0.70880  0.14700  Biso   1.000  H
  H85      1.0000 0.97810  0.69830  0.04930  Biso   1.000  H
  H86      1.0000 0.96160  0.80410  0.04600  Biso   1.000  H
  H87      1.0000 0.13330  0.46280  0.07100  Biso   1.000  H
  H88      1.0000 0.12680  0.46080  0.12150  Biso   1.000  H
  C1       1.0000 0.62030  0.59147  0.71641  Biso   1.000  C
  C2       1.0000 0.69780  0.58273  0.75247  Biso   1.000  C
  C3       1.0000 0.80430  0.57445  0.73724  Biso   1.000  C
  C4       1.0000 0.82730  0.57376  0.68810  Biso   1.000  C
  C5       1.0000 0.74430  0.58339  0.65458  Biso   1.000  C
  C6       1.0000 0.66620  0.58155  0.80551  Biso   1.000  C
  C7       1.0000 0.34880  0.57878  0.95177  Biso   1.000  C
  C8       1.0000 0.23630  0.58106  0.95552  Biso   1.000  C
  C9       1.0000 0.17700  0.58333  0.91248  Biso   1.000  C
  C10      1.0000 0.23020  0.58420  0.86841  Biso   1.000  C
  C11      1.0000 0.34200  0.58367  0.86753  Biso   1.000  C
  C12      1.0000 0.18130  0.58112  0.00475  Biso   1.000  C
  C13      1.0000 0.31430  0.65257  0.52738  Biso   1.000  C
  C14      1.0000 0.25110  0.68788  0.49562  Biso   1.000  C
  C15      1.0000 0.26170  0.75216  0.49733  Biso   1.000  C
  C16      1.0000 0.33390  0.77858  0.52996  Biso   1.000  C
  C17      1.0000 0.39540  0.73969  0.55908  Biso   1.000  C
  C18      1.0000 0.17350  0.65779  0.45943  Biso   1.000  C
  C19      1.0000 0.48500  0.98705  0.93278  Biso   1.000  C
  C20      1.0000 0.49690  0.92322  0.93482  Biso   1.000  C
  C21      1.0000 0.56530  0.89242  0.90317  Biso   1.000  C
  C22      1.0000 0.61950  0.93018  0.87093  Biso   1.000  C
  C23      1.0000 0.60390  0.99363  0.87054  Biso   1.000  C
  C24      1.0000 0.57480  0.82381  0.90276  Biso   1.000  C
  C25      1.0000 0.64910  0.79244  0.87375  Biso   1.000  C
  C26      1.0000 0.65300  0.72817  0.87331  Biso   1.000  C
  C27      1.0000 0.52150  0.72211  0.93000  Biso   1.000  C
  C28      1.0000 0.51110  0.78622  0.93246  Biso   1.000  C
  C29      1.0000 0.37970  0.09147  0.78359  Biso   1.000  C
  C30      1.0000 0.30220  0.08273  0.74753  Biso   1.000  C
  C31      1.0000 0.19570  0.07445  0.76276  Biso   1.000  C
  C32      1.0000 0.17270  0.07376  0.81190  Biso   1.000  C
  C33      1.0000 0.25570  0.08339  0.84542  Biso   1.000  C
  C34      1.0000 0.33380  0.08155  0.69449  Biso   1.000  C
  C35      1.0000 0.65120  0.07878  0.54823  Biso   1.000  C
  C36      1.0000 0.76370  0.08106  0.54448  Biso   1.000  C
  C37      1.0000 0.82300  0.08333  0.58752  Biso   1.000  C
  C38      1.0000 0.76980  0.08420  0.63159  Biso   1.000  C
  C39      1.0000 0.65800  0.08367  0.63247  Biso   1.000  C
  C40      1.0000 0.81870  0.08112  0.49525  Biso   1.000  C
  C41      1.0000 0.68570  0.15257  0.97262  Biso   1.000  C
  C42      1.0000 0.74890  0.18788  0.00438  Biso   1.000  C
  C43      1.0000 0.73830  0.25216  0.00267  Biso   1.000  C
  C44      1.0000 0.66610  0.27858  0.97004  Biso   1.000  C
  C45      1.0000 0.60460  0.23969  0.94092  Biso   1.000  C
  C46      1.0000 0.82650  0.15779  0.04057  Biso   1.000  C
  C47      1.0000 0.51500  0.48705  0.56722  Biso   1.000  C
  C48      1.0000 0.50310  0.42322  0.56518  Biso   1.000  C
  C49      1.0000 0.43470  0.39242  0.59683  Biso   1.000  C
  C50      1.0000 0.38050  0.43018  0.62907  Biso   1.000  C
  C51      1.0000 0.39610  0.49363  0.62946  Biso   1.000  C
  C52      1.0000 0.42520  0.32381  0.59724  Biso   1.000  C
  C53      1.0000 0.35090  0.29244  0.62625  Biso   1.000  C
  C54      1.0000 0.34700  0.22817  0.62669  Biso   1.000  C
  C55      1.0000 0.47850  0.22211  0.57000  Biso   1.000  C
  C56      1.0000 0.48890  0.28622  0.56754  Biso   1.000  C
  C57      1.0000 0.87970  0.09147  0.21641  Biso   1.000  C
  C58      1.0000 0.80220  0.08273  0.25247  Biso   1.000  C
  C59      1.0000 0.69570  0.07445  0.23724  Biso   1.000  C
  C60      1.0000 0.67270  0.07376  0.18810  Biso   1.000  C
  C61      1.0000 0.75570  0.08339  0.15458  Biso   1.000  C
  C62      1.0000 0.83380  0.08155  0.30551  Biso   1.000  C
  C63      1.0000 0.15120  0.07878  0.45177  Biso   1.000  C
  C64      1.0000 0.26370  0.08106  0.45552  Biso   1.000  C
  C65      1.0000 0.32300  0.08333  0.41248  Biso   1.000  C
  C66      1.0000 0.26980  0.08420  0.36841  Biso   1.000  C
  C67      1.0000 0.15800  0.08367  0.36753  Biso   1.000  C
  C68      1.0000 0.31870  0.08112  0.50475  Biso   1.000  C
  C69      1.0000 0.18570  0.15257  0.02738  Biso   1.000  C
  C70      1.0000 0.24890  0.18788  0.99562  Biso   1.000  C
  C71      1.0000 0.23830  0.25216  0.99733  Biso   1.000  C
  C72      1.0000 0.16610  0.27858  0.02996  Biso   1.000  C
  C73      1.0000 0.10460  0.23969  0.05908  Biso   1.000  C
  C74      1.0000 0.32650  0.15779  0.95943  Biso   1.000  C
  C75      1.0000 0.01500  0.48705  0.43278  Biso   1.000  C
  C76      1.0000 0.00310  0.42322  0.43482  Biso   1.000  C
  C77      1.0000 0.93470  0.39242  0.40317  Biso   1.000  C
  C78      1.0000 0.88050  0.43018  0.37093  Biso   1.000  C
  C79      1.0000 0.89610  0.49363  0.37054  Biso   1.000  C
  C80      1.0000 0.92520  0.32381  0.40276  Biso   1.000  C
  C81      1.0000 0.85090  0.29244  0.37375  Biso   1.000  C
  C82      1.0000 0.84700  0.22817  0.37331  Biso   1.000  C
  C83      1.0000 0.97850  0.22211  0.43000  Biso   1.000  C
  C84      1.0000 0.98890  0.28622  0.43246  Biso   1.000  C
  C85      1.0000 0.12030  0.59147  0.28359  Biso   1.000  C
  C86      1.0000 0.19780  0.58273  0.24753  Biso   1.000  C
  C87      1.0000 0.30430  0.57445  0.26276  Biso   1.000  C
  C88      1.0000 0.32730  0.57376  0.31190  Biso   1.000  C
  C89      1.0000 0.24430  0.58339  0.34542  Biso   1.000  C
  C90      1.0000 0.16620  0.58155  0.19449  Biso   1.000  C
  C91      1.0000 0.84880  0.57878  0.04823  Biso   1.000  C
  C92      1.0000 0.73630  0.58106  0.04448  Biso   1.000  C
  C93      1.0000 0.67700  0.58333  0.08752  Biso   1.000  C
  C94      1.0000 0.73020  0.58420  0.13159  Biso   1.000  C
  C95      1.0000 0.84200  0.58367  0.13247  Biso   1.000  C
  C96      1.0000 0.68130  0.58112  0.99525  Biso   1.000  C
  C97      1.0000 0.81430  0.65257  0.47262  Biso   1.000  C
  C98      1.0000 0.75110  0.68788  0.50438  Biso   1.000  C
  C99      1.0000 0.76170  0.75216  0.50267  Biso   1.000  C
  C100     1.0000 0.83390  0.77858  0.47004  Biso   1.000  C
  C101     1.0000 0.89540  0.73969  0.44092  Biso   1.000  C
  C102     1.0000 0.67350  0.65779  0.54057  Biso   1.000  C
  C103     1.0000 0.98500  0.98705  0.06722  Biso   1.000  C
  C104     1.0000 0.99690  0.92322  0.06518  Biso   1.000  C
  C105     1.0000 0.06530  0.89242  0.09683  Biso   1.000  C
  C106     1.0000 0.11950  0.93018  0.12907  Biso   1.000  C
  C107     1.0000 0.10390  0.99363  0.12946  Biso   1.000  C
  C108     1.0000 0.07480  0.82381  0.09724  Biso   1.000  C
  C109     1.0000 0.14910  0.79244  0.12625  Biso   1.000  C
  C110     1.0000 0.15300  0.72817  0.12669  Biso   1.000  C
  C111     1.0000 0.02150  0.72211  0.07000  Biso   1.000  C
  C112     1.0000 0.01110  0.78622  0.06754  Biso   1.000  C
  N1       1.0000 0.64250  0.59293  0.66800  Biso   1.000  N
  N2       1.0000 0.40110  0.58075  0.90818  Biso   1.000  N
  N3       1.0000 0.38700  0.67728  0.55822  Biso   1.000  N
  N4       1.0000 0.53840  0.02290  0.90132  Biso   1.000  N
  N5       1.0000 0.58830  0.69220  0.90048  Biso   1.000  N
  N6       1.0000 0.35750  0.09293  0.83200  Biso   1.000  N
  N7       1.0000 0.59890  0.08075  0.59182  Biso   1.000  N
  N8       1.0000 0.61300  0.17728  0.94178  Biso   1.000  N
  N9       1.0000 0.46160  0.52290  0.59868  Biso   1.000  N
  N10      1.0000 0.41170  0.19220  0.59952  Biso   1.000  N
  N11      1.0000 0.85750  0.09293  0.16800  Biso   1.000  N
  N12      1.0000 0.09890  0.08075  0.40818  Biso   1.000  N
  N13      1.0000 0.11300  0.17728  0.05822  Biso   1.000  N
  N14      1.0000 0.96160  0.52290  0.40132  Biso   1.000  N
  N15      1.0000 0.91170  0.19220  0.40048  Biso   1.000  N
  N16      1.0000 0.14250  0.59293  0.33200  Biso   1.000  N
  N17      1.0000 0.90110  0.58075  0.09182  Biso   1.000  N
  N18      1.0000 0.88700  0.67728  0.44178  Biso   1.000  N
  N19      1.0000 0.03840  0.02290  0.09868  Biso   1.000  N
  N20      1.0000 0.08830  0.69220  0.09952  Biso   1.000  N
  O1       1.0000 0.56840  0.57395  0.81620  Biso   1.000  O
  O2       1.0000 0.73680  0.58839  0.83793  Biso   1.000  O
  O3       1.0000 0.23874  0.57789  0.04309  Biso   1.000  O
  O4       1.0000 0.08240  0.58582  0.00674  Biso   1.000  O
  O5       1.0000 0.15550  0.60099  0.46308  Biso   1.000  O
  O6       1.0000 0.13230  0.69265  0.42740  Biso   1.000  O
  O7       1.0000 0.59600  0.47332  0.90377  Biso   1.000  O
  O8       1.0000 0.43160  0.07395  0.68380  Biso   1.000  O
  O9       1.0000 0.26320  0.08839  0.66207  Biso   1.000  O
  O10      1.0000 0.76126  0.07789  0.45691  Biso   1.000  O
  O11      1.0000 0.91760  0.08582  0.49326  Biso   1.000  O
  O12      1.0000 0.84450  0.10099  0.03692  Biso   1.000  O
  O13      1.0000 0.86770  0.19265  0.07260  Biso   1.000  O
  O14      1.0000 0.40400  0.97332  0.59623  Biso   1.000  O
  O15      1.0000 0.93160  0.07395  0.31620  Biso   1.000  O
  O16      1.0000 0.76320  0.08839  0.33793  Biso   1.000  O
  O17      1.0000 0.26126  0.07789  0.54309  Biso   1.000  O
  O18      1.0000 0.41760  0.08582  0.50674  Biso   1.000  O
  O19      1.0000 0.34450  0.10099  0.96308  Biso   1.000  O
  O20      1.0000 0.36770  0.19265  0.92740  Biso   1.000  O
  O21      1.0000 0.90400  0.97332  0.40377  Biso   1.000  O
  O22      1.0000 0.06840  0.57395  0.18380  Biso   1.000  O
  O23      1.0000 0.23680  0.58839  0.16207  Biso   1.000  O
  O24      1.0000 0.73874  0.57789  0.95691  Biso   1.000  O
  O25      1.0000 0.58240  0.58582  0.99326  Biso   1.000  O
  O26      1.0000 0.65550  0.60099  0.53692  Biso   1.000  O
  O27      1.0000 0.63230  0.69265  0.57260  Biso   1.000  O
  O28      1.0000 0.09600  0.47332  0.09623  Biso   1.000  O
  Cd9      1.0000 0.08995  0.91828  0.59756  Biso   1.000  Cd
  Cd10     1.0000 0.01060  0.87297  0.88863  Biso   1.000  Cd
  Cd11     1.0000 0.91005  0.41828  0.90244  Biso   1.000  Cd
  Cd12     1.0000 0.98940  0.37297  0.61137  Biso   1.000  Cd
  Cd13     1.0000 0.41005  0.41828  0.09756  Biso   1.000  Cd
  Cd14     1.0000 0.48940  0.37297  0.38863  Biso   1.000  Cd
  Cd15     1.0000 0.58995  0.91828  0.40244  Biso   1.000  Cd
  Cd16     1.0000 0.51060  0.87297  0.11137  Biso   1.000  Cd
  H89      1.0000 0.04890  0.90340  0.77380  Biso   1.000  H
  H90      1.0000 0.35910  0.93050  0.73960  Biso   1.000  H
  H91      1.0000 0.39740  0.93310  0.82280  Biso   1.000  H
  H92      1.0000 0.26070  0.91680  0.87890  Biso   1.000  H
  H93      1.0000 0.88920  0.92420  0.51940  Biso   1.000  H
  H94      1.0000 0.60200  0.91570  0.58650  Biso   1.000  H
  H95      1.0000 0.69150  0.91490  0.66100  Biso   1.000  H
  H96      1.0000 0.87700  0.91460  0.66280  Biso   1.000  H
  H97      1.0000 0.80570  0.89060  0.97280  Biso   1.000  H
  H98      1.0000 0.72050  0.72270  0.02330  Biso   1.000  H
  H99      1.0000 0.84090  0.67830  0.96770  Biso   1.000  H
  H100     1.0000 0.94530  0.74230  0.91960  Biso   1.000  H
  H101     1.0000 0.93710  0.49400  0.54540  Biso   1.000  H
  H102     1.0000 0.95800  0.59950  0.54200  Biso   1.000  H
  H103     1.0000 0.16800  0.58750  0.65120  Biso   1.000  H
  H104     1.0000 0.14140  0.48270  0.65260  Biso   1.000  H
  H105     1.0000 0.19710  0.68490  0.64570  Biso   1.000  H
  H106     1.0000 0.20340  0.79120  0.64700  Biso   1.000  H
  H107     1.0000 0.97810  0.80170  0.54930  Biso   1.000  H
  H108     1.0000 0.96160  0.69590  0.54600  Biso   1.000  H
  H109     1.0000 0.13330  0.03720  0.57100  Biso   1.000  H
  H110     1.0000 0.12680  0.03920  0.62150  Biso   1.000  H
  H111     1.0000 0.95110  0.40340  0.72620  Biso   1.000  H
  H112     1.0000 0.64090  0.43050  0.76040  Biso   1.000  H
  H113     1.0000 0.60260  0.43310  0.67720  Biso   1.000  H
  H114     1.0000 0.73930  0.41680  0.62110  Biso   1.000  H
  H115     1.0000 0.11080  0.42420  0.98060  Biso   1.000  H
  H116     1.0000 0.39800  0.41570  0.91350  Biso   1.000  H
  H117     1.0000 0.30850  0.41490  0.83900  Biso   1.000  H
  H118     1.0000 0.12300  0.41460  0.83720  Biso   1.000  H
  H119     1.0000 0.19430  0.39060  0.52720  Biso   1.000  H
  H120     1.0000 0.27950  0.22270  0.47670  Biso   1.000  H
  H121     1.0000 0.15910  0.17830  0.53230  Biso   1.000  H
  H122     1.0000 0.05470  0.24230  0.58040  Biso   1.000  H
  H123     1.0000 0.06290  0.99400  0.95460  Biso   1.000  H
  H124     1.0000 0.04200  0.09950  0.95800  Biso   1.000  H
  H125     1.0000 0.83200  0.08750  0.84880  Biso   1.000  H
  H126     1.0000 0.85860  0.98270  0.84740  Biso   1.000  H
  H127     1.0000 0.80290  0.18490  0.85430  Biso   1.000  H
  H128     1.0000 0.79660  0.29120  0.85300  Biso   1.000  H
  H129     1.0000 0.02190  0.30170  0.95070  Biso   1.000  H
  H130     1.0000 0.03840  0.19590  0.95400  Biso   1.000  H
  H131     1.0000 0.86670  0.53720  0.92900  Biso   1.000  H
  H132     1.0000 0.87320  0.53920  0.87850  Biso   1.000  H
  H133     1.0000 0.45110  0.40340  0.27380  Biso   1.000  H
  H134     1.0000 0.14090  0.43050  0.23960  Biso   1.000  H
  H135     1.0000 0.10260  0.43310  0.32280  Biso   1.000  H
  H136     1.0000 0.23930  0.41680  0.37890  Biso   1.000  H
  H137     1.0000 0.61080  0.42420  0.01940  Biso   1.000  H
  H138     1.0000 0.89800  0.41570  0.08650  Biso   1.000  H
  H139     1.0000 0.80850  0.41490  0.16100  Biso   1.000  H
  H140     1.0000 0.62300  0.41460  0.16280  Biso   1.000  H
  H141     1.0000 0.69430  0.39060  0.47280  Biso   1.000  H
  H142     1.0000 0.77950  0.22270  0.52330  Biso   1.000  H
  H143     1.0000 0.65910  0.17830  0.46770  Biso   1.000  H
  H144     1.0000 0.55470  0.24230  0.41960  Biso   1.000  H
  H145     1.0000 0.56290  0.99400  0.04540  Biso   1.000  H
  H146     1.0000 0.54200  0.09950  0.04200  Biso   1.000  H
  H147     1.0000 0.33200  0.08750  0.15120  Biso   1.000  H
  H148     1.0000 0.35860  0.98270  0.15260  Biso   1.000  H
  H149     1.0000 0.30290  0.18490  0.14570  Biso   1.000  H
  H150     1.0000 0.29660  0.29120  0.14700  Biso   1.000  H
  H151     1.0000 0.52190  0.30170  0.04930  Biso   1.000  H
  H152     1.0000 0.53840  0.19590  0.04600  Biso   1.000  H
  H153     1.0000 0.36670  0.53720  0.07100  Biso   1.000  H
  H154     1.0000 0.37320  0.53920  0.12150  Biso   1.000  H
  H155     1.0000 0.54890  0.90340  0.22620  Biso   1.000  H
  H156     1.0000 0.85910  0.93050  0.26040  Biso   1.000  H
  H157     1.0000 0.89740  0.93310  0.17720  Biso   1.000  H
  H158     1.0000 0.76070  0.91680  0.12110  Biso   1.000  H
  H159     1.0000 0.38920  0.92420  0.48060  Biso   1.000  H
  H160     1.0000 0.10200  0.91570  0.41350  Biso   1.000  H
  H161     1.0000 0.19150  0.91490  0.33900  Biso   1.000  H
  H162     1.0000 0.37700  0.91460  0.33720  Biso   1.000  H
  H163     1.0000 0.30570  0.89060  0.02720  Biso   1.000  H
  H164     1.0000 0.22050  0.72270  0.97670  Biso   1.000  H
  H165     1.0000 0.34090  0.67830  0.03230  Biso   1.000  H
  H166     1.0000 0.44530  0.74230  0.08040  Biso   1.000  H
  H167     1.0000 0.43710  0.49400  0.45460  Biso   1.000  H
  H168     1.0000 0.45800  0.59950  0.45800  Biso   1.000  H
  H169     1.0000 0.66800  0.58750  0.34880  Biso   1.000  H
  H170     1.0000 0.64140  0.48270  0.34740  Biso   1.000  H
  H171     1.0000 0.69710  0.68490  0.35430  Biso   1.000  H
  H172     1.0000 0.70340  0.79120  0.35300  Biso   1.000  H
  H173     1.0000 0.47810  0.80170  0.45070  Biso   1.000  H
  H174     1.0000 0.46160  0.69590  0.45400  Biso   1.000  H
  H175     1.0000 0.63330  0.03720  0.42900  Biso   1.000  H
  H176     1.0000 0.62680  0.03920  0.37850  Biso   1.000  H
  C113     1.0000 0.12030  0.90853  0.78359  Biso   1.000  C
  C114     1.0000 0.19780  0.91727  0.74753  Biso   1.000  C
  C115     1.0000 0.30430  0.92555  0.76276  Biso   1.000  C
  C116     1.0000 0.32730  0.92624  0.81190  Biso   1.000  C
  C117     1.0000 0.24430  0.91661  0.84542  Biso   1.000  C
  C118     1.0000 0.16620  0.91845  0.69449  Biso   1.000  C
  C119     1.0000 0.84880  0.92122  0.54823  Biso   1.000  C
  C120     1.0000 0.73630  0.91894  0.54448  Biso   1.000  C
  C121     1.0000 0.67700  0.91667  0.58752  Biso   1.000  C
  C122     1.0000 0.73020  0.91580  0.63159  Biso   1.000  C
  C123     1.0000 0.84200  0.91633  0.63247  Biso   1.000  C
  C124     1.0000 0.68130  0.91888  0.49525  Biso   1.000  C
  C125     1.0000 0.81430  0.84743  0.97262  Biso   1.000  C
  C126     1.0000 0.75110  0.81212  0.00438  Biso   1.000  C
  C127     1.0000 0.76170  0.74784  0.00267  Biso   1.000  C
  C128     1.0000 0.83390  0.72142  0.97004  Biso   1.000  C
  C129     1.0000 0.89540  0.76031  0.94092  Biso   1.000  C
  C130     1.0000 0.67350  0.84221  0.04057  Biso   1.000  C
  C131     1.0000 0.98500  0.51295  0.56722  Biso   1.000  C
  C132     1.0000 0.99690  0.57678  0.56518  Biso   1.000  C
  C133     1.0000 0.06530  0.60758  0.59683  Biso   1.000  C
  C134     1.0000 0.11950  0.56982  0.62907  Biso   1.000  C
  C135     1.0000 0.10390  0.50637  0.62946  Biso   1.000  C
  C136     1.0000 0.07480  0.67619  0.59724  Biso   1.000  C
  C137     1.0000 0.14910  0.70756  0.62625  Biso   1.000  C
  C138     1.0000 0.15300  0.77183  0.62669  Biso   1.000  C
  C139     1.0000 0.02150  0.77789  0.57000  Biso   1.000  C
  C140     1.0000 0.01110  0.71378  0.56754  Biso   1.000  C
  C141     1.0000 0.87970  0.40853  0.71641  Biso   1.000  C
  C142     1.0000 0.80220  0.41727  0.75247  Biso   1.000  C
  C143     1.0000 0.69570  0.42555  0.73724  Biso   1.000  C
  C144     1.0000 0.67270  0.42624  0.68810  Biso   1.000  C
  C145     1.0000 0.75570  0.41661  0.65458  Biso   1.000  C
  C146     1.0000 0.83380  0.41845  0.80551  Biso   1.000  C
  C147     1.0000 0.15120  0.42122  0.95177  Biso   1.000  C
  C148     1.0000 0.26370  0.41894  0.95552  Biso   1.000  C
  C149     1.0000 0.32300  0.41667  0.91248  Biso   1.000  C
  C150     1.0000 0.26980  0.41580  0.86841  Biso   1.000  C
  C151     1.0000 0.15800  0.41633  0.86753  Biso   1.000  C
  C152     1.0000 0.31870  0.41888  0.00475  Biso   1.000  C
  C153     1.0000 0.18570  0.34743  0.52738  Biso   1.000  C
  C154     1.0000 0.24890  0.31212  0.49562  Biso   1.000  C
  C155     1.0000 0.23830  0.24784  0.49733  Biso   1.000  C
  C156     1.0000 0.16610  0.22142  0.52996  Biso   1.000  C
  C157     1.0000 0.10460  0.26031  0.55908  Biso   1.000  C
  C158     1.0000 0.32650  0.34221  0.45943  Biso   1.000  C
  C159     1.0000 0.01500  0.01295  0.93278  Biso   1.000  C
  C160     1.0000 0.00310  0.07678  0.93482  Biso   1.000  C
  C161     1.0000 0.93470  0.10758  0.90317  Biso   1.000  C
  C162     1.0000 0.88050  0.06982  0.87093  Biso   1.000  C
  C163     1.0000 0.89610  0.00637  0.87054  Biso   1.000  C
  C164     1.0000 0.92520  0.17619  0.90276  Biso   1.000  C
  C165     1.0000 0.85090  0.20756  0.87375  Biso   1.000  C
  C166     1.0000 0.84700  0.27183  0.87331  Biso   1.000  C
  C167     1.0000 0.97850  0.27789  0.93000  Biso   1.000  C
  C168     1.0000 0.98890  0.21378  0.93246  Biso   1.000  C
  C169     1.0000 0.37970  0.40853  0.28359  Biso   1.000  C
  C170     1.0000 0.30220  0.41727  0.24753  Biso   1.000  C
  C171     1.0000 0.19570  0.42555  0.26276  Biso   1.000  C
  C172     1.0000 0.17270  0.42624  0.31190  Biso   1.000  C
  C173     1.0000 0.25570  0.41661  0.34542  Biso   1.000  C
  C174     1.0000 0.33380  0.41845  0.19449  Biso   1.000  C
  C175     1.0000 0.65120  0.42122  0.04823  Biso   1.000  C
  C176     1.0000 0.76370  0.41894  0.04448  Biso   1.000  C
  C177     1.0000 0.82300  0.41667  0.08752  Biso   1.000  C
  C178     1.0000 0.76980  0.41580  0.13159  Biso   1.000  C
  C179     1.0000 0.65800  0.41633  0.13247  Biso   1.000  C
  C180     1.0000 0.81870  0.41888  0.99525  Biso   1.000  C
  C181     1.0000 0.68570  0.34743  0.47262  Biso   1.000  C
  C182     1.0000 0.74890  0.31212  0.50438  Biso   1.000  C
  C183     1.0000 0.73830  0.24784  0.50267  Biso   1.000  C
  C184     1.0000 0.66610  0.22142  0.47004  Biso   1.000  C
  C185     1.0000 0.60460  0.26031  0.44092  Biso   1.000  C
  C186     1.0000 0.82650  0.34221  0.54057  Biso   1.000  C
  C187     1.0000 0.51500  0.01295  0.06722  Biso   1.000  C
  C188     1.0000 0.50310  0.07678  0.06518  Biso   1.000  C
  C189     1.0000 0.43470  0.10758  0.09683  Biso   1.000  C
  C190     1.0000 0.38050  0.06982  0.12907  Biso   1.000  C
  C191     1.0000 0.39610  0.00637  0.12946  Biso   1.000  C
  C192     1.0000 0.42520  0.17619  0.09724  Biso   1.000  C
  C193     1.0000 0.35090  0.20756  0.12625  Biso   1.000  C
  C194     1.0000 0.34700  0.27183  0.12669  Biso   1.000  C
  C195     1.0000 0.47850  0.27789  0.07000  Biso   1.000  C
  C196     1.0000 0.48890  0.21378  0.06754  Biso   1.000  C
  C197     1.0000 0.62030  0.90853  0.21641  Biso   1.000  C
  C198     1.0000 0.69780  0.91727  0.25247  Biso   1.000  C
  C199     1.0000 0.80430  0.92555  0.23724  Biso   1.000  C
  C200     1.0000 0.82730  0.92624  0.18810  Biso   1.000  C
  C201     1.0000 0.74430  0.91661  0.15458  Biso   1.000  C
  C202     1.0000 0.66620  0.91845  0.30551  Biso   1.000  C
  C203     1.0000 0.34880  0.92122  0.45177  Biso   1.000  C
  C204     1.0000 0.23630  0.91894  0.45552  Biso   1.000  C
  C205     1.0000 0.17700  0.91667  0.41248  Biso   1.000  C
  C206     1.0000 0.23020  0.91580  0.36841  Biso   1.000  C
  C207     1.0000 0.34200  0.91633  0.36753  Biso   1.000  C
  C208     1.0000 0.18130  0.91888  0.50475  Biso   1.000  C
  C209     1.0000 0.31430  0.84743  0.02738  Biso   1.000  C
  C210     1.0000 0.25110  0.81212  0.99562  Biso   1.000  C
  C211     1.0000 0.26170  0.74784  0.99733  Biso   1.000  C
  C212     1.0000 0.33390  0.72142  0.02996  Biso   1.000  C
  C213     1.0000 0.39540  0.76031  0.05908  Biso   1.000  C
  C214     1.0000 0.17350  0.84221  0.95943  Biso   1.000  C
  C215     1.0000 0.48500  0.51295  0.43278  Biso   1.000  C
  C216     1.0000 0.49690  0.57678  0.43482  Biso   1.000  C
  C217     1.0000 0.56530  0.60758  0.40317  Biso   1.000  C
  C218     1.0000 0.61950  0.56982  0.37093  Biso   1.000  C
  C219     1.0000 0.60390  0.50637  0.37054  Biso   1.000  C
  C220     1.0000 0.57480  0.67619  0.40276  Biso   1.000  C
  C221     1.0000 0.64910  0.70756  0.37375  Biso   1.000  C
  C222     1.0000 0.65300  0.77183  0.37331  Biso   1.000  C
  C223     1.0000 0.52150  0.77789  0.43000  Biso   1.000  C
  C224     1.0000 0.51110  0.71378  0.43246  Biso   1.000  C
  N21      1.0000 0.14250  0.90707  0.83200  Biso   1.000  N
  N22      1.0000 0.90110  0.91925  0.59182  Biso   1.000  N
  N23      1.0000 0.88700  0.82272  0.94178  Biso   1.000  N
  N24      1.0000 0.03840  0.47710  0.59868  Biso   1.000  N
  N25      1.0000 0.08830  0.80780  0.59952  Biso   1.000  N
  N26      1.0000 0.85750  0.40707  0.66800  Biso   1.000  N
  N27      1.0000 0.09890  0.41925  0.90818  Biso   1.000  N
  N28      1.0000 0.11300  0.32272  0.55822  Biso   1.000  N
  N29      1.0000 0.96160  0.97710  0.90132  Biso   1.000  N
  N30      1.0000 0.91170  0.30780  0.90048  Biso   1.000  N
  N31      1.0000 0.35750  0.40707  0.33200  Biso   1.000  N
  N32      1.0000 0.59890  0.41925  0.09182  Biso   1.000  N
  N33      1.0000 0.61300  0.32272  0.44178  Biso   1.000  N
  N34      1.0000 0.46160  0.97710  0.09868  Biso   1.000  N
  N35      1.0000 0.41170  0.30780  0.09952  Biso   1.000  N
  N36      1.0000 0.64250  0.90707  0.16800  Biso   1.000  N
  N37      1.0000 0.40110  0.91925  0.40818  Biso   1.000  N
  N38      1.0000 0.38700  0.82272  0.05822  Biso   1.000  N
  N39      1.0000 0.53840  0.47710  0.40132  Biso   1.000  N
  N40      1.0000 0.58830  0.80780  0.40048  Biso   1.000  N
  O29      1.0000 0.06840  0.92605  0.68380  Biso   1.000  O
  O30      1.0000 0.23680  0.91161  0.66207  Biso   1.000  O
  O31      1.0000 0.73874  0.92211  0.45691  Biso   1.000  O
  O32      1.0000 0.58240  0.91418  0.49326  Biso   1.000  O
  O33      1.0000 0.65550  0.89901  0.03692  Biso   1.000  O
  O34      1.0000 0.63230  0.80735  0.07260  Biso   1.000  O
  O35      1.0000 0.09600  0.02668  0.59623  Biso   1.000  O
  O36      1.0000 0.93160  0.42605  0.81620  Biso   1.000  O
  O37      1.0000 0.76320  0.41161  0.83793  Biso   1.000  O
  O38      1.0000 0.26126  0.42211  0.04309  Biso   1.000  O
  O39      1.0000 0.41760  0.41418  0.00674  Biso   1.000  O
  O40      1.0000 0.34450  0.39901  0.46308  Biso   1.000  O
  O41      1.0000 0.36770  0.30735  0.42740  Biso   1.000  O
  O42      1.0000 0.90400  0.52668  0.90377  Biso   1.000  O
  O43      1.0000 0.43160  0.42605  0.18380  Biso   1.000  O
  O44      1.0000 0.26320  0.41161  0.16207  Biso   1.000  O
  O45      1.0000 0.76126  0.42211  0.95691  Biso   1.000  O
  O46      1.0000 0.91760  0.41418  0.99326  Biso   1.000  O
  O47      1.0000 0.84450  0.39901  0.53692  Biso   1.000  O
  O48      1.0000 0.86770  0.30735  0.57260  Biso   1.000  O
  O49      1.0000 0.40400  0.52668  0.09623  Biso   1.000  O
  O50      1.0000 0.56840  0.92605  0.31620  Biso   1.000  O
  O51      1.0000 0.73680  0.91161  0.33793  Biso   1.000  O
  O52      1.0000 0.23874  0.92211  0.54309  Biso   1.000  O
  O53      1.0000 0.08240  0.91418  0.50674  Biso   1.000  O
  O54      1.0000 0.15550  0.89901  0.96308  Biso   1.000  O
  O55      1.0000 0.13230  0.80735  0.92740  Biso   1.000  O
  O56      1.0000 0.59600  0.02668  0.40377  Biso   1.000  O
