data_image0
_cell_length_a       11.6284
_cell_length_b       16.3148
_cell_length_c       17.8861
_cell_angle_alpha    90
_cell_angle_beta     90
_cell_angle_gamma    90

_symmetry_space_group_name_H-M    P 1
_symmetry_int_tables_number       1

loop_
  _symmetry_equiv_pos_as_xyz
  'x, y, z'

loop_
  _atom_site_label
  _atom_site_occupancy
  _atom_site_fract_x
  _atom_site_fract_y
  _atom_site_fract_z
  _atom_site_thermal_displace_type
  _atom_site_B_iso_or_equiv
  _atom_site_type_symbol
  Mn1      1.0000 0.50000  0.11042  0.18173  Biso   1.000  Mn
  Mn2      1.0000 0.50000  0.88958  0.81827  Biso   1.000  Mn
  Mn3      1.0000 0.50000  0.38958  0.68173  Biso   1.000  Mn
  Mn4      1.0000 0.50000  0.61042  0.31827  Biso   1.000  Mn
  Mn5      1.0000 0.50000  0.50000  0.00000  Biso   1.000  Mn
  Mn6      1.0000 0.50000  0.00000  0.50000  Biso   1.000  Mn
  Fe1      1.0000 0.50000  0.19794  0.90044  Biso   1.000  Fe
  Fe2      1.0000 0.50000  0.80206  0.09956  Biso   1.000  Fe
  Fe3      1.0000 0.50000  0.30206  0.40044  Biso   1.000  Fe
  Fe4      1.0000 0.50000  0.69794  0.59956  Biso   1.000  Fe
  H1       1.0000 0.28400  0.17210  0.27610  Biso   1.000  H
  H2       1.0000 0.08860  0.16790  0.28240  Biso   1.000  H
  H3       1.0000 0.28590  0.04120  0.09550  Biso   1.000  H
  H4       1.0000 0.08970  0.03360  0.09550  Biso   1.000  H
  H5       1.0000 0.71550  0.42530  0.91760  Biso   1.000  H
  H6       1.0000 0.91100  0.42360  0.91470  Biso   1.000  H
  H7       1.0000 0.56650  0.59870  0.87680  Biso   1.000  H
  H8       1.0000 0.28400  0.82790  0.72390  Biso   1.000  H
  H9       1.0000 0.08860  0.83210  0.71760  Biso   1.000  H
  H10      1.0000 0.28590  0.95880  0.90450  Biso   1.000  H
  H11      1.0000 0.08970  0.96640  0.90450  Biso   1.000  H
  H12      1.0000 0.71550  0.57470  0.08240  Biso   1.000  H
  H13      1.0000 0.91100  0.57640  0.08530  Biso   1.000  H
  H14      1.0000 0.56650  0.40130  0.12320  Biso   1.000  H
  H15      1.0000 0.71600  0.32790  0.77610  Biso   1.000  H
  H16      1.0000 0.91140  0.33210  0.78240  Biso   1.000  H
  H17      1.0000 0.71410  0.45880  0.59550  Biso   1.000  H
  H18      1.0000 0.91030  0.46640  0.59550  Biso   1.000  H
  H19      1.0000 0.28450  0.07470  0.41760  Biso   1.000  H
  H20      1.0000 0.08900  0.07640  0.41470  Biso   1.000  H
  H21      1.0000 0.43350  0.90130  0.37680  Biso   1.000  H
  H22      1.0000 0.71600  0.67210  0.22390  Biso   1.000  H
  H23      1.0000 0.91140  0.66790  0.21760  Biso   1.000  H
  H24      1.0000 0.71410  0.54120  0.40450  Biso   1.000  H
  H25      1.0000 0.91030  0.53360  0.40450  Biso   1.000  H
  H26      1.0000 0.28450  0.92530  0.58240  Biso   1.000  H
  H27      1.0000 0.08900  0.92360  0.58530  Biso   1.000  H
  H28      1.0000 0.43350  0.09870  0.62320  Biso   1.000  H
  H29      1.0000 0.71600  0.82790  0.72390  Biso   1.000  H
  H30      1.0000 0.91140  0.83210  0.71760  Biso   1.000  H
  H31      1.0000 0.71410  0.95880  0.90450  Biso   1.000  H
  H32      1.0000 0.91030  0.96640  0.90450  Biso   1.000  H
  H33      1.0000 0.28450  0.57470  0.08240  Biso   1.000  H
  H34      1.0000 0.08900  0.57640  0.08530  Biso   1.000  H
  H35      1.0000 0.43350  0.40130  0.12320  Biso   1.000  H
  H36      1.0000 0.71600  0.17210  0.27610  Biso   1.000  H
  H37      1.0000 0.91140  0.16790  0.28240  Biso   1.000  H
  H38      1.0000 0.71410  0.04120  0.09550  Biso   1.000  H
  H39      1.0000 0.91030  0.03360  0.09550  Biso   1.000  H
  H40      1.0000 0.28450  0.42530  0.91760  Biso   1.000  H
  H41      1.0000 0.08900  0.42360  0.91470  Biso   1.000  H
  H42      1.0000 0.43350  0.59870  0.87680  Biso   1.000  H
  H43      1.0000 0.28400  0.67210  0.22390  Biso   1.000  H
  H44      1.0000 0.08860  0.66790  0.21760  Biso   1.000  H
  H45      1.0000 0.28590  0.54120  0.40450  Biso   1.000  H
  H46      1.0000 0.08970  0.53360  0.40450  Biso   1.000  H
  H47      1.0000 0.71550  0.92530  0.58240  Biso   1.000  H
  H48      1.0000 0.91100  0.92360  0.58530  Biso   1.000  H
  H49      1.0000 0.56650  0.09870  0.62320  Biso   1.000  H
  H50      1.0000 0.28400  0.32790  0.77610  Biso   1.000  H
  H51      1.0000 0.08860  0.33210  0.78240  Biso   1.000  H
  H52      1.0000 0.28590  0.45880  0.59550  Biso   1.000  H
  H53      1.0000 0.08970  0.46640  0.59550  Biso   1.000  H
  H54      1.0000 0.71550  0.07470  0.41760  Biso   1.000  H
  H55      1.0000 0.91100  0.07640  0.41470  Biso   1.000  H
  H56      1.0000 0.56650  0.90130  0.37680  Biso   1.000  H
  H57      1.0000 0.50000  0.01060  0.31360  Biso   1.000  H
  H58      1.0000 0.50000  0.10180  0.33080  Biso   1.000  H
  H59      1.0000 0.50000  0.98940  0.68640  Biso   1.000  H
  H60      1.0000 0.50000  0.89820  0.66920  Biso   1.000  H
  H61      1.0000 0.50000  0.48940  0.81360  Biso   1.000  H
  H62      1.0000 0.50000  0.39820  0.83080  Biso   1.000  H
  H63      1.0000 0.50000  0.51060  0.18640  Biso   1.000  H
  H64      1.0000 0.50000  0.60180  0.16920  Biso   1.000  H
  C1       1.0000 0.66900  0.19730  0.90160  Biso   1.000  C
  C2       1.0000 0.24420  0.14390  0.23910  Biso   1.000  C
  C3       1.0000 0.12650  0.14180  0.24330  Biso   1.000  C
  C4       1.0000 0.24550  0.06750  0.13340  Biso   1.000  C
  C5       1.0000 0.12710  0.06250  0.13310  Biso   1.000  C
  C6       1.0000 0.06410  0.10060  0.18880  Biso   1.000  C
  C7       1.0000 0.75510  0.45690  0.95230  Biso   1.000  C
  C8       1.0000 0.87350  0.45540  0.95030  Biso   1.000  C
  C9       1.0000 0.66900  0.80270  0.09840  Biso   1.000  C
  C10      1.0000 0.24420  0.85610  0.76090  Biso   1.000  C
  C11      1.0000 0.12650  0.85820  0.75670  Biso   1.000  C
  C12      1.0000 0.24550  0.93250  0.86660  Biso   1.000  C
  C13      1.0000 0.12710  0.93750  0.86690  Biso   1.000  C
  C14      1.0000 0.06410  0.89940  0.81120  Biso   1.000  C
  C15      1.0000 0.75510  0.54310  0.04770  Biso   1.000  C
  C16      1.0000 0.87350  0.54460  0.04970  Biso   1.000  C
  C17      1.0000 0.33100  0.30270  0.40160  Biso   1.000  C
  C18      1.0000 0.75580  0.35610  0.73910  Biso   1.000  C
  C19      1.0000 0.87350  0.35820  0.74330  Biso   1.000  C
  C20      1.0000 0.75450  0.43250  0.63340  Biso   1.000  C
  C21      1.0000 0.87290  0.43750  0.63310  Biso   1.000  C
  C22      1.0000 0.93590  0.39940  0.68880  Biso   1.000  C
  C23      1.0000 0.24490  0.04310  0.45230  Biso   1.000  C
  C24      1.0000 0.12650  0.04460  0.45030  Biso   1.000  C
  C25      1.0000 0.33100  0.69730  0.59840  Biso   1.000  C
  C26      1.0000 0.75580  0.64390  0.26090  Biso   1.000  C
  C27      1.0000 0.87350  0.64180  0.25670  Biso   1.000  C
  C28      1.0000 0.75450  0.56750  0.36660  Biso   1.000  C
  C29      1.0000 0.87290  0.56250  0.36690  Biso   1.000  C
  C30      1.0000 0.93590  0.60060  0.31120  Biso   1.000  C
  C31      1.0000 0.24490  0.95690  0.54770  Biso   1.000  C
  C32      1.0000 0.12650  0.95540  0.54970  Biso   1.000  C
  C33      1.0000 0.33100  0.80270  0.09840  Biso   1.000  C
  C34      1.0000 0.75580  0.85610  0.76090  Biso   1.000  C
  C35      1.0000 0.87350  0.85820  0.75670  Biso   1.000  C
  C36      1.0000 0.75450  0.93250  0.86660  Biso   1.000  C
  C37      1.0000 0.87290  0.93750  0.86690  Biso   1.000  C
  C38      1.0000 0.93590  0.89940  0.81120  Biso   1.000  C
  C39      1.0000 0.24490  0.54310  0.04770  Biso   1.000  C
  C40      1.0000 0.12650  0.54460  0.04970  Biso   1.000  C
  C41      1.0000 0.33100  0.19730  0.90160  Biso   1.000  C
  C42      1.0000 0.75580  0.14390  0.23910  Biso   1.000  C
  C43      1.0000 0.87350  0.14180  0.24330  Biso   1.000  C
  C44      1.0000 0.75450  0.06750  0.13340  Biso   1.000  C
  C45      1.0000 0.87290  0.06250  0.13310  Biso   1.000  C
  C46      1.0000 0.93590  0.10060  0.18880  Biso   1.000  C
  C47      1.0000 0.24490  0.45690  0.95230  Biso   1.000  C
  C48      1.0000 0.12650  0.45540  0.95030  Biso   1.000  C
  C49      1.0000 0.66900  0.69730  0.59840  Biso   1.000  C
  C50      1.0000 0.24420  0.64390  0.26090  Biso   1.000  C
  C51      1.0000 0.12650  0.64180  0.25670  Biso   1.000  C
  C52      1.0000 0.24550  0.56750  0.36660  Biso   1.000  C
  C53      1.0000 0.12710  0.56250  0.36690  Biso   1.000  C
  C54      1.0000 0.06410  0.60060  0.31120  Biso   1.000  C
  C55      1.0000 0.75510  0.95690  0.54770  Biso   1.000  C
  C56      1.0000 0.87350  0.95540  0.54970  Biso   1.000  C
  C57      1.0000 0.66900  0.30270  0.40160  Biso   1.000  C
  C58      1.0000 0.24420  0.35610  0.73910  Biso   1.000  C
  C59      1.0000 0.12650  0.35820  0.74330  Biso   1.000  C
  C60      1.0000 0.24550  0.43250  0.63340  Biso   1.000  C
  C61      1.0000 0.12710  0.43750  0.63310  Biso   1.000  C
  C62      1.0000 0.06410  0.39940  0.68880  Biso   1.000  C
  C63      1.0000 0.75510  0.04310  0.45230  Biso   1.000  C
  C64      1.0000 0.87350  0.04460  0.45030  Biso   1.000  C
  C65      1.0000 0.50000  0.16440  0.00380  Biso   1.000  C
  C66      1.0000 0.50000  0.31030  0.93370  Biso   1.000  C
  C67      1.0000 0.50000  0.23840  0.79810  Biso   1.000  C
  C68      1.0000 0.50000  0.08560  0.86740  Biso   1.000  C
  C69      1.0000 0.50000  0.83560  0.99620  Biso   1.000  C
  C70      1.0000 0.50000  0.68970  0.06630  Biso   1.000  C
  C71      1.0000 0.50000  0.76160  0.20190  Biso   1.000  C
  C72      1.0000 0.50000  0.91440  0.13260  Biso   1.000  C
  C73      1.0000 0.50000  0.33560  0.50380  Biso   1.000  C
  C74      1.0000 0.50000  0.18970  0.43370  Biso   1.000  C
  C75      1.0000 0.50000  0.26160  0.29810  Biso   1.000  C
  C76      1.0000 0.50000  0.41440  0.36740  Biso   1.000  C
  C77      1.0000 0.50000  0.66440  0.49620  Biso   1.000  C
  C78      1.0000 0.50000  0.81030  0.56630  Biso   1.000  C
  C79      1.0000 0.50000  0.73840  0.70190  Biso   1.000  C
  C80      1.0000 0.50000  0.58560  0.63260  Biso   1.000  C
  C81      1.0000 0.93590  0.50000  0.00000  Biso   1.000  C
  C82      1.0000 0.06410  0.00000  0.50000  Biso   1.000  C
  C83      1.0000 0.06410  0.50000  0.00000  Biso   1.000  C
  C84      1.0000 0.93590  0.00000  0.50000  Biso   1.000  C
  N1       1.0000 0.76820  0.19780  0.90230  Biso   1.000  N
  N2       1.0000 0.30500  0.10792  0.18530  Biso   1.000  N
  N3       1.0000 0.76820  0.80220  0.09770  Biso   1.000  N
  N4       1.0000 0.30500  0.89208  0.81470  Biso   1.000  N
  N5       1.0000 0.23180  0.30220  0.40230  Biso   1.000  N
  N6       1.0000 0.69500  0.39208  0.68530  Biso   1.000  N
  N7       1.0000 0.23180  0.69780  0.59770  Biso   1.000  N
  N8       1.0000 0.69500  0.60792  0.31470  Biso   1.000  N
  N9       1.0000 0.23180  0.80220  0.09770  Biso   1.000  N
  N10      1.0000 0.69500  0.89208  0.81470  Biso   1.000  N
  N11      1.0000 0.23180  0.19780  0.90230  Biso   1.000  N
  N12      1.0000 0.69500  0.10792  0.18530  Biso   1.000  N
  N13      1.0000 0.76820  0.69780  0.59770  Biso   1.000  N
  N14      1.0000 0.30500  0.60792  0.31470  Biso   1.000  N
  N15      1.0000 0.76820  0.30220  0.40230  Biso   1.000  N
  N16      1.0000 0.30500  0.39208  0.68530  Biso   1.000  N
  N17      1.0000 0.50000  0.14850  0.06620  Biso   1.000  N
  N18      1.0000 0.50000  0.37830  0.95000  Biso   1.000  N
  N19      1.0000 0.50000  0.27060  0.74060  Biso   1.000  N
  N20      1.0000 0.50000  0.01910  0.84860  Biso   1.000  N
  N21      1.0000 0.50000  0.85150  0.93380  Biso   1.000  N
  N22      1.0000 0.50000  0.62170  0.05000  Biso   1.000  N
  N23      1.0000 0.50000  0.72940  0.25940  Biso   1.000  N
  N24      1.0000 0.50000  0.98090  0.15140  Biso   1.000  N
  N25      1.0000 0.50000  0.35150  0.56620  Biso   1.000  N
  N26      1.0000 0.50000  0.12170  0.45000  Biso   1.000  N
  N27      1.0000 0.50000  0.22940  0.24060  Biso   1.000  N
  N28      1.0000 0.50000  0.48090  0.34860  Biso   1.000  N
  N29      1.0000 0.50000  0.64850  0.43380  Biso   1.000  N
  N30      1.0000 0.50000  0.87830  0.55000  Biso   1.000  N
  N31      1.0000 0.50000  0.77060  0.75940  Biso   1.000  N
  N32      1.0000 0.50000  0.51910  0.65140  Biso   1.000  N
  N33      1.0000 0.69480  0.50000  0.00000  Biso   1.000  N
  N34      1.0000 0.30520  0.00000  0.50000  Biso   1.000  N
  N35      1.0000 0.30520  0.50000  0.00000  Biso   1.000  N
  N36      1.0000 0.69480  0.00000  0.50000  Biso   1.000  N
  O1       1.0000 0.50000  0.06220  0.29660  Biso   1.000  O
  O2       1.0000 0.50000  0.56760  0.88951  Biso   1.000  O
  O3       1.0000 0.50000  0.93780  0.70340  Biso   1.000  O
  O4       1.0000 0.50000  0.43240  0.11049  Biso   1.000  O
  O5       1.0000 0.50000  0.43780  0.79660  Biso   1.000  O
  O6       1.0000 0.50000  0.93240  0.38951  Biso   1.000  O
  O7       1.0000 0.50000  0.56220  0.20340  Biso   1.000  O
  O8       1.0000 0.50000  0.06760  0.61049  Biso   1.000  O
