data_image0
_cell_length_a       11.406
_cell_length_b       12.453
_cell_length_c       13.759
_cell_angle_alpha    110.452
_cell_angle_beta     101.878
_cell_angle_gamma    108.214

_symmetry_space_group_name_H-M    P 1
_symmetry_int_tables_number       1

loop_
  _symmetry_equiv_pos_as_xyz
  'x, y, z'

loop_
  _atom_site_label
  _atom_site_occupancy
  _atom_site_fract_x
  _atom_site_fract_y
  _atom_site_fract_z
  _atom_site_thermal_displace_type
  _atom_site_B_iso_or_equiv
  _atom_site_type_symbol
  Cu1      1.0000 0.50000  0.50000  0.50000  Biso   1.000  Cu
  Cu2      1.0000 0.50000  0.00000  0.00000  Biso   1.000  Cu
  Cu3      1.0000 0.50000  0.50000  0.00000  Biso   1.000  Cu
  H1       1.0000 0.53330  0.28550  0.53200  Biso   1.000  H
  H2       1.0000 0.41680  0.10560  0.54700  Biso   1.000  H
  H3       1.0000 0.11720  0.21470  0.54710  Biso   1.000  H
  H4       1.0000 0.24050  0.38700  0.52480  Biso   1.000  H
  H5       1.0000 0.51330  0.17120  0.89810  Biso   1.000  H
  H6       1.0000 0.40350  0.18370  0.74280  Biso   1.000  H
  H7       1.0000 0.13070  0.82980  0.64020  Biso   1.000  H
  H8       1.0000 0.24760  0.82600  0.79560  Biso   1.000  H
  H9       1.0000 0.78320  0.18030  0.04040  Biso   1.000  H
  H10      1.0000 0.94150  0.18070  0.96160  Biso   1.000  H
  H11      1.0000 0.70000  0.82220  0.73120  Biso   1.000  H
  H12      1.0000 0.54360  0.83380  0.81470  Biso   1.000  H
  H13      1.0000 0.35560  0.29280  0.05500  Biso   1.000  H
  H14      1.0000 0.16050  0.10960  0.97340  Biso   1.000  H
  H15      1.0000 0.05320  0.19820  0.72290  Biso   1.000  H
  H16      1.0000 0.25140  0.37410  0.80740  Biso   1.000  H
  H17      1.0000 0.46670  0.71450  0.46800  Biso   1.000  H
  H18      1.0000 0.58320  0.89440  0.45300  Biso   1.000  H
  H19      1.0000 0.88280  0.78530  0.45290  Biso   1.000  H
  H20      1.0000 0.75950  0.61300  0.47520  Biso   1.000  H
  H21      1.0000 0.48670  0.82880  0.10190  Biso   1.000  H
  H22      1.0000 0.59650  0.81630  0.25720  Biso   1.000  H
  H23      1.0000 0.86930  0.17020  0.35980  Biso   1.000  H
  H24      1.0000 0.75240  0.17400  0.20440  Biso   1.000  H
  H25      1.0000 0.21680  0.81970  0.95960  Biso   1.000  H
  H26      1.0000 0.05850  0.81930  0.03840  Biso   1.000  H
  H27      1.0000 0.30000  0.17780  0.26880  Biso   1.000  H
  H28      1.0000 0.45640  0.16620  0.18530  Biso   1.000  H
  H29      1.0000 0.64440  0.70720  0.94500  Biso   1.000  H
  H30      1.0000 0.83950  0.89040  0.02660  Biso   1.000  H
  H31      1.0000 0.94680  0.80180  0.27710  Biso   1.000  H
  H32      1.0000 0.74860  0.62590  0.19260  Biso   1.000  H
  C1       1.0000 0.44680  0.26950  0.53360  Biso   1.000  C
  C2       1.0000 0.37910  0.16290  0.54370  Biso   1.000  C
  C3       1.0000 0.25270  0.14190  0.54900  Biso   1.000  C
  C4       1.0000 0.20210  0.22620  0.54290  Biso   1.000  C
  C5       1.0000 0.27680  0.32940  0.53040  Biso   1.000  C
  C6       1.0000 0.43490  0.10050  0.84430  Biso   1.000  C
  C7       1.0000 0.37020  0.10920  0.75210  Biso   1.000  C
  C8       1.0000 0.25550  0.00580  0.67370  Biso   1.000  C
  C9       1.0000 0.21010  0.90080  0.69190  Biso   1.000  C
  C10      1.0000 0.27990  0.89940  0.78470  Biso   1.000  C
  C11      1.0000 0.76560  0.10690  0.97640  Biso   1.000  C
  C12      1.0000 0.86050  0.10770  0.93030  Biso   1.000  C
  C13      1.0000 0.83850  0.00220  0.83780  Biso   1.000  C
  C14      1.0000 0.71840  0.89710  0.79420  Biso   1.000  C
  C15      1.0000 0.62630  0.90480  0.84540  Biso   1.000  C
  C16      1.0000 0.29440  0.27220  0.98590  Biso   1.000  C
  C17      1.0000 0.17770  0.16300  0.93800  Biso   1.000  C
  C18      1.0000 0.08750  0.13330  0.83840  Biso   1.000  C
  C19      1.0000 0.11490  0.21470  0.79010  Biso   1.000  C
  C20      1.0000 0.23250  0.31940  0.84150  Biso   1.000  C
  C21      1.0000 0.75700  0.60830  0.69750  Biso   1.000  C
  C22      1.0000 0.61870  0.42000  0.81900  Biso   1.000  C
  C23      1.0000 0.75300  0.41600  0.84200  Biso   1.000  C
  C24      1.0000 0.55320  0.73050  0.46640  Biso   1.000  C
  C25      1.0000 0.62090  0.83710  0.45630  Biso   1.000  C
  C26      1.0000 0.74730  0.85810  0.45100  Biso   1.000  C
  C27      1.0000 0.79790  0.77380  0.45710  Biso   1.000  C
  C28      1.0000 0.72320  0.67060  0.46960  Biso   1.000  C
  C29      1.0000 0.56510  0.89950  0.15570  Biso   1.000  C
  C30      1.0000 0.62980  0.89080  0.24790  Biso   1.000  C
  C31      1.0000 0.74450  0.99420  0.32630  Biso   1.000  C
  C32      1.0000 0.78990  0.09920  0.30810  Biso   1.000  C
  C33      1.0000 0.72010  0.10060  0.21530  Biso   1.000  C
  C34      1.0000 0.23440  0.89310  0.02360  Biso   1.000  C
  C35      1.0000 0.13950  0.89230  0.06970  Biso   1.000  C
  C36      1.0000 0.16150  0.99780  0.16220  Biso   1.000  C
  C37      1.0000 0.28160  0.10290  0.20580  Biso   1.000  C
  C38      1.0000 0.37370  0.09520  0.15460  Biso   1.000  C
  C39      1.0000 0.70560  0.72780  0.01410  Biso   1.000  C
  C40      1.0000 0.82230  0.83700  0.06200  Biso   1.000  C
  C41      1.0000 0.91250  0.86670  0.16160  Biso   1.000  C
  C42      1.0000 0.88510  0.78530  0.20990  Biso   1.000  C
  C43      1.0000 0.76750  0.68060  0.15850  Biso   1.000  C
  C44      1.0000 0.24300  0.39170  0.30250  Biso   1.000  C
  C45      1.0000 0.38130  0.58000  0.18100  Biso   1.000  C
  C46      1.0000 0.24700  0.58400  0.15800  Biso   1.000  C
  S1       1.0000 0.15605  0.00328  0.55553  Biso   1.000  S
  S2       1.0000 0.94621  0.98715  0.76378  Biso   1.000  S
  S3       1.0000 0.90320  0.68230  0.78910  Biso   1.000  S
  S4       1.0000 0.35679  0.63877  0.86908  Biso   1.000  S
  S5       1.0000 0.84395  0.99672  0.44447  Biso   1.000  S
  S6       1.0000 0.05379  0.01285  0.23622  Biso   1.000  S
  S7       1.0000 0.09680  0.31770  0.21090  Biso   1.000  S
  S8       1.0000 0.64321  0.36123  0.13092  Biso   1.000  S
  N1       1.0000 0.39690  0.35080  0.52590  Biso   1.000  N
  N2       1.0000 0.39270  0.99780  0.86150  Biso   1.000  N
  N3       1.0000 0.64750  0.00680  0.93580  Biso   1.000  N
  N4       1.0000 0.32360  0.34940  0.93830  Biso   1.000  N
  N5       1.0000 0.65210  0.55700  0.63210  Biso   1.000  N
  N6       1.0000 0.60310  0.64920  0.47410  Biso   1.000  N
  N7       1.0000 0.60730  0.00220  0.13850  Biso   1.000  N
  N8       1.0000 0.35250  0.99320  0.06420  Biso   1.000  N
  N9       1.0000 0.67640  0.65060  0.06170  Biso   1.000  N
  N10      1.0000 0.34790  0.44300  0.36790  Biso   1.000  N
  O1       1.0000 0.39660  0.61170  0.96390  Biso   1.000  O
  O2       1.0000 0.40500  0.77530  0.90740  Biso   1.000  O
  O3       1.0000 0.41860  0.58890  0.78850  Biso   1.000  O
  O4       1.0000 0.21390  0.58010  0.81660  Biso   1.000  O
  O5       1.0000 0.50840  0.43540  0.83880  Biso   1.000  O
  O6       1.0000 0.60340  0.38830  0.03610  Biso   1.000  O
  O7       1.0000 0.59500  0.22470  0.09260  Biso   1.000  O
  O8       1.0000 0.58140  0.41110  0.21150  Biso   1.000  O
  O9       1.0000 0.78610  0.41990  0.18340  Biso   1.000  O
  O10      1.0000 0.49160  0.56460  0.16120  Biso   1.000  O
