data_image0
_cell_length_a       5.3968
_cell_length_b       11.4886
_cell_length_c       13.4233
_cell_angle_alpha    90.67
_cell_angle_beta     94.9
_cell_angle_gamma    91.238

_symmetry_space_group_name_H-M    P 1
_symmetry_int_tables_number       1

loop_
  _symmetry_equiv_pos_as_xyz
  'x, y, z'

loop_
  _atom_site_label
  _atom_site_occupancy
  _atom_site_fract_x
  _atom_site_fract_y
  _atom_site_fract_z
  _atom_site_thermal_displace_type
  _atom_site_B_iso_or_equiv
  _atom_site_type_symbol
  Li1      1.0000 0.68730  0.98790  0.93500  Biso   1.000  Li
  Li2      1.0000 0.30570  0.48610  0.55970  Biso   1.000  Li
  Li3      1.0000 0.31270  0.01210  0.06500  Biso   1.000  Li
  Li4      1.0000 0.69430  0.51390  0.44030  Biso   1.000  Li
  H1       1.0000 0.06790  0.18450  0.65500  Biso   1.000  H
  H2       1.0000 0.99500  0.04520  0.76880  Biso   1.000  H
  H3       1.0000 0.41310  0.20430  0.84640  Biso   1.000  H
  H4       1.0000 0.45980  0.34580  0.72970  Biso   1.000  H
  H5       1.0000 0.55730  0.73340  0.86780  Biso   1.000  H
  H6       1.0000 0.59550  0.59290  0.74860  Biso   1.000  H
  H7       1.0000 0.95040  0.66450  0.61420  Biso   1.000  H
  H8       1.0000 0.88400  0.80020  0.73410  Biso   1.000  H
  H9       1.0000 0.93210  0.81550  0.34500  Biso   1.000  H
  H10      1.0000 0.00500  0.95480  0.23120  Biso   1.000  H
  H11      1.0000 0.58690  0.79570  0.15360  Biso   1.000  H
  H12      1.0000 0.54020  0.65420  0.27030  Biso   1.000  H
  H13      1.0000 0.44270  0.26660  0.13220  Biso   1.000  H
  H14      1.0000 0.40450  0.40710  0.25140  Biso   1.000  H
  H15      1.0000 0.04960  0.33550  0.38580  Biso   1.000  H
  H16      1.0000 0.11600  0.19980  0.26590  Biso   1.000  H
  C1       1.0000 0.82460  0.37390  0.60250  Biso   1.000  C
  C2       1.0000 0.77280  0.28240  0.67920  Biso   1.000  C
  C3       1.0000 0.93190  0.19030  0.69270  Biso   1.000  C
  C4       1.0000 0.88790  0.10750  0.76220  Biso   1.000  C
  C5       1.0000 0.54630  0.19990  0.80700  Biso   1.000  C
  C6       1.0000 0.57370  0.28620  0.73730  Biso   1.000  C
  C7       1.0000 0.16580  0.87060  0.89700  Biso   1.000  C
  C8       1.0000 0.21270  0.78260  0.81580  Biso   1.000  C
  C9       1.0000 0.42930  0.71950  0.81790  Biso   1.000  C
  C10      1.0000 0.45150  0.63620  0.74510  Biso   1.000  C
  C11      1.0000 0.07210  0.67710  0.66680  Biso   1.000  C
  C12      1.0000 0.03190  0.75970  0.73800  Biso   1.000  C
  C13      1.0000 0.17540  0.62610  0.39750  Biso   1.000  C
  C14      1.0000 0.22720  0.71760  0.32080  Biso   1.000  C
  C15      1.0000 0.06810  0.80970  0.30730  Biso   1.000  C
  C16      1.0000 0.11210  0.89250  0.23780  Biso   1.000  C
  C17      1.0000 0.45370  0.80010  0.19300  Biso   1.000  C
  C18      1.0000 0.42630  0.71380  0.26270  Biso   1.000  C
  C19      1.0000 0.83420  0.12940  0.10300  Biso   1.000  C
  C20      1.0000 0.78730  0.21740  0.18420  Biso   1.000  C
  C21      1.0000 0.57070  0.28050  0.18210  Biso   1.000  C
  C22      1.0000 0.54850  0.36380  0.25490  Biso   1.000  C
  C23      1.0000 0.92790  0.32290  0.33320  Biso   1.000  C
  C24      1.0000 0.96810  0.24030  0.26200  Biso   1.000  C
  N1       1.0000 0.69990  0.11090  0.82110  Biso   1.000  N
  N2       1.0000 0.27850  0.61340  0.66920  Biso   1.000  N
  N3       1.0000 0.30010  0.88910  0.17890  Biso   1.000  N
  N4       1.0000 0.72150  0.38660  0.33080  Biso   1.000  N
  O1       1.0000 0.03820  0.37980  0.57530  Biso   1.000  O
  O2       1.0000 0.64630  0.43750  0.57110  Biso   1.000  O
  O3       1.0000 0.94600  0.88760  0.91150  Biso   1.000  O
  O4       1.0000 0.35330  0.92030  0.94290  Biso   1.000  O
  O5       1.0000 0.96180  0.62020  0.42470  Biso   1.000  O
  O6       1.0000 0.35370  0.56250  0.42890  Biso   1.000  O
  O7       1.0000 0.05400  0.11240  0.08850  Biso   1.000  O
  O8       1.0000 0.64670  0.07970  0.05710  Biso   1.000  O
