data_image0
_cell_length_a       5.4733
_cell_length_b       11.7304
_cell_length_c       13.458
_cell_angle_alpha    90
_cell_angle_beta     90
_cell_angle_gamma    101.166

_symmetry_space_group_name_H-M    P 1
_symmetry_int_tables_number       1

loop_
  _symmetry_equiv_pos_as_xyz
  'x, y, z'

loop_
  _atom_site_label
  _atom_site_occupancy
  _atom_site_fract_x
  _atom_site_fract_y
  _atom_site_fract_z
  _atom_site_thermal_displace_type
  _atom_site_B_iso_or_equiv
  _atom_site_type_symbol
  Li1      1.0000 0.92250  0.73970  0.01620  Biso   1.000  Li
  Li2      1.0000 0.55790  0.76040  0.15560  Biso   1.000  Li
  Li3      1.0000 0.07750  0.26030  0.51620  Biso   1.000  Li
  Li4      1.0000 0.44210  0.23960  0.65560  Biso   1.000  Li
  H1       1.0000 0.39170  0.94850  0.34220  Biso   1.000  H
  H2       1.0000 0.38040  0.09790  0.45180  Biso   1.000  H
  H3       1.0000 0.79440  0.17120  0.32200  Biso   1.000  H
  H4       1.0000 0.78390  0.02270  0.20900  Biso   1.000  H
  H5       1.0000 0.90430  0.45260  0.32790  Biso   1.000  H
  H6       1.0000 0.87660  0.59650  0.21620  Biso   1.000  H
  H7       1.0000 0.29710  0.52130  0.46520  Biso   1.000  H
  H8       1.0000 0.29730  0.66940  0.35210  Biso   1.000  H
  H9       1.0000 0.60830  0.05150  0.84220  Biso   1.000  H
  H10      1.0000 0.61960  0.90210  0.95180  Biso   1.000  H
  H11      1.0000 0.20560  0.82880  0.82200  Biso   1.000  H
  H12      1.0000 0.21610  0.97730  0.70900  Biso   1.000  H
  H13      1.0000 0.09570  0.54740  0.82790  Biso   1.000  H
  H14      1.0000 0.12340  0.40350  0.71620  Biso   1.000  H
  H15      1.0000 0.70290  0.47870  0.96520  Biso   1.000  H
  H16      1.0000 0.70270  0.33060  0.85210  Biso   1.000  H
  C1       1.0000 0.09890  0.87020  0.18920  Biso   1.000  C
  C2       1.0000 0.08710  0.96720  0.26320  Biso   1.000  C
  C3       1.0000 0.26720  0.99200  0.33690  Biso   1.000  C
  C4       1.0000 0.25930  0.08250  0.40250  Biso   1.000  C
  C5       1.0000 0.91470  0.12520  0.32630  Biso   1.000  C
  C6       1.0000 0.90690  0.03610  0.25760  Biso   1.000  C
  C7       1.0000 0.62370  0.37520  0.48470  Biso   1.000  C
  C8       1.0000 0.60240  0.46910  0.40960  Biso   1.000  C
  C9       1.0000 0.77710  0.49450  0.33380  Biso   1.000  C
  C10      1.0000 0.76040  0.58210  0.26740  Biso   1.000  C
  C11      1.0000 0.41810  0.53560  0.41590  Biso   1.000  C
  C12      1.0000 0.41880  0.62420  0.34660  Biso   1.000  C
  C13      1.0000 0.90110  0.12980  0.68920  Biso   1.000  C
  C14      1.0000 0.91290  0.03280  0.76320  Biso   1.000  C
  C15      1.0000 0.73280  0.00800  0.83690  Biso   1.000  C
  C16      1.0000 0.74070  0.91750  0.90250  Biso   1.000  C
  C17      1.0000 0.08530  0.87480  0.82630  Biso   1.000  C
  C18      1.0000 0.09310  0.96390  0.75760  Biso   1.000  C
  C19      1.0000 0.37630  0.62480  0.98470  Biso   1.000  C
  C20      1.0000 0.39760  0.53090  0.90960  Biso   1.000  C
  C21      1.0000 0.22290  0.50550  0.83380  Biso   1.000  C
  C22      1.0000 0.23960  0.41790  0.76740  Biso   1.000  C
  C23      1.0000 0.58190  0.46440  0.91590  Biso   1.000  C
  C24      1.0000 0.58120  0.37580  0.84660  Biso   1.000  C
  N1       1.0000 0.08580  0.14860  0.39835  Biso   1.000  N
  N2       1.0000 0.58510  0.64780  0.27255  Biso   1.000  N
  N3       1.0000 0.91420  0.85140  0.89835  Biso   1.000  N
  N4       1.0000 0.41490  0.35220  0.77255  Biso   1.000  N
  O1       1.0000 0.90940  0.83526  0.13615  Biso   1.000  O
  O2       1.0000 0.29660  0.83392  0.18627  Biso   1.000  O
  O3       1.0000 0.43220  0.33501  0.53543  Biso   1.000  O
  O4       1.0000 0.82830  0.34610  0.49073  Biso   1.000  O
  O5       1.0000 0.09060  0.16474  0.63615  Biso   1.000  O
  O6       1.0000 0.70340  0.16608  0.68627  Biso   1.000  O
  O7       1.0000 0.56780  0.66499  0.03543  Biso   1.000  O
  O8       1.0000 0.17170  0.65390  0.99073  Biso   1.000  O
