data_image0
_cell_length_a       14.532
_cell_length_b       18.184
_cell_length_c       25.037
_cell_angle_alpha    90
_cell_angle_beta     90
_cell_angle_gamma    90

_symmetry_space_group_name_H-M    P 1
_symmetry_int_tables_number       1

loop_
  _symmetry_equiv_pos_as_xyz
  'x, y, z'

loop_
  _atom_site_label
  _atom_site_occupancy
  _atom_site_fract_x
  _atom_site_fract_y
  _atom_site_fract_z
  _atom_site_thermal_displace_type
  _atom_site_B_iso_or_equiv
  _atom_site_type_symbol
  Zn1      1.0000 0.53536  0.94315  0.64808  Biso   1.000  Zn
  Zn2      1.0000 0.46464  0.55685  0.64808  Biso   1.000  Zn
  Zn3      1.0000 0.03536  0.55685  0.14808  Biso   1.000  Zn
  Zn4      1.0000 0.96464  0.94315  0.14808  Biso   1.000  Zn
  Zn5      1.0000 0.50000  0.75000  0.64837  Biso   1.000  Zn
  Zn6      1.0000 0.00000  0.75000  0.14837  Biso   1.000  Zn
  H1       1.0000 0.47880  0.06600  0.57460  Biso   1.000  H
  H2       1.0000 0.46280  0.19150  0.57350  Biso   1.000  H
  H3       1.0000 0.55400  0.19840  0.72360  Biso   1.000  H
  H4       1.0000 0.56950  0.07220  0.72110  Biso   1.000  H
  H5       1.0000 0.63090  0.52150  0.50870  Biso   1.000  H
  H6       1.0000 0.71540  0.52460  0.43060  Biso   1.000  H
  H7       1.0000 0.73100  0.74420  0.43970  Biso   1.000  H
  H8       1.0000 0.64660  0.74230  0.51810  Biso   1.000  H
  H9       1.0000 0.82180  0.53150  0.37590  Biso   1.000  H
  H10      1.0000 0.76540  0.73790  0.35640  Biso   1.000  H
  H11      1.0000 0.83940  0.91740  0.67160  Biso   1.000  H
  H12      1.0000 0.98420  0.87010  0.67490  Biso   1.000  H
  H13      1.0000 0.88650  0.66970  0.65110  Biso   1.000  H
  H14      1.0000 0.73940  0.71760  0.64340  Biso   1.000  H
  H15      1.0000 0.90090  0.53110  0.29740  Biso   1.000  H
  H16      1.0000 0.85950  0.73880  0.28270  Biso   1.000  H
  H17      1.0000 0.52120  0.43400  0.57460  Biso   1.000  H
  H18      1.0000 0.53720  0.30850  0.57350  Biso   1.000  H
  H19      1.0000 0.44600  0.30160  0.72360  Biso   1.000  H
  H20      1.0000 0.43050  0.42780  0.72110  Biso   1.000  H
  H21      1.0000 0.36910  0.97850  0.50870  Biso   1.000  H
  H22      1.0000 0.28460  0.97540  0.43060  Biso   1.000  H
  H23      1.0000 0.26900  0.75580  0.43970  Biso   1.000  H
  H24      1.0000 0.35340  0.75770  0.51810  Biso   1.000  H
  H25      1.0000 0.17820  0.96850  0.37590  Biso   1.000  H
  H26      1.0000 0.23460  0.76210  0.35640  Biso   1.000  H
  H27      1.0000 0.16060  0.58260  0.67160  Biso   1.000  H
  H28      1.0000 0.01580  0.62990  0.67490  Biso   1.000  H
  H29      1.0000 0.11350  0.83030  0.65110  Biso   1.000  H
  H30      1.0000 0.26060  0.78240  0.64340  Biso   1.000  H
  H31      1.0000 0.09910  0.96890  0.29740  Biso   1.000  H
  H32      1.0000 0.14050  0.76120  0.28270  Biso   1.000  H
  H33      1.0000 0.97880  0.43400  0.07460  Biso   1.000  H
  H34      1.0000 0.96280  0.30850  0.07350  Biso   1.000  H
  H35      1.0000 0.05400  0.30160  0.22360  Biso   1.000  H
  H36      1.0000 0.06950  0.42780  0.22110  Biso   1.000  H
  H37      1.0000 0.13090  0.97850  0.00870  Biso   1.000  H
  H38      1.0000 0.21540  0.97540  0.93060  Biso   1.000  H
  H39      1.0000 0.23100  0.75580  0.93970  Biso   1.000  H
  H40      1.0000 0.14660  0.75770  0.01810  Biso   1.000  H
  H41      1.0000 0.32180  0.96850  0.87590  Biso   1.000  H
  H42      1.0000 0.26540  0.76210  0.85640  Biso   1.000  H
  H43      1.0000 0.33940  0.58260  0.17160  Biso   1.000  H
  H44      1.0000 0.48420  0.62990  0.17490  Biso   1.000  H
  H45      1.0000 0.38650  0.83030  0.15110  Biso   1.000  H
  H46      1.0000 0.23940  0.78240  0.14340  Biso   1.000  H
  H47      1.0000 0.40090  0.96890  0.79740  Biso   1.000  H
  H48      1.0000 0.35950  0.76120  0.78270  Biso   1.000  H
  H49      1.0000 0.02120  0.06600  0.07460  Biso   1.000  H
  H50      1.0000 0.03720  0.19150  0.07350  Biso   1.000  H
  H51      1.0000 0.94600  0.19840  0.22360  Biso   1.000  H
  H52      1.0000 0.93050  0.07220  0.22110  Biso   1.000  H
  H53      1.0000 0.86910  0.52150  0.00870  Biso   1.000  H
  H54      1.0000 0.78460  0.52460  0.93060  Biso   1.000  H
  H55      1.0000 0.76900  0.74420  0.93970  Biso   1.000  H
  H56      1.0000 0.85340  0.74230  0.01810  Biso   1.000  H
  H57      1.0000 0.67820  0.53150  0.87590  Biso   1.000  H
  H58      1.0000 0.73460  0.73790  0.85640  Biso   1.000  H
  H59      1.0000 0.66060  0.91740  0.17160  Biso   1.000  H
  H60      1.0000 0.51580  0.87010  0.17490  Biso   1.000  H
  H61      1.0000 0.61350  0.66970  0.15110  Biso   1.000  H
  H62      1.0000 0.76060  0.71760  0.14340  Biso   1.000  H
  H63      1.0000 0.59910  0.53110  0.79740  Biso   1.000  H
  H64      1.0000 0.64050  0.73880  0.78270  Biso   1.000  H
  C1       1.0000 0.49410  0.09290  0.60490  Biso   1.000  C
  C2       1.0000 0.48400  0.16830  0.60430  Biso   1.000  C
  C3       1.0000 0.50490  0.20950  0.64860  Biso   1.000  C
  C4       1.0000 0.53800  0.17260  0.69290  Biso   1.000  C
  C5       1.0000 0.54720  0.09660  0.69110  Biso   1.000  C
  C6       1.0000 0.62680  0.63240  0.52010  Biso   1.000  C
  C7       1.0000 0.65000  0.56630  0.49460  Biso   1.000  C
  C8       1.0000 0.70170  0.56830  0.44820  Biso   1.000  C
  C9       1.0000 0.73350  0.63480  0.42720  Biso   1.000  C
  C10      1.0000 0.71100  0.69950  0.45360  Biso   1.000  C
  C11      1.0000 0.65930  0.69860  0.50030  Biso   1.000  C
  C12      1.0000 0.78800  0.63550  0.37710  Biso   1.000  C
  C13      1.0000 0.82720  0.57540  0.35710  Biso   1.000  C
  C14      1.0000 0.79610  0.69510  0.34670  Biso   1.000  C
  C15      1.0000 0.67820  0.85340  0.65120  Biso   1.000  C
  C16      1.0000 0.77380  0.82280  0.65570  Biso   1.000  C
  C17      1.0000 0.84830  0.86730  0.66610  Biso   1.000  C
  C18      1.0000 0.93500  0.83870  0.66830  Biso   1.000  C
  C19      1.0000 0.95200  0.76510  0.66110  Biso   1.000  C
  C20      1.0000 0.87770  0.72030  0.65370  Biso   1.000  C
  C21      1.0000 0.78880  0.74890  0.64990  Biso   1.000  C
  C22      1.0000 0.93690  0.63240  0.22920  Biso   1.000  C
  C23      1.0000 0.88760  0.63430  0.28060  Biso   1.000  C
  C24      1.0000 0.87580  0.57520  0.30940  Biso   1.000  C
  C25      1.0000 0.84980  0.69460  0.30040  Biso   1.000  C
  C26      1.0000 0.56750  0.63170  0.56900  Biso   1.000  C
  C27      1.0000 0.50590  0.40710  0.60490  Biso   1.000  C
  C28      1.0000 0.51600  0.33170  0.60430  Biso   1.000  C
  C29      1.0000 0.49510  0.29050  0.64860  Biso   1.000  C
  C30      1.0000 0.46200  0.32740  0.69290  Biso   1.000  C
  C31      1.0000 0.45280  0.40340  0.69110  Biso   1.000  C
  C32      1.0000 0.37320  0.86760  0.52010  Biso   1.000  C
  C33      1.0000 0.35000  0.93370  0.49460  Biso   1.000  C
  C34      1.0000 0.29830  0.93170  0.44820  Biso   1.000  C
  C35      1.0000 0.26650  0.86520  0.42720  Biso   1.000  C
  C36      1.0000 0.28900  0.80050  0.45360  Biso   1.000  C
  C37      1.0000 0.34070  0.80140  0.50030  Biso   1.000  C
  C38      1.0000 0.21200  0.86450  0.37710  Biso   1.000  C
  C39      1.0000 0.17280  0.92460  0.35710  Biso   1.000  C
  C40      1.0000 0.20390  0.80490  0.34670  Biso   1.000  C
  C41      1.0000 0.32180  0.64660  0.65120  Biso   1.000  C
  C42      1.0000 0.22620  0.67720  0.65570  Biso   1.000  C
  C43      1.0000 0.15170  0.63270  0.66610  Biso   1.000  C
  C44      1.0000 0.06500  0.66130  0.66830  Biso   1.000  C
  C45      1.0000 0.04800  0.73490  0.66110  Biso   1.000  C
  C46      1.0000 0.12230  0.77970  0.65370  Biso   1.000  C
  C47      1.0000 0.21120  0.75110  0.64990  Biso   1.000  C
  C48      1.0000 0.06310  0.86760  0.22920  Biso   1.000  C
  C49      1.0000 0.11240  0.86570  0.28060  Biso   1.000  C
  C50      1.0000 0.12420  0.92480  0.30940  Biso   1.000  C
  C51      1.0000 0.15020  0.80540  0.30040  Biso   1.000  C
  C52      1.0000 0.43250  0.86830  0.56900  Biso   1.000  C
  C53      1.0000 0.99410  0.40710  0.10490  Biso   1.000  C
  C54      1.0000 0.98400  0.33170  0.10430  Biso   1.000  C
  C55      1.0000 0.00490  0.29050  0.14860  Biso   1.000  C
  C56      1.0000 0.03800  0.32740  0.19290  Biso   1.000  C
  C57      1.0000 0.04720  0.40340  0.19110  Biso   1.000  C
  C58      1.0000 0.12680  0.86760  0.02010  Biso   1.000  C
  C59      1.0000 0.15000  0.93370  0.99460  Biso   1.000  C
  C60      1.0000 0.20170  0.93170  0.94820  Biso   1.000  C
  C61      1.0000 0.23350  0.86520  0.92720  Biso   1.000  C
  C62      1.0000 0.21100  0.80050  0.95360  Biso   1.000  C
  C63      1.0000 0.15930  0.80140  0.00030  Biso   1.000  C
  C64      1.0000 0.28800  0.86450  0.87710  Biso   1.000  C
  C65      1.0000 0.32720  0.92460  0.85710  Biso   1.000  C
  C66      1.0000 0.29610  0.80490  0.84670  Biso   1.000  C
  C67      1.0000 0.17820  0.64660  0.15120  Biso   1.000  C
  C68      1.0000 0.27380  0.67720  0.15570  Biso   1.000  C
  C69      1.0000 0.34830  0.63270  0.16610  Biso   1.000  C
  C70      1.0000 0.43500  0.66130  0.16830  Biso   1.000  C
  C71      1.0000 0.45200  0.73490  0.16110  Biso   1.000  C
  C72      1.0000 0.37770  0.77970  0.15370  Biso   1.000  C
  C73      1.0000 0.28880  0.75110  0.14990  Biso   1.000  C
  C74      1.0000 0.43690  0.86760  0.72920  Biso   1.000  C
  C75      1.0000 0.38760  0.86570  0.78060  Biso   1.000  C
  C76      1.0000 0.37580  0.92480  0.80940  Biso   1.000  C
  C77      1.0000 0.34980  0.80540  0.80040  Biso   1.000  C
  C78      1.0000 0.06750  0.86830  0.06900  Biso   1.000  C
  C79      1.0000 0.00590  0.09290  0.10490  Biso   1.000  C
  C80      1.0000 0.01600  0.16830  0.10430  Biso   1.000  C
  C81      1.0000 0.99510  0.20950  0.14860  Biso   1.000  C
  C82      1.0000 0.96200  0.17260  0.19290  Biso   1.000  C
  C83      1.0000 0.95280  0.09660  0.19110  Biso   1.000  C
  C84      1.0000 0.87320  0.63240  0.02010  Biso   1.000  C
  C85      1.0000 0.85000  0.56630  0.99460  Biso   1.000  C
  C86      1.0000 0.79830  0.56830  0.94820  Biso   1.000  C
  C87      1.0000 0.76650  0.63480  0.92720  Biso   1.000  C
  C88      1.0000 0.78900  0.69950  0.95360  Biso   1.000  C
  C89      1.0000 0.84070  0.69860  0.00030  Biso   1.000  C
  C90      1.0000 0.71200  0.63550  0.87710  Biso   1.000  C
  C91      1.0000 0.67280  0.57540  0.85710  Biso   1.000  C
  C92      1.0000 0.70390  0.69510  0.84670  Biso   1.000  C
  C93      1.0000 0.82180  0.85340  0.15120  Biso   1.000  C
  C94      1.0000 0.72620  0.82280  0.15570  Biso   1.000  C
  C95      1.0000 0.65170  0.86730  0.16610  Biso   1.000  C
  C96      1.0000 0.56500  0.83870  0.16830  Biso   1.000  C
  C97      1.0000 0.54800  0.76510  0.16110  Biso   1.000  C
  C98      1.0000 0.62230  0.72030  0.15370  Biso   1.000  C
  C99      1.0000 0.71120  0.74890  0.14990  Biso   1.000  C
  C100     1.0000 0.56310  0.63240  0.72920  Biso   1.000  C
  C101     1.0000 0.61240  0.63430  0.78060  Biso   1.000  C
  C102     1.0000 0.62420  0.57520  0.80940  Biso   1.000  C
  C103     1.0000 0.65020  0.69460  0.80040  Biso   1.000  C
  C104     1.0000 0.93250  0.63170  0.06900  Biso   1.000  C
  N1       1.0000 0.52520  0.05720  0.64819  Biso   1.000  N
  N2       1.0000 0.47480  0.44280  0.64819  Biso   1.000  N
  N3       1.0000 0.02520  0.44280  0.14819  Biso   1.000  N
  N4       1.0000 0.97480  0.05720  0.14819  Biso   1.000  N
  O1       1.0000 0.66640  0.92060  0.65290  Biso   1.000  O
  O2       1.0000 0.97000  0.57400  0.21437  Biso   1.000  O
  O3       1.0000 0.53270  0.57220  0.58261  Biso   1.000  O
  O4       1.0000 0.55600  0.68880  0.59220  Biso   1.000  O
  O5       1.0000 0.61520  0.81460  0.64530  Biso   1.000  O
  O6       1.0000 0.94460  0.68760  0.20420  Biso   1.000  O
  O7       1.0000 0.33360  0.57940  0.65290  Biso   1.000  O
  O8       1.0000 0.03000  0.92600  0.21437  Biso   1.000  O
  O9       1.0000 0.46730  0.92780  0.58261  Biso   1.000  O
  O10      1.0000 0.44400  0.81120  0.59220  Biso   1.000  O
  O11      1.0000 0.38480  0.68540  0.64530  Biso   1.000  O
  O12      1.0000 0.05540  0.81240  0.20420  Biso   1.000  O
  O13      1.0000 0.16640  0.57940  0.15290  Biso   1.000  O
  O14      1.0000 0.47000  0.92600  0.71437  Biso   1.000  O
  O15      1.0000 0.03270  0.92780  0.08261  Biso   1.000  O
  O16      1.0000 0.05600  0.81120  0.09220  Biso   1.000  O
  O17      1.0000 0.11520  0.68540  0.14530  Biso   1.000  O
  O18      1.0000 0.44460  0.81240  0.70420  Biso   1.000  O
  O19      1.0000 0.83360  0.92060  0.15290  Biso   1.000  O
  O20      1.0000 0.53000  0.57400  0.71437  Biso   1.000  O
  O21      1.0000 0.96730  0.57220  0.08261  Biso   1.000  O
  O22      1.0000 0.94400  0.68880  0.09220  Biso   1.000  O
  O23      1.0000 0.88480  0.81460  0.14530  Biso   1.000  O
  O24      1.0000 0.55540  0.68760  0.70420  Biso   1.000  O
  Zn7      1.0000 0.96464  0.44315  0.85192  Biso   1.000  Zn
  Zn8      1.0000 0.03536  0.05685  0.85192  Biso   1.000  Zn
  Zn9      1.0000 0.46464  0.05685  0.35192  Biso   1.000  Zn
  Zn10     1.0000 0.53536  0.44315  0.35192  Biso   1.000  Zn
  Zn11     1.0000 0.00000  0.25000  0.85163  Biso   1.000  Zn
  Zn12     1.0000 0.50000  0.25000  0.35163  Biso   1.000  Zn
  H65      1.0000 0.02120  0.56600  0.92540  Biso   1.000  H
  H66      1.0000 0.03720  0.69150  0.92650  Biso   1.000  H
  H67      1.0000 0.94600  0.69840  0.77640  Biso   1.000  H
  H68      1.0000 0.93050  0.57220  0.77890  Biso   1.000  H
  H69      1.0000 0.86910  0.02150  0.99130  Biso   1.000  H
  H70      1.0000 0.78460  0.02460  0.06940  Biso   1.000  H
  H71      1.0000 0.76900  0.24420  0.06030  Biso   1.000  H
  H72      1.0000 0.85340  0.24230  0.98190  Biso   1.000  H
  H73      1.0000 0.67820  0.03150  0.12410  Biso   1.000  H
  H74      1.0000 0.73460  0.23790  0.14360  Biso   1.000  H
  H75      1.0000 0.66060  0.41740  0.82840  Biso   1.000  H
  H76      1.0000 0.51580  0.37010  0.82510  Biso   1.000  H
  H77      1.0000 0.61350  0.16970  0.84890  Biso   1.000  H
  H78      1.0000 0.76060  0.21760  0.85660  Biso   1.000  H
  H79      1.0000 0.59910  0.03110  0.20260  Biso   1.000  H
  H80      1.0000 0.64050  0.23880  0.21730  Biso   1.000  H
  H81      1.0000 0.97880  0.93400  0.92540  Biso   1.000  H
  H82      1.0000 0.96280  0.80850  0.92650  Biso   1.000  H
  H83      1.0000 0.05400  0.80160  0.77640  Biso   1.000  H
  H84      1.0000 0.06950  0.92780  0.77890  Biso   1.000  H
  H85      1.0000 0.13090  0.47850  0.99130  Biso   1.000  H
  H86      1.0000 0.21540  0.47540  0.06940  Biso   1.000  H
  H87      1.0000 0.23100  0.25580  0.06030  Biso   1.000  H
  H88      1.0000 0.14660  0.25770  0.98190  Biso   1.000  H
  H89      1.0000 0.32180  0.46850  0.12410  Biso   1.000  H
  H90      1.0000 0.26540  0.26210  0.14360  Biso   1.000  H
  H91      1.0000 0.33940  0.08260  0.82840  Biso   1.000  H
  H92      1.0000 0.48420  0.12990  0.82510  Biso   1.000  H
  H93      1.0000 0.38650  0.33030  0.84890  Biso   1.000  H
  H94      1.0000 0.23940  0.28240  0.85660  Biso   1.000  H
  H95      1.0000 0.40090  0.46890  0.20260  Biso   1.000  H
  H96      1.0000 0.35950  0.26120  0.21730  Biso   1.000  H
  H97      1.0000 0.52120  0.93400  0.42540  Biso   1.000  H
  H98      1.0000 0.53720  0.80850  0.42650  Biso   1.000  H
  H99      1.0000 0.44600  0.80160  0.27640  Biso   1.000  H
  H100     1.0000 0.43050  0.92780  0.27890  Biso   1.000  H
  H101     1.0000 0.36910  0.47850  0.49130  Biso   1.000  H
  H102     1.0000 0.28460  0.47540  0.56940  Biso   1.000  H
  H103     1.0000 0.26900  0.25580  0.56030  Biso   1.000  H
  H104     1.0000 0.35340  0.25770  0.48190  Biso   1.000  H
  H105     1.0000 0.17820  0.46850  0.62410  Biso   1.000  H
  H106     1.0000 0.23460  0.26210  0.64360  Biso   1.000  H
  H107     1.0000 0.16060  0.08260  0.32840  Biso   1.000  H
  H108     1.0000 0.01580  0.12990  0.32510  Biso   1.000  H
  H109     1.0000 0.11350  0.33030  0.34890  Biso   1.000  H
  H110     1.0000 0.26060  0.28240  0.35660  Biso   1.000  H
  H111     1.0000 0.09910  0.46890  0.70260  Biso   1.000  H
  H112     1.0000 0.14050  0.26120  0.71730  Biso   1.000  H
  H113     1.0000 0.47880  0.56600  0.42540  Biso   1.000  H
  H114     1.0000 0.46280  0.69150  0.42650  Biso   1.000  H
  H115     1.0000 0.55400  0.69840  0.27640  Biso   1.000  H
  H116     1.0000 0.56950  0.57220  0.27890  Biso   1.000  H
  H117     1.0000 0.63090  0.02150  0.49130  Biso   1.000  H
  H118     1.0000 0.71540  0.02460  0.56940  Biso   1.000  H
  H119     1.0000 0.73100  0.24420  0.56030  Biso   1.000  H
  H120     1.0000 0.64660  0.24230  0.48190  Biso   1.000  H
  H121     1.0000 0.82180  0.03150  0.62410  Biso   1.000  H
  H122     1.0000 0.76540  0.23790  0.64360  Biso   1.000  H
  H123     1.0000 0.83940  0.41740  0.32840  Biso   1.000  H
  H124     1.0000 0.98420  0.37010  0.32510  Biso   1.000  H
  H125     1.0000 0.88650  0.16970  0.34890  Biso   1.000  H
  H126     1.0000 0.73940  0.21760  0.35660  Biso   1.000  H
  H127     1.0000 0.90090  0.03110  0.70260  Biso   1.000  H
  H128     1.0000 0.85950  0.23880  0.71730  Biso   1.000  H
  C105     1.0000 0.00590  0.59290  0.89510  Biso   1.000  C
  C106     1.0000 0.01600  0.66830  0.89570  Biso   1.000  C
  C107     1.0000 0.99510  0.70950  0.85140  Biso   1.000  C
  C108     1.0000 0.96200  0.67260  0.80710  Biso   1.000  C
  C109     1.0000 0.95280  0.59660  0.80890  Biso   1.000  C
  C110     1.0000 0.87320  0.13240  0.97990  Biso   1.000  C
  C111     1.0000 0.85000  0.06630  0.00540  Biso   1.000  C
  C112     1.0000 0.79830  0.06830  0.05180  Biso   1.000  C
  C113     1.0000 0.76650  0.13480  0.07280  Biso   1.000  C
  C114     1.0000 0.78900  0.19950  0.04640  Biso   1.000  C
  C115     1.0000 0.84070  0.19860  0.99970  Biso   1.000  C
  C116     1.0000 0.71200  0.13550  0.12290  Biso   1.000  C
  C117     1.0000 0.67280  0.07540  0.14290  Biso   1.000  C
  C118     1.0000 0.70390  0.19510  0.15330  Biso   1.000  C
  C119     1.0000 0.82180  0.35340  0.84880  Biso   1.000  C
  C120     1.0000 0.72620  0.32280  0.84430  Biso   1.000  C
  C121     1.0000 0.65170  0.36730  0.83390  Biso   1.000  C
  C122     1.0000 0.56500  0.33870  0.83170  Biso   1.000  C
  C123     1.0000 0.54800  0.26510  0.83890  Biso   1.000  C
  C124     1.0000 0.62230  0.22030  0.84630  Biso   1.000  C
  C125     1.0000 0.71120  0.24890  0.85010  Biso   1.000  C
  C126     1.0000 0.56310  0.13240  0.27080  Biso   1.000  C
  C127     1.0000 0.61240  0.13430  0.21940  Biso   1.000  C
  C128     1.0000 0.62420  0.07520  0.19060  Biso   1.000  C
  C129     1.0000 0.65020  0.19460  0.19960  Biso   1.000  C
  C130     1.0000 0.93250  0.13170  0.93100  Biso   1.000  C
  C131     1.0000 0.99410  0.90710  0.89510  Biso   1.000  C
  C132     1.0000 0.98400  0.83170  0.89570  Biso   1.000  C
  C133     1.0000 0.00490  0.79050  0.85140  Biso   1.000  C
  C134     1.0000 0.03800  0.82740  0.80710  Biso   1.000  C
  C135     1.0000 0.04720  0.90340  0.80890  Biso   1.000  C
  C136     1.0000 0.12680  0.36760  0.97990  Biso   1.000  C
  C137     1.0000 0.15000  0.43370  0.00540  Biso   1.000  C
  C138     1.0000 0.20170  0.43170  0.05180  Biso   1.000  C
  C139     1.0000 0.23350  0.36520  0.07280  Biso   1.000  C
  C140     1.0000 0.21100  0.30050  0.04640  Biso   1.000  C
  C141     1.0000 0.15930  0.30140  0.99970  Biso   1.000  C
  C142     1.0000 0.28800  0.36450  0.12290  Biso   1.000  C
  C143     1.0000 0.32720  0.42460  0.14290  Biso   1.000  C
  C144     1.0000 0.29610  0.30490  0.15330  Biso   1.000  C
  C145     1.0000 0.17820  0.14660  0.84880  Biso   1.000  C
  C146     1.0000 0.27380  0.17720  0.84430  Biso   1.000  C
  C147     1.0000 0.34830  0.13270  0.83390  Biso   1.000  C
  C148     1.0000 0.43500  0.16130  0.83170  Biso   1.000  C
  C149     1.0000 0.45200  0.23490  0.83890  Biso   1.000  C
  C150     1.0000 0.37770  0.27970  0.84630  Biso   1.000  C
  C151     1.0000 0.28880  0.25110  0.85010  Biso   1.000  C
  C152     1.0000 0.43690  0.36760  0.27080  Biso   1.000  C
  C153     1.0000 0.38760  0.36570  0.21940  Biso   1.000  C
  C154     1.0000 0.37580  0.42480  0.19060  Biso   1.000  C
  C155     1.0000 0.34980  0.30540  0.19960  Biso   1.000  C
  C156     1.0000 0.06750  0.36830  0.93100  Biso   1.000  C
  C157     1.0000 0.50590  0.90710  0.39510  Biso   1.000  C
  C158     1.0000 0.51600  0.83170  0.39570  Biso   1.000  C
  C159     1.0000 0.49510  0.79050  0.35140  Biso   1.000  C
  C160     1.0000 0.46200  0.82740  0.30710  Biso   1.000  C
  C161     1.0000 0.45280  0.90340  0.30890  Biso   1.000  C
  C162     1.0000 0.37320  0.36760  0.47990  Biso   1.000  C
  C163     1.0000 0.35000  0.43370  0.50540  Biso   1.000  C
  C164     1.0000 0.29830  0.43170  0.55180  Biso   1.000  C
  C165     1.0000 0.26650  0.36520  0.57280  Biso   1.000  C
  C166     1.0000 0.28900  0.30050  0.54640  Biso   1.000  C
  C167     1.0000 0.34070  0.30140  0.49970  Biso   1.000  C
  C168     1.0000 0.21200  0.36450  0.62290  Biso   1.000  C
  C169     1.0000 0.17280  0.42460  0.64290  Biso   1.000  C
  C170     1.0000 0.20390  0.30490  0.65330  Biso   1.000  C
  C171     1.0000 0.32180  0.14660  0.34880  Biso   1.000  C
  C172     1.0000 0.22620  0.17720  0.34430  Biso   1.000  C
  C173     1.0000 0.15170  0.13270  0.33390  Biso   1.000  C
  C174     1.0000 0.06500  0.16130  0.33170  Biso   1.000  C
  C175     1.0000 0.04800  0.23490  0.33890  Biso   1.000  C
  C176     1.0000 0.12230  0.27970  0.34630  Biso   1.000  C
  C177     1.0000 0.21120  0.25110  0.35010  Biso   1.000  C
  C178     1.0000 0.06310  0.36760  0.77080  Biso   1.000  C
  C179     1.0000 0.11240  0.36570  0.71940  Biso   1.000  C
  C180     1.0000 0.12420  0.42480  0.69060  Biso   1.000  C
  C181     1.0000 0.15020  0.30540  0.69960  Biso   1.000  C
  C182     1.0000 0.43250  0.36830  0.43100  Biso   1.000  C
  C183     1.0000 0.49410  0.59290  0.39510  Biso   1.000  C
  C184     1.0000 0.48400  0.66830  0.39570  Biso   1.000  C
  C185     1.0000 0.50490  0.70950  0.35140  Biso   1.000  C
  C186     1.0000 0.53800  0.67260  0.30710  Biso   1.000  C
  C187     1.0000 0.54720  0.59660  0.30890  Biso   1.000  C
  C188     1.0000 0.62680  0.13240  0.47990  Biso   1.000  C
  C189     1.0000 0.65000  0.06630  0.50540  Biso   1.000  C
  C190     1.0000 0.70170  0.06830  0.55180  Biso   1.000  C
  C191     1.0000 0.73350  0.13480  0.57280  Biso   1.000  C
  C192     1.0000 0.71100  0.19950  0.54640  Biso   1.000  C
  C193     1.0000 0.65930  0.19860  0.49970  Biso   1.000  C
  C194     1.0000 0.78800  0.13550  0.62290  Biso   1.000  C
  C195     1.0000 0.82720  0.07540  0.64290  Biso   1.000  C
  C196     1.0000 0.79610  0.19510  0.65330  Biso   1.000  C
  C197     1.0000 0.67820  0.35340  0.34880  Biso   1.000  C
  C198     1.0000 0.77380  0.32280  0.34430  Biso   1.000  C
  C199     1.0000 0.84830  0.36730  0.33390  Biso   1.000  C
  C200     1.0000 0.93500  0.33870  0.33170  Biso   1.000  C
  C201     1.0000 0.95200  0.26510  0.33890  Biso   1.000  C
  C202     1.0000 0.87770  0.22030  0.34630  Biso   1.000  C
  C203     1.0000 0.78880  0.24890  0.35010  Biso   1.000  C
  C204     1.0000 0.93690  0.13240  0.77080  Biso   1.000  C
  C205     1.0000 0.88760  0.13430  0.71940  Biso   1.000  C
  C206     1.0000 0.87580  0.07520  0.69060  Biso   1.000  C
  C207     1.0000 0.84980  0.19460  0.69960  Biso   1.000  C
  C208     1.0000 0.56750  0.13170  0.43100  Biso   1.000  C
  N5       1.0000 0.97480  0.55720  0.85181  Biso   1.000  N
  N6       1.0000 0.02520  0.94280  0.85181  Biso   1.000  N
  N7       1.0000 0.47480  0.94280  0.35181  Biso   1.000  N
  N8       1.0000 0.52520  0.55720  0.35181  Biso   1.000  N
  O25      1.0000 0.83360  0.42060  0.84710  Biso   1.000  O
  O26      1.0000 0.53000  0.07400  0.28563  Biso   1.000  O
  O27      1.0000 0.96730  0.07220  0.91739  Biso   1.000  O
  O28      1.0000 0.94400  0.18880  0.90780  Biso   1.000  O
  O29      1.0000 0.88480  0.31460  0.85470  Biso   1.000  O
  O30      1.0000 0.55540  0.18760  0.29580  Biso   1.000  O
  O31      1.0000 0.16640  0.07940  0.84710  Biso   1.000  O
  O32      1.0000 0.47000  0.42600  0.28563  Biso   1.000  O
  O33      1.0000 0.03270  0.42780  0.91739  Biso   1.000  O
  O34      1.0000 0.05600  0.31120  0.90780  Biso   1.000  O
  O35      1.0000 0.11520  0.18540  0.85470  Biso   1.000  O
  O36      1.0000 0.44460  0.31240  0.29580  Biso   1.000  O
  O37      1.0000 0.33360  0.07940  0.34710  Biso   1.000  O
  O38      1.0000 0.03000  0.42600  0.78563  Biso   1.000  O
  O39      1.0000 0.46730  0.42780  0.41739  Biso   1.000  O
  O40      1.0000 0.44400  0.31120  0.40780  Biso   1.000  O
  O41      1.0000 0.38480  0.18540  0.35470  Biso   1.000  O
  O42      1.0000 0.05540  0.31240  0.79580  Biso   1.000  O
  O43      1.0000 0.66640  0.42060  0.34710  Biso   1.000  O
  O44      1.0000 0.97000  0.07400  0.78563  Biso   1.000  O
  O45      1.0000 0.53270  0.07220  0.41739  Biso   1.000  O
  O46      1.0000 0.55600  0.18880  0.40780  Biso   1.000  O
  O47      1.0000 0.61520  0.31460  0.35470  Biso   1.000  O
  O48      1.0000 0.94460  0.18760  0.79580  Biso   1.000  O
