data_image0
_cell_length_a       8.2087
_cell_length_b       14.9912
_cell_length_c       21.9789
_cell_angle_alpha    90
_cell_angle_beta     94.702
_cell_angle_gamma    90

_symmetry_space_group_name_H-M    P 1
_symmetry_int_tables_number       1

loop_
  _symmetry_equiv_pos_as_xyz
  'x, y, z'

loop_
  _atom_site_label
  _atom_site_occupancy
  _atom_site_fract_x
  _atom_site_fract_y
  _atom_site_fract_z
  _atom_site_thermal_displace_type
  _atom_site_B_iso_or_equiv
  _atom_site_type_symbol
  Zn1      1.0000 0.32564  0.08091  0.13506  Biso   1.000  Zn
  Zn2      1.0000 0.53362  0.23276  0.24283  Biso   1.000  Zn
  Zn3      1.0000 0.17436  0.58091  0.36494  Biso   1.000  Zn
  Zn4      1.0000 0.96638  0.73276  0.25717  Biso   1.000  Zn
  Zn5      1.0000 0.67436  0.91909  0.86494  Biso   1.000  Zn
  Zn6      1.0000 0.46638  0.76724  0.75717  Biso   1.000  Zn
  Zn7      1.0000 0.82564  0.41909  0.63506  Biso   1.000  Zn
  Zn8      1.0000 0.03362  0.26724  0.74283  Biso   1.000  Zn
  H1       1.0000 0.35430  0.87660  0.25390  Biso   1.000  H
  H2       1.0000 0.74800  0.88130  0.41490  Biso   1.000  H
  H3       1.0000 0.70470  0.00600  0.35510  Biso   1.000  H
  H4       1.0000 0.87560  0.58400  0.46720  Biso   1.000  H
  H5       1.0000 0.46440  0.64970  0.54230  Biso   1.000  H
  H6       1.0000 0.40460  0.75230  0.46610  Biso   1.000  H
  H7       1.0000 0.40500  0.38280  0.14900  Biso   1.000  H
  H8       1.0000 0.38730  0.53670  0.14540  Biso   1.000  H
  H9       1.0000 0.49630  0.61960  0.22790  Biso   1.000  H
  H10      1.0000 0.62690  0.54790  0.31020  Biso   1.000  H
  H11      1.0000 0.78480  0.47160  0.37660  Biso   1.000  H
  H12      1.0000 0.91380  0.38420  0.45030  Biso   1.000  H
  H13      1.0000 0.89360  0.23250  0.44210  Biso   1.000  H
  H14      1.0000 0.73910  0.17040  0.36130  Biso   1.000  H
  H15      1.0000 0.14570  0.37660  0.24610  Biso   1.000  H
  H16      1.0000 0.75200  0.38130  0.08510  Biso   1.000  H
  H17      1.0000 0.79530  0.50600  0.14490  Biso   1.000  H
  H18      1.0000 0.62440  0.08400  0.03280  Biso   1.000  H
  H19      1.0000 0.03560  0.14970  0.95770  Biso   1.000  H
  H20      1.0000 0.09540  0.25230  0.03390  Biso   1.000  H
  H21      1.0000 0.09500  0.88280  0.35100  Biso   1.000  H
  H22      1.0000 0.11270  0.03670  0.35460  Biso   1.000  H
  H23      1.0000 0.00370  0.11960  0.27210  Biso   1.000  H
  H24      1.0000 0.87310  0.04790  0.18980  Biso   1.000  H
  H25      1.0000 0.71520  0.97160  0.12340  Biso   1.000  H
  H26      1.0000 0.58620  0.88420  0.04970  Biso   1.000  H
  H27      1.0000 0.60640  0.73250  0.05790  Biso   1.000  H
  H28      1.0000 0.76090  0.67040  0.13870  Biso   1.000  H
  H29      1.0000 0.64570  0.12340  0.74610  Biso   1.000  H
  H30      1.0000 0.25200  0.11870  0.58510  Biso   1.000  H
  H31      1.0000 0.29530  0.99400  0.64490  Biso   1.000  H
  H32      1.0000 0.12440  0.41600  0.53280  Biso   1.000  H
  H33      1.0000 0.53560  0.35030  0.45770  Biso   1.000  H
  H34      1.0000 0.59540  0.24770  0.53390  Biso   1.000  H
  H35      1.0000 0.59500  0.61720  0.85100  Biso   1.000  H
  H36      1.0000 0.61270  0.46330  0.85460  Biso   1.000  H
  H37      1.0000 0.50370  0.38040  0.77210  Biso   1.000  H
  H38      1.0000 0.37310  0.45210  0.68980  Biso   1.000  H
  H39      1.0000 0.21520  0.52840  0.62340  Biso   1.000  H
  H40      1.0000 0.08620  0.61580  0.54970  Biso   1.000  H
  H41      1.0000 0.10640  0.76750  0.55790  Biso   1.000  H
  H42      1.0000 0.26090  0.82960  0.63870  Biso   1.000  H
  H43      1.0000 0.85430  0.62340  0.75390  Biso   1.000  H
  H44      1.0000 0.24800  0.61870  0.91490  Biso   1.000  H
  H45      1.0000 0.20470  0.49400  0.85510  Biso   1.000  H
  H46      1.0000 0.37560  0.91600  0.96720  Biso   1.000  H
  H47      1.0000 0.96440  0.85030  0.04230  Biso   1.000  H
  H48      1.0000 0.90460  0.74770  0.96610  Biso   1.000  H
  H49      1.0000 0.90500  0.11720  0.64900  Biso   1.000  H
  H50      1.0000 0.88730  0.96330  0.64540  Biso   1.000  H
  H51      1.0000 0.99630  0.88040  0.72790  Biso   1.000  H
  H52      1.0000 0.12690  0.95210  0.81020  Biso   1.000  H
  H53      1.0000 0.28480  0.02840  0.87660  Biso   1.000  H
  H54      1.0000 0.41380  0.11580  0.95030  Biso   1.000  H
  H55      1.0000 0.39360  0.26750  0.94210  Biso   1.000  H
  H56      1.0000 0.23910  0.32960  0.86130  Biso   1.000  H
  C1       1.0000 0.49700  0.03420  0.25715  Biso   1.000  C
  C2       1.0000 0.52600  0.95390  0.29765  Biso   1.000  C
  C3       1.0000 0.43130  0.87820  0.28738  Biso   1.000  C
  C4       1.0000 0.44780  0.80440  0.32558  Biso   1.000  C
  C5       1.0000 0.56940  0.80470  0.37443  Biso   1.000  C
  C6       1.0000 0.66540  0.88070  0.38328  Biso   1.000  C
  C7       1.0000 0.64210  0.95510  0.34668  Biso   1.000  C
  C8       1.0000 0.32850  0.72880  0.31457  Biso   1.000  C
  C9       1.0000 0.60300  0.73090  0.41945  Biso   1.000  C
  C10      1.0000 0.74570  0.68020  0.42058  Biso   1.000  C
  C11      1.0000 0.86430  0.68840  0.37252  Biso   1.000  C
  C12      1.0000 0.78060  0.61790  0.46689  Biso   1.000  C
  C13      1.0000 0.67600  0.60570  0.51240  Biso   1.000  C
  C14      1.0000 0.53520  0.65690  0.51168  Biso   1.000  C
  C15      1.0000 0.49950  0.71840  0.46595  Biso   1.000  C
  C16      1.0000 0.71590  0.53960  0.56292  Biso   1.000  C
  C17      1.0000 0.45160  0.41630  0.18150  Biso   1.000  C
  C18      1.0000 0.43920  0.50850  0.17930  Biso   1.000  C
  C19      1.0000 0.50500  0.55770  0.22820  Biso   1.000  C
  C20      1.0000 0.58260  0.51540  0.27680  Biso   1.000  C
  C21      1.0000 0.59540  0.42250  0.27620  Biso   1.000  C
  C22      1.0000 0.68240  0.37130  0.32540  Biso   1.000  C
  C23      1.0000 0.77560  0.40980  0.37400  Biso   1.000  C
  C24      1.0000 0.85250  0.35840  0.41740  Biso   1.000  C
  C25      1.0000 0.83990  0.26900  0.41270  Biso   1.000  C
  C26      1.0000 0.74690  0.23220  0.36410  Biso   1.000  C
  C27      1.0000 0.00300  0.53420  0.24285  Biso   1.000  C
  C28      1.0000 0.97400  0.45390  0.20235  Biso   1.000  C
  C29      1.0000 0.06870  0.37820  0.21262  Biso   1.000  C
  C30      1.0000 0.05220  0.30440  0.17442  Biso   1.000  C
  C31      1.0000 0.93060  0.30470  0.12557  Biso   1.000  C
  C32      1.0000 0.83460  0.38070  0.11672  Biso   1.000  C
  C33      1.0000 0.85790  0.45510  0.15332  Biso   1.000  C
  C34      1.0000 0.17150  0.22880  0.18543  Biso   1.000  C
  C35      1.0000 0.89700  0.23090  0.08055  Biso   1.000  C
  C36      1.0000 0.75430  0.18020  0.07942  Biso   1.000  C
  C37      1.0000 0.63570  0.18840  0.12748  Biso   1.000  C
  C38      1.0000 0.71940  0.11790  0.03311  Biso   1.000  C
  C39      1.0000 0.82400  0.10570  0.98760  Biso   1.000  C
  C40      1.0000 0.96480  0.15690  0.98832  Biso   1.000  C
  C41      1.0000 0.00050  0.21840  0.03405  Biso   1.000  C
  C42      1.0000 0.78410  0.03960  0.93708  Biso   1.000  C
  C43      1.0000 0.04840  0.91630  0.31850  Biso   1.000  C
  C44      1.0000 0.06080  0.00850  0.32070  Biso   1.000  C
  C45      1.0000 0.99500  0.05770  0.27180  Biso   1.000  C
  C46      1.0000 0.91740  0.01540  0.22320  Biso   1.000  C
  C47      1.0000 0.90460  0.92250  0.22380  Biso   1.000  C
  C48      1.0000 0.81760  0.87130  0.17460  Biso   1.000  C
  C49      1.0000 0.72440  0.90980  0.12600  Biso   1.000  C
  C50      1.0000 0.64750  0.85840  0.08260  Biso   1.000  C
  C51      1.0000 0.66010  0.76900  0.08730  Biso   1.000  C
  C52      1.0000 0.75310  0.73220  0.13590  Biso   1.000  C
  C53      1.0000 0.50300  0.96580  0.74285  Biso   1.000  C
  C54      1.0000 0.47400  0.04610  0.70235  Biso   1.000  C
  C55      1.0000 0.56870  0.12180  0.71262  Biso   1.000  C
  C56      1.0000 0.55220  0.19560  0.67442  Biso   1.000  C
  C57      1.0000 0.43060  0.19530  0.62557  Biso   1.000  C
  C58      1.0000 0.33460  0.11930  0.61672  Biso   1.000  C
  C59      1.0000 0.35790  0.04490  0.65332  Biso   1.000  C
  C60      1.0000 0.67150  0.27120  0.68543  Biso   1.000  C
  C61      1.0000 0.39700  0.26910  0.58055  Biso   1.000  C
  C62      1.0000 0.25430  0.31980  0.57942  Biso   1.000  C
  C63      1.0000 0.13570  0.31160  0.62748  Biso   1.000  C
  C64      1.0000 0.21940  0.38210  0.53311  Biso   1.000  C
  C65      1.0000 0.32400  0.39430  0.48760  Biso   1.000  C
  C66      1.0000 0.46480  0.34310  0.48832  Biso   1.000  C
  C67      1.0000 0.50050  0.28160  0.53405  Biso   1.000  C
  C68      1.0000 0.28410  0.46040  0.43708  Biso   1.000  C
  C69      1.0000 0.54840  0.58370  0.81850  Biso   1.000  C
  C70      1.0000 0.56080  0.49150  0.82070  Biso   1.000  C
  C71      1.0000 0.49500  0.44230  0.77180  Biso   1.000  C
  C72      1.0000 0.41740  0.48460  0.72320  Biso   1.000  C
  C73      1.0000 0.40460  0.57750  0.72380  Biso   1.000  C
  C74      1.0000 0.31760  0.62870  0.67460  Biso   1.000  C
  C75      1.0000 0.22440  0.59020  0.62600  Biso   1.000  C
  C76      1.0000 0.14750  0.64160  0.58260  Biso   1.000  C
  C77      1.0000 0.16010  0.73100  0.58730  Biso   1.000  C
  C78      1.0000 0.25310  0.76780  0.63590  Biso   1.000  C
  C79      1.0000 0.99700  0.46580  0.75715  Biso   1.000  C
  C80      1.0000 0.02600  0.54610  0.79765  Biso   1.000  C
  C81      1.0000 0.93130  0.62180  0.78738  Biso   1.000  C
  C82      1.0000 0.94780  0.69560  0.82558  Biso   1.000  C
  C83      1.0000 0.06940  0.69530  0.87443  Biso   1.000  C
  C84      1.0000 0.16540  0.61930  0.88328  Biso   1.000  C
  C85      1.0000 0.14210  0.54490  0.84668  Biso   1.000  C
  C86      1.0000 0.82850  0.77120  0.81457  Biso   1.000  C
  C87      1.0000 0.10300  0.76910  0.91945  Biso   1.000  C
  C88      1.0000 0.24570  0.81980  0.92058  Biso   1.000  C
  C89      1.0000 0.36430  0.81160  0.87252  Biso   1.000  C
  C90      1.0000 0.28060  0.88210  0.96689  Biso   1.000  C
  C91      1.0000 0.17600  0.89430  0.01240  Biso   1.000  C
  C92      1.0000 0.03520  0.84310  0.01168  Biso   1.000  C
  C93      1.0000 0.99950  0.78160  0.96595  Biso   1.000  C
  C94      1.0000 0.21590  0.96040  0.06292  Biso   1.000  C
  C95      1.0000 0.95160  0.08370  0.68150  Biso   1.000  C
  C96      1.0000 0.93920  0.99150  0.67930  Biso   1.000  C
  C97      1.0000 0.00500  0.94230  0.72820  Biso   1.000  C
  C98      1.0000 0.08260  0.98460  0.77680  Biso   1.000  C
  C99      1.0000 0.09540  0.07750  0.77620  Biso   1.000  C
  C100     1.0000 0.18240  0.12870  0.82540  Biso   1.000  C
  C101     1.0000 0.27560  0.09020  0.87400  Biso   1.000  C
  C102     1.0000 0.35250  0.14160  0.91740  Biso   1.000  C
  C103     1.0000 0.33990  0.23100  0.91270  Biso   1.000  C
  C104     1.0000 0.24690  0.26780  0.86410  Biso   1.000  C
  N1       1.0000 0.52820  0.37450  0.22897  Biso   1.000  N
  N2       1.0000 0.66790  0.28200  0.32104  Biso   1.000  N
  N3       1.0000 0.97180  0.87450  0.27103  Biso   1.000  N
  N4       1.0000 0.83210  0.78200  0.17896  Biso   1.000  N
  N5       1.0000 0.47180  0.62550  0.77103  Biso   1.000  N
  N6       1.0000 0.33210  0.71800  0.67896  Biso   1.000  N
  N7       1.0000 0.02820  0.12550  0.72897  Biso   1.000  N
  N8       1.0000 0.16790  0.21800  0.82104  Biso   1.000  N
  O1       1.0000 0.53740  0.10807  0.27925  Biso   1.000  O
  O2       1.0000 0.43410  0.01846  0.20407  Biso   1.000  O
  O3       1.0000 0.35010  0.66086  0.34715  Biso   1.000  O
  O4       1.0000 0.21470  0.73878  0.27325  Biso   1.000  O
  O5       1.0000 0.80810  0.70783  0.31916  Biso   1.000  O
  O6       1.0000 0.01360  0.67571  0.38796  Biso   1.000  O
  O7       1.0000 0.83180  0.48522  0.55737  Biso   1.000  O
  O8       1.0000 0.63970  0.54040  0.60909  Biso   1.000  O
  O9       1.0000 0.96260  0.60807  0.22075  Biso   1.000  O
  O10      1.0000 0.06590  0.51846  0.29593  Biso   1.000  O
  O11      1.0000 0.14990  0.16086  0.15285  Biso   1.000  O
  O12      1.0000 0.28530  0.23878  0.22675  Biso   1.000  O
  O13      1.0000 0.69190  0.20783  0.18084  Biso   1.000  O
  O14      1.0000 0.48640  0.17571  0.11204  Biso   1.000  O
  O15      1.0000 0.66820  0.98522  0.94263  Biso   1.000  O
  O16      1.0000 0.86030  0.04040  0.89091  Biso   1.000  O
  O17      1.0000 0.46260  0.89193  0.72075  Biso   1.000  O
  O18      1.0000 0.56590  0.98154  0.79593  Biso   1.000  O
  O19      1.0000 0.64990  0.33914  0.65285  Biso   1.000  O
  O20      1.0000 0.78530  0.26122  0.72675  Biso   1.000  O
  O21      1.0000 0.19190  0.29217  0.68084  Biso   1.000  O
  O22      1.0000 0.98640  0.32429  0.61204  Biso   1.000  O
  O23      1.0000 0.16820  0.51478  0.44263  Biso   1.000  O
  O24      1.0000 0.36030  0.45960  0.39091  Biso   1.000  O
  O25      1.0000 0.03740  0.39193  0.77925  Biso   1.000  O
  O26      1.0000 0.93410  0.48154  0.70407  Biso   1.000  O
  O27      1.0000 0.85010  0.83914  0.84715  Biso   1.000  O
  O28      1.0000 0.71470  0.76122  0.77325  Biso   1.000  O
  O29      1.0000 0.30810  0.79217  0.81916  Biso   1.000  O
  O30      1.0000 0.51360  0.82429  0.88796  Biso   1.000  O
  O31      1.0000 0.33180  0.01478  0.05737  Biso   1.000  O
  O32      1.0000 0.13970  0.95960  0.10909  Biso   1.000  O
