data_image0
_cell_length_a       11.1003
_cell_length_b       12.3001
_cell_length_c       43.003
_cell_angle_alpha    90
_cell_angle_beta     90
_cell_angle_gamma    90

_symmetry_space_group_name_H-M    P 1
_symmetry_int_tables_number       1

loop_
  _symmetry_equiv_pos_as_xyz
  'x, y, z'

loop_
  _atom_site_label
  _atom_site_occupancy
  _atom_site_fract_x
  _atom_site_fract_y
  _atom_site_fract_z
  _atom_site_thermal_displace_type
  _atom_site_B_iso_or_equiv
  _atom_site_type_symbol
  Ag1      1.0000 0.49660  0.88468  0.98190  Biso   1.000  Ag
  Ag2      1.0000 0.65708  0.59666  0.86794  Biso   1.000  Ag
  Ag3      1.0000 0.68302  0.86923  0.25420  Biso   1.000  Ag
  Ag4      1.0000 0.50340  0.61532  0.48190  Biso   1.000  Ag
  Ag5      1.0000 0.34292  0.90334  0.36794  Biso   1.000  Ag
  Ag6      1.0000 0.31698  0.63077  0.75420  Biso   1.000  Ag
  Ag7      1.0000 0.99660  0.11532  0.51810  Biso   1.000  Ag
  Ag8      1.0000 0.15708  0.40334  0.63206  Biso   1.000  Ag
  Ag9      1.0000 0.18302  0.13077  0.24580  Biso   1.000  Ag
  Ag10     1.0000 0.00340  0.38468  0.01810  Biso   1.000  Ag
  Ag11     1.0000 0.84292  0.09666  0.13206  Biso   1.000  Ag
  Ag12     1.0000 0.81698  0.36923  0.74580  Biso   1.000  Ag
  Ag13     1.0000 0.50340  0.11532  0.01810  Biso   1.000  Ag
  Ag14     1.0000 0.34292  0.40334  0.13206  Biso   1.000  Ag
  Ag15     1.0000 0.31698  0.13077  0.74580  Biso   1.000  Ag
  Ag16     1.0000 0.49660  0.38468  0.51810  Biso   1.000  Ag
  Ag17     1.0000 0.65708  0.09666  0.63206  Biso   1.000  Ag
  Ag18     1.0000 0.68302  0.36923  0.24580  Biso   1.000  Ag
  Ag19     1.0000 0.00340  0.88468  0.48190  Biso   1.000  Ag
  Ag20     1.0000 0.84292  0.59666  0.36794  Biso   1.000  Ag
  Ag21     1.0000 0.81698  0.86923  0.75420  Biso   1.000  Ag
  Ag22     1.0000 0.99660  0.61532  0.98190  Biso   1.000  Ag
  Ag23     1.0000 0.15708  0.90334  0.86794  Biso   1.000  Ag
  Ag24     1.0000 0.18302  0.63077  0.25420  Biso   1.000  Ag
  H1       1.0000 0.43130  0.96050  0.10640  Biso   1.000  H
  H2       1.0000 0.47350  0.90630  0.15640  Biso   1.000  H
  H3       1.0000 0.66810  0.65810  0.12360  Biso   1.000  H
  H4       1.0000 0.62460  0.71330  0.07330  Biso   1.000  H
  H5       1.0000 0.64050  0.77060  0.92110  Biso   1.000  H
  H6       1.0000 0.51760  0.70790  0.92250  Biso   1.000  H
  H7       1.0000 0.72600  0.72530  0.99760  Biso   1.000  H
  H8       1.0000 0.76620  0.78230  0.96660  Biso   1.000  H
  H9       1.0000 0.53990  0.62740  0.00010  Biso   1.000  H
  H10      1.0000 0.45630  0.61960  0.97070  Biso   1.000  H
  H11      1.0000 0.82880  0.54440  0.92530  Biso   1.000  H
  H12      1.0000 0.82900  0.67150  0.92240  Biso   1.000  H
  H13      1.0000 0.76510  0.45770  0.97350  Biso   1.000  H
  H14      1.0000 0.72490  0.52980  0.00180  Biso   1.000  H
  H15      1.0000 0.51850  0.50760  0.92700  Biso   1.000  H
  H16      1.0000 0.64200  0.44590  0.92850  Biso   1.000  H
  H17      1.0000 0.79500  0.50320  0.80900  Biso   1.000  H
  H18      1.0000 0.67050  0.44260  0.80830  Biso   1.000  H
  H19      1.0000 0.68050  0.76800  0.81410  Biso   1.000  H
  H20      1.0000 0.80060  0.70120  0.81200  Biso   1.000  H
  H21      1.0000 0.48370  0.54540  0.81090  Biso   1.000  H
  H22      1.0000 0.48640  0.67270  0.81350  Biso   1.000  H
  H23      1.0000 0.77360  0.62060  0.73530  Biso   1.000  H
  H24      1.0000 0.85650  0.61240  0.76480  Biso   1.000  H
  H25      1.0000 0.58020  0.52600  0.73440  Biso   1.000  H
  H26      1.0000 0.54040  0.45670  0.76330  Biso   1.000  H
  H27      1.0000 0.54860  0.78140  0.76910  Biso   1.000  H
  H28      1.0000 0.58500  0.72380  0.73790  Biso   1.000  H
  H29      1.0000 0.56870  0.53950  0.60640  Biso   1.000  H
  H30      1.0000 0.52650  0.59370  0.65640  Biso   1.000  H
  H31      1.0000 0.33190  0.84190  0.62360  Biso   1.000  H
  H32      1.0000 0.37540  0.78670  0.57330  Biso   1.000  H
  H33      1.0000 0.35950  0.72940  0.42110  Biso   1.000  H
  H34      1.0000 0.48240  0.79210  0.42250  Biso   1.000  H
  H35      1.0000 0.27400  0.77470  0.49760  Biso   1.000  H
  H36      1.0000 0.23380  0.71770  0.46660  Biso   1.000  H
  H37      1.0000 0.46010  0.87260  0.50010  Biso   1.000  H
  H38      1.0000 0.54370  0.88040  0.47070  Biso   1.000  H
  H39      1.0000 0.17120  0.95560  0.42530  Biso   1.000  H
  H40      1.0000 0.17100  0.82850  0.42240  Biso   1.000  H
  H41      1.0000 0.23490  0.04230  0.47350  Biso   1.000  H
  H42      1.0000 0.27510  0.97020  0.50180  Biso   1.000  H
  H43      1.0000 0.48150  0.99240  0.42700  Biso   1.000  H
  H44      1.0000 0.35800  0.05410  0.42850  Biso   1.000  H
  H45      1.0000 0.20500  0.99680  0.30900  Biso   1.000  H
  H46      1.0000 0.32950  0.05740  0.30830  Biso   1.000  H
  H47      1.0000 0.31950  0.73200  0.31410  Biso   1.000  H
  H48      1.0000 0.19940  0.79880  0.31200  Biso   1.000  H
  H49      1.0000 0.51630  0.95460  0.31090  Biso   1.000  H
  H50      1.0000 0.51360  0.82730  0.31350  Biso   1.000  H
  H51      1.0000 0.22640  0.87940  0.23530  Biso   1.000  H
  H52      1.0000 0.14350  0.88760  0.26480  Biso   1.000  H
  H53      1.0000 0.41980  0.97400  0.23440  Biso   1.000  H
  H54      1.0000 0.45960  0.04330  0.26330  Biso   1.000  H
  H55      1.0000 0.45140  0.71860  0.26910  Biso   1.000  H
  H56      1.0000 0.41500  0.77620  0.23790  Biso   1.000  H
  H57      1.0000 0.93130  0.03950  0.39360  Biso   1.000  H
  H58      1.0000 0.97350  0.09370  0.34360  Biso   1.000  H
  H59      1.0000 0.16810  0.34190  0.37640  Biso   1.000  H
  H60      1.0000 0.12460  0.28670  0.42670  Biso   1.000  H
  H61      1.0000 0.14050  0.22940  0.57890  Biso   1.000  H
  H62      1.0000 0.01760  0.29210  0.57750  Biso   1.000  H
  H63      1.0000 0.22600  0.27470  0.50240  Biso   1.000  H
  H64      1.0000 0.26620  0.21770  0.53340  Biso   1.000  H
  H65      1.0000 0.03990  0.37260  0.49990  Biso   1.000  H
  H66      1.0000 0.95630  0.38040  0.52930  Biso   1.000  H
  H67      1.0000 0.32880  0.45560  0.57470  Biso   1.000  H
  H68      1.0000 0.32900  0.32850  0.57760  Biso   1.000  H
  H69      1.0000 0.26510  0.54230  0.52650  Biso   1.000  H
  H70      1.0000 0.22490  0.47020  0.49820  Biso   1.000  H
  H71      1.0000 0.01850  0.49240  0.57300  Biso   1.000  H
  H72      1.0000 0.14200  0.55410  0.57150  Biso   1.000  H
  H73      1.0000 0.29500  0.49680  0.69100  Biso   1.000  H
  H74      1.0000 0.17050  0.55740  0.69170  Biso   1.000  H
  H75      1.0000 0.18050  0.23200  0.68590  Biso   1.000  H
  H76      1.0000 0.30060  0.29880  0.68800  Biso   1.000  H
  H77      1.0000 0.98370  0.45460  0.68910  Biso   1.000  H
  H78      1.0000 0.98640  0.32730  0.68650  Biso   1.000  H
  H79      1.0000 0.27360  0.37940  0.76470  Biso   1.000  H
  H80      1.0000 0.35650  0.38760  0.73520  Biso   1.000  H
  H81      1.0000 0.08020  0.47400  0.76560  Biso   1.000  H
  H82      1.0000 0.04040  0.54330  0.73670  Biso   1.000  H
  H83      1.0000 0.04860  0.21860  0.73090  Biso   1.000  H
  H84      1.0000 0.08500  0.27620  0.76210  Biso   1.000  H
  H85      1.0000 0.06870  0.46050  0.89360  Biso   1.000  H
  H86      1.0000 0.02650  0.40630  0.84360  Biso   1.000  H
  H87      1.0000 0.83190  0.15810  0.87640  Biso   1.000  H
  H88      1.0000 0.87540  0.21330  0.92670  Biso   1.000  H
  H89      1.0000 0.85950  0.27060  0.07890  Biso   1.000  H
  H90      1.0000 0.98240  0.20790  0.07750  Biso   1.000  H
  H91      1.0000 0.77400  0.22530  0.00240  Biso   1.000  H
  H92      1.0000 0.73380  0.28230  0.03340  Biso   1.000  H
  H93      1.0000 0.96010  0.12740  0.99990  Biso   1.000  H
  H94      1.0000 0.04370  0.11960  0.02930  Biso   1.000  H
  H95      1.0000 0.67120  0.04440  0.07470  Biso   1.000  H
  H96      1.0000 0.67100  0.17150  0.07760  Biso   1.000  H
  H97      1.0000 0.73490  0.95770  0.02650  Biso   1.000  H
  H98      1.0000 0.77510  0.02980  0.99820  Biso   1.000  H
  H99      1.0000 0.98150  0.00760  0.07300  Biso   1.000  H
  H100     1.0000 0.85800  0.94590  0.07150  Biso   1.000  H
  H101     1.0000 0.70500  0.00320  0.19100  Biso   1.000  H
  H102     1.0000 0.82950  0.94260  0.19170  Biso   1.000  H
  H103     1.0000 0.81950  0.26800  0.18590  Biso   1.000  H
  H104     1.0000 0.69940  0.20120  0.18800  Biso   1.000  H
  H105     1.0000 0.01630  0.04540  0.18910  Biso   1.000  H
  H106     1.0000 0.01360  0.17270  0.18650  Biso   1.000  H
  H107     1.0000 0.72640  0.12060  0.26470  Biso   1.000  H
  H108     1.0000 0.64350  0.11240  0.23520  Biso   1.000  H
  H109     1.0000 0.91980  0.02600  0.26560  Biso   1.000  H
  H110     1.0000 0.95960  0.95670  0.23670  Biso   1.000  H
  H111     1.0000 0.95140  0.28140  0.23090  Biso   1.000  H
  H112     1.0000 0.91500  0.22380  0.26210  Biso   1.000  H
  H113     1.0000 0.56870  0.03950  0.89360  Biso   1.000  H
  H114     1.0000 0.52650  0.09370  0.84360  Biso   1.000  H
  H115     1.0000 0.33190  0.34190  0.87640  Biso   1.000  H
  H116     1.0000 0.37540  0.28670  0.92670  Biso   1.000  H
  H117     1.0000 0.35950  0.22940  0.07890  Biso   1.000  H
  H118     1.0000 0.48240  0.29210  0.07750  Biso   1.000  H
  H119     1.0000 0.27400  0.27470  0.00240  Biso   1.000  H
  H120     1.0000 0.23380  0.21770  0.03340  Biso   1.000  H
  H121     1.0000 0.46010  0.37260  0.99990  Biso   1.000  H
  H122     1.0000 0.54370  0.38040  0.02930  Biso   1.000  H
  H123     1.0000 0.17120  0.45560  0.07470  Biso   1.000  H
  H124     1.0000 0.17100  0.32850  0.07760  Biso   1.000  H
  H125     1.0000 0.23490  0.54230  0.02650  Biso   1.000  H
  H126     1.0000 0.27510  0.47020  0.99820  Biso   1.000  H
  H127     1.0000 0.48150  0.49240  0.07300  Biso   1.000  H
  H128     1.0000 0.35800  0.55410  0.07150  Biso   1.000  H
  H129     1.0000 0.20500  0.49680  0.19100  Biso   1.000  H
  H130     1.0000 0.32950  0.55740  0.19170  Biso   1.000  H
  H131     1.0000 0.31950  0.23200  0.18590  Biso   1.000  H
  H132     1.0000 0.19940  0.29880  0.18800  Biso   1.000  H
  H133     1.0000 0.51630  0.45460  0.18910  Biso   1.000  H
  H134     1.0000 0.51360  0.32730  0.18650  Biso   1.000  H
  H135     1.0000 0.22640  0.37940  0.26470  Biso   1.000  H
  H136     1.0000 0.14350  0.38760  0.23520  Biso   1.000  H
  H137     1.0000 0.41980  0.47400  0.26560  Biso   1.000  H
  H138     1.0000 0.45960  0.54330  0.23670  Biso   1.000  H
  H139     1.0000 0.45140  0.21860  0.23090  Biso   1.000  H
  H140     1.0000 0.41500  0.27620  0.26210  Biso   1.000  H
  H141     1.0000 0.43130  0.46050  0.39360  Biso   1.000  H
  H142     1.0000 0.47350  0.40630  0.34360  Biso   1.000  H
  H143     1.0000 0.66810  0.15810  0.37640  Biso   1.000  H
  H144     1.0000 0.62460  0.21330  0.42670  Biso   1.000  H
  H145     1.0000 0.64050  0.27060  0.57890  Biso   1.000  H
  H146     1.0000 0.51760  0.20790  0.57750  Biso   1.000  H
  H147     1.0000 0.72600  0.22530  0.50240  Biso   1.000  H
  H148     1.0000 0.76620  0.28230  0.53340  Biso   1.000  H
  H149     1.0000 0.53990  0.12740  0.49990  Biso   1.000  H
  H150     1.0000 0.45630  0.11960  0.52930  Biso   1.000  H
  H151     1.0000 0.82880  0.04440  0.57470  Biso   1.000  H
  H152     1.0000 0.82900  0.17150  0.57760  Biso   1.000  H
  H153     1.0000 0.76510  0.95770  0.52650  Biso   1.000  H
  H154     1.0000 0.72490  0.02980  0.49820  Biso   1.000  H
  H155     1.0000 0.51850  0.00760  0.57300  Biso   1.000  H
  H156     1.0000 0.64200  0.94590  0.57150  Biso   1.000  H
  H157     1.0000 0.79500  0.00320  0.69100  Biso   1.000  H
  H158     1.0000 0.67050  0.94260  0.69170  Biso   1.000  H
  H159     1.0000 0.68050  0.26800  0.68590  Biso   1.000  H
  H160     1.0000 0.80060  0.20120  0.68800  Biso   1.000  H
  H161     1.0000 0.48370  0.04540  0.68910  Biso   1.000  H
  H162     1.0000 0.48640  0.17270  0.68650  Biso   1.000  H
  H163     1.0000 0.77360  0.12060  0.76470  Biso   1.000  H
  H164     1.0000 0.85650  0.11240  0.73520  Biso   1.000  H
  H165     1.0000 0.58020  0.02600  0.76560  Biso   1.000  H
  H166     1.0000 0.54040  0.95670  0.73670  Biso   1.000  H
  H167     1.0000 0.54860  0.28140  0.73090  Biso   1.000  H
  H168     1.0000 0.58500  0.22380  0.76210  Biso   1.000  H
  H169     1.0000 0.06870  0.96050  0.60640  Biso   1.000  H
  H170     1.0000 0.02650  0.90630  0.65640  Biso   1.000  H
  H171     1.0000 0.83190  0.65810  0.62360  Biso   1.000  H
  H172     1.0000 0.87540  0.71330  0.57330  Biso   1.000  H
  H173     1.0000 0.85950  0.77060  0.42110  Biso   1.000  H
  H174     1.0000 0.98240  0.70790  0.42250  Biso   1.000  H
  H175     1.0000 0.77400  0.72530  0.49760  Biso   1.000  H
  H176     1.0000 0.73380  0.78230  0.46660  Biso   1.000  H
  H177     1.0000 0.96010  0.62740  0.50010  Biso   1.000  H
  H178     1.0000 0.04370  0.61960  0.47070  Biso   1.000  H
  H179     1.0000 0.67120  0.54440  0.42530  Biso   1.000  H
  H180     1.0000 0.67100  0.67150  0.42240  Biso   1.000  H
  H181     1.0000 0.73490  0.45770  0.47350  Biso   1.000  H
  H182     1.0000 0.77510  0.52980  0.50180  Biso   1.000  H
  H183     1.0000 0.98150  0.50760  0.42700  Biso   1.000  H
  H184     1.0000 0.85800  0.44590  0.42850  Biso   1.000  H
  H185     1.0000 0.70500  0.50320  0.30900  Biso   1.000  H
  H186     1.0000 0.82950  0.44260  0.30830  Biso   1.000  H
  H187     1.0000 0.81950  0.76800  0.31410  Biso   1.000  H
  H188     1.0000 0.69940  0.70120  0.31200  Biso   1.000  H
  H189     1.0000 0.01630  0.54540  0.31090  Biso   1.000  H
  H190     1.0000 0.01360  0.67270  0.31350  Biso   1.000  H
  H191     1.0000 0.72640  0.62060  0.23530  Biso   1.000  H
  H192     1.0000 0.64350  0.61240  0.26480  Biso   1.000  H
  H193     1.0000 0.91980  0.52600  0.23440  Biso   1.000  H
  H194     1.0000 0.95960  0.45670  0.26330  Biso   1.000  H
  H195     1.0000 0.95140  0.78140  0.26910  Biso   1.000  H
  H196     1.0000 0.91500  0.72380  0.23790  Biso   1.000  H
  H197     1.0000 0.93130  0.53950  0.10640  Biso   1.000  H
  H198     1.0000 0.97350  0.59370  0.15640  Biso   1.000  H
  H199     1.0000 0.16810  0.84190  0.12360  Biso   1.000  H
  H200     1.0000 0.12460  0.78670  0.07330  Biso   1.000  H
  H201     1.0000 0.14050  0.72940  0.92110  Biso   1.000  H
  H202     1.0000 0.01760  0.79210  0.92250  Biso   1.000  H
  H203     1.0000 0.22600  0.77470  0.99760  Biso   1.000  H
  H204     1.0000 0.26620  0.71770  0.96660  Biso   1.000  H
  H205     1.0000 0.03990  0.87260  0.00010  Biso   1.000  H
  H206     1.0000 0.95630  0.88040  0.97070  Biso   1.000  H
  H207     1.0000 0.32880  0.95560  0.92530  Biso   1.000  H
  H208     1.0000 0.32900  0.82850  0.92240  Biso   1.000  H
  H209     1.0000 0.26510  0.04230  0.97350  Biso   1.000  H
  H210     1.0000 0.22490  0.97020  0.00180  Biso   1.000  H
  H211     1.0000 0.01850  0.99240  0.92700  Biso   1.000  H
  H212     1.0000 0.14200  0.05410  0.92850  Biso   1.000  H
  H213     1.0000 0.29500  0.99680  0.80900  Biso   1.000  H
  H214     1.0000 0.17050  0.05740  0.80830  Biso   1.000  H
  H215     1.0000 0.18050  0.73200  0.81410  Biso   1.000  H
  H216     1.0000 0.30060  0.79880  0.81200  Biso   1.000  H
  H217     1.0000 0.98370  0.95460  0.81090  Biso   1.000  H
  H218     1.0000 0.98640  0.82730  0.81350  Biso   1.000  H
  H219     1.0000 0.27360  0.87940  0.73530  Biso   1.000  H
  H220     1.0000 0.35650  0.88760  0.76480  Biso   1.000  H
  H221     1.0000 0.08020  0.97400  0.73440  Biso   1.000  H
  H222     1.0000 0.04040  0.04330  0.76330  Biso   1.000  H
  H223     1.0000 0.04860  0.71860  0.76910  Biso   1.000  H
  H224     1.0000 0.08500  0.77620  0.73790  Biso   1.000  H
  C1       1.0000 0.50280  0.88250  0.05164  Biso   1.000  C
  C2       1.0000 0.52490  0.84500  0.08447  Biso   1.000  C
  C3       1.0000 0.48010  0.90010  0.10965  Biso   1.000  C
  C4       1.0000 0.50530  0.86820  0.13958  Biso   1.000  C
  C5       1.0000 0.57800  0.77970  0.14447  Biso   1.000  C
  C6       1.0000 0.62160  0.71980  0.12004  Biso   1.000  C
  C7       1.0000 0.59510  0.75300  0.09003  Biso   1.000  C
  C8       1.0000 0.60000  0.70810  0.93002  Biso   1.000  C
  C9       1.0000 0.72530  0.71920  0.97507  Biso   1.000  C
  C10      1.0000 0.53950  0.62170  0.97756  Biso   1.000  C
  C11      1.0000 0.78720  0.61010  0.93155  Biso   1.000  C
  C12      1.0000 0.72440  0.52450  0.97930  Biso   1.000  C
  C13      1.0000 0.60080  0.51220  0.93448  Biso   1.000  C
  C14      1.0000 0.71230  0.50800  0.80179  Biso   1.000  C
  C15      1.0000 0.71760  0.70410  0.80498  Biso   1.000  C
  C16      1.0000 0.52660  0.61030  0.80437  Biso   1.000  C
  C17      1.0000 0.77340  0.61560  0.75783  Biso   1.000  C
  C18      1.0000 0.58290  0.52200  0.75690  Biso   1.000  C
  C19      1.0000 0.58760  0.71770  0.76041  Biso   1.000  C
  C20      1.0000 0.49720  0.61750  0.55164  Biso   1.000  C
  C21      1.0000 0.47510  0.65500  0.58447  Biso   1.000  C
  C22      1.0000 0.51990  0.59990  0.60965  Biso   1.000  C
  C23      1.0000 0.49470  0.63180  0.63958  Biso   1.000  C
  C24      1.0000 0.42200  0.72030  0.64447  Biso   1.000  C
  C25      1.0000 0.37840  0.78020  0.62004  Biso   1.000  C
  C26      1.0000 0.40490  0.74700  0.59003  Biso   1.000  C
  C27      1.0000 0.40000  0.79190  0.43002  Biso   1.000  C
  C28      1.0000 0.27470  0.78080  0.47507  Biso   1.000  C
  C29      1.0000 0.46050  0.87830  0.47756  Biso   1.000  C
  C30      1.0000 0.21280  0.88990  0.43155  Biso   1.000  C
  C31      1.0000 0.27560  0.97550  0.47930  Biso   1.000  C
  C32      1.0000 0.39920  0.98780  0.43448  Biso   1.000  C
  C33      1.0000 0.28770  0.99200  0.30179  Biso   1.000  C
  C34      1.0000 0.28240  0.79590  0.30498  Biso   1.000  C
  C35      1.0000 0.47340  0.88970  0.30437  Biso   1.000  C
  C36      1.0000 0.22660  0.88440  0.25783  Biso   1.000  C
  C37      1.0000 0.41710  0.97800  0.25690  Biso   1.000  C
  C38      1.0000 0.41240  0.78230  0.26041  Biso   1.000  C
  C39      1.0000 0.00280  0.11750  0.44836  Biso   1.000  C
  C40      1.0000 0.02490  0.15500  0.41553  Biso   1.000  C
  C41      1.0000 0.98010  0.09990  0.39035  Biso   1.000  C
  C42      1.0000 0.00530  0.13180  0.36042  Biso   1.000  C
  C43      1.0000 0.07800  0.22030  0.35553  Biso   1.000  C
  C44      1.0000 0.12160  0.28020  0.37996  Biso   1.000  C
  C45      1.0000 0.09510  0.24700  0.40997  Biso   1.000  C
  C46      1.0000 0.10000  0.29190  0.56998  Biso   1.000  C
  C47      1.0000 0.22530  0.28080  0.52493  Biso   1.000  C
  C48      1.0000 0.03950  0.37830  0.52244  Biso   1.000  C
  C49      1.0000 0.28720  0.38990  0.56845  Biso   1.000  C
  C50      1.0000 0.22440  0.47550  0.52070  Biso   1.000  C
  C51      1.0000 0.10080  0.48780  0.56552  Biso   1.000  C
  C52      1.0000 0.21230  0.49200  0.69821  Biso   1.000  C
  C53      1.0000 0.21760  0.29590  0.69502  Biso   1.000  C
  C54      1.0000 0.02660  0.38970  0.69563  Biso   1.000  C
  C55      1.0000 0.27340  0.38440  0.74217  Biso   1.000  C
  C56      1.0000 0.08290  0.47800  0.74310  Biso   1.000  C
  C57      1.0000 0.08760  0.28230  0.73959  Biso   1.000  C
  C58      1.0000 0.99720  0.38250  0.94836  Biso   1.000  C
  C59      1.0000 0.97510  0.34500  0.91553  Biso   1.000  C
  C60      1.0000 0.01990  0.40010  0.89035  Biso   1.000  C
  C61      1.0000 0.99470  0.36820  0.86042  Biso   1.000  C
  C62      1.0000 0.92200  0.27970  0.85553  Biso   1.000  C
  C63      1.0000 0.87840  0.21980  0.87996  Biso   1.000  C
  C64      1.0000 0.90490  0.25300  0.90997  Biso   1.000  C
  C65      1.0000 0.90000  0.20810  0.06998  Biso   1.000  C
  C66      1.0000 0.77470  0.21920  0.02493  Biso   1.000  C
  C67      1.0000 0.96050  0.12170  0.02244  Biso   1.000  C
  C68      1.0000 0.71280  0.11010  0.06845  Biso   1.000  C
  C69      1.0000 0.77560  0.02450  0.02070  Biso   1.000  C
  C70      1.0000 0.89920  0.01220  0.06552  Biso   1.000  C
  C71      1.0000 0.78770  0.00800  0.19821  Biso   1.000  C
  C72      1.0000 0.78240  0.20410  0.19502  Biso   1.000  C
  C73      1.0000 0.97340  0.11030  0.19563  Biso   1.000  C
  C74      1.0000 0.72660  0.11560  0.24217  Biso   1.000  C
  C75      1.0000 0.91710  0.02200  0.24310  Biso   1.000  C
  C76      1.0000 0.91240  0.21770  0.23959  Biso   1.000  C
  C77      1.0000 0.49720  0.11750  0.94836  Biso   1.000  C
  C78      1.0000 0.47510  0.15500  0.91553  Biso   1.000  C
  C79      1.0000 0.51990  0.09990  0.89035  Biso   1.000  C
  C80      1.0000 0.49470  0.13180  0.86042  Biso   1.000  C
  C81      1.0000 0.42200  0.22030  0.85553  Biso   1.000  C
  C82      1.0000 0.37840  0.28020  0.87996  Biso   1.000  C
  C83      1.0000 0.40490  0.24700  0.90997  Biso   1.000  C
  C84      1.0000 0.40000  0.29190  0.06998  Biso   1.000  C
  C85      1.0000 0.27470  0.28080  0.02493  Biso   1.000  C
  C86      1.0000 0.46050  0.37830  0.02244  Biso   1.000  C
  C87      1.0000 0.21280  0.38990  0.06845  Biso   1.000  C
  C88      1.0000 0.27560  0.47550  0.02070  Biso   1.000  C
  C89      1.0000 0.39920  0.48780  0.06552  Biso   1.000  C
  C90      1.0000 0.28770  0.49200  0.19821  Biso   1.000  C
  C91      1.0000 0.28240  0.29590  0.19502  Biso   1.000  C
  C92      1.0000 0.47340  0.38970  0.19563  Biso   1.000  C
  C93      1.0000 0.22660  0.38440  0.24217  Biso   1.000  C
  C94      1.0000 0.41710  0.47800  0.24310  Biso   1.000  C
  C95      1.0000 0.41240  0.28230  0.23959  Biso   1.000  C
  C96      1.0000 0.50280  0.38250  0.44836  Biso   1.000  C
  C97      1.0000 0.52490  0.34500  0.41553  Biso   1.000  C
  C98      1.0000 0.48010  0.40010  0.39035  Biso   1.000  C
  C99      1.0000 0.50530  0.36820  0.36042  Biso   1.000  C
  C100     1.0000 0.57800  0.27970  0.35553  Biso   1.000  C
  C101     1.0000 0.62160  0.21980  0.37996  Biso   1.000  C
  C102     1.0000 0.59510  0.25300  0.40997  Biso   1.000  C
  C103     1.0000 0.60000  0.20810  0.56998  Biso   1.000  C
  C104     1.0000 0.72530  0.21920  0.52493  Biso   1.000  C
  C105     1.0000 0.53950  0.12170  0.52244  Biso   1.000  C
  C106     1.0000 0.78720  0.11010  0.56845  Biso   1.000  C
  C107     1.0000 0.72440  0.02450  0.52070  Biso   1.000  C
  C108     1.0000 0.60080  0.01220  0.56552  Biso   1.000  C
  C109     1.0000 0.71230  0.00800  0.69821  Biso   1.000  C
  C110     1.0000 0.71760  0.20410  0.69502  Biso   1.000  C
  C111     1.0000 0.52660  0.11030  0.69563  Biso   1.000  C
  C112     1.0000 0.77340  0.11560  0.74217  Biso   1.000  C
  C113     1.0000 0.58290  0.02200  0.74310  Biso   1.000  C
  C114     1.0000 0.58760  0.21770  0.73959  Biso   1.000  C
  C115     1.0000 0.99720  0.88250  0.55164  Biso   1.000  C
  C116     1.0000 0.97510  0.84500  0.58447  Biso   1.000  C
  C117     1.0000 0.01990  0.90010  0.60965  Biso   1.000  C
  C118     1.0000 0.99470  0.86820  0.63958  Biso   1.000  C
  C119     1.0000 0.92200  0.77970  0.64447  Biso   1.000  C
  C120     1.0000 0.87840  0.71980  0.62004  Biso   1.000  C
  C121     1.0000 0.90490  0.75300  0.59003  Biso   1.000  C
  C122     1.0000 0.90000  0.70810  0.43002  Biso   1.000  C
  C123     1.0000 0.77470  0.71920  0.47507  Biso   1.000  C
  C124     1.0000 0.96050  0.62170  0.47756  Biso   1.000  C
  C125     1.0000 0.71280  0.61010  0.43155  Biso   1.000  C
  C126     1.0000 0.77560  0.52450  0.47930  Biso   1.000  C
  C127     1.0000 0.89920  0.51220  0.43448  Biso   1.000  C
  C128     1.0000 0.78770  0.50800  0.30179  Biso   1.000  C
  C129     1.0000 0.78240  0.70410  0.30498  Biso   1.000  C
  C130     1.0000 0.97340  0.61030  0.30437  Biso   1.000  C
  C131     1.0000 0.72660  0.61560  0.25783  Biso   1.000  C
  C132     1.0000 0.91710  0.52200  0.25690  Biso   1.000  C
  C133     1.0000 0.91240  0.71770  0.26041  Biso   1.000  C
  C134     1.0000 0.00280  0.61750  0.05164  Biso   1.000  C
  C135     1.0000 0.02490  0.65500  0.08447  Biso   1.000  C
  C136     1.0000 0.98010  0.59990  0.10965  Biso   1.000  C
  C137     1.0000 0.00530  0.63180  0.13958  Biso   1.000  C
  C138     1.0000 0.07800  0.72030  0.14447  Biso   1.000  C
  C139     1.0000 0.12160  0.78020  0.12004  Biso   1.000  C
  C140     1.0000 0.09510  0.74700  0.09003  Biso   1.000  C
  C141     1.0000 0.10000  0.79190  0.93002  Biso   1.000  C
  C142     1.0000 0.22530  0.78080  0.97507  Biso   1.000  C
  C143     1.0000 0.03950  0.87830  0.97756  Biso   1.000  C
  C144     1.0000 0.28720  0.88990  0.93155  Biso   1.000  C
  C145     1.0000 0.22440  0.97550  0.97930  Biso   1.000  C
  C146     1.0000 0.10080  0.98780  0.93448  Biso   1.000  C
  C147     1.0000 0.21230  0.99200  0.80179  Biso   1.000  C
  C148     1.0000 0.21760  0.79590  0.80498  Biso   1.000  C
  C149     1.0000 0.02660  0.88970  0.80437  Biso   1.000  C
  C150     1.0000 0.27340  0.88440  0.75783  Biso   1.000  C
  C151     1.0000 0.08290  0.97800  0.75690  Biso   1.000  C
  C152     1.0000 0.08760  0.78230  0.76041  Biso   1.000  C
  S1       1.0000 0.61271  0.73850  0.18313  Biso   1.000  S
  S2       1.0000 0.38729  0.76150  0.68313  Biso   1.000  S
  S3       1.0000 0.11271  0.26150  0.31687  Biso   1.000  S
  S4       1.0000 0.88729  0.23850  0.81687  Biso   1.000  S
  S5       1.0000 0.38729  0.26150  0.81687  Biso   1.000  S
  S6       1.0000 0.61271  0.23850  0.31687  Biso   1.000  S
  S7       1.0000 0.88729  0.73850  0.68313  Biso   1.000  S
  S8       1.0000 0.11271  0.76150  0.18313  Biso   1.000  S
  N1       1.0000 0.59970  0.71790  0.96403  Biso   1.000  N
  N2       1.0000 0.66160  0.60690  0.91958  Biso   1.000  N
  N3       1.0000 0.79120  0.61970  0.96578  Biso   1.000  N
  N4       1.0000 0.60020  0.52110  0.96825  Biso   1.000  N
  N5       1.0000 0.65300  0.60530  0.81598  Biso   1.000  N
  N6       1.0000 0.71540  0.71370  0.77093  Biso   1.000  N
  N7       1.0000 0.71060  0.51540  0.76734  Biso   1.000  N
  N8       1.0000 0.52210  0.61870  0.77029  Biso   1.000  N
  N9       1.0000 0.40030  0.78210  0.46403  Biso   1.000  N
  N10      1.0000 0.33840  0.89310  0.41958  Biso   1.000  N
  N11      1.0000 0.20880  0.88030  0.46578  Biso   1.000  N
  N12      1.0000 0.39980  0.97890  0.46825  Biso   1.000  N
  N13      1.0000 0.34700  0.89470  0.31598  Biso   1.000  N
  N14      1.0000 0.28460  0.78630  0.27093  Biso   1.000  N
  N15      1.0000 0.28940  0.98460  0.26734  Biso   1.000  N
  N16      1.0000 0.47790  0.88130  0.27029  Biso   1.000  N
  N17      1.0000 0.09970  0.28210  0.53597  Biso   1.000  N
  N18      1.0000 0.16160  0.39310  0.58042  Biso   1.000  N
  N19      1.0000 0.29120  0.38030  0.53422  Biso   1.000  N
  N20      1.0000 0.10020  0.47890  0.53175  Biso   1.000  N
  N21      1.0000 0.15300  0.39470  0.68402  Biso   1.000  N
  N22      1.0000 0.21540  0.28630  0.72907  Biso   1.000  N
  N23      1.0000 0.21060  0.48460  0.73266  Biso   1.000  N
  N24      1.0000 0.02210  0.38130  0.72971  Biso   1.000  N
  N25      1.0000 0.90030  0.21790  0.03597  Biso   1.000  N
  N26      1.0000 0.83840  0.10690  0.08042  Biso   1.000  N
  N27      1.0000 0.70880  0.11970  0.03422  Biso   1.000  N
  N28      1.0000 0.89980  0.02110  0.03175  Biso   1.000  N
  N29      1.0000 0.84700  0.10530  0.18402  Biso   1.000  N
  N30      1.0000 0.78460  0.21370  0.22907  Biso   1.000  N
  N31      1.0000 0.78940  0.01540  0.23266  Biso   1.000  N
  N32      1.0000 0.97790  0.11870  0.22971  Biso   1.000  N
  N33      1.0000 0.40030  0.28210  0.03597  Biso   1.000  N
  N34      1.0000 0.33840  0.39310  0.08042  Biso   1.000  N
  N35      1.0000 0.20880  0.38030  0.03422  Biso   1.000  N
  N36      1.0000 0.39980  0.47890  0.03175  Biso   1.000  N
  N37      1.0000 0.34700  0.39470  0.18402  Biso   1.000  N
  N38      1.0000 0.28460  0.28630  0.22907  Biso   1.000  N
  N39      1.0000 0.28940  0.48460  0.23266  Biso   1.000  N
  N40      1.0000 0.47790  0.38130  0.22971  Biso   1.000  N
  N41      1.0000 0.59970  0.21790  0.53597  Biso   1.000  N
  N42      1.0000 0.66160  0.10690  0.58042  Biso   1.000  N
  N43      1.0000 0.79120  0.11970  0.53422  Biso   1.000  N
  N44      1.0000 0.60020  0.02110  0.53175  Biso   1.000  N
  N45      1.0000 0.65300  0.10530  0.68402  Biso   1.000  N
  N46      1.0000 0.71540  0.21370  0.72907  Biso   1.000  N
  N47      1.0000 0.71060  0.01540  0.73266  Biso   1.000  N
  N48      1.0000 0.52210  0.11870  0.72971  Biso   1.000  N
  N49      1.0000 0.90030  0.71790  0.46403  Biso   1.000  N
  N50      1.0000 0.83840  0.60690  0.41958  Biso   1.000  N
  N51      1.0000 0.70880  0.61970  0.46578  Biso   1.000  N
  N52      1.0000 0.89980  0.52110  0.46825  Biso   1.000  N
  N53      1.0000 0.84700  0.60530  0.31598  Biso   1.000  N
  N54      1.0000 0.78460  0.71370  0.27093  Biso   1.000  N
  N55      1.0000 0.78940  0.51540  0.26734  Biso   1.000  N
  N56      1.0000 0.97790  0.61870  0.27029  Biso   1.000  N
  N57      1.0000 0.09970  0.78210  0.96403  Biso   1.000  N
  N58      1.0000 0.16160  0.89310  0.91958  Biso   1.000  N
  N59      1.0000 0.29120  0.88030  0.96578  Biso   1.000  N
  N60      1.0000 0.10020  0.97890  0.96825  Biso   1.000  N
  N61      1.0000 0.15300  0.89470  0.81598  Biso   1.000  N
  N62      1.0000 0.21540  0.78630  0.77093  Biso   1.000  N
  N63      1.0000 0.21060  0.98460  0.76734  Biso   1.000  N
  N64      1.0000 0.02210  0.88130  0.77029  Biso   1.000  N
  O1       1.0000 0.55310  0.83100  0.03014  Biso   1.000  O
  O2       1.0000 0.43830  0.96590  0.04821  Biso   1.000  O
  O3       1.0000 0.58580  0.83110  0.20282  Biso   1.000  O
  O4       1.0000 0.73950  0.70980  0.18310  Biso   1.000  O
  O5       1.0000 0.53690  0.64580  0.18969  Biso   1.000  O
  O6       1.0000 0.44690  0.66900  0.53014  Biso   1.000  O
  O7       1.0000 0.56170  0.53410  0.54821  Biso   1.000  O
  O8       1.0000 0.41420  0.66890  0.70282  Biso   1.000  O
  O9       1.0000 0.26050  0.79020  0.68310  Biso   1.000  O
  O10      1.0000 0.46310  0.85420  0.68969  Biso   1.000  O
  O11      1.0000 0.05310  0.16900  0.46986  Biso   1.000  O
  O12      1.0000 0.93830  0.03410  0.45179  Biso   1.000  O
  O13      1.0000 0.08580  0.16890  0.29718  Biso   1.000  O
  O14      1.0000 0.23950  0.29020  0.31690  Biso   1.000  O
  O15      1.0000 0.03690  0.35420  0.31031  Biso   1.000  O
  O16      1.0000 0.94690  0.33100  0.96986  Biso   1.000  O
  O17      1.0000 0.06170  0.46590  0.95179  Biso   1.000  O
  O18      1.0000 0.91420  0.33110  0.79718  Biso   1.000  O
  O19      1.0000 0.76050  0.20980  0.81690  Biso   1.000  O
  O20      1.0000 0.96310  0.14580  0.81031  Biso   1.000  O
  O21      1.0000 0.44690  0.16900  0.96986  Biso   1.000  O
  O22      1.0000 0.56170  0.03410  0.95179  Biso   1.000  O
  O23      1.0000 0.41420  0.16890  0.79718  Biso   1.000  O
  O24      1.0000 0.26050  0.29020  0.81690  Biso   1.000  O
  O25      1.0000 0.46310  0.35420  0.81031  Biso   1.000  O
  O26      1.0000 0.55310  0.33100  0.46986  Biso   1.000  O
  O27      1.0000 0.43830  0.46590  0.45179  Biso   1.000  O
  O28      1.0000 0.58580  0.33110  0.29718  Biso   1.000  O
  O29      1.0000 0.73950  0.20980  0.31690  Biso   1.000  O
  O30      1.0000 0.53690  0.14580  0.31031  Biso   1.000  O
  O31      1.0000 0.94690  0.83100  0.53014  Biso   1.000  O
  O32      1.0000 0.06170  0.96590  0.54821  Biso   1.000  O
  O33      1.0000 0.91420  0.83110  0.70282  Biso   1.000  O
  O34      1.0000 0.76050  0.70980  0.68310  Biso   1.000  O
  O35      1.0000 0.96310  0.64580  0.68969  Biso   1.000  O
  O36      1.0000 0.05310  0.66900  0.03014  Biso   1.000  O
  O37      1.0000 0.93830  0.53410  0.04821  Biso   1.000  O
  O38      1.0000 0.08580  0.66890  0.20282  Biso   1.000  O
  O39      1.0000 0.23950  0.79020  0.18310  Biso   1.000  O
  O40      1.0000 0.03690  0.85420  0.18969  Biso   1.000  O
