data_image0
_cell_length_a       11.248
_cell_length_b       14.945
_cell_length_c       16.801
_cell_angle_alpha    90
_cell_angle_beta     90
_cell_angle_gamma    103.732

_symmetry_space_group_name_H-M    P 1
_symmetry_int_tables_number       1

loop_
  _symmetry_equiv_pos_as_xyz
  'x, y, z'

loop_
  _atom_site_label
  _atom_site_occupancy
  _atom_site_fract_x
  _atom_site_fract_y
  _atom_site_fract_z
  _atom_site_thermal_displace_type
  _atom_site_B_iso_or_equiv
  _atom_site_type_symbol
  Ni1      1.0000 0.01458  0.86709  0.04010  Biso   1.000  Ni
  Ni2      1.0000 0.98542  0.63291  0.54010  Biso   1.000  Ni
  Ni3      1.0000 0.98542  0.13291  0.95990  Biso   1.000  Ni
  Ni4      1.0000 0.01458  0.36709  0.45990  Biso   1.000  Ni
  H1       1.0000 0.96920  0.34040  0.04120  Biso   1.000  H
  H2       1.0000 0.82720  0.92280  0.14590  Biso   1.000  H
  H3       1.0000 0.78840  0.79000  0.94230  Biso   1.000  H
  H4       1.0000 0.62570  0.93270  0.14410  Biso   1.000  H
  H5       1.0000 0.58380  0.79660  0.93510  Biso   1.000  H
  H6       1.0000 0.44840  0.93800  0.14180  Biso   1.000  H
  H7       1.0000 0.40650  0.81120  0.92940  Biso   1.000  H
  H8       1.0000 0.24380  0.94030  0.13710  Biso   1.000  H
  H9       1.0000 0.20070  0.81400  0.93350  Biso   1.000  H
  H10      1.0000 0.00910  0.56290  0.07220  Biso   1.000  H
  H11      1.0000 0.00130  0.69690  0.28120  Biso   1.000  H
  H12      1.0000 0.05040  0.43670  0.28130  Biso   1.000  H
  H13      1.0000 0.03080  0.15960  0.54120  Biso   1.000  H
  H14      1.0000 0.17280  0.57720  0.64590  Biso   1.000  H
  H15      1.0000 0.21160  0.71000  0.44230  Biso   1.000  H
  H16      1.0000 0.37430  0.56730  0.64410  Biso   1.000  H
  H17      1.0000 0.41620  0.70340  0.43510  Biso   1.000  H
  H18      1.0000 0.55160  0.56200  0.64180  Biso   1.000  H
  H19      1.0000 0.59350  0.68880  0.42940  Biso   1.000  H
  H20      1.0000 0.75620  0.55970  0.63710  Biso   1.000  H
  H21      1.0000 0.79930  0.68600  0.43350  Biso   1.000  H
  H22      1.0000 0.99090  0.93710  0.57220  Biso   1.000  H
  H23      1.0000 0.99870  0.80310  0.78120  Biso   1.000  H
  H24      1.0000 0.94960  0.06330  0.78130  Biso   1.000  H
  H25      1.0000 0.03080  0.65960  0.95880  Biso   1.000  H
  H26      1.0000 0.17280  0.07720  0.85410  Biso   1.000  H
  H27      1.0000 0.21160  0.21000  0.05770  Biso   1.000  H
  H28      1.0000 0.37430  0.06730  0.85590  Biso   1.000  H
  H29      1.0000 0.41620  0.20340  0.06490  Biso   1.000  H
  H30      1.0000 0.55160  0.06200  0.85820  Biso   1.000  H
  H31      1.0000 0.59350  0.18880  0.07060  Biso   1.000  H
  H32      1.0000 0.75620  0.05970  0.86290  Biso   1.000  H
  H33      1.0000 0.79930  0.18600  0.06650  Biso   1.000  H
  H34      1.0000 0.99090  0.43710  0.92780  Biso   1.000  H
  H35      1.0000 0.99870  0.30310  0.71880  Biso   1.000  H
  H36      1.0000 0.94960  0.56330  0.71870  Biso   1.000  H
  H37      1.0000 0.96920  0.84040  0.45880  Biso   1.000  H
  H38      1.0000 0.82720  0.42280  0.35410  Biso   1.000  H
  H39      1.0000 0.78840  0.29000  0.55770  Biso   1.000  H
  H40      1.0000 0.62570  0.43270  0.35590  Biso   1.000  H
  H41      1.0000 0.58380  0.29660  0.56490  Biso   1.000  H
  H42      1.0000 0.44840  0.43800  0.35820  Biso   1.000  H
  H43      1.0000 0.40650  0.31120  0.57060  Biso   1.000  H
  H44      1.0000 0.24380  0.44030  0.36290  Biso   1.000  H
  H45      1.0000 0.20070  0.31400  0.56650  Biso   1.000  H
  H46      1.0000 0.00910  0.06290  0.42780  Biso   1.000  H
  H47      1.0000 0.00130  0.19690  0.21880  Biso   1.000  H
  H48      1.0000 0.05040  0.93670  0.21870  Biso   1.000  H
  C1       1.0000 0.77730  0.89740  0.10200  Biso   1.000  C
  C2       1.0000 0.75510  0.82010  0.98360  Biso   1.000  C
  C3       1.0000 0.65730  0.90370  0.10140  Biso   1.000  C
  C4       1.0000 0.63260  0.82390  0.97880  Biso   1.000  C
  C5       1.0000 0.58300  0.86720  0.03780  Biso   1.000  C
  C6       1.0000 0.45120  0.87140  0.03720  Biso   1.000  C
  C7       1.0000 0.39990  0.91110  0.09770  Biso   1.000  C
  C8       1.0000 0.37520  0.83680  0.97420  Biso   1.000  C
  C9       1.0000 0.27650  0.91190  0.09450  Biso   1.000  C
  C10      1.0000 0.25150  0.83960  0.97690  Biso   1.000  C
  C11      1.0000 0.02200  0.56210  0.38400  Biso   1.000  C
  C12      1.0000 0.00790  0.64330  0.16910  Biso   1.000  C
  C13      1.0000 0.01440  0.56420  0.12870  Biso   1.000  C
  C14      1.0000 0.00950  0.64380  0.25270  Biso   1.000  C
  C15      1.0000 0.02860  0.48610  0.16960  Biso   1.000  C
  C16      1.0000 0.02310  0.56590  0.29310  Biso   1.000  C
  C17      1.0000 0.03630  0.48810  0.25290  Biso   1.000  C
  C18      1.0000 0.03780  0.40170  0.12660  Biso   1.000  C
  C19      1.0000 0.00000  0.72700  0.12350  Biso   1.000  C
  C20      1.0000 0.22270  0.60260  0.60200  Biso   1.000  C
  C21      1.0000 0.24490  0.67990  0.48360  Biso   1.000  C
  C22      1.0000 0.34270  0.59630  0.60140  Biso   1.000  C
  C23      1.0000 0.36740  0.67610  0.47880  Biso   1.000  C
  C24      1.0000 0.41700  0.63280  0.53780  Biso   1.000  C
  C25      1.0000 0.54880  0.62860  0.53720  Biso   1.000  C
  C26      1.0000 0.60010  0.58890  0.59770  Biso   1.000  C
  C27      1.0000 0.62480  0.66320  0.47420  Biso   1.000  C
  C28      1.0000 0.72350  0.58810  0.59450  Biso   1.000  C
  C29      1.0000 0.74850  0.66040  0.47690  Biso   1.000  C
  C30      1.0000 0.97800  0.93790  0.88400  Biso   1.000  C
  C31      1.0000 0.99210  0.85670  0.66910  Biso   1.000  C
  C32      1.0000 0.98560  0.93580  0.62870  Biso   1.000  C
  C33      1.0000 0.99050  0.85620  0.75270  Biso   1.000  C
  C34      1.0000 0.97140  0.01390  0.66960  Biso   1.000  C
  C35      1.0000 0.97690  0.93410  0.79310  Biso   1.000  C
  C36      1.0000 0.96370  0.01190  0.75290  Biso   1.000  C
  C37      1.0000 0.96220  0.09830  0.62660  Biso   1.000  C
  C38      1.0000 0.00000  0.77300  0.62350  Biso   1.000  C
  C39      1.0000 0.22270  0.10260  0.89800  Biso   1.000  C
  C40      1.0000 0.24490  0.17990  0.01640  Biso   1.000  C
  C41      1.0000 0.34270  0.09630  0.89860  Biso   1.000  C
  C42      1.0000 0.36740  0.17610  0.02120  Biso   1.000  C
  C43      1.0000 0.41700  0.13280  0.96220  Biso   1.000  C
  C44      1.0000 0.54880  0.12860  0.96280  Biso   1.000  C
  C45      1.0000 0.60010  0.08890  0.90230  Biso   1.000  C
  C46      1.0000 0.62480  0.16320  0.02580  Biso   1.000  C
  C47      1.0000 0.72350  0.08810  0.90550  Biso   1.000  C
  C48      1.0000 0.74850  0.16040  0.02310  Biso   1.000  C
  C49      1.0000 0.97800  0.43790  0.61600  Biso   1.000  C
  C50      1.0000 0.99210  0.35670  0.83090  Biso   1.000  C
  C51      1.0000 0.98560  0.43580  0.87130  Biso   1.000  C
  C52      1.0000 0.99050  0.35620  0.74730  Biso   1.000  C
  C53      1.0000 0.97140  0.51390  0.83040  Biso   1.000  C
  C54      1.0000 0.97690  0.43410  0.70690  Biso   1.000  C
  C55      1.0000 0.96370  0.51190  0.74710  Biso   1.000  C
  C56      1.0000 0.96220  0.59830  0.87340  Biso   1.000  C
  C57      1.0000 0.00000  0.27300  0.87650  Biso   1.000  C
  C58      1.0000 0.77730  0.39740  0.39800  Biso   1.000  C
  C59      1.0000 0.75510  0.32010  0.51640  Biso   1.000  C
  C60      1.0000 0.65730  0.40370  0.39860  Biso   1.000  C
  C61      1.0000 0.63260  0.32390  0.52120  Biso   1.000  C
  C62      1.0000 0.58300  0.36720  0.46220  Biso   1.000  C
  C63      1.0000 0.45120  0.37140  0.46280  Biso   1.000  C
  C64      1.0000 0.39990  0.41110  0.40230  Biso   1.000  C
  C65      1.0000 0.37520  0.33680  0.52580  Biso   1.000  C
  C66      1.0000 0.27650  0.41190  0.40550  Biso   1.000  C
  C67      1.0000 0.25150  0.33960  0.52310  Biso   1.000  C
  C68      1.0000 0.02200  0.06210  0.11600  Biso   1.000  C
  C69      1.0000 0.00790  0.14330  0.33090  Biso   1.000  C
  C70      1.0000 0.01440  0.06420  0.37130  Biso   1.000  C
  C71      1.0000 0.00950  0.14380  0.24730  Biso   1.000  C
  C72      1.0000 0.02860  0.98610  0.33040  Biso   1.000  C
  C73      1.0000 0.02310  0.06590  0.20690  Biso   1.000  C
  C74      1.0000 0.03630  0.98810  0.24710  Biso   1.000  C
  C75      1.0000 0.03780  0.90170  0.37340  Biso   1.000  C
  C76      1.0000 0.00000  0.22700  0.37650  Biso   1.000  C
  N1       1.0000 0.82740  0.85730  0.04400  Biso   1.000  N
  N2       1.0000 0.20150  0.87550  0.03580  Biso   1.000  N
  N3       1.0000 0.17260  0.64270  0.54400  Biso   1.000  N
  N4       1.0000 0.79850  0.62450  0.53580  Biso   1.000  N
  N5       1.0000 0.17260  0.14270  0.95600  Biso   1.000  N
  N6       1.0000 0.79850  0.12450  0.96420  Biso   1.000  N
  N7       1.0000 0.82740  0.35730  0.45600  Biso   1.000  N
  N8       1.0000 0.20150  0.37550  0.46420  Biso   1.000  N
  O1       1.0000 0.00910  0.80210  0.15730  Biso   1.000  O
  O2       1.0000 0.98720  0.72250  0.04730  Biso   1.000  O
  O3       1.0000 0.98520  0.62370  0.42030  Biso   1.000  O
  O4       1.0000 0.05660  0.49660  0.41530  Biso   1.000  O
  O5       1.0000 0.09180  0.34720  0.15060  Biso   1.000  O
  O6       1.0000 0.97690  0.39380  0.05940  Biso   1.000  O
  O7       1.0000 0.99090  0.69790  0.65730  Biso   1.000  O
  O8       1.0000 0.01280  0.77750  0.54730  Biso   1.000  O
  O9       1.0000 0.01480  0.87630  0.92030  Biso   1.000  O
  O10      1.0000 0.94340  0.00340  0.91530  Biso   1.000  O
  O11      1.0000 0.90820  0.15280  0.65060  Biso   1.000  O
  O12      1.0000 0.02310  0.10620  0.55940  Biso   1.000  O
  O13      1.0000 0.99090  0.19790  0.84270  Biso   1.000  O
  O14      1.0000 0.01280  0.27750  0.95270  Biso   1.000  O
  O15      1.0000 0.01480  0.37630  0.57970  Biso   1.000  O
  O16      1.0000 0.94340  0.50340  0.58470  Biso   1.000  O
  O17      1.0000 0.90820  0.65280  0.84940  Biso   1.000  O
  O18      1.0000 0.02310  0.60620  0.94060  Biso   1.000  O
  O19      1.0000 0.00910  0.30210  0.34270  Biso   1.000  O
  O20      1.0000 0.98720  0.22250  0.45270  Biso   1.000  O
  O21      1.0000 0.98520  0.12370  0.07970  Biso   1.000  O
  O22      1.0000 0.05660  0.99660  0.08470  Biso   1.000  O
  O23      1.0000 0.09180  0.84720  0.34940  Biso   1.000  O
  O24      1.0000 0.97690  0.89380  0.44060  Biso   1.000  O
