data_image0
_cell_length_a       9.9292
_cell_length_b       11.3834
_cell_length_c       14.4324
_cell_angle_alpha    91.25
_cell_angle_beta     90
_cell_angle_gamma    90

_symmetry_space_group_name_H-M    P 1
_symmetry_int_tables_number       1

loop_
  _symmetry_equiv_pos_as_xyz
  'x, y, z'

loop_
  _atom_site_label
  _atom_site_occupancy
  _atom_site_fract_x
  _atom_site_fract_y
  _atom_site_fract_z
  _atom_site_thermal_displace_type
  _atom_site_B_iso_or_equiv
  _atom_site_type_symbol
  Co1      1.0000 0.92079  0.75477  0.63339  Biso   1.000  Co
  Co2      1.0000 0.61236  0.76069  0.68972  Biso   1.000  Co
  Co3      1.0000 0.42079  0.74523  0.86661  Biso   1.000  Co
  Co4      1.0000 0.11236  0.73931  0.81028  Biso   1.000  Co
  Co5      1.0000 0.07921  0.24523  0.36661  Biso   1.000  Co
  Co6      1.0000 0.38764  0.23931  0.31028  Biso   1.000  Co
  Co7      1.0000 0.57921  0.25477  0.13339  Biso   1.000  Co
  Co8      1.0000 0.88764  0.26069  0.18972  Biso   1.000  Co
  Co9      1.0000 0.00000  0.50000  0.50000  Biso   1.000  Co
  Co10     1.0000 0.50000  0.00000  0.00000  Biso   1.000  Co
  Co11     1.0000 0.00000  0.00000  0.50000  Biso   1.000  Co
  Co12     1.0000 0.50000  0.50000  0.00000  Biso   1.000  Co
  H1       1.0000 0.61840  0.56140  0.53750  Biso   1.000  H
  H2       1.0000 0.21210  0.96670  0.72570  Biso   1.000  H
  H3       1.0000 0.75560  0.84190  0.87450  Biso   1.000  H
  H4       1.0000 0.96100  0.52430  0.23260  Biso   1.000  H
  H5       1.0000 0.71350  0.00500  0.52060  Biso   1.000  H
  H6       1.0000 0.15670  0.69600  0.42670  Biso   1.000  H
  H7       1.0000 0.11840  0.93860  0.96250  Biso   1.000  H
  H8       1.0000 0.71210  0.53330  0.77430  Biso   1.000  H
  H9       1.0000 0.25560  0.65810  0.62550  Biso   1.000  H
  H10      1.0000 0.46100  0.97570  0.26740  Biso   1.000  H
  H11      1.0000 0.21350  0.49500  0.97940  Biso   1.000  H
  H12      1.0000 0.65670  0.80400  0.07330  Biso   1.000  H
  H13      1.0000 0.38160  0.43860  0.46250  Biso   1.000  H
  H14      1.0000 0.78790  0.03330  0.27430  Biso   1.000  H
  H15      1.0000 0.24440  0.15810  0.12550  Biso   1.000  H
  H16      1.0000 0.03900  0.47570  0.76740  Biso   1.000  H
  H17      1.0000 0.28650  0.99500  0.47940  Biso   1.000  H
  H18      1.0000 0.84330  0.30400  0.57330  Biso   1.000  H
  H19      1.0000 0.88160  0.06140  0.03750  Biso   1.000  H
  H20      1.0000 0.28790  0.46670  0.22570  Biso   1.000  H
  H21      1.0000 0.74440  0.34190  0.37450  Biso   1.000  H
  H22      1.0000 0.53900  0.02430  0.73260  Biso   1.000  H
  H23      1.0000 0.78650  0.50500  0.02060  Biso   1.000  H
  H24      1.0000 0.34330  0.19600  0.92670  Biso   1.000  H
  C1       1.0000 0.71315  0.57787  0.54659  Biso   1.000  C
  C2       1.0000 0.14127  0.94519  0.68199  Biso   1.000  C
  C3       1.0000 0.82832  0.81731  0.83439  Biso   1.000  C
  C4       1.0000 0.98465  0.48263  0.28882  Biso   1.000  C
  C5       1.0000 0.72700  0.93782  0.55971  Biso   1.000  C
  C6       1.0000 0.10027  0.74107  0.46598  Biso   1.000  C
  C7       1.0000 0.21315  0.92213  0.95341  Biso   1.000  C
  C8       1.0000 0.64127  0.55481  0.81801  Biso   1.000  C
  C9       1.0000 0.32832  0.68269  0.66561  Biso   1.000  C
  C10      1.0000 0.48465  0.01737  0.21118  Biso   1.000  C
  C11      1.0000 0.22700  0.56218  0.94029  Biso   1.000  C
  C12      1.0000 0.60027  0.75893  0.03402  Biso   1.000  C
  C13      1.0000 0.28685  0.42213  0.45341  Biso   1.000  C
  C14      1.0000 0.85873  0.05481  0.31801  Biso   1.000  C
  C15      1.0000 0.17168  0.18269  0.16561  Biso   1.000  C
  C16      1.0000 0.01535  0.51737  0.71118  Biso   1.000  C
  C17      1.0000 0.27300  0.06218  0.44029  Biso   1.000  C
  C18      1.0000 0.89973  0.25893  0.53402  Biso   1.000  C
  C19      1.0000 0.78685  0.07787  0.04659  Biso   1.000  C
  C20      1.0000 0.35873  0.44519  0.18199  Biso   1.000  C
  C21      1.0000 0.67168  0.31731  0.33439  Biso   1.000  C
  C22      1.0000 0.51535  0.98263  0.78882  Biso   1.000  C
  C23      1.0000 0.77300  0.43782  0.05971  Biso   1.000  C
  C24      1.0000 0.39973  0.24107  0.96598  Biso   1.000  C
  O1       1.0000 0.74361  0.65726  0.60745  Biso   1.000  O
  O2       1.0000 0.79361  0.52141  0.49767  Biso   1.000  O
  O3       1.0000 0.08101  0.84815  0.69652  Biso   1.000  O
  O4       1.0000 0.12041  0.01103  0.61665  Biso   1.000  O
  O5       1.0000 0.93986  0.80293  0.87131  Biso   1.000  O
  O6       1.0000 0.80146  0.80416  0.74808  Biso   1.000  O
  O7       1.0000 0.99363  0.37098  0.28183  Biso   1.000  O
  O8       1.0000 0.00174  0.54271  0.35996  Biso   1.000  O
  O9       1.0000 0.62675  0.89506  0.59790  Biso   1.000  O
  O10      1.0000 0.84835  0.90135  0.56570  Biso   1.000  O
  O11      1.0000 0.10352  0.84909  0.45843  Biso   1.000  O
  O12      1.0000 0.02564  0.68478  0.52269  Biso   1.000  O
  O13      1.0000 0.24361  0.84274  0.89255  Biso   1.000  O
  O14      1.0000 0.29361  0.97859  0.00233  Biso   1.000  O
  O15      1.0000 0.58101  0.65185  0.80348  Biso   1.000  O
  O16      1.0000 0.62041  0.48897  0.88335  Biso   1.000  O
  O17      1.0000 0.43986  0.69707  0.62869  Biso   1.000  O
  O18      1.0000 0.30146  0.69584  0.75192  Biso   1.000  O
  O19      1.0000 0.49363  0.12902  0.21817  Biso   1.000  O
  O20      1.0000 0.50174  0.95729  0.14004  Biso   1.000  O
  O21      1.0000 0.12675  0.60494  0.90210  Biso   1.000  O
  O22      1.0000 0.34835  0.59865  0.93430  Biso   1.000  O
  O23      1.0000 0.60352  0.65091  0.04157  Biso   1.000  O
  O24      1.0000 0.52564  0.81522  0.97731  Biso   1.000  O
  O25      1.0000 0.25639  0.34274  0.39255  Biso   1.000  O
  O26      1.0000 0.20639  0.47859  0.50233  Biso   1.000  O
  O27      1.0000 0.91899  0.15185  0.30348  Biso   1.000  O
  O28      1.0000 0.87959  0.98897  0.38335  Biso   1.000  O
  O29      1.0000 0.06014  0.19707  0.12869  Biso   1.000  O
  O30      1.0000 0.19854  0.19584  0.25192  Biso   1.000  O
  O31      1.0000 0.00637  0.62902  0.71817  Biso   1.000  O
  O32      1.0000 0.99826  0.45729  0.64004  Biso   1.000  O
  O33      1.0000 0.37325  0.10494  0.40210  Biso   1.000  O
  O34      1.0000 0.15165  0.09865  0.43430  Biso   1.000  O
  O35      1.0000 0.89648  0.15091  0.54157  Biso   1.000  O
  O36      1.0000 0.97436  0.31522  0.47731  Biso   1.000  O
  O37      1.0000 0.75639  0.15726  0.10745  Biso   1.000  O
  O38      1.0000 0.70639  0.02141  0.99767  Biso   1.000  O
  O39      1.0000 0.41899  0.34815  0.19652  Biso   1.000  O
  O40      1.0000 0.37959  0.51103  0.11665  Biso   1.000  O
  O41      1.0000 0.56014  0.30293  0.37131  Biso   1.000  O
  O42      1.0000 0.69854  0.30416  0.24808  Biso   1.000  O
  O43      1.0000 0.50637  0.87098  0.78183  Biso   1.000  O
  O44      1.0000 0.49826  0.04271  0.85996  Biso   1.000  O
  O45      1.0000 0.87325  0.39506  0.09790  Biso   1.000  O
  O46      1.0000 0.65165  0.40135  0.06570  Biso   1.000  O
  O47      1.0000 0.39648  0.34909  0.95843  Biso   1.000  O
  O48      1.0000 0.47436  0.18478  0.02269  Biso   1.000  O
