data_image0
_cell_length_a       10.076
_cell_length_b       11.418
_cell_length_c       14.908
_cell_angle_alpha    91.42
_cell_angle_beta     90
_cell_angle_gamma    90

_symmetry_space_group_name_H-M    P 1
_symmetry_int_tables_number       1

loop_
  _symmetry_equiv_pos_as_xyz
  'x, y, z'

loop_
  _atom_site_label
  _atom_site_occupancy
  _atom_site_fract_x
  _atom_site_fract_y
  _atom_site_fract_z
  _atom_site_thermal_displace_type
  _atom_site_B_iso_or_equiv
  _atom_site_type_symbol
  Co1      1.0000 0.87754  0.73947  0.30475  Biso   1.000  Co
  Co2      1.0000 0.07254  0.75492  0.13403  Biso   1.000  Co
  Co3      1.0000 0.37754  0.76053  0.19525  Biso   1.000  Co
  Co4      1.0000 0.57254  0.74508  0.36597  Biso   1.000  Co
  Co5      1.0000 0.12246  0.26053  0.69525  Biso   1.000  Co
  Co6      1.0000 0.92746  0.24508  0.86597  Biso   1.000  Co
  Co7      1.0000 0.62246  0.23947  0.80475  Biso   1.000  Co
  Co8      1.0000 0.42746  0.25492  0.63403  Biso   1.000  Co
  Co9      1.0000 0.00000  0.00000  0.00000  Biso   1.000  Co
  Co10     1.0000 0.50000  0.50000  0.50000  Biso   1.000  Co
  Co11     1.0000 0.00000  0.50000  0.00000  Biso   1.000  Co
  Co12     1.0000 0.50000  0.00000  0.50000  Biso   1.000  Co
  H1       1.0000 0.77910  0.96410  0.21200  Biso   1.000  H
  H2       1.0000 0.85060  0.69660  0.92650  Biso   1.000  H
  H3       1.0000 0.94920  0.47710  0.25700  Biso   1.000  H
  H4       1.0000 0.78270  0.49570  0.46690  Biso   1.000  H
  H5       1.0000 0.72540  0.65360  0.13000  Biso   1.000  H
  H6       1.0000 0.87160  0.94070  0.44910  Biso   1.000  H
  H7       1.0000 0.27910  0.53590  0.28800  Biso   1.000  H
  H8       1.0000 0.35060  0.80340  0.57350  Biso   1.000  H
  H9       1.0000 0.44920  0.02290  0.24300  Biso   1.000  H
  H10      1.0000 0.28270  0.00430  0.03310  Biso   1.000  H
  H11      1.0000 0.22540  0.84640  0.37000  Biso   1.000  H
  H12      1.0000 0.37160  0.55930  0.05090  Biso   1.000  H
  H13      1.0000 0.22090  0.03590  0.78800  Biso   1.000  H
  H14      1.0000 0.14940  0.30340  0.07350  Biso   1.000  H
  H15      1.0000 0.05080  0.52290  0.74300  Biso   1.000  H
  H16      1.0000 0.21730  0.50430  0.53310  Biso   1.000  H
  H17      1.0000 0.27460  0.34640  0.87000  Biso   1.000  H
  H18      1.0000 0.12840  0.05930  0.55090  Biso   1.000  H
  H19      1.0000 0.72090  0.46410  0.71200  Biso   1.000  H
  H20      1.0000 0.64940  0.19660  0.42650  Biso   1.000  H
  H21      1.0000 0.55080  0.97710  0.75700  Biso   1.000  H
  H22      1.0000 0.71730  0.99570  0.96690  Biso   1.000  H
  H23      1.0000 0.77460  0.15360  0.63000  Biso   1.000  H
  H24      1.0000 0.62840  0.44070  0.94910  Biso   1.000  H
  C1       1.0000 0.84850  0.94180  0.17410  Biso   1.000  C
  C2       1.0000 0.90430  0.74110  0.96490  Biso   1.000  C
  C3       1.0000 0.97260  0.51760  0.20600  Biso   1.000  C
  C4       1.0000 0.76640  0.56110  0.43260  Biso   1.000  C
  C5       1.0000 0.65790  0.67880  0.16840  Biso   1.000  C
  C6       1.0000 0.78160  0.92340  0.44410  Biso   1.000  C
  C7       1.0000 0.34850  0.55820  0.32590  Biso   1.000  C
  C8       1.0000 0.40430  0.75890  0.53510  Biso   1.000  C
  C9       1.0000 0.47260  0.98240  0.29400  Biso   1.000  C
  C10      1.0000 0.26640  0.93890  0.06740  Biso   1.000  C
  C11      1.0000 0.15790  0.82120  0.33160  Biso   1.000  C
  C12      1.0000 0.28160  0.57660  0.05590  Biso   1.000  C
  C13      1.0000 0.15150  0.05820  0.82590  Biso   1.000  C
  C14      1.0000 0.09570  0.25890  0.03510  Biso   1.000  C
  C15      1.0000 0.02740  0.48240  0.79400  Biso   1.000  C
  C16      1.0000 0.23360  0.43890  0.56740  Biso   1.000  C
  C17      1.0000 0.34210  0.32120  0.83160  Biso   1.000  C
  C18      1.0000 0.21840  0.07660  0.55590  Biso   1.000  C
  C19      1.0000 0.65150  0.44180  0.67410  Biso   1.000  C
  C20      1.0000 0.59570  0.24110  0.46490  Biso   1.000  C
  C21      1.0000 0.52740  0.01760  0.70600  Biso   1.000  C
  C22      1.0000 0.73360  0.06110  0.93260  Biso   1.000  C
  C23      1.0000 0.84210  0.17880  0.66840  Biso   1.000  C
  C24      1.0000 0.71840  0.42340  0.94410  Biso   1.000  C
  O1       1.0000 0.87250  0.00630  0.11059  Biso   1.000  O
  O2       1.0000 0.91010  0.84749  0.19267  Biso   1.000  O
  O3       1.0000 0.90310  0.84845  0.95587  Biso   1.000  O
  O4       1.0000 0.97330  0.68510  0.02299  Biso   1.000  O
  O5       1.0000 0.98990  0.45850  0.13635  Biso   1.000  O
  O6       1.0000 0.98350  0.62869  0.21482  Biso   1.000  O
  O7       1.0000 0.86350  0.60340  0.39296  Biso   1.000  O
  O8       1.0000 0.64720  0.59820  0.43102  Biso   1.000  O
  O9       1.0000 0.68800  0.69502  0.25111  Biso   1.000  O
  O10      1.0000 0.54650  0.69390  0.13454  Biso   1.000  O
  O11      1.0000 0.74920  0.84304  0.38708  Biso   1.000  O
  O12      1.0000 0.70480  0.98088  0.49383  Biso   1.000  O
  O13      1.0000 0.37250  0.49370  0.38941  Biso   1.000  O
  O14      1.0000 0.41010  0.65251  0.30733  Biso   1.000  O
  O15      1.0000 0.40310  0.65155  0.54413  Biso   1.000  O
  O16      1.0000 0.47330  0.81490  0.47701  Biso   1.000  O
  O17      1.0000 0.48990  0.04150  0.36365  Biso   1.000  O
  O18      1.0000 0.48350  0.87131  0.28518  Biso   1.000  O
  O19      1.0000 0.36350  0.89660  0.10704  Biso   1.000  O
  O20      1.0000 0.14720  0.90180  0.06898  Biso   1.000  O
  O21      1.0000 0.18800  0.80498  0.24889  Biso   1.000  O
  O22      1.0000 0.04650  0.80610  0.36546  Biso   1.000  O
  O23      1.0000 0.24920  0.65696  0.11292  Biso   1.000  O
  O24      1.0000 0.20480  0.51912  0.00617  Biso   1.000  O
  O25      1.0000 0.12750  0.99370  0.88941  Biso   1.000  O
  O26      1.0000 0.08990  0.15251  0.80733  Biso   1.000  O
  O27      1.0000 0.09690  0.15155  0.04413  Biso   1.000  O
  O28      1.0000 0.02670  0.31490  0.97701  Biso   1.000  O
  O29      1.0000 0.01010  0.54150  0.86365  Biso   1.000  O
  O30      1.0000 0.01650  0.37131  0.78518  Biso   1.000  O
  O31      1.0000 0.13650  0.39660  0.60704  Biso   1.000  O
  O32      1.0000 0.35280  0.40180  0.56898  Biso   1.000  O
  O33      1.0000 0.31200  0.30498  0.74889  Biso   1.000  O
  O34      1.0000 0.45350  0.30610  0.86546  Biso   1.000  O
  O35      1.0000 0.25080  0.15696  0.61292  Biso   1.000  O
  O36      1.0000 0.29520  0.01912  0.50617  Biso   1.000  O
  O37      1.0000 0.62750  0.50630  0.61059  Biso   1.000  O
  O38      1.0000 0.58990  0.34749  0.69267  Biso   1.000  O
  O39      1.0000 0.59690  0.34845  0.45587  Biso   1.000  O
  O40      1.0000 0.52670  0.18510  0.52299  Biso   1.000  O
  O41      1.0000 0.51010  0.95850  0.63635  Biso   1.000  O
  O42      1.0000 0.51650  0.12869  0.71482  Biso   1.000  O
  O43      1.0000 0.63650  0.10340  0.89296  Biso   1.000  O
  O44      1.0000 0.85280  0.09820  0.93102  Biso   1.000  O
  O45      1.0000 0.81200  0.19502  0.75111  Biso   1.000  O
  O46      1.0000 0.95350  0.19390  0.63454  Biso   1.000  O
  O47      1.0000 0.75080  0.34304  0.88708  Biso   1.000  O
  O48      1.0000 0.79520  0.48088  0.99383  Biso   1.000  O
