data_image0
_cell_length_a       10.0117
_cell_length_b       11.3457
_cell_length_c       14.82
_cell_angle_alpha    91.372
_cell_angle_beta     90
_cell_angle_gamma    90

_symmetry_space_group_name_H-M    P 1
_symmetry_int_tables_number       1

loop_
  _symmetry_equiv_pos_as_xyz
  'x, y, z'

loop_
  _atom_site_label
  _atom_site_occupancy
  _atom_site_fract_x
  _atom_site_fract_y
  _atom_site_fract_z
  _atom_site_thermal_displace_type
  _atom_site_B_iso_or_equiv
  _atom_site_type_symbol
  Co1      1.0000 0.57237  0.75491  0.63408  Biso   1.000  Co
  Co2      1.0000 0.37737  0.73945  0.80462  Biso   1.000  Co
  Co3      1.0000 0.07237  0.74509  0.86592  Biso   1.000  Co
  Co4      1.0000 0.87737  0.76055  0.69538  Biso   1.000  Co
  Co5      1.0000 0.42763  0.24509  0.36592  Biso   1.000  Co
  Co6      1.0000 0.62263  0.26055  0.19538  Biso   1.000  Co
  Co7      1.0000 0.92763  0.25491  0.13408  Biso   1.000  Co
  Co8      1.0000 0.12263  0.23945  0.30462  Biso   1.000  Co
  Co9      1.0000 0.50000  0.50000  0.50000  Biso   1.000  Co
  Co10     1.0000 0.00000  0.00000  0.00000  Biso   1.000  Co
  Co11     1.0000 0.50000  0.00000  0.50000  Biso   1.000  Co
  Co12     1.0000 0.00000  0.50000  0.00000  Biso   1.000  Co
  H1       1.0000 0.35090  0.69650  0.42690  Biso   1.000  H
  H2       1.0000 0.44770  0.47720  0.75660  Biso   1.000  H
  H3       1.0000 0.87140  0.55900  0.55110  Biso   1.000  H
  H4       1.0000 0.27920  0.96400  0.71250  Biso   1.000  H
  H5       1.0000 0.78300  0.00280  0.53170  Biso   1.000  H
  H6       1.0000 0.72520  0.84660  0.87010  Biso   1.000  H
  H7       1.0000 0.85090  0.80350  0.07310  Biso   1.000  H
  H8       1.0000 0.94770  0.02280  0.74340  Biso   1.000  H
  H9       1.0000 0.37140  0.94100  0.94890  Biso   1.000  H
  H10      1.0000 0.77920  0.53600  0.78750  Biso   1.000  H
  H11      1.0000 0.28300  0.49720  0.96830  Biso   1.000  H
  H12      1.0000 0.22520  0.65340  0.62990  Biso   1.000  H
  H13      1.0000 0.64910  0.30350  0.57310  Biso   1.000  H
  H14      1.0000 0.55230  0.52280  0.24340  Biso   1.000  H
  H15      1.0000 0.12860  0.44100  0.44890  Biso   1.000  H
  H16      1.0000 0.72080  0.03600  0.28750  Biso   1.000  H
  H17      1.0000 0.21700  0.99720  0.46830  Biso   1.000  H
  H18      1.0000 0.27480  0.15340  0.12990  Biso   1.000  H
  H19      1.0000 0.14910  0.19650  0.92690  Biso   1.000  H
  H20      1.0000 0.05230  0.97720  0.25660  Biso   1.000  H
  H21      1.0000 0.62860  0.05900  0.05110  Biso   1.000  H
  H22      1.0000 0.22080  0.46400  0.21250  Biso   1.000  H
  H23      1.0000 0.71700  0.50280  0.03170  Biso   1.000  H
  H24      1.0000 0.77480  0.34660  0.37010  Biso   1.000  H
  C1       1.0000 0.40500  0.74140  0.46550  Biso   1.000  C
  C2       1.0000 0.47210  0.51790  0.70540  Biso   1.000  C
  C3       1.0000 0.78090  0.57630  0.55610  Biso   1.000  C
  C4       1.0000 0.34880  0.94170  0.67420  Biso   1.000  C
  C5       1.0000 0.76650  0.93760  0.56700  Biso   1.000  C
  C6       1.0000 0.65740  0.82120  0.83140  Biso   1.000  C
  C7       1.0000 0.90500  0.75860  0.03450  Biso   1.000  C
  C8       1.0000 0.97210  0.98210  0.79460  Biso   1.000  C
  C9       1.0000 0.28090  0.92370  0.94390  Biso   1.000  C
  C10      1.0000 0.84880  0.55830  0.82580  Biso   1.000  C
  C11      1.0000 0.26650  0.56240  0.93300  Biso   1.000  C
  C12      1.0000 0.15740  0.67880  0.66860  Biso   1.000  C
  C13      1.0000 0.59500  0.25860  0.53450  Biso   1.000  C
  C14      1.0000 0.52790  0.48210  0.29460  Biso   1.000  C
  C15      1.0000 0.21910  0.42370  0.44390  Biso   1.000  C
  C16      1.0000 0.65120  0.05830  0.32580  Biso   1.000  C
  C17      1.0000 0.23350  0.06240  0.43300  Biso   1.000  C
  C18      1.0000 0.34260  0.17880  0.16860  Biso   1.000  C
  C19      1.0000 0.09500  0.24140  0.96550  Biso   1.000  C
  C20      1.0000 0.02790  0.01790  0.20540  Biso   1.000  C
  C21      1.0000 0.71910  0.07630  0.05610  Biso   1.000  C
  C22      1.0000 0.15120  0.44170  0.17420  Biso   1.000  C
  C23      1.0000 0.73350  0.43760  0.06700  Biso   1.000  C
  C24      1.0000 0.84260  0.32120  0.33140  Biso   1.000  C
  O1       1.0000 0.47350  0.68570  0.52290  Biso   1.000  O
  O2       1.0000 0.40330  0.84820  0.45610  Biso   1.000  O
  O3       1.0000 0.49010  0.45870  0.63620  Biso   1.000  O
  O4       1.0000 0.48330  0.62840  0.71460  Biso   1.000  O
  O5       1.0000 0.70510  0.51870  0.50670  Biso   1.000  O
  O6       1.0000 0.74900  0.65680  0.61320  Biso   1.000  O
  O7       1.0000 0.37230  0.00660  0.61080  Biso   1.000  O
  O8       1.0000 0.41000  0.84760  0.69240  Biso   1.000  O
  O9       1.0000 0.64750  0.90160  0.56880  Biso   1.000  O
  O10      1.0000 0.86380  0.89640  0.60660  Biso   1.000  O
  O11      1.0000 0.68840  0.80510  0.74880  Biso   1.000  O
  O12      1.0000 0.54600  0.80640  0.86530  Biso   1.000  O
  O13      1.0000 0.97350  0.81430  0.97710  Biso   1.000  O
  O14      1.0000 0.90330  0.65180  0.04390  Biso   1.000  O
  O15      1.0000 0.99010  0.04130  0.86380  Biso   1.000  O
  O16      1.0000 0.98330  0.87160  0.78540  Biso   1.000  O
  O17      1.0000 0.20510  0.98130  0.99330  Biso   1.000  O
  O18      1.0000 0.24900  0.84320  0.88680  Biso   1.000  O
  O19      1.0000 0.87230  0.49340  0.88920  Biso   1.000  O
  O20      1.0000 0.91000  0.65240  0.80760  Biso   1.000  O
  O21      1.0000 0.14750  0.59840  0.93120  Biso   1.000  O
  O22      1.0000 0.36380  0.60360  0.89340  Biso   1.000  O
  O23      1.0000 0.18840  0.69490  0.75120  Biso   1.000  O
  O24      1.0000 0.04600  0.69360  0.63470  Biso   1.000  O
  O25      1.0000 0.52650  0.31430  0.47710  Biso   1.000  O
  O26      1.0000 0.59670  0.15180  0.54390  Biso   1.000  O
  O27      1.0000 0.50990  0.54130  0.36380  Biso   1.000  O
  O28      1.0000 0.51670  0.37160  0.28540  Biso   1.000  O
  O29      1.0000 0.29490  0.48130  0.49330  Biso   1.000  O
  O30      1.0000 0.25100  0.34320  0.38680  Biso   1.000  O
  O31      1.0000 0.62770  0.99340  0.38920  Biso   1.000  O
  O32      1.0000 0.59000  0.15240  0.30760  Biso   1.000  O
  O33      1.0000 0.35250  0.09840  0.43120  Biso   1.000  O
  O34      1.0000 0.13620  0.10360  0.39340  Biso   1.000  O
  O35      1.0000 0.31160  0.19490  0.25120  Biso   1.000  O
  O36      1.0000 0.45400  0.19360  0.13470  Biso   1.000  O
  O37      1.0000 0.02650  0.18570  0.02290  Biso   1.000  O
  O38      1.0000 0.09670  0.34820  0.95610  Biso   1.000  O
  O39      1.0000 0.00990  0.95870  0.13620  Biso   1.000  O
  O40      1.0000 0.01670  0.12840  0.21460  Biso   1.000  O
  O41      1.0000 0.79490  0.01870  0.00670  Biso   1.000  O
  O42      1.0000 0.75100  0.15680  0.11320  Biso   1.000  O
  O43      1.0000 0.12770  0.50660  0.11080  Biso   1.000  O
  O44      1.0000 0.09000  0.34760  0.19240  Biso   1.000  O
  O45      1.0000 0.85250  0.40160  0.06880  Biso   1.000  O
  O46      1.0000 0.63620  0.39640  0.10660  Biso   1.000  O
  O47      1.0000 0.81160  0.30510  0.24880  Biso   1.000  O
  O48      1.0000 0.95400  0.30640  0.36530  Biso   1.000  O
