data_image0
_cell_length_a       11.4539
_cell_length_b       11.727
_cell_length_c       14.1389
_cell_angle_alpha    112.657
_cell_angle_beta     90
_cell_angle_gamma    119.232

_symmetry_space_group_name_H-M    P 1
_symmetry_int_tables_number       1

loop_
  _symmetry_equiv_pos_as_xyz
  'x, y, z'

loop_
  _atom_site_label
  _atom_site_occupancy
  _atom_site_fract_x
  _atom_site_fract_y
  _atom_site_fract_z
  _atom_site_thermal_displace_type
  _atom_site_B_iso_or_equiv
  _atom_site_type_symbol
  Co1      1.0000 0.01439  0.00000  0.75000  Biso   1.000  Co
  Co2      1.0000 0.98561  0.00000  0.25000  Biso   1.000  Co
  H1       1.0000 0.16310  0.70060  0.64820  Biso   1.000  H
  H2       1.0000 0.20780  0.52460  0.54750  Biso   1.000  H
  H3       1.0000 0.94840  0.16100  0.96450  Biso   1.000  H
  H4       1.0000 0.80280  0.74300  0.80440  Biso   1.000  H
  H5       1.0000 0.69830  0.77500  0.95560  Biso   1.000  H
  H6       1.0000 0.76110  0.02460  0.13450  Biso   1.000  H
  H7       1.0000 0.83310  0.16760  0.11880  Biso   1.000  H
  H8       1.0000 0.51330  0.85400  0.06580  Biso   1.000  H
  H9       1.0000 0.30100  0.79860  0.99350  Biso   1.000  H
  H10      1.0000 0.46250  0.29940  0.85180  Biso   1.000  H
  H11      1.0000 0.68320  0.47540  0.95250  Biso   1.000  H
  H12      1.0000 0.78740  0.83900  0.53550  Biso   1.000  H
  H13      1.0000 0.05980  0.25700  0.69560  Biso   1.000  H
  H14      1.0000 0.92330  0.22500  0.54440  Biso   1.000  H
  H15      1.0000 0.73650  0.97540  0.36550  Biso   1.000  H
  H16      1.0000 0.66550  0.83240  0.38120  Biso   1.000  H
  H17      1.0000 0.65930  0.14600  0.43420  Biso   1.000  H
  H18      1.0000 0.50240  0.20140  0.50650  Biso   1.000  H
  H19      1.0000 0.83690  0.29940  0.35180  Biso   1.000  H
  H20      1.0000 0.79220  0.47540  0.45250  Biso   1.000  H
  H21      1.0000 0.05160  0.83900  0.03550  Biso   1.000  H
  H22      1.0000 0.19720  0.25700  0.19560  Biso   1.000  H
  H23      1.0000 0.30170  0.22500  0.04440  Biso   1.000  H
  H24      1.0000 0.23890  0.97540  0.86550  Biso   1.000  H
  H25      1.0000 0.16690  0.83240  0.88120  Biso   1.000  H
  H26      1.0000 0.48670  0.14600  0.93420  Biso   1.000  H
  H27      1.0000 0.69900  0.20140  0.00650  Biso   1.000  H
  H28      1.0000 0.53750  0.70060  0.14820  Biso   1.000  H
  H29      1.0000 0.31680  0.52460  0.04750  Biso   1.000  H
  H30      1.0000 0.21260  0.16100  0.46450  Biso   1.000  H
  H31      1.0000 0.94020  0.74300  0.30440  Biso   1.000  H
  H32      1.0000 0.07670  0.77500  0.45560  Biso   1.000  H
  H33      1.0000 0.26350  0.02460  0.63450  Biso   1.000  H
  H34      1.0000 0.33450  0.16760  0.61880  Biso   1.000  H
  H35      1.0000 0.34070  0.85400  0.56580  Biso   1.000  H
  H36      1.0000 0.49760  0.79860  0.49350  Biso   1.000  H
  C1       1.0000 0.94702  0.72424  0.62391  Biso   1.000  C
  C2       1.0000 0.97316  0.60632  0.56092  Biso   1.000  C
  C3       1.0000 0.09737  0.61974  0.58849  Biso   1.000  C
  C4       1.0000 0.12446  0.51452  0.52829  Biso   1.000  C
  C5       1.0000 0.89966  0.06096  0.94304  Biso   1.000  C
  C6       1.0000 0.81918  0.83136  0.85548  Biso   1.000  C
  C7       1.0000 0.76132  0.84824  0.93897  Biso   1.000  C
  C8       1.0000 0.76725  0.06330  0.08389  Biso   1.000  C
  C9       1.0000 0.62796  0.03332  0.04424  Biso   1.000  C
  C10      1.0000 0.50821  0.91322  0.03940  Biso   1.000  C
  C11      1.0000 0.38071  0.87962  0.99580  Biso   1.000  C
  C12      1.0000 0.22278  0.27576  0.87609  Biso   1.000  C
  C13      1.0000 0.36684  0.39368  0.93908  Biso   1.000  C
  C14      1.0000 0.47763  0.38026  0.91151  Biso   1.000  C
  C15      1.0000 0.60994  0.48548  0.97171  Biso   1.000  C
  C16      1.0000 0.83870  0.93904  0.55696  Biso   1.000  C
  C17      1.0000 0.98782  0.16864  0.64452  Biso   1.000  C
  C18      1.0000 0.91308  0.15176  0.56103  Biso   1.000  C
  C19      1.0000 0.70395  0.93670  0.41611  Biso   1.000  C
  C20      1.0000 0.59464  0.96668  0.45576  Biso   1.000  C
  C21      1.0000 0.59499  0.08678  0.46060  Biso   1.000  C
  C22      1.0000 0.50109  0.12038  0.50420  Biso   1.000  C
  C23      1.0000 0.05298  0.27576  0.37609  Biso   1.000  C
  C24      1.0000 0.02684  0.39368  0.43908  Biso   1.000  C
  C25      1.0000 0.90263  0.38026  0.41151  Biso   1.000  C
  C26      1.0000 0.87554  0.48548  0.47171  Biso   1.000  C
  C27      1.0000 0.10034  0.93904  0.05696  Biso   1.000  C
  C28      1.0000 0.18082  0.16864  0.14452  Biso   1.000  C
  C29      1.0000 0.23868  0.15176  0.06103  Biso   1.000  C
  C30      1.0000 0.23275  0.93670  0.91611  Biso   1.000  C
  C31      1.0000 0.37204  0.96668  0.95576  Biso   1.000  C
  C32      1.0000 0.49179  0.08678  0.96060  Biso   1.000  C
  C33      1.0000 0.61929  0.12038  0.00420  Biso   1.000  C
  C34      1.0000 0.77722  0.72424  0.12391  Biso   1.000  C
  C35      1.0000 0.63316  0.60632  0.06092  Biso   1.000  C
  C36      1.0000 0.52237  0.61974  0.08849  Biso   1.000  C
  C37      1.0000 0.39006  0.51452  0.02829  Biso   1.000  C
  C38      1.0000 0.16130  0.06096  0.44304  Biso   1.000  C
  C39      1.0000 0.01218  0.83136  0.35548  Biso   1.000  C
  C40      1.0000 0.08692  0.84824  0.43897  Biso   1.000  C
  C41      1.0000 0.29605  0.06330  0.58389  Biso   1.000  C
  C42      1.0000 0.40536  0.03332  0.54424  Biso   1.000  C
  C43      1.0000 0.40501  0.91322  0.53940  Biso   1.000  C
  C44      1.0000 0.49891  0.87962  0.49580  Biso   1.000  C
  N1       1.0000 0.90621  0.96534  0.85771  Biso   1.000  N
  N2       1.0000 0.81343  0.99416  0.99424  Biso   1.000  N
  N3       1.0000 0.94087  0.03466  0.64229  Biso   1.000  N
  N4       1.0000 0.81927  0.00584  0.50576  Biso   1.000  N
  N5       1.0000 0.09379  0.03466  0.14229  Biso   1.000  N
  N6       1.0000 0.18657  0.00584  0.00576  Biso   1.000  N
  N7       1.0000 0.05913  0.96534  0.35771  Biso   1.000  N
  N8       1.0000 0.18073  0.99416  0.49424  Biso   1.000  N
  O1       1.0000 0.05311  0.84476  0.68690  Biso   1.000  O
  O2       1.0000 0.83009  0.70252  0.61086  Biso   1.000  O
  O3       1.0000 0.20835  0.15524  0.81310  Biso   1.000  O
  O4       1.0000 0.12757  0.29748  0.88914  Biso   1.000  O
  O5       1.0000 0.94689  0.15524  0.31310  Biso   1.000  O
  O6       1.0000 0.16991  0.29748  0.38914  Biso   1.000  O
  O7       1.0000 0.79165  0.84476  0.18690  Biso   1.000  O
  O8       1.0000 0.87243  0.70252  0.11086  Biso   1.000  O
