data_image0
_cell_length_a       12.0995
_cell_length_b       14.0077
_cell_length_c       14.0077
_cell_angle_alpha    97.5462
_cell_angle_beta     100.083
_cell_angle_gamma    79.9168

_symmetry_space_group_name_H-M    P 1
_symmetry_int_tables_number       1

loop_
  _symmetry_equiv_pos_as_xyz
  'x, y, z'

loop_
  _atom_site_label
  _atom_site_occupancy
  _atom_site_fract_x
  _atom_site_fract_y
  _atom_site_fract_z
  _atom_site_thermal_displace_type
  _atom_site_B_iso_or_equiv
  _atom_site_type_symbol
  Zn1      1.0000 0.10065  0.23015  0.81609  Biso   1.000  Zn
  Zn2      1.0000 0.39935  0.81609  0.23015  Biso   1.000  Zn
  Zn3      1.0000 0.89935  0.76985  0.18391  Biso   1.000  Zn
  Zn4      1.0000 0.60065  0.18391  0.76985  Biso   1.000  Zn
  H1       1.0000 0.03580  0.33810  0.15330  Biso   1.000  H
  H2       1.0000 0.94430  0.32330  0.28130  Biso   1.000  H
  H3       1.0000 0.68190  0.24100  0.09260  Biso   1.000  H
  H4       1.0000 0.87750  0.34450  0.76950  Biso   1.000  H
  H5       1.0000 0.77370  0.43900  0.65540  Biso   1.000  H
  H6       1.0000 0.00400  0.34440  0.48200  Biso   1.000  H
  H7       1.0000 0.10840  0.25500  0.60400  Biso   1.000  H
  H8       1.0000 0.83500  0.44030  0.41650  Biso   1.000  H
  H9       1.0000 0.83420  0.53090  0.49450  Biso   1.000  H
  H10      1.0000 0.34200  0.20730  0.91010  Biso   1.000  H
  H11      1.0000 0.48610  0.29650  0.96110  Biso   1.000  H
  H12      1.0000 0.28160  0.52720  0.85920  Biso   1.000  H
  H13      1.0000 0.14060  0.43450  0.81450  Biso   1.000  H
  H14      1.0000 0.48020  0.54110  0.91150  Biso   1.000  H
  H15      1.0000 0.56690  0.44630  0.93330  Biso   1.000  H
  H16      1.0000 0.46420  0.15330  0.33810  Biso   1.000  H
  H17      1.0000 0.55570  0.28130  0.32330  Biso   1.000  H
  H18      1.0000 0.81810  0.09260  0.24100  Biso   1.000  H
  H19      1.0000 0.62250  0.76950  0.34450  Biso   1.000  H
  H20      1.0000 0.72630  0.65540  0.43900  Biso   1.000  H
  H21      1.0000 0.49600  0.48200  0.34440  Biso   1.000  H
  H22      1.0000 0.39160  0.60400  0.25500  Biso   1.000  H
  H23      1.0000 0.66500  0.41650  0.44030  Biso   1.000  H
  H24      1.0000 0.66580  0.49450  0.53090  Biso   1.000  H
  H25      1.0000 0.15800  0.91010  0.20730  Biso   1.000  H
  H26      1.0000 0.01390  0.96110  0.29650  Biso   1.000  H
  H27      1.0000 0.21840  0.85920  0.52720  Biso   1.000  H
  H28      1.0000 0.35940  0.81450  0.43450  Biso   1.000  H
  H29      1.0000 0.01980  0.91150  0.54110  Biso   1.000  H
  H30      1.0000 0.93310  0.93330  0.44630  Biso   1.000  H
  H31      1.0000 0.96420  0.66190  0.84670  Biso   1.000  H
  H32      1.0000 0.05570  0.67670  0.71870  Biso   1.000  H
  H33      1.0000 0.31810  0.75900  0.90740  Biso   1.000  H
  H34      1.0000 0.12250  0.65550  0.23050  Biso   1.000  H
  H35      1.0000 0.22630  0.56100  0.34460  Biso   1.000  H
  H36      1.0000 0.99600  0.65560  0.51800  Biso   1.000  H
  H37      1.0000 0.89160  0.74500  0.39600  Biso   1.000  H
  H38      1.0000 0.16500  0.55970  0.58350  Biso   1.000  H
  H39      1.0000 0.16580  0.46910  0.50550  Biso   1.000  H
  H40      1.0000 0.65800  0.79270  0.08990  Biso   1.000  H
  H41      1.0000 0.51390  0.70350  0.03890  Biso   1.000  H
  H42      1.0000 0.71840  0.47280  0.14080  Biso   1.000  H
  H43      1.0000 0.85940  0.56550  0.18550  Biso   1.000  H
  H44      1.0000 0.51980  0.45890  0.08850  Biso   1.000  H
  H45      1.0000 0.43310  0.55370  0.06670  Biso   1.000  H
  H46      1.0000 0.53580  0.84670  0.66190  Biso   1.000  H
  H47      1.0000 0.44430  0.71870  0.67670  Biso   1.000  H
  H48      1.0000 0.18190  0.90740  0.75900  Biso   1.000  H
  H49      1.0000 0.37750  0.23050  0.65550  Biso   1.000  H
  H50      1.0000 0.27370  0.34460  0.56100  Biso   1.000  H
  H51      1.0000 0.50400  0.51800  0.65560  Biso   1.000  H
  H52      1.0000 0.60840  0.39600  0.74500  Biso   1.000  H
  H53      1.0000 0.33500  0.58350  0.55970  Biso   1.000  H
  H54      1.0000 0.33420  0.50550  0.46910  Biso   1.000  H
  H55      1.0000 0.84200  0.08990  0.79270  Biso   1.000  H
  H56      1.0000 0.98610  0.03890  0.70350  Biso   1.000  H
  H57      1.0000 0.78160  0.14080  0.47280  Biso   1.000  H
  H58      1.0000 0.64060  0.18550  0.56550  Biso   1.000  H
  H59      1.0000 0.98020  0.08850  0.45890  Biso   1.000  H
  H60      1.0000 0.06690  0.06670  0.55370  Biso   1.000  H
  C1       1.0000 0.80780  0.26874  0.02706  Biso   1.000  C
  C2       1.0000 0.91460  0.29620  0.04500  Biso   1.000  C
  C3       1.0000 0.96510  0.31770  0.14070  Biso   1.000  C
  C4       1.0000 0.91020  0.30900  0.21740  Biso   1.000  C
  C5       1.0000 0.80600  0.27917  0.19903  Biso   1.000  C
  C6       1.0000 0.75350  0.25998  0.10462  Biso   1.000  C
  C7       1.0000 0.74180  0.26173  0.92647  Biso   1.000  C
  C8       1.0000 0.98160  0.30090  0.96530  Biso   1.000  C
  C9       1.0000 0.90540  0.34550  0.71190  Biso   1.000  C
  C10      1.0000 0.84190  0.40140  0.64280  Biso   1.000  C
  C11      1.0000 0.87720  0.40280  0.55480  Biso   1.000  C
  C12      1.0000 0.97700  0.34690  0.54070  Biso   1.000  C
  C13      1.0000 0.03960  0.29284  0.61476  Biso   1.000  C
  C14      1.0000 0.81180  0.46680  0.47880  Biso   1.000  C
  C15      1.0000 0.32910  0.27290  0.90010  Biso   1.000  C
  C16      1.0000 0.41660  0.32590  0.92990  Biso   1.000  C
  C17      1.0000 0.40110  0.42330  0.91330  Biso   1.000  C
  C18      1.0000 0.29620  0.46190  0.87050  Biso   1.000  C
  C19      1.0000 0.21150  0.40560  0.84360  Biso   1.000  C
  C20      1.0000 0.49530  0.48430  0.94730  Biso   1.000  C
  C21      1.0000 0.69220  0.02706  0.26874  Biso   1.000  C
  C22      1.0000 0.58540  0.04500  0.29620  Biso   1.000  C
  C23      1.0000 0.53490  0.14070  0.31770  Biso   1.000  C
  C24      1.0000 0.58980  0.21740  0.30900  Biso   1.000  C
  C25      1.0000 0.69400  0.19903  0.27917  Biso   1.000  C
  C26      1.0000 0.74650  0.10462  0.25998  Biso   1.000  C
  C27      1.0000 0.75820  0.92647  0.26173  Biso   1.000  C
  C28      1.0000 0.51840  0.96530  0.30090  Biso   1.000  C
  C29      1.0000 0.59460  0.71190  0.34550  Biso   1.000  C
  C30      1.0000 0.65810  0.64280  0.40140  Biso   1.000  C
  C31      1.0000 0.62280  0.55480  0.40280  Biso   1.000  C
  C32      1.0000 0.52300  0.54070  0.34690  Biso   1.000  C
  C33      1.0000 0.46040  0.61476  0.29284  Biso   1.000  C
  C34      1.0000 0.68820  0.47880  0.46680  Biso   1.000  C
  C35      1.0000 0.17090  0.90010  0.27290  Biso   1.000  C
  C36      1.0000 0.08340  0.92990  0.32590  Biso   1.000  C
  C37      1.0000 0.09890  0.91330  0.42330  Biso   1.000  C
  C38      1.0000 0.20380  0.87050  0.46190  Biso   1.000  C
  C39      1.0000 0.28850  0.84360  0.40560  Biso   1.000  C
  C40      1.0000 0.00470  0.94730  0.48430  Biso   1.000  C
  C41      1.0000 0.19220  0.73126  0.97294  Biso   1.000  C
  C42      1.0000 0.08540  0.70380  0.95500  Biso   1.000  C
  C43      1.0000 0.03490  0.68230  0.85930  Biso   1.000  C
  C44      1.0000 0.08980  0.69100  0.78260  Biso   1.000  C
  C45      1.0000 0.19400  0.72083  0.80097  Biso   1.000  C
  C46      1.0000 0.24650  0.74002  0.89538  Biso   1.000  C
  C47      1.0000 0.25820  0.73827  0.07353  Biso   1.000  C
  C48      1.0000 0.01840  0.69910  0.03470  Biso   1.000  C
  C49      1.0000 0.09460  0.65450  0.28810  Biso   1.000  C
  C50      1.0000 0.15810  0.59860  0.35720  Biso   1.000  C
  C51      1.0000 0.12280  0.59720  0.44520  Biso   1.000  C
  C52      1.0000 0.02300  0.65310  0.45930  Biso   1.000  C
  C53      1.0000 0.96040  0.70716  0.38524  Biso   1.000  C
  C54      1.0000 0.18820  0.53320  0.52120  Biso   1.000  C
  C55      1.0000 0.67090  0.72710  0.09990  Biso   1.000  C
  C56      1.0000 0.58340  0.67410  0.07010  Biso   1.000  C
  C57      1.0000 0.59890  0.57670  0.08670  Biso   1.000  C
  C58      1.0000 0.70380  0.53810  0.12950  Biso   1.000  C
  C59      1.0000 0.78850  0.59440  0.15640  Biso   1.000  C
  C60      1.0000 0.50470  0.51570  0.05270  Biso   1.000  C
  C61      1.0000 0.30780  0.97294  0.73126  Biso   1.000  C
  C62      1.0000 0.41460  0.95500  0.70380  Biso   1.000  C
  C63      1.0000 0.46510  0.85930  0.68230  Biso   1.000  C
  C64      1.0000 0.41020  0.78260  0.69100  Biso   1.000  C
  C65      1.0000 0.30600  0.80097  0.72083  Biso   1.000  C
  C66      1.0000 0.25350  0.89538  0.74002  Biso   1.000  C
  C67      1.0000 0.24180  0.07353  0.73827  Biso   1.000  C
  C68      1.0000 0.48160  0.03470  0.69910  Biso   1.000  C
  C69      1.0000 0.40540  0.28810  0.65450  Biso   1.000  C
  C70      1.0000 0.34190  0.35720  0.59860  Biso   1.000  C
  C71      1.0000 0.37720  0.44520  0.59720  Biso   1.000  C
  C72      1.0000 0.47700  0.45930  0.65310  Biso   1.000  C
  C73      1.0000 0.53960  0.38524  0.70716  Biso   1.000  C
  C74      1.0000 0.31180  0.52120  0.53320  Biso   1.000  C
  C75      1.0000 0.82910  0.09990  0.72710  Biso   1.000  C
  C76      1.0000 0.91660  0.07010  0.67410  Biso   1.000  C
  C77      1.0000 0.90110  0.08670  0.57670  Biso   1.000  C
  C78      1.0000 0.79620  0.12950  0.53810  Biso   1.000  C
  C79      1.0000 0.71150  0.15640  0.59440  Biso   1.000  C
  C80      1.0000 0.99530  0.05270  0.51570  Biso   1.000  C
  N1       1.0000 0.00480  0.29292  0.70028  Biso   1.000  N
  N2       1.0000 0.22640  0.31130  0.85734  Biso   1.000  N
  N3       1.0000 0.49520  0.70028  0.29292  Biso   1.000  N
  N4       1.0000 0.27360  0.85734  0.31130  Biso   1.000  N
  N5       1.0000 0.99520  0.70708  0.29972  Biso   1.000  N
  N6       1.0000 0.77360  0.68870  0.14266  Biso   1.000  N
  N7       1.0000 0.50480  0.29972  0.70708  Biso   1.000  N
  N8       1.0000 0.72640  0.14266  0.68870  Biso   1.000  N
  O1       1.0000 0.67820  0.19534  0.90500  Biso   1.000  O
  O2       1.0000 0.74820  0.31884  0.86998  Biso   1.000  O
  O3       1.0000 0.99590  0.22475  0.90669  Biso   1.000  O
  O4       1.0000 0.01650  0.37590  0.95790  Biso   1.000  O
  O5       1.0000 0.82180  0.90500  0.19534  Biso   1.000  O
  O6       1.0000 0.75180  0.86998  0.31884  Biso   1.000  O
  O7       1.0000 0.50410  0.90669  0.22475  Biso   1.000  O
  O8       1.0000 0.48350  0.95790  0.37590  Biso   1.000  O
  O9       1.0000 0.32180  0.80466  0.09500  Biso   1.000  O
  O10      1.0000 0.25180  0.68116  0.13002  Biso   1.000  O
  O11      1.0000 0.00410  0.77525  0.09331  Biso   1.000  O
  O12      1.0000 0.98350  0.62410  0.04210  Biso   1.000  O
  O13      1.0000 0.17820  0.09500  0.80466  Biso   1.000  O
  O14      1.0000 0.24820  0.13002  0.68116  Biso   1.000  O
  O15      1.0000 0.49590  0.09331  0.77525  Biso   1.000  O
  O16      1.0000 0.51650  0.04210  0.62410  Biso   1.000  O
  O17      1.0000 0.75000  0.27810  0.27810  Biso   1.000  O
  O18      1.0000 0.25000  0.72190  0.72190  Biso   1.000  O
