data_image0
_cell_length_a       10.302
_cell_length_b       11.876
_cell_length_c       32.266
_cell_angle_alpha    90
_cell_angle_beta     90
_cell_angle_gamma    90

_symmetry_space_group_name_H-M    P 1
_symmetry_int_tables_number       1

loop_
  _symmetry_equiv_pos_as_xyz
  'x, y, z'

loop_
  _atom_site_label
  _atom_site_occupancy
  _atom_site_fract_x
  _atom_site_fract_y
  _atom_site_fract_z
  _atom_site_thermal_displace_type
  _atom_site_B_iso_or_equiv
  _atom_site_type_symbol
  Zn1      1.0000 0.61475  0.83243  0.04371  Biso   1.000  Zn
  Zn2      1.0000 0.87636  0.04493  0.64748  Biso   1.000  Zn
  Zn3      1.0000 0.88525  0.16757  0.54371  Biso   1.000  Zn
  Zn4      1.0000 0.62364  0.95507  0.14748  Biso   1.000  Zn
  H1       1.0000 0.23570  0.91860  0.04300  Biso   1.000  H
  H2       1.0000 0.01280  0.91920  0.03880  Biso   1.000  H
  H3       1.0000 0.87820  0.80470  0.17090  Biso   1.000  H
  H4       1.0000 0.98110  0.74440  0.22940  Biso   1.000  H
  H5       1.0000 0.20550  0.72650  0.23050  Biso   1.000  H
  H6       1.0000 0.32530  0.78050  0.17470  Biso   1.000  H
  H7       1.0000 0.52080  0.23400  0.06350  Biso   1.000  H
  H8       1.0000 0.49820  0.41090  0.03410  Biso   1.000  H
  H9       1.0000 0.66360  0.65520  0.13480  Biso   1.000  H
  H10      1.0000 0.74230  0.63150  0.20030  Biso   1.000  H
  H11      1.0000 0.76330  0.45320  0.22910  Biso   1.000  H
  H12      1.0000 0.70480  0.29800  0.19170  Biso   1.000  H
  H13      1.0000 0.54420  0.06450  0.79280  Biso   1.000  H
  H14      1.0000 0.45850  0.99880  0.85470  Biso   1.000  H
  H15      1.0000 0.81620  0.95690  0.90000  Biso   1.000  H
  H16      1.0000 0.90270  0.02200  0.83860  Biso   1.000  H
  H17      1.0000 0.71020  0.98520  0.72800  Biso   1.000  H
  H18      1.0000 0.98590  0.21090  0.71630  Biso   1.000  H
  H19      1.0000 0.92100  0.21150  0.78910  Biso   1.000  H
  H20      1.0000 0.73520  0.91620  0.95870  Biso   1.000  H
  H21      1.0000 0.37180  0.84120  0.98320  Biso   1.000  H
  H22      1.0000 0.37910  0.90950  0.91200  Biso   1.000  H
  H23      1.0000 0.26430  0.08140  0.54300  Biso   1.000  H
  H24      1.0000 0.48720  0.08080  0.53880  Biso   1.000  H
  H25      1.0000 0.62180  0.19530  0.67090  Biso   1.000  H
  H26      1.0000 0.51890  0.25560  0.72940  Biso   1.000  H
  H27      1.0000 0.29450  0.27350  0.73050  Biso   1.000  H
  H28      1.0000 0.17470  0.21950  0.67470  Biso   1.000  H
  H29      1.0000 0.97920  0.76600  0.56350  Biso   1.000  H
  H30      1.0000 0.00180  0.58910  0.53410  Biso   1.000  H
  H31      1.0000 0.83640  0.34480  0.63480  Biso   1.000  H
  H32      1.0000 0.75770  0.36850  0.70030  Biso   1.000  H
  H33      1.0000 0.73670  0.54680  0.72910  Biso   1.000  H
  H34      1.0000 0.79520  0.70200  0.69170  Biso   1.000  H
  H35      1.0000 0.95580  0.93550  0.29280  Biso   1.000  H
  H36      1.0000 0.04150  0.00120  0.35470  Biso   1.000  H
  H37      1.0000 0.68380  0.04310  0.40000  Biso   1.000  H
  H38      1.0000 0.59730  0.97800  0.33860  Biso   1.000  H
  H39      1.0000 0.78980  0.01480  0.22800  Biso   1.000  H
  H40      1.0000 0.51410  0.78910  0.21630  Biso   1.000  H
  H41      1.0000 0.57900  0.78850  0.28910  Biso   1.000  H
  H42      1.0000 0.76480  0.08380  0.45870  Biso   1.000  H
  H43      1.0000 0.12820  0.15880  0.48320  Biso   1.000  H
  H44      1.0000 0.12090  0.09050  0.41200  Biso   1.000  H
  C1       1.0000 0.25150  0.86830  0.10187  Biso   1.000  C
  C2       1.0000 0.18740  0.89830  0.06615  Biso   1.000  C
  C3       1.0000 0.05250  0.89920  0.06363  Biso   1.000  C
  C4       1.0000 0.97650  0.87090  0.09726  Biso   1.000  C
  C5       1.0000 0.03790  0.83570  0.13542  Biso   1.000  C
  C6       1.0000 0.96840  0.80150  0.17119  Biso   1.000  C
  C7       1.0000 0.02960  0.76390  0.20612  Biso   1.000  C
  C8       1.0000 0.16430  0.75470  0.20704  Biso   1.000  C
  C9       1.0000 0.23550  0.78720  0.17360  Biso   1.000  C
  C10      1.0000 0.17720  0.83100  0.13709  Biso   1.000  C
  C11      1.0000 0.39740  0.88120  0.10259  Biso   1.000  C
  C12      1.0000 0.83280  0.87570  0.09076  Biso   1.000  C
  C13      1.0000 0.59700  0.28400  0.11733  Biso   1.000  C
  C14      1.0000 0.54710  0.29710  0.07829  Biso   1.000  C
  C15      1.0000 0.53490  0.40390  0.06032  Biso   1.000  C
  C16      1.0000 0.57660  0.49880  0.08097  Biso   1.000  C
  C17      1.0000 0.63110  0.48830  0.12165  Biso   1.000  C
  C18      1.0000 0.67040  0.58310  0.14579  Biso   1.000  C
  C19      1.0000 0.71780  0.56870  0.18492  Biso   1.000  C
  C20      1.0000 0.73030  0.46140  0.20245  Biso   1.000  C
  C21      1.0000 0.69390  0.36920  0.18024  Biso   1.000  C
  C22      1.0000 0.64020  0.37930  0.14024  Biso   1.000  C
  C23      1.0000 0.59660  0.16840  0.13646  Biso   1.000  C
  C24      1.0000 0.55610  0.61030  0.05977  Biso   1.000  C
  C25      1.0000 0.73180  0.04960  0.80989  Biso   1.000  C
  C26      1.0000 0.59890  0.04290  0.81433  Biso   1.000  C
  C27      1.0000 0.54800  0.00340  0.85135  Biso   1.000  C
  C28      1.0000 0.62830  0.97110  0.88321  Biso   1.000  C
  C29      1.0000 0.76160  0.97840  0.87843  Biso   1.000  C
  C30      1.0000 0.81320  0.01740  0.84182  Biso   1.000  C
  C31      1.0000 0.77040  0.04130  0.73392  Biso   1.000  C
  C32      1.0000 0.92190  0.16550  0.72795  Biso   1.000  C
  C33      1.0000 0.88690  0.16670  0.76816  Biso   1.000  C
  C34      1.0000 0.64600  0.90610  0.95607  Biso   1.000  C
  C35      1.0000 0.44570  0.86520  0.96927  Biso   1.000  C
  C36      1.0000 0.44930  0.90250  0.92992  Biso   1.000  C
  C37      1.0000 0.24850  0.13170  0.60187  Biso   1.000  C
  C38      1.0000 0.31260  0.10170  0.56615  Biso   1.000  C
  C39      1.0000 0.44750  0.10080  0.56363  Biso   1.000  C
  C40      1.0000 0.52350  0.12910  0.59726  Biso   1.000  C
  C41      1.0000 0.46210  0.16430  0.63542  Biso   1.000  C
  C42      1.0000 0.53160  0.19850  0.67119  Biso   1.000  C
  C43      1.0000 0.47040  0.23610  0.70612  Biso   1.000  C
  C44      1.0000 0.33570  0.24530  0.70704  Biso   1.000  C
  C45      1.0000 0.26450  0.21280  0.67360  Biso   1.000  C
  C46      1.0000 0.32280  0.16900  0.63709  Biso   1.000  C
  C47      1.0000 0.10260  0.11880  0.60259  Biso   1.000  C
  C48      1.0000 0.66720  0.12430  0.59076  Biso   1.000  C
  C49      1.0000 0.90300  0.71600  0.61733  Biso   1.000  C
  C50      1.0000 0.95290  0.70290  0.57829  Biso   1.000  C
  C51      1.0000 0.96510  0.59610  0.56032  Biso   1.000  C
  C52      1.0000 0.92340  0.50120  0.58097  Biso   1.000  C
  C53      1.0000 0.86890  0.51170  0.62165  Biso   1.000  C
  C54      1.0000 0.82960  0.41690  0.64579  Biso   1.000  C
  C55      1.0000 0.78220  0.43130  0.68492  Biso   1.000  C
  C56      1.0000 0.76970  0.53860  0.70245  Biso   1.000  C
  C57      1.0000 0.80610  0.63080  0.68024  Biso   1.000  C
  C58      1.0000 0.85980  0.62070  0.64024  Biso   1.000  C
  C59      1.0000 0.90340  0.83160  0.63646  Biso   1.000  C
  C60      1.0000 0.94390  0.38970  0.55977  Biso   1.000  C
  C61      1.0000 0.76820  0.95040  0.30989  Biso   1.000  C
  C62      1.0000 0.90110  0.95710  0.31433  Biso   1.000  C
  C63      1.0000 0.95200  0.99660  0.35135  Biso   1.000  C
  C64      1.0000 0.87170  0.02890  0.38321  Biso   1.000  C
  C65      1.0000 0.73840  0.02160  0.37843  Biso   1.000  C
  C66      1.0000 0.68680  0.98260  0.34182  Biso   1.000  C
  C67      1.0000 0.72960  0.95870  0.23392  Biso   1.000  C
  C68      1.0000 0.57810  0.83450  0.22795  Biso   1.000  C
  C69      1.0000 0.61310  0.83330  0.26816  Biso   1.000  C
  C70      1.0000 0.85400  0.09390  0.45607  Biso   1.000  C
  C71      1.0000 0.05430  0.13480  0.46927  Biso   1.000  C
  C72      1.0000 0.05070  0.09750  0.42992  Biso   1.000  C
  N1       1.0000 0.78950  0.08711  0.77165  Biso   1.000  N
  N2       1.0000 0.84970  0.08753  0.70653  Biso   1.000  N
  N3       1.0000 0.57700  0.92830  0.92128  Biso   1.000  N
  N4       1.0000 0.56990  0.86840  0.98562  Biso   1.000  N
  N5       1.0000 0.71050  0.91289  0.27165  Biso   1.000  N
  N6       1.0000 0.65030  0.91247  0.20653  Biso   1.000  N
  N7       1.0000 0.92300  0.07170  0.42128  Biso   1.000  N
  N8       1.0000 0.93010  0.13160  0.48562  Biso   1.000  N
  O1       1.0000 0.45400  0.88681  0.13693  Biso   1.000  O
  O2       1.0000 0.45298  0.89297  0.06812  Biso   1.000  O
  O3       1.0000 0.75669  0.85784  0.12105  Biso   1.000  O
  O4       1.0000 0.79053  0.89500  0.05464  Biso   1.000  O
  O5       1.0000 0.65830  0.09236  0.11694  Biso   1.000  O
  O6       1.0000 0.53430  0.14994  0.16821  Biso   1.000  O
  O7       1.0000 0.45270  0.62965  0.04218  Biso   1.000  O
  O8       1.0000 0.65146  0.67966  0.06174  Biso   1.000  O
  O9       1.0000 0.04600  0.11319  0.63693  Biso   1.000  O
  O10      1.0000 0.04702  0.10703  0.56812  Biso   1.000  O
  O11      1.0000 0.74331  0.14216  0.62105  Biso   1.000  O
  O12      1.0000 0.70947  0.10500  0.55464  Biso   1.000  O
  O13      1.0000 0.84170  0.90764  0.61694  Biso   1.000  O
  O14      1.0000 0.96570  0.85006  0.66821  Biso   1.000  O
  O15      1.0000 0.04730  0.37035  0.54218  Biso   1.000  O
  O16      1.0000 0.84854  0.32034  0.56174  Biso   1.000  O
  Zn5      1.0000 0.38525  0.33243  0.45629  Biso   1.000  Zn
  Zn6      1.0000 0.12364  0.54493  0.85252  Biso   1.000  Zn
  Zn7      1.0000 0.11475  0.66757  0.95629  Biso   1.000  Zn
  Zn8      1.0000 0.37636  0.45507  0.35252  Biso   1.000  Zn
  H45      1.0000 0.76430  0.41860  0.45700  Biso   1.000  H
  H46      1.0000 0.98720  0.41920  0.46120  Biso   1.000  H
  H47      1.0000 0.12180  0.30470  0.32910  Biso   1.000  H
  H48      1.0000 0.01890  0.24440  0.27060  Biso   1.000  H
  H49      1.0000 0.79450  0.22650  0.26950  Biso   1.000  H
  H50      1.0000 0.67470  0.28050  0.32530  Biso   1.000  H
  H51      1.0000 0.47920  0.73400  0.43650  Biso   1.000  H
  H52      1.0000 0.50180  0.91090  0.46590  Biso   1.000  H
  H53      1.0000 0.33640  0.15520  0.36520  Biso   1.000  H
  H54      1.0000 0.25770  0.13150  0.29970  Biso   1.000  H
  H55      1.0000 0.23670  0.95320  0.27090  Biso   1.000  H
  H56      1.0000 0.29520  0.79800  0.30830  Biso   1.000  H
  H57      1.0000 0.45580  0.56450  0.70720  Biso   1.000  H
  H58      1.0000 0.54150  0.49880  0.64530  Biso   1.000  H
  H59      1.0000 0.18380  0.45690  0.60000  Biso   1.000  H
  H60      1.0000 0.09730  0.52200  0.66140  Biso   1.000  H
  H61      1.0000 0.28980  0.48520  0.77200  Biso   1.000  H
  H62      1.0000 0.01410  0.71090  0.78370  Biso   1.000  H
  H63      1.0000 0.07900  0.71150  0.71090  Biso   1.000  H
  H64      1.0000 0.26480  0.41620  0.54130  Biso   1.000  H
  H65      1.0000 0.62820  0.34120  0.51680  Biso   1.000  H
  H66      1.0000 0.62090  0.40950  0.58800  Biso   1.000  H
  H67      1.0000 0.73570  0.58140  0.95700  Biso   1.000  H
  H68      1.0000 0.51280  0.58080  0.96120  Biso   1.000  H
  H69      1.0000 0.37820  0.69530  0.82910  Biso   1.000  H
  H70      1.0000 0.48110  0.75560  0.77060  Biso   1.000  H
  H71      1.0000 0.70550  0.77350  0.76950  Biso   1.000  H
  H72      1.0000 0.82530  0.71950  0.82530  Biso   1.000  H
  H73      1.0000 0.02080  0.26600  0.93650  Biso   1.000  H
  H74      1.0000 0.99820  0.08910  0.96590  Biso   1.000  H
  H75      1.0000 0.16360  0.84480  0.86520  Biso   1.000  H
  H76      1.0000 0.24230  0.86850  0.79970  Biso   1.000  H
  H77      1.0000 0.26330  0.04680  0.77090  Biso   1.000  H
  H78      1.0000 0.20480  0.20200  0.80830  Biso   1.000  H
  H79      1.0000 0.04420  0.43550  0.20720  Biso   1.000  H
  H80      1.0000 0.95850  0.50120  0.14530  Biso   1.000  H
  H81      1.0000 0.31620  0.54310  0.10000  Biso   1.000  H
  H82      1.0000 0.40270  0.47800  0.16140  Biso   1.000  H
  H83      1.0000 0.21020  0.51480  0.27200  Biso   1.000  H
  H84      1.0000 0.48590  0.28910  0.28370  Biso   1.000  H
  H85      1.0000 0.42100  0.28850  0.21090  Biso   1.000  H
  H86      1.0000 0.23520  0.58380  0.04130  Biso   1.000  H
  H87      1.0000 0.87180  0.65880  0.01680  Biso   1.000  H
  H88      1.0000 0.87910  0.59050  0.08800  Biso   1.000  H
  C73      1.0000 0.74850  0.36830  0.39813  Biso   1.000  C
  C74      1.0000 0.81260  0.39830  0.43385  Biso   1.000  C
  C75      1.0000 0.94750  0.39920  0.43637  Biso   1.000  C
  C76      1.0000 0.02350  0.37090  0.40274  Biso   1.000  C
  C77      1.0000 0.96210  0.33570  0.36458  Biso   1.000  C
  C78      1.0000 0.03160  0.30150  0.32881  Biso   1.000  C
  C79      1.0000 0.97040  0.26390  0.29388  Biso   1.000  C
  C80      1.0000 0.83570  0.25470  0.29296  Biso   1.000  C
  C81      1.0000 0.76450  0.28720  0.32640  Biso   1.000  C
  C82      1.0000 0.82280  0.33100  0.36291  Biso   1.000  C
  C83      1.0000 0.60260  0.38120  0.39741  Biso   1.000  C
  C84      1.0000 0.16720  0.37570  0.40924  Biso   1.000  C
  C85      1.0000 0.40300  0.78400  0.38267  Biso   1.000  C
  C86      1.0000 0.45290  0.79710  0.42171  Biso   1.000  C
  C87      1.0000 0.46510  0.90390  0.43968  Biso   1.000  C
  C88      1.0000 0.42340  0.99880  0.41903  Biso   1.000  C
  C89      1.0000 0.36890  0.98830  0.37835  Biso   1.000  C
  C90      1.0000 0.32960  0.08310  0.35421  Biso   1.000  C
  C91      1.0000 0.28220  0.06870  0.31508  Biso   1.000  C
  C92      1.0000 0.26970  0.96140  0.29755  Biso   1.000  C
  C93      1.0000 0.30610  0.86920  0.31976  Biso   1.000  C
  C94      1.0000 0.35980  0.87930  0.35976  Biso   1.000  C
  C95      1.0000 0.40340  0.66840  0.36354  Biso   1.000  C
  C96      1.0000 0.44390  0.11030  0.44023  Biso   1.000  C
  C97      1.0000 0.26820  0.54960  0.69011  Biso   1.000  C
  C98      1.0000 0.40110  0.54290  0.68567  Biso   1.000  C
  C99      1.0000 0.45200  0.50340  0.64865  Biso   1.000  C
  C100     1.0000 0.37170  0.47110  0.61679  Biso   1.000  C
  C101     1.0000 0.23840  0.47840  0.62157  Biso   1.000  C
  C102     1.0000 0.18680  0.51740  0.65818  Biso   1.000  C
  C103     1.0000 0.22960  0.54130  0.76608  Biso   1.000  C
  C104     1.0000 0.07810  0.66550  0.77205  Biso   1.000  C
  C105     1.0000 0.11310  0.66670  0.73184  Biso   1.000  C
  C106     1.0000 0.35400  0.40610  0.54393  Biso   1.000  C
  C107     1.0000 0.55430  0.36520  0.53073  Biso   1.000  C
  C108     1.0000 0.55070  0.40250  0.57008  Biso   1.000  C
  C109     1.0000 0.75150  0.63170  0.89813  Biso   1.000  C
  C110     1.0000 0.68740  0.60170  0.93385  Biso   1.000  C
  C111     1.0000 0.55250  0.60080  0.93637  Biso   1.000  C
  C112     1.0000 0.47650  0.62910  0.90274  Biso   1.000  C
  C113     1.0000 0.53790  0.66430  0.86458  Biso   1.000  C
  C114     1.0000 0.46840  0.69850  0.82881  Biso   1.000  C
  C115     1.0000 0.52960  0.73610  0.79388  Biso   1.000  C
  C116     1.0000 0.66430  0.74530  0.79296  Biso   1.000  C
  C117     1.0000 0.73550  0.71280  0.82640  Biso   1.000  C
  C118     1.0000 0.67720  0.66900  0.86291  Biso   1.000  C
  C119     1.0000 0.89740  0.61880  0.89741  Biso   1.000  C
  C120     1.0000 0.33280  0.62430  0.90924  Biso   1.000  C
  C121     1.0000 0.09700  0.21600  0.88267  Biso   1.000  C
  C122     1.0000 0.04710  0.20290  0.92171  Biso   1.000  C
  C123     1.0000 0.03490  0.09610  0.93968  Biso   1.000  C
  C124     1.0000 0.07660  0.00120  0.91903  Biso   1.000  C
  C125     1.0000 0.13110  0.01170  0.87835  Biso   1.000  C
  C126     1.0000 0.17040  0.91690  0.85421  Biso   1.000  C
  C127     1.0000 0.21780  0.93130  0.81508  Biso   1.000  C
  C128     1.0000 0.23030  0.03860  0.79755  Biso   1.000  C
  C129     1.0000 0.19390  0.13080  0.81976  Biso   1.000  C
  C130     1.0000 0.14020  0.12070  0.85976  Biso   1.000  C
  C131     1.0000 0.09660  0.33160  0.86354  Biso   1.000  C
  C132     1.0000 0.05610  0.88970  0.94023  Biso   1.000  C
  C133     1.0000 0.23180  0.45040  0.19011  Biso   1.000  C
  C134     1.0000 0.09890  0.45710  0.18567  Biso   1.000  C
  C135     1.0000 0.04800  0.49660  0.14865  Biso   1.000  C
  C136     1.0000 0.12830  0.52890  0.11679  Biso   1.000  C
  C137     1.0000 0.26160  0.52160  0.12157  Biso   1.000  C
  C138     1.0000 0.31320  0.48260  0.15818  Biso   1.000  C
  C139     1.0000 0.27040  0.45870  0.26608  Biso   1.000  C
  C140     1.0000 0.42190  0.33450  0.27205  Biso   1.000  C
  C141     1.0000 0.38690  0.33330  0.23184  Biso   1.000  C
  C142     1.0000 0.14600  0.59390  0.04393  Biso   1.000  C
  C143     1.0000 0.94570  0.63480  0.03073  Biso   1.000  C
  C144     1.0000 0.94930  0.59750  0.07008  Biso   1.000  C
  N9       1.0000 0.21050  0.58711  0.72835  Biso   1.000  N
  N10      1.0000 0.15030  0.58753  0.79347  Biso   1.000  N
  N11      1.0000 0.42300  0.42830  0.57872  Biso   1.000  N
  N12      1.0000 0.43010  0.36840  0.51438  Biso   1.000  N
  N13      1.0000 0.28950  0.41289  0.22835  Biso   1.000  N
  N14      1.0000 0.34970  0.41247  0.29347  Biso   1.000  N
  N15      1.0000 0.07700  0.57170  0.07872  Biso   1.000  N
  N16      1.0000 0.06990  0.63160  0.01438  Biso   1.000  N
  O17      1.0000 0.54600  0.38681  0.36307  Biso   1.000  O
  O18      1.0000 0.54702  0.39297  0.43188  Biso   1.000  O
  O19      1.0000 0.24331  0.35784  0.37895  Biso   1.000  O
  O20      1.0000 0.20947  0.39500  0.44536  Biso   1.000  O
  O21      1.0000 0.34170  0.59236  0.38306  Biso   1.000  O
  O22      1.0000 0.46570  0.64994  0.33179  Biso   1.000  O
  O23      1.0000 0.54730  0.12965  0.45782  Biso   1.000  O
  O24      1.0000 0.34854  0.17966  0.43826  Biso   1.000  O
  O25      1.0000 0.95400  0.61319  0.86307  Biso   1.000  O
  O26      1.0000 0.95298  0.60703  0.93188  Biso   1.000  O
  O27      1.0000 0.25669  0.64216  0.87895  Biso   1.000  O
  O28      1.0000 0.29053  0.60500  0.94536  Biso   1.000  O
  O29      1.0000 0.15830  0.40764  0.88306  Biso   1.000  O
  O30      1.0000 0.03430  0.35006  0.83179  Biso   1.000  O
  O31      1.0000 0.95270  0.87035  0.95782  Biso   1.000  O
  O32      1.0000 0.15146  0.82034  0.93826  Biso   1.000  O
