data_image0
_cell_length_a       12.03
_cell_length_b       12.8542
_cell_length_c       12.8542
_cell_angle_alpha    108.011
_cell_angle_beta     106.135
_cell_angle_gamma    106.135

_symmetry_space_group_name_H-M    P 1
_symmetry_int_tables_number       1

loop_
  _symmetry_equiv_pos_as_xyz
  'x, y, z'

loop_
  _atom_site_label
  _atom_site_occupancy
  _atom_site_fract_x
  _atom_site_fract_y
  _atom_site_fract_z
  _atom_site_thermal_displace_type
  _atom_site_B_iso_or_equiv
  _atom_site_type_symbol
  Zn1      1.0000 0.99048  0.25481  0.48877  Biso   1.000  Zn
  Zn2      1.0000 0.50952  0.51123  0.74519  Biso   1.000  Zn
  Zn3      1.0000 0.75000  0.78027  0.21973  Biso   1.000  Zn
  H1       1.0000 0.68400  0.33540  0.18260  Biso   1.000  H
  H2       1.0000 0.80100  0.44990  0.91410  Biso   1.000  H
  H3       1.0000 0.97500  0.24040  0.24160  Biso   1.000  H
  H4       1.0000 0.91900  0.48510  0.61290  Biso   1.000  H
  H5       1.0000 0.96200  0.23970  0.70630  Biso   1.000  H
  H6       1.0000 0.77000  0.41780  0.07420  Biso   1.000  H
  H7       1.0000 0.74900  0.31900  0.38100  Biso   1.000  H
  H8       1.0000 0.86800  0.50440  0.79360  Biso   1.000  H
  H9       1.0000 0.93000  0.18800  0.03600  Biso   1.000  H
  H10      1.0000 0.97400  0.22600  0.88000  Biso   1.000  H
  H11      1.0000 0.81600  0.81740  0.66460  Biso   1.000  H
  H12      1.0000 0.69900  0.08590  0.55010  Biso   1.000  H
  H13      1.0000 0.52500  0.75840  0.75960  Biso   1.000  H
  H14      1.0000 0.58100  0.38710  0.51490  Biso   1.000  H
  H15      1.0000 0.53800  0.29370  0.76030  Biso   1.000  H
  H16      1.0000 0.73000  0.92580  0.58220  Biso   1.000  H
  H17      1.0000 0.75100  0.61900  0.68100  Biso   1.000  H
  H18      1.0000 0.63200  0.20640  0.49560  Biso   1.000  H
  H19      1.0000 0.57000  0.96400  0.81200  Biso   1.000  H
  H20      1.0000 0.52600  0.12000  0.77400  Biso   1.000  H
  C1       1.0000 0.91890  0.44108  0.65892  Biso   1.000  C
  C2       1.0000 0.94490  0.30295  0.70885  Biso   1.000  C
  C3       1.0000 0.75160  0.31370  0.22150  Biso   1.000  C
  C4       1.0000 0.82810  0.00849  0.38591  Biso   1.000  C
  C5       1.0000 0.84680  0.29985  0.06975  Biso   1.000  C
  C6       1.0000 0.92780  0.01217  0.33063  Biso   1.000  C
  C7       1.0000 0.90970  0.26069  0.24951  Biso   1.000  C
  C8       1.0000 0.88880  0.34261  0.88439  Biso   1.000  C
  C9       1.0000 0.80730  0.37762  0.03478  Biso   1.000  C
  C10      1.0000 0.92920  0.26305  0.91935  Biso   1.000  C
  C11      1.0000 0.90610  0.24081  0.01179  Biso   1.000  C
  C12      1.0000 0.82760  0.39852  0.94108  Biso   1.000  C
  C13      1.0000 0.89390  0.45487  0.75633  Biso   1.000  C
  C14      1.0000 0.78360  0.30380  0.32500  Biso   1.000  C
  C15      1.0000 0.58110  0.34108  0.55892  Biso   1.000  C
  C16      1.0000 0.55510  0.29115  0.69705  Biso   1.000  C
  C17      1.0000 0.74840  0.77850  0.68630  Biso   1.000  C
  C18      1.0000 0.67190  0.61409  0.99151  Biso   1.000  C
  C19      1.0000 0.65320  0.93025  0.70015  Biso   1.000  C
  C20      1.0000 0.57220  0.66937  0.98783  Biso   1.000  C
  C21      1.0000 0.59030  0.75049  0.73931  Biso   1.000  C
  C22      1.0000 0.61120  0.11561  0.65739  Biso   1.000  C
  C23      1.0000 0.69270  0.96522  0.62238  Biso   1.000  C
  C24      1.0000 0.57080  0.08065  0.73695  Biso   1.000  C
  C25      1.0000 0.59390  0.98821  0.75919  Biso   1.000  C
  C26      1.0000 0.67240  0.05892  0.60148  Biso   1.000  C
  C27      1.0000 0.60610  0.24367  0.54513  Biso   1.000  C
  C28      1.0000 0.71640  0.67500  0.69620  Biso   1.000  C
  C29      1.0000 0.25000  0.34340  0.65660  Biso   1.000  C
  C30      1.0000 0.25000  0.41770  0.58230  Biso   1.000  C
  N1       1.0000 0.95170  0.34544  0.62936  Biso   1.000  N
  N2       1.0000 0.88330  0.27029  0.34331  Biso   1.000  N
  N3       1.0000 0.83370  0.28635  0.17265  Biso   1.000  N
  N4       1.0000 0.90970  0.36559  0.78801  Biso   1.000  N
  N5       1.0000 0.54830  0.37064  0.65456  Biso   1.000  N
  N6       1.0000 0.61670  0.65669  0.72971  Biso   1.000  N
  N7       1.0000 0.66630  0.82735  0.71365  Biso   1.000  N
  N8       1.0000 0.59030  0.21199  0.63441  Biso   1.000  N
  O1       1.0000 0.90980  0.91628  0.25004  Biso   1.000  O
  O2       1.0000 0.73570  0.91176  0.34380  Biso   1.000  O
  O3       1.0000 0.84870  0.10217  0.46737  Biso   1.000  O
  O4       1.0000 0.01630  0.10992  0.36962  Biso   1.000  O
  O5       1.0000 0.59020  0.74996  0.08372  Biso   1.000  O
  O6       1.0000 0.76430  0.65620  0.08824  Biso   1.000  O
  O7       1.0000 0.65130  0.53263  0.89783  Biso   1.000  O
  O8       1.0000 0.48370  0.63038  0.89008  Biso   1.000  O
  O9       1.0000 0.14750  0.38958  0.50104  Biso   1.000  O
  O10      1.0000 0.14900  0.26085  0.63131  Biso   1.000  O
  O11      1.0000 0.35250  0.49896  0.61042  Biso   1.000  O
  O12      1.0000 0.35100  0.36869  0.73915  Biso   1.000  O
  Zn4      1.0000 0.00952  0.74519  0.51123  Biso   1.000  Zn
  Zn5      1.0000 0.49048  0.48877  0.25481  Biso   1.000  Zn
  Zn6      1.0000 0.25000  0.21973  0.78027  Biso   1.000  Zn
  H21      1.0000 0.31600  0.66460  0.81740  Biso   1.000  H
  H22      1.0000 0.19900  0.55010  0.08590  Biso   1.000  H
  H23      1.0000 0.02500  0.75960  0.75840  Biso   1.000  H
  H24      1.0000 0.08100  0.51490  0.38710  Biso   1.000  H
  H25      1.0000 0.03800  0.76030  0.29370  Biso   1.000  H
  H26      1.0000 0.23000  0.58220  0.92580  Biso   1.000  H
  H27      1.0000 0.25100  0.68100  0.61900  Biso   1.000  H
  H28      1.0000 0.13200  0.49560  0.20640  Biso   1.000  H
  H29      1.0000 0.07000  0.81200  0.96400  Biso   1.000  H
  H30      1.0000 0.02600  0.77400  0.12000  Biso   1.000  H
  H31      1.0000 0.18400  0.18260  0.33540  Biso   1.000  H
  H32      1.0000 0.30100  0.91410  0.44990  Biso   1.000  H
  H33      1.0000 0.47500  0.24160  0.24040  Biso   1.000  H
  H34      1.0000 0.41900  0.61290  0.48510  Biso   1.000  H
  H35      1.0000 0.46200  0.70630  0.23970  Biso   1.000  H
  H36      1.0000 0.27000  0.07420  0.41780  Biso   1.000  H
  H37      1.0000 0.24900  0.38100  0.31900  Biso   1.000  H
  H38      1.0000 0.36800  0.79360  0.50440  Biso   1.000  H
  H39      1.0000 0.43000  0.03600  0.18800  Biso   1.000  H
  H40      1.0000 0.47400  0.88000  0.22600  Biso   1.000  H
  C31      1.0000 0.08110  0.55892  0.34108  Biso   1.000  C
  C32      1.0000 0.05510  0.69705  0.29115  Biso   1.000  C
  C33      1.0000 0.24840  0.68630  0.77850  Biso   1.000  C
  C34      1.0000 0.17190  0.99151  0.61409  Biso   1.000  C
  C35      1.0000 0.15320  0.70015  0.93025  Biso   1.000  C
  C36      1.0000 0.07220  0.98783  0.66937  Biso   1.000  C
  C37      1.0000 0.09030  0.73931  0.75049  Biso   1.000  C
  C38      1.0000 0.11120  0.65739  0.11561  Biso   1.000  C
  C39      1.0000 0.19270  0.62238  0.96522  Biso   1.000  C
  C40      1.0000 0.07080  0.73695  0.08065  Biso   1.000  C
  C41      1.0000 0.09390  0.75919  0.98821  Biso   1.000  C
  C42      1.0000 0.17240  0.60148  0.05892  Biso   1.000  C
  C43      1.0000 0.10610  0.54513  0.24367  Biso   1.000  C
  C44      1.0000 0.21640  0.69620  0.67500  Biso   1.000  C
  C45      1.0000 0.41890  0.65892  0.44108  Biso   1.000  C
  C46      1.0000 0.44490  0.70885  0.30295  Biso   1.000  C
  C47      1.0000 0.25160  0.22150  0.31370  Biso   1.000  C
  C48      1.0000 0.32810  0.38591  0.00849  Biso   1.000  C
  C49      1.0000 0.34680  0.06975  0.29985  Biso   1.000  C
  C50      1.0000 0.42780  0.33063  0.01217  Biso   1.000  C
  C51      1.0000 0.40970  0.24951  0.26069  Biso   1.000  C
  C52      1.0000 0.38880  0.88439  0.34261  Biso   1.000  C
  C53      1.0000 0.30730  0.03478  0.37762  Biso   1.000  C
  C54      1.0000 0.42920  0.91935  0.26305  Biso   1.000  C
  C55      1.0000 0.40610  0.01179  0.24081  Biso   1.000  C
  C56      1.0000 0.32760  0.94108  0.39852  Biso   1.000  C
  C57      1.0000 0.39390  0.75633  0.45487  Biso   1.000  C
  C58      1.0000 0.28360  0.32500  0.30380  Biso   1.000  C
  C59      1.0000 0.75000  0.65660  0.34340  Biso   1.000  C
  C60      1.0000 0.75000  0.58230  0.41770  Biso   1.000  C
  N9       1.0000 0.04830  0.65456  0.37064  Biso   1.000  N
  N10      1.0000 0.11670  0.72971  0.65669  Biso   1.000  N
  N11      1.0000 0.16630  0.71365  0.82735  Biso   1.000  N
  N12      1.0000 0.09030  0.63441  0.21199  Biso   1.000  N
  N13      1.0000 0.45170  0.62936  0.34544  Biso   1.000  N
  N14      1.0000 0.38330  0.34331  0.27029  Biso   1.000  N
  N15      1.0000 0.33370  0.17265  0.28635  Biso   1.000  N
  N16      1.0000 0.40970  0.78801  0.36559  Biso   1.000  N
  O13      1.0000 0.85250  0.61042  0.49896  Biso   1.000  O
  O14      1.0000 0.85100  0.73915  0.36869  Biso   1.000  O
  O15      1.0000 0.64750  0.50104  0.38958  Biso   1.000  O
  O16      1.0000 0.64900  0.63131  0.26085  Biso   1.000  O
  O17      1.0000 0.09020  0.08372  0.74996  Biso   1.000  O
  O18      1.0000 0.26430  0.08824  0.65620  Biso   1.000  O
  O19      1.0000 0.15130  0.89783  0.53263  Biso   1.000  O
  O20      1.0000 0.98370  0.89008  0.63038  Biso   1.000  O
  O21      1.0000 0.40980  0.25004  0.91628  Biso   1.000  O
  O22      1.0000 0.23570  0.34380  0.91176  Biso   1.000  O
  O23      1.0000 0.34870  0.46737  0.10217  Biso   1.000  O
  O24      1.0000 0.51630  0.36962  0.10992  Biso   1.000  O
