data_image0
_cell_length_a       8.5692
_cell_length_b       8.5692
_cell_length_c       14.621
_cell_angle_alpha    90.687
_cell_angle_beta     90.687
_cell_angle_gamma    90.5248

_symmetry_space_group_name_H-M    P 1
_symmetry_int_tables_number       1

loop_
  _symmetry_equiv_pos_as_xyz
  'x, y, z'

loop_
  _atom_site_label
  _atom_site_occupancy
  _atom_site_fract_x
  _atom_site_fract_y
  _atom_site_fract_z
  _atom_site_thermal_displace_type
  _atom_site_B_iso_or_equiv
  _atom_site_type_symbol
  Cd1      1.0000 0.49348  0.50652  0.75000  Biso   1.000  Cd
  Cd2      1.0000 0.50652  0.49348  0.25000  Biso   1.000  Cd
  Cd3      1.0000 0.00000  0.50000  0.00000  Biso   1.000  Cd
  Cd4      1.0000 0.50000  0.00000  0.50000  Biso   1.000  Cd
  H1       1.0000 0.09964  0.18670  0.95058  Biso   1.000  H
  H2       1.0000 0.89203  0.18879  0.94639  Biso   1.000  H
  H3       1.0000 0.99150  0.17400  0.05344  Biso   1.000  H
  H4       1.0000 0.81330  0.90036  0.54942  Biso   1.000  H
  H5       1.0000 0.81121  0.10797  0.55361  Biso   1.000  H
  H6       1.0000 0.82600  0.00850  0.44656  Biso   1.000  H
  H7       1.0000 0.90036  0.81330  0.04942  Biso   1.000  H
  H8       1.0000 0.10797  0.81121  0.05361  Biso   1.000  H
  H9       1.0000 0.00850  0.82600  0.94656  Biso   1.000  H
  H10      1.0000 0.18670  0.09964  0.45058  Biso   1.000  H
  H11      1.0000 0.18879  0.89203  0.44639  Biso   1.000  H
  H12      1.0000 0.17400  0.99150  0.55344  Biso   1.000  H
  C1       1.0000 0.28590  0.50710  0.83640  Biso   1.000  C
  C2       1.0000 0.49160  0.30100  0.65860  Biso   1.000  C
  C3       1.0000 0.49290  0.71410  0.66360  Biso   1.000  C
  C4       1.0000 0.69900  0.50840  0.84140  Biso   1.000  C
  C5       1.0000 0.71410  0.49290  0.16360  Biso   1.000  C
  C6       1.0000 0.50840  0.69900  0.34140  Biso   1.000  C
  C7       1.0000 0.50710  0.28590  0.33640  Biso   1.000  C
  C8       1.0000 0.30100  0.49160  0.15860  Biso   1.000  C
  N1       1.0000 0.18350  0.51150  0.88390  Biso   1.000  N
  N2       1.0000 0.19960  0.49020  0.10850  Biso   1.000  N
  N3       1.0000 0.99510  0.22550  0.98570  Biso   1.000  N
  N4       1.0000 0.48850  0.81650  0.61610  Biso   1.000  N
  N5       1.0000 0.50980  0.80040  0.39150  Biso   1.000  N
  N6       1.0000 0.77450  0.00490  0.51430  Biso   1.000  N
  N7       1.0000 0.81650  0.48850  0.11610  Biso   1.000  N
  N8       1.0000 0.80040  0.50980  0.89150  Biso   1.000  N
  N9       1.0000 0.00490  0.77450  0.01430  Biso   1.000  N
  N10      1.0000 0.51150  0.18350  0.38390  Biso   1.000  N
  N11      1.0000 0.49020  0.19960  0.60850  Biso   1.000  N
  N12      1.0000 0.22550  0.99510  0.48570  Biso   1.000  N
