data_image0
_cell_length_a       8.1768
_cell_length_b       8.1768
_cell_length_c       15.837
_cell_angle_alpha    91.3882
_cell_angle_beta     91.3882
_cell_angle_gamma    95.2028

_symmetry_space_group_name_H-M    P 1
_symmetry_int_tables_number       1

loop_
  _symmetry_equiv_pos_as_xyz
  'x, y, z'

loop_
  _atom_site_label
  _atom_site_occupancy
  _atom_site_fract_x
  _atom_site_fract_y
  _atom_site_fract_z
  _atom_site_thermal_displace_type
  _atom_site_B_iso_or_equiv
  _atom_site_type_symbol
  Cd1      1.0000 0.49269  0.51411  0.74956  Biso   1.000  Cd
  Cd2      1.0000 0.00367  0.49633  0.00000  Biso   1.000  Cd
  Cd3      1.0000 0.51411  0.49269  0.24956  Biso   1.000  Cd
  Cd4      1.0000 0.49633  0.00367  0.50000  Biso   1.000  Cd
  H1       1.0000 0.81951  0.19611  0.95958  Biso   1.000  H
  H2       1.0000 0.00077  0.20807  0.89921  Biso   1.000  H
  H3       1.0000 0.14782  0.12218  0.01840  Biso   1.000  H
  H4       1.0000 0.96086  0.10046  0.07399  Biso   1.000  H
  H5       1.0000 0.04244  0.89928  0.92028  Biso   1.000  H
  H6       1.0000 0.85541  0.87759  0.97581  Biso   1.000  H
  H7       1.0000 0.00013  0.79093  0.09216  Biso   1.000  H
  H8       1.0000 0.17993  0.80107  0.03070  Biso   1.000  H
  H9       1.0000 0.19611  0.81951  0.45958  Biso   1.000  H
  H10      1.0000 0.20807  0.00077  0.39921  Biso   1.000  H
  H11      1.0000 0.12218  0.14782  0.51840  Biso   1.000  H
  H12      1.0000 0.10046  0.96086  0.57399  Biso   1.000  H
  H13      1.0000 0.89928  0.04244  0.42028  Biso   1.000  H
  H14      1.0000 0.87759  0.85541  0.47581  Biso   1.000  H
  H15      1.0000 0.79093  0.00013  0.59216  Biso   1.000  H
  H16      1.0000 0.80107  0.17993  0.53070  Biso   1.000  H
  C1       1.0000 0.28670  0.50330  0.83820  Biso   1.000  C
  C2       1.0000 0.72940  0.47980  0.16420  Biso   1.000  C
  C3       1.0000 0.48110  0.30750  0.65310  Biso   1.000  C
  C4       1.0000 0.69880  0.53060  0.84300  Biso   1.000  C
  C5       1.0000 0.01620  0.08720  0.01250  Biso   1.000  C
  C6       1.0000 0.98710  0.91250  0.98170  Biso   1.000  C
  C7       1.0000 0.50330  0.28670  0.33820  Biso   1.000  C
  C8       1.0000 0.47980  0.72940  0.66420  Biso   1.000  C
  C9       1.0000 0.30750  0.48110  0.15310  Biso   1.000  C
  C10      1.0000 0.53060  0.69880  0.34300  Biso   1.000  C
  C11      1.0000 0.08720  0.01620  0.51250  Biso   1.000  C
  C12      1.0000 0.91250  0.98710  0.48170  Biso   1.000  C
  N1       1.0000 0.18440  0.50700  0.89070  Biso   1.000  N
  N2       1.0000 0.81200  0.47860  0.11110  Biso   1.000  N
  N3       1.0000 0.47160  0.21100  0.60120  Biso   1.000  N
  N4       1.0000 0.79620  0.53440  0.89640  Biso   1.000  N
  N5       1.0000 0.95330  0.21390  0.96280  Biso   1.000  N
  N6       1.0000 0.04610  0.78630  0.02820  Biso   1.000  N
  N7       1.0000 0.50700  0.18440  0.39070  Biso   1.000  N
  N8       1.0000 0.47860  0.81200  0.61110  Biso   1.000  N
  N9       1.0000 0.21100  0.47160  0.10120  Biso   1.000  N
  N10      1.0000 0.53440  0.79620  0.39640  Biso   1.000  N
  N11      1.0000 0.21390  0.95330  0.46280  Biso   1.000  N
  N12      1.0000 0.78630  0.04610  0.52820  Biso   1.000  N
