data_image0
_cell_length_a       15.6167
_cell_length_b       15.6167
_cell_length_c       16.7178
_cell_angle_alpha    100.835
_cell_angle_beta     100.835
_cell_angle_gamma    119.905

_symmetry_space_group_name_H-M    P 1
_symmetry_int_tables_number       1

loop_
  _symmetry_equiv_pos_as_xyz
  'x, y, z'

loop_
  _atom_site_label
  _atom_site_occupancy
  _atom_site_fract_x
  _atom_site_fract_y
  _atom_site_fract_z
  _atom_site_thermal_displace_type
  _atom_site_B_iso_or_equiv
  _atom_site_type_symbol
  Co1      1.0000 0.50495  0.06877  0.62081  Biso   1.000  Co
  Co2      1.0000 0.93123  0.49505  0.87919  Biso   1.000  Co
  Co3      1.0000 0.49505  0.93123  0.37919  Biso   1.000  Co
  Co4      1.0000 0.06877  0.50495  0.12081  Biso   1.000  Co
  H1       1.0000 0.66280  0.30440  0.65390  Biso   1.000  H
  H2       1.0000 0.66830  0.45270  0.65760  Biso   1.000  H
  H3       1.0000 0.35720  0.28540  0.57980  Biso   1.000  H
  H4       1.0000 0.35930  0.13930  0.57520  Biso   1.000  H
  H5       1.0000 0.64990  0.56630  0.60110  Biso   1.000  H
  H6       1.0000 0.64730  0.71190  0.60350  Biso   1.000  H
  H7       1.0000 0.37430  0.57910  0.64610  Biso   1.000  H
  H8       1.0000 0.37860  0.43400  0.64680  Biso   1.000  H
  H9       1.0000 0.66320  0.86360  0.67780  Biso   1.000  H
  H10      1.0000 0.65530  0.00530  0.67950  Biso   1.000  H
  H11      1.0000 0.35330  0.83050  0.58050  Biso   1.000  H
  H12      1.0000 0.35240  0.68380  0.57550  Biso   1.000  H
  H13      1.0000 0.77560  0.04580  0.46310  Biso   1.000  H
  H14      1.0000 0.94940  0.13560  0.47410  Biso   1.000  H
  H15      1.0000 0.00830  0.37690  0.66210  Biso   1.000  H
  H16      1.0000 0.83520  0.28380  0.65640  Biso   1.000  H
  H17      1.0000 0.10640  0.24980  0.40250  Biso   1.000  H
  H18      1.0000 0.08660  0.29540  0.28070  Biso   1.000  H
  H19      1.0000 0.12760  0.55820  0.41960  Biso   1.000  H
  H20      1.0000 0.14240  0.51180  0.54060  Biso   1.000  H
  H21      1.0000 0.69560  0.33720  0.84610  Biso   1.000  H
  H22      1.0000 0.54730  0.33170  0.84240  Biso   1.000  H
  H23      1.0000 0.71460  0.64280  0.92020  Biso   1.000  H
  H24      1.0000 0.86070  0.64070  0.92480  Biso   1.000  H
  H25      1.0000 0.43370  0.35010  0.89890  Biso   1.000  H
  H26      1.0000 0.28810  0.35270  0.89650  Biso   1.000  H
  H27      1.0000 0.42090  0.62570  0.85390  Biso   1.000  H
  H28      1.0000 0.56600  0.62140  0.85320  Biso   1.000  H
  H29      1.0000 0.13640  0.33680  0.82220  Biso   1.000  H
  H30      1.0000 0.99470  0.34470  0.82050  Biso   1.000  H
  H31      1.0000 0.16950  0.64670  0.91950  Biso   1.000  H
  H32      1.0000 0.31620  0.64760  0.92450  Biso   1.000  H
  H33      1.0000 0.95420  0.22440  0.03690  Biso   1.000  H
  H34      1.0000 0.86440  0.05060  0.02590  Biso   1.000  H
  H35      1.0000 0.62310  0.99170  0.83790  Biso   1.000  H
  H36      1.0000 0.71620  0.16480  0.84360  Biso   1.000  H
  H37      1.0000 0.75020  0.89360  0.09750  Biso   1.000  H
  H38      1.0000 0.70460  0.91340  0.21930  Biso   1.000  H
  H39      1.0000 0.44180  0.87240  0.08040  Biso   1.000  H
  H40      1.0000 0.48820  0.85760  0.95940  Biso   1.000  H
  H41      1.0000 0.33720  0.69560  0.34610  Biso   1.000  H
  H42      1.0000 0.33170  0.54730  0.34240  Biso   1.000  H
  H43      1.0000 0.64280  0.71460  0.42020  Biso   1.000  H
  H44      1.0000 0.64070  0.86070  0.42480  Biso   1.000  H
  H45      1.0000 0.35010  0.43370  0.39890  Biso   1.000  H
  H46      1.0000 0.35270  0.28810  0.39650  Biso   1.000  H
  H47      1.0000 0.62570  0.42090  0.35390  Biso   1.000  H
  H48      1.0000 0.62140  0.56600  0.35320  Biso   1.000  H
  H49      1.0000 0.33680  0.13640  0.32220  Biso   1.000  H
  H50      1.0000 0.34470  0.99470  0.32050  Biso   1.000  H
  H51      1.0000 0.64670  0.16950  0.41950  Biso   1.000  H
  H52      1.0000 0.64760  0.31620  0.42450  Biso   1.000  H
  H53      1.0000 0.22440  0.95420  0.53690  Biso   1.000  H
  H54      1.0000 0.05060  0.86440  0.52590  Biso   1.000  H
  H55      1.0000 0.99170  0.62310  0.33790  Biso   1.000  H
  H56      1.0000 0.16480  0.71620  0.34360  Biso   1.000  H
  H57      1.0000 0.89360  0.75020  0.59750  Biso   1.000  H
  H58      1.0000 0.91340  0.70460  0.71930  Biso   1.000  H
  H59      1.0000 0.87240  0.44180  0.58040  Biso   1.000  H
  H60      1.0000 0.85760  0.48820  0.45940  Biso   1.000  H
  H61      1.0000 0.30440  0.66280  0.15390  Biso   1.000  H
  H62      1.0000 0.45270  0.66830  0.15760  Biso   1.000  H
  H63      1.0000 0.28540  0.35720  0.07980  Biso   1.000  H
  H64      1.0000 0.13930  0.35930  0.07520  Biso   1.000  H
  H65      1.0000 0.56630  0.64990  0.10110  Biso   1.000  H
  H66      1.0000 0.71190  0.64730  0.10350  Biso   1.000  H
  H67      1.0000 0.57910  0.37430  0.14610  Biso   1.000  H
  H68      1.0000 0.43400  0.37860  0.14680  Biso   1.000  H
  H69      1.0000 0.86360  0.66320  0.17780  Biso   1.000  H
  H70      1.0000 0.00530  0.65530  0.17950  Biso   1.000  H
  H71      1.0000 0.83050  0.35330  0.08050  Biso   1.000  H
  H72      1.0000 0.68380  0.35240  0.07550  Biso   1.000  H
  H73      1.0000 0.04580  0.77560  0.96310  Biso   1.000  H
  H74      1.0000 0.13560  0.94940  0.97410  Biso   1.000  H
  H75      1.0000 0.37690  0.00830  0.16210  Biso   1.000  H
  H76      1.0000 0.28380  0.83520  0.15640  Biso   1.000  H
  H77      1.0000 0.24980  0.10640  0.90250  Biso   1.000  H
  H78      1.0000 0.29540  0.08660  0.78070  Biso   1.000  H
  H79      1.0000 0.55820  0.12760  0.91960  Biso   1.000  H
  H80      1.0000 0.51180  0.14240  0.04060  Biso   1.000  H
  C1       1.0000 0.59995  0.30005  0.63860  Biso   1.000  C
  C2       1.0000 0.60389  0.38971  0.64110  Biso   1.000  C
  C3       1.0000 0.51282  0.38778  0.61950  Biso   1.000  C
  C4       1.0000 0.42089  0.29151  0.59500  Biso   1.000  C
  C5       1.0000 0.42290  0.20370  0.59300  Biso   1.000  C
  C6       1.0000 0.51319  0.48301  0.62250  Biso   1.000  C
  C7       1.0000 0.59401  0.56839  0.61030  Biso   1.000  C
  C8       1.0000 0.59235  0.65565  0.61170  Biso   1.000  C
  C9       1.0000 0.51042  0.66138  0.62510  Biso   1.000  C
  C10      1.0000 0.43047  0.57713  0.63740  Biso   1.000  C
  C11      1.0000 0.43268  0.48952  0.63700  Biso   1.000  C
  C12      1.0000 0.50860  0.75520  0.62610  Biso   1.000  C
  C13      1.0000 0.59851  0.85429  0.65710  Biso   1.000  C
  C14      1.0000 0.59318  0.93942  0.65760  Biso   1.000  C
  C15      1.0000 0.41699  0.83741  0.59980  Biso   1.000  C
  C16      1.0000 0.41573  0.74867  0.59700  Biso   1.000  C
  C17      1.0000 0.67445  0.09615  0.55260  Biso   1.000  C
  C18      1.0000 0.78822  0.15518  0.55959  Biso   1.000  C
  C19      1.0000 0.82276  0.11184  0.50430  Biso   1.000  C
  C20      1.0000 0.92555  0.16545  0.51000  Biso   1.000  C
  C21      1.0000 0.99380  0.26480  0.56970  Biso   1.000  C
  C22      1.0000 0.96130  0.30950  0.62310  Biso   1.000  C
  C23      1.0000 0.85792  0.25428  0.61910  Biso   1.000  C
  C24      1.0000 0.12364  0.37596  0.48350  Biso   1.000  C
  C25      1.0000 0.10892  0.31108  0.40550  Biso   1.000  C
  C26      1.0000 0.09798  0.33902  0.33330  Biso   1.000  C
  C27      1.0000 0.10363  0.43037  0.33720  Biso   1.000  C
  C28      1.0000 0.12171  0.49529  0.41600  Biso   1.000  C
  C29      1.0000 0.13104  0.46796  0.48810  Biso   1.000  C
  C30      1.0000 0.08851  0.45829  0.25660  Biso   1.000  C
  C31      1.0000 0.69995  0.40005  0.86140  Biso   1.000  C
  C32      1.0000 0.61029  0.39611  0.85890  Biso   1.000  C
  C33      1.0000 0.61222  0.48718  0.88050  Biso   1.000  C
  C34      1.0000 0.70849  0.57911  0.90500  Biso   1.000  C
  C35      1.0000 0.79630  0.57710  0.90700  Biso   1.000  C
  C36      1.0000 0.51699  0.48681  0.87750  Biso   1.000  C
  C37      1.0000 0.43161  0.40599  0.88970  Biso   1.000  C
  C38      1.0000 0.34435  0.40765  0.88830  Biso   1.000  C
  C39      1.0000 0.33862  0.48958  0.87490  Biso   1.000  C
  C40      1.0000 0.42287  0.56953  0.86260  Biso   1.000  C
  C41      1.0000 0.51048  0.56732  0.86300  Biso   1.000  C
  C42      1.0000 0.24480  0.49140  0.87390  Biso   1.000  C
  C43      1.0000 0.14571  0.40149  0.84290  Biso   1.000  C
  C44      1.0000 0.06058  0.40682  0.84240  Biso   1.000  C
  C45      1.0000 0.16259  0.58301  0.90020  Biso   1.000  C
  C46      1.0000 0.25133  0.58427  0.90300  Biso   1.000  C
  C47      1.0000 0.90385  0.32555  0.94740  Biso   1.000  C
  C48      1.0000 0.84482  0.21178  0.94041  Biso   1.000  C
  C49      1.0000 0.88816  0.17724  0.99570  Biso   1.000  C
  C50      1.0000 0.83455  0.07445  0.99000  Biso   1.000  C
  C51      1.0000 0.73520  0.00620  0.93030  Biso   1.000  C
  C52      1.0000 0.69050  0.03870  0.87690  Biso   1.000  C
  C53      1.0000 0.74572  0.14208  0.88090  Biso   1.000  C
  C54      1.0000 0.62404  0.87636  0.01650  Biso   1.000  C
  C55      1.0000 0.68892  0.89108  0.09450  Biso   1.000  C
  C56      1.0000 0.66098  0.90202  0.16670  Biso   1.000  C
  C57      1.0000 0.56963  0.89637  0.16280  Biso   1.000  C
  C58      1.0000 0.50471  0.87829  0.08400  Biso   1.000  C
  C59      1.0000 0.53204  0.86896  0.01190  Biso   1.000  C
  C60      1.0000 0.54171  0.91149  0.24340  Biso   1.000  C
  C61      1.0000 0.40005  0.69995  0.36140  Biso   1.000  C
  C62      1.0000 0.39611  0.61029  0.35890  Biso   1.000  C
  C63      1.0000 0.48718  0.61222  0.38050  Biso   1.000  C
  C64      1.0000 0.57911  0.70849  0.40500  Biso   1.000  C
  C65      1.0000 0.57710  0.79630  0.40700  Biso   1.000  C
  C66      1.0000 0.48681  0.51699  0.37750  Biso   1.000  C
  C67      1.0000 0.40599  0.43161  0.38970  Biso   1.000  C
  C68      1.0000 0.40765  0.34435  0.38830  Biso   1.000  C
  C69      1.0000 0.48958  0.33862  0.37490  Biso   1.000  C
  C70      1.0000 0.56953  0.42287  0.36260  Biso   1.000  C
  C71      1.0000 0.56732  0.51048  0.36300  Biso   1.000  C
  C72      1.0000 0.49140  0.24480  0.37390  Biso   1.000  C
  C73      1.0000 0.40149  0.14571  0.34290  Biso   1.000  C
  C74      1.0000 0.40682  0.06058  0.34240  Biso   1.000  C
  C75      1.0000 0.58301  0.16259  0.40020  Biso   1.000  C
  C76      1.0000 0.58427  0.25133  0.40300  Biso   1.000  C
  C77      1.0000 0.32555  0.90385  0.44740  Biso   1.000  C
  C78      1.0000 0.21178  0.84482  0.44041  Biso   1.000  C
  C79      1.0000 0.17724  0.88816  0.49570  Biso   1.000  C
  C80      1.0000 0.07445  0.83455  0.49000  Biso   1.000  C
  C81      1.0000 0.00620  0.73520  0.43030  Biso   1.000  C
  C82      1.0000 0.03870  0.69050  0.37690  Biso   1.000  C
  C83      1.0000 0.14208  0.74572  0.38090  Biso   1.000  C
  C84      1.0000 0.87636  0.62404  0.51650  Biso   1.000  C
  C85      1.0000 0.89108  0.68892  0.59450  Biso   1.000  C
  C86      1.0000 0.90202  0.66098  0.66670  Biso   1.000  C
  C87      1.0000 0.89637  0.56963  0.66280  Biso   1.000  C
  C88      1.0000 0.87829  0.50471  0.58400  Biso   1.000  C
  C89      1.0000 0.86896  0.53204  0.51190  Biso   1.000  C
  C90      1.0000 0.91149  0.54171  0.74340  Biso   1.000  C
  C91      1.0000 0.30005  0.59995  0.13860  Biso   1.000  C
  C92      1.0000 0.38971  0.60389  0.14110  Biso   1.000  C
  C93      1.0000 0.38778  0.51282  0.11950  Biso   1.000  C
  C94      1.0000 0.29151  0.42089  0.09500  Biso   1.000  C
  C95      1.0000 0.20370  0.42290  0.09300  Biso   1.000  C
  C96      1.0000 0.48301  0.51319  0.12250  Biso   1.000  C
  C97      1.0000 0.56839  0.59401  0.11030  Biso   1.000  C
  C98      1.0000 0.65565  0.59235  0.11170  Biso   1.000  C
  C99      1.0000 0.66138  0.51042  0.12510  Biso   1.000  C
  C100     1.0000 0.57713  0.43047  0.13740  Biso   1.000  C
  C101     1.0000 0.48952  0.43268  0.13700  Biso   1.000  C
  C102     1.0000 0.75520  0.50860  0.12610  Biso   1.000  C
  C103     1.0000 0.85429  0.59851  0.15710  Biso   1.000  C
  C104     1.0000 0.93942  0.59318  0.15760  Biso   1.000  C
  C105     1.0000 0.83741  0.41699  0.09980  Biso   1.000  C
  C106     1.0000 0.74867  0.41573  0.09700  Biso   1.000  C
  C107     1.0000 0.09615  0.67445  0.05260  Biso   1.000  C
  C108     1.0000 0.15518  0.78822  0.05959  Biso   1.000  C
  C109     1.0000 0.11184  0.82276  0.00430  Biso   1.000  C
  C110     1.0000 0.16545  0.92555  0.01000  Biso   1.000  C
  C111     1.0000 0.26480  0.99380  0.06970  Biso   1.000  C
  C112     1.0000 0.30950  0.96130  0.12310  Biso   1.000  C
  C113     1.0000 0.25428  0.85792  0.11910  Biso   1.000  C
  C114     1.0000 0.37596  0.12364  0.98350  Biso   1.000  C
  C115     1.0000 0.31108  0.10892  0.90550  Biso   1.000  C
  C116     1.0000 0.33902  0.09798  0.83330  Biso   1.000  C
  C117     1.0000 0.43037  0.10363  0.83720  Biso   1.000  C
  C118     1.0000 0.49529  0.12171  0.91600  Biso   1.000  C
  C119     1.0000 0.46796  0.13104  0.98810  Biso   1.000  C
  C120     1.0000 0.45829  0.08851  0.75660  Biso   1.000  C
  S1       1.0000 0.12752  0.33602  0.57537  Biso   1.000  S
  S2       1.0000 0.66398  0.87248  0.92463  Biso   1.000  S
  S3       1.0000 0.87248  0.66398  0.42463  Biso   1.000  S
  S4       1.0000 0.33602  0.12752  0.07537  Biso   1.000  S
  N1       1.0000 0.51081  0.20631  0.61525  Biso   1.000  N
  N2       1.0000 0.50363  0.93287  0.62840  Biso   1.000  N
  N3       1.0000 0.79369  0.48919  0.88475  Biso   1.000  N
  N4       1.0000 0.06713  0.49637  0.87160  Biso   1.000  N
  N5       1.0000 0.48919  0.79369  0.38475  Biso   1.000  N
  N6       1.0000 0.49637  0.06713  0.37160  Biso   1.000  N
  N7       1.0000 0.20631  0.51081  0.11525  Biso   1.000  N
  N8       1.0000 0.93287  0.50363  0.12840  Biso   1.000  N
  O1       1.0000 0.61386  0.01164  0.49248  Biso   1.000  O
  O2       1.0000 0.64949  0.13577  0.60859  Biso   1.000  O
  O3       1.0000 0.16057  0.26623  0.56500  Biso   1.000  O
  O4       1.0000 0.18490  0.42710  0.65020  Biso   1.000  O
  O5       1.0000 0.03546  0.38708  0.18633  Biso   1.000  O
  O6       1.0000 0.12919  0.55259  0.26163  Biso   1.000  O
  O7       1.0000 0.98836  0.38614  0.00752  Biso   1.000  O
  O8       1.0000 0.86423  0.35051  0.89141  Biso   1.000  O
  O9       1.0000 0.73377  0.83943  0.93500  Biso   1.000  O
  O10      1.0000 0.57290  0.81510  0.84980  Biso   1.000  O
  O11      1.0000 0.61292  0.96454  0.31367  Biso   1.000  O
  O12      1.0000 0.44741  0.87081  0.23837  Biso   1.000  O
  O13      1.0000 0.38614  0.98836  0.50752  Biso   1.000  O
  O14      1.0000 0.35051  0.86423  0.39141  Biso   1.000  O
  O15      1.0000 0.83943  0.73377  0.43500  Biso   1.000  O
  O16      1.0000 0.81510  0.57290  0.34980  Biso   1.000  O
  O17      1.0000 0.96454  0.61292  0.81367  Biso   1.000  O
  O18      1.0000 0.87081  0.44741  0.73837  Biso   1.000  O
  O19      1.0000 0.01164  0.61386  0.99248  Biso   1.000  O
  O20      1.0000 0.13577  0.64949  0.10859  Biso   1.000  O
  O21      1.0000 0.26623  0.16057  0.06500  Biso   1.000  O
  O22      1.0000 0.42710  0.18490  0.15020  Biso   1.000  O
  O23      1.0000 0.38708  0.03546  0.68633  Biso   1.000  O
  O24      1.0000 0.55259  0.12919  0.76163  Biso   1.000  O
