data_image0
_cell_length_a       6.277
_cell_length_b       17.702
_cell_length_c       20.486
_cell_angle_alpha    90
_cell_angle_beta     97.565
_cell_angle_gamma    90

_symmetry_space_group_name_H-M    P 1
_symmetry_int_tables_number       1

loop_
  _symmetry_equiv_pos_as_xyz
  'x, y, z'

loop_
  _atom_site_label
  _atom_site_occupancy
  _atom_site_fract_x
  _atom_site_fract_y
  _atom_site_fract_z
  _atom_site_thermal_displace_type
  _atom_site_B_iso_or_equiv
  _atom_site_type_symbol
  Zn1      1.0000 0.18960  0.51275  0.77638  Biso   1.000  Zn
  Zn2      1.0000 0.31040  0.01275  0.72362  Biso   1.000  Zn
  Zn3      1.0000 0.81040  0.48725  0.22362  Biso   1.000  Zn
  Zn4      1.0000 0.68960  0.98725  0.27638  Biso   1.000  Zn
  H1       1.0000 0.01740  0.79100  0.59340  Biso   1.000  H
  H2       1.0000 0.23350  0.75690  0.51590  Biso   1.000  H
  H3       1.0000 0.56410  0.70470  0.54720  Biso   1.000  H
  H4       1.0000 0.68300  0.68700  0.65730  Biso   1.000  H
  H5       1.0000 0.65690  0.70700  0.76970  Biso   1.000  H
  H6       1.0000 0.46870  0.75590  0.79070  Biso   1.000  H
  H7       1.0000 0.09090  0.75350  0.76000  Biso   1.000  H
  H8       1.0000 0.93290  0.79060  0.70340  Biso   1.000  H
  H9       1.0000 0.73550  0.47530  0.72320  Biso   1.000  H
  H10      1.0000 0.50900  0.47690  0.62750  Biso   1.000  H
  H11      1.0000 0.96450  0.58380  0.54300  Biso   1.000  H
  H12      1.0000 0.17890  0.57970  0.64180  Biso   1.000  H
  H13      1.0000 0.65310  0.53990  0.47350  Biso   1.000  H
  H14      1.0000 0.47120  0.57530  0.50880  Biso   1.000  H
  H15      1.0000 0.01750  0.39690  0.86290  Biso   1.000  H
  H16      1.0000 0.81300  0.38770  0.94590  Biso   1.000  H
  H17      1.0000 0.70040  0.60840  0.93130  Biso   1.000  H
  H18      1.0000 0.91850  0.61550  0.85070  Biso   1.000  H
  H19      1.0000 0.66090  0.52890  0.03940  Biso   1.000  H
  H20      1.0000 0.61900  0.44340  0.02470  Biso   1.000  H
  H21      1.0000 0.48260  0.29100  0.90660  Biso   1.000  H
  H22      1.0000 0.26650  0.25690  0.98410  Biso   1.000  H
  H23      1.0000 0.93590  0.20470  0.95280  Biso   1.000  H
  H24      1.0000 0.81700  0.18700  0.84270  Biso   1.000  H
  H25      1.0000 0.84310  0.20700  0.73030  Biso   1.000  H
  H26      1.0000 0.03130  0.25590  0.70930  Biso   1.000  H
  H27      1.0000 0.40910  0.25350  0.74000  Biso   1.000  H
  H28      1.0000 0.56710  0.29060  0.79660  Biso   1.000  H
  H29      1.0000 0.76450  0.97530  0.77680  Biso   1.000  H
  H30      1.0000 0.99100  0.97690  0.87250  Biso   1.000  H
  H31      1.0000 0.53550  0.08380  0.95700  Biso   1.000  H
  H32      1.0000 0.32110  0.07970  0.85820  Biso   1.000  H
  H33      1.0000 0.84690  0.03990  0.02650  Biso   1.000  H
  H34      1.0000 0.02880  0.07530  0.99120  Biso   1.000  H
  H35      1.0000 0.48250  0.89690  0.63710  Biso   1.000  H
  H36      1.0000 0.68700  0.88770  0.55410  Biso   1.000  H
  H37      1.0000 0.79960  0.10840  0.56870  Biso   1.000  H
  H38      1.0000 0.58150  0.11550  0.64930  Biso   1.000  H
  H39      1.0000 0.83910  0.02890  0.46060  Biso   1.000  H
  H40      1.0000 0.88100  0.94340  0.47530  Biso   1.000  H
  H41      1.0000 0.98260  0.20900  0.40660  Biso   1.000  H
  H42      1.0000 0.76650  0.24310  0.48410  Biso   1.000  H
  H43      1.0000 0.43590  0.29530  0.45280  Biso   1.000  H
  H44      1.0000 0.31700  0.31300  0.34270  Biso   1.000  H
  H45      1.0000 0.34310  0.29300  0.23030  Biso   1.000  H
  H46      1.0000 0.53130  0.24410  0.20930  Biso   1.000  H
  H47      1.0000 0.90910  0.24650  0.24000  Biso   1.000  H
  H48      1.0000 0.06710  0.20940  0.29660  Biso   1.000  H
  H49      1.0000 0.26450  0.52470  0.27680  Biso   1.000  H
  H50      1.0000 0.49100  0.52310  0.37250  Biso   1.000  H
  H51      1.0000 0.03550  0.41620  0.45700  Biso   1.000  H
  H52      1.0000 0.82110  0.42030  0.35820  Biso   1.000  H
  H53      1.0000 0.34690  0.46010  0.52650  Biso   1.000  H
  H54      1.0000 0.52880  0.42470  0.49120  Biso   1.000  H
  H55      1.0000 0.98250  0.60310  0.13710  Biso   1.000  H
  H56      1.0000 0.18700  0.61230  0.05410  Biso   1.000  H
  H57      1.0000 0.29960  0.39160  0.06870  Biso   1.000  H
  H58      1.0000 0.08150  0.38450  0.14930  Biso   1.000  H
  H59      1.0000 0.33910  0.47110  0.96060  Biso   1.000  H
  H60      1.0000 0.38100  0.55660  0.97530  Biso   1.000  H
  H61      1.0000 0.51740  0.70900  0.09340  Biso   1.000  H
  H62      1.0000 0.73350  0.74310  0.01590  Biso   1.000  H
  H63      1.0000 0.06410  0.79530  0.04720  Biso   1.000  H
  H64      1.0000 0.18300  0.81300  0.15730  Biso   1.000  H
  H65      1.0000 0.15690  0.79300  0.26970  Biso   1.000  H
  H66      1.0000 0.96870  0.74410  0.29070  Biso   1.000  H
  H67      1.0000 0.59090  0.74650  0.26000  Biso   1.000  H
  H68      1.0000 0.43290  0.70940  0.20340  Biso   1.000  H
  H69      1.0000 0.23550  0.02470  0.22320  Biso   1.000  H
  H70      1.0000 0.00900  0.02310  0.12750  Biso   1.000  H
  H71      1.0000 0.46450  0.91620  0.04300  Biso   1.000  H
  H72      1.0000 0.67890  0.92030  0.14180  Biso   1.000  H
  H73      1.0000 0.15310  0.96010  0.97350  Biso   1.000  H
  H74      1.0000 0.97120  0.92470  0.00880  Biso   1.000  H
  H75      1.0000 0.51750  0.10310  0.36290  Biso   1.000  H
  H76      1.0000 0.31300  0.11230  0.44590  Biso   1.000  H
  H77      1.0000 0.20040  0.89160  0.43130  Biso   1.000  H
  H78      1.0000 0.41850  0.88450  0.35070  Biso   1.000  H
  H79      1.0000 0.16090  0.97110  0.53940  Biso   1.000  H
  H80      1.0000 0.11900  0.05660  0.52470  Biso   1.000  H
  C1       1.0000 0.42260  0.72890  0.69260  Biso   1.000  C
  C2       1.0000 0.22000  0.76090  0.67360  Biso   1.000  C
  C3       1.0000 0.15220  0.77030  0.60700  Biso   1.000  C
  C4       1.0000 0.28160  0.74960  0.56030  Biso   1.000  C
  C5       1.0000 0.47790  0.71870  0.57880  Biso   1.000  C
  C6       1.0000 0.54840  0.70830  0.64470  Biso   1.000  C
  C7       1.0000 0.50200  0.71320  0.76410  Biso   1.000  C
  C8       1.0000 0.39840  0.64240  0.78740  Biso   1.000  C
  C9       1.0000 0.08150  0.78890  0.72370  Biso   1.000  C
  C10      1.0000 0.14660  0.86600  0.74990  Biso   1.000  C
  C11      1.0000 0.78260  0.49670  0.68620  Biso   1.000  C
  C12      1.0000 0.64560  0.49770  0.62900  Biso   1.000  C
  C13      1.0000 0.70950  0.53010  0.57230  Biso   1.000  C
  C14      1.0000 0.91440  0.56100  0.57890  Biso   1.000  C
  C15      1.0000 0.04300  0.55800  0.63830  Biso   1.000  C
  C16      1.0000 0.56480  0.53180  0.50840  Biso   1.000  C
  C17      1.0000 0.95560  0.44040  0.87750  Biso   1.000  C
  C18      1.0000 0.83280  0.43460  0.92720  Biso   1.000  C
  C19      1.0000 0.73720  0.49770  0.95020  Biso   1.000  C
  C20      1.0000 0.76800  0.56490  0.91890  Biso   1.000  C
  C21      1.0000 0.89630  0.56900  0.86980  Biso   1.000  C
  C22      1.0000 0.60080  0.49360  0.00570  Biso   1.000  C
  C23      1.0000 0.07740  0.22890  0.80740  Biso   1.000  C
  C24      1.0000 0.28000  0.26090  0.82640  Biso   1.000  C
  C25      1.0000 0.34780  0.27030  0.89300  Biso   1.000  C
  C26      1.0000 0.21840  0.24960  0.93970  Biso   1.000  C
  C27      1.0000 0.02210  0.21870  0.92120  Biso   1.000  C
  C28      1.0000 0.95160  0.20830  0.85530  Biso   1.000  C
  C29      1.0000 0.99800  0.21320  0.73590  Biso   1.000  C
  C30      1.0000 0.10160  0.14240  0.71260  Biso   1.000  C
  C31      1.0000 0.41850  0.28890  0.77630  Biso   1.000  C
  C32      1.0000 0.35340  0.36600  0.75010  Biso   1.000  C
  C33      1.0000 0.71740  0.99670  0.81380  Biso   1.000  C
  C34      1.0000 0.85440  0.99770  0.87100  Biso   1.000  C
  C35      1.0000 0.79050  0.03010  0.92770  Biso   1.000  C
  C36      1.0000 0.58560  0.06100  0.92110  Biso   1.000  C
  C37      1.0000 0.45700  0.05800  0.86170  Biso   1.000  C
  C38      1.0000 0.93520  0.03180  0.99160  Biso   1.000  C
  C39      1.0000 0.54440  0.94040  0.62250  Biso   1.000  C
  C40      1.0000 0.66720  0.93460  0.57280  Biso   1.000  C
  C41      1.0000 0.76280  0.99770  0.54980  Biso   1.000  C
  C42      1.0000 0.73200  0.06490  0.58110  Biso   1.000  C
  C43      1.0000 0.60370  0.06900  0.63020  Biso   1.000  C
  C44      1.0000 0.89920  0.99360  0.49430  Biso   1.000  C
  C45      1.0000 0.57740  0.27110  0.30740  Biso   1.000  C
  C46      1.0000 0.78000  0.23910  0.32640  Biso   1.000  C
  C47      1.0000 0.84780  0.22970  0.39300  Biso   1.000  C
  C48      1.0000 0.71840  0.25040  0.43970  Biso   1.000  C
  C49      1.0000 0.52210  0.28130  0.42120  Biso   1.000  C
  C50      1.0000 0.45160  0.29170  0.35530  Biso   1.000  C
  C51      1.0000 0.49800  0.28680  0.23590  Biso   1.000  C
  C52      1.0000 0.60160  0.35760  0.21260  Biso   1.000  C
  C53      1.0000 0.91850  0.21110  0.27630  Biso   1.000  C
  C54      1.0000 0.85340  0.13400  0.25010  Biso   1.000  C
  C55      1.0000 0.21740  0.50330  0.31380  Biso   1.000  C
  C56      1.0000 0.35440  0.50230  0.37100  Biso   1.000  C
  C57      1.0000 0.29050  0.46990  0.42770  Biso   1.000  C
  C58      1.0000 0.08560  0.43900  0.42110  Biso   1.000  C
  C59      1.0000 0.95700  0.44200  0.36170  Biso   1.000  C
  C60      1.0000 0.43520  0.46820  0.49160  Biso   1.000  C
  C61      1.0000 0.04440  0.55960  0.12250  Biso   1.000  C
  C62      1.0000 0.16720  0.56540  0.07280  Biso   1.000  C
  C63      1.0000 0.26280  0.50230  0.04980  Biso   1.000  C
  C64      1.0000 0.23200  0.43510  0.08110  Biso   1.000  C
  C65      1.0000 0.10370  0.43100  0.13020  Biso   1.000  C
  C66      1.0000 0.39920  0.50640  0.99430  Biso   1.000  C
  C67      1.0000 0.92260  0.77110  0.19260  Biso   1.000  C
  C68      1.0000 0.72000  0.73910  0.17360  Biso   1.000  C
  C69      1.0000 0.65220  0.72970  0.10700  Biso   1.000  C
  C70      1.0000 0.78160  0.75040  0.06030  Biso   1.000  C
  C71      1.0000 0.97790  0.78130  0.07880  Biso   1.000  C
  C72      1.0000 0.04840  0.79170  0.14470  Biso   1.000  C
  C73      1.0000 0.00200  0.78680  0.26410  Biso   1.000  C
  C74      1.0000 0.89840  0.85760  0.28740  Biso   1.000  C
  C75      1.0000 0.58150  0.71110  0.22370  Biso   1.000  C
  C76      1.0000 0.64660  0.63400  0.24990  Biso   1.000  C
  C77      1.0000 0.28260  0.00330  0.18620  Biso   1.000  C
  C78      1.0000 0.14560  0.00230  0.12900  Biso   1.000  C
  C79      1.0000 0.20950  0.96990  0.07230  Biso   1.000  C
  C80      1.0000 0.41440  0.93900  0.07890  Biso   1.000  C
  C81      1.0000 0.54300  0.94200  0.13830  Biso   1.000  C
  C82      1.0000 0.06480  0.96820  0.00840  Biso   1.000  C
  C83      1.0000 0.45560  0.05960  0.37750  Biso   1.000  C
  C84      1.0000 0.33280  0.06540  0.42720  Biso   1.000  C
  C85      1.0000 0.23720  0.00230  0.45020  Biso   1.000  C
  C86      1.0000 0.26800  0.93510  0.41890  Biso   1.000  C
  C87      1.0000 0.39630  0.93100  0.36980  Biso   1.000  C
  C88      1.0000 0.10080  0.00640  0.50570  Biso   1.000  C
  N1       1.0000 0.98110  0.52490  0.69170  Biso   1.000  N
  N2       1.0000 0.99100  0.50690  0.84860  Biso   1.000  N
  N3       1.0000 0.51890  0.02490  0.80830  Biso   1.000  N
  N4       1.0000 0.50900  0.00690  0.65140  Biso   1.000  N
  N5       1.0000 0.01890  0.47510  0.30830  Biso   1.000  N
  N6       1.0000 0.00900  0.49310  0.15140  Biso   1.000  N
  N7       1.0000 0.48110  0.97510  0.19170  Biso   1.000  N
  N8       1.0000 0.49100  0.99310  0.34860  Biso   1.000  N
  O1       1.0000 0.41220  0.58370  0.75520  Biso   1.000  O
  O2       1.0000 0.30130  0.64290  0.83430  Biso   1.000  O
  O3       1.0000 0.18860  0.91350  0.70720  Biso   1.000  O
  O4       1.0000 0.15690  0.88060  0.80930  Biso   1.000  O
  O5       1.0000 0.08780  0.08370  0.74480  Biso   1.000  O
  O6       1.0000 0.19870  0.14290  0.66570  Biso   1.000  O
  O7       1.0000 0.31140  0.41350  0.79280  Biso   1.000  O
  O8       1.0000 0.34310  0.38060  0.69070  Biso   1.000  O
  O9       1.0000 0.58780  0.41630  0.24480  Biso   1.000  O
  O10      1.0000 0.69870  0.35710  0.16570  Biso   1.000  O
  O11      1.0000 0.81140  0.08650  0.29280  Biso   1.000  O
  O12      1.0000 0.84310  0.11940  0.19070  Biso   1.000  O
  O13      1.0000 0.91220  0.91630  0.25520  Biso   1.000  O
  O14      1.0000 0.80130  0.85710  0.33430  Biso   1.000  O
  O15      1.0000 0.68860  0.58650  0.20720  Biso   1.000  O
  O16      1.0000 0.65690  0.61940  0.30930  Biso   1.000  O
