data_YAXBOP_clean
_audit_creation_date              2015-05-20
_audit_creation_method            'Materials Studio'
_symmetry_space_group_name_H-M    'P1'
_symmetry_Int_Tables_number       1
_symmetry_cell_setting            triclinic
loop_
_symmetry_equiv_pos_as_xyz
  x,y,z
_cell_length_a                    19.2341
_cell_length_b                    11.0730
_cell_length_c                    6.8890
_cell_angle_alpha                 90.0000
_cell_angle_beta                  71.6900
_cell_angle_gamma                 90.0000
loop_
_atom_site_label
_atom_site_type_symbol
_atom_site_fract_x
_atom_site_fract_y
_atom_site_fract_z
_atom_site_U_iso_or_equiv
_atom_site_adp_type
_atom_site_occupancy
H1     H     0.20880   0.19190   0.33740   0.01267  Uiso   1.00
H2     H     0.18070   0.21510   0.78760   0.01267  Uiso   1.00
C3     C     0.18150   0.19460   0.07810   0.01267  Uiso   1.00
C4     C     0.22520   0.21570   0.20100   0.01267  Uiso   1.00
C5     C     0.10850   0.13400   0.15650   0.01267  Uiso   1.00
C6     C     0.20850   0.22950   0.87400   0.01267  Uiso   1.00
O7     O     0.07120   0.12600   0.03910   0.01267  Uiso   1.00
O8     O     0.08880   0.10060   0.34370   0.01267  Uiso   1.00
H9     H     0.50000   0.67211   0.75000   0.01267  Uiso   1.00
H10    H     0.70880   0.69190   0.33740   0.01267  Uiso   1.00
H11    H     0.68070   0.71510   0.78760   0.01267  Uiso   1.00
C12    C     0.68150   0.69460   0.07810   0.01267  Uiso   1.00
C13    C     0.72520   0.71570   0.20100   0.01267  Uiso   1.00
C14    C     0.60850   0.63400   0.15650   0.01267  Uiso   1.00
C15    C     0.70850   0.72950   0.87400   0.01267  Uiso   1.00
O16    O     0.57120   0.62600   0.03910   0.01267  Uiso   1.00
O17    O     0.58880   0.60060   0.34370   0.01267  Uiso   1.00
H18    H     0.00000   0.17211   0.75000   0.01267  Uiso   1.00
H19    H     0.79120   0.19190   0.16260   0.01267  Uiso   1.00
H20    H     0.81930   0.21510   0.71240   0.01267  Uiso   1.00
C21    C     0.81850   0.19460   0.42190   0.01267  Uiso   1.00
C22    C     0.77480   0.21570   0.29900   0.01267  Uiso   1.00
C23    C     0.89150   0.13400   0.34350   0.01267  Uiso   1.00
C24    C     0.79150   0.22950   0.62600   0.01267  Uiso   1.00
O25    O     0.92880   0.12600   0.46090   0.01267  Uiso   1.00
O26    O     0.91120   0.10060   0.15630   0.01267  Uiso   1.00
H28    H     0.29120   0.69190   0.16260   0.01267  Uiso   1.00
H29    H     0.31930   0.71510   0.71240   0.01267  Uiso   1.00
C30    C     0.31850   0.69460   0.42190   0.01267  Uiso   1.00
C31    C     0.27480   0.71570   0.29900   0.01267  Uiso   1.00
C32    C     0.39150   0.63400   0.34350   0.01267  Uiso   1.00
C33    C     0.29150   0.72950   0.62600   0.01267  Uiso   1.00
O34    O     0.42880   0.62600   0.46090   0.01267  Uiso   1.00
O35    O     0.41120   0.60060   0.15630   0.01267  Uiso   1.00
H37    H     0.79120   0.80810   0.66260   0.01267  Uiso   1.00
H38    H     0.81930   0.78490   0.21240   0.01267  Uiso   1.00
C39    C     0.81850   0.80540   0.92190   0.01267  Uiso   1.00
C40    C     0.77480   0.78430   0.79900   0.01267  Uiso   1.00
C41    C     0.89150   0.86600   0.84350   0.01267  Uiso   1.00
C42    C     0.79150   0.77050   0.12600   0.01267  Uiso   1.00
O43    O     0.92880   0.87400   0.96090   0.01267  Uiso   1.00
O44    O     0.91120   0.89940   0.65630   0.01267  Uiso   1.00
H45    H     0.50000   0.32789   0.25000   0.01267  Uiso   1.00
H46    H     0.29120   0.30810   0.66260   0.01267  Uiso   1.00
H47    H     0.31930   0.28490   0.21240   0.01267  Uiso   1.00
C48    C     0.31850   0.30540   0.92190   0.01267  Uiso   1.00
C49    C     0.27480   0.28430   0.79900   0.01267  Uiso   1.00
C50    C     0.39150   0.36600   0.84350   0.01267  Uiso   1.00
C51    C     0.29150   0.27050   0.12600   0.01267  Uiso   1.00
O52    O     0.42880   0.37400   0.96090   0.01267  Uiso   1.00
O53    O     0.41120   0.39940   0.65630   0.01267  Uiso   1.00
H54    H    -0.00000   0.82789   0.25000   0.01267  Uiso   1.00
H55    H     0.20880   0.80810   0.83740   0.01267  Uiso   1.00
H56    H     0.18070   0.78490   0.28760   0.01267  Uiso   1.00
C57    C     0.18150   0.80540   0.57810   0.01267  Uiso   1.00
C58    C     0.22520   0.78430   0.70100   0.01267  Uiso   1.00
C59    C     0.10850   0.86600   0.65650   0.01267  Uiso   1.00
C60    C     0.20850   0.77050   0.37400   0.01267  Uiso   1.00
O61    O     0.07120   0.87400   0.53910   0.01267  Uiso   1.00
O62    O     0.08880   0.89940   0.84370   0.01267  Uiso   1.00
H64    H     0.70880   0.30810   0.83740   0.01267  Uiso   1.00
H65    H     0.68070   0.28490   0.28760   0.01267  Uiso   1.00
C66    C     0.68150   0.30540   0.57810   0.01267  Uiso   1.00
C67    C     0.72520   0.28430   0.70100   0.01267  Uiso   1.00
C68    C     0.60850   0.36600   0.65650   0.01267  Uiso   1.00
C69    C     0.70850   0.27050   0.37400   0.01267  Uiso   1.00
O70    O     0.57120   0.37400   0.53910   0.01267  Uiso   1.00
O71    O     0.58880   0.39940   0.84370   0.01267  Uiso   1.00
Fe73   Fe    0.00000   0.00000   0.00000   0.01267  Uiso   1.00
Fe74   Fe    0.50000   0.50000   0.00000   0.01267  Uiso   1.00
Fe75   Fe    0.00000   0.00000   0.50000   0.01267  Uiso   1.00
Fe76   Fe    0.50000   0.50000   0.50000   0.01267  Uiso   1.00
O77    O     0.00000   0.08180   0.75000   0.01267  Uiso   1.00
O78    O     0.50000   0.58180   0.75000   0.01267  Uiso   1.00
O79    O     0.00000   0.91820   0.25000   0.01267  Uiso   1.00
O80    O     0.50000   0.41820   0.25000   0.01267  Uiso   1.00
