data_image0
_cell_length_a       8.6777
_cell_length_b       15.915
_cell_length_c       15.915
_cell_angle_alpha    120
_cell_angle_beta     90
_cell_angle_gamma    90

_symmetry_space_group_name_H-M    P 1
_symmetry_int_tables_number       1

loop_
  _symmetry_equiv_pos_as_xyz
  'x, y, z'

loop_
  _atom_site_label
  _atom_site_occupancy
  _atom_site_fract_x
  _atom_site_fract_y
  _atom_site_fract_z
  _atom_site_thermal_displace_type
  _atom_site_B_iso_or_equiv
  _atom_site_type_symbol
  Cu1      1.0000 0.89000  0.38141  0.59095  Biso   1.000  Cu
  Cu2      1.0000 0.22333  0.20954  0.61859  Biso   1.000  Cu
  Cu3      1.0000 0.55667  0.40905  0.79046  Biso   1.000  Cu
  Cu4      1.0000 0.89000  0.61859  0.40905  Biso   1.000  Cu
  Cu5      1.0000 0.22333  0.79046  0.38141  Biso   1.000  Cu
  Cu6      1.0000 0.55667  0.59095  0.20954  Biso   1.000  Cu
  H1       1.0000 0.58840  0.87420  0.09550  Biso   1.000  H
  H2       1.0000 0.58030  0.85280  0.18150  Biso   1.000  H
  H3       1.0000 0.43030  0.84800  0.12430  Biso   1.000  H
  H4       1.0000 0.16530  0.51860  0.76900  Biso   1.000  H
  H5       1.0000 0.18330  0.60520  0.87540  Biso   1.000  H
  H6       1.0000 0.24210  0.50160  0.84840  Biso   1.000  H
  H7       1.0000 0.31480  0.61500  0.70480  Biso   1.000  H
  H8       1.0000 0.48240  0.65040  0.74270  Biso   1.000  H
  H9       1.0000 0.34060  0.70220  0.81000  Biso   1.000  H
  H10      1.0000 0.41800  0.73300  0.93100  Biso   1.000  H
  H11      1.0000 0.67000  0.71900  0.04000  Biso   1.000  H
  H12      1.0000 0.40140  0.44330  0.67810  Biso   1.000  H
  H13      1.0000 0.55900  0.50690  0.73060  Biso   1.000  H
  H14      1.0000 0.92173  0.22130  0.12580  Biso   1.000  H
  H15      1.0000 0.91363  0.32870  0.14720  Biso   1.000  H
  H16      1.0000 0.76363  0.27630  0.15200  Biso   1.000  H
  H17      1.0000 0.49863  0.25040  0.48140  Biso   1.000  H
  H18      1.0000 0.51663  0.27020  0.39480  Biso   1.000  H
  H19      1.0000 0.57543  0.34680  0.49840  Biso   1.000  H
  H20      1.0000 0.64813  0.08980  0.38500  Biso   1.000  H
  H21      1.0000 0.81573  0.09230  0.34960  Biso   1.000  H
  H22      1.0000 0.67393  0.10780  0.29780  Biso   1.000  H
  H23      1.0000 0.75133  0.19800  0.26700  Biso   1.000  H
  H24      1.0000 0.00333  0.32100  0.28100  Biso   1.000  H
  H25      1.0000 0.73473  0.23480  0.55670  Biso   1.000  H
  H26      1.0000 0.89233  0.22370  0.49310  Biso   1.000  H
  H27      1.0000 0.25507  0.90450  0.77870  Biso   1.000  H
  H28      1.0000 0.24697  0.81850  0.67130  Biso   1.000  H
  H29      1.0000 0.09697  0.87570  0.72370  Biso   1.000  H
  H30      1.0000 0.83197  0.23100  0.74960  Biso   1.000  H
  H31      1.0000 0.84997  0.12460  0.72980  Biso   1.000  H
  H32      1.0000 0.90877  0.15160  0.65320  Biso   1.000  H
  H33      1.0000 0.98147  0.29520  0.91020  Biso   1.000  H
  H34      1.0000 0.14907  0.25730  0.90770  Biso   1.000  H
  H35      1.0000 0.00727  0.19000  0.89220  Biso   1.000  H
  H36      1.0000 0.08467  0.06900  0.80200  Biso   1.000  H
  H37      1.0000 0.33667  0.96000  0.67900  Biso   1.000  H
  H38      1.0000 0.06807  0.32190  0.76520  Biso   1.000  H
  H39      1.0000 0.22567  0.26940  0.77630  Biso   1.000  H
  H40      1.0000 0.58840  0.12580  0.90450  Biso   1.000  H
  H41      1.0000 0.58030  0.14720  0.81850  Biso   1.000  H
  H42      1.0000 0.43030  0.15200  0.87570  Biso   1.000  H
  H43      1.0000 0.16530  0.48140  0.23100  Biso   1.000  H
  H44      1.0000 0.18330  0.39480  0.12460  Biso   1.000  H
  H45      1.0000 0.24210  0.49840  0.15160  Biso   1.000  H
  H46      1.0000 0.31480  0.38500  0.29520  Biso   1.000  H
  H47      1.0000 0.48240  0.34960  0.25730  Biso   1.000  H
  H48      1.0000 0.34060  0.29780  0.19000  Biso   1.000  H
  H49      1.0000 0.41800  0.26700  0.06900  Biso   1.000  H
  H50      1.0000 0.67000  0.28100  0.96000  Biso   1.000  H
  H51      1.0000 0.40140  0.55670  0.32190  Biso   1.000  H
  H52      1.0000 0.55900  0.49310  0.26940  Biso   1.000  H
  H53      1.0000 0.92173  0.77870  0.87420  Biso   1.000  H
  H54      1.0000 0.91363  0.67130  0.85280  Biso   1.000  H
  H55      1.0000 0.76363  0.72370  0.84800  Biso   1.000  H
  H56      1.0000 0.49863  0.74960  0.51860  Biso   1.000  H
  H57      1.0000 0.51663  0.72980  0.60520  Biso   1.000  H
  H58      1.0000 0.57543  0.65320  0.50160  Biso   1.000  H
  H59      1.0000 0.64813  0.91020  0.61500  Biso   1.000  H
  H60      1.0000 0.81573  0.90770  0.65040  Biso   1.000  H
  H61      1.0000 0.67393  0.89220  0.70220  Biso   1.000  H
  H62      1.0000 0.75133  0.80200  0.73300  Biso   1.000  H
  H63      1.0000 0.00333  0.67900  0.71900  Biso   1.000  H
  H64      1.0000 0.73473  0.76520  0.44330  Biso   1.000  H
  H65      1.0000 0.89233  0.77630  0.50690  Biso   1.000  H
  H66      1.0000 0.25507  0.09550  0.22130  Biso   1.000  H
  H67      1.0000 0.24697  0.18150  0.32870  Biso   1.000  H
  H68      1.0000 0.09697  0.12430  0.27630  Biso   1.000  H
  H69      1.0000 0.83197  0.76900  0.25040  Biso   1.000  H
  H70      1.0000 0.84997  0.87540  0.27020  Biso   1.000  H
  H71      1.0000 0.90877  0.84840  0.34680  Biso   1.000  H
  H72      1.0000 0.98147  0.70480  0.08980  Biso   1.000  H
  H73      1.0000 0.14907  0.74270  0.09230  Biso   1.000  H
  H74      1.0000 0.00727  0.81000  0.10780  Biso   1.000  H
  H75      1.0000 0.08467  0.93100  0.19800  Biso   1.000  H
  H76      1.0000 0.33667  0.04000  0.32100  Biso   1.000  H
  H77      1.0000 0.06807  0.67810  0.23480  Biso   1.000  H
  H78      1.0000 0.22567  0.73060  0.22370  Biso   1.000  H
  C1       1.0000 0.51770  0.33130  0.90660  Biso   1.000  C
  C2       1.0000 0.56900  0.27170  0.95190  Biso   1.000  C
  C3       1.0000 0.53920  0.83580  0.11890  Biso   1.000  C
  C4       1.0000 0.48860  0.39450  0.11140  Biso   1.000  C
  C5       1.0000 0.38860  0.57040  0.79960  Biso   1.000  C
  C6       1.0000 0.22990  0.54670  0.82550  Biso   1.000  C
  C7       1.0000 0.38090  0.64110  0.76060  Biso   1.000  C
  C8       1.0000 0.85103  0.57530  0.66870  Biso   1.000  C
  C9       1.0000 0.90233  0.68020  0.72830  Biso   1.000  C
  C10      1.0000 0.87253  0.28310  0.16420  Biso   1.000  C
  C11      1.0000 0.82193  0.71690  0.60550  Biso   1.000  C
  C12      1.0000 0.72193  0.22920  0.42960  Biso   1.000  C
  C13      1.0000 0.56323  0.27880  0.45330  Biso   1.000  C
  C14      1.0000 0.71423  0.11950  0.35890  Biso   1.000  C
  C15      1.0000 0.18437  0.09340  0.42470  Biso   1.000  C
  C16      1.0000 0.23567  0.04810  0.31980  Biso   1.000  C
  C17      1.0000 0.20587  0.88110  0.71690  Biso   1.000  C
  C18      1.0000 0.15527  0.88860  0.28310  Biso   1.000  C
  C19      1.0000 0.05527  0.20040  0.77080  Biso   1.000  C
  C20      1.0000 0.89657  0.17450  0.72120  Biso   1.000  C
  C21      1.0000 0.04757  0.23940  0.88050  Biso   1.000  C
  C22      1.0000 0.51770  0.66870  0.09340  Biso   1.000  C
  C23      1.0000 0.56900  0.72830  0.04810  Biso   1.000  C
  C24      1.0000 0.53920  0.16420  0.88110  Biso   1.000  C
  C25      1.0000 0.48860  0.60550  0.88860  Biso   1.000  C
  C26      1.0000 0.38860  0.42960  0.20040  Biso   1.000  C
  C27      1.0000 0.22990  0.45330  0.17450  Biso   1.000  C
  C28      1.0000 0.38090  0.35890  0.23940  Biso   1.000  C
  C29      1.0000 0.85103  0.42470  0.33130  Biso   1.000  C
  C30      1.0000 0.90233  0.31980  0.27170  Biso   1.000  C
  C31      1.0000 0.87253  0.71690  0.83580  Biso   1.000  C
  C32      1.0000 0.82193  0.28310  0.39450  Biso   1.000  C
  C33      1.0000 0.72193  0.77080  0.57040  Biso   1.000  C
  C34      1.0000 0.56323  0.72120  0.54670  Biso   1.000  C
  C35      1.0000 0.71423  0.88050  0.64110  Biso   1.000  C
  C36      1.0000 0.18437  0.90660  0.57530  Biso   1.000  C
  C37      1.0000 0.23567  0.95190  0.68020  Biso   1.000  C
  C38      1.0000 0.20587  0.11890  0.28310  Biso   1.000  C
  C39      1.0000 0.15527  0.11140  0.71690  Biso   1.000  C
  C40      1.0000 0.05527  0.79960  0.22920  Biso   1.000  C
  C41      1.0000 0.89657  0.82550  0.27880  Biso   1.000  C
  C42      1.0000 0.04757  0.76060  0.11950  Biso   1.000  C
  N1       1.0000 0.46210  0.47630  0.72690  Biso   1.000  N
  N2       1.0000 0.48430  0.30260  0.04320  Biso   1.000  N
  N3       1.0000 0.79543  0.25060  0.52370  Biso   1.000  N
  N4       1.0000 0.81763  0.74060  0.69740  Biso   1.000  N
  N5       1.0000 0.12877  0.27310  0.74940  Biso   1.000  N
  N6       1.0000 0.15097  0.95680  0.25940  Biso   1.000  N
  N7       1.0000 0.46210  0.52370  0.27310  Biso   1.000  N
  N8       1.0000 0.48430  0.69740  0.95680  Biso   1.000  N
  N9       1.0000 0.79543  0.74940  0.47630  Biso   1.000  N
  N10      1.0000 0.81763  0.25940  0.30260  Biso   1.000  N
  N11      1.0000 0.12877  0.72690  0.25060  Biso   1.000  N
  N12      1.0000 0.15097  0.04320  0.74060  Biso   1.000  N
  Cl1      1.0000 0.84460  0.41507  0.74663  Biso   1.000  Cl
  Cl2      1.0000 0.17793  0.33156  0.58493  Biso   1.000  Cl
  Cl3      1.0000 0.51127  0.25337  0.66844  Biso   1.000  Cl
  Cl4      1.0000 0.84460  0.58493  0.25337  Biso   1.000  Cl
  Cl5      1.0000 0.17793  0.66844  0.41507  Biso   1.000  Cl
  Cl6      1.0000 0.51127  0.74663  0.33156  Biso   1.000  Cl
  O1       1.0000 0.62900  0.35890  0.87220  Biso   1.000  O
  O2       1.0000 0.56660  0.45360  0.09990  Biso   1.000  O
  O3       1.0000 0.37980  0.34590  0.90040  Biso   1.000  O
  O4       1.0000 0.96233  0.51330  0.64110  Biso   1.000  O
  O5       1.0000 0.89993  0.64630  0.54640  Biso   1.000  O
  O6       1.0000 0.71313  0.55450  0.65410  Biso   1.000  O
  O7       1.0000 0.29567  0.12780  0.48670  Biso   1.000  O
  O8       1.0000 0.23327  0.90010  0.35370  Biso   1.000  O
  O9       1.0000 0.04647  0.09960  0.44550  Biso   1.000  O
  O10      1.0000 0.62900  0.64110  0.12780  Biso   1.000  O
  O11      1.0000 0.56660  0.54640  0.90010  Biso   1.000  O
  O12      1.0000 0.37980  0.65410  0.09960  Biso   1.000  O
  O13      1.0000 0.96233  0.48670  0.35890  Biso   1.000  O
  O14      1.0000 0.89993  0.35370  0.45360  Biso   1.000  O
  O15      1.0000 0.71313  0.44550  0.34590  Biso   1.000  O
  O16      1.0000 0.29567  0.87220  0.51330  Biso   1.000  O
  O17      1.0000 0.23327  0.09990  0.64630  Biso   1.000  O
  O18      1.0000 0.04647  0.90040  0.55450  Biso   1.000  O
