data_image0
_cell_length_a       7.3991
_cell_length_b       11.473
_cell_length_c       16.2335
_cell_angle_alpha    79.038
_cell_angle_beta     82.588
_cell_angle_gamma    79.972

_symmetry_space_group_name_H-M    P 1
_symmetry_int_tables_number       1

loop_
  _symmetry_equiv_pos_as_xyz
  'x, y, z'

loop_
  _atom_site_label
  _atom_site_occupancy
  _atom_site_fract_x
  _atom_site_fract_y
  _atom_site_fract_z
  _atom_site_thermal_displace_type
  _atom_site_B_iso_or_equiv
  _atom_site_type_symbol
  Gd1      1.0000 0.05583  0.93622  0.22734  Biso   1.000  Gd
  Gd2      1.0000 0.55330  0.73727  0.23645  Biso   1.000  Gd
  Gd3      1.0000 0.94417  0.06378  0.77266  Biso   1.000  Gd
  Gd4      1.0000 0.44670  0.26273  0.76355  Biso   1.000  Gd
  H1       1.0000 0.00230  0.79140  0.03390  Biso   1.000  H
  H2       1.0000 0.43410  0.27120  0.01990  Biso   1.000  H
  H3       1.0000 0.15810  0.74240  0.44020  Biso   1.000  H
  H4       1.0000 0.15320  0.12770  0.40600  Biso   1.000  H
  H5       1.0000 0.70760  0.06980  0.28090  Biso   1.000  H
  H6       1.0000 0.79560  0.10720  0.32440  Biso   1.000  H
  H7       1.0000 0.20110  0.17400  0.17560  Biso   1.000  H
  H8       1.0000 0.07100  0.19260  0.13350  Biso   1.000  H
  H9       1.0000 0.43810  0.51770  0.34360  Biso   1.000  H
  H10      1.0000 0.43140  0.60300  0.39500  Biso   1.000  H
  H11      1.0000 0.12290  0.61210  0.89500  Biso   1.000  H
  H12      1.0000 0.35080  0.46150  0.15370  Biso   1.000  H
  H13      1.0000 0.77620  0.49790  0.41260  Biso   1.000  H
  H14      1.0000 0.60660  0.82110  0.45180  Biso   1.000  H
  H15      1.0000 0.79610  0.04360  0.97110  Biso   1.000  H
  H16      1.0000 0.99770  0.20860  0.96610  Biso   1.000  H
  H17      1.0000 0.56590  0.72880  0.98010  Biso   1.000  H
  H18      1.0000 0.84190  0.25760  0.55980  Biso   1.000  H
  H19      1.0000 0.84680  0.87230  0.59400  Biso   1.000  H
  H20      1.0000 0.29240  0.93020  0.71910  Biso   1.000  H
  H21      1.0000 0.20440  0.89280  0.67560  Biso   1.000  H
  H22      1.0000 0.79890  0.82600  0.82440  Biso   1.000  H
  H23      1.0000 0.92900  0.80740  0.86650  Biso   1.000  H
  H24      1.0000 0.56190  0.48230  0.65640  Biso   1.000  H
  H25      1.0000 0.56860  0.39700  0.60500  Biso   1.000  H
  H26      1.0000 0.87710  0.38790  0.10500  Biso   1.000  H
  H27      1.0000 0.64920  0.53850  0.84630  Biso   1.000  H
  H28      1.0000 0.22380  0.50210  0.58740  Biso   1.000  H
  H29      1.0000 0.39340  0.17890  0.54820  Biso   1.000  H
  H30      1.0000 0.20390  0.95640  0.02890  Biso   1.000  H
  C1       1.0000 0.20400  0.60770  0.08770  Biso   1.000  C
  C2       1.0000 0.12880  0.64980  0.01090  Biso   1.000  C
  C3       1.0000 0.16460  0.58090  0.94750  Biso   1.000  C
  C4       1.0000 0.26190  0.46630  0.96220  Biso   1.000  C
  C5       1.0000 0.32650  0.41970  0.04110  Biso   1.000  C
  C6       1.0000 0.30200  0.49100  0.10240  Biso   1.000  C
  C7       1.0000 0.18900  0.68670  0.15190  Biso   1.000  C
  C8       1.0000 0.29910  0.39360  0.89310  Biso   1.000  C
  C9       1.0000 0.09950  0.59460  0.48530  Biso   1.000  C
  C10      1.0000 0.96580  0.59400  0.43350  Biso   1.000  C
  C11      1.0000 0.86570  0.49900  0.44770  Biso   1.000  C
  C12      1.0000 0.92590  0.69470  0.35960  Biso   1.000  C
  C13      1.0000 0.35020  0.07820  0.46660  Biso   1.000  C
  C14      1.0000 0.56410  0.89320  0.47100  Biso   1.000  C
  C15      1.0000 0.41480  0.97010  0.43610  Biso   1.000  C
  C16      1.0000 0.33070  0.93480  0.36700  Biso   1.000  C
  C17      1.0000 0.67600  0.02670  0.98220  Biso   1.000  C
  C18      1.0000 0.43240  0.95470  0.08540  Biso   1.000  C
  C19      1.0000 0.61190  0.98410  0.06490  Biso   1.000  C
  C20      1.0000 0.74540  0.96710  0.12750  Biso   1.000  C
  C21      1.0000 0.79600  0.39230  0.91230  Biso   1.000  C
  C22      1.0000 0.87120  0.35020  0.98910  Biso   1.000  C
  C23      1.0000 0.83540  0.41910  0.05250  Biso   1.000  C
  C24      1.0000 0.73810  0.53370  0.03780  Biso   1.000  C
  C25      1.0000 0.67350  0.58030  0.95890  Biso   1.000  C
  C26      1.0000 0.69800  0.50900  0.89760  Biso   1.000  C
  C27      1.0000 0.81100  0.31330  0.84810  Biso   1.000  C
  C28      1.0000 0.70090  0.60640  0.10690  Biso   1.000  C
  C29      1.0000 0.90050  0.40540  0.51470  Biso   1.000  C
  C30      1.0000 0.03420  0.40600  0.56650  Biso   1.000  C
  C31      1.0000 0.13430  0.50100  0.55230  Biso   1.000  C
  C32      1.0000 0.07410  0.30530  0.64040  Biso   1.000  C
  C33      1.0000 0.64980  0.92180  0.53340  Biso   1.000  C
  C34      1.0000 0.43590  0.10680  0.52900  Biso   1.000  C
  C35      1.0000 0.58520  0.02990  0.56390  Biso   1.000  C
  C36      1.0000 0.66930  0.06520  0.63300  Biso   1.000  C
  C37      1.0000 0.32400  0.97330  0.01780  Biso   1.000  C
  C38      1.0000 0.56760  0.04530  0.91460  Biso   1.000  C
  C39      1.0000 0.38810  0.01590  0.93510  Biso   1.000  C
  C40      1.0000 0.25460  0.03290  0.87250  Biso   1.000  C
  O1       1.0000 0.07130  0.78130  0.14560  Biso   1.000  O
  O2       1.0000 0.29540  0.65850  0.21010  Biso   1.000  O
  O3       1.0000 0.26260  0.43850  0.81880  Biso   1.000  O
  O4       1.0000 0.37920  0.28460  0.90950  Biso   1.000  O
  O5       1.0000 0.01550  0.75640  0.99350  Biso   1.000  O
  O6       1.0000 0.42400  0.30550  0.06060  Biso   1.000  O
  O7       1.0000 0.01870  0.77980  0.34550  Biso   1.000  O
  O8       1.0000 0.80280  0.68660  0.31640  Biso   1.000  O
  O9       1.0000 0.20540  0.68450  0.47250  Biso   1.000  O
  O10      1.0000 0.39830  0.83860  0.34210  Biso   1.000  O
  O11      1.0000 0.19200  0.00270  0.33760  Biso   1.000  O
  O12      1.0000 0.20590  0.15870  0.43560  Biso   1.000  O
  O13      1.0000 0.72840  0.89580  0.19900  Biso   1.000  O
  O14      1.0000 0.88400  0.02110  0.11130  Biso   1.000  O
  O15      1.0000 0.36580  0.91050  0.16480  Biso   1.000  O
  O16      1.0000 0.80730  0.04920  0.30050  Biso   1.000  O
  O17      1.0000 0.11130  0.14260  0.17270  Biso   1.000  O
  O18      1.0000 0.47810  0.57600  0.35250  Biso   1.000  O
  O19      1.0000 0.92870  0.21870  0.85440  Biso   1.000  O
  O20      1.0000 0.70460  0.34150  0.78990  Biso   1.000  O
  O21      1.0000 0.73740  0.56150  0.18120  Biso   1.000  O
  O22      1.0000 0.62080  0.71540  0.09050  Biso   1.000  O
  O23      1.0000 0.98450  0.24360  0.00650  Biso   1.000  O
  O24      1.0000 0.57600  0.69450  0.93940  Biso   1.000  O
  O25      1.0000 0.98130  0.22020  0.65450  Biso   1.000  O
  O26      1.0000 0.19720  0.31340  0.68360  Biso   1.000  O
  O27      1.0000 0.79460  0.31550  0.52750  Biso   1.000  O
  O28      1.0000 0.60170  0.16140  0.65790  Biso   1.000  O
  O29      1.0000 0.80800  0.99730  0.66240  Biso   1.000  O
  O30      1.0000 0.79410  0.84130  0.56440  Biso   1.000  O
  O31      1.0000 0.27160  0.10420  0.80100  Biso   1.000  O
  O32      1.0000 0.11600  0.97890  0.88870  Biso   1.000  O
  O33      1.0000 0.63420  0.08950  0.83520  Biso   1.000  O
  O34      1.0000 0.19270  0.95080  0.69950  Biso   1.000  O
  O35      1.0000 0.88870  0.85740  0.82730  Biso   1.000  O
  O36      1.0000 0.52190  0.42400  0.64750  Biso   1.000  O
