data_image0
_cell_length_a       16.2792
_cell_length_b       16.2792
_cell_length_c       16.2792
_cell_angle_alpha    90
_cell_angle_beta     90
_cell_angle_gamma    90

_symmetry_space_group_name_H-M    P 1
_symmetry_int_tables_number       1

loop_
  _symmetry_equiv_pos_as_xyz
  'x, y, z'

loop_
  _atom_site_label
  _atom_site_occupancy
  _atom_site_fract_x
  _atom_site_fract_y
  _atom_site_fract_z
  _atom_site_thermal_displace_type
  _atom_site_B_iso_or_equiv
  _atom_site_type_symbol
  H1       1.0000 0.41940  0.24570  0.59280  Biso   1.000  H
  H2       1.0000 0.08060  0.25430  0.59280  Biso   1.000  H
  H3       1.0000 0.08060  0.24570  0.90720  Biso   1.000  H
  H4       1.0000 0.41940  0.25430  0.90720  Biso   1.000  H
  H5       1.0000 0.59280  0.41940  0.24570  Biso   1.000  H
  H6       1.0000 0.59280  0.08060  0.25430  Biso   1.000  H
  H7       1.0000 0.90720  0.08060  0.24570  Biso   1.000  H
  H8       1.0000 0.90720  0.41940  0.25430  Biso   1.000  H
  H9       1.0000 0.24570  0.59280  0.41940  Biso   1.000  H
  H10      1.0000 0.25430  0.59280  0.08060  Biso   1.000  H
  H11      1.0000 0.24570  0.90720  0.08060  Biso   1.000  H
  H12      1.0000 0.25430  0.90720  0.41940  Biso   1.000  H
  H13      1.0000 0.74570  0.91940  0.40720  Biso   1.000  H
  H14      1.0000 0.75430  0.58060  0.40720  Biso   1.000  H
  H15      1.0000 0.74570  0.58060  0.09280  Biso   1.000  H
  H16      1.0000 0.75430  0.91940  0.09280  Biso   1.000  H
  H17      1.0000 0.91940  0.09280  0.75430  Biso   1.000  H
  H18      1.0000 0.58060  0.09280  0.74570  Biso   1.000  H
  H19      1.0000 0.58060  0.40720  0.75430  Biso   1.000  H
  H20      1.0000 0.91940  0.40720  0.74570  Biso   1.000  H
  H21      1.0000 0.09280  0.74570  0.58060  Biso   1.000  H
  H22      1.0000 0.09280  0.75430  0.91940  Biso   1.000  H
  H23      1.0000 0.40720  0.74570  0.91940  Biso   1.000  H
  H24      1.0000 0.40720  0.75430  0.58060  Biso   1.000  H
  H25      1.0000 0.58060  0.75430  0.40720  Biso   1.000  H
  H26      1.0000 0.91940  0.74570  0.40720  Biso   1.000  H
  H27      1.0000 0.91940  0.75430  0.09280  Biso   1.000  H
  H28      1.0000 0.58060  0.74570  0.09280  Biso   1.000  H
  H29      1.0000 0.40720  0.58060  0.75430  Biso   1.000  H
  H30      1.0000 0.40720  0.91940  0.74570  Biso   1.000  H
  H31      1.0000 0.09280  0.91940  0.75430  Biso   1.000  H
  H32      1.0000 0.09280  0.58060  0.74570  Biso   1.000  H
  H33      1.0000 0.75430  0.40720  0.58060  Biso   1.000  H
  H34      1.0000 0.74570  0.40720  0.91940  Biso   1.000  H
  H35      1.0000 0.75430  0.09280  0.91940  Biso   1.000  H
  H36      1.0000 0.74570  0.09280  0.58060  Biso   1.000  H
  H37      1.0000 0.25430  0.08060  0.59280  Biso   1.000  H
  H38      1.0000 0.24570  0.41940  0.59280  Biso   1.000  H
  H39      1.0000 0.25430  0.41940  0.90720  Biso   1.000  H
  H40      1.0000 0.24570  0.08060  0.90720  Biso   1.000  H
  H41      1.0000 0.08060  0.90720  0.24570  Biso   1.000  H
  H42      1.0000 0.41940  0.90720  0.25430  Biso   1.000  H
  H43      1.0000 0.41940  0.59280  0.24570  Biso   1.000  H
  H44      1.0000 0.08060  0.59280  0.25430  Biso   1.000  H
  H45      1.0000 0.90720  0.25430  0.41940  Biso   1.000  H
  H46      1.0000 0.90720  0.24570  0.08060  Biso   1.000  H
  H47      1.0000 0.59280  0.25430  0.08060  Biso   1.000  H
  H48      1.0000 0.59280  0.24570  0.41940  Biso   1.000  H
  H49      1.0000 0.31116  0.31116  0.52856  Biso   1.000  H
  H50      1.0000 0.18884  0.18884  0.52856  Biso   1.000  H
  H51      1.0000 0.18884  0.31116  0.97144  Biso   1.000  H
  H52      1.0000 0.31116  0.18884  0.97144  Biso   1.000  H
  H53      1.0000 0.52856  0.31116  0.31116  Biso   1.000  H
  H54      1.0000 0.52856  0.18884  0.18884  Biso   1.000  H
  H55      1.0000 0.97144  0.18884  0.31116  Biso   1.000  H
  H56      1.0000 0.97144  0.31116  0.18884  Biso   1.000  H
  H57      1.0000 0.31116  0.52856  0.31116  Biso   1.000  H
  H58      1.0000 0.18884  0.52856  0.18884  Biso   1.000  H
  H59      1.0000 0.31116  0.97144  0.18884  Biso   1.000  H
  H60      1.0000 0.18884  0.97144  0.31116  Biso   1.000  H
  H61      1.0000 0.81116  0.81116  0.47144  Biso   1.000  H
  H62      1.0000 0.68884  0.68884  0.47144  Biso   1.000  H
  H63      1.0000 0.81116  0.68884  0.02856  Biso   1.000  H
  H64      1.0000 0.68884  0.81116  0.02856  Biso   1.000  H
  H65      1.0000 0.81116  0.02856  0.68884  Biso   1.000  H
  H66      1.0000 0.68884  0.02856  0.81116  Biso   1.000  H
  H67      1.0000 0.68884  0.47144  0.68884  Biso   1.000  H
  H68      1.0000 0.81116  0.47144  0.81116  Biso   1.000  H
  H69      1.0000 0.02856  0.81116  0.68884  Biso   1.000  H
  H70      1.0000 0.02856  0.68884  0.81116  Biso   1.000  H
  H71      1.0000 0.47144  0.81116  0.81116  Biso   1.000  H
  H72      1.0000 0.47144  0.68884  0.68884  Biso   1.000  H
  Pd1      1.0000 0.50000  0.25000  0.75000  Biso   1.000  Pd
  Pd2      1.0000 0.00000  0.25000  0.75000  Biso   1.000  Pd
  Pd3      1.0000 0.75000  0.50000  0.25000  Biso   1.000  Pd
  Pd4      1.0000 0.75000  0.00000  0.25000  Biso   1.000  Pd
  Pd5      1.0000 0.25000  0.75000  0.50000  Biso   1.000  Pd
  Pd6      1.0000 0.25000  0.75000  0.00000  Biso   1.000  Pd
  Pd7      1.0000 0.50000  0.75000  0.25000  Biso   1.000  Pd
  Pd8      1.0000 0.00000  0.75000  0.25000  Biso   1.000  Pd
  Pd9      1.0000 0.25000  0.50000  0.75000  Biso   1.000  Pd
  Pd10     1.0000 0.25000  0.00000  0.75000  Biso   1.000  Pd
  Pd11     1.0000 0.75000  0.25000  0.50000  Biso   1.000  Pd
  Pd12     1.0000 0.75000  0.25000  0.00000  Biso   1.000  Pd
  C1       1.0000 0.39253  0.29033  0.61911  Biso   1.000  C
  C2       1.0000 0.10747  0.20967  0.61911  Biso   1.000  C
  C3       1.0000 0.10747  0.29033  0.88089  Biso   1.000  C
  C4       1.0000 0.39253  0.20967  0.88089  Biso   1.000  C
  C5       1.0000 0.61911  0.39253  0.29033  Biso   1.000  C
  C6       1.0000 0.61911  0.10747  0.20967  Biso   1.000  C
  C7       1.0000 0.88089  0.10747  0.29033  Biso   1.000  C
  C8       1.0000 0.88089  0.39253  0.20967  Biso   1.000  C
  C9       1.0000 0.29033  0.61911  0.39253  Biso   1.000  C
  C10      1.0000 0.20967  0.61911  0.10747  Biso   1.000  C
  C11      1.0000 0.29033  0.88089  0.10747  Biso   1.000  C
  C12      1.0000 0.20967  0.88089  0.39253  Biso   1.000  C
  C13      1.0000 0.79033  0.89253  0.38089  Biso   1.000  C
  C14      1.0000 0.70967  0.60747  0.38089  Biso   1.000  C
  C15      1.0000 0.79033  0.60747  0.11911  Biso   1.000  C
  C16      1.0000 0.70967  0.89253  0.11911  Biso   1.000  C
  C17      1.0000 0.89253  0.11911  0.70967  Biso   1.000  C
  C18      1.0000 0.60747  0.11911  0.79033  Biso   1.000  C
  C19      1.0000 0.60747  0.38089  0.70967  Biso   1.000  C
  C20      1.0000 0.89253  0.38089  0.79033  Biso   1.000  C
  C21      1.0000 0.11911  0.79033  0.60747  Biso   1.000  C
  C22      1.0000 0.11911  0.70967  0.89253  Biso   1.000  C
  C23      1.0000 0.38089  0.79033  0.89253  Biso   1.000  C
  C24      1.0000 0.38089  0.70967  0.60747  Biso   1.000  C
  C25      1.0000 0.60747  0.70967  0.38089  Biso   1.000  C
  C26      1.0000 0.89253  0.79033  0.38089  Biso   1.000  C
  C27      1.0000 0.89253  0.70967  0.11911  Biso   1.000  C
  C28      1.0000 0.60747  0.79033  0.11911  Biso   1.000  C
  C29      1.0000 0.38089  0.60747  0.70967  Biso   1.000  C
  C30      1.0000 0.38089  0.89253  0.79033  Biso   1.000  C
  C31      1.0000 0.11911  0.89253  0.70967  Biso   1.000  C
  C32      1.0000 0.11911  0.60747  0.79033  Biso   1.000  C
  C33      1.0000 0.70967  0.38089  0.60747  Biso   1.000  C
  C34      1.0000 0.79033  0.38089  0.89253  Biso   1.000  C
  C35      1.0000 0.70967  0.11911  0.89253  Biso   1.000  C
  C36      1.0000 0.79033  0.11911  0.60747  Biso   1.000  C
  C37      1.0000 0.20967  0.10747  0.61911  Biso   1.000  C
  C38      1.0000 0.29033  0.39253  0.61911  Biso   1.000  C
  C39      1.0000 0.20967  0.39253  0.88089  Biso   1.000  C
  C40      1.0000 0.29033  0.10747  0.88089  Biso   1.000  C
  C41      1.0000 0.10747  0.88089  0.29033  Biso   1.000  C
  C42      1.0000 0.39253  0.88089  0.20967  Biso   1.000  C
  C43      1.0000 0.39253  0.61911  0.29033  Biso   1.000  C
  C44      1.0000 0.10747  0.61911  0.20967  Biso   1.000  C
  C45      1.0000 0.88089  0.20967  0.39253  Biso   1.000  C
  C46      1.0000 0.88089  0.29033  0.10747  Biso   1.000  C
  C47      1.0000 0.61911  0.20967  0.10747  Biso   1.000  C
  C48      1.0000 0.61911  0.29033  0.39253  Biso   1.000  C
  C49      1.0000 0.37944  0.37944  0.73227  Biso   1.000  C
  C50      1.0000 0.32884  0.32884  0.58129  Biso   1.000  C
  C51      1.0000 0.12056  0.12056  0.73227  Biso   1.000  C
  C52      1.0000 0.17116  0.17116  0.58129  Biso   1.000  C
  C53      1.0000 0.12056  0.37944  0.76773  Biso   1.000  C
  C54      1.0000 0.17116  0.32884  0.91871  Biso   1.000  C
  C55      1.0000 0.37944  0.12056  0.76773  Biso   1.000  C
  C56      1.0000 0.32884  0.17116  0.91871  Biso   1.000  C
  C57      1.0000 0.73227  0.37944  0.37944  Biso   1.000  C
  C58      1.0000 0.58129  0.32884  0.32884  Biso   1.000  C
  C59      1.0000 0.73227  0.12056  0.12056  Biso   1.000  C
  C60      1.0000 0.58129  0.17116  0.17116  Biso   1.000  C
  C61      1.0000 0.76773  0.12056  0.37944  Biso   1.000  C
  C62      1.0000 0.91871  0.17116  0.32884  Biso   1.000  C
  C63      1.0000 0.76773  0.37944  0.12056  Biso   1.000  C
  C64      1.0000 0.91871  0.32884  0.17116  Biso   1.000  C
  C65      1.0000 0.37944  0.73227  0.37944  Biso   1.000  C
  C66      1.0000 0.32884  0.58129  0.32884  Biso   1.000  C
  C67      1.0000 0.12056  0.73227  0.12056  Biso   1.000  C
  C68      1.0000 0.17116  0.58129  0.17116  Biso   1.000  C
  C69      1.0000 0.37944  0.76773  0.12056  Biso   1.000  C
  C70      1.0000 0.32884  0.91871  0.17116  Biso   1.000  C
  C71      1.0000 0.12056  0.76773  0.37944  Biso   1.000  C
  C72      1.0000 0.17116  0.91871  0.32884  Biso   1.000  C
  C73      1.0000 0.87944  0.87944  0.26773  Biso   1.000  C
  C74      1.0000 0.82884  0.82884  0.41871  Biso   1.000  C
  C75      1.0000 0.62056  0.62056  0.26773  Biso   1.000  C
  C76      1.0000 0.67116  0.67116  0.41871  Biso   1.000  C
  C77      1.0000 0.87944  0.62056  0.23227  Biso   1.000  C
  C78      1.0000 0.82884  0.67116  0.08129  Biso   1.000  C
  C79      1.0000 0.62056  0.87944  0.23227  Biso   1.000  C
  C80      1.0000 0.67116  0.82884  0.08129  Biso   1.000  C
  C81      1.0000 0.87944  0.23227  0.62056  Biso   1.000  C
  C82      1.0000 0.82884  0.08129  0.67116  Biso   1.000  C
  C83      1.0000 0.62056  0.23227  0.87944  Biso   1.000  C
  C84      1.0000 0.67116  0.08129  0.82884  Biso   1.000  C
  C85      1.0000 0.62056  0.26773  0.62056  Biso   1.000  C
  C86      1.0000 0.67116  0.41871  0.67116  Biso   1.000  C
  C87      1.0000 0.87944  0.26773  0.87944  Biso   1.000  C
  C88      1.0000 0.82884  0.41871  0.82884  Biso   1.000  C
  C89      1.0000 0.23227  0.87944  0.62056  Biso   1.000  C
  C90      1.0000 0.08129  0.82884  0.67116  Biso   1.000  C
  C91      1.0000 0.23227  0.62056  0.87944  Biso   1.000  C
  C92      1.0000 0.08129  0.67116  0.82884  Biso   1.000  C
  C93      1.0000 0.26773  0.87944  0.87944  Biso   1.000  C
  C94      1.0000 0.41871  0.82884  0.82884  Biso   1.000  C
  C95      1.0000 0.26773  0.62056  0.62056  Biso   1.000  C
  C96      1.0000 0.41871  0.67116  0.67116  Biso   1.000  C
  N1       1.0000 0.41809  0.31561  0.69445  Biso   1.000  N
  N2       1.0000 0.08191  0.18439  0.69445  Biso   1.000  N
  N3       1.0000 0.08191  0.31561  0.80555  Biso   1.000  N
  N4       1.0000 0.41809  0.18439  0.80555  Biso   1.000  N
  N5       1.0000 0.69445  0.41809  0.31561  Biso   1.000  N
  N6       1.0000 0.69445  0.08191  0.18439  Biso   1.000  N
  N7       1.0000 0.80555  0.08191  0.31561  Biso   1.000  N
  N8       1.0000 0.80555  0.41809  0.18439  Biso   1.000  N
  N9       1.0000 0.31561  0.69445  0.41809  Biso   1.000  N
  N10      1.0000 0.18439  0.69445  0.08191  Biso   1.000  N
  N11      1.0000 0.31561  0.80555  0.08191  Biso   1.000  N
  N12      1.0000 0.18439  0.80555  0.41809  Biso   1.000  N
  N13      1.0000 0.81561  0.91809  0.30555  Biso   1.000  N
  N14      1.0000 0.68439  0.58191  0.30555  Biso   1.000  N
  N15      1.0000 0.81561  0.58191  0.19445  Biso   1.000  N
  N16      1.0000 0.68439  0.91809  0.19445  Biso   1.000  N
  N17      1.0000 0.91809  0.19445  0.68439  Biso   1.000  N
  N18      1.0000 0.58191  0.19445  0.81561  Biso   1.000  N
  N19      1.0000 0.58191  0.30555  0.68439  Biso   1.000  N
  N20      1.0000 0.91809  0.30555  0.81561  Biso   1.000  N
  N21      1.0000 0.19445  0.81561  0.58191  Biso   1.000  N
  N22      1.0000 0.19445  0.68439  0.91809  Biso   1.000  N
  N23      1.0000 0.30555  0.81561  0.91809  Biso   1.000  N
  N24      1.0000 0.30555  0.68439  0.58191  Biso   1.000  N
  N25      1.0000 0.58191  0.68439  0.30555  Biso   1.000  N
  N26      1.0000 0.91809  0.81561  0.30555  Biso   1.000  N
  N27      1.0000 0.91809  0.68439  0.19445  Biso   1.000  N
  N28      1.0000 0.58191  0.81561  0.19445  Biso   1.000  N
  N29      1.0000 0.30555  0.58191  0.68439  Biso   1.000  N
  N30      1.0000 0.30555  0.91809  0.81561  Biso   1.000  N
  N31      1.0000 0.19445  0.91809  0.68439  Biso   1.000  N
  N32      1.0000 0.19445  0.58191  0.81561  Biso   1.000  N
  N33      1.0000 0.68439  0.30555  0.58191  Biso   1.000  N
  N34      1.0000 0.81561  0.30555  0.91809  Biso   1.000  N
  N35      1.0000 0.68439  0.19445  0.91809  Biso   1.000  N
  N36      1.0000 0.81561  0.19445  0.58191  Biso   1.000  N
  N37      1.0000 0.18439  0.08191  0.69445  Biso   1.000  N
  N38      1.0000 0.31561  0.41809  0.69445  Biso   1.000  N
  N39      1.0000 0.18439  0.41809  0.80555  Biso   1.000  N
  N40      1.0000 0.31561  0.08191  0.80555  Biso   1.000  N
  N41      1.0000 0.08191  0.80555  0.31561  Biso   1.000  N
  N42      1.0000 0.41809  0.80555  0.18439  Biso   1.000  N
  N43      1.0000 0.41809  0.69445  0.31561  Biso   1.000  N
  N44      1.0000 0.08191  0.69445  0.18439  Biso   1.000  N
  N45      1.0000 0.80555  0.18439  0.41809  Biso   1.000  N
  N46      1.0000 0.80555  0.31561  0.08191  Biso   1.000  N
  N47      1.0000 0.69445  0.18439  0.08191  Biso   1.000  N
  N48      1.0000 0.69445  0.31561  0.41809  Biso   1.000  N
  O1       1.0000 0.40270  0.40270  0.80165  Biso   1.000  O
  O2       1.0000 0.09730  0.09730  0.80165  Biso   1.000  O
  O3       1.0000 0.09730  0.40270  0.69835  Biso   1.000  O
  O4       1.0000 0.40270  0.09730  0.69835  Biso   1.000  O
  O5       1.0000 0.80165  0.40270  0.40270  Biso   1.000  O
  O6       1.0000 0.80165  0.09730  0.09730  Biso   1.000  O
  O7       1.0000 0.69835  0.09730  0.40270  Biso   1.000  O
  O8       1.0000 0.69835  0.40270  0.09730  Biso   1.000  O
  O9       1.0000 0.40270  0.80165  0.40270  Biso   1.000  O
  O10      1.0000 0.09730  0.80165  0.09730  Biso   1.000  O
  O11      1.0000 0.40270  0.69835  0.09730  Biso   1.000  O
  O12      1.0000 0.09730  0.69835  0.40270  Biso   1.000  O
  O13      1.0000 0.90270  0.90270  0.19835  Biso   1.000  O
  O14      1.0000 0.59730  0.59730  0.19835  Biso   1.000  O
  O15      1.0000 0.90270  0.59730  0.30165  Biso   1.000  O
  O16      1.0000 0.59730  0.90270  0.30165  Biso   1.000  O
  O17      1.0000 0.90270  0.30165  0.59730  Biso   1.000  O
  O18      1.0000 0.59730  0.30165  0.90270  Biso   1.000  O
  O19      1.0000 0.59730  0.19835  0.59730  Biso   1.000  O
  O20      1.0000 0.90270  0.19835  0.90270  Biso   1.000  O
  O21      1.0000 0.30165  0.90270  0.59730  Biso   1.000  O
  O22      1.0000 0.30165  0.59730  0.90270  Biso   1.000  O
  O23      1.0000 0.19835  0.90270  0.90270  Biso   1.000  O
  O24      1.0000 0.19835  0.59730  0.59730  Biso   1.000  O
