data_image0
_cell_length_a       9.777
_cell_length_b       9.777
_cell_length_c       33.611
_cell_angle_alpha    90
_cell_angle_beta     90
_cell_angle_gamma    90.341

_symmetry_space_group_name_H-M    P 1
_symmetry_int_tables_number       1

loop_
  _symmetry_equiv_pos_as_xyz
  'x, y, z'

loop_
  _atom_site_label
  _atom_site_occupancy
  _atom_site_fract_x
  _atom_site_fract_y
  _atom_site_fract_z
  _atom_site_thermal_displace_type
  _atom_site_B_iso_or_equiv
  _atom_site_type_symbol
  Mn1      1.0000 0.95265  0.02741  0.39258  Biso   1.000  Mn
  Mn2      1.0000 0.02741  0.95265  0.60742  Biso   1.000  Mn
  Mn3      1.0000 0.02741  0.95265  0.89258  Biso   1.000  Mn
  Mn4      1.0000 0.95265  0.02741  0.10742  Biso   1.000  Mn
  Mn5      1.0000 0.97269  0.97269  0.50000  Biso   1.000  Mn
  Mn6      1.0000 0.97269  0.97269  0.00000  Biso   1.000  Mn
  H1       1.0000 0.27340  0.95980  0.38290  Biso   1.000  H
  H2       1.0000 0.68010  0.92530  0.38970  Biso   1.000  H
  H3       1.0000 0.46040  0.97600  0.48890  Biso   1.000  H
  H4       1.0000 0.23180  0.30120  0.30920  Biso   1.000  H
  H5       1.0000 0.48750  0.32970  0.28900  Biso   1.000  H
  H6       1.0000 0.52830  0.48350  0.28260  Biso   1.000  H
  H7       1.0000 0.40060  0.44560  0.30870  Biso   1.000  H
  H8       1.0000 0.79940  0.28000  0.34010  Biso   1.000  H
  H9       1.0000 0.67630  0.47370  0.36720  Biso   1.000  H
  H10      1.0000 0.79360  0.23680  0.45550  Biso   1.000  H
  H11      1.0000 0.65600  0.43980  0.47780  Biso   1.000  H
  H12      1.0000 0.67810  0.56650  0.44970  Biso   1.000  H
  H13      1.0000 0.45330  0.27830  0.44920  Biso   1.000  H
  H14      1.0000 0.23150  0.27590  0.42950  Biso   1.000  H
  H15      1.0000 0.24920  0.67640  0.41640  Biso   1.000  H
  H16      1.0000 0.47760  0.67360  0.43190  Biso   1.000  H
  H17      1.0000 0.01070  0.46650  0.43480  Biso   1.000  H
  H18      1.0000 0.04600  0.39300  0.39470  Biso   1.000  H
  H19      1.0000 0.96680  0.72620  0.43200  Biso   1.000  H
  H20      1.0000 0.98650  0.78770  0.31740  Biso   1.000  H
  H21      1.0000 0.04860  0.55100  0.32920  Biso   1.000  H
  H22      1.0000 0.28170  0.91970  0.32160  Biso   1.000  H
  H23      1.0000 0.36330  0.83650  0.28970  Biso   1.000  H
  H24      1.0000 0.33340  0.77200  0.33150  Biso   1.000  H
  H25      1.0000 0.58530  0.10170  0.32590  Biso   1.000  H
  H26      1.0000 0.50840  0.05420  0.28730  Biso   1.000  H
  H27      1.0000 0.42580  0.11420  0.32320  Biso   1.000  H
  H28      1.0000 0.60340  0.74320  0.33290  Biso   1.000  H
  H29      1.0000 0.59930  0.81630  0.29140  Biso   1.000  H
  H30      1.0000 0.68990  0.87650  0.32580  Biso   1.000  H
  H31      1.0000 0.95980  0.27340  0.61710  Biso   1.000  H
  H32      1.0000 0.92530  0.68010  0.61030  Biso   1.000  H
  H33      1.0000 0.97600  0.46040  0.51110  Biso   1.000  H
  H34      1.0000 0.30120  0.23180  0.69080  Biso   1.000  H
  H35      1.0000 0.32970  0.48750  0.71100  Biso   1.000  H
  H36      1.0000 0.48350  0.52830  0.71740  Biso   1.000  H
  H37      1.0000 0.44560  0.40060  0.69130  Biso   1.000  H
  H38      1.0000 0.28000  0.79940  0.65990  Biso   1.000  H
  H39      1.0000 0.47370  0.67630  0.63280  Biso   1.000  H
  H40      1.0000 0.23680  0.79360  0.54450  Biso   1.000  H
  H41      1.0000 0.43980  0.65600  0.52220  Biso   1.000  H
  H42      1.0000 0.56650  0.67810  0.55030  Biso   1.000  H
  H43      1.0000 0.27830  0.45330  0.55080  Biso   1.000  H
  H44      1.0000 0.27590  0.23150  0.57050  Biso   1.000  H
  H45      1.0000 0.67640  0.24920  0.58360  Biso   1.000  H
  H46      1.0000 0.67360  0.47760  0.56810  Biso   1.000  H
  H47      1.0000 0.46650  0.01070  0.56520  Biso   1.000  H
  H48      1.0000 0.39300  0.04600  0.60530  Biso   1.000  H
  H49      1.0000 0.72620  0.96680  0.56800  Biso   1.000  H
  H50      1.0000 0.78770  0.98650  0.68260  Biso   1.000  H
  H51      1.0000 0.55100  0.04860  0.67080  Biso   1.000  H
  H52      1.0000 0.91970  0.28170  0.67840  Biso   1.000  H
  H53      1.0000 0.83650  0.36330  0.71030  Biso   1.000  H
  H54      1.0000 0.77200  0.33340  0.66850  Biso   1.000  H
  H55      1.0000 0.10170  0.58530  0.67410  Biso   1.000  H
  H56      1.0000 0.05420  0.50840  0.71270  Biso   1.000  H
  H57      1.0000 0.11420  0.42580  0.67680  Biso   1.000  H
  H58      1.0000 0.74320  0.60340  0.66710  Biso   1.000  H
  H59      1.0000 0.81630  0.59930  0.70860  Biso   1.000  H
  H60      1.0000 0.87650  0.68990  0.67420  Biso   1.000  H
  H61      1.0000 0.95980  0.27340  0.88290  Biso   1.000  H
  H62      1.0000 0.92530  0.68010  0.88970  Biso   1.000  H
  H63      1.0000 0.97600  0.46040  0.98890  Biso   1.000  H
  H64      1.0000 0.30120  0.23180  0.80920  Biso   1.000  H
  H65      1.0000 0.32970  0.48750  0.78900  Biso   1.000  H
  H66      1.0000 0.48350  0.52830  0.78260  Biso   1.000  H
  H67      1.0000 0.44560  0.40060  0.80870  Biso   1.000  H
  H68      1.0000 0.28000  0.79940  0.84010  Biso   1.000  H
  H69      1.0000 0.47370  0.67630  0.86720  Biso   1.000  H
  H70      1.0000 0.23680  0.79360  0.95550  Biso   1.000  H
  H71      1.0000 0.43980  0.65600  0.97780  Biso   1.000  H
  H72      1.0000 0.56650  0.67810  0.94970  Biso   1.000  H
  H73      1.0000 0.27830  0.45330  0.94920  Biso   1.000  H
  H74      1.0000 0.27590  0.23150  0.92950  Biso   1.000  H
  H75      1.0000 0.67640  0.24920  0.91640  Biso   1.000  H
  H76      1.0000 0.67360  0.47760  0.93190  Biso   1.000  H
  H77      1.0000 0.46650  0.01070  0.93480  Biso   1.000  H
  H78      1.0000 0.39300  0.04600  0.89470  Biso   1.000  H
  H79      1.0000 0.72620  0.96680  0.93200  Biso   1.000  H
  H80      1.0000 0.78770  0.98650  0.81740  Biso   1.000  H
  H81      1.0000 0.55100  0.04860  0.82920  Biso   1.000  H
  H82      1.0000 0.91970  0.28170  0.82160  Biso   1.000  H
  H83      1.0000 0.83650  0.36330  0.78970  Biso   1.000  H
  H84      1.0000 0.77200  0.33340  0.83150  Biso   1.000  H
  H85      1.0000 0.10170  0.58530  0.82590  Biso   1.000  H
  H86      1.0000 0.05420  0.50840  0.78730  Biso   1.000  H
  H87      1.0000 0.11420  0.42580  0.82320  Biso   1.000  H
  H88      1.0000 0.74320  0.60340  0.83290  Biso   1.000  H
  H89      1.0000 0.81630  0.59930  0.79140  Biso   1.000  H
  H90      1.0000 0.87650  0.68990  0.82580  Biso   1.000  H
  H91      1.0000 0.27340  0.95980  0.11710  Biso   1.000  H
  H92      1.0000 0.68010  0.92530  0.11030  Biso   1.000  H
  H93      1.0000 0.46040  0.97600  0.01110  Biso   1.000  H
  H94      1.0000 0.23180  0.30120  0.19080  Biso   1.000  H
  H95      1.0000 0.48750  0.32970  0.21100  Biso   1.000  H
  H96      1.0000 0.52830  0.48350  0.21740  Biso   1.000  H
  H97      1.0000 0.40060  0.44560  0.19130  Biso   1.000  H
  H98      1.0000 0.79940  0.28000  0.15990  Biso   1.000  H
  H99      1.0000 0.67630  0.47370  0.13280  Biso   1.000  H
  H100     1.0000 0.79360  0.23680  0.04450  Biso   1.000  H
  H101     1.0000 0.65600  0.43980  0.02220  Biso   1.000  H
  H102     1.0000 0.67810  0.56650  0.05030  Biso   1.000  H
  H103     1.0000 0.45330  0.27830  0.05080  Biso   1.000  H
  H104     1.0000 0.23150  0.27590  0.07050  Biso   1.000  H
  H105     1.0000 0.24920  0.67640  0.08360  Biso   1.000  H
  H106     1.0000 0.47760  0.67360  0.06810  Biso   1.000  H
  H107     1.0000 0.01070  0.46650  0.06520  Biso   1.000  H
  H108     1.0000 0.04600  0.39300  0.10530  Biso   1.000  H
  H109     1.0000 0.96680  0.72620  0.06800  Biso   1.000  H
  H110     1.0000 0.98650  0.78770  0.18260  Biso   1.000  H
  H111     1.0000 0.04860  0.55100  0.17080  Biso   1.000  H
  H112     1.0000 0.28170  0.91970  0.17840  Biso   1.000  H
  H113     1.0000 0.36330  0.83650  0.21030  Biso   1.000  H
  H114     1.0000 0.33340  0.77200  0.16850  Biso   1.000  H
  H115     1.0000 0.58530  0.10170  0.17410  Biso   1.000  H
  H116     1.0000 0.50840  0.05420  0.21270  Biso   1.000  H
  H117     1.0000 0.42580  0.11420  0.17680  Biso   1.000  H
  H118     1.0000 0.60340  0.74320  0.16710  Biso   1.000  H
  H119     1.0000 0.59930  0.81630  0.20860  Biso   1.000  H
  H120     1.0000 0.68990  0.87650  0.17420  Biso   1.000  H
  H121     1.0000 0.96170  0.06810  0.25000  Biso   1.000  H
  H122     1.0000 0.06810  0.96170  0.75000  Biso   1.000  H
  C1       1.0000 0.20990  0.98090  0.45831  Biso   1.000  C
  C2       1.0000 0.34590  0.96970  0.43866  Biso   1.000  C
  C3       1.0000 0.35340  0.95540  0.39776  Biso   1.000  C
  C4       1.0000 0.47780  0.93460  0.37814  Biso   1.000  C
  C5       1.0000 0.59540  0.93640  0.40186  Biso   1.000  C
  C6       1.0000 0.59050  0.95410  0.44265  Biso   1.000  C
  C7       1.0000 0.46500  0.96800  0.46137  Biso   1.000  C
  C8       1.0000 0.72060  0.95840  0.46629  Biso   1.000  C
  C9       1.0000 0.48760  0.91500  0.33336  Biso   1.000  C
  C10      1.0000 0.03510  0.12190  0.32440  Biso   1.000  C
  C11      1.0000 0.08930  0.17550  0.28584  Biso   1.000  C
  C12      1.0000 0.19640  0.27000  0.28522  Biso   1.000  C
  C13      1.0000 0.45310  0.42070  0.28570  Biso   1.000  C
  C14      1.0000 0.78270  0.29550  0.36697  Biso   1.000  C
  C15      1.0000 0.71510  0.40270  0.38166  Biso   1.000  C
  C16      1.0000 0.78010  0.27150  0.43003  Biso   1.000  C
  C17      1.0000 0.64180  0.47400  0.45101  Biso   1.000  C
  C18      1.0000 0.49060  0.47540  0.44174  Biso   1.000  C
  C19      1.0000 0.41310  0.36010  0.44150  Biso   1.000  C
  C20      1.0000 0.27940  0.35820  0.43070  Biso   1.000  C
  C21      1.0000 0.21570  0.47750  0.42145  Biso   1.000  C
  C22      1.0000 0.29080  0.59360  0.42240  Biso   1.000  C
  C23      1.0000 0.42800  0.59220  0.43210  Biso   1.000  C
  C24      1.0000 0.06430  0.47390  0.41056  Biso   1.000  C
  C25      1.0000 0.98050  0.71290  0.40487  Biso   1.000  C
  C26      1.0000 0.99090  0.74590  0.34216  Biso   1.000  C
  C27      1.0000 0.02560  0.61480  0.34851  Biso   1.000  C
  C28      1.0000 0.35420  0.85520  0.31760  Biso   1.000  C
  C29      1.0000 0.50330  0.05990  0.31580  Biso   1.000  C
  C30      1.0000 0.60570  0.83010  0.31960  Biso   1.000  C
  C31      1.0000 0.98090  0.20990  0.54169  Biso   1.000  C
  C32      1.0000 0.96970  0.34590  0.56134  Biso   1.000  C
  C33      1.0000 0.95540  0.35340  0.60224  Biso   1.000  C
  C34      1.0000 0.93460  0.47780  0.62186  Biso   1.000  C
  C35      1.0000 0.93640  0.59540  0.59814  Biso   1.000  C
  C36      1.0000 0.95410  0.59050  0.55735  Biso   1.000  C
  C37      1.0000 0.96800  0.46500  0.53863  Biso   1.000  C
  C38      1.0000 0.95840  0.72060  0.53371  Biso   1.000  C
  C39      1.0000 0.91500  0.48760  0.66664  Biso   1.000  C
  C40      1.0000 0.12190  0.03510  0.67560  Biso   1.000  C
  C41      1.0000 0.17550  0.08930  0.71416  Biso   1.000  C
  C42      1.0000 0.27000  0.19640  0.71478  Biso   1.000  C
  C43      1.0000 0.42070  0.45310  0.71430  Biso   1.000  C
  C44      1.0000 0.29550  0.78270  0.63303  Biso   1.000  C
  C45      1.0000 0.40270  0.71510  0.61834  Biso   1.000  C
  C46      1.0000 0.27150  0.78010  0.56997  Biso   1.000  C
  C47      1.0000 0.47400  0.64180  0.54899  Biso   1.000  C
  C48      1.0000 0.47540  0.49060  0.55826  Biso   1.000  C
  C49      1.0000 0.36010  0.41310  0.55850  Biso   1.000  C
  C50      1.0000 0.35820  0.27940  0.56930  Biso   1.000  C
  C51      1.0000 0.47750  0.21570  0.57855  Biso   1.000  C
  C52      1.0000 0.59360  0.29080  0.57760  Biso   1.000  C
  C53      1.0000 0.59220  0.42800  0.56790  Biso   1.000  C
  C54      1.0000 0.47390  0.06430  0.58944  Biso   1.000  C
  C55      1.0000 0.71290  0.98050  0.59513  Biso   1.000  C
  C56      1.0000 0.74590  0.99090  0.65784  Biso   1.000  C
  C57      1.0000 0.61480  0.02560  0.65149  Biso   1.000  C
  C58      1.0000 0.85520  0.35420  0.68240  Biso   1.000  C
  C59      1.0000 0.05990  0.50330  0.68420  Biso   1.000  C
  C60      1.0000 0.83010  0.60570  0.68040  Biso   1.000  C
  C61      1.0000 0.98090  0.20990  0.95831  Biso   1.000  C
  C62      1.0000 0.96970  0.34590  0.93866  Biso   1.000  C
  C63      1.0000 0.95540  0.35340  0.89776  Biso   1.000  C
  C64      1.0000 0.93460  0.47780  0.87814  Biso   1.000  C
  C65      1.0000 0.93640  0.59540  0.90186  Biso   1.000  C
  C66      1.0000 0.95410  0.59050  0.94265  Biso   1.000  C
  C67      1.0000 0.96800  0.46500  0.96137  Biso   1.000  C
  C68      1.0000 0.95840  0.72060  0.96629  Biso   1.000  C
  C69      1.0000 0.91500  0.48760  0.83336  Biso   1.000  C
  C70      1.0000 0.12190  0.03510  0.82440  Biso   1.000  C
  C71      1.0000 0.17550  0.08930  0.78584  Biso   1.000  C
  C72      1.0000 0.27000  0.19640  0.78522  Biso   1.000  C
  C73      1.0000 0.42070  0.45310  0.78570  Biso   1.000  C
  C74      1.0000 0.29550  0.78270  0.86697  Biso   1.000  C
  C75      1.0000 0.40270  0.71510  0.88166  Biso   1.000  C
  C76      1.0000 0.27150  0.78010  0.93003  Biso   1.000  C
  C77      1.0000 0.47400  0.64180  0.95101  Biso   1.000  C
  C78      1.0000 0.47540  0.49060  0.94174  Biso   1.000  C
  C79      1.0000 0.36010  0.41310  0.94150  Biso   1.000  C
  C80      1.0000 0.35820  0.27940  0.93070  Biso   1.000  C
  C81      1.0000 0.47750  0.21570  0.92145  Biso   1.000  C
  C82      1.0000 0.59360  0.29080  0.92240  Biso   1.000  C
  C83      1.0000 0.59220  0.42800  0.93210  Biso   1.000  C
  C84      1.0000 0.47390  0.06430  0.91056  Biso   1.000  C
  C85      1.0000 0.71290  0.98050  0.90487  Biso   1.000  C
  C86      1.0000 0.74590  0.99090  0.84216  Biso   1.000  C
  C87      1.0000 0.61480  0.02560  0.84851  Biso   1.000  C
  C88      1.0000 0.85520  0.35420  0.81760  Biso   1.000  C
  C89      1.0000 0.05990  0.50330  0.81580  Biso   1.000  C
  C90      1.0000 0.83010  0.60570  0.81960  Biso   1.000  C
  C91      1.0000 0.20990  0.98090  0.04169  Biso   1.000  C
  C92      1.0000 0.34590  0.96970  0.06134  Biso   1.000  C
  C93      1.0000 0.35340  0.95540  0.10224  Biso   1.000  C
  C94      1.0000 0.47780  0.93460  0.12186  Biso   1.000  C
  C95      1.0000 0.59540  0.93640  0.09814  Biso   1.000  C
  C96      1.0000 0.59050  0.95410  0.05735  Biso   1.000  C
  C97      1.0000 0.46500  0.96800  0.03863  Biso   1.000  C
  C98      1.0000 0.72060  0.95840  0.03371  Biso   1.000  C
  C99      1.0000 0.48760  0.91500  0.16664  Biso   1.000  C
  C100     1.0000 0.03510  0.12190  0.17560  Biso   1.000  C
  C101     1.0000 0.08930  0.17550  0.21416  Biso   1.000  C
  C102     1.0000 0.19640  0.27000  0.21478  Biso   1.000  C
  C103     1.0000 0.45310  0.42070  0.21430  Biso   1.000  C
  C104     1.0000 0.78270  0.29550  0.13303  Biso   1.000  C
  C105     1.0000 0.71510  0.40270  0.11834  Biso   1.000  C
  C106     1.0000 0.78010  0.27150  0.06997  Biso   1.000  C
  C107     1.0000 0.64180  0.47400  0.04899  Biso   1.000  C
  C108     1.0000 0.49060  0.47540  0.05826  Biso   1.000  C
  C109     1.0000 0.41310  0.36010  0.05850  Biso   1.000  C
  C110     1.0000 0.27940  0.35820  0.06930  Biso   1.000  C
  C111     1.0000 0.21570  0.47750  0.07855  Biso   1.000  C
  C112     1.0000 0.29080  0.59360  0.07760  Biso   1.000  C
  C113     1.0000 0.42800  0.59220  0.06790  Biso   1.000  C
  C114     1.0000 0.06430  0.47390  0.08944  Biso   1.000  C
  C115     1.0000 0.98050  0.71290  0.09513  Biso   1.000  C
  C116     1.0000 0.99090  0.74590  0.15784  Biso   1.000  C
  C117     1.0000 0.02560  0.61480  0.15149  Biso   1.000  C
  C118     1.0000 0.35420  0.85520  0.18240  Biso   1.000  C
  C119     1.0000 0.50330  0.05990  0.18420  Biso   1.000  C
  C120     1.0000 0.60570  0.83010  0.18040  Biso   1.000  C
  C121     1.0000 0.03470  0.12950  0.25000  Biso   1.000  C
  C122     1.0000 0.25180  0.31920  0.25000  Biso   1.000  C
  C123     1.0000 0.36520  0.42620  0.25000  Biso   1.000  C
  C124     1.0000 0.29960  0.56460  0.25000  Biso   1.000  C
  C125     1.0000 0.12950  0.03470  0.75000  Biso   1.000  C
  C126     1.0000 0.31920  0.25180  0.75000  Biso   1.000  C
  C127     1.0000 0.42620  0.36520  0.75000  Biso   1.000  C
  C128     1.0000 0.56460  0.29960  0.75000  Biso   1.000  C
  N1       1.0000 0.82400  0.21180  0.39750  Biso   1.000  N
  N2       1.0000 0.71440  0.38700  0.42245  Biso   1.000  N
  N3       1.0000 0.96270  0.80890  0.37777  Biso   1.000  N
  N4       1.0000 0.02100  0.59300  0.38876  Biso   1.000  N
  N5       1.0000 0.21180  0.82400  0.60250  Biso   1.000  N
  N6       1.0000 0.38700  0.71440  0.57755  Biso   1.000  N
  N7       1.0000 0.80890  0.96270  0.62223  Biso   1.000  N
  N8       1.0000 0.59300  0.02100  0.61124  Biso   1.000  N
  N9       1.0000 0.21180  0.82400  0.89750  Biso   1.000  N
  N10      1.0000 0.38700  0.71440  0.92245  Biso   1.000  N
  N11      1.0000 0.80890  0.96270  0.87777  Biso   1.000  N
  N12      1.0000 0.59300  0.02100  0.88876  Biso   1.000  N
  N13      1.0000 0.82400  0.21180  0.10250  Biso   1.000  N
  N14      1.0000 0.71440  0.38700  0.07755  Biso   1.000  N
  N15      1.0000 0.96270  0.80890  0.12223  Biso   1.000  N
  N16      1.0000 0.02100  0.59300  0.11124  Biso   1.000  N
  O1       1.0000 0.10657  0.00903  0.43769  Biso   1.000  O
  O2       1.0000 0.19850  0.96210  0.49499  Biso   1.000  O
  O3       1.0000 0.71710  0.96490  0.50290  Biso   1.000  O
  O4       1.0000 0.83481  0.95899  0.44798  Biso   1.000  O
  O5       1.0000 0.09900  0.14900  0.35613  Biso   1.000  O
  O6       1.0000 0.92898  0.04962  0.32464  Biso   1.000  O
  O7       1.0000 0.00903  0.10657  0.56231  Biso   1.000  O
  O8       1.0000 0.96210  0.19850  0.50501  Biso   1.000  O
  O9       1.0000 0.96490  0.71710  0.49710  Biso   1.000  O
  O10      1.0000 0.95899  0.83481  0.55202  Biso   1.000  O
  O11      1.0000 0.14900  0.09900  0.64387  Biso   1.000  O
  O12      1.0000 0.04962  0.92898  0.67536  Biso   1.000  O
  O13      1.0000 0.00903  0.10657  0.93769  Biso   1.000  O
  O14      1.0000 0.96210  0.19850  0.99499  Biso   1.000  O
  O15      1.0000 0.96490  0.71710  0.00290  Biso   1.000  O
  O16      1.0000 0.95899  0.83481  0.94798  Biso   1.000  O
  O17      1.0000 0.14900  0.09900  0.85613  Biso   1.000  O
  O18      1.0000 0.04962  0.92898  0.82464  Biso   1.000  O
  O19      1.0000 0.10657  0.00903  0.06231  Biso   1.000  O
  O20      1.0000 0.19850  0.96210  0.00501  Biso   1.000  O
  O21      1.0000 0.71710  0.96490  0.99710  Biso   1.000  O
  O22      1.0000 0.83481  0.95899  0.05202  Biso   1.000  O
  O23      1.0000 0.09900  0.14900  0.14387  Biso   1.000  O
  O24      1.0000 0.92898  0.04962  0.17536  Biso   1.000  O
