data_image0
_cell_length_a       10.204
_cell_length_b       10.204
_cell_length_c       13.0998
_cell_angle_alpha    90
_cell_angle_beta     90
_cell_angle_gamma    90

_symmetry_space_group_name_H-M    P 1
_symmetry_int_tables_number       1

loop_
  _symmetry_equiv_pos_as_xyz
  'x, y, z'

loop_
  _atom_site_label
  _atom_site_occupancy
  _atom_site_fract_x
  _atom_site_fract_y
  _atom_site_fract_z
  _atom_site_thermal_displace_type
  _atom_site_B_iso_or_equiv
  _atom_site_type_symbol
  Zn1      1.0000 0.73031  0.73031  0.50000  Biso   1.000  Zn
  Zn2      1.0000 0.26969  0.26969  0.00000  Biso   1.000  Zn
  Zn3      1.0000 0.76969  0.23031  0.75000  Biso   1.000  Zn
  Zn4      1.0000 0.23031  0.76969  0.25000  Biso   1.000  Zn
  H1       1.0000 0.62150  0.45320  0.44760  Biso   1.000  H
  H2       1.0000 0.86910  0.51150  0.76650  Biso   1.000  H
  H3       1.0000 0.85790  0.63620  0.70810  Biso   1.000  H
  H4       1.0000 0.37850  0.54680  0.94760  Biso   1.000  H
  H5       1.0000 0.13090  0.48850  0.26650  Biso   1.000  H
  H6       1.0000 0.14210  0.36380  0.20810  Biso   1.000  H
  H7       1.0000 0.04680  0.12150  0.69760  Biso   1.000  H
  H8       1.0000 0.98850  0.36910  0.01650  Biso   1.000  H
  H9       1.0000 0.86380  0.35790  0.95810  Biso   1.000  H
  H10      1.0000 0.95320  0.87850  0.19760  Biso   1.000  H
  H11      1.0000 0.01150  0.63090  0.51650  Biso   1.000  H
  H12      1.0000 0.13620  0.64210  0.45810  Biso   1.000  H
  H13      1.0000 0.87850  0.95320  0.80240  Biso   1.000  H
  H14      1.0000 0.63090  0.01150  0.48350  Biso   1.000  H
  H15      1.0000 0.64210  0.13620  0.54190  Biso   1.000  H
  H16      1.0000 0.12150  0.04680  0.30240  Biso   1.000  H
  H17      1.0000 0.36910  0.98850  0.98350  Biso   1.000  H
  H18      1.0000 0.35790  0.86380  0.04190  Biso   1.000  H
  H19      1.0000 0.45320  0.62150  0.55240  Biso   1.000  H
  H20      1.0000 0.51150  0.86910  0.23350  Biso   1.000  H
  H21      1.0000 0.63620  0.85790  0.29190  Biso   1.000  H
  H22      1.0000 0.54680  0.37850  0.05240  Biso   1.000  H
  H23      1.0000 0.48850  0.13090  0.73350  Biso   1.000  H
  H24      1.0000 0.36380  0.14210  0.79190  Biso   1.000  H
  C1       1.0000 0.77130  0.49100  0.64020  Biso   1.000  C
  C2       1.0000 0.66490  0.44600  0.50980  Biso   1.000  C
  C3       1.0000 0.22870  0.50900  0.14020  Biso   1.000  C
  C4       1.0000 0.33510  0.55400  0.00980  Biso   1.000  C
  C5       1.0000 0.00900  0.27130  0.89020  Biso   1.000  C
  C6       1.0000 0.05400  0.16490  0.75980  Biso   1.000  C
  C7       1.0000 0.99100  0.72870  0.39020  Biso   1.000  C
  C8       1.0000 0.94600  0.83510  0.25980  Biso   1.000  C
  C9       1.0000 0.72870  0.99100  0.60980  Biso   1.000  C
  C10      1.0000 0.83510  0.94600  0.74020  Biso   1.000  C
  C11      1.0000 0.27130  0.00900  0.10980  Biso   1.000  C
  C12      1.0000 0.16490  0.05400  0.24020  Biso   1.000  C
  C13      1.0000 0.49100  0.77130  0.35980  Biso   1.000  C
  C14      1.0000 0.44600  0.66490  0.49020  Biso   1.000  C
  C15      1.0000 0.50900  0.22870  0.85980  Biso   1.000  C
  C16      1.0000 0.55400  0.33510  0.99020  Biso   1.000  C
  N1       1.0000 0.72590  0.54800  0.55770  Biso   1.000  N
  N2       1.0000 0.74740  0.36670  0.65040  Biso   1.000  N
  N3       1.0000 0.67430  0.33700  0.56090  Biso   1.000  N
  N4       1.0000 0.84140  0.55400  0.71410  Biso   1.000  N
  N5       1.0000 0.27410  0.45200  0.05770  Biso   1.000  N
  N6       1.0000 0.25260  0.63330  0.15040  Biso   1.000  N
  N7       1.0000 0.32570  0.66300  0.06090  Biso   1.000  N
  N8       1.0000 0.15860  0.44600  0.21410  Biso   1.000  N
  N9       1.0000 0.95200  0.22590  0.80770  Biso   1.000  N
  N10      1.0000 0.13330  0.24740  0.90040  Biso   1.000  N
  N11      1.0000 0.16300  0.17430  0.81090  Biso   1.000  N
  N12      1.0000 0.94600  0.34140  0.96410  Biso   1.000  N
  N13      1.0000 0.04800  0.77410  0.30770  Biso   1.000  N
  N14      1.0000 0.86670  0.75260  0.40040  Biso   1.000  N
  N15      1.0000 0.83700  0.82570  0.31090  Biso   1.000  N
  N16      1.0000 0.05400  0.65860  0.46410  Biso   1.000  N
  N17      1.0000 0.77410  0.04800  0.69230  Biso   1.000  N
  N18      1.0000 0.75260  0.86670  0.59960  Biso   1.000  N
  N19      1.0000 0.82570  0.83700  0.68910  Biso   1.000  N
  N20      1.0000 0.65860  0.05400  0.53590  Biso   1.000  N
  N21      1.0000 0.22590  0.95200  0.19230  Biso   1.000  N
  N22      1.0000 0.24740  0.13330  0.09960  Biso   1.000  N
  N23      1.0000 0.17430  0.16300  0.18910  Biso   1.000  N
  N24      1.0000 0.34140  0.94600  0.03590  Biso   1.000  N
  N25      1.0000 0.54800  0.72590  0.44230  Biso   1.000  N
  N26      1.0000 0.36670  0.74740  0.34960  Biso   1.000  N
  N27      1.0000 0.33700  0.67430  0.43910  Biso   1.000  N
  N28      1.0000 0.55400  0.84140  0.28590  Biso   1.000  N
  N29      1.0000 0.45200  0.27410  0.94230  Biso   1.000  N
  N30      1.0000 0.63330  0.25260  0.84960  Biso   1.000  N
  N31      1.0000 0.66300  0.32570  0.93910  Biso   1.000  N
  N32      1.0000 0.44600  0.15860  0.78590  Biso   1.000  N
