data_image0
_cell_length_a       14.5758
_cell_length_b       23.245
_cell_length_c       24.815
_cell_angle_alpha    90
_cell_angle_beta     102.904
_cell_angle_gamma    90

_symmetry_space_group_name_H-M    P 1
_symmetry_int_tables_number       1

loop_
  _symmetry_equiv_pos_as_xyz
  'x, y, z'

loop_
  _atom_site_label
  _atom_site_occupancy
  _atom_site_fract_x
  _atom_site_fract_y
  _atom_site_fract_z
  _atom_site_thermal_displace_type
  _atom_site_B_iso_or_equiv
  _atom_site_type_symbol
  Eu1      1.0000 0.75625  0.74288  0.77122  Biso   1.000  Eu
  Eu2      1.0000 0.26339  0.26554  0.07082  Biso   1.000  Eu
  Eu3      1.0000 0.76125  0.78210  0.10669  Biso   1.000  Eu
  Eu4      1.0000 0.24375  0.24288  0.72878  Biso   1.000  Eu
  Eu5      1.0000 0.73661  0.76554  0.42918  Biso   1.000  Eu
  Eu6      1.0000 0.23875  0.28210  0.39331  Biso   1.000  Eu
  Eu7      1.0000 0.24375  0.25712  0.22878  Biso   1.000  Eu
  Eu8      1.0000 0.73661  0.73446  0.92918  Biso   1.000  Eu
  Eu9      1.0000 0.23875  0.21790  0.89331  Biso   1.000  Eu
  Eu10     1.0000 0.75625  0.75712  0.27122  Biso   1.000  Eu
  Eu11     1.0000 0.26339  0.23446  0.57082  Biso   1.000  Eu
  Eu12     1.0000 0.76125  0.71790  0.60669  Biso   1.000  Eu
  H1       1.0000 0.14470  0.53590  0.93390  Biso   1.000  H
  H2       1.0000 0.15060  0.44090  0.95630  Biso   1.000  H
  H3       1.0000 0.37090  0.46880  0.08270  Biso   1.000  H
  H4       1.0000 0.36710  0.56500  0.06170  Biso   1.000  H
  H5       1.0000 0.41060  0.59930  0.94910  Biso   1.000  H
  H6       1.0000 0.54870  0.64860  0.96670  Biso   1.000  H
  H7       1.0000 0.43820  0.76940  0.04600  Biso   1.000  H
  H8       1.0000 0.29770  0.71840  0.03130  Biso   1.000  H
  H9       1.0000 0.23240  0.70450  0.91050  Biso   1.000  H
  H10      1.0000 0.09890  0.75060  0.86320  Biso   1.000  H
  H11      1.0000 0.94350  0.65430  0.94120  Biso   1.000  H
  H12      1.0000 0.07870  0.60930  0.99250  Biso   1.000  H
  H13      1.0000 0.11340  0.57100  0.84250  Biso   1.000  H
  H14      1.0000 0.97050  0.61200  0.80470  Biso   1.000  H
  H15      1.0000 0.08170  0.68120  0.68470  Biso   1.000  H
  H16      1.0000 0.22620  0.63780  0.72390  Biso   1.000  H
  H17      1.0000 0.36600  0.50760  0.88990  Biso   1.000  H
  H18      1.0000 0.36930  0.40790  0.89880  Biso   1.000  H
  H19      1.0000 0.15310  0.39660  0.76650  Biso   1.000  H
  H20      1.0000 0.15800  0.49530  0.75690  Biso   1.000  H
  H21      1.0000 0.42110  0.52700  0.78560  Biso   1.000  H
  H22      1.0000 0.56170  0.57090  0.78550  Biso   1.000  H
  H23      1.0000 0.46670  0.71570  0.83980  Biso   1.000  H
  H24      1.0000 0.32500  0.67590  0.83600  Biso   1.000  H
  H25      1.0000 0.67810  0.04000  0.80950  Biso   1.000  H
  H26      1.0000 0.67980  0.94440  0.78740  Biso   1.000  H
  H27      1.0000 0.80710  0.90870  0.94360  Biso   1.000  H
  H28      1.0000 0.80490  0.00510  0.96710  Biso   1.000  H
  H29      1.0000 0.72240  0.19370  0.85170  Biso   1.000  H
  H30      1.0000 0.58210  0.24150  0.81700  Biso   1.000  H
  H31      1.0000 0.43950  0.11870  0.87510  Biso   1.000  H
  H32      1.0000 0.57810  0.06990  0.91000  Biso   1.000  H
  H33      1.0000 0.91220  0.06460  0.88900  Biso   1.000  H
  H34      1.0000 0.05670  0.10770  0.92390  Biso   1.000  H
  H35      1.0000 0.93260  0.22690  0.99650  Biso   1.000  H
  H36      1.0000 0.79150  0.18460  0.96400  Biso   1.000  H
  H37      1.0000 0.85530  0.03590  0.56610  Biso   1.000  H
  H38      1.0000 0.84940  0.94090  0.54370  Biso   1.000  H
  H39      1.0000 0.62910  0.96880  0.41730  Biso   1.000  H
  H40      1.0000 0.63290  0.06500  0.43830  Biso   1.000  H
  H41      1.0000 0.58940  0.09930  0.55090  Biso   1.000  H
  H42      1.0000 0.45130  0.14860  0.53330  Biso   1.000  H
  H43      1.0000 0.56180  0.26940  0.45400  Biso   1.000  H
  H44      1.0000 0.70230  0.21840  0.46870  Biso   1.000  H
  H45      1.0000 0.76760  0.20450  0.58950  Biso   1.000  H
  H46      1.0000 0.90110  0.25060  0.63680  Biso   1.000  H
  H47      1.0000 0.05650  0.15430  0.55880  Biso   1.000  H
  H48      1.0000 0.92130  0.10930  0.50750  Biso   1.000  H
  H49      1.0000 0.88660  0.07100  0.65750  Biso   1.000  H
  H50      1.0000 0.02950  0.11200  0.69530  Biso   1.000  H
  H51      1.0000 0.91830  0.18120  0.81530  Biso   1.000  H
  H52      1.0000 0.77380  0.13780  0.77610  Biso   1.000  H
  H53      1.0000 0.63400  0.00760  0.61010  Biso   1.000  H
  H54      1.0000 0.63070  0.90790  0.60120  Biso   1.000  H
  H55      1.0000 0.84690  0.89660  0.73350  Biso   1.000  H
  H56      1.0000 0.84200  0.99530  0.74310  Biso   1.000  H
  H57      1.0000 0.57890  0.02700  0.71440  Biso   1.000  H
  H58      1.0000 0.43830  0.07090  0.71450  Biso   1.000  H
  H59      1.0000 0.53330  0.21570  0.66020  Biso   1.000  H
  H60      1.0000 0.67500  0.17590  0.66400  Biso   1.000  H
  H61      1.0000 0.32190  0.54000  0.69050  Biso   1.000  H
  H62      1.0000 0.32020  0.44440  0.71260  Biso   1.000  H
  H63      1.0000 0.19290  0.40870  0.55640  Biso   1.000  H
  H64      1.0000 0.19510  0.50510  0.53290  Biso   1.000  H
  H65      1.0000 0.27760  0.69370  0.64830  Biso   1.000  H
  H66      1.0000 0.41790  0.74150  0.68300  Biso   1.000  H
  H67      1.0000 0.56050  0.61870  0.62490  Biso   1.000  H
  H68      1.0000 0.42190  0.56990  0.59000  Biso   1.000  H
  H69      1.0000 0.08780  0.56460  0.61100  Biso   1.000  H
  H70      1.0000 0.94330  0.60770  0.57610  Biso   1.000  H
  H71      1.0000 0.06740  0.72690  0.50350  Biso   1.000  H
  H72      1.0000 0.20850  0.68460  0.53600  Biso   1.000  H
  H73      1.0000 0.85530  0.46410  0.06610  Biso   1.000  H
  H74      1.0000 0.84940  0.55910  0.04370  Biso   1.000  H
  H75      1.0000 0.62910  0.53120  0.91730  Biso   1.000  H
  H76      1.0000 0.63290  0.43500  0.93830  Biso   1.000  H
  H77      1.0000 0.58940  0.40070  0.05090  Biso   1.000  H
  H78      1.0000 0.45130  0.35140  0.03330  Biso   1.000  H
  H79      1.0000 0.56180  0.23060  0.95400  Biso   1.000  H
  H80      1.0000 0.70230  0.28160  0.96870  Biso   1.000  H
  H81      1.0000 0.76760  0.29550  0.08950  Biso   1.000  H
  H82      1.0000 0.90110  0.24940  0.13680  Biso   1.000  H
  H83      1.0000 0.05650  0.34570  0.05880  Biso   1.000  H
  H84      1.0000 0.92130  0.39070  0.00750  Biso   1.000  H
  H85      1.0000 0.88660  0.42900  0.15750  Biso   1.000  H
  H86      1.0000 0.02950  0.38800  0.19530  Biso   1.000  H
  H87      1.0000 0.91830  0.31880  0.31530  Biso   1.000  H
  H88      1.0000 0.77380  0.36220  0.27610  Biso   1.000  H
  H89      1.0000 0.63400  0.49240  0.11010  Biso   1.000  H
  H90      1.0000 0.63070  0.59210  0.10120  Biso   1.000  H
  H91      1.0000 0.84690  0.60340  0.23350  Biso   1.000  H
  H92      1.0000 0.84200  0.50470  0.24310  Biso   1.000  H
  H93      1.0000 0.57890  0.47300  0.21440  Biso   1.000  H
  H94      1.0000 0.43830  0.42910  0.21450  Biso   1.000  H
  H95      1.0000 0.53330  0.28430  0.16020  Biso   1.000  H
  H96      1.0000 0.67500  0.32410  0.16400  Biso   1.000  H
  H97      1.0000 0.32190  0.96000  0.19050  Biso   1.000  H
  H98      1.0000 0.32020  0.05560  0.21260  Biso   1.000  H
  H99      1.0000 0.19290  0.09130  0.05640  Biso   1.000  H
  H100     1.0000 0.19510  0.99490  0.03290  Biso   1.000  H
  H101     1.0000 0.27760  0.80630  0.14830  Biso   1.000  H
  H102     1.0000 0.41790  0.75850  0.18300  Biso   1.000  H
  H103     1.0000 0.56050  0.88130  0.12490  Biso   1.000  H
  H104     1.0000 0.42190  0.93010  0.09000  Biso   1.000  H
  H105     1.0000 0.08780  0.93540  0.11100  Biso   1.000  H
  H106     1.0000 0.94330  0.89230  0.07610  Biso   1.000  H
  H107     1.0000 0.06740  0.77310  0.00350  Biso   1.000  H
  H108     1.0000 0.20850  0.81540  0.03600  Biso   1.000  H
  H109     1.0000 0.14470  0.96410  0.43390  Biso   1.000  H
  H110     1.0000 0.15060  0.05910  0.45630  Biso   1.000  H
  H111     1.0000 0.37090  0.03120  0.58270  Biso   1.000  H
  H112     1.0000 0.36710  0.93500  0.56170  Biso   1.000  H
  H113     1.0000 0.41060  0.90070  0.44910  Biso   1.000  H
  H114     1.0000 0.54870  0.85140  0.46670  Biso   1.000  H
  H115     1.0000 0.43820  0.73060  0.54600  Biso   1.000  H
  H116     1.0000 0.29770  0.78160  0.53130  Biso   1.000  H
  H117     1.0000 0.23240  0.79550  0.41050  Biso   1.000  H
  H118     1.0000 0.09890  0.74940  0.36320  Biso   1.000  H
  H119     1.0000 0.94350  0.84570  0.44120  Biso   1.000  H
  H120     1.0000 0.07870  0.89070  0.49250  Biso   1.000  H
  H121     1.0000 0.11340  0.92900  0.34250  Biso   1.000  H
  H122     1.0000 0.97050  0.88800  0.30470  Biso   1.000  H
  H123     1.0000 0.08170  0.81880  0.18470  Biso   1.000  H
  H124     1.0000 0.22620  0.86220  0.22390  Biso   1.000  H
  H125     1.0000 0.36600  0.99240  0.38990  Biso   1.000  H
  H126     1.0000 0.36930  0.09210  0.39880  Biso   1.000  H
  H127     1.0000 0.15310  0.10340  0.26650  Biso   1.000  H
  H128     1.0000 0.15800  0.00470  0.25690  Biso   1.000  H
  H129     1.0000 0.42110  0.97300  0.28560  Biso   1.000  H
  H130     1.0000 0.56170  0.92910  0.28550  Biso   1.000  H
  H131     1.0000 0.46670  0.78430  0.33980  Biso   1.000  H
  H132     1.0000 0.32500  0.82410  0.33600  Biso   1.000  H
  H133     1.0000 0.67810  0.46000  0.30950  Biso   1.000  H
  H134     1.0000 0.67980  0.55560  0.28740  Biso   1.000  H
  H135     1.0000 0.80710  0.59130  0.44360  Biso   1.000  H
  H136     1.0000 0.80490  0.49490  0.46710  Biso   1.000  H
  H137     1.0000 0.72240  0.30630  0.35170  Biso   1.000  H
  H138     1.0000 0.58210  0.25850  0.31700  Biso   1.000  H
  H139     1.0000 0.43950  0.38130  0.37510  Biso   1.000  H
  H140     1.0000 0.57810  0.43010  0.41000  Biso   1.000  H
  H141     1.0000 0.91220  0.43540  0.38900  Biso   1.000  H
  H142     1.0000 0.05670  0.39230  0.42390  Biso   1.000  H
  H143     1.0000 0.93260  0.27310  0.49650  Biso   1.000  H
  H144     1.0000 0.79150  0.31540  0.46400  Biso   1.000  H
  C1       1.0000 0.25610  0.56190  0.99540  Biso   1.000  C
  C2       1.0000 0.19000  0.52270  0.96390  Biso   1.000  C
  C3       1.0000 0.19330  0.46600  0.97780  Biso   1.000  C
  C4       1.0000 0.25860  0.44390  0.02340  Biso   1.000  C
  C5       1.0000 0.32480  0.48250  0.05330  Biso   1.000  C
  C6       1.0000 0.32330  0.54030  0.04040  Biso   1.000  C
  C7       1.0000 0.25610  0.38400  0.03980  Biso   1.000  C
  C8       1.0000 0.41680  0.63290  0.97000  Biso   1.000  C
  C9       1.0000 0.49810  0.66260  0.97990  Biso   1.000  C
  C10      1.0000 0.50790  0.71260  0.00870  Biso   1.000  C
  C11      1.0000 0.43250  0.73430  0.02750  Biso   1.000  C
  C12      1.0000 0.34900  0.70440  0.01880  Biso   1.000  C
  C13      1.0000 0.34430  0.65220  0.99060  Biso   1.000  C
  C14      1.0000 0.59850  0.74730  0.02310  Biso   1.000  C
  C15      1.0000 0.16960  0.64950  0.95350  Biso   1.000  C
  C16      1.0000 0.17410  0.69330  0.91630  Biso   1.000  C
  C17      1.0000 0.09350  0.72090  0.88740  Biso   1.000  C
  C18      1.0000 0.00570  0.70510  0.89390  Biso   1.000  C
  C19      1.0000 0.00180  0.66380  0.93430  Biso   1.000  C
  C20      1.0000 0.08300  0.63590  0.96520  Biso   1.000  C
  C21      1.0000 0.91640  0.72800  0.86110  Biso   1.000  C
  C22      1.0000 0.18450  0.59980  0.78590  Biso   1.000  C
  C23      1.0000 0.10650  0.59280  0.81040  Biso   1.000  C
  C24      1.0000 0.02120  0.61720  0.78820  Biso   1.000  C
  C25      1.0000 0.01160  0.64990  0.74040  Biso   1.000  C
  C26      1.0000 0.08800  0.65850  0.71620  Biso   1.000  C
  C27      1.0000 0.17500  0.63250  0.74000  Biso   1.000  C
  C28      1.0000 0.91630  0.67550  0.71440  Biso   1.000  C
  C29      1.0000 0.26540  0.51090  0.82040  Biso   1.000  C
  C30      1.0000 0.32530  0.48510  0.86410  Biso   1.000  C
  C31      1.0000 0.32610  0.42520  0.87010  Biso   1.000  C
  C32      1.0000 0.26270  0.39170  0.83340  Biso   1.000  C
  C33      1.0000 0.19770  0.41830  0.79080  Biso   1.000  C
  C34      1.0000 0.20110  0.47760  0.78540  Biso   1.000  C
  C35      1.0000 0.26480  0.32820  0.84090  Biso   1.000  C
  C36      1.0000 0.35790  0.59790  0.81120  Biso   1.000  C
  C37      1.0000 0.43050  0.56540  0.79570  Biso   1.000  C
  C38      1.0000 0.51400  0.59150  0.79610  Biso   1.000  C
  C39      1.0000 0.52890  0.64830  0.81210  Biso   1.000  C
  C40      1.0000 0.45640  0.67780  0.82780  Biso   1.000  C
  C41      1.0000 0.37280  0.65430  0.82650  Biso   1.000  C
  C42      1.0000 0.62150  0.67600  0.81160  Biso   1.000  C
  C43      1.0000 0.74350  0.03400  0.89060  Biso   1.000  C
  C44      1.0000 0.70480  0.01370  0.83680  Biso   1.000  C
  C45      1.0000 0.70520  0.95640  0.82340  Biso   1.000  C
  C46      1.0000 0.74330  0.91670  0.86340  Biso   1.000  C
  C47      1.0000 0.78090  0.93550  0.91660  Biso   1.000  C
  C48      1.0000 0.78050  0.99360  0.93080  Biso   1.000  C
  C49      1.0000 0.74590  0.85420  0.84950  Biso   1.000  C
  C50      1.0000 0.66580  0.12670  0.88270  Biso   1.000  C
  C51      1.0000 0.66590  0.17790  0.85610  Biso   1.000  C
  C52      1.0000 0.58130  0.20670  0.83540  Biso   1.000  C
  C53      1.0000 0.49630  0.18440  0.84190  Biso   1.000  C
  C54      1.0000 0.49610  0.13360  0.86990  Biso   1.000  C
  C55      1.0000 0.57900  0.10420  0.89080  Biso   1.000  C
  C56      1.0000 0.40730  0.21620  0.81650  Biso   1.000  C
  C57      1.0000 0.83560  0.12040  0.92340  Biso   1.000  C
  C58      1.0000 0.91590  0.09740  0.91080  Biso   1.000  C
  C59      1.0000 0.00290  0.12420  0.93150  Biso   1.000  C
  C60      1.0000 0.01220  0.17280  0.96180  Biso   1.000  C
  C61      1.0000 0.92940  0.19430  0.97440  Biso   1.000  C
  C62      1.0000 0.84480  0.16870  0.95520  Biso   1.000  C
  C63      1.0000 0.10790  0.19740  0.98330  Biso   1.000  C
  C64      1.0000 0.74390  0.06190  0.50460  Biso   1.000  C
  C65      1.0000 0.81000  0.02270  0.53610  Biso   1.000  C
  C66      1.0000 0.80670  0.96600  0.52220  Biso   1.000  C
  C67      1.0000 0.74140  0.94390  0.47660  Biso   1.000  C
  C68      1.0000 0.67520  0.98250  0.44670  Biso   1.000  C
  C69      1.0000 0.67670  0.04030  0.45960  Biso   1.000  C
  C70      1.0000 0.74390  0.88400  0.46020  Biso   1.000  C
  C71      1.0000 0.58320  0.13290  0.53000  Biso   1.000  C
  C72      1.0000 0.50190  0.16260  0.52010  Biso   1.000  C
  C73      1.0000 0.49210  0.21260  0.49130  Biso   1.000  C
  C74      1.0000 0.56750  0.23430  0.47250  Biso   1.000  C
  C75      1.0000 0.65100  0.20440  0.48120  Biso   1.000  C
  C76      1.0000 0.65570  0.15220  0.50940  Biso   1.000  C
  C77      1.0000 0.40150  0.24730  0.47690  Biso   1.000  C
  C78      1.0000 0.83040  0.14950  0.54650  Biso   1.000  C
  C79      1.0000 0.82590  0.19330  0.58370  Biso   1.000  C
  C80      1.0000 0.90650  0.22090  0.61260  Biso   1.000  C
  C81      1.0000 0.99430  0.20510  0.60610  Biso   1.000  C
  C82      1.0000 0.99820  0.16380  0.56570  Biso   1.000  C
  C83      1.0000 0.91700  0.13590  0.53480  Biso   1.000  C
  C84      1.0000 0.08360  0.22800  0.63890  Biso   1.000  C
  C85      1.0000 0.81550  0.09980  0.71410  Biso   1.000  C
  C86      1.0000 0.89350  0.09280  0.68960  Biso   1.000  C
  C87      1.0000 0.97880  0.11720  0.71180  Biso   1.000  C
  C88      1.0000 0.98840  0.14990  0.75960  Biso   1.000  C
  C89      1.0000 0.91200  0.15850  0.78380  Biso   1.000  C
  C90      1.0000 0.82500  0.13250  0.76000  Biso   1.000  C
  C91      1.0000 0.08370  0.17550  0.78560  Biso   1.000  C
  C92      1.0000 0.73460  0.01090  0.67960  Biso   1.000  C
  C93      1.0000 0.67470  0.98510  0.63590  Biso   1.000  C
  C94      1.0000 0.67390  0.92520  0.62990  Biso   1.000  C
  C95      1.0000 0.73730  0.89170  0.66660  Biso   1.000  C
  C96      1.0000 0.80230  0.91830  0.70920  Biso   1.000  C
  C97      1.0000 0.79890  0.97760  0.71460  Biso   1.000  C
  C98      1.0000 0.73520  0.82820  0.65910  Biso   1.000  C
  C99      1.0000 0.64210  0.09790  0.68880  Biso   1.000  C
  C100     1.0000 0.56950  0.06540  0.70430  Biso   1.000  C
  C101     1.0000 0.48600  0.09150  0.70390  Biso   1.000  C
  C102     1.0000 0.47110  0.14830  0.68790  Biso   1.000  C
  C103     1.0000 0.54360  0.17780  0.67220  Biso   1.000  C
  C104     1.0000 0.62720  0.15430  0.67350  Biso   1.000  C
  C105     1.0000 0.37850  0.17600  0.68840  Biso   1.000  C
  C106     1.0000 0.25650  0.53400  0.60940  Biso   1.000  C
  C107     1.0000 0.29520  0.51370  0.66320  Biso   1.000  C
  C108     1.0000 0.29480  0.45640  0.67660  Biso   1.000  C
  C109     1.0000 0.25670  0.41670  0.63660  Biso   1.000  C
  C110     1.0000 0.21910  0.43550  0.58340  Biso   1.000  C
  C111     1.0000 0.21950  0.49360  0.56920  Biso   1.000  C
  C112     1.0000 0.25410  0.35420  0.65050  Biso   1.000  C
  C113     1.0000 0.33420  0.62670  0.61730  Biso   1.000  C
  C114     1.0000 0.33410  0.67790  0.64390  Biso   1.000  C
  C115     1.0000 0.41870  0.70670  0.66460  Biso   1.000  C
  C116     1.0000 0.50370  0.68440  0.65810  Biso   1.000  C
  C117     1.0000 0.50390  0.63360  0.63010  Biso   1.000  C
  C118     1.0000 0.42100  0.60420  0.60920  Biso   1.000  C
  C119     1.0000 0.59270  0.71620  0.68350  Biso   1.000  C
  C120     1.0000 0.16440  0.62040  0.57660  Biso   1.000  C
  C121     1.0000 0.08410  0.59740  0.58920  Biso   1.000  C
  C122     1.0000 0.99710  0.62420  0.56850  Biso   1.000  C
  C123     1.0000 0.98780  0.67280  0.53820  Biso   1.000  C
  C124     1.0000 0.07060  0.69430  0.52560  Biso   1.000  C
  C125     1.0000 0.15520  0.66870  0.54480  Biso   1.000  C
  C126     1.0000 0.89210  0.69740  0.51670  Biso   1.000  C
  C127     1.0000 0.74390  0.43810  0.00460  Biso   1.000  C
  C128     1.0000 0.81000  0.47730  0.03610  Biso   1.000  C
  C129     1.0000 0.80670  0.53400  0.02220  Biso   1.000  C
  C130     1.0000 0.74140  0.55610  0.97660  Biso   1.000  C
  C131     1.0000 0.67520  0.51750  0.94670  Biso   1.000  C
  C132     1.0000 0.67670  0.45970  0.95960  Biso   1.000  C
  C133     1.0000 0.74390  0.61600  0.96020  Biso   1.000  C
  C134     1.0000 0.58320  0.36710  0.03000  Biso   1.000  C
  C135     1.0000 0.50190  0.33740  0.02010  Biso   1.000  C
  C136     1.0000 0.49210  0.28740  0.99130  Biso   1.000  C
  C137     1.0000 0.56750  0.26570  0.97250  Biso   1.000  C
  C138     1.0000 0.65100  0.29560  0.98120  Biso   1.000  C
  C139     1.0000 0.65570  0.34780  0.00940  Biso   1.000  C
  C140     1.0000 0.40150  0.25270  0.97690  Biso   1.000  C
  C141     1.0000 0.83040  0.35050  0.04650  Biso   1.000  C
  C142     1.0000 0.82590  0.30670  0.08370  Biso   1.000  C
  C143     1.0000 0.90650  0.27910  0.11260  Biso   1.000  C
  C144     1.0000 0.99430  0.29490  0.10610  Biso   1.000  C
  C145     1.0000 0.99820  0.33620  0.06570  Biso   1.000  C
  C146     1.0000 0.91700  0.36410  0.03480  Biso   1.000  C
  C147     1.0000 0.08360  0.27200  0.13890  Biso   1.000  C
  C148     1.0000 0.81550  0.40020  0.21410  Biso   1.000  C
  C149     1.0000 0.89350  0.40720  0.18960  Biso   1.000  C
  C150     1.0000 0.97880  0.38280  0.21180  Biso   1.000  C
  C151     1.0000 0.98840  0.35010  0.25960  Biso   1.000  C
  C152     1.0000 0.91200  0.34150  0.28380  Biso   1.000  C
  C153     1.0000 0.82500  0.36750  0.26000  Biso   1.000  C
  C154     1.0000 0.08370  0.32450  0.28560  Biso   1.000  C
  C155     1.0000 0.73460  0.48910  0.17960  Biso   1.000  C
  C156     1.0000 0.67470  0.51490  0.13590  Biso   1.000  C
  C157     1.0000 0.67390  0.57480  0.12990  Biso   1.000  C
  C158     1.0000 0.73730  0.60830  0.16660  Biso   1.000  C
  C159     1.0000 0.80230  0.58170  0.20920  Biso   1.000  C
  C160     1.0000 0.79890  0.52240  0.21460  Biso   1.000  C
  C161     1.0000 0.73520  0.67180  0.15910  Biso   1.000  C
  C162     1.0000 0.64210  0.40210  0.18880  Biso   1.000  C
  C163     1.0000 0.56950  0.43460  0.20430  Biso   1.000  C
  C164     1.0000 0.48600  0.40850  0.20390  Biso   1.000  C
  C165     1.0000 0.47110  0.35170  0.18790  Biso   1.000  C
  C166     1.0000 0.54360  0.32220  0.17220  Biso   1.000  C
  C167     1.0000 0.62720  0.34570  0.17350  Biso   1.000  C
  C168     1.0000 0.37850  0.32400  0.18840  Biso   1.000  C
  C169     1.0000 0.25650  0.96600  0.10940  Biso   1.000  C
  C170     1.0000 0.29520  0.98630  0.16320  Biso   1.000  C
  C171     1.0000 0.29480  0.04360  0.17660  Biso   1.000  C
  C172     1.0000 0.25670  0.08330  0.13660  Biso   1.000  C
  C173     1.0000 0.21910  0.06450  0.08340  Biso   1.000  C
  C174     1.0000 0.21950  0.00640  0.06920  Biso   1.000  C
  C175     1.0000 0.25410  0.14580  0.15050  Biso   1.000  C
  C176     1.0000 0.33420  0.87330  0.11730  Biso   1.000  C
  C177     1.0000 0.33410  0.82210  0.14390  Biso   1.000  C
  C178     1.0000 0.41870  0.79330  0.16460  Biso   1.000  C
  C179     1.0000 0.50370  0.81560  0.15810  Biso   1.000  C
  C180     1.0000 0.50390  0.86640  0.13010  Biso   1.000  C
  C181     1.0000 0.42100  0.89580  0.10920  Biso   1.000  C
  C182     1.0000 0.59270  0.78380  0.18350  Biso   1.000  C
  C183     1.0000 0.16440  0.87960  0.07660  Biso   1.000  C
  C184     1.0000 0.08410  0.90260  0.08920  Biso   1.000  C
  C185     1.0000 0.99710  0.87580  0.06850  Biso   1.000  C
  C186     1.0000 0.98780  0.82720  0.03820  Biso   1.000  C
  C187     1.0000 0.07060  0.80570  0.02560  Biso   1.000  C
  C188     1.0000 0.15520  0.83130  0.04480  Biso   1.000  C
  C189     1.0000 0.89210  0.80260  0.01670  Biso   1.000  C
  C190     1.0000 0.25610  0.93810  0.49540  Biso   1.000  C
  C191     1.0000 0.19000  0.97730  0.46390  Biso   1.000  C
  C192     1.0000 0.19330  0.03400  0.47780  Biso   1.000  C
  C193     1.0000 0.25860  0.05610  0.52340  Biso   1.000  C
  C194     1.0000 0.32480  0.01750  0.55330  Biso   1.000  C
  C195     1.0000 0.32330  0.95970  0.54040  Biso   1.000  C
  C196     1.0000 0.25610  0.11600  0.53980  Biso   1.000  C
  C197     1.0000 0.41680  0.86710  0.47000  Biso   1.000  C
  C198     1.0000 0.49810  0.83740  0.47990  Biso   1.000  C
  C199     1.0000 0.50790  0.78740  0.50870  Biso   1.000  C
  C200     1.0000 0.43250  0.76570  0.52750  Biso   1.000  C
  C201     1.0000 0.34900  0.79560  0.51880  Biso   1.000  C
  C202     1.0000 0.34430  0.84780  0.49060  Biso   1.000  C
  C203     1.0000 0.59850  0.75270  0.52310  Biso   1.000  C
  C204     1.0000 0.16960  0.85050  0.45350  Biso   1.000  C
  C205     1.0000 0.17410  0.80670  0.41630  Biso   1.000  C
  C206     1.0000 0.09350  0.77910  0.38740  Biso   1.000  C
  C207     1.0000 0.00570  0.79490  0.39390  Biso   1.000  C
  C208     1.0000 0.00180  0.83620  0.43430  Biso   1.000  C
  C209     1.0000 0.08300  0.86410  0.46520  Biso   1.000  C
  C210     1.0000 0.91640  0.77200  0.36110  Biso   1.000  C
  C211     1.0000 0.18450  0.90020  0.28590  Biso   1.000  C
  C212     1.0000 0.10650  0.90720  0.31040  Biso   1.000  C
  C213     1.0000 0.02120  0.88280  0.28820  Biso   1.000  C
  C214     1.0000 0.01160  0.85010  0.24040  Biso   1.000  C
  C215     1.0000 0.08800  0.84150  0.21620  Biso   1.000  C
  C216     1.0000 0.17500  0.86750  0.24000  Biso   1.000  C
  C217     1.0000 0.91630  0.82450  0.21440  Biso   1.000  C
  C218     1.0000 0.26540  0.98910  0.32040  Biso   1.000  C
  C219     1.0000 0.32530  0.01490  0.36410  Biso   1.000  C
  C220     1.0000 0.32610  0.07480  0.37010  Biso   1.000  C
  C221     1.0000 0.26270  0.10830  0.33340  Biso   1.000  C
  C222     1.0000 0.19770  0.08170  0.29080  Biso   1.000  C
  C223     1.0000 0.20110  0.02240  0.28540  Biso   1.000  C
  C224     1.0000 0.26480  0.17180  0.34090  Biso   1.000  C
  C225     1.0000 0.35790  0.90210  0.31120  Biso   1.000  C
  C226     1.0000 0.43050  0.93460  0.29570  Biso   1.000  C
  C227     1.0000 0.51400  0.90850  0.29610  Biso   1.000  C
  C228     1.0000 0.52890  0.85170  0.31210  Biso   1.000  C
  C229     1.0000 0.45640  0.82220  0.32780  Biso   1.000  C
  C230     1.0000 0.37280  0.84570  0.32650  Biso   1.000  C
  C231     1.0000 0.62150  0.82400  0.31160  Biso   1.000  C
  C232     1.0000 0.74350  0.46600  0.39060  Biso   1.000  C
  C233     1.0000 0.70480  0.48630  0.33680  Biso   1.000  C
  C234     1.0000 0.70520  0.54360  0.32340  Biso   1.000  C
  C235     1.0000 0.74330  0.58330  0.36340  Biso   1.000  C
  C236     1.0000 0.78090  0.56450  0.41660  Biso   1.000  C
  C237     1.0000 0.78050  0.50640  0.43080  Biso   1.000  C
  C238     1.0000 0.74590  0.64580  0.34950  Biso   1.000  C
  C239     1.0000 0.66580  0.37330  0.38270  Biso   1.000  C
  C240     1.0000 0.66590  0.32210  0.35610  Biso   1.000  C
  C241     1.0000 0.58130  0.29330  0.33540  Biso   1.000  C
  C242     1.0000 0.49630  0.31560  0.34190  Biso   1.000  C
  C243     1.0000 0.49610  0.36640  0.36990  Biso   1.000  C
  C244     1.0000 0.57900  0.39580  0.39080  Biso   1.000  C
  C245     1.0000 0.40730  0.28380  0.31650  Biso   1.000  C
  C246     1.0000 0.83560  0.37960  0.42340  Biso   1.000  C
  C247     1.0000 0.91590  0.40260  0.41080  Biso   1.000  C
  C248     1.0000 0.00290  0.37580  0.43150  Biso   1.000  C
  C249     1.0000 0.01220  0.32720  0.46180  Biso   1.000  C
  C250     1.0000 0.92940  0.30570  0.47440  Biso   1.000  C
  C251     1.0000 0.84480  0.33130  0.45520  Biso   1.000  C
  C252     1.0000 0.10790  0.30260  0.48330  Biso   1.000  C
  N1       1.0000 0.25450  0.62030  0.98090  Biso   1.000  N
  N2       1.0000 0.74710  0.09430  0.90270  Biso   1.000  N
  N3       1.0000 0.26990  0.57050  0.81110  Biso   1.000  N
  N4       1.0000 0.74550  0.12030  0.51910  Biso   1.000  N
  N5       1.0000 0.25290  0.59430  0.59730  Biso   1.000  N
  N6       1.0000 0.73010  0.07050  0.68890  Biso   1.000  N
  N7       1.0000 0.74550  0.37970  0.01910  Biso   1.000  N
  N8       1.0000 0.25290  0.90570  0.09730  Biso   1.000  N
  N9       1.0000 0.73010  0.42950  0.18890  Biso   1.000  N
  N10      1.0000 0.25450  0.87970  0.48090  Biso   1.000  N
  N11      1.0000 0.74710  0.40570  0.40270  Biso   1.000  N
  N12      1.0000 0.26990  0.92950  0.31110  Biso   1.000  N
  O1       1.0000 0.19120  0.35100  0.01470  Biso   1.000  O
  O2       1.0000 0.31770  0.36410  0.07990  Biso   1.000  O
  O3       1.0000 0.66990  0.72660  0.00800  Biso   1.000  O
  O4       1.0000 0.60420  0.79150  0.05120  Biso   1.000  O
  O5       1.0000 0.83840  0.70780  0.86610  Biso   1.000  O
  O6       1.0000 0.92000  0.76400  0.82370  Biso   1.000  O
  O7       1.0000 0.85680  0.67610  0.74350  Biso   1.000  O
  O8       1.0000 0.90510  0.69460  0.66530  Biso   1.000  O
  O9       1.0000 0.21030  0.29690  0.80410  Biso   1.000  O
  O10      1.0000 0.31850  0.30620  0.88100  Biso   1.000  O
  O11      1.0000 0.64320  0.72490  0.83490  Biso   1.000  O
  O12      1.0000 0.67500  0.65290  0.78330  Biso   1.000  O
  O13      1.0000 0.76680  0.82090  0.89050  Biso   1.000  O
  O14      1.0000 0.72880  0.83810  0.80090  Biso   1.000  O
  O15      1.0000 0.40610  0.25550  0.78240  Biso   1.000  O
  O16      1.0000 0.32980  0.19550  0.82550  Biso   1.000  O
  O17      1.0000 0.17540  0.18210  0.96490  Biso   1.000  O
  O18      1.0000 0.11210  0.23550  0.02070  Biso   1.000  O
  O19      1.0000 0.74400  0.88700  0.10980  Biso   1.000  O
  O20      1.0000 0.86430  0.70400  0.08830  Biso   1.000  O
  O21      1.0000 0.40430  0.20050  0.07870  Biso   1.000  O
  O22      1.0000 0.80880  0.85100  0.48530  Biso   1.000  O
  O23      1.0000 0.68230  0.86410  0.42010  Biso   1.000  O
  O24      1.0000 0.33010  0.22660  0.49200  Biso   1.000  O
  O25      1.0000 0.39580  0.29150  0.44880  Biso   1.000  O
  O26      1.0000 0.16160  0.20780  0.63390  Biso   1.000  O
  O27      1.0000 0.08000  0.26400  0.67630  Biso   1.000  O
  O28      1.0000 0.14320  0.17610  0.75650  Biso   1.000  O
  O29      1.0000 0.09490  0.19460  0.83470  Biso   1.000  O
  O30      1.0000 0.78970  0.79690  0.69590  Biso   1.000  O
  O31      1.0000 0.68150  0.80620  0.61900  Biso   1.000  O
  O32      1.0000 0.35680  0.22490  0.66510  Biso   1.000  O
  O33      1.0000 0.32500  0.15290  0.71670  Biso   1.000  O
  O34      1.0000 0.23320  0.32090  0.60950  Biso   1.000  O
  O35      1.0000 0.27120  0.33810  0.69910  Biso   1.000  O
  O36      1.0000 0.59390  0.75550  0.71760  Biso   1.000  O
  O37      1.0000 0.67020  0.69550  0.67450  Biso   1.000  O
  O38      1.0000 0.82460  0.68210  0.53510  Biso   1.000  O
  O39      1.0000 0.88790  0.73550  0.47930  Biso   1.000  O
  O40      1.0000 0.25600  0.38700  0.39020  Biso   1.000  O
  O41      1.0000 0.13570  0.20400  0.41170  Biso   1.000  O
  O42      1.0000 0.59570  0.70050  0.42130  Biso   1.000  O
  O43      1.0000 0.80880  0.64900  0.98530  Biso   1.000  O
  O44      1.0000 0.68230  0.63590  0.92010  Biso   1.000  O
  O45      1.0000 0.33010  0.27340  0.99200  Biso   1.000  O
  O46      1.0000 0.39580  0.20850  0.94880  Biso   1.000  O
  O47      1.0000 0.16160  0.29220  0.13390  Biso   1.000  O
  O48      1.0000 0.08000  0.23600  0.17630  Biso   1.000  O
  O49      1.0000 0.14320  0.32390  0.25650  Biso   1.000  O
  O50      1.0000 0.09490  0.30540  0.33470  Biso   1.000  O
  O51      1.0000 0.78970  0.70310  0.19590  Biso   1.000  O
  O52      1.0000 0.68150  0.69380  0.11900  Biso   1.000  O
  O53      1.0000 0.35680  0.27510  0.16510  Biso   1.000  O
  O54      1.0000 0.32500  0.34710  0.21670  Biso   1.000  O
  O55      1.0000 0.23320  0.17910  0.10950  Biso   1.000  O
  O56      1.0000 0.27120  0.16190  0.19910  Biso   1.000  O
  O57      1.0000 0.59390  0.74450  0.21760  Biso   1.000  O
  O58      1.0000 0.67020  0.80450  0.17450  Biso   1.000  O
  O59      1.0000 0.82460  0.81790  0.03510  Biso   1.000  O
  O60      1.0000 0.88790  0.76450  0.97930  Biso   1.000  O
  O61      1.0000 0.25600  0.11300  0.89020  Biso   1.000  O
  O62      1.0000 0.13570  0.29600  0.91170  Biso   1.000  O
  O63      1.0000 0.59570  0.79950  0.92130  Biso   1.000  O
  O64      1.0000 0.19120  0.14900  0.51470  Biso   1.000  O
  O65      1.0000 0.31770  0.13590  0.57990  Biso   1.000  O
  O66      1.0000 0.66990  0.77340  0.50800  Biso   1.000  O
  O67      1.0000 0.60420  0.70850  0.55120  Biso   1.000  O
  O68      1.0000 0.83840  0.79220  0.36610  Biso   1.000  O
  O69      1.0000 0.92000  0.73600  0.32370  Biso   1.000  O
  O70      1.0000 0.85680  0.82390  0.24350  Biso   1.000  O
  O71      1.0000 0.90510  0.80540  0.16530  Biso   1.000  O
  O72      1.0000 0.21030  0.20310  0.30410  Biso   1.000  O
  O73      1.0000 0.31850  0.19380  0.38100  Biso   1.000  O
  O74      1.0000 0.64320  0.77510  0.33490  Biso   1.000  O
  O75      1.0000 0.67500  0.84710  0.28330  Biso   1.000  O
  O76      1.0000 0.76680  0.67910  0.39050  Biso   1.000  O
  O77      1.0000 0.72880  0.66190  0.30090  Biso   1.000  O
  O78      1.0000 0.40610  0.24450  0.28240  Biso   1.000  O
  O79      1.0000 0.32980  0.30450  0.32550  Biso   1.000  O
  O80      1.0000 0.17540  0.31790  0.46490  Biso   1.000  O
  O81      1.0000 0.11210  0.26450  0.52070  Biso   1.000  O
  O82      1.0000 0.74400  0.61300  0.60980  Biso   1.000  O
  O83      1.0000 0.86430  0.79600  0.58830  Biso   1.000  O
  O84      1.0000 0.40430  0.29950  0.57870  Biso   1.000  O
