data_image0
_cell_length_a       15.1751
_cell_length_b       15.1751
_cell_length_c       22.5604
_cell_angle_alpha    90
_cell_angle_beta     90
_cell_angle_gamma    90

_symmetry_space_group_name_H-M    P 1
_symmetry_int_tables_number       1

loop_
  _symmetry_equiv_pos_as_xyz
  'x, y, z'

loop_
  _atom_site_label
  _atom_site_occupancy
  _atom_site_fract_x
  _atom_site_fract_y
  _atom_site_fract_z
  _atom_site_thermal_displace_type
  _atom_site_B_iso_or_equiv
  _atom_site_type_symbol
  Zn1      1.0000 0.75753  0.66679  0.85609  Biso   1.000  Zn
  Zn2      1.0000 0.24247  0.33321  0.35610  Biso   1.000  Zn
  Zn3      1.0000 0.83321  0.25753  0.60609  Biso   1.000  Zn
  Zn4      1.0000 0.16679  0.74247  0.10610  Biso   1.000  Zn
  Zn5      1.0000 0.74247  0.16679  0.89391  Biso   1.000  Zn
  Zn6      1.0000 0.25753  0.83321  0.39391  Biso   1.000  Zn
  Zn7      1.0000 0.66679  0.75753  0.14391  Biso   1.000  Zn
  Zn8      1.0000 0.33321  0.24247  0.64391  Biso   1.000  Zn
  Zn9      1.0000 0.72128  0.72128  0.00000  Biso   1.000  Zn
  Zn10     1.0000 0.27872  0.27872  0.50000  Biso   1.000  Zn
  Zn11     1.0000 0.77872  0.22128  0.75000  Biso   1.000  Zn
  Zn12     1.0000 0.22128  0.77872  0.25000  Biso   1.000  Zn
  H1       1.0000 0.99410  0.74090  0.03710  Biso   1.000  H
  H2       1.0000 0.03660  0.63280  0.87750  Biso   1.000  H
  H3       1.0000 0.18790  0.62900  0.89850  Biso   1.000  H
  H4       1.0000 0.32460  0.63550  0.92370  Biso   1.000  H
  H5       1.0000 0.46930  0.64570  0.95580  Biso   1.000  H
  H6       1.0000 0.37930  0.73730  0.11250  Biso   1.000  H
  H7       1.0000 0.56960  0.79290  0.90560  Biso   1.000  H
  H8       1.0000 0.00590  0.25910  0.53710  Biso   1.000  H
  H9       1.0000 0.96340  0.36720  0.37750  Biso   1.000  H
  H10      1.0000 0.81210  0.37100  0.39850  Biso   1.000  H
  H11      1.0000 0.67540  0.36450  0.42370  Biso   1.000  H
  H12      1.0000 0.53070  0.35430  0.45580  Biso   1.000  H
  H13      1.0000 0.62070  0.26270  0.61250  Biso   1.000  H
  H14      1.0000 0.43040  0.20710  0.40560  Biso   1.000  H
  H15      1.0000 0.75910  0.49410  0.78710  Biso   1.000  H
  H16      1.0000 0.86720  0.53660  0.62750  Biso   1.000  H
  H17      1.0000 0.87100  0.68790  0.64850  Biso   1.000  H
  H18      1.0000 0.86450  0.82460  0.67370  Biso   1.000  H
  H19      1.0000 0.85430  0.96930  0.70580  Biso   1.000  H
  H20      1.0000 0.76270  0.87930  0.86250  Biso   1.000  H
  H21      1.0000 0.70710  0.06960  0.65560  Biso   1.000  H
  H22      1.0000 0.24090  0.50590  0.28710  Biso   1.000  H
  H23      1.0000 0.13280  0.46340  0.12750  Biso   1.000  H
  H24      1.0000 0.12900  0.31210  0.14850  Biso   1.000  H
  H25      1.0000 0.13550  0.17540  0.17370  Biso   1.000  H
  H26      1.0000 0.14570  0.03070  0.20580  Biso   1.000  H
  H27      1.0000 0.23730  0.12070  0.36250  Biso   1.000  H
  H28      1.0000 0.29290  0.93040  0.15560  Biso   1.000  H
  H29      1.0000 0.50590  0.24090  0.71290  Biso   1.000  H
  H30      1.0000 0.46340  0.13280  0.87250  Biso   1.000  H
  H31      1.0000 0.31210  0.12900  0.85150  Biso   1.000  H
  H32      1.0000 0.17540  0.13550  0.82630  Biso   1.000  H
  H33      1.0000 0.03070  0.14570  0.79420  Biso   1.000  H
  H34      1.0000 0.12070  0.23730  0.63750  Biso   1.000  H
  H35      1.0000 0.93040  0.29290  0.84440  Biso   1.000  H
  H36      1.0000 0.49410  0.75910  0.21290  Biso   1.000  H
  H37      1.0000 0.53660  0.86720  0.37250  Biso   1.000  H
  H38      1.0000 0.68790  0.87100  0.35150  Biso   1.000  H
  H39      1.0000 0.82460  0.86450  0.32630  Biso   1.000  H
  H40      1.0000 0.96930  0.85430  0.29420  Biso   1.000  H
  H41      1.0000 0.87930  0.76270  0.13750  Biso   1.000  H
  H42      1.0000 0.06960  0.70710  0.34440  Biso   1.000  H
  H43      1.0000 0.74090  0.99410  0.96290  Biso   1.000  H
  H44      1.0000 0.63280  0.03660  0.12250  Biso   1.000  H
  H45      1.0000 0.62900  0.18790  0.10150  Biso   1.000  H
  H46      1.0000 0.63550  0.32460  0.07630  Biso   1.000  H
  H47      1.0000 0.64570  0.46930  0.04420  Biso   1.000  H
  H48      1.0000 0.73730  0.37930  0.88750  Biso   1.000  H
  H49      1.0000 0.79290  0.56960  0.09440  Biso   1.000  H
  H50      1.0000 0.25910  0.00590  0.46290  Biso   1.000  H
  H51      1.0000 0.36720  0.96340  0.62250  Biso   1.000  H
  H52      1.0000 0.37100  0.81210  0.60150  Biso   1.000  H
  H53      1.0000 0.36450  0.67540  0.57630  Biso   1.000  H
  H54      1.0000 0.35430  0.53070  0.54420  Biso   1.000  H
  H55      1.0000 0.26270  0.62070  0.38750  Biso   1.000  H
  H56      1.0000 0.20710  0.43040  0.59440  Biso   1.000  H
  C1       1.0000 0.03350  0.71730  0.00840  Biso   1.000  C
  C2       1.0000 0.99890  0.68770  0.95520  Biso   1.000  C
  C3       1.0000 0.05770  0.65410  0.91450  Biso   1.000  C
  C4       1.0000 0.14700  0.65080  0.92680  Biso   1.000  C
  C5       1.0000 0.17500  0.68050  0.98190  Biso   1.000  C
  C6       1.0000 0.26860  0.68040  0.99900  Biso   1.000  C
  C7       1.0000 0.33690  0.65640  0.96250  Biso   1.000  C
  C8       1.0000 0.42230  0.66220  0.98130  Biso   1.000  C
  C9       1.0000 0.43960  0.69260  0.03830  Biso   1.000  C
  C10      1.0000 0.36800  0.71700  0.07340  Biso   1.000  C
  C11      1.0000 0.90130  0.69530  0.94276  Biso   1.000  C
  C12      1.0000 0.53270  0.71180  0.05780  Biso   1.000  C
  C13      1.0000 0.61200  0.75570  0.88730  Biso   1.000  C
  C14      1.0000 0.96650  0.28270  0.50840  Biso   1.000  C
  C15      1.0000 0.00110  0.31230  0.45520  Biso   1.000  C
  C16      1.0000 0.94230  0.34590  0.41450  Biso   1.000  C
  C17      1.0000 0.85300  0.34920  0.42680  Biso   1.000  C
  C18      1.0000 0.82500  0.31950  0.48190  Biso   1.000  C
  C19      1.0000 0.73140  0.31960  0.49900  Biso   1.000  C
  C20      1.0000 0.66310  0.34360  0.46250  Biso   1.000  C
  C21      1.0000 0.57770  0.33780  0.48130  Biso   1.000  C
  C22      1.0000 0.56040  0.30740  0.53830  Biso   1.000  C
  C23      1.0000 0.63200  0.28300  0.57340  Biso   1.000  C
  C24      1.0000 0.09870  0.30470  0.44276  Biso   1.000  C
  C25      1.0000 0.46730  0.28820  0.55780  Biso   1.000  C
  C26      1.0000 0.38800  0.24430  0.38730  Biso   1.000  C
  C27      1.0000 0.78270  0.53350  0.75840  Biso   1.000  C
  C28      1.0000 0.81230  0.49890  0.70520  Biso   1.000  C
  C29      1.0000 0.84590  0.55770  0.66450  Biso   1.000  C
  C30      1.0000 0.84920  0.64700  0.67680  Biso   1.000  C
  C31      1.0000 0.81950  0.67500  0.73190  Biso   1.000  C
  C32      1.0000 0.81960  0.76860  0.74900  Biso   1.000  C
  C33      1.0000 0.84360  0.83690  0.71250  Biso   1.000  C
  C34      1.0000 0.83780  0.92230  0.73130  Biso   1.000  C
  C35      1.0000 0.80740  0.93960  0.78830  Biso   1.000  C
  C36      1.0000 0.78300  0.86800  0.82340  Biso   1.000  C
  C37      1.0000 0.80470  0.40130  0.69276  Biso   1.000  C
  C38      1.0000 0.78820  0.03270  0.80780  Biso   1.000  C
  C39      1.0000 0.74430  0.11200  0.63730  Biso   1.000  C
  C40      1.0000 0.21730  0.46650  0.25840  Biso   1.000  C
  C41      1.0000 0.18770  0.50110  0.20520  Biso   1.000  C
  C42      1.0000 0.15410  0.44230  0.16450  Biso   1.000  C
  C43      1.0000 0.15080  0.35300  0.17680  Biso   1.000  C
  C44      1.0000 0.18050  0.32500  0.23190  Biso   1.000  C
  C45      1.0000 0.18040  0.23140  0.24900  Biso   1.000  C
  C46      1.0000 0.15640  0.16310  0.21250  Biso   1.000  C
  C47      1.0000 0.16220  0.07770  0.23130  Biso   1.000  C
  C48      1.0000 0.19260  0.06040  0.28830  Biso   1.000  C
  C49      1.0000 0.21700  0.13200  0.32340  Biso   1.000  C
  C50      1.0000 0.19530  0.59870  0.19276  Biso   1.000  C
  C51      1.0000 0.21180  0.96730  0.30780  Biso   1.000  C
  C52      1.0000 0.25570  0.88800  0.13730  Biso   1.000  C
  C53      1.0000 0.46650  0.21730  0.74160  Biso   1.000  C
  C54      1.0000 0.50110  0.18770  0.79480  Biso   1.000  C
  C55      1.0000 0.44230  0.15410  0.83550  Biso   1.000  C
  C56      1.0000 0.35300  0.15080  0.82320  Biso   1.000  C
  C57      1.0000 0.32500  0.18050  0.76810  Biso   1.000  C
  C58      1.0000 0.23140  0.18040  0.75100  Biso   1.000  C
  C59      1.0000 0.16310  0.15640  0.78750  Biso   1.000  C
  C60      1.0000 0.07770  0.16220  0.76870  Biso   1.000  C
  C61      1.0000 0.06040  0.19260  0.71170  Biso   1.000  C
  C62      1.0000 0.13200  0.21700  0.67660  Biso   1.000  C
  C63      1.0000 0.59870  0.19530  0.80724  Biso   1.000  C
  C64      1.0000 0.96730  0.21180  0.69220  Biso   1.000  C
  C65      1.0000 0.88800  0.25570  0.86270  Biso   1.000  C
  C66      1.0000 0.53350  0.78270  0.24160  Biso   1.000  C
  C67      1.0000 0.49890  0.81230  0.29480  Biso   1.000  C
  C68      1.0000 0.55770  0.84590  0.33550  Biso   1.000  C
  C69      1.0000 0.64700  0.84920  0.32320  Biso   1.000  C
  C70      1.0000 0.67500  0.81950  0.26810  Biso   1.000  C
  C71      1.0000 0.76860  0.81960  0.25100  Biso   1.000  C
  C72      1.0000 0.83690  0.84360  0.28750  Biso   1.000  C
  C73      1.0000 0.92230  0.83780  0.26870  Biso   1.000  C
  C74      1.0000 0.93960  0.80740  0.21170  Biso   1.000  C
  C75      1.0000 0.86800  0.78300  0.17660  Biso   1.000  C
  C76      1.0000 0.40130  0.80470  0.30724  Biso   1.000  C
  C77      1.0000 0.03270  0.78820  0.19220  Biso   1.000  C
  C78      1.0000 0.11200  0.74430  0.36270  Biso   1.000  C
  C79      1.0000 0.71730  0.03350  0.99160  Biso   1.000  C
  C80      1.0000 0.68770  0.99890  0.04480  Biso   1.000  C
  C81      1.0000 0.65410  0.05770  0.08550  Biso   1.000  C
  C82      1.0000 0.65080  0.14700  0.07320  Biso   1.000  C
  C83      1.0000 0.68050  0.17500  0.01810  Biso   1.000  C
  C84      1.0000 0.68040  0.26860  0.00100  Biso   1.000  C
  C85      1.0000 0.65640  0.33690  0.03750  Biso   1.000  C
  C86      1.0000 0.66220  0.42230  0.01870  Biso   1.000  C
  C87      1.0000 0.69260  0.43960  0.96170  Biso   1.000  C
  C88      1.0000 0.71700  0.36800  0.92660  Biso   1.000  C
  C89      1.0000 0.69530  0.90130  0.05724  Biso   1.000  C
  C90      1.0000 0.71180  0.53270  0.94220  Biso   1.000  C
  C91      1.0000 0.75570  0.61200  0.11270  Biso   1.000  C
  C92      1.0000 0.28270  0.96650  0.49160  Biso   1.000  C
  C93      1.0000 0.31230  0.00110  0.54480  Biso   1.000  C
  C94      1.0000 0.34590  0.94230  0.58550  Biso   1.000  C
  C95      1.0000 0.34920  0.85300  0.57320  Biso   1.000  C
  C96      1.0000 0.31950  0.82500  0.51810  Biso   1.000  C
  C97      1.0000 0.31960  0.73140  0.50100  Biso   1.000  C
  C98      1.0000 0.34360  0.66310  0.53750  Biso   1.000  C
  C99      1.0000 0.33780  0.57770  0.51870  Biso   1.000  C
  C100     1.0000 0.30740  0.56040  0.46170  Biso   1.000  C
  C101     1.0000 0.28300  0.63200  0.42660  Biso   1.000  C
  C102     1.0000 0.30470  0.09870  0.55724  Biso   1.000  C
  C103     1.0000 0.28820  0.46730  0.44220  Biso   1.000  C
  C104     1.0000 0.24430  0.38800  0.61270  Biso   1.000  C
  N1       1.0000 0.11730  0.71430  0.02120  Biso   1.000  N
  N2       1.0000 0.28480  0.71310  0.05500  Biso   1.000  N
  N3       1.0000 0.88270  0.28570  0.52120  Biso   1.000  N
  N4       1.0000 0.71520  0.28690  0.55500  Biso   1.000  N
  N5       1.0000 0.78570  0.61730  0.77120  Biso   1.000  N
  N6       1.0000 0.78690  0.78480  0.80500  Biso   1.000  N
  N7       1.0000 0.21430  0.38270  0.27120  Biso   1.000  N
  N8       1.0000 0.21310  0.21520  0.30500  Biso   1.000  N
  N9       1.0000 0.38270  0.21430  0.72880  Biso   1.000  N
  N10      1.0000 0.21520  0.21310  0.69500  Biso   1.000  N
  N11      1.0000 0.61730  0.78570  0.22880  Biso   1.000  N
  N12      1.0000 0.78480  0.78690  0.19500  Biso   1.000  N
  N13      1.0000 0.71430  0.11730  0.97880  Biso   1.000  N
  N14      1.0000 0.71310  0.28480  0.94500  Biso   1.000  N
  N15      1.0000 0.28570  0.88270  0.47880  Biso   1.000  N
  N16      1.0000 0.28690  0.71520  0.44500  Biso   1.000  N
  O1       1.0000 0.85400  0.72600  0.98227  Biso   1.000  O
  O2       1.0000 0.87809  0.66620  0.89252  Biso   1.000  O
  O3       1.0000 0.58500  0.72180  0.01450  Biso   1.000  O
  O4       1.0000 0.54587  0.71962  0.11228  Biso   1.000  O
  O5       1.0000 0.68652  0.74507  0.91177  Biso   1.000  O
  O6       1.0000 0.59330  0.71800  0.83953  Biso   1.000  O
  O7       1.0000 0.14600  0.27400  0.48227  Biso   1.000  O
  O8       1.0000 0.12191  0.33380  0.39252  Biso   1.000  O
  O9       1.0000 0.41500  0.27820  0.51450  Biso   1.000  O
  O10      1.0000 0.45413  0.28038  0.61228  Biso   1.000  O
  O11      1.0000 0.31348  0.25493  0.41177  Biso   1.000  O
  O12      1.0000 0.40670  0.28200  0.33953  Biso   1.000  O
  O13      1.0000 0.77400  0.35400  0.73227  Biso   1.000  O
  O14      1.0000 0.83380  0.37809  0.64252  Biso   1.000  O
  O15      1.0000 0.77820  0.08500  0.76450  Biso   1.000  O
  O16      1.0000 0.78038  0.04587  0.86228  Biso   1.000  O
  O17      1.0000 0.75493  0.18652  0.66177  Biso   1.000  O
  O18      1.0000 0.78200  0.09330  0.58953  Biso   1.000  O
  O19      1.0000 0.22600  0.64600  0.23227  Biso   1.000  O
  O20      1.0000 0.16620  0.62191  0.14252  Biso   1.000  O
  O21      1.0000 0.22180  0.91500  0.26450  Biso   1.000  O
  O22      1.0000 0.21962  0.95413  0.36228  Biso   1.000  O
  O23      1.0000 0.24507  0.81348  0.16177  Biso   1.000  O
  O24      1.0000 0.21800  0.90670  0.08953  Biso   1.000  O
  O25      1.0000 0.64600  0.22600  0.76773  Biso   1.000  O
  O26      1.0000 0.62191  0.16620  0.85748  Biso   1.000  O
  O27      1.0000 0.91500  0.22180  0.73550  Biso   1.000  O
  O28      1.0000 0.95413  0.21962  0.63772  Biso   1.000  O
  O29      1.0000 0.81348  0.24507  0.83823  Biso   1.000  O
  O30      1.0000 0.90670  0.21800  0.91047  Biso   1.000  O
  O31      1.0000 0.35400  0.77400  0.26773  Biso   1.000  O
  O32      1.0000 0.37809  0.83380  0.35748  Biso   1.000  O
  O33      1.0000 0.08500  0.77820  0.23550  Biso   1.000  O
  O34      1.0000 0.04587  0.78038  0.13772  Biso   1.000  O
  O35      1.0000 0.18652  0.75493  0.33823  Biso   1.000  O
  O36      1.0000 0.09330  0.78200  0.41047  Biso   1.000  O
  O37      1.0000 0.72600  0.85400  0.01773  Biso   1.000  O
  O38      1.0000 0.66620  0.87809  0.10748  Biso   1.000  O
  O39      1.0000 0.72180  0.58500  0.98550  Biso   1.000  O
  O40      1.0000 0.71962  0.54587  0.88772  Biso   1.000  O
  O41      1.0000 0.74507  0.68652  0.08823  Biso   1.000  O
  O42      1.0000 0.71800  0.59330  0.16047  Biso   1.000  O
  O43      1.0000 0.27400  0.14600  0.51773  Biso   1.000  O
  O44      1.0000 0.33380  0.12191  0.60748  Biso   1.000  O
  O45      1.0000 0.27820  0.41500  0.48550  Biso   1.000  O
  O46      1.0000 0.28038  0.45413  0.38772  Biso   1.000  O
  O47      1.0000 0.25493  0.31348  0.58823  Biso   1.000  O
  O48      1.0000 0.28200  0.40670  0.66047  Biso   1.000  O
