data_image0
_cell_length_a       16.6727
_cell_length_b       17.5916
_cell_length_c       18.734
_cell_angle_alpha    77.8267
_cell_angle_beta     63.5777
_cell_angle_gamma    61.7135

_symmetry_space_group_name_H-M    P 1
_symmetry_int_tables_number       1

loop_
  _symmetry_equiv_pos_as_xyz
  'x, y, z'

loop_
  _atom_site_label
  _atom_site_occupancy
  _atom_site_fract_x
  _atom_site_fract_y
  _atom_site_fract_z
  _atom_site_thermal_displace_type
  _atom_site_B_iso_or_equiv
  _atom_site_type_symbol
  Cu1      1.0000 0.00080  0.93688  0.05220  Biso   1.000  Cu
  Cu2      1.0000 0.94700  0.56312  0.05220  Biso   1.000  Cu
  Cu3      1.0000 0.56232  0.93688  0.44780  Biso   1.000  Cu
  Cu4      1.0000 0.98988  0.56312  0.44780  Biso   1.000  Cu
  Cu5      1.0000 0.99920  0.06312  0.94780  Biso   1.000  Cu
  Cu6      1.0000 0.05300  0.43688  0.94780  Biso   1.000  Cu
  Cu7      1.0000 0.43768  0.06312  0.55220  Biso   1.000  Cu
  Cu8      1.0000 0.01012  0.43688  0.55220  Biso   1.000  Cu
  H1       1.0000 0.09110  0.00340  0.20540  Biso   1.000  H
  H2       1.0000 0.14080  0.05800  0.27020  Biso   1.000  H
  H3       1.0000 0.10310  0.26600  0.12800  Biso   1.000  H
  H4       1.0000 0.05710  0.21000  0.06100  Biso   1.000  H
  H5       1.0000 0.32020  0.95400  0.78640  Biso   1.000  H
  H6       1.0000 0.49070  0.88200  0.73140  Biso   1.000  H
  H7       1.0000 0.48250  0.72580  0.92180  Biso   1.000  H
  H8       1.0000 0.31220  0.79460  0.97480  Biso   1.000  H
  H9       1.0000 0.12190  0.79020  0.15700  Biso   1.000  H
  H10      1.0000 0.25860  0.61860  0.04060  Biso   1.000  H
  H11      1.0000 0.19730  0.56700  0.05600  Biso   1.000  H
  H12      1.0000 0.23650  0.56460  0.11900  Biso   1.000  H
  H13      1.0000 0.98270  0.71160  0.20960  Biso   1.000  H
  H14      1.0000 0.06040  0.62200  0.22560  Biso   1.000  H
  H15      1.0000 0.01590  0.62880  0.16500  Biso   1.000  H
  H16      1.0000 0.70350  0.49660  0.20540  Biso   1.000  H
  H17      1.0000 0.58900  0.44200  0.27020  Biso   1.000  H
  H18      1.0000 0.76890  0.23400  0.12800  Biso   1.000  H
  H19      1.0000 0.88190  0.29000  0.06100  Biso   1.000  H
  H20      1.0000 0.89340  0.54600  0.78640  Biso   1.000  H
  H21      1.0000 0.77790  0.61800  0.73140  Biso   1.000  H
  H22      1.0000 0.59570  0.77420  0.92180  Biso   1.000  H
  H23      1.0000 0.71300  0.70540  0.97480  Biso   1.000  H
  H24      1.0000 0.72110  0.70980  0.15700  Biso   1.000  H
  H25      1.0000 0.70080  0.88140  0.04060  Biso   1.000  H
  H26      1.0000 0.74670  0.93300  0.05600  Biso   1.000  H
  H27      1.0000 0.64450  0.93540  0.11900  Biso   1.000  H
  H28      1.0000 0.80770  0.78840  0.20960  Biso   1.000  H
  H29      1.0000 0.71400  0.87800  0.22560  Biso   1.000  H
  H30      1.0000 0.81910  0.87120  0.16500  Biso   1.000  H
  H31      1.0000 0.40550  0.00340  0.29460  Biso   1.000  H
  H32      1.0000 0.30120  0.05800  0.22980  Biso   1.000  H
  H33      1.0000 0.13090  0.26600  0.37200  Biso   1.000  H
  H34      1.0000 0.23290  0.21000  0.43900  Biso   1.000  H
  H35      1.0000 0.22580  0.95400  0.71360  Biso   1.000  H
  H36      1.0000 0.12730  0.88200  0.76860  Biso   1.000  H
  H37      1.0000 0.29170  0.72580  0.57820  Biso   1.000  H
  H38      1.0000 0.39320  0.79460  0.52520  Biso   1.000  H
  H39      1.0000 0.58790  0.79020  0.34300  Biso   1.000  H
  H40      1.0000 0.62280  0.61860  0.45940  Biso   1.000  H
  H41      1.0000 0.73570  0.56700  0.44400  Biso   1.000  H
  H42      1.0000 0.69890  0.56460  0.38100  Biso   1.000  H
  H43      1.0000 0.80570  0.71160  0.29040  Biso   1.000  H
  H44      1.0000 0.81760  0.62200  0.27440  Biso   1.000  H
  H45      1.0000 0.85530  0.62880  0.33500  Biso   1.000  H
  H46      1.0000 0.29990  0.49660  0.29460  Biso   1.000  H
  H47      1.0000 0.46900  0.44200  0.22980  Biso   1.000  H
  H48      1.0000 0.49710  0.23400  0.37200  Biso   1.000  H
  H49      1.0000 0.32810  0.29000  0.43900  Biso   1.000  H
  H50      1.0000 0.06060  0.54600  0.71360  Biso   1.000  H
  H51      1.0000 0.10410  0.61800  0.76860  Biso   1.000  H
  H52      1.0000 0.13010  0.77420  0.57820  Biso   1.000  H
  H53      1.0000 0.08160  0.70540  0.52520  Biso   1.000  H
  H54      1.0000 0.06910  0.70980  0.34300  Biso   1.000  H
  H55      1.0000 0.91780  0.88140  0.45940  Biso   1.000  H
  H56      1.0000 0.82030  0.93300  0.44400  Biso   1.000  H
  H57      1.0000 0.92010  0.93540  0.38100  Biso   1.000  H
  H58      1.0000 0.90390  0.78840  0.29040  Biso   1.000  H
  H59      1.0000 0.90800  0.87800  0.27440  Biso   1.000  H
  H60      1.0000 0.80970  0.87120  0.33500  Biso   1.000  H
  H61      1.0000 0.90890  0.99660  0.79460  Biso   1.000  H
  H62      1.0000 0.85920  0.94200  0.72980  Biso   1.000  H
  H63      1.0000 0.89690  0.73400  0.87200  Biso   1.000  H
  H64      1.0000 0.94290  0.79000  0.93900  Biso   1.000  H
  H65      1.0000 0.67980  0.04600  0.21360  Biso   1.000  H
  H66      1.0000 0.50930  0.11800  0.26860  Biso   1.000  H
  H67      1.0000 0.51750  0.27420  0.07820  Biso   1.000  H
  H68      1.0000 0.68780  0.20540  0.02520  Biso   1.000  H
  H69      1.0000 0.87810  0.20980  0.84300  Biso   1.000  H
  H70      1.0000 0.74140  0.38140  0.95940  Biso   1.000  H
  H71      1.0000 0.80270  0.43300  0.94400  Biso   1.000  H
  H72      1.0000 0.76350  0.43540  0.88100  Biso   1.000  H
  H73      1.0000 0.01730  0.28840  0.79040  Biso   1.000  H
  H74      1.0000 0.93960  0.37800  0.77440  Biso   1.000  H
  H75      1.0000 0.98410  0.37120  0.83500  Biso   1.000  H
  H76      1.0000 0.29650  0.50340  0.79460  Biso   1.000  H
  H77      1.0000 0.41100  0.55800  0.72980  Biso   1.000  H
  H78      1.0000 0.23110  0.76600  0.87200  Biso   1.000  H
  H79      1.0000 0.11810  0.71000  0.93900  Biso   1.000  H
  H80      1.0000 0.10660  0.45400  0.21360  Biso   1.000  H
  H81      1.0000 0.22210  0.38200  0.26860  Biso   1.000  H
  H82      1.0000 0.40430  0.22580  0.07820  Biso   1.000  H
  H83      1.0000 0.28700  0.29460  0.02520  Biso   1.000  H
  H84      1.0000 0.27890  0.29020  0.84300  Biso   1.000  H
  H85      1.0000 0.29920  0.11860  0.95940  Biso   1.000  H
  H86      1.0000 0.25330  0.06700  0.94400  Biso   1.000  H
  H87      1.0000 0.35550  0.06460  0.88100  Biso   1.000  H
  H88      1.0000 0.19230  0.21160  0.79040  Biso   1.000  H
  H89      1.0000 0.28600  0.12200  0.77440  Biso   1.000  H
  H90      1.0000 0.18090  0.12880  0.83500  Biso   1.000  H
  H91      1.0000 0.59450  0.99660  0.70540  Biso   1.000  H
  H92      1.0000 0.69880  0.94200  0.77020  Biso   1.000  H
  H93      1.0000 0.86910  0.73400  0.62800  Biso   1.000  H
  H94      1.0000 0.76710  0.79000  0.56100  Biso   1.000  H
  H95      1.0000 0.77420  0.04600  0.28640  Biso   1.000  H
  H96      1.0000 0.87270  0.11800  0.23140  Biso   1.000  H
  H97      1.0000 0.70830  0.27420  0.42180  Biso   1.000  H
  H98      1.0000 0.60680  0.20540  0.47480  Biso   1.000  H
  H99      1.0000 0.41210  0.20980  0.65700  Biso   1.000  H
  H100     1.0000 0.37720  0.38140  0.54060  Biso   1.000  H
  H101     1.0000 0.26430  0.43300  0.55600  Biso   1.000  H
  H102     1.0000 0.30110  0.43540  0.61900  Biso   1.000  H
  H103     1.0000 0.19430  0.28840  0.70960  Biso   1.000  H
  H104     1.0000 0.18240  0.37800  0.72560  Biso   1.000  H
  H105     1.0000 0.14470  0.37120  0.66500  Biso   1.000  H
  H106     1.0000 0.70010  0.50340  0.70540  Biso   1.000  H
  H107     1.0000 0.53100  0.55800  0.77020  Biso   1.000  H
  H108     1.0000 0.50290  0.76600  0.62800  Biso   1.000  H
  H109     1.0000 0.67190  0.71000  0.56100  Biso   1.000  H
  H110     1.0000 0.93940  0.45400  0.28640  Biso   1.000  H
  H111     1.0000 0.89590  0.38200  0.23140  Biso   1.000  H
  H112     1.0000 0.86990  0.22580  0.42180  Biso   1.000  H
  H113     1.0000 0.91840  0.29460  0.47480  Biso   1.000  H
  H114     1.0000 0.93090  0.29020  0.65700  Biso   1.000  H
  H115     1.0000 0.08220  0.11860  0.54060  Biso   1.000  H
  H116     1.0000 0.17970  0.06700  0.55600  Biso   1.000  H
  H117     1.0000 0.07990  0.06460  0.61900  Biso   1.000  H
  H118     1.0000 0.09610  0.21160  0.70960  Biso   1.000  H
  H119     1.0000 0.09200  0.12200  0.72560  Biso   1.000  H
  H120     1.0000 0.19030  0.12880  0.66500  Biso   1.000  H
  H121     1.0000 0.11810  0.26380  0.25000  Biso   1.000  H
  H122     1.0000 0.63190  0.23620  0.25000  Biso   1.000  H
  H123     1.0000 0.88190  0.73620  0.75000  Biso   1.000  H
  H124     1.0000 0.36810  0.76380  0.75000  Biso   1.000  H
  H125     1.0000 0.63430  0.75000  0.73140  Biso   1.000  H
  H126     1.0000 0.11570  0.75000  0.76860  Biso   1.000  H
  H127     1.0000 0.36570  0.25000  0.26860  Biso   1.000  H
  H128     1.0000 0.88430  0.25000  0.23140  Biso   1.000  H
  C1       1.0000 0.06996  0.09984  0.12504  Biso   1.000  C
  C2       1.0000 0.09436  0.05604  0.18924  Biso   1.000  C
  C3       1.0000 0.12277  0.08912  0.22874  Biso   1.000  C
  C4       1.0000 0.12519  0.16914  0.20728  Biso   1.000  C
  C5       1.0000 0.10080  0.21306  0.14354  Biso   1.000  C
  C6       1.0000 0.07346  0.17946  0.10322  Biso   1.000  C
  C7       1.0000 0.03909  0.06362  0.08240  Biso   1.000  C
  C8       1.0000 0.18658  0.92604  0.92280  Biso   1.000  C
  C9       1.0000 0.29796  0.88166  0.88662  Biso   1.000  C
  C10      1.0000 0.35276  0.90756  0.81332  Biso   1.000  C
  C11      1.0000 0.45504  0.86442  0.78050  Biso   1.000  C
  C12      1.0000 0.50621  0.79492  0.81946  Biso   1.000  C
  C13      1.0000 0.45021  0.77076  0.89382  Biso   1.000  C
  C14      1.0000 0.34810  0.81274  0.92596  Biso   1.000  C
  C15      1.0000 0.09050  0.77300  0.13760  Biso   1.000  C
  C16      1.0000 0.21060  0.60000  0.08060  Biso   1.000  C
  C17      1.0000 0.03730  0.65780  0.18600  Biso   1.000  C
  C18      1.0000 0.80500  0.40016  0.12504  Biso   1.000  C
  C19      1.0000 0.71640  0.44396  0.18924  Biso   1.000  C
  C20      1.0000 0.64849  0.41088  0.22874  Biso   1.000  C
  C21      1.0000 0.66753  0.33086  0.20728  Biso   1.000  C
  C22      1.0000 0.75566  0.28694  0.14354  Biso   1.000  C
  C23      1.0000 0.82332  0.32054  0.10322  Biso   1.000  C
  C24      1.0000 0.87851  0.43638  0.08240  Biso   1.000  C
  C25      1.0000 0.89062  0.57396  0.92280  Biso   1.000  C
  C26      1.0000 0.81542  0.61834  0.88662  Biso   1.000  C
  C27      1.0000 0.83392  0.59244  0.81332  Biso   1.000  C
  C28      1.0000 0.76446  0.63558  0.78050  Biso   1.000  C
  C29      1.0000 0.67433  0.70508  0.81946  Biso   1.000  C
  C30      1.0000 0.65597  0.72924  0.89382  Biso   1.000  C
  C31      1.0000 0.72594  0.68726  0.92596  Biso   1.000  C
  C32      1.0000 0.77190  0.72700  0.13760  Biso   1.000  C
  C33      1.0000 0.70880  0.90000  0.08060  Biso   1.000  C
  C34      1.0000 0.77670  0.84220  0.18600  Biso   1.000  C
  C35      1.0000 0.33020  0.09984  0.37496  Biso   1.000  C
  C36      1.0000 0.34960  0.05604  0.31076  Biso   1.000  C
  C37      1.0000 0.28811  0.08912  0.27126  Biso   1.000  C
  C38      1.0000 0.20567  0.16914  0.29272  Biso   1.000  C
  C39      1.0000 0.18614  0.21306  0.35646  Biso   1.000  C
  C40      1.0000 0.24708  0.17946  0.39678  Biso   1.000  C
  C41      1.0000 0.39729  0.06362  0.41760  Biso   1.000  C
  C42      1.0000 0.38738  0.92604  0.57720  Biso   1.000  C
  C43      1.0000 0.32038  0.88166  0.61338  Biso   1.000  C
  C44      1.0000 0.23968  0.90756  0.68668  Biso   1.000  C
  C45      1.0000 0.18054  0.86442  0.71950  Biso   1.000  C
  C46      1.0000 0.19887  0.79492  0.68054  Biso   1.000  C
  C47      1.0000 0.27903  0.77076  0.60618  Biso   1.000  C
  C48      1.0000 0.33916  0.81274  0.57404  Biso   1.000  C
  C49      1.0000 0.63650  0.77300  0.36240  Biso   1.000  C
  C50      1.0000 0.68940  0.60000  0.41940  Biso   1.000  C
  C51      1.0000 0.80490  0.65780  0.31400  Biso   1.000  C
  C52      1.0000 0.29484  0.40016  0.37496  Biso   1.000  C
  C53      1.0000 0.33964  0.44396  0.31076  Biso   1.000  C
  C54      1.0000 0.44063  0.41088  0.27126  Biso   1.000  C
  C55      1.0000 0.50161  0.33086  0.29272  Biso   1.000  C
  C56      1.0000 0.45740  0.28694  0.35646  Biso   1.000  C
  C57      1.0000 0.35614  0.32054  0.39678  Biso   1.000  C
  C58      1.0000 0.18511  0.43638  0.41760  Biso   1.000  C
  C59      1.0000 0.03542  0.57396  0.57720  Biso   1.000  C
  C60      1.0000 0.06624  0.61834  0.61338  Biso   1.000  C
  C61      1.0000 0.07364  0.59244  0.68668  Biso   1.000  C
  C62      1.0000 0.09996  0.63558  0.71950  Biso   1.000  C
  C63      1.0000 0.12059  0.70508  0.68054  Biso   1.000  C
  C64      1.0000 0.11479  0.72924  0.60618  Biso   1.000  C
  C65      1.0000 0.08680  0.68726  0.57404  Biso   1.000  C
  C66      1.0000 0.00110  0.72700  0.36240  Biso   1.000  C
  C67      1.0000 0.89120  0.90000  0.41940  Biso   1.000  C
  C68      1.0000 0.88110  0.84220  0.31400  Biso   1.000  C
  C69      1.0000 0.93004  0.90016  0.87496  Biso   1.000  C
  C70      1.0000 0.90564  0.94396  0.81076  Biso   1.000  C
  C71      1.0000 0.87723  0.91088  0.77126  Biso   1.000  C
  C72      1.0000 0.87481  0.83086  0.79272  Biso   1.000  C
  C73      1.0000 0.89920  0.78694  0.85646  Biso   1.000  C
  C74      1.0000 0.92654  0.82054  0.89678  Biso   1.000  C
  C75      1.0000 0.96091  0.93638  0.91760  Biso   1.000  C
  C76      1.0000 0.81342  0.07396  0.07720  Biso   1.000  C
  C77      1.0000 0.70204  0.11834  0.11338  Biso   1.000  C
  C78      1.0000 0.64724  0.09244  0.18668  Biso   1.000  C
  C79      1.0000 0.54496  0.13558  0.21950  Biso   1.000  C
  C80      1.0000 0.49379  0.20508  0.18054  Biso   1.000  C
  C81      1.0000 0.54979  0.22924  0.10618  Biso   1.000  C
  C82      1.0000 0.65190  0.18726  0.07404  Biso   1.000  C
  C83      1.0000 0.90950  0.22700  0.86240  Biso   1.000  C
  C84      1.0000 0.78940  0.40000  0.91940  Biso   1.000  C
  C85      1.0000 0.96270  0.34220  0.81400  Biso   1.000  C
  C86      1.0000 0.19500  0.59984  0.87496  Biso   1.000  C
  C87      1.0000 0.28360  0.55604  0.81076  Biso   1.000  C
  C88      1.0000 0.35151  0.58912  0.77126  Biso   1.000  C
  C89      1.0000 0.33247  0.66914  0.79272  Biso   1.000  C
  C90      1.0000 0.24434  0.71306  0.85646  Biso   1.000  C
  C91      1.0000 0.17668  0.67946  0.89678  Biso   1.000  C
  C92      1.0000 0.12149  0.56362  0.91760  Biso   1.000  C
  C93      1.0000 0.10938  0.42604  0.07720  Biso   1.000  C
  C94      1.0000 0.18458  0.38166  0.11338  Biso   1.000  C
  C95      1.0000 0.16608  0.40756  0.18668  Biso   1.000  C
  C96      1.0000 0.23554  0.36442  0.21950  Biso   1.000  C
  C97      1.0000 0.32567  0.29492  0.18054  Biso   1.000  C
  C98      1.0000 0.34403  0.27076  0.10618  Biso   1.000  C
  C99      1.0000 0.27406  0.31274  0.07404  Biso   1.000  C
  C100     1.0000 0.22810  0.27300  0.86240  Biso   1.000  C
  C101     1.0000 0.29120  0.10000  0.91940  Biso   1.000  C
  C102     1.0000 0.22330  0.15780  0.81400  Biso   1.000  C
  C103     1.0000 0.66980  0.90016  0.62504  Biso   1.000  C
  C104     1.0000 0.65040  0.94396  0.68924  Biso   1.000  C
  C105     1.0000 0.71189  0.91088  0.72874  Biso   1.000  C
  C106     1.0000 0.79433  0.83086  0.70728  Biso   1.000  C
  C107     1.0000 0.81386  0.78694  0.64354  Biso   1.000  C
  C108     1.0000 0.75292  0.82054  0.60322  Biso   1.000  C
  C109     1.0000 0.60271  0.93638  0.58240  Biso   1.000  C
  C110     1.0000 0.61262  0.07396  0.42280  Biso   1.000  C
  C111     1.0000 0.67962  0.11834  0.38662  Biso   1.000  C
  C112     1.0000 0.76032  0.09244  0.31332  Biso   1.000  C
  C113     1.0000 0.81946  0.13558  0.28050  Biso   1.000  C
  C114     1.0000 0.80113  0.20508  0.31946  Biso   1.000  C
  C115     1.0000 0.72097  0.22924  0.39382  Biso   1.000  C
  C116     1.0000 0.66084  0.18726  0.42596  Biso   1.000  C
  C117     1.0000 0.36350  0.22700  0.63760  Biso   1.000  C
  C118     1.0000 0.31060  0.40000  0.58060  Biso   1.000  C
  C119     1.0000 0.19510  0.34220  0.68600  Biso   1.000  C
  C120     1.0000 0.70516  0.59984  0.62504  Biso   1.000  C
  C121     1.0000 0.66036  0.55604  0.68924  Biso   1.000  C
  C122     1.0000 0.55937  0.58912  0.72874  Biso   1.000  C
  C123     1.0000 0.49839  0.66914  0.70728  Biso   1.000  C
  C124     1.0000 0.54260  0.71306  0.64354  Biso   1.000  C
  C125     1.0000 0.64386  0.67946  0.60322  Biso   1.000  C
  C126     1.0000 0.81489  0.56362  0.58240  Biso   1.000  C
  C127     1.0000 0.96458  0.42604  0.42280  Biso   1.000  C
  C128     1.0000 0.93376  0.38166  0.38662  Biso   1.000  C
  C129     1.0000 0.92636  0.40756  0.31332  Biso   1.000  C
  C130     1.0000 0.90004  0.36442  0.28050  Biso   1.000  C
  C131     1.0000 0.87941  0.29492  0.31946  Biso   1.000  C
  C132     1.0000 0.88521  0.27076  0.39382  Biso   1.000  C
  C133     1.0000 0.91320  0.31274  0.42596  Biso   1.000  C
  C134     1.0000 0.99890  0.27300  0.63760  Biso   1.000  C
  C135     1.0000 0.10880  0.10000  0.58060  Biso   1.000  C
  C136     1.0000 0.11890  0.15780  0.68600  Biso   1.000  C
  N1       1.0000 0.11940  0.67460  0.12020  Biso   1.000  N
  N2       1.0000 0.76040  0.82540  0.12020  Biso   1.000  N
  N3       1.0000 0.70600  0.67460  0.37980  Biso   1.000  N
  N4       1.0000 0.91420  0.82540  0.37980  Biso   1.000  N
  N5       1.0000 0.88060  0.32540  0.87980  Biso   1.000  N
  N6       1.0000 0.23960  0.17460  0.87980  Biso   1.000  N
  N7       1.0000 0.29400  0.32540  0.62020  Biso   1.000  N
  N8       1.0000 0.08580  0.17460  0.62020  Biso   1.000  N
  N9       1.0000 0.14582  0.20836  0.25000  Biso   1.000  N
  N10      1.0000 0.60418  0.29164  0.25000  Biso   1.000  N
  N11      1.0000 0.85418  0.79164  0.75000  Biso   1.000  N
  N12      1.0000 0.39582  0.70836  0.75000  Biso   1.000  N
  N13      1.0000 0.60868  0.75000  0.78264  Biso   1.000  N
  N14      1.0000 0.14132  0.75000  0.71736  Biso   1.000  N
  N15      1.0000 0.39132  0.25000  0.21736  Biso   1.000  N
  N16      1.0000 0.85868  0.25000  0.28264  Biso   1.000  N
  O1       1.0000 0.14341  0.89026  0.98312  Biso   1.000  O
  O2       1.0000 0.02652  0.99644  0.11072  Biso   1.000  O
  O3       1.0000 0.02660  0.10282  0.02098  Biso   1.000  O
  O4       1.0000 0.02123  0.81892  0.12064  Biso   1.000  O
  O5       1.0000 0.14338  0.99558  0.89166  Biso   1.000  O
  O6       1.0000 0.87347  0.60974  0.98312  Biso   1.000  O
  O7       1.0000 0.86276  0.50356  0.11072  Biso   1.000  O
  O8       1.0000 0.95242  0.39718  0.02098  Biso   1.000  O
  O9       1.0000 0.85813  0.68108  0.12064  Biso   1.000  O
  O10      1.0000 0.96496  0.50442  0.89166  Biso   1.000  O
  O11      1.0000 0.46633  0.89026  0.51688  Biso   1.000  O
  O12      1.0000 0.47704  0.99644  0.38928  Biso   1.000  O
  O13      1.0000 0.37058  0.10282  0.47902  Biso   1.000  O
  O14      1.0000 0.65985  0.81892  0.37936  Biso   1.000  O
  O15      1.0000 0.36104  0.99558  0.60834  Biso   1.000  O
  O16      1.0000 0.01679  0.60974  0.51688  Biso   1.000  O
  O17      1.0000 0.13368  0.50356  0.38928  Biso   1.000  O
  O18      1.0000 0.15040  0.39718  0.47902  Biso   1.000  O
  O19      1.0000 0.96079  0.68108  0.37936  Biso   1.000  O
  O20      1.0000 0.03062  0.50442  0.60834  Biso   1.000  O
  O21      1.0000 0.85659  0.10974  0.01688  Biso   1.000  O
  O22      1.0000 0.97348  0.00356  0.88928  Biso   1.000  O
  O23      1.0000 0.97340  0.89718  0.97902  Biso   1.000  O
  O24      1.0000 0.97877  0.18108  0.87936  Biso   1.000  O
  O25      1.0000 0.85662  0.00442  0.10834  Biso   1.000  O
  O26      1.0000 0.12653  0.39026  0.01688  Biso   1.000  O
  O27      1.0000 0.13724  0.49644  0.88928  Biso   1.000  O
  O28      1.0000 0.04758  0.60282  0.97902  Biso   1.000  O
  O29      1.0000 0.14187  0.31892  0.87936  Biso   1.000  O
  O30      1.0000 0.03504  0.49558  0.10834  Biso   1.000  O
  O31      1.0000 0.53367  0.10974  0.48312  Biso   1.000  O
  O32      1.0000 0.52296  0.00356  0.61072  Biso   1.000  O
  O33      1.0000 0.62942  0.89718  0.52098  Biso   1.000  O
  O34      1.0000 0.34015  0.18108  0.62064  Biso   1.000  O
  O35      1.0000 0.63896  0.00442  0.39166  Biso   1.000  O
  O36      1.0000 0.98321  0.39026  0.48312  Biso   1.000  O
  O37      1.0000 0.86632  0.49644  0.61072  Biso   1.000  O
  O38      1.0000 0.84960  0.60282  0.52098  Biso   1.000  O
  O39      1.0000 0.03921  0.31892  0.62064  Biso   1.000  O
  O40      1.0000 0.96938  0.49558  0.39166  Biso   1.000  O
