data_image0
_cell_length_a       11.269
_cell_length_b       11.27
_cell_length_c       20.711
_cell_angle_alpha    77.608
_cell_angle_beta     77.603
_cell_angle_gamma    64.727

_symmetry_space_group_name_H-M    P 1
_symmetry_int_tables_number       1

loop_
  _symmetry_equiv_pos_as_xyz
  'x, y, z'

loop_
  _atom_site_label
  _atom_site_occupancy
  _atom_site_fract_x
  _atom_site_fract_y
  _atom_site_fract_z
  _atom_site_thermal_displace_type
  _atom_site_B_iso_or_equiv
  _atom_site_type_symbol
  Ni1      1.0000 0.63538  0.46531  0.06926  Biso   1.000  Ni
  Ni2      1.0000 0.53470  0.36453  0.43081  Biso   1.000  Ni
  Ni3      1.0000 0.36462  0.53469  0.93074  Biso   1.000  Ni
  Ni4      1.0000 0.46530  0.63547  0.56919  Biso   1.000  Ni
  H1       1.0000 0.69730  0.68510  0.97710  Biso   1.000  H
  H2       1.0000 0.69870  0.88650  0.97640  Biso   1.000  H
  H3       1.0000 0.56870  0.86010  0.17030  Biso   1.000  H
  H4       1.0000 0.56970  0.65880  0.16540  Biso   1.000  H
  H5       1.0000 0.78040  0.02300  0.99480  Biso   1.000  H
  H6       1.0000 0.77750  0.22580  0.99670  Biso   1.000  H
  H7       1.0000 0.50480  0.28490  0.15060  Biso   1.000  H
  H8       1.0000 0.50110  0.08230  0.15450  Biso   1.000  H
  H9       1.0000 0.33940  0.43110  0.33420  Biso   1.000  H
  H10      1.0000 0.14190  0.42890  0.32940  Biso   1.000  H
  H11      1.0000 0.11450  0.30120  0.52380  Biso   1.000  H
  H12      1.0000 0.31500  0.30390  0.52280  Biso   1.000  H
  H13      1.0000 0.71460  0.49440  0.34960  Biso   1.000  H
  H14      1.0000 0.91670  0.49880  0.34540  Biso   1.000  H
  H15      1.0000 0.77480  0.22260  0.50390  Biso   1.000  H
  H16      1.0000 0.97720  0.22020  0.50520  Biso   1.000  H
  H17      1.0000 0.85030  0.27640  0.25830  Biso   1.000  H
  H18      1.0000 0.03640  0.18500  0.31210  Biso   1.000  H
  H19      1.0000 0.25890  0.23690  0.14000  Biso   1.000  H
  H20      1.0000 0.07590  0.31840  0.08510  Biso   1.000  H
  H21      1.0000 0.27470  0.93970  0.24160  Biso   1.000  H
  H22      1.0000 0.35470  0.73240  0.30410  Biso   1.000  H
  H23      1.0000 0.43720  0.88760  0.43620  Biso   1.000  H
  H24      1.0000 0.36260  0.09290  0.37210  Biso   1.000  H
  H25      1.0000 0.11310  0.56240  0.06350  Biso   1.000  H
  H26      1.0000 0.90650  0.63670  0.12830  Biso   1.000  H
  H27      1.0000 0.06020  0.72570  0.25770  Biso   1.000  H
  H28      1.0000 0.26730  0.64290  0.19660  Biso   1.000  H
  H29      1.0000 0.81550  0.96450  0.18780  Biso   1.000  H
  H30      1.0000 0.72410  0.14940  0.24170  Biso   1.000  H
  H31      1.0000 0.68170  0.92410  0.41490  Biso   1.000  H
  H32      1.0000 0.76320  0.74070  0.36000  Biso   1.000  H
  H33      1.0000 0.30270  0.31490  0.02290  Biso   1.000  H
  H34      1.0000 0.30130  0.11350  0.02360  Biso   1.000  H
  H35      1.0000 0.43130  0.13990  0.82970  Biso   1.000  H
  H36      1.0000 0.43030  0.34120  0.83460  Biso   1.000  H
  H37      1.0000 0.21960  0.97700  0.00520  Biso   1.000  H
  H38      1.0000 0.22250  0.77420  0.00330  Biso   1.000  H
  H39      1.0000 0.49520  0.71510  0.84940  Biso   1.000  H
  H40      1.0000 0.49890  0.91770  0.84550  Biso   1.000  H
  H41      1.0000 0.66060  0.56890  0.66580  Biso   1.000  H
  H42      1.0000 0.85810  0.57110  0.67060  Biso   1.000  H
  H43      1.0000 0.88550  0.69880  0.47620  Biso   1.000  H
  H44      1.0000 0.68500  0.69610  0.47720  Biso   1.000  H
  H45      1.0000 0.28540  0.50560  0.65040  Biso   1.000  H
  H46      1.0000 0.08330  0.50120  0.65460  Biso   1.000  H
  H47      1.0000 0.22520  0.77740  0.49610  Biso   1.000  H
  H48      1.0000 0.02280  0.77980  0.49480  Biso   1.000  H
  H49      1.0000 0.14970  0.72360  0.74170  Biso   1.000  H
  H50      1.0000 0.96360  0.81500  0.68790  Biso   1.000  H
  H51      1.0000 0.74110  0.76310  0.86000  Biso   1.000  H
  H52      1.0000 0.92410  0.68160  0.91490  Biso   1.000  H
  H53      1.0000 0.72530  0.06030  0.75840  Biso   1.000  H
  H54      1.0000 0.64530  0.26760  0.69590  Biso   1.000  H
  H55      1.0000 0.56280  0.11240  0.56380  Biso   1.000  H
  H56      1.0000 0.63740  0.90710  0.62790  Biso   1.000  H
  H57      1.0000 0.88690  0.43760  0.93650  Biso   1.000  H
  H58      1.0000 0.09350  0.36330  0.87170  Biso   1.000  H
  H59      1.0000 0.93980  0.27430  0.74230  Biso   1.000  H
  H60      1.0000 0.73270  0.35710  0.80340  Biso   1.000  H
  H61      1.0000 0.18450  0.03550  0.81220  Biso   1.000  H
  H62      1.0000 0.27590  0.85060  0.75830  Biso   1.000  H
  H63      1.0000 0.31830  0.07590  0.58510  Biso   1.000  H
  H64      1.0000 0.23680  0.25930  0.64000  Biso   1.000  H
  C1       1.0000 0.66990  0.72100  0.01690  Biso   1.000  C
  C2       1.0000 0.67160  0.84230  0.01620  Biso   1.000  C
  C3       1.0000 0.63380  0.89870  0.07330  Biso   1.000  C
  C4       1.0000 0.59520  0.82700  0.12980  Biso   1.000  C
  C5       1.0000 0.59590  0.70550  0.12630  Biso   1.000  C
  C6       1.0000 0.63690  0.02930  0.07380  Biso   1.000  C
  C7       1.0000 0.72220  0.07490  0.02680  Biso   1.000  C
  C8       1.0000 0.71950  0.19740  0.02830  Biso   1.000  C
  C9       1.0000 0.56030  0.23180  0.11850  Biso   1.000  C
  C10      1.0000 0.55710  0.11000  0.12100  Biso   1.000  C
  C11      1.0000 0.29340  0.40410  0.37330  Biso   1.000  C
  C12      1.0000 0.17440  0.40360  0.37010  Biso   1.000  C
  C13      1.0000 0.10150  0.36580  0.42670  Biso   1.000  C
  C14      1.0000 0.15840  0.32830  0.48390  Biso   1.000  C
  C15      1.0000 0.27920  0.33050  0.48310  Biso   1.000  C
  C16      1.0000 0.76790  0.43910  0.38170  Biso   1.000  C
  C17      1.0000 0.88950  0.44260  0.37900  Biso   1.000  C
  C18      1.0000 0.97180  0.36250  0.42620  Biso   1.000  C
  C19      1.0000 0.80300  0.28050  0.47200  Biso   1.000  C
  C20      1.0000 0.92540  0.27820  0.47310  Biso   1.000  C
  C21      1.0000 0.82660  0.36310  0.12990  Biso   1.000  C
  C22      1.0000 0.94390  0.30510  0.16620  Biso   1.000  C
  C23      1.0000 0.93270  0.26660  0.23400  Biso   1.000  C
  C24      1.0000 0.04390  0.21320  0.26630  Biso   1.000  C
  C25      1.0000 0.16490  0.20190  0.23060  Biso   1.000  C
  C26      1.0000 0.17700  0.24270  0.16370  Biso   1.000  C
  C27      1.0000 0.06710  0.29280  0.13100  Biso   1.000  C
  C28      1.0000 0.31210  0.03430  0.30100  Biso   1.000  C
  C29      1.0000 0.30890  0.92850  0.28060  Biso   1.000  C
  C30      1.0000 0.35670  0.80460  0.31800  Biso   1.000  C
  C31      1.0000 0.40730  0.78760  0.37620  Biso   1.000  C
  C32      1.0000 0.40630  0.89710  0.39640  Biso   1.000  C
  C33      1.0000 0.36060  0.02030  0.35860  Biso   1.000  C
  C34      1.0000 0.46170  0.65260  0.41690  Biso   1.000  C
  C35      1.0000 0.34730  0.53890  0.08350  Biso   1.000  C
  C36      1.0000 0.21160  0.59320  0.12340  Biso   1.000  C
  C37      1.0000 0.10340  0.59320  0.10330  Biso   1.000  C
  C38      1.0000 0.97910  0.63890  0.14170  Biso   1.000  C
  C39      1.0000 0.96580  0.68670  0.19920  Biso   1.000  C
  C40      1.0000 0.07140  0.69050  0.21900  Biso   1.000  C
  C41      1.0000 0.19480  0.64240  0.18210  Biso   1.000  C
  C42      1.0000 0.79770  0.83500  0.26960  Biso   1.000  C
  C43      1.0000 0.78700  0.95690  0.23350  Biso   1.000  C
  C44      1.0000 0.73390  0.06680  0.26590  Biso   1.000  C
  C45      1.0000 0.69490  0.05530  0.33400  Biso   1.000  C
  C46      1.0000 0.70720  0.93280  0.36900  Biso   1.000  C
  C47      1.0000 0.75730  0.82260  0.33630  Biso   1.000  C
  C48      1.0000 0.63740  0.17280  0.37050  Biso   1.000  C
  C49      1.0000 0.33010  0.27900  0.98310  Biso   1.000  C
  C50      1.0000 0.32840  0.15770  0.98380  Biso   1.000  C
  C51      1.0000 0.36620  0.10130  0.92670  Biso   1.000  C
  C52      1.0000 0.40480  0.17300  0.87020  Biso   1.000  C
  C53      1.0000 0.40410  0.29450  0.87370  Biso   1.000  C
  C54      1.0000 0.36310  0.97070  0.92620  Biso   1.000  C
  C55      1.0000 0.27780  0.92510  0.97320  Biso   1.000  C
  C56      1.0000 0.28050  0.80260  0.97170  Biso   1.000  C
  C57      1.0000 0.43970  0.76820  0.88150  Biso   1.000  C
  C58      1.0000 0.44290  0.89000  0.87900  Biso   1.000  C
  C59      1.0000 0.70660  0.59590  0.62670  Biso   1.000  C
  C60      1.0000 0.82560  0.59640  0.62990  Biso   1.000  C
  C61      1.0000 0.89850  0.63420  0.57330  Biso   1.000  C
  C62      1.0000 0.84160  0.67170  0.51610  Biso   1.000  C
  C63      1.0000 0.72080  0.66950  0.51690  Biso   1.000  C
  C64      1.0000 0.23210  0.56090  0.61830  Biso   1.000  C
  C65      1.0000 0.11050  0.55740  0.62100  Biso   1.000  C
  C66      1.0000 0.02820  0.63750  0.57380  Biso   1.000  C
  C67      1.0000 0.19700  0.71950  0.52800  Biso   1.000  C
  C68      1.0000 0.07460  0.72180  0.52690  Biso   1.000  C
  C69      1.0000 0.17340  0.63690  0.87010  Biso   1.000  C
  C70      1.0000 0.05610  0.69490  0.83380  Biso   1.000  C
  C71      1.0000 0.06730  0.73340  0.76600  Biso   1.000  C
  C72      1.0000 0.95610  0.78680  0.73370  Biso   1.000  C
  C73      1.0000 0.83510  0.79810  0.76940  Biso   1.000  C
  C74      1.0000 0.82300  0.75730  0.83630  Biso   1.000  C
  C75      1.0000 0.93290  0.70720  0.86900  Biso   1.000  C
  C76      1.0000 0.68790  0.96570  0.69900  Biso   1.000  C
  C77      1.0000 0.69110  0.07150  0.71940  Biso   1.000  C
  C78      1.0000 0.64330  0.19540  0.68200  Biso   1.000  C
  C79      1.0000 0.59270  0.21240  0.62380  Biso   1.000  C
  C80      1.0000 0.59370  0.10290  0.60360  Biso   1.000  C
  C81      1.0000 0.63940  0.97970  0.64140  Biso   1.000  C
  C82      1.0000 0.53830  0.34740  0.58310  Biso   1.000  C
  C83      1.0000 0.65270  0.46110  0.91650  Biso   1.000  C
  C84      1.0000 0.78840  0.40680  0.87660  Biso   1.000  C
  C85      1.0000 0.89660  0.40680  0.89670  Biso   1.000  C
  C86      1.0000 0.02090  0.36110  0.85830  Biso   1.000  C
  C87      1.0000 0.03420  0.31330  0.80080  Biso   1.000  C
  C88      1.0000 0.92860  0.30950  0.78100  Biso   1.000  C
  C89      1.0000 0.80520  0.35760  0.81790  Biso   1.000  C
  C90      1.0000 0.20230  0.16500  0.73040  Biso   1.000  C
  C91      1.0000 0.21300  0.04310  0.76650  Biso   1.000  C
  C92      1.0000 0.26610  0.93320  0.73410  Biso   1.000  C
  C93      1.0000 0.30510  0.94470  0.66600  Biso   1.000  C
  C94      1.0000 0.29280  0.06720  0.63100  Biso   1.000  C
  C95      1.0000 0.24270  0.17740  0.66370  Biso   1.000  C
  C96      1.0000 0.36260  0.82720  0.62950  Biso   1.000  C
  N1       1.0000 0.63130  0.65240  0.07117  Biso   1.000  N
  N2       1.0000 0.63930  0.27740  0.07206  Biso   1.000  N
  N3       1.0000 0.34760  0.36830  0.42890  Biso   1.000  N
  N4       1.0000 0.72270  0.36040  0.42809  Biso   1.000  N
  N5       1.0000 0.36870  0.34760  0.92883  Biso   1.000  N
  N6       1.0000 0.36070  0.72260  0.92794  Biso   1.000  N
  N7       1.0000 0.65240  0.63170  0.57110  Biso   1.000  N
  N8       1.0000 0.27730  0.63960  0.57191  Biso   1.000  N
  O1       1.0000 0.84330  0.38260  0.06722  Biso   1.000  O
  O2       1.0000 0.71160  0.39300  0.16192  Biso   1.000  O
  O3       1.0000 0.44160  0.54010  0.10516  Biso   1.000  O
  O4       1.0000 0.35700  0.49130  0.03180  Biso   1.000  O
  O5       1.0000 0.45990  0.55830  0.39471  Biso   1.000  O
  O6       1.0000 0.50810  0.64300  0.46816  Biso   1.000  O
  O7       1.0000 0.60710  0.28790  0.33813  Biso   1.000  O
  O8       1.0000 0.61730  0.15650  0.43298  Biso   1.000  O
  O9       1.0000 0.27550  0.15840  0.26240  Biso   1.000  O
  O10      1.0000 0.84120  0.72420  0.23790  Biso   1.000  O
  O11      1.0000 0.15670  0.61740  0.93278  Biso   1.000  O
  O12      1.0000 0.28840  0.60700  0.83808  Biso   1.000  O
  O13      1.0000 0.55840  0.45990  0.89484  Biso   1.000  O
  O14      1.0000 0.64300  0.50870  0.96820  Biso   1.000  O
  O15      1.0000 0.54010  0.44170  0.60529  Biso   1.000  O
  O16      1.0000 0.49190  0.35700  0.53184  Biso   1.000  O
  O17      1.0000 0.39290  0.71210  0.66187  Biso   1.000  O
  O18      1.0000 0.38270  0.84350  0.56702  Biso   1.000  O
  O19      1.0000 0.72450  0.84160  0.73760  Biso   1.000  O
  O20      1.0000 0.15880  0.27580  0.76210  Biso   1.000  O
