data_image0
_cell_length_a       11.431
_cell_length_b       11.431
_cell_length_c       46.6
_cell_angle_alpha    90
_cell_angle_beta     90
_cell_angle_gamma    120

_symmetry_space_group_name_H-M    P 1
_symmetry_int_tables_number       1

loop_
  _symmetry_equiv_pos_as_xyz
  'x, y, z'

loop_
  _atom_site_label
  _atom_site_occupancy
  _atom_site_fract_x
  _atom_site_fract_y
  _atom_site_fract_z
  _atom_site_thermal_displace_type
  _atom_site_B_iso_or_equiv
  _atom_site_type_symbol
  Co1      1.0000 0.01001  0.99939  0.00000  Biso   1.000  Co
  Co2      1.0000 0.34068  0.65979  0.92076  Biso   1.000  Co
  Co3      1.0000 0.98938  0.98999  0.66667  Biso   1.000  Co
  Co4      1.0000 0.31911  0.65932  0.58743  Biso   1.000  Co
  Co5      1.0000 0.00061  0.01062  0.33333  Biso   1.000  Co
  Co6      1.0000 0.34021  0.68089  0.25409  Biso   1.000  Co
  Co7      1.0000 0.98999  0.00061  0.50000  Biso   1.000  Co
  Co8      1.0000 0.65932  0.34021  0.42076  Biso   1.000  Co
  Co9      1.0000 0.01062  0.01001  0.16667  Biso   1.000  Co
  Co10     1.0000 0.68089  0.34068  0.08743  Biso   1.000  Co
  Co11     1.0000 0.99939  0.98938  0.83333  Biso   1.000  Co
  Co12     1.0000 0.65979  0.31911  0.75409  Biso   1.000  Co
  P1       1.0000 0.01060  0.00170  0.94873  Biso   1.000  P
  P2       1.0000 0.33220  0.65210  0.86941  Biso   1.000  P
  P3       1.0000 0.99110  0.98940  0.61540  Biso   1.000  P
  P4       1.0000 0.31990  0.66780  0.53608  Biso   1.000  P
  P5       1.0000 0.99830  0.00890  0.28206  Biso   1.000  P
  P6       1.0000 0.34790  0.68010  0.20274  Biso   1.000  P
  P7       1.0000 0.98940  0.99830  0.44873  Biso   1.000  P
  P8       1.0000 0.66780  0.34790  0.36941  Biso   1.000  P
  P9       1.0000 0.00890  0.01060  0.11540  Biso   1.000  P
  P10      1.0000 0.68010  0.33220  0.03608  Biso   1.000  P
  P11      1.0000 0.00170  0.99110  0.78206  Biso   1.000  P
  P12      1.0000 0.65210  0.31990  0.70274  Biso   1.000  P
  H1       1.0000 0.80540  0.98050  0.93430  Biso   1.000  H
  H2       1.0000 0.85200  0.91030  0.91180  Biso   1.000  H
  H3       1.0000 0.78380  0.72510  0.94390  Biso   1.000  H
  H4       1.0000 0.73200  0.79470  0.96550  Biso   1.000  H
  H5       1.0000 0.02580  0.81770  0.93120  Biso   1.000  H
  H6       1.0000 0.11190  0.94460  0.91180  Biso   1.000  H
  H7       1.0000 0.28310  0.03650  0.94800  Biso   1.000  H
  H8       1.0000 0.19720  0.90810  0.96700  Biso   1.000  H
  H9       1.0000 0.19380  0.20550  0.93330  Biso   1.000  H
  H10      1.0000 0.07250  0.16140  0.91210  Biso   1.000  H
  H11      1.0000 0.96820  0.23750  0.94400  Biso   1.000  H
  H12      1.0000 0.08220  0.27330  0.96670  Biso   1.000  H
  H13      1.0000 0.12470  0.46130  0.86070  Biso   1.000  H
  H14      1.0000 0.21390  0.50030  0.83300  Biso   1.000  H
  H15      1.0000 0.24810  0.36840  0.88040  Biso   1.000  H
  H16      1.0000 0.33570  0.40610  0.85240  Biso   1.000  H
  H17      1.0000 0.52090  0.63260  0.85870  Biso   1.000  H
  H18      1.0000 0.47500  0.67800  0.83120  Biso   1.000  H
  H19      1.0000 0.61030  0.85470  0.87730  Biso   1.000  H
  H20      1.0000 0.57390  0.89780  0.84820  Biso   1.000  H
  H21      1.0000 0.35340  0.85840  0.85670  Biso   1.000  H
  H22      1.0000 0.29700  0.75860  0.83070  Biso   1.000  H
  H23      1.0000 0.08100  0.64950  0.85110  Biso   1.000  H
  H24      1.0000 0.13580  0.74150  0.87840  Biso   1.000  H
  H25      1.0000 0.17510  0.19460  0.60097  Biso   1.000  H
  H26      1.0000 0.05830  0.14800  0.57847  Biso   1.000  H
  H27      1.0000 0.94130  0.21620  0.61057  Biso   1.000  H
  H28      1.0000 0.06270  0.26800  0.63217  Biso   1.000  H
  H29      1.0000 0.79190  0.97420  0.59787  Biso   1.000  H
  H30      1.0000 0.83270  0.88810  0.57847  Biso   1.000  H
  H31      1.0000 0.75340  0.71690  0.61467  Biso   1.000  H
  H32      1.0000 0.71090  0.80280  0.63367  Biso   1.000  H
  H33      1.0000 0.01170  0.80620  0.59997  Biso   1.000  H
  H34      1.0000 0.08890  0.92750  0.57877  Biso   1.000  H
  H35      1.0000 0.26930  0.03180  0.61067  Biso   1.000  H
  H36      1.0000 0.19110  0.91780  0.63337  Biso   1.000  H
  H37      1.0000 0.33660  0.87530  0.52737  Biso   1.000  H
  H38      1.0000 0.28640  0.78610  0.49967  Biso   1.000  H
  H39      1.0000 0.12030  0.75190  0.54707  Biso   1.000  H
  H40      1.0000 0.07040  0.66430  0.51907  Biso   1.000  H
  H41      1.0000 0.11170  0.47910  0.52537  Biso   1.000  H
  H42      1.0000 0.20300  0.52500  0.49787  Biso   1.000  H
  H43      1.0000 0.24440  0.38970  0.54397  Biso   1.000  H
  H44      1.0000 0.32390  0.42610  0.51487  Biso   1.000  H
  H45      1.0000 0.50500  0.64660  0.52337  Biso   1.000  H
  H46      1.0000 0.46160  0.70300  0.49737  Biso   1.000  H
  H47      1.0000 0.56850  0.91900  0.51777  Biso   1.000  H
  H48      1.0000 0.60570  0.86420  0.54507  Biso   1.000  H
  H49      1.0000 0.01950  0.82490  0.26763  Biso   1.000  H
  H50      1.0000 0.08970  0.94170  0.24513  Biso   1.000  H
  H51      1.0000 0.27490  0.05870  0.27723  Biso   1.000  H
  H52      1.0000 0.20530  0.93730  0.29883  Biso   1.000  H
  H53      1.0000 0.18230  0.20810  0.26453  Biso   1.000  H
  H54      1.0000 0.05540  0.16730  0.24513  Biso   1.000  H
  H55      1.0000 0.96350  0.24660  0.28133  Biso   1.000  H
  H56      1.0000 0.09190  0.28910  0.30033  Biso   1.000  H
  H57      1.0000 0.79450  0.98830  0.26663  Biso   1.000  H
  H58      1.0000 0.83860  0.91110  0.24543  Biso   1.000  H
  H59      1.0000 0.76250  0.73070  0.27733  Biso   1.000  H
  H60      1.0000 0.72670  0.80890  0.30003  Biso   1.000  H
  H61      1.0000 0.53870  0.66340  0.19403  Biso   1.000  H
  H62      1.0000 0.49970  0.71360  0.16633  Biso   1.000  H
  H63      1.0000 0.63160  0.87970  0.21373  Biso   1.000  H
  H64      1.0000 0.59390  0.92960  0.18573  Biso   1.000  H
  H65      1.0000 0.36740  0.88830  0.19203  Biso   1.000  H
  H66      1.0000 0.32200  0.79700  0.16453  Biso   1.000  H
  H67      1.0000 0.14530  0.75560  0.21063  Biso   1.000  H
  H68      1.0000 0.10220  0.67610  0.18153  Biso   1.000  H
  H69      1.0000 0.14160  0.49500  0.19003  Biso   1.000  H
  H70      1.0000 0.24140  0.53840  0.16403  Biso   1.000  H
  H71      1.0000 0.35050  0.43150  0.18443  Biso   1.000  H
  H72      1.0000 0.25850  0.39430  0.21173  Biso   1.000  H
  H73      1.0000 0.19460  0.01950  0.43430  Biso   1.000  H
  H74      1.0000 0.14800  0.08970  0.41180  Biso   1.000  H
  H75      1.0000 0.21620  0.27490  0.44390  Biso   1.000  H
  H76      1.0000 0.26800  0.20530  0.46550  Biso   1.000  H
  H77      1.0000 0.97420  0.18230  0.43120  Biso   1.000  H
  H78      1.0000 0.88810  0.05540  0.41180  Biso   1.000  H
  H79      1.0000 0.71690  0.96350  0.44800  Biso   1.000  H
  H80      1.0000 0.80280  0.09190  0.46700  Biso   1.000  H
  H81      1.0000 0.80620  0.79450  0.43330  Biso   1.000  H
  H82      1.0000 0.92750  0.83860  0.41210  Biso   1.000  H
  H83      1.0000 0.03180  0.76250  0.44400  Biso   1.000  H
  H84      1.0000 0.91780  0.72670  0.46670  Biso   1.000  H
  H85      1.0000 0.87530  0.53870  0.36070  Biso   1.000  H
  H86      1.0000 0.78610  0.49970  0.33300  Biso   1.000  H
  H87      1.0000 0.75190  0.63160  0.38040  Biso   1.000  H
  H88      1.0000 0.66430  0.59390  0.35240  Biso   1.000  H
  H89      1.0000 0.47910  0.36740  0.35870  Biso   1.000  H
  H90      1.0000 0.52500  0.32200  0.33120  Biso   1.000  H
  H91      1.0000 0.38970  0.14530  0.37730  Biso   1.000  H
  H92      1.0000 0.42610  0.10220  0.34820  Biso   1.000  H
  H93      1.0000 0.64660  0.14160  0.35670  Biso   1.000  H
  H94      1.0000 0.70300  0.24140  0.33070  Biso   1.000  H
  H95      1.0000 0.91900  0.35050  0.35110  Biso   1.000  H
  H96      1.0000 0.86420  0.25850  0.37840  Biso   1.000  H
  H97      1.0000 0.82490  0.80540  0.10097  Biso   1.000  H
  H98      1.0000 0.94170  0.85200  0.07847  Biso   1.000  H
  H99      1.0000 0.05870  0.78380  0.11057  Biso   1.000  H
  H100     1.0000 0.93730  0.73200  0.13217  Biso   1.000  H
  H101     1.0000 0.20810  0.02580  0.09787  Biso   1.000  H
  H102     1.0000 0.16730  0.11190  0.07847  Biso   1.000  H
  H103     1.0000 0.24660  0.28310  0.11467  Biso   1.000  H
  H104     1.0000 0.28910  0.19720  0.13367  Biso   1.000  H
  H105     1.0000 0.98830  0.19380  0.09997  Biso   1.000  H
  H106     1.0000 0.91110  0.07250  0.07877  Biso   1.000  H
  H107     1.0000 0.73070  0.96820  0.11067  Biso   1.000  H
  H108     1.0000 0.80890  0.08220  0.13337  Biso   1.000  H
  H109     1.0000 0.66340  0.12470  0.02737  Biso   1.000  H
  H110     1.0000 0.71360  0.21390  0.99967  Biso   1.000  H
  H111     1.0000 0.87970  0.24810  0.04707  Biso   1.000  H
  H112     1.0000 0.92960  0.33570  0.01907  Biso   1.000  H
  H113     1.0000 0.88830  0.52090  0.02537  Biso   1.000  H
  H114     1.0000 0.79700  0.47500  0.99787  Biso   1.000  H
  H115     1.0000 0.75560  0.61030  0.04397  Biso   1.000  H
  H116     1.0000 0.67610  0.57390  0.01487  Biso   1.000  H
  H117     1.0000 0.49500  0.35340  0.02337  Biso   1.000  H
  H118     1.0000 0.53840  0.29700  0.99737  Biso   1.000  H
  H119     1.0000 0.43150  0.08100  0.01777  Biso   1.000  H
  H120     1.0000 0.39430  0.13580  0.04507  Biso   1.000  H
  H121     1.0000 0.98050  0.17510  0.76763  Biso   1.000  H
  H122     1.0000 0.91030  0.05830  0.74513  Biso   1.000  H
  H123     1.0000 0.72510  0.94130  0.77723  Biso   1.000  H
  H124     1.0000 0.79470  0.06270  0.79883  Biso   1.000  H
  H125     1.0000 0.81770  0.79190  0.76453  Biso   1.000  H
  H126     1.0000 0.94460  0.83270  0.74513  Biso   1.000  H
  H127     1.0000 0.03650  0.75340  0.78133  Biso   1.000  H
  H128     1.0000 0.90810  0.71090  0.80033  Biso   1.000  H
  H129     1.0000 0.20550  0.01170  0.76663  Biso   1.000  H
  H130     1.0000 0.16140  0.08890  0.74543  Biso   1.000  H
  H131     1.0000 0.23750  0.26930  0.77733  Biso   1.000  H
  H132     1.0000 0.27330  0.19110  0.80003  Biso   1.000  H
  H133     1.0000 0.46130  0.33660  0.69403  Biso   1.000  H
  H134     1.0000 0.50030  0.28640  0.66633  Biso   1.000  H
  H135     1.0000 0.36840  0.12030  0.71373  Biso   1.000  H
  H136     1.0000 0.40610  0.07040  0.68573  Biso   1.000  H
  H137     1.0000 0.63260  0.11170  0.69203  Biso   1.000  H
  H138     1.0000 0.67800  0.20300  0.66453  Biso   1.000  H
  H139     1.0000 0.85470  0.24440  0.71063  Biso   1.000  H
  H140     1.0000 0.89780  0.32390  0.68153  Biso   1.000  H
  H141     1.0000 0.85840  0.50500  0.69003  Biso   1.000  H
  H142     1.0000 0.75860  0.46160  0.66403  Biso   1.000  H
  H143     1.0000 0.64950  0.56850  0.68443  Biso   1.000  H
  H144     1.0000 0.74150  0.60570  0.71173  Biso   1.000  H
  C1       1.0000 0.84310  0.92160  0.93220  Biso   1.000  C
  C2       1.0000 0.74520  0.78360  0.94530  Biso   1.000  C
  C3       1.0000 0.60970  0.71840  0.92990  Biso   1.000  C
  C4       1.0000 0.08960  0.91400  0.93150  Biso   1.000  C
  C5       1.0000 0.21940  0.94010  0.94740  Biso   1.000  C
  C6       1.0000 0.28480  0.86760  0.93240  Biso   1.000  C
  C7       1.0000 0.09710  0.16990  0.93230  Biso   1.000  C
  C8       1.0000 0.06390  0.26980  0.94630  Biso   1.000  C
  C9       1.0000 0.14230  0.40940  0.93420  Biso   1.000  C
  C10      1.0000 0.21480  0.48940  0.85360  Biso   1.000  C
  C11      1.0000 0.24640  0.37930  0.85970  Biso   1.000  C
  C12      1.0000 0.14640  0.24520  0.84670  Biso   1.000  C
  C13      1.0000 0.49070  0.69300  0.85170  Biso   1.000  C
  C14      1.0000 0.60050  0.83730  0.85680  Biso   1.000  C
  C15      1.0000 0.73530  0.86750  0.84450  Biso   1.000  C
  C16      1.0000 0.28880  0.76630  0.85120  Biso   1.000  C
  C17      1.0000 0.14630  0.73910  0.85780  Biso   1.000  C
  C18      1.0000 0.11740  0.84170  0.84380  Biso   1.000  C
  C19      1.0000 0.07850  0.15690  0.59887  Biso   1.000  C
  C20      1.0000 0.03840  0.25480  0.61197  Biso   1.000  C
  C21      1.0000 0.10870  0.39030  0.59657  Biso   1.000  C
  C22      1.0000 0.82440  0.91040  0.59817  Biso   1.000  C
  C23      1.0000 0.72070  0.78060  0.61407  Biso   1.000  C
  C24      1.0000 0.58280  0.71520  0.59907  Biso   1.000  C
  C25      1.0000 0.07280  0.90290  0.59897  Biso   1.000  C
  C26      1.0000 0.20590  0.93610  0.61297  Biso   1.000  C
  C27      1.0000 0.26710  0.85770  0.60087  Biso   1.000  C
  C28      1.0000 0.27460  0.78520  0.52027  Biso   1.000  C
  C29      1.0000 0.13290  0.75360  0.52637  Biso   1.000  C
  C30      1.0000 0.09880  0.85360  0.51337  Biso   1.000  C
  C31      1.0000 0.20230  0.50930  0.51837  Biso   1.000  C
  C32      1.0000 0.23680  0.39950  0.52347  Biso   1.000  C
  C33      1.0000 0.13220  0.26470  0.51117  Biso   1.000  C
  C34      1.0000 0.47750  0.71120  0.51787  Biso   1.000  C
  C35      1.0000 0.59280  0.85370  0.52447  Biso   1.000  C
  C36      1.0000 0.72430  0.88260  0.51047  Biso   1.000  C
  C37      1.0000 0.07840  0.92150  0.26553  Biso   1.000  C
  C38      1.0000 0.21640  0.96160  0.27863  Biso   1.000  C
  C39      1.0000 0.28160  0.89130  0.26323  Biso   1.000  C
  C40      1.0000 0.08600  0.17560  0.26483  Biso   1.000  C
  C41      1.0000 0.05990  0.27930  0.28073  Biso   1.000  C
  C42      1.0000 0.13240  0.41720  0.26573  Biso   1.000  C
  C43      1.0000 0.83010  0.92720  0.26563  Biso   1.000  C
  C44      1.0000 0.73020  0.79410  0.27963  Biso   1.000  C
  C45      1.0000 0.59060  0.73290  0.26753  Biso   1.000  C
  C46      1.0000 0.51060  0.72540  0.18693  Biso   1.000  C
  C47      1.0000 0.62070  0.86710  0.19303  Biso   1.000  C
  C48      1.0000 0.75480  0.90120  0.18003  Biso   1.000  C
  C49      1.0000 0.30700  0.79770  0.18503  Biso   1.000  C
  C50      1.0000 0.16270  0.76320  0.19013  Biso   1.000  C
  C51      1.0000 0.13250  0.86780  0.17783  Biso   1.000  C
  C52      1.0000 0.23370  0.52250  0.18453  Biso   1.000  C
  C53      1.0000 0.26090  0.40720  0.19113  Biso   1.000  C
  C54      1.0000 0.15830  0.27570  0.17713  Biso   1.000  C
  C55      1.0000 0.15690  0.07840  0.43220  Biso   1.000  C
  C56      1.0000 0.25480  0.21640  0.44530  Biso   1.000  C
  C57      1.0000 0.39030  0.28160  0.42990  Biso   1.000  C
  C58      1.0000 0.91040  0.08600  0.43150  Biso   1.000  C
  C59      1.0000 0.78060  0.05990  0.44740  Biso   1.000  C
  C60      1.0000 0.71520  0.13240  0.43240  Biso   1.000  C
  C61      1.0000 0.90290  0.83010  0.43230  Biso   1.000  C
  C62      1.0000 0.93610  0.73020  0.44630  Biso   1.000  C
  C63      1.0000 0.85770  0.59060  0.43420  Biso   1.000  C
  C64      1.0000 0.78520  0.51060  0.35360  Biso   1.000  C
  C65      1.0000 0.75360  0.62070  0.35970  Biso   1.000  C
  C66      1.0000 0.85360  0.75480  0.34670  Biso   1.000  C
  C67      1.0000 0.50930  0.30700  0.35170  Biso   1.000  C
  C68      1.0000 0.39950  0.16270  0.35680  Biso   1.000  C
  C69      1.0000 0.26470  0.13250  0.34450  Biso   1.000  C
  C70      1.0000 0.71120  0.23370  0.35120  Biso   1.000  C
  C71      1.0000 0.85370  0.26090  0.35780  Biso   1.000  C
  C72      1.0000 0.88260  0.15830  0.34380  Biso   1.000  C
  C73      1.0000 0.92150  0.84310  0.09887  Biso   1.000  C
  C74      1.0000 0.96160  0.74520  0.11197  Biso   1.000  C
  C75      1.0000 0.89130  0.60970  0.09657  Biso   1.000  C
  C76      1.0000 0.17560  0.08960  0.09817  Biso   1.000  C
  C77      1.0000 0.27930  0.21940  0.11407  Biso   1.000  C
  C78      1.0000 0.41720  0.28480  0.09907  Biso   1.000  C
  C79      1.0000 0.92720  0.09710  0.09897  Biso   1.000  C
  C80      1.0000 0.79410  0.06390  0.11297  Biso   1.000  C
  C81      1.0000 0.73290  0.14230  0.10087  Biso   1.000  C
  C82      1.0000 0.72540  0.21480  0.02027  Biso   1.000  C
  C83      1.0000 0.86710  0.24640  0.02637  Biso   1.000  C
  C84      1.0000 0.90120  0.14640  0.01337  Biso   1.000  C
  C85      1.0000 0.79770  0.49070  0.01837  Biso   1.000  C
  C86      1.0000 0.76320  0.60050  0.02347  Biso   1.000  C
  C87      1.0000 0.86780  0.73530  0.01117  Biso   1.000  C
  C88      1.0000 0.52250  0.28880  0.01787  Biso   1.000  C
  C89      1.0000 0.40720  0.14630  0.02447  Biso   1.000  C
  C90      1.0000 0.27570  0.11740  0.01047  Biso   1.000  C
  C91      1.0000 0.92160  0.07850  0.76553  Biso   1.000  C
  C92      1.0000 0.78360  0.03840  0.77863  Biso   1.000  C
  C93      1.0000 0.71840  0.10870  0.76323  Biso   1.000  C
  C94      1.0000 0.91400  0.82440  0.76483  Biso   1.000  C
  C95      1.0000 0.94010  0.72070  0.78073  Biso   1.000  C
  C96      1.0000 0.86760  0.58280  0.76573  Biso   1.000  C
  C97      1.0000 0.16990  0.07280  0.76563  Biso   1.000  C
  C98      1.0000 0.26980  0.20590  0.77963  Biso   1.000  C
  C99      1.0000 0.40940  0.26710  0.76753  Biso   1.000  C
  C100     1.0000 0.48940  0.27460  0.68693  Biso   1.000  C
  C101     1.0000 0.37930  0.13290  0.69303  Biso   1.000  C
  C102     1.0000 0.24520  0.09880  0.68003  Biso   1.000  C
  C103     1.0000 0.69300  0.20230  0.68503  Biso   1.000  C
  C104     1.0000 0.83730  0.23680  0.69013  Biso   1.000  C
  C105     1.0000 0.86750  0.13220  0.67783  Biso   1.000  C
  C106     1.0000 0.76630  0.47750  0.68453  Biso   1.000  C
  C107     1.0000 0.73910  0.59280  0.69113  Biso   1.000  C
  C108     1.0000 0.84170  0.72430  0.67713  Biso   1.000  C
  O1       1.0000 0.52530  0.75550  0.93790  Biso   1.000  O
  O2       1.0000 0.58320  0.63500  0.91100  Biso   1.000  O
  O3       1.0000 0.25610  0.75130  0.94210  Biso   1.000  O
  O4       1.0000 0.36160  0.92020  0.91180  Biso   1.000  O
  O5       1.0000 0.26950  0.47730  0.93840  Biso   1.000  O
  O6       1.0000 0.08730  0.46070  0.92040  Biso   1.000  O
  O7       1.0000 0.15590  0.14290  0.85410  Biso   1.000  O
  O8       1.0000 0.05720  0.23370  0.83000  Biso   1.000  O
  O9       1.0000 0.83740  0.97690  0.85330  Biso   1.000  O
  O10      1.0000 0.74640  0.79480  0.82670  Biso   1.000  O
  O11      1.0000 0.01250  0.84190  0.85300  Biso   1.000  O
  O12      1.0000 0.18780  0.91720  0.82420  Biso   1.000  O
  O13      1.0000 0.23020  0.47470  0.60457  Biso   1.000  O
  O14      1.0000 0.05180  0.41680  0.57767  Biso   1.000  O
  O15      1.0000 0.49520  0.74390  0.60877  Biso   1.000  O
  O16      1.0000 0.55860  0.63840  0.57847  Biso   1.000  O
  O17      1.0000 0.20780  0.73050  0.60507  Biso   1.000  O
  O18      1.0000 0.37340  0.91270  0.58707  Biso   1.000  O
  O19      1.0000 0.98700  0.84410  0.52077  Biso   1.000  O
  O20      1.0000 0.17650  0.94280  0.49667  Biso   1.000  O
  O21      1.0000 0.13950  0.16260  0.51997  Biso   1.000  O
  O22      1.0000 0.04840  0.25360  0.49337  Biso   1.000  O
  O23      1.0000 0.82940  0.98750  0.51967  Biso   1.000  O
  O24      1.0000 0.72940  0.81220  0.49087  Biso   1.000  O
  O25      1.0000 0.24450  0.76980  0.27123  Biso   1.000  O
  O26      1.0000 0.36500  0.94820  0.24433  Biso   1.000  O
  O27      1.0000 0.24870  0.50480  0.27543  Biso   1.000  O
  O28      1.0000 0.07980  0.44140  0.24513  Biso   1.000  O
  O29      1.0000 0.52270  0.79220  0.27173  Biso   1.000  O
  O30      1.0000 0.53930  0.62660  0.25373  Biso   1.000  O
  O31      1.0000 0.85710  0.01300  0.18743  Biso   1.000  O
  O32      1.0000 0.76630  0.82350  0.16333  Biso   1.000  O
  O33      1.0000 0.02310  0.86050  0.18663  Biso   1.000  O
  O34      1.0000 0.20520  0.95160  0.16003  Biso   1.000  O
  O35      1.0000 0.15810  0.17060  0.18633  Biso   1.000  O
  O36      1.0000 0.08280  0.27060  0.15753  Biso   1.000  O
  O37      1.0000 0.47470  0.24450  0.43790  Biso   1.000  O
  O38      1.0000 0.41680  0.36500  0.41100  Biso   1.000  O
  O39      1.0000 0.74390  0.24870  0.44210  Biso   1.000  O
  O40      1.0000 0.63840  0.07980  0.41180  Biso   1.000  O
  O41      1.0000 0.73050  0.52270  0.43840  Biso   1.000  O
  O42      1.0000 0.91270  0.53930  0.42040  Biso   1.000  O
  O43      1.0000 0.84410  0.85710  0.35410  Biso   1.000  O
  O44      1.0000 0.94280  0.76630  0.33000  Biso   1.000  O
  O45      1.0000 0.16260  0.02310  0.35330  Biso   1.000  O
  O46      1.0000 0.25360  0.20520  0.32670  Biso   1.000  O
  O47      1.0000 0.98750  0.15810  0.35300  Biso   1.000  O
  O48      1.0000 0.81220  0.08280  0.32420  Biso   1.000  O
  O49      1.0000 0.76980  0.52530  0.10457  Biso   1.000  O
  O50      1.0000 0.94820  0.58320  0.07767  Biso   1.000  O
  O51      1.0000 0.50480  0.25610  0.10877  Biso   1.000  O
  O52      1.0000 0.44140  0.36160  0.07847  Biso   1.000  O
  O53      1.0000 0.79220  0.26950  0.10507  Biso   1.000  O
  O54      1.0000 0.62660  0.08730  0.08707  Biso   1.000  O
  O55      1.0000 0.01300  0.15590  0.02077  Biso   1.000  O
  O56      1.0000 0.82350  0.05720  0.99667  Biso   1.000  O
  O57      1.0000 0.86050  0.83740  0.01997  Biso   1.000  O
  O58      1.0000 0.95160  0.74640  0.99337  Biso   1.000  O
  O59      1.0000 0.17060  0.01250  0.01967  Biso   1.000  O
  O60      1.0000 0.27060  0.18780  0.99087  Biso   1.000  O
  O61      1.0000 0.75550  0.23020  0.77123  Biso   1.000  O
  O62      1.0000 0.63500  0.05180  0.74433  Biso   1.000  O
  O63      1.0000 0.75130  0.49520  0.77543  Biso   1.000  O
  O64      1.0000 0.92020  0.55860  0.74513  Biso   1.000  O
  O65      1.0000 0.47730  0.20780  0.77173  Biso   1.000  O
  O66      1.0000 0.46070  0.37340  0.75373  Biso   1.000  O
  O67      1.0000 0.14290  0.98700  0.68743  Biso   1.000  O
  O68      1.0000 0.23370  0.17650  0.66333  Biso   1.000  O
  O69      1.0000 0.97690  0.13950  0.68663  Biso   1.000  O
  O70      1.0000 0.79480  0.04840  0.66003  Biso   1.000  O
  O71      1.0000 0.84190  0.82940  0.68633  Biso   1.000  O
  O72      1.0000 0.91720  0.72940  0.65753  Biso   1.000  O
