data_image0
_cell_length_a       13.5424
_cell_length_b       13.5424
_cell_length_c       13.5424
_cell_angle_alpha    102.858
_cell_angle_beta     102.858
_cell_angle_gamma    102.858

_symmetry_space_group_name_H-M    P 1
_symmetry_int_tables_number       1

loop_
  _symmetry_equiv_pos_as_xyz
  'x, y, z'

loop_
  _atom_site_label
  _atom_site_occupancy
  _atom_site_fract_x
  _atom_site_fract_y
  _atom_site_fract_z
  _atom_site_thermal_displace_type
  _atom_site_B_iso_or_equiv
  _atom_site_type_symbol
  Cr1      1.0000 0.00000  0.21030  0.78970  Biso   1.000  Cr
  Cr2      1.0000 0.78970  0.00000  0.21030  Biso   1.000  Cr
  Cr3      1.0000 0.21030  0.78970  0.00000  Biso   1.000  Cr
  Ni1      1.0000 0.11593  0.50000  0.88407  Biso   1.000  Ni
  Ni2      1.0000 0.88407  0.11593  0.50000  Biso   1.000  Ni
  Ni3      1.0000 0.50000  0.88407  0.11593  Biso   1.000  Ni
  H1       1.0000 0.11860  0.37010  0.67550  Biso   1.000  H
  H2       1.0000 0.11740  0.66550  0.75810  Biso   1.000  H
  H3       1.0000 0.14160  0.38170  0.51550  Biso   1.000  H
  H4       1.0000 0.14980  0.34780  0.01860  Biso   1.000  H
  H5       1.0000 0.11330  0.63040  0.09290  Biso   1.000  H
  H6       1.0000 0.13690  0.68570  0.59900  Biso   1.000  H
  H7       1.0000 0.12660  0.62820  0.26420  Biso   1.000  H
  H8       1.0000 0.15040  0.40660  0.36480  Biso   1.000  H
  H9       1.0000 0.16480  0.33770  0.18800  Biso   1.000  H
  H10      1.0000 0.14950  0.61390  0.42270  Biso   1.000  H
  H11      1.0000 0.67550  0.11860  0.37010  Biso   1.000  H
  H12      1.0000 0.75810  0.11740  0.66550  Biso   1.000  H
  H13      1.0000 0.51550  0.14160  0.38170  Biso   1.000  H
  H14      1.0000 0.01860  0.14980  0.34780  Biso   1.000  H
  H15      1.0000 0.09290  0.11330  0.63040  Biso   1.000  H
  H16      1.0000 0.59900  0.13690  0.68570  Biso   1.000  H
  H17      1.0000 0.26420  0.12660  0.62820  Biso   1.000  H
  H18      1.0000 0.36480  0.15040  0.40660  Biso   1.000  H
  H19      1.0000 0.18800  0.16480  0.33770  Biso   1.000  H
  H20      1.0000 0.42270  0.14950  0.61390  Biso   1.000  H
  H21      1.0000 0.37010  0.67550  0.11860  Biso   1.000  H
  H22      1.0000 0.66550  0.75810  0.11740  Biso   1.000  H
  H23      1.0000 0.38170  0.51550  0.14160  Biso   1.000  H
  H24      1.0000 0.34780  0.01860  0.14980  Biso   1.000  H
  H25      1.0000 0.63040  0.09290  0.11330  Biso   1.000  H
  H26      1.0000 0.68570  0.59900  0.13690  Biso   1.000  H
  H27      1.0000 0.62820  0.26420  0.12660  Biso   1.000  H
  H28      1.0000 0.40660  0.36480  0.15040  Biso   1.000  H
  H29      1.0000 0.33770  0.18800  0.16480  Biso   1.000  H
  H30      1.0000 0.61390  0.42270  0.14950  Biso   1.000  H
  H31      1.0000 0.62990  0.88140  0.32450  Biso   1.000  H
  H32      1.0000 0.33450  0.88260  0.24190  Biso   1.000  H
  H33      1.0000 0.61830  0.85840  0.48450  Biso   1.000  H
  H34      1.0000 0.65220  0.85020  0.98140  Biso   1.000  H
  H35      1.0000 0.36960  0.88670  0.90710  Biso   1.000  H
  H36      1.0000 0.31430  0.86310  0.40100  Biso   1.000  H
  H37      1.0000 0.37180  0.87340  0.73580  Biso   1.000  H
  H38      1.0000 0.59340  0.84960  0.63520  Biso   1.000  H
  H39      1.0000 0.66230  0.83520  0.81200  Biso   1.000  H
  H40      1.0000 0.38610  0.85050  0.57730  Biso   1.000  H
  H41      1.0000 0.88140  0.32450  0.62990  Biso   1.000  H
  H42      1.0000 0.88260  0.24190  0.33450  Biso   1.000  H
  H43      1.0000 0.85840  0.48450  0.61830  Biso   1.000  H
  H44      1.0000 0.85020  0.98140  0.65220  Biso   1.000  H
  H45      1.0000 0.88670  0.90710  0.36960  Biso   1.000  H
  H46      1.0000 0.86310  0.40100  0.31430  Biso   1.000  H
  H47      1.0000 0.87340  0.73580  0.37180  Biso   1.000  H
  H48      1.0000 0.84960  0.63520  0.59340  Biso   1.000  H
  H49      1.0000 0.83520  0.81200  0.66230  Biso   1.000  H
  H50      1.0000 0.85050  0.57730  0.38610  Biso   1.000  H
  H51      1.0000 0.32450  0.62990  0.88140  Biso   1.000  H
  H52      1.0000 0.24190  0.33450  0.88260  Biso   1.000  H
  H53      1.0000 0.48450  0.61830  0.85840  Biso   1.000  H
  H54      1.0000 0.98140  0.65220  0.85020  Biso   1.000  H
  H55      1.0000 0.90710  0.36960  0.88670  Biso   1.000  H
  H56      1.0000 0.40100  0.31430  0.86310  Biso   1.000  H
  H57      1.0000 0.73580  0.37180  0.87340  Biso   1.000  H
  H58      1.0000 0.63520  0.59340  0.84960  Biso   1.000  H
  H59      1.0000 0.81200  0.66230  0.83520  Biso   1.000  H
  H60      1.0000 0.57730  0.38610  0.85050  Biso   1.000  H
  C1       1.0000 0.12210  0.43455  0.65924  Biso   1.000  C
  C2       1.0000 0.12094  0.60718  0.70764  Biso   1.000  C
  C3       1.0000 0.13527  0.44055  0.56309  Biso   1.000  C
  C4       1.0000 0.14480  0.40532  0.06898  Biso   1.000  C
  C5       1.0000 0.12350  0.57024  0.11256  Biso   1.000  C
  C6       1.0000 0.14460  0.48120  0.24650  Biso   1.000  C
  C7       1.0000 0.13920  0.53513  0.53628  Biso   1.000  C
  C8       1.0000 0.13300  0.61990  0.61260  Biso   1.000  C
  C9       1.0000 0.13080  0.56920  0.21520  Biso   1.000  C
  C10      1.0000 0.14730  0.47190  0.35270  Biso   1.000  C
  C11      1.0000 0.15320  0.39840  0.17040  Biso   1.000  C
  C12      1.0000 0.14590  0.54683  0.43277  Biso   1.000  C
  C13      1.0000 0.65924  0.12210  0.43455  Biso   1.000  C
  C14      1.0000 0.70764  0.12094  0.60718  Biso   1.000  C
  C15      1.0000 0.56309  0.13527  0.44055  Biso   1.000  C
  C16      1.0000 0.06898  0.14480  0.40532  Biso   1.000  C
  C17      1.0000 0.11256  0.12350  0.57024  Biso   1.000  C
  C18      1.0000 0.24650  0.14460  0.48120  Biso   1.000  C
  C19      1.0000 0.53628  0.13920  0.53513  Biso   1.000  C
  C20      1.0000 0.61260  0.13300  0.61990  Biso   1.000  C
  C21      1.0000 0.21520  0.13080  0.56920  Biso   1.000  C
  C22      1.0000 0.35270  0.14730  0.47190  Biso   1.000  C
  C23      1.0000 0.17040  0.15320  0.39840  Biso   1.000  C
  C24      1.0000 0.43277  0.14590  0.54683  Biso   1.000  C
  C25      1.0000 0.43455  0.65924  0.12210  Biso   1.000  C
  C26      1.0000 0.60718  0.70764  0.12094  Biso   1.000  C
  C27      1.0000 0.44055  0.56309  0.13527  Biso   1.000  C
  C28      1.0000 0.40532  0.06898  0.14480  Biso   1.000  C
  C29      1.0000 0.57024  0.11256  0.12350  Biso   1.000  C
  C30      1.0000 0.48120  0.24650  0.14460  Biso   1.000  C
  C31      1.0000 0.53513  0.53628  0.13920  Biso   1.000  C
  C32      1.0000 0.61990  0.61260  0.13300  Biso   1.000  C
  C33      1.0000 0.56920  0.21520  0.13080  Biso   1.000  C
  C34      1.0000 0.47190  0.35270  0.14730  Biso   1.000  C
  C35      1.0000 0.39840  0.17040  0.15320  Biso   1.000  C
  C36      1.0000 0.54683  0.43277  0.14590  Biso   1.000  C
  C37      1.0000 0.56545  0.87790  0.34076  Biso   1.000  C
  C38      1.0000 0.39282  0.87906  0.29236  Biso   1.000  C
  C39      1.0000 0.55945  0.86473  0.43691  Biso   1.000  C
  C40      1.0000 0.59468  0.85520  0.93102  Biso   1.000  C
  C41      1.0000 0.42976  0.87650  0.88744  Biso   1.000  C
  C42      1.0000 0.51880  0.85540  0.75350  Biso   1.000  C
  C43      1.0000 0.46487  0.86080  0.46372  Biso   1.000  C
  C44      1.0000 0.38010  0.86700  0.38740  Biso   1.000  C
  C45      1.0000 0.43080  0.86920  0.78480  Biso   1.000  C
  C46      1.0000 0.52810  0.85270  0.64730  Biso   1.000  C
  C47      1.0000 0.60160  0.84680  0.82960  Biso   1.000  C
  C48      1.0000 0.45317  0.85410  0.56723  Biso   1.000  C
  C49      1.0000 0.87790  0.34076  0.56545  Biso   1.000  C
  C50      1.0000 0.87906  0.29236  0.39282  Biso   1.000  C
  C51      1.0000 0.86473  0.43691  0.55945  Biso   1.000  C
  C52      1.0000 0.85520  0.93102  0.59468  Biso   1.000  C
  C53      1.0000 0.87650  0.88744  0.42976  Biso   1.000  C
  C54      1.0000 0.85540  0.75350  0.51880  Biso   1.000  C
  C55      1.0000 0.86080  0.46372  0.46487  Biso   1.000  C
  C56      1.0000 0.86700  0.38740  0.38010  Biso   1.000  C
  C57      1.0000 0.86920  0.78480  0.43080  Biso   1.000  C
  C58      1.0000 0.85270  0.64730  0.52810  Biso   1.000  C
  C59      1.0000 0.84680  0.82960  0.60160  Biso   1.000  C
  C60      1.0000 0.85410  0.56723  0.45317  Biso   1.000  C
  C61      1.0000 0.34076  0.56545  0.87790  Biso   1.000  C
  C62      1.0000 0.29236  0.39282  0.87906  Biso   1.000  C
  C63      1.0000 0.43691  0.55945  0.86473  Biso   1.000  C
  C64      1.0000 0.93102  0.59468  0.85520  Biso   1.000  C
  C65      1.0000 0.88744  0.42976  0.87650  Biso   1.000  C
  C66      1.0000 0.75350  0.51880  0.85540  Biso   1.000  C
  C67      1.0000 0.46372  0.46487  0.86080  Biso   1.000  C
  C68      1.0000 0.38740  0.38010  0.86700  Biso   1.000  C
  C69      1.0000 0.78480  0.43080  0.86920  Biso   1.000  C
  C70      1.0000 0.64730  0.52810  0.85270  Biso   1.000  C
  C71      1.0000 0.82960  0.60160  0.84680  Biso   1.000  C
  C72      1.0000 0.56723  0.45317  0.85410  Biso   1.000  C
  N1       1.0000 0.11406  0.51573  0.73148  Biso   1.000  N
  N2       1.0000 0.13002  0.48909  0.03902  Biso   1.000  N
  N3       1.0000 0.73148  0.11406  0.51573  Biso   1.000  N
  N4       1.0000 0.03902  0.13002  0.48909  Biso   1.000  N
  N5       1.0000 0.51573  0.73148  0.11406  Biso   1.000  N
  N6       1.0000 0.48909  0.03902  0.13002  Biso   1.000  N
  N7       1.0000 0.48427  0.88594  0.26852  Biso   1.000  N
  N8       1.0000 0.51091  0.86998  0.96098  Biso   1.000  N
  N9       1.0000 0.88594  0.26852  0.48427  Biso   1.000  N
  N10      1.0000 0.86998  0.96098  0.51091  Biso   1.000  N
  N11      1.0000 0.26852  0.48427  0.88594  Biso   1.000  N
  N12      1.0000 0.96098  0.51091  0.86998  Biso   1.000  N
  O1       1.0000 0.05718  0.33902  0.82770  Biso   1.000  O
  O2       1.0000 0.08987  0.14932  0.81812  Biso   1.000  O
  O3       1.0000 0.82770  0.05718  0.33902  Biso   1.000  O
  O4       1.0000 0.81812  0.08987  0.14932  Biso   1.000  O
  O5       1.0000 0.33902  0.82770  0.05718  Biso   1.000  O
  O6       1.0000 0.14932  0.81812  0.08987  Biso   1.000  O
  O7       1.0000 0.66098  0.94282  0.17230  Biso   1.000  O
  O8       1.0000 0.85068  0.91013  0.18188  Biso   1.000  O
  O9       1.0000 0.94282  0.17230  0.66098  Biso   1.000  O
  O10      1.0000 0.91013  0.18188  0.85068  Biso   1.000  O
  O11      1.0000 0.17230  0.66098  0.94282  Biso   1.000  O
  O12      1.0000 0.18188  0.85068  0.91013  Biso   1.000  O
