data_image0
_cell_length_a       13.6822
_cell_length_b       13.6822
_cell_length_c       13.6822
_cell_angle_alpha    102.353
_cell_angle_beta     102.353
_cell_angle_gamma    102.353

_symmetry_space_group_name_H-M    P 1
_symmetry_int_tables_number       1

loop_
  _symmetry_equiv_pos_as_xyz
  'x, y, z'

loop_
  _atom_site_label
  _atom_site_occupancy
  _atom_site_fract_x
  _atom_site_fract_y
  _atom_site_fract_z
  _atom_site_thermal_displace_type
  _atom_site_B_iso_or_equiv
  _atom_site_type_symbol
  Co1      1.0000 0.88292  0.50000  0.11708  Biso   1.000  Co
  Co2      1.0000 0.11708  0.88292  0.50000  Biso   1.000  Co
  Co3      1.0000 0.50000  0.11708  0.88292  Biso   1.000  Co
  Mo1      1.0000 0.79279  0.20721  0.00000  Biso   1.000  Mo
  Mo2      1.0000 0.00000  0.79279  0.20721  Biso   1.000  Mo
  Mo3      1.0000 0.20721  0.00000  0.79279  Biso   1.000  Mo
  H1       1.0000 0.88160  0.33660  0.24830  Biso   1.000  H
  H2       1.0000 0.86560  0.31750  0.40730  Biso   1.000  H
  H3       1.0000 0.86040  0.61650  0.48700  Biso   1.000  H
  H4       1.0000 0.87930  0.62810  0.32720  Biso   1.000  H
  H5       1.0000 0.85750  0.38920  0.58190  Biso   1.000  H
  H6       1.0000 0.85120  0.59260  0.63620  Biso   1.000  H
  H7       1.0000 0.82350  0.65570  0.80630  Biso   1.000  H
  H8       1.0000 0.83520  0.64430  0.97370  Biso   1.000  H
  H9       1.0000 0.90100  0.37830  0.91080  Biso   1.000  H
  H10      1.0000 0.88960  0.38040  0.74190  Biso   1.000  H
  H11      1.0000 0.24830  0.88160  0.33660  Biso   1.000  H
  H12      1.0000 0.40730  0.86560  0.31750  Biso   1.000  H
  H13      1.0000 0.48700  0.86040  0.61650  Biso   1.000  H
  H14      1.0000 0.32720  0.87930  0.62810  Biso   1.000  H
  H15      1.0000 0.58190  0.85750  0.38920  Biso   1.000  H
  H16      1.0000 0.63620  0.85120  0.59260  Biso   1.000  H
  H17      1.0000 0.80630  0.82350  0.65570  Biso   1.000  H
  H18      1.0000 0.97370  0.83520  0.64430  Biso   1.000  H
  H19      1.0000 0.91080  0.90100  0.37830  Biso   1.000  H
  H20      1.0000 0.74190  0.88960  0.38040  Biso   1.000  H
  H21      1.0000 0.33660  0.24830  0.88160  Biso   1.000  H
  H22      1.0000 0.31750  0.40730  0.86560  Biso   1.000  H
  H23      1.0000 0.61650  0.48700  0.86040  Biso   1.000  H
  H24      1.0000 0.62810  0.32720  0.87930  Biso   1.000  H
  H25      1.0000 0.38920  0.58190  0.85750  Biso   1.000  H
  H26      1.0000 0.59260  0.63620  0.85120  Biso   1.000  H
  H27      1.0000 0.65570  0.80630  0.82350  Biso   1.000  H
  H28      1.0000 0.64430  0.97370  0.83520  Biso   1.000  H
  H29      1.0000 0.37830  0.91080  0.90100  Biso   1.000  H
  H30      1.0000 0.38040  0.74190  0.88960  Biso   1.000  H
  H31      1.0000 0.66340  0.11840  0.75170  Biso   1.000  H
  H32      1.0000 0.68250  0.13440  0.59270  Biso   1.000  H
  H33      1.0000 0.38350  0.13960  0.51300  Biso   1.000  H
  H34      1.0000 0.37190  0.12070  0.67280  Biso   1.000  H
  H35      1.0000 0.61080  0.14250  0.41810  Biso   1.000  H
  H36      1.0000 0.40740  0.14880  0.36380  Biso   1.000  H
  H37      1.0000 0.34430  0.17650  0.19370  Biso   1.000  H
  H38      1.0000 0.35570  0.16480  0.02630  Biso   1.000  H
  H39      1.0000 0.62170  0.09900  0.08920  Biso   1.000  H
  H40      1.0000 0.61960  0.11040  0.25810  Biso   1.000  H
  H41      1.0000 0.11840  0.75170  0.66340  Biso   1.000  H
  H42      1.0000 0.13440  0.59270  0.68250  Biso   1.000  H
  H43      1.0000 0.13960  0.51300  0.38350  Biso   1.000  H
  H44      1.0000 0.12070  0.67280  0.37190  Biso   1.000  H
  H45      1.0000 0.14250  0.41810  0.61080  Biso   1.000  H
  H46      1.0000 0.14880  0.36380  0.40740  Biso   1.000  H
  H47      1.0000 0.17650  0.19370  0.34430  Biso   1.000  H
  H48      1.0000 0.16480  0.02630  0.35570  Biso   1.000  H
  H49      1.0000 0.09900  0.08920  0.62170  Biso   1.000  H
  H50      1.0000 0.11040  0.25810  0.61960  Biso   1.000  H
  H51      1.0000 0.75170  0.66340  0.11840  Biso   1.000  H
  H52      1.0000 0.59270  0.68250  0.13440  Biso   1.000  H
  H53      1.0000 0.51300  0.38350  0.13960  Biso   1.000  H
  H54      1.0000 0.67280  0.37190  0.12070  Biso   1.000  H
  H55      1.0000 0.41810  0.61080  0.14250  Biso   1.000  H
  H56      1.0000 0.36380  0.40740  0.14880  Biso   1.000  H
  H57      1.0000 0.19370  0.34430  0.17650  Biso   1.000  H
  H58      1.0000 0.02630  0.35570  0.16480  Biso   1.000  H
  H59      1.0000 0.08920  0.62170  0.09900  Biso   1.000  H
  H60      1.0000 0.25810  0.61960  0.11040  Biso   1.000  H
  C1       1.0000 0.87853  0.39437  0.29782  Biso   1.000  C
  C2       1.0000 0.86876  0.38214  0.39290  Biso   1.000  C
  C3       1.0000 0.86369  0.46612  0.46753  Biso   1.000  C
  C4       1.0000 0.86609  0.55837  0.43984  Biso   1.000  C
  C5       1.0000 0.87677  0.56464  0.34381  Biso   1.000  C
  C6       1.0000 0.85860  0.45465  0.57055  Biso   1.000  C
  C7       1.0000 0.85530  0.52860  0.64900  Biso   1.000  C
  C8       1.0000 0.85750  0.51898  0.75452  Biso   1.000  C
  C9       1.0000 0.84000  0.59810  0.82610  Biso   1.000  C
  C10      1.0000 0.84714  0.59047  0.92619  Biso   1.000  C
  C11      1.0000 0.88520  0.43531  0.88948  Biso   1.000  C
  C12      1.0000 0.87910  0.43620  0.78810  Biso   1.000  C
  C13      1.0000 0.29782  0.87853  0.39437  Biso   1.000  C
  C14      1.0000 0.39290  0.86876  0.38214  Biso   1.000  C
  C15      1.0000 0.46753  0.86369  0.46612  Biso   1.000  C
  C16      1.0000 0.43984  0.86609  0.55837  Biso   1.000  C
  C17      1.0000 0.34381  0.87677  0.56464  Biso   1.000  C
  C18      1.0000 0.57055  0.85860  0.45465  Biso   1.000  C
  C19      1.0000 0.64900  0.85530  0.52860  Biso   1.000  C
  C20      1.0000 0.75452  0.85750  0.51898  Biso   1.000  C
  C21      1.0000 0.82610  0.84000  0.59810  Biso   1.000  C
  C22      1.0000 0.92619  0.84714  0.59047  Biso   1.000  C
  C23      1.0000 0.88948  0.88520  0.43531  Biso   1.000  C
  C24      1.0000 0.78810  0.87910  0.43620  Biso   1.000  C
  C25      1.0000 0.39437  0.29782  0.87853  Biso   1.000  C
  C26      1.0000 0.38214  0.39290  0.86876  Biso   1.000  C
  C27      1.0000 0.46612  0.46753  0.86369  Biso   1.000  C
  C28      1.0000 0.55837  0.43984  0.86609  Biso   1.000  C
  C29      1.0000 0.56464  0.34381  0.87677  Biso   1.000  C
  C30      1.0000 0.45465  0.57055  0.85860  Biso   1.000  C
  C31      1.0000 0.52860  0.64900  0.85530  Biso   1.000  C
  C32      1.0000 0.51898  0.75452  0.85750  Biso   1.000  C
  C33      1.0000 0.59810  0.82610  0.84000  Biso   1.000  C
  C34      1.0000 0.59047  0.92619  0.84714  Biso   1.000  C
  C35      1.0000 0.43531  0.88948  0.88520  Biso   1.000  C
  C36      1.0000 0.43620  0.78810  0.87910  Biso   1.000  C
  C37      1.0000 0.60563  0.12147  0.70218  Biso   1.000  C
  C38      1.0000 0.61786  0.13124  0.60710  Biso   1.000  C
  C39      1.0000 0.53388  0.13631  0.53247  Biso   1.000  C
  C40      1.0000 0.44163  0.13391  0.56016  Biso   1.000  C
  C41      1.0000 0.43536  0.12323  0.65619  Biso   1.000  C
  C42      1.0000 0.54535  0.14140  0.42945  Biso   1.000  C
  C43      1.0000 0.47140  0.14470  0.35100  Biso   1.000  C
  C44      1.0000 0.48102  0.14250  0.24548  Biso   1.000  C
  C45      1.0000 0.40190  0.16000  0.17390  Biso   1.000  C
  C46      1.0000 0.40953  0.15286  0.07381  Biso   1.000  C
  C47      1.0000 0.56469  0.11480  0.11052  Biso   1.000  C
  C48      1.0000 0.56380  0.12090  0.21190  Biso   1.000  C
  C49      1.0000 0.12147  0.70218  0.60563  Biso   1.000  C
  C50      1.0000 0.13124  0.60710  0.61786  Biso   1.000  C
  C51      1.0000 0.13631  0.53247  0.53388  Biso   1.000  C
  C52      1.0000 0.13391  0.56016  0.44163  Biso   1.000  C
  C53      1.0000 0.12323  0.65619  0.43536  Biso   1.000  C
  C54      1.0000 0.14140  0.42945  0.54535  Biso   1.000  C
  C55      1.0000 0.14470  0.35100  0.47140  Biso   1.000  C
  C56      1.0000 0.14250  0.24548  0.48102  Biso   1.000  C
  C57      1.0000 0.16000  0.17390  0.40190  Biso   1.000  C
  C58      1.0000 0.15286  0.07381  0.40953  Biso   1.000  C
  C59      1.0000 0.11480  0.11052  0.56469  Biso   1.000  C
  C60      1.0000 0.12090  0.21190  0.56380  Biso   1.000  C
  C61      1.0000 0.70218  0.60563  0.12147  Biso   1.000  C
  C62      1.0000 0.60710  0.61786  0.13124  Biso   1.000  C
  C63      1.0000 0.53247  0.53388  0.13631  Biso   1.000  C
  C64      1.0000 0.56016  0.44163  0.13391  Biso   1.000  C
  C65      1.0000 0.65619  0.43536  0.12323  Biso   1.000  C
  C66      1.0000 0.42945  0.54535  0.14140  Biso   1.000  C
  C67      1.0000 0.35100  0.47140  0.14470  Biso   1.000  C
  C68      1.0000 0.24548  0.48102  0.14250  Biso   1.000  C
  C69      1.0000 0.17390  0.40190  0.16000  Biso   1.000  C
  C70      1.0000 0.07381  0.40953  0.15286  Biso   1.000  C
  C71      1.0000 0.11052  0.56469  0.11480  Biso   1.000  C
  C72      1.0000 0.21190  0.56380  0.12090  Biso   1.000  C
  N1       1.0000 0.86985  0.51102  0.95935  Biso   1.000  N
  N2       1.0000 0.88379  0.48380  0.27225  Biso   1.000  N
  N3       1.0000 0.95935  0.86985  0.51102  Biso   1.000  N
  N4       1.0000 0.27225  0.88379  0.48380  Biso   1.000  N
  N5       1.0000 0.51102  0.95935  0.86985  Biso   1.000  N
  N6       1.0000 0.48380  0.27225  0.88379  Biso   1.000  N
  N7       1.0000 0.48898  0.13015  0.04065  Biso   1.000  N
  N8       1.0000 0.51620  0.11621  0.72775  Biso   1.000  N
  N9       1.0000 0.13015  0.04065  0.48898  Biso   1.000  N
  N10      1.0000 0.11621  0.72775  0.51620  Biso   1.000  N
  N11      1.0000 0.04065  0.48898  0.13015  Biso   1.000  N
  N12      1.0000 0.72775  0.51620  0.11621  Biso   1.000  N
  O1       1.0000 0.82132  0.14081  0.09355  Biso   1.000  O
  O2       1.0000 0.83125  0.34225  0.06134  Biso   1.000  O
  O3       1.0000 0.09355  0.82132  0.14081  Biso   1.000  O
  O4       1.0000 0.06134  0.83125  0.34225  Biso   1.000  O
  O5       1.0000 0.14081  0.09355  0.82132  Biso   1.000  O
  O6       1.0000 0.34225  0.06134  0.83125  Biso   1.000  O
  O7       1.0000 0.85919  0.17868  0.90645  Biso   1.000  O
  O8       1.0000 0.65775  0.16875  0.93866  Biso   1.000  O
  O9       1.0000 0.17868  0.90645  0.85919  Biso   1.000  O
  O10      1.0000 0.16875  0.93866  0.65775  Biso   1.000  O
  O11      1.0000 0.90645  0.85919  0.17868  Biso   1.000  O
  O12      1.0000 0.93866  0.65775  0.16875  Biso   1.000  O
