data_image0
_cell_length_a       11.5585
_cell_length_b       11.5585
_cell_length_c       25.819
_cell_angle_alpha    90
_cell_angle_beta     90
_cell_angle_gamma    90

_symmetry_space_group_name_H-M    P 1
_symmetry_int_tables_number       1

loop_
  _symmetry_equiv_pos_as_xyz
  'x, y, z'

loop_
  _atom_site_label
  _atom_site_occupancy
  _atom_site_fract_x
  _atom_site_fract_y
  _atom_site_fract_z
  _atom_site_thermal_displace_type
  _atom_site_B_iso_or_equiv
  _atom_site_type_symbol
  Zn1      1.0000 0.90122  0.09878  0.79186  Biso   1.000  Zn
  Zn2      1.0000 0.09878  0.90122  0.79186  Biso   1.000  Zn
  Zn3      1.0000 0.90122  0.90122  0.29186  Biso   1.000  Zn
  Zn4      1.0000 0.09878  0.09878  0.29186  Biso   1.000  Zn
  Zn5      1.0000 0.09878  0.09878  0.70814  Biso   1.000  Zn
  Zn6      1.0000 0.90122  0.90122  0.70814  Biso   1.000  Zn
  Zn7      1.0000 0.09878  0.90122  0.20814  Biso   1.000  Zn
  Zn8      1.0000 0.90122  0.09878  0.20814  Biso   1.000  Zn
  H1       1.0000 0.67930  0.17610  0.83970  Biso   1.000  H
  H2       1.0000 0.56200  0.20970  0.81040  Biso   1.000  H
  H3       1.0000 0.56290  0.10550  0.85120  Biso   1.000  H
  H4       1.0000 0.32070  0.82390  0.83970  Biso   1.000  H
  H5       1.0000 0.43800  0.79030  0.81040  Biso   1.000  H
  H6       1.0000 0.43710  0.89450  0.85120  Biso   1.000  H
  H7       1.0000 0.82390  0.67930  0.33970  Biso   1.000  H
  H8       1.0000 0.79030  0.56200  0.31040  Biso   1.000  H
  H9       1.0000 0.89450  0.56290  0.35120  Biso   1.000  H
  H10      1.0000 0.17610  0.32070  0.33970  Biso   1.000  H
  H11      1.0000 0.20970  0.43800  0.31040  Biso   1.000  H
  H12      1.0000 0.10550  0.43710  0.35120  Biso   1.000  H
  H13      1.0000 0.32070  0.17610  0.66030  Biso   1.000  H
  H14      1.0000 0.43800  0.20970  0.68960  Biso   1.000  H
  H15      1.0000 0.43710  0.10550  0.64880  Biso   1.000  H
  H16      1.0000 0.67930  0.82390  0.66030  Biso   1.000  H
  H17      1.0000 0.56200  0.79030  0.68960  Biso   1.000  H
  H18      1.0000 0.56290  0.89450  0.64880  Biso   1.000  H
  H19      1.0000 0.17610  0.67930  0.16030  Biso   1.000  H
  H20      1.0000 0.20970  0.56200  0.18960  Biso   1.000  H
  H21      1.0000 0.10550  0.56290  0.14880  Biso   1.000  H
  H22      1.0000 0.82390  0.32070  0.16030  Biso   1.000  H
  H23      1.0000 0.79030  0.43800  0.18960  Biso   1.000  H
  H24      1.0000 0.89450  0.43710  0.14880  Biso   1.000  H
  H25      1.0000 0.32070  0.82390  0.16030  Biso   1.000  H
  H26      1.0000 0.43800  0.79030  0.18960  Biso   1.000  H
  H27      1.0000 0.43710  0.89450  0.14880  Biso   1.000  H
  H28      1.0000 0.67930  0.17610  0.16030  Biso   1.000  H
  H29      1.0000 0.56200  0.20970  0.18960  Biso   1.000  H
  H30      1.0000 0.56290  0.10550  0.14880  Biso   1.000  H
  H31      1.0000 0.17610  0.32070  0.66030  Biso   1.000  H
  H32      1.0000 0.20970  0.43800  0.68960  Biso   1.000  H
  H33      1.0000 0.10550  0.43710  0.64880  Biso   1.000  H
  H34      1.0000 0.82390  0.67930  0.66030  Biso   1.000  H
  H35      1.0000 0.79030  0.56200  0.68960  Biso   1.000  H
  H36      1.0000 0.89450  0.56290  0.64880  Biso   1.000  H
  H37      1.0000 0.67930  0.82390  0.33970  Biso   1.000  H
  H38      1.0000 0.56200  0.79030  0.31040  Biso   1.000  H
  H39      1.0000 0.56290  0.89450  0.35120  Biso   1.000  H
  H40      1.0000 0.32070  0.17610  0.33970  Biso   1.000  H
  H41      1.0000 0.43800  0.20970  0.31040  Biso   1.000  H
  H42      1.0000 0.43710  0.10550  0.35120  Biso   1.000  H
  H43      1.0000 0.82390  0.32070  0.83970  Biso   1.000  H
  H44      1.0000 0.79030  0.43800  0.81040  Biso   1.000  H
  H45      1.0000 0.89450  0.43710  0.85120  Biso   1.000  H
  H46      1.0000 0.17610  0.67930  0.83970  Biso   1.000  H
  H47      1.0000 0.20970  0.56200  0.81040  Biso   1.000  H
  H48      1.0000 0.10550  0.56290  0.85120  Biso   1.000  H
  H49      1.0000 0.87630  0.12370  0.95560  Biso   1.000  H
  H50      1.0000 0.12370  0.87630  0.95560  Biso   1.000  H
  H51      1.0000 0.87630  0.87630  0.45560  Biso   1.000  H
  H52      1.0000 0.12370  0.12370  0.45560  Biso   1.000  H
  H53      1.0000 0.12370  0.12370  0.54440  Biso   1.000  H
  H54      1.0000 0.87630  0.87630  0.54440  Biso   1.000  H
  H55      1.0000 0.12370  0.87630  0.04440  Biso   1.000  H
  H56      1.0000 0.87630  0.12370  0.04440  Biso   1.000  H
  C1       1.0000 0.63680  0.06330  0.78219  Biso   1.000  C
  C2       1.0000 0.60780  0.14570  0.82450  Biso   1.000  C
  C3       1.0000 0.36320  0.93670  0.78219  Biso   1.000  C
  C4       1.0000 0.39220  0.85430  0.82450  Biso   1.000  C
  C5       1.0000 0.93670  0.63680  0.28219  Biso   1.000  C
  C6       1.0000 0.85430  0.60780  0.32450  Biso   1.000  C
  C7       1.0000 0.06330  0.36320  0.28219  Biso   1.000  C
  C8       1.0000 0.14570  0.39220  0.32450  Biso   1.000  C
  C9       1.0000 0.36320  0.06330  0.71781  Biso   1.000  C
  C10      1.0000 0.39220  0.14570  0.67550  Biso   1.000  C
  C11      1.0000 0.63680  0.93670  0.71781  Biso   1.000  C
  C12      1.0000 0.60780  0.85430  0.67550  Biso   1.000  C
  C13      1.0000 0.06330  0.63680  0.21781  Biso   1.000  C
  C14      1.0000 0.14570  0.60780  0.17550  Biso   1.000  C
  C15      1.0000 0.93670  0.36320  0.21781  Biso   1.000  C
  C16      1.0000 0.85430  0.39220  0.17550  Biso   1.000  C
  C17      1.0000 0.36320  0.93670  0.21781  Biso   1.000  C
  C18      1.0000 0.39220  0.85430  0.17550  Biso   1.000  C
  C19      1.0000 0.63680  0.06330  0.21781  Biso   1.000  C
  C20      1.0000 0.60780  0.14570  0.17550  Biso   1.000  C
  C21      1.0000 0.06330  0.36320  0.71781  Biso   1.000  C
  C22      1.0000 0.14570  0.39220  0.67550  Biso   1.000  C
  C23      1.0000 0.93670  0.63680  0.71781  Biso   1.000  C
  C24      1.0000 0.85430  0.60780  0.67550  Biso   1.000  C
  C25      1.0000 0.63680  0.93670  0.28219  Biso   1.000  C
  C26      1.0000 0.60780  0.85430  0.32450  Biso   1.000  C
  C27      1.0000 0.36320  0.06330  0.28219  Biso   1.000  C
  C28      1.0000 0.39220  0.14570  0.32450  Biso   1.000  C
  C29      1.0000 0.93670  0.36320  0.78219  Biso   1.000  C
  C30      1.0000 0.85430  0.39220  0.82450  Biso   1.000  C
  C31      1.0000 0.06330  0.63680  0.78219  Biso   1.000  C
  C32      1.0000 0.14570  0.60780  0.82450  Biso   1.000  C
  C33      1.0000 0.92820  0.07180  0.97390  Biso   1.000  C
  C34      1.0000 0.07180  0.92820  0.97390  Biso   1.000  C
  C35      1.0000 0.92820  0.92820  0.47390  Biso   1.000  C
  C36      1.0000 0.07180  0.07180  0.47390  Biso   1.000  C
  C37      1.0000 0.07180  0.07180  0.52610  Biso   1.000  C
  C38      1.0000 0.92820  0.92820  0.52610  Biso   1.000  C
  C39      1.0000 0.07180  0.92820  0.02610  Biso   1.000  C
  C40      1.0000 0.92820  0.07180  0.02610  Biso   1.000  C
  C41      1.0000 0.00000  0.00000  0.88820  Biso   1.000  C
  C42      1.0000 0.00000  0.00000  0.94550  Biso   1.000  C
  C43      1.0000 0.00000  0.00000  0.38820  Biso   1.000  C
  C44      1.0000 0.00000  0.00000  0.44550  Biso   1.000  C
  C45      1.0000 0.00000  0.00000  0.61180  Biso   1.000  C
  C46      1.0000 0.00000  0.00000  0.55450  Biso   1.000  C
  C47      1.0000 0.00000  0.00000  0.11180  Biso   1.000  C
  C48      1.0000 0.00000  0.00000  0.05450  Biso   1.000  C
  C49      1.0000 0.56380  0.00000  0.75000  Biso   1.000  C
  C50      1.0000 0.43620  0.00000  0.75000  Biso   1.000  C
  C51      1.0000 0.00000  0.56380  0.25000  Biso   1.000  C
  C52      1.0000 0.00000  0.43620  0.25000  Biso   1.000  C
  C53      1.0000 0.43620  0.00000  0.25000  Biso   1.000  C
  C54      1.0000 0.56380  0.00000  0.25000  Biso   1.000  C
  C55      1.0000 0.00000  0.43620  0.75000  Biso   1.000  C
  C56      1.0000 0.00000  0.56380  0.75000  Biso   1.000  C
  N1       1.0000 0.74760  0.03950  0.77000  Biso   1.000  N
  N2       1.0000 0.25240  0.96050  0.77000  Biso   1.000  N
  N3       1.0000 0.96050  0.74760  0.27000  Biso   1.000  N
  N4       1.0000 0.03950  0.25240  0.27000  Biso   1.000  N
  N5       1.0000 0.25240  0.03950  0.73000  Biso   1.000  N
  N6       1.0000 0.74760  0.96050  0.73000  Biso   1.000  N
  N7       1.0000 0.03950  0.74760  0.23000  Biso   1.000  N
  N8       1.0000 0.96050  0.25240  0.23000  Biso   1.000  N
  N9       1.0000 0.25240  0.96050  0.23000  Biso   1.000  N
  N10      1.0000 0.74760  0.03950  0.23000  Biso   1.000  N
  N11      1.0000 0.03950  0.25240  0.73000  Biso   1.000  N
  N12      1.0000 0.96050  0.74760  0.73000  Biso   1.000  N
  N13      1.0000 0.74760  0.96050  0.27000  Biso   1.000  N
  N14      1.0000 0.25240  0.03950  0.27000  Biso   1.000  N
  N15      1.0000 0.96050  0.25240  0.77000  Biso   1.000  N
  N16      1.0000 0.03950  0.74760  0.77000  Biso   1.000  N
  O1       1.0000 0.93080  0.06920  0.86526  Biso   1.000  O
  O2       1.0000 0.06920  0.93080  0.86526  Biso   1.000  O
  O3       1.0000 0.93080  0.93080  0.36526  Biso   1.000  O
  O4       1.0000 0.06920  0.06920  0.36526  Biso   1.000  O
  O5       1.0000 0.06920  0.06920  0.63474  Biso   1.000  O
  O6       1.0000 0.93080  0.93080  0.63474  Biso   1.000  O
  O7       1.0000 0.06920  0.93080  0.13474  Biso   1.000  O
  O8       1.0000 0.93080  0.06920  0.13474  Biso   1.000  O
  O9       1.0000 0.00000  0.00000  0.75000  Biso   1.000  O
  O10      1.0000 0.00000  0.00000  0.25000  Biso   1.000  O
