data_image0
_cell_length_a       8.84897
_cell_length_b       8.84897
_cell_length_c       11.553
_cell_angle_alpha    67.4821
_cell_angle_beta     67.4821
_cell_angle_gamma    60

_symmetry_space_group_name_H-M    P 1
_symmetry_int_tables_number       1

loop_
  _symmetry_equiv_pos_as_xyz
  'x, y, z'

loop_
  _atom_site_label
  _atom_site_occupancy
  _atom_site_fract_x
  _atom_site_fract_y
  _atom_site_fract_z
  _atom_site_thermal_displace_type
  _atom_site_B_iso_or_equiv
  _atom_site_type_symbol
  Cd1      1.0000 0.00000  0.00000  0.00000  Biso   1.000  Cd
  Cd2      1.0000 0.40985  0.40985  0.77045  Biso   1.000  Cd
  Cd3      1.0000 0.59015  0.59015  0.22955  Biso   1.000  Cd
  C1       1.0000 0.48013  0.48013  0.55961  Biso   1.000  C
  C2       1.0000 0.51987  0.51987  0.44039  Biso   1.000  C
  C3       1.0000 0.25160  0.66270  0.83410  Biso   1.000  C
  C4       1.0000 0.66270  0.25160  0.83410  Biso   1.000  C
  C5       1.0000 0.25160  0.25160  0.83410  Biso   1.000  C
  C6       1.0000 0.74840  0.74840  0.16590  Biso   1.000  C
  C7       1.0000 0.33730  0.74840  0.16590  Biso   1.000  C
  C8       1.0000 0.74840  0.33730  0.16590  Biso   1.000  C
  N1       1.0000 0.16880  0.78600  0.87640  Biso   1.000  N
  N2       1.0000 0.78600  0.16880  0.87640  Biso   1.000  N
  N3       1.0000 0.16880  0.16880  0.87640  Biso   1.000  N
  N4       1.0000 0.83120  0.83120  0.12360  Biso   1.000  N
  N5       1.0000 0.21400  0.83120  0.12360  Biso   1.000  N
  N6       1.0000 0.83120  0.21400  0.12360  Biso   1.000  N
