data_image0
_cell_length_a       8.694
_cell_length_b       11.212
_cell_length_c       13.483
_cell_angle_alpha    90
_cell_angle_beta     90
_cell_angle_gamma    90

_symmetry_space_group_name_H-M    P 1
_symmetry_int_tables_number       1

loop_
  _symmetry_equiv_pos_as_xyz
  'x, y, z'

loop_
  _atom_site_label
  _atom_site_occupancy
  _atom_site_fract_x
  _atom_site_fract_y
  _atom_site_fract_z
  _atom_site_thermal_displace_type
  _atom_site_B_iso_or_equiv
  _atom_site_type_symbol
  Cd1      1.0000 0.00000  0.76624  0.00000  Biso   1.000  Cd
  Cd2      1.0000 0.50000  0.23376  0.50000  Biso   1.000  Cd
  Cd3      1.0000 0.50000  0.06788  0.10077  Biso   1.000  Cd
  Cd4      1.0000 0.50000  0.48572  0.86754  Biso   1.000  Cd
  Cd5      1.0000 0.00000  0.93212  0.60077  Biso   1.000  Cd
  Cd6      1.0000 0.00000  0.51428  0.36754  Biso   1.000  Cd
  C1       1.0000 0.70730  0.96080  0.06120  Biso   1.000  C
  C2       1.0000 0.70670  0.58000  0.91830  Biso   1.000  C
  C3       1.0000 0.79270  0.03920  0.56120  Biso   1.000  C
  C4       1.0000 0.79330  0.42000  0.41830  Biso   1.000  C
  C5       1.0000 0.20730  0.03920  0.56120  Biso   1.000  C
  C6       1.0000 0.20670  0.42000  0.41830  Biso   1.000  C
  C7       1.0000 0.29270  0.96080  0.06120  Biso   1.000  C
  C8       1.0000 0.29330  0.58000  0.91830  Biso   1.000  C
  C9       1.0000 0.00000  0.87650  0.75800  Biso   1.000  C
  C10      1.0000 0.00000  0.62350  0.23090  Biso   1.000  C
  C11      1.0000 0.50000  0.12350  0.25800  Biso   1.000  C
  C12      1.0000 0.50000  0.37650  0.73090  Biso   1.000  C
  C13      1.0000 0.50000  0.23910  0.01730  Biso   1.000  C
  C14      1.0000 0.50000  0.32720  0.97570  Biso   1.000  C
  C15      1.0000 0.00000  0.76090  0.51730  Biso   1.000  C
  C16      1.0000 0.00000  0.67280  0.47570  Biso   1.000  C
  N1       1.0000 0.80770  0.89920  0.04190  Biso   1.000  N
  N2       1.0000 0.80750  0.63210  0.94930  Biso   1.000  N
  N3       1.0000 0.69230  0.10080  0.54190  Biso   1.000  N
  N4       1.0000 0.69250  0.36790  0.44930  Biso   1.000  N
  N5       1.0000 0.30770  0.10080  0.54190  Biso   1.000  N
  N6       1.0000 0.30750  0.36790  0.44930  Biso   1.000  N
  N7       1.0000 0.19230  0.89920  0.04190  Biso   1.000  N
  N8       1.0000 0.19250  0.63210  0.94930  Biso   1.000  N
  N9       1.0000 0.00000  0.84210  0.83830  Biso   1.000  N
  N10      1.0000 0.00000  0.67750  0.15830  Biso   1.000  N
  N11      1.0000 0.50000  0.15790  0.33830  Biso   1.000  N
  N12      1.0000 0.50000  0.32250  0.65830  Biso   1.000  N
