data_image0
_cell_length_a       13.9966
_cell_length_b       13.9966
_cell_length_c       30.521
_cell_angle_alpha    85.0828
_cell_angle_beta     85.0828
_cell_angle_gamma    88.5208

_symmetry_space_group_name_H-M    P 1
_symmetry_int_tables_number       1

loop_
  _symmetry_equiv_pos_as_xyz
  'x, y, z'

loop_
  _atom_site_label
  _atom_site_occupancy
  _atom_site_fract_x
  _atom_site_fract_y
  _atom_site_fract_z
  _atom_site_thermal_displace_type
  _atom_site_B_iso_or_equiv
  _atom_site_type_symbol
  Zn1      1.0000 0.60187  0.19503  0.53120  Biso   1.000  Zn
  Zn2      1.0000 0.81153  0.19571  0.51458  Biso   1.000  Zn
  Zn3      1.0000 0.19503  0.60187  0.03120  Biso   1.000  Zn
  Zn4      1.0000 0.19571  0.81153  0.01458  Biso   1.000  Zn
  H1       1.0000 0.83190  0.68910  0.71740  Biso   1.000  H
  H2       1.0000 0.80440  0.77380  0.74710  Biso   1.000  H
  H3       1.0000 0.56870  0.82290  0.67070  Biso   1.000  H
  H4       1.0000 0.57670  0.94050  0.61510  Biso   1.000  H
  H5       1.0000 0.86160  0.94720  0.61600  Biso   1.000  H
  H6       1.0000 0.85540  0.82720  0.67240  Biso   1.000  H
  H7       1.0000 0.81590  0.57190  0.82500  Biso   1.000  H
  H8       1.0000 0.88220  0.58320  0.78050  Biso   1.000  H
  H9       1.0000 0.95130  0.55450  0.85750  Biso   1.000  H
  H10      1.0000 0.03690  0.56330  0.91770  Biso   1.000  H
  H11      1.0000 0.01240  0.84960  0.90610  Biso   1.000  H
  H12      1.0000 0.92540  0.84240  0.84570  Biso   1.000  H
  H13      1.0000 0.69560  0.75040  0.81400  Biso   1.000  H
  H14      1.0000 0.61500  0.71040  0.78790  Biso   1.000  H
  H15      1.0000 0.54450  0.78270  0.84890  Biso   1.000  H
  H16      1.0000 0.42540  0.81280  0.90290  Biso   1.000  H
  H17      1.0000 0.45880  0.54360  0.95860  Biso   1.000  H
  H18      1.0000 0.58390  0.51770  0.90590  Biso   1.000  H
  H19      1.0000 0.65060  0.57800  0.73980  Biso   1.000  H
  H20      1.0000 0.68390  0.51170  0.78020  Biso   1.000  H
  H21      1.0000 0.89210  0.44510  0.67310  Biso   1.000  H
  H22      1.0000 0.86340  0.35240  0.61690  Biso   1.000  H
  H23      1.0000 0.58180  0.36160  0.65310  Biso   1.000  H
  H24      1.0000 0.60820  0.45480  0.71000  Biso   1.000  H
  H25      1.0000 0.46040  0.12300  0.47510  Biso   1.000  H
  H26      1.0000 0.29830  0.12710  0.46790  Biso   1.000  H
  H27      1.0000 0.25950  0.26250  0.57910  Biso   1.000  H
  H28      1.0000 0.42120  0.25460  0.58310  Biso   1.000  H
  H29      1.0000 0.96170  0.32170  0.54100  Biso   1.000  H
  H30      1.0000 0.12370  0.32110  0.54640  Biso   1.000  H
  H31      1.0000 0.14680  0.07760  0.48700  Biso   1.000  H
  H32      1.0000 0.98280  0.08680  0.48130  Biso   1.000  H
  H33      1.0000 0.68910  0.83190  0.21740  Biso   1.000  H
  H34      1.0000 0.77380  0.80440  0.24710  Biso   1.000  H
  H35      1.0000 0.82290  0.56870  0.17070  Biso   1.000  H
  H36      1.0000 0.94050  0.57670  0.11510  Biso   1.000  H
  H37      1.0000 0.94720  0.86160  0.11600  Biso   1.000  H
  H38      1.0000 0.82720  0.85540  0.17240  Biso   1.000  H
  H39      1.0000 0.57190  0.81590  0.32500  Biso   1.000  H
  H40      1.0000 0.58320  0.88220  0.28050  Biso   1.000  H
  H41      1.0000 0.55450  0.95130  0.35750  Biso   1.000  H
  H42      1.0000 0.56330  0.03690  0.41770  Biso   1.000  H
  H43      1.0000 0.84960  0.01240  0.40610  Biso   1.000  H
  H44      1.0000 0.84240  0.92540  0.34570  Biso   1.000  H
  H45      1.0000 0.75040  0.69560  0.31400  Biso   1.000  H
  H46      1.0000 0.71040  0.61500  0.28790  Biso   1.000  H
  H47      1.0000 0.78270  0.54450  0.34890  Biso   1.000  H
  H48      1.0000 0.81280  0.42540  0.40290  Biso   1.000  H
  H49      1.0000 0.54360  0.45880  0.45860  Biso   1.000  H
  H50      1.0000 0.51770  0.58390  0.40590  Biso   1.000  H
  H51      1.0000 0.57800  0.65060  0.23980  Biso   1.000  H
  H52      1.0000 0.51170  0.68390  0.28020  Biso   1.000  H
  H53      1.0000 0.44510  0.89210  0.17310  Biso   1.000  H
  H54      1.0000 0.35240  0.86340  0.11690  Biso   1.000  H
  H55      1.0000 0.36160  0.58180  0.15310  Biso   1.000  H
  H56      1.0000 0.45480  0.60820  0.21000  Biso   1.000  H
  H57      1.0000 0.12300  0.46040  0.97510  Biso   1.000  H
  H58      1.0000 0.12710  0.29830  0.96790  Biso   1.000  H
  H59      1.0000 0.26250  0.25950  0.07910  Biso   1.000  H
  H60      1.0000 0.25460  0.42120  0.08310  Biso   1.000  H
  H61      1.0000 0.32170  0.96170  0.04100  Biso   1.000  H
  H62      1.0000 0.32110  0.12370  0.04640  Biso   1.000  H
  H63      1.0000 0.07760  0.14680  0.98700  Biso   1.000  H
  H64      1.0000 0.08680  0.98280  0.98130  Biso   1.000  H
  C1       1.0000 0.74710  0.64470  0.77423  Biso   1.000  C
  C2       1.0000 0.78060  0.71700  0.73592  Biso   1.000  C
  C3       1.0000 0.71180  0.81300  0.67761  Biso   1.000  C
  C4       1.0000 0.62770  0.84810  0.65990  Biso   1.000  C
  C5       1.0000 0.63300  0.91880  0.62710  Biso   1.000  C
  C6       1.0000 0.71880  0.96080  0.61037  Biso   1.000  C
  C7       1.0000 0.80250  0.92290  0.62750  Biso   1.000  C
  C8       1.0000 0.79910  0.85070  0.66100  Biso   1.000  C
  C9       1.0000 0.71940  0.04440  0.57694  Biso   1.000  C
  C10      1.0000 0.83420  0.61500  0.79930  Biso   1.000  C
  C11      1.0000 0.92620  0.69840  0.84605  Biso   1.000  C
  C12      1.0000 0.96270  0.61390  0.86750  Biso   1.000  C
  C13      1.0000 0.01490  0.61950  0.90310  Biso   1.000  C
  C14      1.0000 0.03600  0.70660  0.91775  Biso   1.000  C
  C15      1.0000 0.00040  0.79040  0.89620  Biso   1.000  C
  C16      1.0000 0.94730  0.78610  0.86030  Biso   1.000  C
  C17      1.0000 0.09310  0.71110  0.95655  Biso   1.000  C
  C18      1.0000 0.67080  0.69300  0.80380  Biso   1.000  C
  C19      1.0000 0.57510  0.64710  0.87134  Biso   1.000  C
  C20      1.0000 0.52760  0.73500  0.87110  Biso   1.000  C
  C21      1.0000 0.45580  0.75300  0.90320  Biso   1.000  C
  C22      1.0000 0.42870  0.68030  0.93667  Biso   1.000  C
  C23      1.0000 0.47650  0.59210  0.93690  Biso   1.000  C
  C24      1.0000 0.55060  0.57600  0.90490  Biso   1.000  C
  C25      1.0000 0.34530  0.69470  0.96948  Biso   1.000  C
  C26      1.0000 0.70510  0.55830  0.75618  Biso   1.000  C
  C27      1.0000 0.75350  0.46150  0.69648  Biso   1.000  C
  C28      1.0000 0.82960  0.42940  0.66890  Biso   1.000  C
  C29      1.0000 0.81230  0.37430  0.63510  Biso   1.000  C
  C30      1.0000 0.71960  0.35140  0.62815  Biso   1.000  C
  C31      1.0000 0.64370  0.37990  0.65688  Biso   1.000  C
  C32      1.0000 0.65930  0.43530  0.69104  Biso   1.000  C
  C33      1.0000 0.70260  0.29320  0.59041  Biso   1.000  C
  C34      1.0000 0.41930  0.15130  0.49610  Biso   1.000  C
  C35      1.0000 0.32180  0.15340  0.49170  Biso   1.000  C
  C36      1.0000 0.25900  0.19420  0.52249  Biso   1.000  C
  C37      1.0000 0.29870  0.23370  0.55765  Biso   1.000  C
  C38      1.0000 0.39580  0.22880  0.55963  Biso   1.000  C
  C39      1.0000 0.99940  0.27160  0.53030  Biso   1.000  C
  C40      1.0000 0.09660  0.27100  0.53380  Biso   1.000  C
  C41      1.0000 0.15480  0.19720  0.51880  Biso   1.000  C
  C42      1.0000 0.11070  0.12770  0.49860  Biso   1.000  C
  C43      1.0000 0.01130  0.13350  0.49550  Biso   1.000  C
  C44      1.0000 0.64470  0.74710  0.27423  Biso   1.000  C
  C45      1.0000 0.71700  0.78060  0.23592  Biso   1.000  C
  C46      1.0000 0.81300  0.71180  0.17761  Biso   1.000  C
  C47      1.0000 0.84810  0.62770  0.15990  Biso   1.000  C
  C48      1.0000 0.91880  0.63300  0.12710  Biso   1.000  C
  C49      1.0000 0.96080  0.71880  0.11037  Biso   1.000  C
  C50      1.0000 0.92290  0.80250  0.12750  Biso   1.000  C
  C51      1.0000 0.85070  0.79910  0.16100  Biso   1.000  C
  C52      1.0000 0.04440  0.71940  0.07694  Biso   1.000  C
  C53      1.0000 0.61500  0.83420  0.29930  Biso   1.000  C
  C54      1.0000 0.69840  0.92620  0.34605  Biso   1.000  C
  C55      1.0000 0.61390  0.96270  0.36750  Biso   1.000  C
  C56      1.0000 0.61950  0.01490  0.40310  Biso   1.000  C
  C57      1.0000 0.70660  0.03600  0.41775  Biso   1.000  C
  C58      1.0000 0.79040  0.00040  0.39620  Biso   1.000  C
  C59      1.0000 0.78610  0.94730  0.36030  Biso   1.000  C
  C60      1.0000 0.71110  0.09310  0.45655  Biso   1.000  C
  C61      1.0000 0.69300  0.67080  0.30380  Biso   1.000  C
  C62      1.0000 0.64710  0.57510  0.37134  Biso   1.000  C
  C63      1.0000 0.73500  0.52760  0.37110  Biso   1.000  C
  C64      1.0000 0.75300  0.45580  0.40320  Biso   1.000  C
  C65      1.0000 0.68030  0.42870  0.43667  Biso   1.000  C
  C66      1.0000 0.59210  0.47650  0.43690  Biso   1.000  C
  C67      1.0000 0.57600  0.55060  0.40490  Biso   1.000  C
  C68      1.0000 0.69470  0.34530  0.46948  Biso   1.000  C
  C69      1.0000 0.55830  0.70510  0.25618  Biso   1.000  C
  C70      1.0000 0.46150  0.75350  0.19648  Biso   1.000  C
  C71      1.0000 0.42940  0.82960  0.16890  Biso   1.000  C
  C72      1.0000 0.37430  0.81230  0.13510  Biso   1.000  C
  C73      1.0000 0.35140  0.71960  0.12815  Biso   1.000  C
  C74      1.0000 0.37990  0.64370  0.15688  Biso   1.000  C
  C75      1.0000 0.43530  0.65930  0.19104  Biso   1.000  C
  C76      1.0000 0.29320  0.70260  0.09041  Biso   1.000  C
  C77      1.0000 0.15130  0.41930  0.99610  Biso   1.000  C
  C78      1.0000 0.15340  0.32180  0.99170  Biso   1.000  C
  C79      1.0000 0.19420  0.25900  0.02249  Biso   1.000  C
  C80      1.0000 0.23370  0.29870  0.05765  Biso   1.000  C
  C81      1.0000 0.22880  0.39580  0.05963  Biso   1.000  C
  C82      1.0000 0.27160  0.99940  0.03030  Biso   1.000  C
  C83      1.0000 0.27100  0.09660  0.03380  Biso   1.000  C
  C84      1.0000 0.19720  0.15480  0.01880  Biso   1.000  C
  C85      1.0000 0.12770  0.11070  0.99860  Biso   1.000  C
  C86      1.0000 0.13350  0.01130  0.99550  Biso   1.000  C
  N1       1.0000 0.45660  0.18900  0.52984  Biso   1.000  N
  N2       1.0000 0.95710  0.20130  0.51179  Biso   1.000  N
  N3       1.0000 0.18900  0.45660  0.02984  Biso   1.000  N
  N4       1.0000 0.20130  0.95710  0.01179  Biso   1.000  N
  O1       1.0000 0.70020  0.74160  0.71106  Biso   1.000  O
  O2       1.0000 0.64100  0.07320  0.56455  Biso   1.000  O
  O3       1.0000 0.79890  0.08050  0.56273  Biso   1.000  O
  O4       1.0000 0.87080  0.70200  0.81216  Biso   1.000  O
  O5       1.0000 0.12870  0.63490  0.97312  Biso   1.000  O
  O6       1.0000 0.10320  0.79340  0.96989  Biso   1.000  O
  O7       1.0000 0.64570  0.62290  0.84100  Biso   1.000  O
  O8       1.0000 0.30730  0.77710  0.97008  Biso   1.000  O
  O9       1.0000 0.32030  0.62350  0.99505  Biso   1.000  O
  O10      1.0000 0.77870  0.51730  0.72786  Biso   1.000  O
  O11      1.0000 0.77530  0.27930  0.56392  Biso   1.000  O
  O12      1.0000 0.61940  0.26380  0.58685  Biso   1.000  O
  O13      1.0000 0.74160  0.70020  0.21106  Biso   1.000  O
  O14      1.0000 0.07320  0.64100  0.06455  Biso   1.000  O
  O15      1.0000 0.08050  0.79890  0.06273  Biso   1.000  O
  O16      1.0000 0.70200  0.87080  0.31216  Biso   1.000  O
  O17      1.0000 0.63490  0.12870  0.47312  Biso   1.000  O
  O18      1.0000 0.79340  0.10320  0.46989  Biso   1.000  O
  O19      1.0000 0.62290  0.64570  0.34100  Biso   1.000  O
  O20      1.0000 0.77710  0.30730  0.47008  Biso   1.000  O
  O21      1.0000 0.62350  0.32030  0.49505  Biso   1.000  O
  O22      1.0000 0.51730  0.77870  0.22786  Biso   1.000  O
  O23      1.0000 0.27930  0.77530  0.06392  Biso   1.000  O
  O24      1.0000 0.26380  0.61940  0.08685  Biso   1.000  O
  Zn5      1.0000 0.80497  0.39813  0.96880  Biso   1.000  Zn
  Zn6      1.0000 0.80429  0.18847  0.98542  Biso   1.000  Zn
  Zn7      1.0000 0.39813  0.80497  0.46880  Biso   1.000  Zn
  Zn8      1.0000 0.18847  0.80429  0.48542  Biso   1.000  Zn
  H65      1.0000 0.31090  0.16810  0.78260  Biso   1.000  H
  H66      1.0000 0.22620  0.19560  0.75290  Biso   1.000  H
  H67      1.0000 0.17710  0.43130  0.82930  Biso   1.000  H
  H68      1.0000 0.05950  0.42330  0.88490  Biso   1.000  H
  H69      1.0000 0.05280  0.13840  0.88400  Biso   1.000  H
  H70      1.0000 0.17280  0.14460  0.82760  Biso   1.000  H
  H71      1.0000 0.42810  0.18410  0.67500  Biso   1.000  H
  H72      1.0000 0.41680  0.11780  0.71950  Biso   1.000  H
  H73      1.0000 0.44550  0.04870  0.64250  Biso   1.000  H
  H74      1.0000 0.43670  0.96310  0.58230  Biso   1.000  H
  H75      1.0000 0.15040  0.98760  0.59390  Biso   1.000  H
  H76      1.0000 0.15760  0.07460  0.65430  Biso   1.000  H
  H77      1.0000 0.24960  0.30440  0.68600  Biso   1.000  H
  H78      1.0000 0.28960  0.38500  0.71210  Biso   1.000  H
  H79      1.0000 0.21730  0.45550  0.65110  Biso   1.000  H
  H80      1.0000 0.18720  0.57460  0.59710  Biso   1.000  H
  H81      1.0000 0.45640  0.54120  0.54140  Biso   1.000  H
  H82      1.0000 0.48230  0.41610  0.59410  Biso   1.000  H
  H83      1.0000 0.42200  0.34940  0.76020  Biso   1.000  H
  H84      1.0000 0.48830  0.31610  0.71980  Biso   1.000  H
  H85      1.0000 0.55490  0.10790  0.82690  Biso   1.000  H
  H86      1.0000 0.64760  0.13660  0.88310  Biso   1.000  H
  H87      1.0000 0.63840  0.41820  0.84690  Biso   1.000  H
  H88      1.0000 0.54520  0.39180  0.79000  Biso   1.000  H
  H89      1.0000 0.87700  0.53960  0.02490  Biso   1.000  H
  H90      1.0000 0.87290  0.70170  0.03210  Biso   1.000  H
  H91      1.0000 0.73750  0.74050  0.92090  Biso   1.000  H
  H92      1.0000 0.74540  0.57880  0.91690  Biso   1.000  H
  H93      1.0000 0.67830  0.03830  0.95900  Biso   1.000  H
  H94      1.0000 0.67890  0.87630  0.95360  Biso   1.000  H
  H95      1.0000 0.92240  0.85320  0.01300  Biso   1.000  H
  H96      1.0000 0.91320  0.01720  0.01870  Biso   1.000  H
  H97      1.0000 0.16810  0.31090  0.28260  Biso   1.000  H
  H98      1.0000 0.19560  0.22620  0.25290  Biso   1.000  H
  H99      1.0000 0.43130  0.17710  0.32930  Biso   1.000  H
  H100     1.0000 0.42330  0.05950  0.38490  Biso   1.000  H
  H101     1.0000 0.13840  0.05280  0.38400  Biso   1.000  H
  H102     1.0000 0.14460  0.17280  0.32760  Biso   1.000  H
  H103     1.0000 0.18410  0.42810  0.17500  Biso   1.000  H
  H104     1.0000 0.11780  0.41680  0.21950  Biso   1.000  H
  H105     1.0000 0.04870  0.44550  0.14250  Biso   1.000  H
  H106     1.0000 0.96310  0.43670  0.08230  Biso   1.000  H
  H107     1.0000 0.98760  0.15040  0.09390  Biso   1.000  H
  H108     1.0000 0.07460  0.15760  0.15430  Biso   1.000  H
  H109     1.0000 0.30440  0.24960  0.18600  Biso   1.000  H
  H110     1.0000 0.38500  0.28960  0.21210  Biso   1.000  H
  H111     1.0000 0.45550  0.21730  0.15110  Biso   1.000  H
  H112     1.0000 0.57460  0.18720  0.09710  Biso   1.000  H
  H113     1.0000 0.54120  0.45640  0.04140  Biso   1.000  H
  H114     1.0000 0.41610  0.48230  0.09410  Biso   1.000  H
  H115     1.0000 0.34940  0.42200  0.26020  Biso   1.000  H
  H116     1.0000 0.31610  0.48830  0.21980  Biso   1.000  H
  H117     1.0000 0.10790  0.55490  0.32690  Biso   1.000  H
  H118     1.0000 0.13660  0.64760  0.38310  Biso   1.000  H
  H119     1.0000 0.41820  0.63840  0.34690  Biso   1.000  H
  H120     1.0000 0.39180  0.54520  0.29000  Biso   1.000  H
  H121     1.0000 0.53960  0.87700  0.52490  Biso   1.000  H
  H122     1.0000 0.70170  0.87290  0.53210  Biso   1.000  H
  H123     1.0000 0.74050  0.73750  0.42090  Biso   1.000  H
  H124     1.0000 0.57880  0.74540  0.41690  Biso   1.000  H
  H125     1.0000 0.03830  0.67830  0.45900  Biso   1.000  H
  H126     1.0000 0.87630  0.67890  0.45360  Biso   1.000  H
  H127     1.0000 0.85320  0.92240  0.51300  Biso   1.000  H
  H128     1.0000 0.01720  0.91320  0.51870  Biso   1.000  H
  C87      1.0000 0.35530  0.25290  0.72577  Biso   1.000  C
  C88      1.0000 0.28300  0.21940  0.76408  Biso   1.000  C
  C89      1.0000 0.18700  0.28820  0.82239  Biso   1.000  C
  C90      1.0000 0.15190  0.37230  0.84010  Biso   1.000  C
  C91      1.0000 0.08120  0.36700  0.87290  Biso   1.000  C
  C92      1.0000 0.03920  0.28120  0.88963  Biso   1.000  C
  C93      1.0000 0.07710  0.19750  0.87250  Biso   1.000  C
  C94      1.0000 0.14930  0.20090  0.83900  Biso   1.000  C
  C95      1.0000 0.95560  0.28060  0.92306  Biso   1.000  C
  C96      1.0000 0.38500  0.16580  0.70070  Biso   1.000  C
  C97      1.0000 0.30160  0.07380  0.65395  Biso   1.000  C
  C98      1.0000 0.38610  0.03730  0.63250  Biso   1.000  C
  C99      1.0000 0.38050  0.98510  0.59690  Biso   1.000  C
  C100     1.0000 0.29340  0.96400  0.58225  Biso   1.000  C
  C101     1.0000 0.20960  0.99960  0.60380  Biso   1.000  C
  C102     1.0000 0.21390  0.05270  0.63970  Biso   1.000  C
  C103     1.0000 0.28890  0.90690  0.54345  Biso   1.000  C
  C104     1.0000 0.30700  0.32920  0.69620  Biso   1.000  C
  C105     1.0000 0.35290  0.42490  0.62866  Biso   1.000  C
  C106     1.0000 0.26500  0.47240  0.62890  Biso   1.000  C
  C107     1.0000 0.24700  0.54420  0.59680  Biso   1.000  C
  C108     1.0000 0.31970  0.57130  0.56333  Biso   1.000  C
  C109     1.0000 0.40790  0.52350  0.56310  Biso   1.000  C
  C110     1.0000 0.42400  0.44940  0.59510  Biso   1.000  C
  C111     1.0000 0.30530  0.65470  0.53052  Biso   1.000  C
  C112     1.0000 0.44170  0.29490  0.74382  Biso   1.000  C
  C113     1.0000 0.53850  0.24650  0.80352  Biso   1.000  C
  C114     1.0000 0.57060  0.17040  0.83110  Biso   1.000  C
  C115     1.0000 0.62570  0.18770  0.86490  Biso   1.000  C
  C116     1.0000 0.64860  0.28040  0.87185  Biso   1.000  C
  C117     1.0000 0.62010  0.35630  0.84312  Biso   1.000  C
  C118     1.0000 0.56470  0.34070  0.80896  Biso   1.000  C
  C119     1.0000 0.70680  0.29740  0.90959  Biso   1.000  C
  C120     1.0000 0.84870  0.58070  0.00390  Biso   1.000  C
  C121     1.0000 0.84660  0.67820  0.00830  Biso   1.000  C
  C122     1.0000 0.80580  0.74100  0.97751  Biso   1.000  C
  C123     1.0000 0.76630  0.70130  0.94235  Biso   1.000  C
  C124     1.0000 0.77120  0.60420  0.94037  Biso   1.000  C
  C125     1.0000 0.72840  0.00060  0.96970  Biso   1.000  C
  C126     1.0000 0.72900  0.90340  0.96620  Biso   1.000  C
  C127     1.0000 0.80280  0.84520  0.98120  Biso   1.000  C
  C128     1.0000 0.87230  0.88930  0.00140  Biso   1.000  C
  C129     1.0000 0.86650  0.98870  0.00450  Biso   1.000  C
  C130     1.0000 0.25290  0.35530  0.22577  Biso   1.000  C
  C131     1.0000 0.21940  0.28300  0.26408  Biso   1.000  C
  C132     1.0000 0.28820  0.18700  0.32239  Biso   1.000  C
  C133     1.0000 0.37230  0.15190  0.34010  Biso   1.000  C
  C134     1.0000 0.36700  0.08120  0.37290  Biso   1.000  C
  C135     1.0000 0.28120  0.03920  0.38963  Biso   1.000  C
  C136     1.0000 0.19750  0.07710  0.37250  Biso   1.000  C
  C137     1.0000 0.20090  0.14930  0.33900  Biso   1.000  C
  C138     1.0000 0.28060  0.95560  0.42306  Biso   1.000  C
  C139     1.0000 0.16580  0.38500  0.20070  Biso   1.000  C
  C140     1.0000 0.07380  0.30160  0.15395  Biso   1.000  C
  C141     1.0000 0.03730  0.38610  0.13250  Biso   1.000  C
  C142     1.0000 0.98510  0.38050  0.09690  Biso   1.000  C
  C143     1.0000 0.96400  0.29340  0.08225  Biso   1.000  C
  C144     1.0000 0.99960  0.20960  0.10380  Biso   1.000  C
  C145     1.0000 0.05270  0.21390  0.13970  Biso   1.000  C
  C146     1.0000 0.90690  0.28890  0.04345  Biso   1.000  C
  C147     1.0000 0.32920  0.30700  0.19620  Biso   1.000  C
  C148     1.0000 0.42490  0.35290  0.12866  Biso   1.000  C
  C149     1.0000 0.47240  0.26500  0.12890  Biso   1.000  C
  C150     1.0000 0.54420  0.24700  0.09680  Biso   1.000  C
  C151     1.0000 0.57130  0.31970  0.06333  Biso   1.000  C
  C152     1.0000 0.52350  0.40790  0.06310  Biso   1.000  C
  C153     1.0000 0.44940  0.42400  0.09510  Biso   1.000  C
  C154     1.0000 0.65470  0.30530  0.03052  Biso   1.000  C
  C155     1.0000 0.29490  0.44170  0.24382  Biso   1.000  C
  C156     1.0000 0.24650  0.53850  0.30352  Biso   1.000  C
  C157     1.0000 0.17040  0.57060  0.33110  Biso   1.000  C
  C158     1.0000 0.18770  0.62570  0.36490  Biso   1.000  C
  C159     1.0000 0.28040  0.64860  0.37185  Biso   1.000  C
  C160     1.0000 0.35630  0.62010  0.34312  Biso   1.000  C
  C161     1.0000 0.34070  0.56470  0.30896  Biso   1.000  C
  C162     1.0000 0.29740  0.70680  0.40959  Biso   1.000  C
  C163     1.0000 0.58070  0.84870  0.50390  Biso   1.000  C
  C164     1.0000 0.67820  0.84660  0.50830  Biso   1.000  C
  C165     1.0000 0.74100  0.80580  0.47751  Biso   1.000  C
  C166     1.0000 0.70130  0.76630  0.44235  Biso   1.000  C
  C167     1.0000 0.60420  0.77120  0.44037  Biso   1.000  C
  C168     1.0000 0.00060  0.72840  0.46970  Biso   1.000  C
  C169     1.0000 0.90340  0.72900  0.46620  Biso   1.000  C
  C170     1.0000 0.84520  0.80280  0.48120  Biso   1.000  C
  C171     1.0000 0.88930  0.87230  0.50140  Biso   1.000  C
  C172     1.0000 0.98870  0.86650  0.50450  Biso   1.000  C
  N5       1.0000 0.81100  0.54340  0.97016  Biso   1.000  N
  N6       1.0000 0.79870  0.04290  0.98821  Biso   1.000  N
  N7       1.0000 0.54340  0.81100  0.47016  Biso   1.000  N
  N8       1.0000 0.04290  0.79870  0.48821  Biso   1.000  N
  O25      1.0000 0.25840  0.29980  0.78894  Biso   1.000  O
  O26      1.0000 0.92680  0.35900  0.93545  Biso   1.000  O
  O27      1.0000 0.91950  0.20110  0.93727  Biso   1.000  O
  O28      1.0000 0.29800  0.12920  0.68784  Biso   1.000  O
  O29      1.0000 0.36510  0.87130  0.52688  Biso   1.000  O
  O30      1.0000 0.20660  0.89680  0.53011  Biso   1.000  O
  O31      1.0000 0.37710  0.35430  0.65900  Biso   1.000  O
  O32      1.0000 0.22290  0.69270  0.52992  Biso   1.000  O
  O33      1.0000 0.37650  0.67970  0.50495  Biso   1.000  O
  O34      1.0000 0.48270  0.22130  0.77214  Biso   1.000  O
  O35      1.0000 0.72070  0.22470  0.93608  Biso   1.000  O
  O36      1.0000 0.73620  0.38060  0.91315  Biso   1.000  O
  O37      1.0000 0.29980  0.25840  0.28894  Biso   1.000  O
  O38      1.0000 0.35900  0.92680  0.43545  Biso   1.000  O
  O39      1.0000 0.20110  0.91950  0.43727  Biso   1.000  O
  O40      1.0000 0.12920  0.29800  0.18784  Biso   1.000  O
  O41      1.0000 0.87130  0.36510  0.02688  Biso   1.000  O
  O42      1.0000 0.89680  0.20660  0.03011  Biso   1.000  O
  O43      1.0000 0.35430  0.37710  0.15900  Biso   1.000  O
  O44      1.0000 0.69270  0.22290  0.02992  Biso   1.000  O
  O45      1.0000 0.67970  0.37650  0.00495  Biso   1.000  O
  O46      1.0000 0.22130  0.48270  0.27214  Biso   1.000  O
  O47      1.0000 0.22470  0.72070  0.43608  Biso   1.000  O
  O48      1.0000 0.38060  0.73620  0.41315  Biso   1.000  O
