data_image0
_cell_length_a       11.3469
_cell_length_b       12.2871
_cell_length_c       12.2871
_cell_angle_alpha    69.031
_cell_angle_beta     72.0716
_cell_angle_gamma    107.928

_symmetry_space_group_name_H-M    P 1
_symmetry_int_tables_number       1

loop_
  _symmetry_equiv_pos_as_xyz
  'x, y, z'

loop_
  _atom_site_label
  _atom_site_occupancy
  _atom_site_fract_x
  _atom_site_fract_y
  _atom_site_fract_z
  _atom_site_thermal_displace_type
  _atom_site_B_iso_or_equiv
  _atom_site_type_symbol
  Zn1      1.0000 0.68762  0.53524  0.93775  Biso   1.000  Zn
  Zn2      1.0000 0.62537  0.93775  0.52701  Biso   1.000  Zn
  Zn3      1.0000 0.15238  0.52701  0.53524  Biso   1.000  Zn
  Zn4      1.0000 0.31238  0.46476  0.06225  Biso   1.000  Zn
  Zn5      1.0000 0.37463  0.06225  0.47299  Biso   1.000  Zn
  Zn6      1.0000 0.84762  0.47299  0.46476  Biso   1.000  Zn
  H1       1.0000 0.26860  0.67060  0.91810  Biso   1.000  H
  H2       1.0000 0.36160  0.82370  0.82430  Biso   1.000  H
  H3       1.0000 0.31910  0.73260  0.76590  Biso   1.000  H
  H4       1.0000 0.87120  0.75990  0.68220  Biso   1.000  H
  H5       1.0000 0.84690  0.81480  0.55920  Biso   1.000  H
  H6       1.0000 0.88340  0.90140  0.62330  Biso   1.000  H
  H7       1.0000 0.88270  0.69360  0.06410  Biso   1.000  H
  H8       1.0000 0.18670  0.91810  0.41130  Biso   1.000  H
  H9       1.0000 0.18590  0.82430  0.35200  Biso   1.000  H
  H10      1.0000 0.08500  0.76590  0.50150  Biso   1.000  H
  H11      1.0000 0.55340  0.68220  0.55790  Biso   1.000  H
  H12      1.0000 0.40610  0.55920  0.62600  Biso   1.000  H
  H13      1.0000 0.50670  0.62330  0.47530  Biso   1.000  H
  H14      1.0000 0.94680  0.06410  0.24230  Biso   1.000  H
  H15      1.0000 0.59800  0.41130  0.67060  Biso   1.000  H
  H16      1.0000 0.53790  0.35200  0.82370  Biso   1.000  H
  H17      1.0000 0.58650  0.50150  0.73260  Biso   1.000  H
  H18      1.0000 0.11130  0.55790  0.75990  Biso   1.000  H
  H19      1.0000 0.03210  0.62600  0.81480  Biso   1.000  H
  H20      1.0000 0.98200  0.47530  0.90140  Biso   1.000  H
  H21      1.0000 0.18910  0.24230  0.69360  Biso   1.000  H
  H22      1.0000 0.73140  0.32940  0.08190  Biso   1.000  H
  H23      1.0000 0.63840  0.17630  0.17570  Biso   1.000  H
  H24      1.0000 0.68090  0.26740  0.23410  Biso   1.000  H
  H25      1.0000 0.12880  0.24010  0.31780  Biso   1.000  H
  H26      1.0000 0.15310  0.18520  0.44080  Biso   1.000  H
  H27      1.0000 0.11660  0.09860  0.37670  Biso   1.000  H
  H28      1.0000 0.11730  0.30640  0.93590  Biso   1.000  H
  H29      1.0000 0.81330  0.08190  0.58870  Biso   1.000  H
  H30      1.0000 0.81410  0.17570  0.64800  Biso   1.000  H
  H31      1.0000 0.91500  0.23410  0.49850  Biso   1.000  H
  H32      1.0000 0.44660  0.31780  0.44210  Biso   1.000  H
  H33      1.0000 0.59390  0.44080  0.37400  Biso   1.000  H
  H34      1.0000 0.49330  0.37670  0.52470  Biso   1.000  H
  H35      1.0000 0.05320  0.93590  0.75770  Biso   1.000  H
  H36      1.0000 0.40200  0.58870  0.32940  Biso   1.000  H
  H37      1.0000 0.46210  0.64800  0.17630  Biso   1.000  H
  H38      1.0000 0.41350  0.49850  0.26740  Biso   1.000  H
  H39      1.0000 0.88870  0.44210  0.24010  Biso   1.000  H
  H40      1.0000 0.96790  0.37400  0.18520  Biso   1.000  H
  H41      1.0000 0.01800  0.52470  0.09860  Biso   1.000  H
  H42      1.0000 0.81090  0.75770  0.30640  Biso   1.000  H
  C1       1.0000 0.34410  0.73910  0.83210  Biso   1.000  C
  C2       1.0000 0.47240  0.72410  0.81320  Biso   1.000  C
  C3       1.0000 0.68280  0.75640  0.72970  Biso   1.000  C
  C4       1.0000 0.83450  0.81320  0.64070  Biso   1.000  C
  C5       1.0000 0.81520  0.66610  0.03840  Biso   1.000  C
  C6       1.0000 0.17620  0.83210  0.42880  Biso   1.000  C
  C7       1.0000 0.28560  0.81320  0.46270  Biso   1.000  C
  C8       1.0000 0.41250  0.72970  0.51390  Biso   1.000  C
  C9       1.0000 0.47520  0.64070  0.54610  Biso   1.000  C
  C10      1.0000 0.85360  0.03840  0.29550  Biso   1.000  C
  C11      1.0000 0.60500  0.42880  0.73910  Biso   1.000  C
  C12      1.0000 0.74830  0.46270  0.72410  Biso   1.000  C
  C13      1.0000 0.92640  0.51390  0.75640  Biso   1.000  C
  C14      1.0000 0.02130  0.54610  0.81320  Biso   1.000  C
  C15      1.0000 0.14910  0.29550  0.66610  Biso   1.000  C
  C16      1.0000 0.65590  0.26090  0.16790  Biso   1.000  C
  C17      1.0000 0.52760  0.27590  0.18680  Biso   1.000  C
  C18      1.0000 0.31720  0.24360  0.27030  Biso   1.000  C
  C19      1.0000 0.16550  0.18680  0.35930  Biso   1.000  C
  C20      1.0000 0.18480  0.33390  0.96160  Biso   1.000  C
  C21      1.0000 0.82380  0.16790  0.57120  Biso   1.000  C
  C22      1.0000 0.71440  0.18680  0.53730  Biso   1.000  C
  C23      1.0000 0.58750  0.27030  0.48610  Biso   1.000  C
  C24      1.0000 0.52480  0.35930  0.45390  Biso   1.000  C
  C25      1.0000 0.14640  0.96160  0.70450  Biso   1.000  C
  C26      1.0000 0.39500  0.57120  0.26090  Biso   1.000  C
  C27      1.0000 0.25170  0.53730  0.27590  Biso   1.000  C
  C28      1.0000 0.07360  0.48610  0.24360  Biso   1.000  C
  C29      1.0000 0.97870  0.45390  0.18680  Biso   1.000  C
  C30      1.0000 0.85090  0.70450  0.33390  Biso   1.000  C
  N1       1.0000 0.61460  0.64980  0.84720  Biso   1.000  N
  N2       1.0000 0.47810  0.62940  0.90090  Biso   1.000  N
  N3       1.0000 0.59720  0.80590  0.70270  Biso   1.000  N
  N4       1.0000 0.46180  0.84720  0.50300  Biso   1.000  N
  N5       1.0000 0.37900  0.90090  0.46970  Biso   1.000  N
  N6       1.0000 0.29990  0.70270  0.49140  Biso   1.000  N
  N7       1.0000 0.96480  0.50300  0.64980  Biso   1.000  N
  N8       1.0000 0.84870  0.46970  0.62940  Biso   1.000  N
  N9       1.0000 0.79130  0.49140  0.80590  Biso   1.000  N
  N10      1.0000 0.38540  0.35020  0.15280  Biso   1.000  N
  N11      1.0000 0.52190  0.37060  0.09910  Biso   1.000  N
  N12      1.0000 0.40280  0.19410  0.29730  Biso   1.000  N
  N13      1.0000 0.53820  0.15280  0.49700  Biso   1.000  N
  N14      1.0000 0.62100  0.09910  0.53030  Biso   1.000  N
  N15      1.0000 0.70010  0.29730  0.50860  Biso   1.000  N
  N16      1.0000 0.03520  0.49700  0.35020  Biso   1.000  N
  N17      1.0000 0.15130  0.53030  0.37060  Biso   1.000  N
  N18      1.0000 0.20870  0.50860  0.19410  Biso   1.000  N
  O1       1.0000 0.81060  0.58950  0.00770  Biso   1.000  O
  O2       1.0000 0.73330  0.71710  0.03960  Biso   1.000  O
  O3       1.0000 0.81830  0.00770  0.40280  Biso   1.000  O
  O4       1.0000 0.77290  0.03960  0.24330  Biso   1.000  O
  O5       1.0000 0.22110  0.40280  0.58950  Biso   1.000  O
  O6       1.0000 0.01620  0.24330  0.71710  Biso   1.000  O
  O7       1.0000 0.18940  0.41050  0.99230  Biso   1.000  O
  O8       1.0000 0.26670  0.28290  0.96040  Biso   1.000  O
  O9       1.0000 0.18170  0.99230  0.59720  Biso   1.000  O
  O10      1.0000 0.22710  0.96040  0.75670  Biso   1.000  O
  O11      1.0000 0.77890  0.59720  0.41050  Biso   1.000  O
  O12      1.0000 0.98380  0.75670  0.28290  Biso   1.000  O
