data_image0
_cell_length_a       8.1256
_cell_length_b       10.5021
_cell_length_c       11.3817
_cell_angle_alpha    62.5251
_cell_angle_beta     84.3293
_cell_angle_gamma    77.633

_symmetry_space_group_name_H-M    P 1
_symmetry_int_tables_number       1

loop_
  _symmetry_equiv_pos_as_xyz
  'x, y, z'

loop_
  _atom_site_label
  _atom_site_occupancy
  _atom_site_fract_x
  _atom_site_fract_y
  _atom_site_fract_z
  _atom_site_thermal_displace_type
  _atom_site_B_iso_or_equiv
  _atom_site_type_symbol
  Fe1      1.0000 0.35798  0.24441  0.50780  Biso   1.000  Fe
  Fe2      1.0000 0.85798  0.75221  0.49220  Biso   1.000  Fe
  H1       1.0000 0.57270  0.94990  0.54260  Biso   1.000  H
  H2       1.0000 0.73140  0.25450  0.45120  Biso   1.000  H
  H3       1.0000 0.27550  0.93690  0.63160  Biso   1.000  H
  H4       1.0000 0.26940  0.73380  0.82980  Biso   1.000  H
  H5       1.0000 0.45250  0.93140  0.00140  Biso   1.000  H
  H6       1.0000 0.45550  0.12800  0.79780  Biso   1.000  H
  H7       1.0000 0.29100  0.54380  0.01100  Biso   1.000  H
  H8       1.0000 0.29040  0.34790  0.21520  Biso   1.000  H
  H9       1.0000 0.40680  0.76770  0.18640  Biso   1.000  H
  H10      1.0000 0.40620  0.56360  0.38460  Biso   1.000  H
  H11      1.0000 0.05800  0.18800  0.51600  Biso   1.000  H
  H12      1.0000 0.12900  0.19260  0.39880  Biso   1.000  H
  H13      1.0000 0.07270  0.49250  0.45740  Biso   1.000  H
  H14      1.0000 0.23140  0.70570  0.54880  Biso   1.000  H
  H15      1.0000 0.77550  0.56850  0.36840  Biso   1.000  H
  H16      1.0000 0.76940  0.56360  0.17020  Biso   1.000  H
  H17      1.0000 0.95250  0.93280  0.99860  Biso   1.000  H
  H18      1.0000 0.95550  0.92580  0.20220  Biso   1.000  H
  H19      1.0000 0.79100  0.55480  0.98900  Biso   1.000  H
  H20      1.0000 0.79040  0.56310  0.78480  Biso   1.000  H
  H21      1.0000 0.90680  0.95410  0.81360  Biso   1.000  H
  H22      1.0000 0.90620  0.94820  0.61540  Biso   1.000  H
  H23      1.0000 0.55800  0.70400  0.48400  Biso   1.000  H
  H24      1.0000 0.62900  0.59140  0.60120  Biso   1.000  H
  C1       1.0000 0.59510  0.01216  0.45528  Biso   1.000  C
  C2       1.0000 0.71680  0.26839  0.52682  Biso   1.000  C
  C3       1.0000 0.31130  0.93607  0.70706  Biso   1.000  C
  C4       1.0000 0.30670  0.81315  0.82650  Biso   1.000  C
  C5       1.0000 0.35760  0.80826  0.94128  Biso   1.000  C
  C6       1.0000 0.41500  0.92967  0.92766  Biso   1.000  C
  C7       1.0000 0.41630  0.04796  0.80448  Biso   1.000  C
  C8       1.0000 0.35210  0.68011  0.07278  Biso   1.000  C
  C9       1.0000 0.31540  0.55083  0.08574  Biso   1.000  C
  C10      1.0000 0.31530  0.43313  0.20914  Biso   1.000  C
  C11      1.0000 0.38430  0.68320  0.18900  Biso   1.000  C
  C12      1.0000 0.38260  0.55978  0.30804  Biso   1.000  C
  C13      1.0000 0.09510  0.46744  0.54472  Biso   1.000  C
  C14      1.0000 0.21680  0.79521  0.47318  Biso   1.000  C
  C15      1.0000 0.81130  0.64313  0.29294  Biso   1.000  C
  C16      1.0000 0.80670  0.63965  0.17350  Biso   1.000  C
  C17      1.0000 0.85760  0.74954  0.05872  Biso   1.000  C
  C18      1.0000 0.91500  0.85733  0.07234  Biso   1.000  C
  C19      1.0000 0.91630  0.85244  0.19552  Biso   1.000  C
  C20      1.0000 0.85210  0.75289  0.92722  Biso   1.000  C
  C21      1.0000 0.81540  0.63657  0.91426  Biso   1.000  C
  C22      1.0000 0.81530  0.64227  0.79086  Biso   1.000  C
  C23      1.0000 0.88430  0.87220  0.81100  Biso   1.000  C
  C24      1.0000 0.88260  0.86782  0.69196  Biso   1.000  C
  N1       1.0000 0.34910  0.43536  0.32048  Biso   1.000  N
  N2       1.0000 0.36400  0.05347  0.69406  Biso   1.000  N
  N3       1.0000 0.84910  0.75584  0.67952  Biso   1.000  N
  N4       1.0000 0.86400  0.74753  0.30594  Biso   1.000  N
  O1       1.0000 0.50770  0.13779  0.40542  Biso   1.000  O
  O2       1.0000 0.70980  0.96322  0.39776  Biso   1.000  O
  O3       1.0000 0.56830  0.28567  0.56786  Biso   1.000  O
  O4       1.0000 0.84340  0.26778  0.57624  Biso   1.000  O
  O5       1.0000 0.13670  0.20669  0.46302  Biso   1.000  O
  O6       1.0000 0.00770  0.54321  0.59458  Biso   1.000  O
  O7       1.0000 0.20980  0.36098  0.60224  Biso   1.000  O
  O8       1.0000 0.06830  0.85353  0.43214  Biso   1.000  O
  O9       1.0000 0.34340  0.84402  0.42376  Biso   1.000  O
  O10      1.0000 0.63670  0.66971  0.53698  Biso   1.000  O
