data_image0
_cell_length_a       15.374
_cell_length_b       15.374
_cell_length_c       15.374
_cell_angle_alpha    74.8415
_cell_angle_beta     74.8415
_cell_angle_gamma    74.8415

_symmetry_space_group_name_H-M    P 1
_symmetry_int_tables_number       1

loop_
  _symmetry_equiv_pos_as_xyz
  'x, y, z'

loop_
  _atom_site_label
  _atom_site_occupancy
  _atom_site_fract_x
  _atom_site_fract_y
  _atom_site_fract_z
  _atom_site_thermal_displace_type
  _atom_site_B_iso_or_equiv
  _atom_site_type_symbol
  Cu1      1.0000 0.99022  0.99022  0.42007  Biso   1.000  Cu
  Cu2      1.0000 0.42007  0.99022  0.99022  Biso   1.000  Cu
  Cu3      1.0000 0.99022  0.42007  0.99022  Biso   1.000  Cu
  Cu4      1.0000 0.00978  0.00978  0.57993  Biso   1.000  Cu
  Cu5      1.0000 0.00978  0.57993  0.00978  Biso   1.000  Cu
  Cu6      1.0000 0.57993  0.00978  0.00978  Biso   1.000  Cu
  H1       1.0000 0.98890  0.30300  0.51640  Biso   1.000  H
  H2       1.0000 0.51640  0.98890  0.30300  Biso   1.000  H
  H3       1.0000 0.30300  0.51640  0.98890  Biso   1.000  H
  H4       1.0000 0.69700  0.01110  0.48360  Biso   1.000  H
  H5       1.0000 0.01110  0.48360  0.69700  Biso   1.000  H
  H6       1.0000 0.48360  0.69700  0.01110  Biso   1.000  H
  H7       1.0000 0.01110  0.69700  0.48360  Biso   1.000  H
  H8       1.0000 0.48360  0.01110  0.69700  Biso   1.000  H
  H9       1.0000 0.69700  0.48360  0.01110  Biso   1.000  H
  H10      1.0000 0.30300  0.98890  0.51640  Biso   1.000  H
  H11      1.0000 0.98890  0.51640  0.30300  Biso   1.000  H
  H12      1.0000 0.51640  0.30300  0.98890  Biso   1.000  H
  H13      1.0000 0.97410  0.27100  0.27100  Biso   1.000  H
  H14      1.0000 0.27100  0.97410  0.27100  Biso   1.000  H
  H15      1.0000 0.27100  0.27100  0.97410  Biso   1.000  H
  H16      1.0000 0.72900  0.02590  0.72900  Biso   1.000  H
  H17      1.0000 0.02590  0.72900  0.72900  Biso   1.000  H
  H18      1.0000 0.72900  0.72900  0.02590  Biso   1.000  H
  C1       1.0000 0.98156  0.27146  0.40096  Biso   1.000  C
  C2       1.0000 0.98723  0.32723  0.45463  Biso   1.000  C
  C3       1.0000 0.98363  0.17073  0.43863  Biso   1.000  C
  C4       1.0000 0.40096  0.98156  0.27146  Biso   1.000  C
  C5       1.0000 0.45463  0.98723  0.32723  Biso   1.000  C
  C6       1.0000 0.43863  0.98363  0.17073  Biso   1.000  C
  C7       1.0000 0.27146  0.40096  0.98156  Biso   1.000  C
  C8       1.0000 0.32723  0.45463  0.98723  Biso   1.000  C
  C9       1.0000 0.17073  0.43863  0.98363  Biso   1.000  C
  C10      1.0000 0.72854  0.01844  0.59904  Biso   1.000  C
  C11      1.0000 0.67277  0.01277  0.54537  Biso   1.000  C
  C12      1.0000 0.82927  0.01637  0.56137  Biso   1.000  C
  C13      1.0000 0.01844  0.59904  0.72854  Biso   1.000  C
  C14      1.0000 0.01277  0.54537  0.67277  Biso   1.000  C
  C15      1.0000 0.01637  0.56137  0.82927  Biso   1.000  C
  C16      1.0000 0.59904  0.72854  0.01844  Biso   1.000  C
  C17      1.0000 0.54537  0.67277  0.01277  Biso   1.000  C
  C18      1.0000 0.56137  0.82927  0.01637  Biso   1.000  C
  C19      1.0000 0.01844  0.72854  0.59904  Biso   1.000  C
  C20      1.0000 0.01277  0.67277  0.54537  Biso   1.000  C
  C21      1.0000 0.01637  0.82927  0.56137  Biso   1.000  C
  C22      1.0000 0.59904  0.01844  0.72854  Biso   1.000  C
  C23      1.0000 0.54537  0.01277  0.67277  Biso   1.000  C
  C24      1.0000 0.56137  0.01637  0.82927  Biso   1.000  C
  C25      1.0000 0.72854  0.59904  0.01844  Biso   1.000  C
  C26      1.0000 0.67277  0.54537  0.01277  Biso   1.000  C
  C27      1.0000 0.82927  0.56137  0.01637  Biso   1.000  C
  C28      1.0000 0.27146  0.98156  0.40096  Biso   1.000  C
  C29      1.0000 0.32723  0.98723  0.45463  Biso   1.000  C
  C30      1.0000 0.17073  0.98363  0.43863  Biso   1.000  C
  C31      1.0000 0.98156  0.40096  0.27146  Biso   1.000  C
  C32      1.0000 0.98723  0.45463  0.32723  Biso   1.000  C
  C33      1.0000 0.98363  0.43863  0.17073  Biso   1.000  C
  C34      1.0000 0.40096  0.27146  0.98156  Biso   1.000  C
  C35      1.0000 0.45463  0.32723  0.98723  Biso   1.000  C
  C36      1.0000 0.43863  0.17073  0.98363  Biso   1.000  C
  C37      1.0000 0.99040  0.41915  0.41915  Biso   1.000  C
  C38      1.0000 0.99622  0.47687  0.47687  Biso   1.000  C
  C39      1.0000 0.97836  0.30811  0.30811  Biso   1.000  C
  C40      1.0000 0.41915  0.99040  0.41915  Biso   1.000  C
  C41      1.0000 0.47687  0.99622  0.47687  Biso   1.000  C
  C42      1.0000 0.30811  0.97836  0.30811  Biso   1.000  C
  C43      1.0000 0.41915  0.41915  0.99040  Biso   1.000  C
  C44      1.0000 0.47687  0.47687  0.99622  Biso   1.000  C
  C45      1.0000 0.30811  0.30811  0.97836  Biso   1.000  C
  C46      1.0000 0.58085  0.00960  0.58085  Biso   1.000  C
  C47      1.0000 0.52313  0.00378  0.52313  Biso   1.000  C
  C48      1.0000 0.69189  0.02164  0.69189  Biso   1.000  C
  C49      1.0000 0.00960  0.58085  0.58085  Biso   1.000  C
  C50      1.0000 0.00378  0.52313  0.52313  Biso   1.000  C
  C51      1.0000 0.02164  0.69189  0.69189  Biso   1.000  C
  C52      1.0000 0.58085  0.58085  0.00960  Biso   1.000  C
  C53      1.0000 0.52313  0.52313  0.00378  Biso   1.000  C
  C54      1.0000 0.69189  0.69189  0.02164  Biso   1.000  C
  O1       1.0000 0.97890  0.12429  0.38402  Biso   1.000  O
  O2       1.0000 0.99391  0.14021  0.52097  Biso   1.000  O
  O3       1.0000 0.38402  0.97890  0.12429  Biso   1.000  O
  O4       1.0000 0.52097  0.99391  0.14021  Biso   1.000  O
  O5       1.0000 0.12429  0.38402  0.97890  Biso   1.000  O
  O6       1.0000 0.14021  0.52097  0.99391  Biso   1.000  O
  O7       1.0000 0.87571  0.02110  0.61598  Biso   1.000  O
  O8       1.0000 0.85979  0.00609  0.47903  Biso   1.000  O
  O9       1.0000 0.02110  0.61598  0.87571  Biso   1.000  O
  O10      1.0000 0.00609  0.47903  0.85979  Biso   1.000  O
  O11      1.0000 0.61598  0.87571  0.02110  Biso   1.000  O
  O12      1.0000 0.47903  0.85979  0.00609  Biso   1.000  O
  O13      1.0000 0.02110  0.87571  0.61598  Biso   1.000  O
  O14      1.0000 0.00609  0.85979  0.47903  Biso   1.000  O
  O15      1.0000 0.61598  0.02110  0.87571  Biso   1.000  O
  O16      1.0000 0.47903  0.00609  0.85979  Biso   1.000  O
  O17      1.0000 0.87571  0.61598  0.02110  Biso   1.000  O
  O18      1.0000 0.85979  0.47903  0.00609  Biso   1.000  O
  O19      1.0000 0.12429  0.97890  0.38402  Biso   1.000  O
  O20      1.0000 0.14021  0.99391  0.52097  Biso   1.000  O
  O21      1.0000 0.97890  0.38402  0.12429  Biso   1.000  O
  O22      1.0000 0.99391  0.52097  0.14021  Biso   1.000  O
  O23      1.0000 0.38402  0.12429  0.97890  Biso   1.000  O
  O24      1.0000 0.52097  0.14021  0.99391  Biso   1.000  O
  O25      1.0000 0.97132  0.97132  0.29302  Biso   1.000  O
  O26      1.0000 0.29302  0.97132  0.97132  Biso   1.000  O
  O27      1.0000 0.97132  0.29302  0.97132  Biso   1.000  O
  O28      1.0000 0.02868  0.02868  0.70698  Biso   1.000  O
  O29      1.0000 0.02868  0.70698  0.02868  Biso   1.000  O
  O30      1.0000 0.70698  0.02868  0.02868  Biso   1.000  O
