data_image0
_cell_length_a       23.5956
_cell_length_b       23.5956
_cell_length_c       30.7544
_cell_angle_alpha    69.537
_cell_angle_beta     69.5369
_cell_angle_gamma    95.0863

_symmetry_space_group_name_H-M    P 1
_symmetry_int_tables_number       1

loop_
  _symmetry_equiv_pos_as_xyz
  'x, y, z'

loop_
  _atom_site_label
  _atom_site_occupancy
  _atom_site_fract_x
  _atom_site_fract_y
  _atom_site_fract_z
  _atom_site_thermal_displace_type
  _atom_site_B_iso_or_equiv
  _atom_site_type_symbol
  Zn1      1.0000 0.63315  0.38315  0.73370  Biso   1.000  Zn
  Zn2      1.0000 0.11685  0.86685  0.76630  Biso   1.000  Zn
  Zn3      1.0000 0.36685  0.61685  0.26630  Biso   1.000  Zn
  Zn4      1.0000 0.88315  0.13315  0.23370  Biso   1.000  Zn
  Zn5      1.0000 0.09708  0.34708  0.80584  Biso   1.000  Zn
  Zn6      1.0000 0.15292  0.40292  0.69416  Biso   1.000  Zn
  Zn7      1.0000 0.90292  0.65292  0.19416  Biso   1.000  Zn
  Zn8      1.0000 0.84708  0.59708  0.30584  Biso   1.000  Zn
  H1       1.0000 0.71840  0.18600  0.74900  Biso   1.000  H
  H2       1.0000 0.79800  0.25940  0.74880  Biso   1.000  H
  H3       1.0000 0.82280  0.48540  0.74840  Biso   1.000  H
  H4       1.0000 0.75680  0.55940  0.75040  Biso   1.000  H
  H5       1.0000 0.88340  0.40720  0.67320  Biso   1.000  H
  H6       1.0000 0.98060  0.41140  0.67400  Biso   1.000  H
  H7       1.0000 0.90440  0.33520  0.82380  Biso   1.000  H
  H8       1.0000 0.80720  0.33380  0.82180  Biso   1.000  H
  H9       1.0000 0.57440  0.12460  0.80480  Biso   1.000  H
  H10      1.0000 0.57880  0.02560  0.80280  Biso   1.000  H
  H11      1.0000 0.59860  0.01780  0.72660  Biso   1.000  H
  H12      1.0000 0.64360  0.10620  0.64960  Biso   1.000  H
  H13      1.0000 0.64800  0.20600  0.65480  Biso   1.000  H
  H14      1.0000 0.87540  0.51940  0.39240  Biso   1.000  H
  H15      1.0000 0.83480  0.47680  0.47920  Biso   1.000  H
  H16      1.0000 0.65050  0.51190  0.55700  Biso   1.000  H
  H17      1.0000 0.60980  0.46800  0.64280  Biso   1.000  H
  H18      1.0000 0.53260  0.56500  0.74900  Biso   1.000  H
  H19      1.0000 0.45320  0.49180  0.74880  Biso   1.000  H
  H20      1.0000 0.42880  0.26620  0.74840  Biso   1.000  H
  H21      1.0000 0.49280  0.19020  0.75040  Biso   1.000  H
  H22      1.0000 0.44340  0.41960  0.67320  Biso   1.000  H
  H23      1.0000 0.34540  0.41460  0.67400  Biso   1.000  H
  H24      1.0000 0.27180  0.34100  0.82380  Biso   1.000  H
  H25      1.0000 0.37100  0.34440  0.82180  Biso   1.000  H
  H26      1.0000 0.62080  0.57060  0.80480  Biso   1.000  H
  H27      1.0000 0.61840  0.67160  0.80280  Biso   1.000  H
  H28      1.0000 0.67480  0.75560  0.72660  Biso   1.000  H
  H29      1.0000 0.70680  0.74420  0.64960  Biso   1.000  H
  H30      1.0000 0.69720  0.63920  0.65480  Biso   1.000  H
  H31      1.0000 0.73220  0.58820  0.39240  Biso   1.000  H
  H32      1.0000 0.68600  0.54400  0.47920  Biso   1.000  H
  H33      1.0000 0.79250  0.43110  0.55700  Biso   1.000  H
  H34      1.0000 0.74740  0.38920  0.64280  Biso   1.000  H
  H35      1.0000 0.31400  0.78160  0.75100  Biso   1.000  H
  H36      1.0000 0.24060  0.70200  0.75120  Biso   1.000  H
  H37      1.0000 0.01460  0.67720  0.75160  Biso   1.000  H
  H38      1.0000 0.94060  0.74320  0.74960  Biso   1.000  H
  H39      1.0000 0.09280  0.61660  0.82680  Biso   1.000  H
  H40      1.0000 0.08860  0.51940  0.82600  Biso   1.000  H
  H41      1.0000 0.16480  0.59560  0.67620  Biso   1.000  H
  H42      1.0000 0.16620  0.69280  0.67820  Biso   1.000  H
  H43      1.0000 0.37540  0.92560  0.69520  Biso   1.000  H
  H44      1.0000 0.47440  0.92120  0.69720  Biso   1.000  H
  H45      1.0000 0.48220  0.90140  0.77340  Biso   1.000  H
  H46      1.0000 0.39380  0.85640  0.85040  Biso   1.000  H
  H47      1.0000 0.29400  0.85200  0.84520  Biso   1.000  H
  H48      1.0000 0.98060  0.62460  0.10760  Biso   1.000  H
  H49      1.0000 0.02320  0.66520  0.02080  Biso   1.000  H
  H50      1.0000 0.98810  0.84950  0.94300  Biso   1.000  H
  H51      1.0000 0.03200  0.89020  0.85720  Biso   1.000  H
  H52      1.0000 0.93500  0.96740  0.75100  Biso   1.000  H
  H53      1.0000 0.00820  0.04680  0.75120  Biso   1.000  H
  H54      1.0000 0.23380  0.07120  0.75160  Biso   1.000  H
  H55      1.0000 0.30980  0.00720  0.74960  Biso   1.000  H
  H56      1.0000 0.08040  0.05660  0.82680  Biso   1.000  H
  H57      1.0000 0.08540  0.15460  0.82600  Biso   1.000  H
  H58      1.0000 0.15900  0.22820  0.67620  Biso   1.000  H
  H59      1.0000 0.15560  0.12900  0.67820  Biso   1.000  H
  H60      1.0000 0.92940  0.87920  0.69520  Biso   1.000  H
  H61      1.0000 0.82840  0.88160  0.69720  Biso   1.000  H
  H62      1.0000 0.74440  0.82520  0.77340  Biso   1.000  H
  H63      1.0000 0.75580  0.79320  0.85040  Biso   1.000  H
  H64      1.0000 0.86080  0.80280  0.84520  Biso   1.000  H
  H65      1.0000 0.91180  0.76780  0.10760  Biso   1.000  H
  H66      1.0000 0.95600  0.81400  0.02080  Biso   1.000  H
  H67      1.0000 0.06890  0.70750  0.94300  Biso   1.000  H
  H68      1.0000 0.11080  0.75260  0.85720  Biso   1.000  H
  H69      1.0000 0.28160  0.81400  0.25100  Biso   1.000  H
  H70      1.0000 0.20200  0.74060  0.25120  Biso   1.000  H
  H71      1.0000 0.17720  0.51460  0.25160  Biso   1.000  H
  H72      1.0000 0.24320  0.44060  0.24960  Biso   1.000  H
  H73      1.0000 0.11660  0.59280  0.32680  Biso   1.000  H
  H74      1.0000 0.01940  0.58860  0.32600  Biso   1.000  H
  H75      1.0000 0.09560  0.66480  0.17620  Biso   1.000  H
  H76      1.0000 0.19280  0.66620  0.17820  Biso   1.000  H
  H77      1.0000 0.42560  0.87540  0.19520  Biso   1.000  H
  H78      1.0000 0.42120  0.97440  0.19720  Biso   1.000  H
  H79      1.0000 0.40140  0.98220  0.27340  Biso   1.000  H
  H80      1.0000 0.35640  0.89380  0.35040  Biso   1.000  H
  H81      1.0000 0.35200  0.79400  0.34520  Biso   1.000  H
  H82      1.0000 0.12460  0.48060  0.60760  Biso   1.000  H
  H83      1.0000 0.16520  0.52320  0.52080  Biso   1.000  H
  H84      1.0000 0.34950  0.48810  0.44300  Biso   1.000  H
  H85      1.0000 0.39020  0.53200  0.35720  Biso   1.000  H
  H86      1.0000 0.46740  0.43500  0.25100  Biso   1.000  H
  H87      1.0000 0.54680  0.50820  0.25120  Biso   1.000  H
  H88      1.0000 0.57120  0.73380  0.25160  Biso   1.000  H
  H89      1.0000 0.50720  0.80980  0.24960  Biso   1.000  H
  H90      1.0000 0.55660  0.58040  0.32680  Biso   1.000  H
  H91      1.0000 0.65460  0.58540  0.32600  Biso   1.000  H
  H92      1.0000 0.72820  0.65900  0.17620  Biso   1.000  H
  H93      1.0000 0.62900  0.65560  0.17820  Biso   1.000  H
  H94      1.0000 0.37920  0.42940  0.19520  Biso   1.000  H
  H95      1.0000 0.38160  0.32840  0.19720  Biso   1.000  H
  H96      1.0000 0.32520  0.24440  0.27340  Biso   1.000  H
  H97      1.0000 0.29320  0.25580  0.35040  Biso   1.000  H
  H98      1.0000 0.30280  0.36080  0.34520  Biso   1.000  H
  H99      1.0000 0.26780  0.41180  0.60760  Biso   1.000  H
  H100     1.0000 0.31400  0.45600  0.52080  Biso   1.000  H
  H101     1.0000 0.20750  0.56890  0.44300  Biso   1.000  H
  H102     1.0000 0.25260  0.61080  0.35720  Biso   1.000  H
  H103     1.0000 0.68600  0.21840  0.24900  Biso   1.000  H
  H104     1.0000 0.75940  0.29800  0.24880  Biso   1.000  H
  H105     1.0000 0.98540  0.32280  0.24840  Biso   1.000  H
  H106     1.0000 0.05940  0.25680  0.25040  Biso   1.000  H
  H107     1.0000 0.90720  0.38340  0.17320  Biso   1.000  H
  H108     1.0000 0.91140  0.48060  0.17400  Biso   1.000  H
  H109     1.0000 0.83520  0.40440  0.32380  Biso   1.000  H
  H110     1.0000 0.83380  0.30720  0.32180  Biso   1.000  H
  H111     1.0000 0.62460  0.07440  0.30480  Biso   1.000  H
  H112     1.0000 0.52560  0.07880  0.30280  Biso   1.000  H
  H113     1.0000 0.51780  0.09860  0.22660  Biso   1.000  H
  H114     1.0000 0.60620  0.14360  0.14960  Biso   1.000  H
  H115     1.0000 0.70600  0.14800  0.15480  Biso   1.000  H
  H116     1.0000 0.01940  0.37540  0.89240  Biso   1.000  H
  H117     1.0000 0.97680  0.33480  0.97920  Biso   1.000  H
  H118     1.0000 0.01190  0.15050  0.05700  Biso   1.000  H
  H119     1.0000 0.96800  0.10980  0.14280  Biso   1.000  H
  H120     1.0000 0.06500  0.03260  0.24900  Biso   1.000  H
  H121     1.0000 0.99180  0.95320  0.24880  Biso   1.000  H
  H122     1.0000 0.76620  0.92880  0.24840  Biso   1.000  H
  H123     1.0000 0.69020  0.99280  0.25040  Biso   1.000  H
  H124     1.0000 0.91960  0.94340  0.17320  Biso   1.000  H
  H125     1.0000 0.91460  0.84540  0.17400  Biso   1.000  H
  H126     1.0000 0.84100  0.77180  0.32380  Biso   1.000  H
  H127     1.0000 0.84440  0.87100  0.32180  Biso   1.000  H
  H128     1.0000 0.07060  0.12080  0.30480  Biso   1.000  H
  H129     1.0000 0.17160  0.11840  0.30280  Biso   1.000  H
  H130     1.0000 0.25560  0.17480  0.22660  Biso   1.000  H
  H131     1.0000 0.24420  0.20680  0.14960  Biso   1.000  H
  H132     1.0000 0.13920  0.19720  0.15480  Biso   1.000  H
  H133     1.0000 0.08820  0.23220  0.89240  Biso   1.000  H
  H134     1.0000 0.04400  0.18600  0.97920  Biso   1.000  H
  H135     1.0000 0.93110  0.29250  0.05700  Biso   1.000  H
  H136     1.0000 0.88920  0.24740  0.14280  Biso   1.000  H
  C1       1.0000 0.66656  0.25716  0.74584  Biso   1.000  C
  C2       1.0000 0.71687  0.22567  0.74800  Biso   1.000  C
  C3       1.0000 0.76007  0.26619  0.74806  Biso   1.000  C
  C4       1.0000 0.73954  0.32080  0.74672  Biso   1.000  C
  C5       1.0000 0.77160  0.37300  0.74708  Biso   1.000  C
  C6       1.0000 0.75062  0.42662  0.74708  Biso   1.000  C
  C7       1.0000 0.78335  0.48015  0.74816  Biso   1.000  C
  C8       1.0000 0.74769  0.52111  0.74888  Biso   1.000  C
  C9       1.0000 0.69216  0.49372  0.74694  Biso   1.000  C
  C10      1.0000 0.61180  0.23028  0.74564  Biso   1.000  C
  C11      1.0000 0.83529  0.37141  0.74726  Biso   1.000  C
  C12      1.0000 0.88695  0.39293  0.70416  Biso   1.000  C
  C13      1.0000 0.94545  0.39439  0.70458  Biso   1.000  C
  C14      1.0000 0.95225  0.37115  0.74912  Biso   1.000  C
  C15      1.0000 0.90099  0.34981  0.79272  Biso   1.000  C
  C16      1.0000 0.84238  0.34956  0.79138  Biso   1.000  C
  C17      1.0000 0.01636  0.37134  0.74946  Biso   1.000  C
  C18      1.0000 0.61120  0.17440  0.73200  Biso   1.000  C
  C19      1.0000 0.58990  0.12190  0.77360  Biso   1.000  C
  C20      1.0000 0.58924  0.06084  0.77312  Biso   1.000  C
  C21      1.0000 0.60480  0.05700  0.72700  Biso   1.000  C
  C22      1.0000 0.62967  0.10947  0.68066  Biso   1.000  C
  C23      1.0000 0.63220  0.16980  0.68440  Biso   1.000  C
  C24      1.0000 0.83694  0.52524  0.40982  Biso   1.000  C
  C25      1.0000 0.81229  0.49869  0.46262  Biso   1.000  C
  C26      1.0000 0.67144  0.48714  0.57342  Biso   1.000  C
  C27      1.0000 0.64715  0.46041  0.62518  Biso   1.000  C
  C28      1.0000 0.58760  0.49700  0.74584  Biso   1.000  C
  C29      1.0000 0.53513  0.52633  0.74800  Biso   1.000  C
  C30      1.0000 0.49187  0.48575  0.74806  Biso   1.000  C
  C31      1.0000 0.51374  0.43248  0.74672  Biso   1.000  C
  C32      1.0000 0.48132  0.37992  0.74708  Biso   1.000  C
  C33      1.0000 0.50230  0.32630  0.74708  Biso   1.000  C
  C34      1.0000 0.46849  0.27169  0.74816  Biso   1.000  C
  C35      1.0000 0.50343  0.23001  0.74888  Biso   1.000  C
  C36      1.0000 0.56090  0.25934  0.74694  Biso   1.000  C
  C37      1.0000 0.64256  0.52408  0.74564  Biso   1.000  C
  C38      1.0000 0.41745  0.38133  0.74726  Biso   1.000  C
  C39      1.0000 0.40889  0.40291  0.70416  Biso   1.000  C
  C40      1.0000 0.34997  0.40103  0.70458  Biso   1.000  C
  C41      1.0000 0.29863  0.37973  0.74912  Biso   1.000  C
  C42      1.0000 0.30629  0.35747  0.79272  Biso   1.000  C
  C43      1.0000 0.36624  0.35906  0.79138  Biso   1.000  C
  C44      1.0000 0.23418  0.37920  0.74946  Biso   1.000  C
  C45      1.0000 0.65680  0.59360  0.73200  Biso   1.000  C
  C46      1.0000 0.63650  0.60450  0.77360  Biso   1.000  C
  C47      1.0000 0.63764  0.66604  0.77312  Biso   1.000  C
  C48      1.0000 0.66820  0.71600  0.72700  Biso   1.000  C
  C49      1.0000 0.68967  0.70987  0.68066  Biso   1.000  C
  C50      1.0000 0.68340  0.64580  0.68440  Biso   1.000  C
  C51      1.0000 0.75324  0.56494  0.40982  Biso   1.000  C
  C52      1.0000 0.72509  0.53869  0.46262  Biso   1.000  C
  C53      1.0000 0.75514  0.43944  0.57342  Biso   1.000  C
  C54      1.0000 0.72767  0.41441  0.62518  Biso   1.000  C
  C55      1.0000 0.24284  0.83344  0.75416  Biso   1.000  C
  C56      1.0000 0.27433  0.78313  0.75200  Biso   1.000  C
  C57      1.0000 0.23381  0.73993  0.75194  Biso   1.000  C
  C58      1.0000 0.17920  0.76046  0.75328  Biso   1.000  C
  C59      1.0000 0.12700  0.72840  0.75292  Biso   1.000  C
  C60      1.0000 0.07338  0.74938  0.75292  Biso   1.000  C
  C61      1.0000 0.01985  0.71665  0.75184  Biso   1.000  C
  C62      1.0000 0.97889  0.75231  0.75112  Biso   1.000  C
  C63      1.0000 0.00628  0.80784  0.75306  Biso   1.000  C
  C64      1.0000 0.26972  0.88820  0.75436  Biso   1.000  C
  C65      1.0000 0.12859  0.66471  0.75274  Biso   1.000  C
  C66      1.0000 0.10707  0.61305  0.79584  Biso   1.000  C
  C67      1.0000 0.10561  0.55455  0.79542  Biso   1.000  C
  C68      1.0000 0.12885  0.54775  0.75088  Biso   1.000  C
  C69      1.0000 0.15019  0.59901  0.70728  Biso   1.000  C
  C70      1.0000 0.15044  0.65762  0.70862  Biso   1.000  C
  C71      1.0000 0.12866  0.48364  0.75054  Biso   1.000  C
  C72      1.0000 0.32560  0.88880  0.76800  Biso   1.000  C
  C73      1.0000 0.37810  0.91010  0.72640  Biso   1.000  C
  C74      1.0000 0.43916  0.91076  0.72688  Biso   1.000  C
  C75      1.0000 0.44300  0.89520  0.77300  Biso   1.000  C
  C76      1.0000 0.39053  0.87033  0.81934  Biso   1.000  C
  C77      1.0000 0.33020  0.86780  0.81560  Biso   1.000  C
  C78      1.0000 0.97476  0.66306  0.09018  Biso   1.000  C
  C79      1.0000 0.00131  0.68771  0.03738  Biso   1.000  C
  C80      1.0000 0.01286  0.82856  0.92658  Biso   1.000  C
  C81      1.0000 0.03959  0.85285  0.87482  Biso   1.000  C
  C82      1.0000 0.00300  0.91240  0.75416  Biso   1.000  C
  C83      1.0000 0.97367  0.96487  0.75200  Biso   1.000  C
  C84      1.0000 0.01425  0.00813  0.75194  Biso   1.000  C
  C85      1.0000 0.06752  0.98626  0.75328  Biso   1.000  C
  C86      1.0000 0.12008  0.01868  0.75292  Biso   1.000  C
  C87      1.0000 0.17370  0.99770  0.75292  Biso   1.000  C
  C88      1.0000 0.22831  0.03151  0.75184  Biso   1.000  C
  C89      1.0000 0.26999  0.99657  0.75112  Biso   1.000  C
  C90      1.0000 0.24066  0.93910  0.75306  Biso   1.000  C
  C91      1.0000 0.97592  0.85744  0.75436  Biso   1.000  C
  C92      1.0000 0.11867  0.08255  0.75274  Biso   1.000  C
  C93      1.0000 0.09709  0.09111  0.79584  Biso   1.000  C
  C94      1.0000 0.09897  0.15003  0.79542  Biso   1.000  C
  C95      1.0000 0.12027  0.20137  0.75088  Biso   1.000  C
  C96      1.0000 0.14253  0.19371  0.70728  Biso   1.000  C
  C97      1.0000 0.14094  0.13376  0.70862  Biso   1.000  C
  C98      1.0000 0.12080  0.26582  0.75054  Biso   1.000  C
  C99      1.0000 0.90640  0.84320  0.76800  Biso   1.000  C
  C100     1.0000 0.89550  0.86350  0.72640  Biso   1.000  C
  C101     1.0000 0.83396  0.86236  0.72688  Biso   1.000  C
  C102     1.0000 0.78400  0.83180  0.77300  Biso   1.000  C
  C103     1.0000 0.79013  0.81033  0.81934  Biso   1.000  C
  C104     1.0000 0.85420  0.81660  0.81560  Biso   1.000  C
  C105     1.0000 0.93506  0.74676  0.09018  Biso   1.000  C
  C106     1.0000 0.96131  0.77491  0.03738  Biso   1.000  C
  C107     1.0000 0.06056  0.74486  0.92658  Biso   1.000  C
  C108     1.0000 0.08559  0.77233  0.87482  Biso   1.000  C
  C109     1.0000 0.33344  0.74284  0.25416  Biso   1.000  C
  C110     1.0000 0.28313  0.77433  0.25200  Biso   1.000  C
  C111     1.0000 0.23993  0.73381  0.25194  Biso   1.000  C
  C112     1.0000 0.26046  0.67920  0.25328  Biso   1.000  C
  C113     1.0000 0.22840  0.62700  0.25292  Biso   1.000  C
  C114     1.0000 0.24938  0.57338  0.25292  Biso   1.000  C
  C115     1.0000 0.21665  0.51985  0.25184  Biso   1.000  C
  C116     1.0000 0.25231  0.47889  0.25112  Biso   1.000  C
  C117     1.0000 0.30784  0.50628  0.25306  Biso   1.000  C
  C118     1.0000 0.38820  0.76972  0.25436  Biso   1.000  C
  C119     1.0000 0.16471  0.62859  0.25274  Biso   1.000  C
  C120     1.0000 0.11305  0.60707  0.29584  Biso   1.000  C
  C121     1.0000 0.05455  0.60561  0.29542  Biso   1.000  C
  C122     1.0000 0.04775  0.62885  0.25088  Biso   1.000  C
  C123     1.0000 0.09901  0.65019  0.20728  Biso   1.000  C
  C124     1.0000 0.15762  0.65044  0.20862  Biso   1.000  C
  C125     1.0000 0.98364  0.62866  0.25054  Biso   1.000  C
  C126     1.0000 0.38880  0.82560  0.26800  Biso   1.000  C
  C127     1.0000 0.41010  0.87810  0.22640  Biso   1.000  C
  C128     1.0000 0.41076  0.93916  0.22688  Biso   1.000  C
  C129     1.0000 0.39520  0.94300  0.27300  Biso   1.000  C
  C130     1.0000 0.37033  0.89053  0.31934  Biso   1.000  C
  C131     1.0000 0.36780  0.83020  0.31560  Biso   1.000  C
  C132     1.0000 0.16306  0.47476  0.59018  Biso   1.000  C
  C133     1.0000 0.18771  0.50131  0.53738  Biso   1.000  C
  C134     1.0000 0.32856  0.51286  0.42658  Biso   1.000  C
  C135     1.0000 0.35285  0.53959  0.37482  Biso   1.000  C
  C136     1.0000 0.41240  0.50300  0.25416  Biso   1.000  C
  C137     1.0000 0.46487  0.47367  0.25200  Biso   1.000  C
  C138     1.0000 0.50813  0.51425  0.25194  Biso   1.000  C
  C139     1.0000 0.48626  0.56752  0.25328  Biso   1.000  C
  C140     1.0000 0.51868  0.62008  0.25292  Biso   1.000  C
  C141     1.0000 0.49770  0.67370  0.25292  Biso   1.000  C
  C142     1.0000 0.53151  0.72831  0.25184  Biso   1.000  C
  C143     1.0000 0.49657  0.76999  0.25112  Biso   1.000  C
  C144     1.0000 0.43910  0.74066  0.25306  Biso   1.000  C
  C145     1.0000 0.35744  0.47592  0.25436  Biso   1.000  C
  C146     1.0000 0.58255  0.61867  0.25274  Biso   1.000  C
  C147     1.0000 0.59111  0.59709  0.29584  Biso   1.000  C
  C148     1.0000 0.65003  0.59897  0.29542  Biso   1.000  C
  C149     1.0000 0.70137  0.62027  0.25088  Biso   1.000  C
  C150     1.0000 0.69371  0.64253  0.20728  Biso   1.000  C
  C151     1.0000 0.63376  0.64094  0.20862  Biso   1.000  C
  C152     1.0000 0.76582  0.62080  0.25054  Biso   1.000  C
  C153     1.0000 0.34320  0.40640  0.26800  Biso   1.000  C
  C154     1.0000 0.36350  0.39550  0.22640  Biso   1.000  C
  C155     1.0000 0.36236  0.33396  0.22688  Biso   1.000  C
  C156     1.0000 0.33180  0.28400  0.27300  Biso   1.000  C
  C157     1.0000 0.31033  0.29013  0.31934  Biso   1.000  C
  C158     1.0000 0.31660  0.35420  0.31560  Biso   1.000  C
  C159     1.0000 0.24676  0.43506  0.59018  Biso   1.000  C
  C160     1.0000 0.27491  0.46131  0.53738  Biso   1.000  C
  C161     1.0000 0.24486  0.56056  0.42658  Biso   1.000  C
  C162     1.0000 0.27233  0.58559  0.37482  Biso   1.000  C
  C163     1.0000 0.75716  0.16656  0.24584  Biso   1.000  C
  C164     1.0000 0.72567  0.21687  0.24800  Biso   1.000  C
  C165     1.0000 0.76619  0.26007  0.24806  Biso   1.000  C
  C166     1.0000 0.82080  0.23954  0.24672  Biso   1.000  C
  C167     1.0000 0.87300  0.27160  0.24708  Biso   1.000  C
  C168     1.0000 0.92662  0.25062  0.24708  Biso   1.000  C
  C169     1.0000 0.98015  0.28335  0.24816  Biso   1.000  C
  C170     1.0000 0.02111  0.24769  0.24888  Biso   1.000  C
  C171     1.0000 0.99372  0.19216  0.24694  Biso   1.000  C
  C172     1.0000 0.73028  0.11180  0.24564  Biso   1.000  C
  C173     1.0000 0.87141  0.33529  0.24726  Biso   1.000  C
  C174     1.0000 0.89293  0.38695  0.20416  Biso   1.000  C
  C175     1.0000 0.89439  0.44545  0.20458  Biso   1.000  C
  C176     1.0000 0.87115  0.45225  0.24912  Biso   1.000  C
  C177     1.0000 0.84981  0.40099  0.29272  Biso   1.000  C
  C178     1.0000 0.84956  0.34238  0.29138  Biso   1.000  C
  C179     1.0000 0.87134  0.51636  0.24946  Biso   1.000  C
  C180     1.0000 0.67440  0.11120  0.23200  Biso   1.000  C
  C181     1.0000 0.62190  0.08990  0.27360  Biso   1.000  C
  C182     1.0000 0.56084  0.08924  0.27312  Biso   1.000  C
  C183     1.0000 0.55700  0.10480  0.22700  Biso   1.000  C
  C184     1.0000 0.60947  0.12967  0.18066  Biso   1.000  C
  C185     1.0000 0.66980  0.13220  0.18440  Biso   1.000  C
  C186     1.0000 0.02524  0.33694  0.90982  Biso   1.000  C
  C187     1.0000 0.99869  0.31229  0.96262  Biso   1.000  C
  C188     1.0000 0.98714  0.17144  0.07342  Biso   1.000  C
  C189     1.0000 0.96041  0.14715  0.12518  Biso   1.000  C
  C190     1.0000 0.99700  0.08760  0.24584  Biso   1.000  C
  C191     1.0000 0.02633  0.03513  0.24800  Biso   1.000  C
  C192     1.0000 0.98575  0.99187  0.24806  Biso   1.000  C
  C193     1.0000 0.93248  0.01374  0.24672  Biso   1.000  C
  C194     1.0000 0.87992  0.98132  0.24708  Biso   1.000  C
  C195     1.0000 0.82630  0.00230  0.24708  Biso   1.000  C
  C196     1.0000 0.77169  0.96849  0.24816  Biso   1.000  C
  C197     1.0000 0.73001  0.00343  0.24888  Biso   1.000  C
  C198     1.0000 0.75934  0.06090  0.24694  Biso   1.000  C
  C199     1.0000 0.02408  0.14256  0.24564  Biso   1.000  C
  C200     1.0000 0.88133  0.91745  0.24726  Biso   1.000  C
  C201     1.0000 0.90291  0.90889  0.20416  Biso   1.000  C
  C202     1.0000 0.90103  0.84997  0.20458  Biso   1.000  C
  C203     1.0000 0.87973  0.79863  0.24912  Biso   1.000  C
  C204     1.0000 0.85747  0.80629  0.29272  Biso   1.000  C
  C205     1.0000 0.85906  0.86624  0.29138  Biso   1.000  C
  C206     1.0000 0.87920  0.73418  0.24946  Biso   1.000  C
  C207     1.0000 0.09360  0.15680  0.23200  Biso   1.000  C
  C208     1.0000 0.10450  0.13650  0.27360  Biso   1.000  C
  C209     1.0000 0.16604  0.13764  0.27312  Biso   1.000  C
  C210     1.0000 0.21600  0.16820  0.22700  Biso   1.000  C
  C211     1.0000 0.20987  0.18967  0.18066  Biso   1.000  C
  C212     1.0000 0.14580  0.18340  0.18440  Biso   1.000  C
  C213     1.0000 0.06494  0.25324  0.90982  Biso   1.000  C
  C214     1.0000 0.03869  0.22509  0.96262  Biso   1.000  C
  C215     1.0000 0.93944  0.25514  0.07342  Biso   1.000  C
  C216     1.0000 0.91441  0.22767  0.12518  Biso   1.000  C
  C217     1.0000 0.75478  0.50478  0.49044  Biso   1.000  C
  C218     1.0000 0.72753  0.47753  0.54494  Biso   1.000  C
  C219     1.0000 0.99522  0.74522  0.00956  Biso   1.000  C
  C220     1.0000 0.02247  0.77247  0.95506  Biso   1.000  C
  C221     1.0000 0.24522  0.49522  0.50956  Biso   1.000  C
  C222     1.0000 0.27247  0.52247  0.45506  Biso   1.000  C
  C223     1.0000 0.00478  0.25478  0.99044  Biso   1.000  C
  C224     1.0000 0.97753  0.22753  0.04494  Biso   1.000  C
  N1       1.0000 0.68127  0.31419  0.74556  Biso   1.000  N
  N2       1.0000 0.69452  0.43754  0.74578  Biso   1.000  N
  N3       1.0000 0.57317  0.44025  0.74556  Biso   1.000  N
  N4       1.0000 0.55970  0.31668  0.74578  Biso   1.000  N
  N5       1.0000 0.18581  0.81873  0.75444  Biso   1.000  N
  N6       1.0000 0.06246  0.80548  0.75422  Biso   1.000  N
  N7       1.0000 0.05975  0.92683  0.75444  Biso   1.000  N
  N8       1.0000 0.18332  0.94030  0.75422  Biso   1.000  N
  N9       1.0000 0.31873  0.68581  0.25444  Biso   1.000  N
  N10      1.0000 0.30548  0.56246  0.25422  Biso   1.000  N
  N11      1.0000 0.42683  0.55975  0.25444  Biso   1.000  N
  N12      1.0000 0.44030  0.68332  0.25422  Biso   1.000  N
  N13      1.0000 0.81419  0.18127  0.24556  Biso   1.000  N
  N14      1.0000 0.93754  0.19452  0.24578  Biso   1.000  N
  N15      1.0000 0.94025  0.07317  0.24556  Biso   1.000  N
  N16      1.0000 0.81668  0.05970  0.24578  Biso   1.000  N
  N17      1.0000 0.80872  0.55872  0.38256  Biso   1.000  N
  N18      1.0000 0.67398  0.42398  0.65204  Biso   1.000  N
  N19      1.0000 0.94128  0.69128  0.11744  Biso   1.000  N
  N20      1.0000 0.07602  0.82602  0.84796  Biso   1.000  N
  N21      1.0000 0.19128  0.44128  0.61744  Biso   1.000  N
  N22      1.0000 0.32602  0.57602  0.34796  Biso   1.000  N
  N23      1.0000 0.05872  0.30872  0.88256  Biso   1.000  N
  N24      1.0000 0.92398  0.17398  0.15204  Biso   1.000  N
  O1       1.0000 0.01860  0.35068  0.79178  Biso   1.000  O
  O2       1.0000 0.06135  0.39265  0.70698  Biso   1.000  O
  O3       1.0000 0.18962  0.35754  0.79178  Biso   1.000  O
  O4       1.0000 0.23167  0.40037  0.70698  Biso   1.000  O
  O5       1.0000 0.14932  0.48140  0.70822  Biso   1.000  O
  O6       1.0000 0.10735  0.43865  0.79302  Biso   1.000  O
  O7       1.0000 0.14246  0.31038  0.70822  Biso   1.000  O
  O8       1.0000 0.09963  0.26833  0.79302  Biso   1.000  O
  O9       1.0000 0.98140  0.64932  0.20822  Biso   1.000  O
  O10      1.0000 0.93865  0.60735  0.29302  Biso   1.000  O
  O11      1.0000 0.81038  0.64246  0.20822  Biso   1.000  O
  O12      1.0000 0.76833  0.59963  0.29302  Biso   1.000  O
  O13      1.0000 0.85068  0.51860  0.29178  Biso   1.000  O
  O14      1.0000 0.89265  0.56135  0.20698  Biso   1.000  O
  O15      1.0000 0.85754  0.68962  0.29178  Biso   1.000  O
  O16      1.0000 0.90037  0.73167  0.20698  Biso   1.000  O
