data_image0
_cell_length_a       9.2732
_cell_length_b       17.509
_cell_length_c       18.4285
_cell_angle_alpha    106.031
_cell_angle_beta     90
_cell_angle_gamma    90

_symmetry_space_group_name_H-M    P 1
_symmetry_int_tables_number       1

loop_
  _symmetry_equiv_pos_as_xyz
  'x, y, z'

loop_
  _atom_site_label
  _atom_site_occupancy
  _atom_site_fract_x
  _atom_site_fract_y
  _atom_site_fract_z
  _atom_site_thermal_displace_type
  _atom_site_B_iso_or_equiv
  _atom_site_type_symbol
  Sr1      1.0000 0.33710  0.86693  0.67482  Biso   1.000  Sr
  Sr2      1.0000 0.84124  0.62233  0.82380  Biso   1.000  Sr
  Sr3      1.0000 0.50478  0.58818  0.67343  Biso   1.000  Sr
  Sr4      1.0000 0.50248  0.07572  0.66326  Biso   1.000  Sr
  Sr5      1.0000 0.83710  0.13307  0.82518  Biso   1.000  Sr
  Sr6      1.0000 0.34124  0.37767  0.67620  Biso   1.000  Sr
  Sr7      1.0000 0.00478  0.41182  0.82657  Biso   1.000  Sr
  Sr8      1.0000 0.00248  0.92428  0.83674  Biso   1.000  Sr
  Sr9      1.0000 0.66290  0.13307  0.32518  Biso   1.000  Sr
  Sr10     1.0000 0.15876  0.37767  0.17620  Biso   1.000  Sr
  Sr11     1.0000 0.49522  0.41182  0.32657  Biso   1.000  Sr
  Sr12     1.0000 0.49752  0.92428  0.33674  Biso   1.000  Sr
  Sr13     1.0000 0.16290  0.86693  0.17482  Biso   1.000  Sr
  Sr14     1.0000 0.65876  0.62233  0.32380  Biso   1.000  Sr
  Sr15     1.0000 0.99522  0.58818  0.17343  Biso   1.000  Sr
  Sr16     1.0000 0.99752  0.07572  0.16326  Biso   1.000  Sr
  H1       1.0000 0.00810  0.91390  0.66540  Biso   1.000  H
  H2       1.0000 0.01340  0.84330  0.67930  Biso   1.000  H
  H3       1.0000 0.33340  0.94950  0.83220  Biso   1.000  H
  H4       1.0000 0.32010  0.85250  0.83460  Biso   1.000  H
  H5       1.0000 0.49950  0.65720  0.85440  Biso   1.000  H
  H6       1.0000 0.54880  0.58740  0.84450  Biso   1.000  H
  H7       1.0000 0.38370  0.07130  0.52130  Biso   1.000  H
  H8       1.0000 0.39210  0.15090  0.52710  Biso   1.000  H
  H9       1.0000 0.84840  0.56870  0.65040  Biso   1.000  H
  H10      1.0000 0.81620  0.64500  0.66720  Biso   1.000  H
  H11      1.0000 0.50810  0.08610  0.83460  Biso   1.000  H
  H12      1.0000 0.51340  0.15670  0.82070  Biso   1.000  H
  H13      1.0000 0.83340  0.05050  0.66780  Biso   1.000  H
  H14      1.0000 0.82010  0.14750  0.66540  Biso   1.000  H
  H15      1.0000 0.99950  0.34280  0.64560  Biso   1.000  H
  H16      1.0000 0.04880  0.41260  0.65550  Biso   1.000  H
  H17      1.0000 0.88370  0.92870  0.97870  Biso   1.000  H
  H18      1.0000 0.89210  0.84910  0.97290  Biso   1.000  H
  H19      1.0000 0.34840  0.43130  0.84960  Biso   1.000  H
  H20      1.0000 0.31620  0.35500  0.83280  Biso   1.000  H
  H21      1.0000 0.99190  0.08610  0.33460  Biso   1.000  H
  H22      1.0000 0.98660  0.15670  0.32070  Biso   1.000  H
  H23      1.0000 0.66660  0.05050  0.16780  Biso   1.000  H
  H24      1.0000 0.67990  0.14750  0.16540  Biso   1.000  H
  H25      1.0000 0.50050  0.34280  0.14560  Biso   1.000  H
  H26      1.0000 0.45120  0.41260  0.15550  Biso   1.000  H
  H27      1.0000 0.61630  0.92870  0.47870  Biso   1.000  H
  H28      1.0000 0.60790  0.84910  0.47290  Biso   1.000  H
  H29      1.0000 0.15160  0.43130  0.34960  Biso   1.000  H
  H30      1.0000 0.18380  0.35500  0.33280  Biso   1.000  H
  H31      1.0000 0.49190  0.91390  0.16540  Biso   1.000  H
  H32      1.0000 0.48660  0.84330  0.17930  Biso   1.000  H
  H33      1.0000 0.16660  0.94950  0.33220  Biso   1.000  H
  H34      1.0000 0.17990  0.85250  0.33460  Biso   1.000  H
  H35      1.0000 0.00050  0.65720  0.35440  Biso   1.000  H
  H36      1.0000 0.95120  0.58740  0.34450  Biso   1.000  H
  H37      1.0000 0.11630  0.07130  0.02130  Biso   1.000  H
  H38      1.0000 0.10790  0.15090  0.02710  Biso   1.000  H
  H39      1.0000 0.65160  0.56870  0.15040  Biso   1.000  H
  H40      1.0000 0.68380  0.64500  0.16720  Biso   1.000  H
  C1       1.0000 0.66985  0.85579  0.75888  Biso   1.000  C
  C2       1.0000 0.67487  0.93622  0.74414  Biso   1.000  C
  C3       1.0000 0.17451  0.64569  0.76016  Biso   1.000  C
  C4       1.0000 0.18564  0.56504  0.76908  Biso   1.000  C
  C5       1.0000 0.58344  0.64314  0.50962  Biso   1.000  C
  C6       1.0000 0.62661  0.55816  0.48633  Biso   1.000  C
  C7       1.0000 0.23692  0.84647  0.48718  Biso   1.000  C
  C8       1.0000 0.32357  0.92425  0.50958  Biso   1.000  C
  C9       1.0000 0.16985  0.14421  0.74112  Biso   1.000  C
  C10      1.0000 0.17487  0.06378  0.75586  Biso   1.000  C
  C11      1.0000 0.67451  0.35431  0.73984  Biso   1.000  C
  C12      1.0000 0.68564  0.43496  0.73092  Biso   1.000  C
  C13      1.0000 0.08344  0.35686  0.99038  Biso   1.000  C
  C14      1.0000 0.12661  0.44184  0.01367  Biso   1.000  C
  C15      1.0000 0.73692  0.15353  0.01282  Biso   1.000  C
  C16      1.0000 0.82357  0.07575  0.99042  Biso   1.000  C
  C17      1.0000 0.33015  0.14421  0.24112  Biso   1.000  C
  C18      1.0000 0.32513  0.06378  0.25586  Biso   1.000  C
  C19      1.0000 0.82549  0.35431  0.23984  Biso   1.000  C
  C20      1.0000 0.81436  0.43496  0.23092  Biso   1.000  C
  C21      1.0000 0.41656  0.35686  0.49038  Biso   1.000  C
  C22      1.0000 0.37339  0.44184  0.51367  Biso   1.000  C
  C23      1.0000 0.76308  0.15353  0.51282  Biso   1.000  C
  C24      1.0000 0.67643  0.07575  0.49042  Biso   1.000  C
  C25      1.0000 0.83015  0.85579  0.25888  Biso   1.000  C
  C26      1.0000 0.82513  0.93622  0.24414  Biso   1.000  C
  C27      1.0000 0.32549  0.64569  0.26016  Biso   1.000  C
  C28      1.0000 0.31436  0.56504  0.26908  Biso   1.000  C
  C29      1.0000 0.91656  0.64314  0.00962  Biso   1.000  C
  C30      1.0000 0.87339  0.55816  0.98633  Biso   1.000  C
  C31      1.0000 0.26308  0.84647  0.98718  Biso   1.000  C
  C32      1.0000 0.17643  0.92425  0.00958  Biso   1.000  C
  N1       1.0000 0.55793  0.80639  0.73760  Biso   1.000  N
  N2       1.0000 0.59583  0.74178  0.75851  Biso   1.000  N
  N3       1.0000 0.72612  0.75408  0.79151  Biso   1.000  N
  N4       1.0000 0.77387  0.82648  0.79246  Biso   1.000  N
  N5       1.0000 0.26593  0.67541  0.72063  Biso   1.000  N
  N6       1.0000 0.21809  0.75007  0.72662  Biso   1.000  N
  N7       1.0000 0.10335  0.76295  0.77045  Biso   1.000  N
  N8       1.0000 0.07135  0.69827  0.79203  Biso   1.000  N
  N9       1.0000 0.52450  0.67896  0.57594  Biso   1.000  N
  N10      1.0000 0.50611  0.75437  0.57347  Biso   1.000  N
  N11      1.0000 0.55498  0.76268  0.50954  Biso   1.000  N
  N12      1.0000 0.60510  0.69223  0.46748  Biso   1.000  N
  N13      1.0000 0.20690  0.80687  0.53623  Biso   1.000  N
  N14      1.0000 0.12943  0.74353  0.49659  Biso   1.000  N
  N15      1.0000 0.11446  0.74803  0.42696  Biso   1.000  N
  N16      1.0000 0.18230  0.81337  0.42032  Biso   1.000  N
  N17      1.0000 0.05793  0.19361  0.76240  Biso   1.000  N
  N18      1.0000 0.09583  0.25822  0.74149  Biso   1.000  N
  N19      1.0000 0.22612  0.24592  0.70849  Biso   1.000  N
  N20      1.0000 0.27387  0.17352  0.70754  Biso   1.000  N
  N21      1.0000 0.76593  0.32459  0.77937  Biso   1.000  N
  N22      1.0000 0.71809  0.24993  0.77338  Biso   1.000  N
  N23      1.0000 0.60335  0.23705  0.72955  Biso   1.000  N
  N24      1.0000 0.57135  0.30173  0.70797  Biso   1.000  N
  N25      1.0000 0.02450  0.32104  0.92406  Biso   1.000  N
  N26      1.0000 0.00611  0.24563  0.92653  Biso   1.000  N
  N27      1.0000 0.05498  0.23732  0.99046  Biso   1.000  N
  N28      1.0000 0.10510  0.30777  0.03252  Biso   1.000  N
  N29      1.0000 0.70690  0.19313  0.96377  Biso   1.000  N
  N30      1.0000 0.62943  0.25647  0.00341  Biso   1.000  N
  N31      1.0000 0.61446  0.25197  0.07304  Biso   1.000  N
  N32      1.0000 0.68230  0.18663  0.07968  Biso   1.000  N
  N33      1.0000 0.44207  0.19361  0.26240  Biso   1.000  N
  N34      1.0000 0.40417  0.25822  0.24149  Biso   1.000  N
  N35      1.0000 0.27388  0.24592  0.20849  Biso   1.000  N
  N36      1.0000 0.22613  0.17352  0.20754  Biso   1.000  N
  N37      1.0000 0.73407  0.32459  0.27937  Biso   1.000  N
  N38      1.0000 0.78191  0.24993  0.27338  Biso   1.000  N
  N39      1.0000 0.89665  0.23705  0.22955  Biso   1.000  N
  N40      1.0000 0.92865  0.30173  0.20797  Biso   1.000  N
  N41      1.0000 0.47550  0.32104  0.42406  Biso   1.000  N
  N42      1.0000 0.49389  0.24563  0.42653  Biso   1.000  N
  N43      1.0000 0.44502  0.23732  0.49046  Biso   1.000  N
  N44      1.0000 0.39490  0.30777  0.53252  Biso   1.000  N
  N45      1.0000 0.79310  0.19313  0.46377  Biso   1.000  N
  N46      1.0000 0.87057  0.25647  0.50341  Biso   1.000  N
  N47      1.0000 0.88554  0.25197  0.57304  Biso   1.000  N
  N48      1.0000 0.81770  0.18663  0.57968  Biso   1.000  N
  N49      1.0000 0.94207  0.80639  0.23760  Biso   1.000  N
  N50      1.0000 0.90417  0.74178  0.25851  Biso   1.000  N
  N51      1.0000 0.77388  0.75408  0.29151  Biso   1.000  N
  N52      1.0000 0.72613  0.82648  0.29246  Biso   1.000  N
  N53      1.0000 0.23407  0.67541  0.22063  Biso   1.000  N
  N54      1.0000 0.28191  0.75007  0.22662  Biso   1.000  N
  N55      1.0000 0.39665  0.76295  0.27045  Biso   1.000  N
  N56      1.0000 0.42865  0.69827  0.29203  Biso   1.000  N
  N57      1.0000 0.97550  0.67896  0.07594  Biso   1.000  N
  N58      1.0000 0.99389  0.75437  0.07347  Biso   1.000  N
  N59      1.0000 0.94502  0.76268  0.00954  Biso   1.000  N
  N60      1.0000 0.89490  0.69223  0.96748  Biso   1.000  N
  N61      1.0000 0.29310  0.80687  0.03623  Biso   1.000  N
  N62      1.0000 0.37057  0.74353  0.99659  Biso   1.000  N
  N63      1.0000 0.38554  0.74803  0.92696  Biso   1.000  N
  N64      1.0000 0.31770  0.81337  0.92032  Biso   1.000  N
  O1       1.0000 0.57550  0.95270  0.70490  Biso   1.000  O
  O2       1.0000 0.77920  0.98020  0.77490  Biso   1.000  O
  O3       1.0000 0.29340  0.52460  0.74140  Biso   1.000  O
  O4       1.0000 0.08200  0.54190  0.80270  Biso   1.000  O
  O5       1.0000 0.63630  0.52350  0.53660  Biso   1.000  O
  O6       1.0000 0.65120  0.52810  0.41660  Biso   1.000  O
  O7       1.0000 0.37140  0.94490  0.57560  Biso   1.000  O
  O8       1.0000 0.33780  0.95960  0.45970  Biso   1.000  O
  O9       1.0000 0.04789  0.88134  0.68957  Biso   1.000  O
  O10      1.0000 0.28822  0.90765  0.81766  Biso   1.000  O
  O11      1.0000 0.56116  0.61558  0.82672  Biso   1.000  O
  O12      1.0000 0.37938  0.11176  0.54906  Biso   1.000  O
  O13      1.0000 0.79527  0.60965  0.68195  Biso   1.000  O
  O14      1.0000 0.07550  0.04730  0.79510  Biso   1.000  O
  O15      1.0000 0.27920  0.01980  0.72510  Biso   1.000  O
  O16      1.0000 0.79340  0.47540  0.75860  Biso   1.000  O
  O17      1.0000 0.58200  0.45810  0.69730  Biso   1.000  O
  O18      1.0000 0.13630  0.47650  0.96340  Biso   1.000  O
  O19      1.0000 0.15120  0.47190  0.08340  Biso   1.000  O
  O20      1.0000 0.87140  0.05510  0.92440  Biso   1.000  O
  O21      1.0000 0.83780  0.04040  0.04030  Biso   1.000  O
  O22      1.0000 0.54789  0.11866  0.81043  Biso   1.000  O
  O23      1.0000 0.78822  0.09235  0.68234  Biso   1.000  O
  O24      1.0000 0.06116  0.38442  0.67328  Biso   1.000  O
  O25      1.0000 0.87938  0.88824  0.95094  Biso   1.000  O
  O26      1.0000 0.29527  0.39035  0.81805  Biso   1.000  O
  O27      1.0000 0.42450  0.04730  0.29510  Biso   1.000  O
  O28      1.0000 0.22080  0.01980  0.22510  Biso   1.000  O
  O29      1.0000 0.70660  0.47540  0.25860  Biso   1.000  O
  O30      1.0000 0.91800  0.45810  0.19730  Biso   1.000  O
  O31      1.0000 0.36370  0.47650  0.46340  Biso   1.000  O
  O32      1.0000 0.34880  0.47190  0.58340  Biso   1.000  O
  O33      1.0000 0.62860  0.05510  0.42440  Biso   1.000  O
  O34      1.0000 0.66220  0.04040  0.54030  Biso   1.000  O
  O35      1.0000 0.95211  0.11866  0.31043  Biso   1.000  O
  O36      1.0000 0.71178  0.09235  0.18234  Biso   1.000  O
  O37      1.0000 0.43884  0.38442  0.17328  Biso   1.000  O
  O38      1.0000 0.62062  0.88824  0.45094  Biso   1.000  O
  O39      1.0000 0.20473  0.39035  0.31805  Biso   1.000  O
  O40      1.0000 0.92450  0.95270  0.20490  Biso   1.000  O
  O41      1.0000 0.72080  0.98020  0.27490  Biso   1.000  O
  O42      1.0000 0.20660  0.52460  0.24140  Biso   1.000  O
  O43      1.0000 0.41800  0.54190  0.30270  Biso   1.000  O
  O44      1.0000 0.86370  0.52350  0.03660  Biso   1.000  O
  O45      1.0000 0.84880  0.52810  0.91660  Biso   1.000  O
  O46      1.0000 0.12860  0.94490  0.07560  Biso   1.000  O
  O47      1.0000 0.16220  0.95960  0.95970  Biso   1.000  O
  O48      1.0000 0.45211  0.88134  0.18957  Biso   1.000  O
  O49      1.0000 0.21178  0.90765  0.31766  Biso   1.000  O
  O50      1.0000 0.93884  0.61558  0.32672  Biso   1.000  O
  O51      1.0000 0.12062  0.11176  0.04906  Biso   1.000  O
  O52      1.0000 0.70473  0.60965  0.18195  Biso   1.000  O
