data_image0
_cell_length_a       9.46998
_cell_length_b       9.7845
_cell_length_c       12.7425
_cell_angle_alpha    87.2465
_cell_angle_beta     84.3029
_cell_angle_gamma    61.0577

_symmetry_space_group_name_H-M    P 1
_symmetry_int_tables_number       1

loop_
  _symmetry_equiv_pos_as_xyz
  'x, y, z'

loop_
  _atom_site_label
  _atom_site_occupancy
  _atom_site_fract_x
  _atom_site_fract_y
  _atom_site_fract_z
  _atom_site_thermal_displace_type
  _atom_site_B_iso_or_equiv
  _atom_site_type_symbol
  Mn1      1.0000 0.65426  0.69148  0.00000  Biso   1.000  Mn
  Mn2      1.0000 0.34574  0.30852  0.00000  Biso   1.000  Mn
  H1       1.0000 0.43560  0.23380  0.42580  Biso   1.000  H
  H2       1.0000 0.55540  0.22860  0.25900  Biso   1.000  H
  H3       1.0000 0.06330  0.76460  0.14430  Biso   1.000  H
  H4       1.0000 0.31170  0.76360  0.13870  Biso   1.000  H
  H5       1.0000 0.68400  0.10000  0.10800  Biso   1.000  H
  H6       1.0000 0.33060  0.23380  0.57420  Biso   1.000  H
  H7       1.0000 0.21600  0.22860  0.74100  Biso   1.000  H
  H8       1.0000 0.17210  0.76460  0.85570  Biso   1.000  H
  H9       1.0000 0.92470  0.76360  0.86130  Biso   1.000  H
  H10      1.0000 0.21600  0.10000  0.89200  Biso   1.000  H
  H11      1.0000 0.56440  0.76620  0.57420  Biso   1.000  H
  H12      1.0000 0.44460  0.77140  0.74100  Biso   1.000  H
  H13      1.0000 0.93670  0.23540  0.85570  Biso   1.000  H
  H14      1.0000 0.68830  0.23640  0.86130  Biso   1.000  H
  H15      1.0000 0.31600  0.90000  0.89200  Biso   1.000  H
  H16      1.0000 0.66940  0.76620  0.42580  Biso   1.000  H
  H17      1.0000 0.78400  0.77140  0.25900  Biso   1.000  H
  H18      1.0000 0.82790  0.23540  0.14430  Biso   1.000  H
  H19      1.0000 0.07530  0.23640  0.13870  Biso   1.000  H
  H20      1.0000 0.78400  0.90000  0.10800  Biso   1.000  H
  C1       1.0000 0.50890  0.13620  0.39360  Biso   1.000  C
  C2       1.0000 0.58130  0.13320  0.29510  Biso   1.000  C
  C3       1.0000 0.06590  0.86060  0.14250  Biso   1.000  C
  C4       1.0000 0.21400  0.85980  0.13810  Biso   1.000  C
  C5       1.0000 0.46820  0.53540  0.94690  Biso   1.000  C
  C6       1.0000 0.35490  0.13620  0.60640  Biso   1.000  C
  C7       1.0000 0.28550  0.13320  0.70490  Biso   1.000  C
  C8       1.0000 0.07350  0.86060  0.85750  Biso   1.000  C
  C9       1.0000 0.92620  0.85980  0.86190  Biso   1.000  C
  C10      1.0000 0.99640  0.53540  0.05310  Biso   1.000  C
  C11      1.0000 0.49110  0.86380  0.60640  Biso   1.000  C
  C12      1.0000 0.41870  0.86680  0.70490  Biso   1.000  C
  C13      1.0000 0.93410  0.13940  0.85750  Biso   1.000  C
  C14      1.0000 0.78600  0.14020  0.86190  Biso   1.000  C
  C15      1.0000 0.53180  0.46460  0.05310  Biso   1.000  C
  C16      1.0000 0.64510  0.86380  0.39360  Biso   1.000  C
  C17      1.0000 0.71450  0.86680  0.29510  Biso   1.000  C
  C18      1.0000 0.92650  0.13940  0.14250  Biso   1.000  C
  C19      1.0000 0.07380  0.14020  0.13810  Biso   1.000  C
  C20      1.0000 0.00360  0.46460  0.94690  Biso   1.000  C
  C21      1.0000 0.54020  0.00000  0.44720  Biso   1.000  C
  C22      1.0000 0.76450  0.00000  0.14040  Biso   1.000  C
  C23      1.0000 0.92330  0.00000  0.14420  Biso   1.000  C
  C24      1.0000 0.21870  0.00000  0.13280  Biso   1.000  C
  C25      1.0000 0.37750  0.00000  0.11750  Biso   1.000  C
  C26      1.0000 0.45980  0.00000  0.55280  Biso   1.000  C
  C27      1.0000 0.23550  0.00000  0.85960  Biso   1.000  C
  C28      1.0000 0.07670  0.00000  0.85580  Biso   1.000  C
  C29      1.0000 0.78130  0.00000  0.86720  Biso   1.000  C
  C30      1.0000 0.62250  0.00000  0.88250  Biso   1.000  C
  N1       1.0000 0.68680  0.00000  0.24910  Biso   1.000  N
  N2       1.0000 0.31320  0.00000  0.75090  Biso   1.000  N
  O1       1.0000 0.50543  0.87074  0.11230  Biso   1.000  O
  O2       1.0000 0.50180  0.63740  0.90850  Biso   1.000  O
  O3       1.0000 0.38785  0.48530  0.90540  Biso   1.000  O
  O4       1.0000 0.62383  0.87074  0.88770  Biso   1.000  O
  O5       1.0000 0.86080  0.63740  0.09150  Biso   1.000  O
  O6       1.0000 0.12685  0.48530  0.09460  Biso   1.000  O
  O7       1.0000 0.49457  0.12926  0.88770  Biso   1.000  O
  O8       1.0000 0.49820  0.36260  0.09150  Biso   1.000  O
  O9       1.0000 0.61215  0.51470  0.09460  Biso   1.000  O
  O10      1.0000 0.37617  0.12926  0.11230  Biso   1.000  O
  O11      1.0000 0.13920  0.36260  0.90850  Biso   1.000  O
  O12      1.0000 0.87315  0.51470  0.90540  Biso   1.000  O
