data_image0
_cell_length_a       14.4562
_cell_length_b       14.9113
_cell_length_c       14.9113
_cell_angle_alpha    108.097
_cell_angle_beta     94.8855
_cell_angle_gamma    85.1145

_symmetry_space_group_name_H-M    P 1
_symmetry_int_tables_number       1

loop_
  _symmetry_equiv_pos_as_xyz
  'x, y, z'

loop_
  _atom_site_label
  _atom_site_occupancy
  _atom_site_fract_x
  _atom_site_fract_y
  _atom_site_fract_z
  _atom_site_thermal_displace_type
  _atom_site_B_iso_or_equiv
  _atom_site_type_symbol
  Co1      1.0000 0.78418  0.86295  0.26133  Biso   1.000  Co
  Co2      1.0000 0.71582  0.26133  0.86295  Biso   1.000  Co
  Co3      1.0000 0.21582  0.13705  0.73867  Biso   1.000  Co
  Co4      1.0000 0.28418  0.73867  0.13705  Biso   1.000  Co
  Co5      1.0000 0.25000  0.60808  0.60808  Biso   1.000  Co
  Co6      1.0000 0.75000  0.39192  0.39192  Biso   1.000  Co
  H1       1.0000 0.82300  0.03630  0.03350  Biso   1.000  H
  H2       1.0000 0.04710  0.89480  0.77340  Biso   1.000  H
  H3       1.0000 0.14840  0.79870  0.66730  Biso   1.000  H
  H4       1.0000 0.14310  0.59470  0.78210  Biso   1.000  H
  H5       1.0000 0.03880  0.68430  0.88990  Biso   1.000  H
  H6       1.0000 0.82370  0.16400  0.51920  Biso   1.000  H
  H7       1.0000 0.11730  0.04680  0.33100  Biso   1.000  H
  H8       1.0000 0.23950  0.95290  0.25270  Biso   1.000  H
  H9       1.0000 0.11500  0.72170  0.23070  Biso   1.000  H
  H10      1.0000 0.98930  0.80850  0.30730  Biso   1.000  H
  H11      1.0000 0.44090  0.30660  0.49980  Biso   1.000  H
  H12      1.0000 0.30800  0.44200  0.23700  Biso   1.000  H
  H13      1.0000 0.28040  0.53590  0.13870  Biso   1.000  H
  H14      1.0000 0.35060  0.76220  0.34540  Biso   1.000  H
  H15      1.0000 0.38040  0.67450  0.44950  Biso   1.000  H
  H16      1.0000 0.67700  0.03350  0.03630  Biso   1.000  H
  H17      1.0000 0.45290  0.77340  0.89480  Biso   1.000  H
  H18      1.0000 0.35160  0.66730  0.79870  Biso   1.000  H
  H19      1.0000 0.35690  0.78210  0.59470  Biso   1.000  H
  H20      1.0000 0.46120  0.88990  0.68430  Biso   1.000  H
  H21      1.0000 0.67630  0.51920  0.16400  Biso   1.000  H
  H22      1.0000 0.38270  0.33100  0.04680  Biso   1.000  H
  H23      1.0000 0.26050  0.25270  0.95290  Biso   1.000  H
  H24      1.0000 0.38500  0.23070  0.72170  Biso   1.000  H
  H25      1.0000 0.51070  0.30730  0.80850  Biso   1.000  H
  H26      1.0000 0.05910  0.49980  0.30660  Biso   1.000  H
  H27      1.0000 0.19200  0.23700  0.44200  Biso   1.000  H
  H28      1.0000 0.21960  0.13870  0.53590  Biso   1.000  H
  H29      1.0000 0.14940  0.34540  0.76220  Biso   1.000  H
  H30      1.0000 0.11960  0.44950  0.67450  Biso   1.000  H
  H31      1.0000 0.17700  0.96370  0.96650  Biso   1.000  H
  H32      1.0000 0.95290  0.10520  0.22660  Biso   1.000  H
  H33      1.0000 0.85160  0.20130  0.33270  Biso   1.000  H
  H34      1.0000 0.85690  0.40530  0.21790  Biso   1.000  H
  H35      1.0000 0.96120  0.31570  0.11010  Biso   1.000  H
  H36      1.0000 0.17630  0.83600  0.48080  Biso   1.000  H
  H37      1.0000 0.88270  0.95320  0.66900  Biso   1.000  H
  H38      1.0000 0.76050  0.04710  0.74730  Biso   1.000  H
  H39      1.0000 0.88500  0.27830  0.76930  Biso   1.000  H
  H40      1.0000 0.01070  0.19150  0.69270  Biso   1.000  H
  H41      1.0000 0.55910  0.69340  0.50020  Biso   1.000  H
  H42      1.0000 0.69200  0.55800  0.76300  Biso   1.000  H
  H43      1.0000 0.71960  0.46410  0.86130  Biso   1.000  H
  H44      1.0000 0.64940  0.23780  0.65460  Biso   1.000  H
  H45      1.0000 0.61960  0.32550  0.55050  Biso   1.000  H
  H46      1.0000 0.32300  0.96650  0.96370  Biso   1.000  H
  H47      1.0000 0.54710  0.22660  0.10520  Biso   1.000  H
  H48      1.0000 0.64840  0.33270  0.20130  Biso   1.000  H
  H49      1.0000 0.64310  0.21790  0.40530  Biso   1.000  H
  H50      1.0000 0.53880  0.11010  0.31570  Biso   1.000  H
  H51      1.0000 0.32370  0.48080  0.83600  Biso   1.000  H
  H52      1.0000 0.61730  0.66900  0.95320  Biso   1.000  H
  H53      1.0000 0.73950  0.74730  0.04710  Biso   1.000  H
  H54      1.0000 0.61500  0.76930  0.27830  Biso   1.000  H
  H55      1.0000 0.48930  0.69270  0.19150  Biso   1.000  H
  H56      1.0000 0.94090  0.50020  0.69340  Biso   1.000  H
  H57      1.0000 0.80800  0.76300  0.55800  Biso   1.000  H
  H58      1.0000 0.78040  0.86130  0.46410  Biso   1.000  H
  H59      1.0000 0.85060  0.65460  0.23780  Biso   1.000  H
  H60      1.0000 0.88040  0.55050  0.32550  Biso   1.000  H
  C1       1.0000 0.84471  0.89596  0.12296  Biso   1.000  C
  C2       1.0000 0.88260  0.90696  0.03724  Biso   1.000  C
  C3       1.0000 0.86214  0.98243  0.00421  Biso   1.000  C
  C4       1.0000 0.96585  0.85881  0.91207  Biso   1.000  C
  C5       1.0000 0.03055  0.80013  0.84343  Biso   1.000  C
  C6       1.0000 0.06511  0.83287  0.77605  Biso   1.000  C
  C7       1.0000 0.12571  0.77502  0.71296  Biso   1.000  C
  C8       1.0000 0.12226  0.65613  0.77955  Biso   1.000  C
  C9       1.0000 0.06045  0.70942  0.84484  Biso   1.000  C
  C10      1.0000 0.71111  0.02034  0.40914  Biso   1.000  C
  C11      1.0000 0.81329  0.03560  0.41734  Biso   1.000  C
  C12      1.0000 0.85462  0.11256  0.47476  Biso   1.000  C
  C13      1.0000 0.95747  0.99480  0.37186  Biso   1.000  C
  C14      1.0000 0.03717  0.93788  0.32432  Biso   1.000  C
  C15      1.0000 0.11456  0.98008  0.30928  Biso   1.000  C
  C16      1.0000 0.18713  0.92342  0.26236  Biso   1.000  C
  C17      1.0000 0.11438  0.78874  0.24950  Biso   1.000  C
  C18      1.0000 0.03927  0.83996  0.29546  Biso   1.000  C
  C19      1.0000 0.36001  0.45325  0.64583  Biso   1.000  C
  C20      1.0000 0.37934  0.44100  0.54524  Biso   1.000  C
  C21      1.0000 0.41795  0.36184  0.48420  Biso   1.000  C
  C22      1.0000 0.36778  0.48885  0.41765  Biso   1.000  C
  C23      1.0000 0.34793  0.54828  0.35458  Biso   1.000  C
  C24      1.0000 0.31746  0.50766  0.26070  Biso   1.000  C
  C25      1.0000 0.30126  0.56424  0.20266  Biso   1.000  C
  C26      1.0000 0.34219  0.69617  0.32311  Biso   1.000  C
  C27      1.0000 0.36000  0.64445  0.38563  Biso   1.000  C
  C28      1.0000 0.65529  0.12296  0.89596  Biso   1.000  C
  C29      1.0000 0.61740  0.03724  0.90696  Biso   1.000  C
  C30      1.0000 0.63786  0.00421  0.98243  Biso   1.000  C
  C31      1.0000 0.53415  0.91207  0.85881  Biso   1.000  C
  C32      1.0000 0.46945  0.84343  0.80013  Biso   1.000  C
  C33      1.0000 0.43489  0.77605  0.83287  Biso   1.000  C
  C34      1.0000 0.37429  0.71296  0.77502  Biso   1.000  C
  C35      1.0000 0.37774  0.77955  0.65613  Biso   1.000  C
  C36      1.0000 0.43955  0.84484  0.70942  Biso   1.000  C
  C37      1.0000 0.78889  0.40914  0.02034  Biso   1.000  C
  C38      1.0000 0.68671  0.41734  0.03560  Biso   1.000  C
  C39      1.0000 0.64538  0.47476  0.11256  Biso   1.000  C
  C40      1.0000 0.54253  0.37186  0.99480  Biso   1.000  C
  C41      1.0000 0.46283  0.32432  0.93788  Biso   1.000  C
  C42      1.0000 0.38544  0.30928  0.98008  Biso   1.000  C
  C43      1.0000 0.31287  0.26236  0.92342  Biso   1.000  C
  C44      1.0000 0.38562  0.24950  0.78874  Biso   1.000  C
  C45      1.0000 0.46073  0.29546  0.83996  Biso   1.000  C
  C46      1.0000 0.13999  0.64583  0.45325  Biso   1.000  C
  C47      1.0000 0.12066  0.54524  0.44100  Biso   1.000  C
  C48      1.0000 0.08205  0.48420  0.36184  Biso   1.000  C
  C49      1.0000 0.13222  0.41765  0.48885  Biso   1.000  C
  C50      1.0000 0.15207  0.35458  0.54828  Biso   1.000  C
  C51      1.0000 0.18254  0.26070  0.50766  Biso   1.000  C
  C52      1.0000 0.19874  0.20266  0.56424  Biso   1.000  C
  C53      1.0000 0.15781  0.32311  0.69617  Biso   1.000  C
  C54      1.0000 0.14000  0.38563  0.64445  Biso   1.000  C
  C55      1.0000 0.15529  0.10404  0.87704  Biso   1.000  C
  C56      1.0000 0.11740  0.09304  0.96276  Biso   1.000  C
  C57      1.0000 0.13786  0.01757  0.99579  Biso   1.000  C
  C58      1.0000 0.03415  0.14119  0.08793  Biso   1.000  C
  C59      1.0000 0.96945  0.19987  0.15657  Biso   1.000  C
  C60      1.0000 0.93489  0.16713  0.22395  Biso   1.000  C
  C61      1.0000 0.87429  0.22498  0.28704  Biso   1.000  C
  C62      1.0000 0.87774  0.34387  0.22045  Biso   1.000  C
  C63      1.0000 0.93955  0.29058  0.15516  Biso   1.000  C
  C64      1.0000 0.28889  0.97966  0.59086  Biso   1.000  C
  C65      1.0000 0.18671  0.96440  0.58266  Biso   1.000  C
  C66      1.0000 0.14538  0.88744  0.52524  Biso   1.000  C
  C67      1.0000 0.04253  0.00520  0.62814  Biso   1.000  C
  C68      1.0000 0.96283  0.06212  0.67568  Biso   1.000  C
  C69      1.0000 0.88544  0.01992  0.69072  Biso   1.000  C
  C70      1.0000 0.81287  0.07658  0.73764  Biso   1.000  C
  C71      1.0000 0.88562  0.21126  0.75050  Biso   1.000  C
  C72      1.0000 0.96073  0.16004  0.70454  Biso   1.000  C
  C73      1.0000 0.63999  0.54675  0.35417  Biso   1.000  C
  C74      1.0000 0.62066  0.55900  0.45476  Biso   1.000  C
  C75      1.0000 0.58205  0.63816  0.51580  Biso   1.000  C
  C76      1.0000 0.63222  0.51115  0.58235  Biso   1.000  C
  C77      1.0000 0.65207  0.45172  0.64542  Biso   1.000  C
  C78      1.0000 0.68254  0.49234  0.73930  Biso   1.000  C
  C79      1.0000 0.69874  0.43576  0.79734  Biso   1.000  C
  C80      1.0000 0.65781  0.30383  0.67689  Biso   1.000  C
  C81      1.0000 0.64000  0.35555  0.61437  Biso   1.000  C
  C82      1.0000 0.34471  0.87704  0.10404  Biso   1.000  C
  C83      1.0000 0.38260  0.96276  0.09304  Biso   1.000  C
  C84      1.0000 0.36214  0.99579  0.01757  Biso   1.000  C
  C85      1.0000 0.46585  0.08793  0.14119  Biso   1.000  C
  C86      1.0000 0.53055  0.15657  0.19987  Biso   1.000  C
  C87      1.0000 0.56511  0.22395  0.16713  Biso   1.000  C
  C88      1.0000 0.62571  0.28704  0.22498  Biso   1.000  C
  C89      1.0000 0.62226  0.22045  0.34387  Biso   1.000  C
  C90      1.0000 0.56045  0.15516  0.29058  Biso   1.000  C
  C91      1.0000 0.21111  0.59086  0.97966  Biso   1.000  C
  C92      1.0000 0.31329  0.58266  0.96440  Biso   1.000  C
  C93      1.0000 0.35462  0.52524  0.88744  Biso   1.000  C
  C94      1.0000 0.45747  0.62814  0.00520  Biso   1.000  C
  C95      1.0000 0.53717  0.67568  0.06212  Biso   1.000  C
  C96      1.0000 0.61456  0.69072  0.01992  Biso   1.000  C
  C97      1.0000 0.68713  0.73764  0.07658  Biso   1.000  C
  C98      1.0000 0.61438  0.75050  0.21126  Biso   1.000  C
  C99      1.0000 0.53927  0.70454  0.16004  Biso   1.000  C
  C100     1.0000 0.86001  0.35417  0.54675  Biso   1.000  C
  C101     1.0000 0.87934  0.45476  0.55900  Biso   1.000  C
  C102     1.0000 0.91795  0.51580  0.63816  Biso   1.000  C
  C103     1.0000 0.86778  0.58235  0.51115  Biso   1.000  C
  C104     1.0000 0.84793  0.64542  0.45172  Biso   1.000  C
  C105     1.0000 0.81746  0.73930  0.49234  Biso   1.000  C
  C106     1.0000 0.80126  0.79734  0.43576  Biso   1.000  C
  C107     1.0000 0.84219  0.67689  0.30383  Biso   1.000  C
  C108     1.0000 0.86000  0.61437  0.35555  Biso   1.000  C
  S1       1.0000 0.91624  0.96668  0.90346  Biso   1.000  S
  S2       1.0000 0.97024  0.10409  0.45591  Biso   1.000  S
  S3       1.0000 0.41918  0.37607  0.37525  Biso   1.000  S
  S4       1.0000 0.58376  0.90346  0.96668  Biso   1.000  S
  S5       1.0000 0.52976  0.45591  0.10409  Biso   1.000  S
  S6       1.0000 0.08082  0.37525  0.37607  Biso   1.000  S
  S7       1.0000 0.08376  0.03332  0.09654  Biso   1.000  S
  S8       1.0000 0.02976  0.89591  0.54409  Biso   1.000  S
  S9       1.0000 0.58082  0.62393  0.62475  Biso   1.000  S
  S10      1.0000 0.41624  0.09654  0.03332  Biso   1.000  S
  S11      1.0000 0.47024  0.54409  0.89591  Biso   1.000  S
  S12      1.0000 0.91918  0.62475  0.62393  Biso   1.000  S
  N1       1.0000 0.94226  0.83703  0.98483  Biso   1.000  N
  N2       1.0000 0.15414  0.68680  0.71290  Biso   1.000  N
  N3       1.0000 0.87157  0.96821  0.35881  Biso   1.000  N
  N4       1.0000 0.18716  0.82879  0.22985  Biso   1.000  N
  N5       1.0000 0.35069  0.51318  0.50754  Biso   1.000  N
  N6       1.0000 0.31340  0.65750  0.23198  Biso   1.000  N
  N7       1.0000 0.55774  0.98483  0.83703  Biso   1.000  N
  N8       1.0000 0.34586  0.71290  0.68680  Biso   1.000  N
  N9       1.0000 0.62843  0.35881  0.96821  Biso   1.000  N
  N10      1.0000 0.31284  0.22985  0.82879  Biso   1.000  N
  N11      1.0000 0.14931  0.50754  0.51318  Biso   1.000  N
  N12      1.0000 0.18660  0.23198  0.65750  Biso   1.000  N
  N13      1.0000 0.05774  0.16297  0.01517  Biso   1.000  N
  N14      1.0000 0.84586  0.31320  0.28710  Biso   1.000  N
  N15      1.0000 0.12843  0.03179  0.64119  Biso   1.000  N
  N16      1.0000 0.81284  0.17121  0.77015  Biso   1.000  N
  N17      1.0000 0.64931  0.48682  0.49246  Biso   1.000  N
  N18      1.0000 0.68660  0.34250  0.76802  Biso   1.000  N
  N19      1.0000 0.44226  0.01517  0.16297  Biso   1.000  N
  N20      1.0000 0.65414  0.28710  0.31320  Biso   1.000  N
  N21      1.0000 0.37157  0.64119  0.03179  Biso   1.000  N
  N22      1.0000 0.68716  0.77015  0.17121  Biso   1.000  N
  N23      1.0000 0.85069  0.49246  0.48682  Biso   1.000  N
  N24      1.0000 0.81340  0.76802  0.34250  Biso   1.000  N
  O1       1.0000 0.87717  0.82779  0.15257  Biso   1.000  O
  O2       1.0000 0.78092  0.95231  0.16273  Biso   1.000  O
  O3       1.0000 0.68592  0.94540  0.34448  Biso   1.000  O
  O4       1.0000 0.66030  0.07948  0.46248  Biso   1.000  O
  O5       1.0000 0.30187  0.52219  0.68259  Biso   1.000  O
  O6       1.0000 0.39880  0.39784  0.68526  Biso   1.000  O
  O7       1.0000 0.62283  0.15257  0.82779  Biso   1.000  O
  O8       1.0000 0.71908  0.16273  0.95231  Biso   1.000  O
  O9       1.0000 0.81408  0.34448  0.94540  Biso   1.000  O
  O10      1.0000 0.83970  0.46248  0.07948  Biso   1.000  O
  O11      1.0000 0.19813  0.68259  0.52219  Biso   1.000  O
  O12      1.0000 0.10120  0.68526  0.39784  Biso   1.000  O
  O13      1.0000 0.12283  0.17221  0.84743  Biso   1.000  O
  O14      1.0000 0.21908  0.04769  0.83727  Biso   1.000  O
  O15      1.0000 0.31408  0.05460  0.65552  Biso   1.000  O
  O16      1.0000 0.33970  0.92052  0.53752  Biso   1.000  O
  O17      1.0000 0.69813  0.47781  0.31741  Biso   1.000  O
  O18      1.0000 0.60120  0.60216  0.31474  Biso   1.000  O
  O19      1.0000 0.37717  0.84743  0.17221  Biso   1.000  O
  O20      1.0000 0.28092  0.83727  0.04769  Biso   1.000  O
  O21      1.0000 0.18592  0.65552  0.05460  Biso   1.000  O
  O22      1.0000 0.16030  0.53752  0.92052  Biso   1.000  O
  O23      1.0000 0.80187  0.31741  0.47781  Biso   1.000  O
  O24      1.0000 0.89880  0.31474  0.60216  Biso   1.000  O
