data_image0
_cell_length_a       8.5785
_cell_length_b       13.8236
_cell_length_c       31.9322
_cell_angle_alpha    90
_cell_angle_beta     90
_cell_angle_gamma    90

_symmetry_space_group_name_H-M    P 1
_symmetry_int_tables_number       1

loop_
  _symmetry_equiv_pos_as_xyz
  'x, y, z'

loop_
  _atom_site_label
  _atom_site_occupancy
  _atom_site_fract_x
  _atom_site_fract_y
  _atom_site_fract_z
  _atom_site_thermal_displace_type
  _atom_site_B_iso_or_equiv
  _atom_site_type_symbol
  Pr1      1.0000 0.92104  0.79873  0.10343  Biso   1.000  Pr
  Pr2      1.0000 0.57896  0.29873  0.89657  Biso   1.000  Pr
  Pr3      1.0000 0.07896  0.20127  0.60343  Biso   1.000  Pr
  Pr4      1.0000 0.42104  0.70127  0.39657  Biso   1.000  Pr
  Pr5      1.0000 0.07896  0.20127  0.89657  Biso   1.000  Pr
  Pr6      1.0000 0.42104  0.70127  0.10343  Biso   1.000  Pr
  Pr7      1.0000 0.92104  0.79873  0.39657  Biso   1.000  Pr
  Pr8      1.0000 0.57896  0.29873  0.60343  Biso   1.000  Pr
  H1       1.0000 0.88710  0.59480  0.18760  Biso   1.000  H
  H2       1.0000 0.46670  0.98010  0.10990  Biso   1.000  H
  H3       1.0000 0.59030  0.18550  0.02820  Biso   1.000  H
  H4       1.0000 0.21210  0.02480  0.00590  Biso   1.000  H
  H5       1.0000 0.67940  0.51720  0.22670  Biso   1.000  H
  H6       1.0000 0.65710  0.17460  0.11060  Biso   1.000  H
  H7       1.0000 0.69050  0.07370  0.11980  Biso   1.000  H
  H8       1.0000 0.76410  0.12060  0.08420  Biso   1.000  H
  H9       1.0000 0.61290  0.09480  0.81240  Biso   1.000  H
  H10      1.0000 0.03330  0.48010  0.89010  Biso   1.000  H
  H11      1.0000 0.90970  0.68550  0.97180  Biso   1.000  H
  H12      1.0000 0.28790  0.52480  0.99410  Biso   1.000  H
  H13      1.0000 0.82060  0.01720  0.77330  Biso   1.000  H
  H14      1.0000 0.84290  0.67460  0.88940  Biso   1.000  H
  H15      1.0000 0.80950  0.57370  0.88020  Biso   1.000  H
  H16      1.0000 0.73590  0.62060  0.91580  Biso   1.000  H
  H17      1.0000 0.11290  0.40520  0.68760  Biso   1.000  H
  H18      1.0000 0.53330  0.01990  0.60990  Biso   1.000  H
  H19      1.0000 0.40970  0.81450  0.52820  Biso   1.000  H
  H20      1.0000 0.78790  0.97520  0.50590  Biso   1.000  H
  H21      1.0000 0.32060  0.48280  0.72670  Biso   1.000  H
  H22      1.0000 0.34290  0.82540  0.61060  Biso   1.000  H
  H23      1.0000 0.30950  0.92630  0.61980  Biso   1.000  H
  H24      1.0000 0.23590  0.87940  0.58420  Biso   1.000  H
  H25      1.0000 0.38710  0.90520  0.31240  Biso   1.000  H
  H26      1.0000 0.96670  0.51990  0.39010  Biso   1.000  H
  H27      1.0000 0.09030  0.31450  0.47180  Biso   1.000  H
  H28      1.0000 0.71210  0.47520  0.49410  Biso   1.000  H
  H29      1.0000 0.17940  0.98280  0.27330  Biso   1.000  H
  H30      1.0000 0.15710  0.32540  0.38940  Biso   1.000  H
  H31      1.0000 0.19050  0.42630  0.38020  Biso   1.000  H
  H32      1.0000 0.26410  0.37940  0.41580  Biso   1.000  H
  H33      1.0000 0.11290  0.40520  0.81240  Biso   1.000  H
  H34      1.0000 0.53330  0.01990  0.89010  Biso   1.000  H
  H35      1.0000 0.40970  0.81450  0.97180  Biso   1.000  H
  H36      1.0000 0.78790  0.97520  0.99410  Biso   1.000  H
  H37      1.0000 0.32060  0.48280  0.77330  Biso   1.000  H
  H38      1.0000 0.34290  0.82540  0.88940  Biso   1.000  H
  H39      1.0000 0.30950  0.92630  0.88020  Biso   1.000  H
  H40      1.0000 0.23590  0.87940  0.91580  Biso   1.000  H
  H41      1.0000 0.38710  0.90520  0.18760  Biso   1.000  H
  H42      1.0000 0.96670  0.51990  0.10990  Biso   1.000  H
  H43      1.0000 0.09030  0.31450  0.02820  Biso   1.000  H
  H44      1.0000 0.71210  0.47520  0.00590  Biso   1.000  H
  H45      1.0000 0.17940  0.98280  0.22670  Biso   1.000  H
  H46      1.0000 0.15710  0.32540  0.11060  Biso   1.000  H
  H47      1.0000 0.19050  0.42630  0.11980  Biso   1.000  H
  H48      1.0000 0.26410  0.37940  0.08420  Biso   1.000  H
  H49      1.0000 0.88710  0.59480  0.31240  Biso   1.000  H
  H50      1.0000 0.46670  0.98010  0.39010  Biso   1.000  H
  H51      1.0000 0.59030  0.18550  0.47180  Biso   1.000  H
  H52      1.0000 0.21210  0.02480  0.49410  Biso   1.000  H
  H53      1.0000 0.67940  0.51720  0.27330  Biso   1.000  H
  H54      1.0000 0.65710  0.17460  0.38940  Biso   1.000  H
  H55      1.0000 0.69050  0.07370  0.38020  Biso   1.000  H
  H56      1.0000 0.76410  0.12060  0.41580  Biso   1.000  H
  H57      1.0000 0.61290  0.09480  0.68760  Biso   1.000  H
  H58      1.0000 0.03330  0.48010  0.60990  Biso   1.000  H
  H59      1.0000 0.90970  0.68550  0.52820  Biso   1.000  H
  H60      1.0000 0.28790  0.52480  0.50590  Biso   1.000  H
  H61      1.0000 0.82060  0.01720  0.72670  Biso   1.000  H
  H62      1.0000 0.84290  0.67460  0.61060  Biso   1.000  H
  H63      1.0000 0.80950  0.57370  0.61980  Biso   1.000  H
  H64      1.0000 0.73590  0.62060  0.58420  Biso   1.000  H
  H65      1.0000 0.25030  0.70840  0.25000  Biso   1.000  H
  H66      1.0000 0.24970  0.20840  0.75000  Biso   1.000  H
  H67      1.0000 0.74970  0.29160  0.75000  Biso   1.000  H
  H68      1.0000 0.75030  0.79160  0.25000  Biso   1.000  H
  C1       1.0000 0.15830  0.68540  0.17250  Biso   1.000  C
  C2       1.0000 0.08040  0.65780  0.21259  Biso   1.000  C
  C3       1.0000 0.93630  0.61020  0.21270  Biso   1.000  C
  C4       1.0000 0.20750  0.91570  0.07328  Biso   1.000  C
  C5       1.0000 0.32150  0.99120  0.05992  Biso   1.000  C
  C6       1.0000 0.44830  0.01360  0.08519  Biso   1.000  C
  C7       1.0000 0.54580  0.08700  0.07248  Biso   1.000  C
  C8       1.0000 0.52300  0.13580  0.03585  Biso   1.000  C
  C9       1.0000 0.39840  0.11090  0.00995  Biso   1.000  C
  C10      1.0000 0.29760  0.04020  0.02253  Biso   1.000  C
  C11      1.0000 0.37510  0.16180  0.96935  Biso   1.000  C
  C12      1.0000 0.34170  0.18540  0.82750  Biso   1.000  C
  C13      1.0000 0.41960  0.15780  0.78741  Biso   1.000  C
  C14      1.0000 0.56370  0.11020  0.78730  Biso   1.000  C
  C15      1.0000 0.29250  0.41570  0.92672  Biso   1.000  C
  C16      1.0000 0.17850  0.49120  0.94008  Biso   1.000  C
  C17      1.0000 0.05170  0.51360  0.91481  Biso   1.000  C
  C18      1.0000 0.95420  0.58700  0.92752  Biso   1.000  C
  C19      1.0000 0.97700  0.63580  0.96415  Biso   1.000  C
  C20      1.0000 0.10160  0.61090  0.99005  Biso   1.000  C
  C21      1.0000 0.20240  0.54020  0.97747  Biso   1.000  C
  C22      1.0000 0.12490  0.66180  0.03065  Biso   1.000  C
  C23      1.0000 0.84170  0.31460  0.67250  Biso   1.000  C
  C24      1.0000 0.91960  0.34220  0.71259  Biso   1.000  C
  C25      1.0000 0.06370  0.38980  0.71270  Biso   1.000  C
  C26      1.0000 0.79250  0.08430  0.57328  Biso   1.000  C
  C27      1.0000 0.67850  0.00880  0.55992  Biso   1.000  C
  C28      1.0000 0.55170  0.98640  0.58519  Biso   1.000  C
  C29      1.0000 0.45420  0.91300  0.57248  Biso   1.000  C
  C30      1.0000 0.47700  0.86420  0.53585  Biso   1.000  C
  C31      1.0000 0.60160  0.88910  0.50995  Biso   1.000  C
  C32      1.0000 0.70240  0.95980  0.52253  Biso   1.000  C
  C33      1.0000 0.62490  0.83820  0.46935  Biso   1.000  C
  C34      1.0000 0.65830  0.81460  0.32750  Biso   1.000  C
  C35      1.0000 0.58040  0.84220  0.28741  Biso   1.000  C
  C36      1.0000 0.43630  0.88980  0.28730  Biso   1.000  C
  C37      1.0000 0.70750  0.58430  0.42672  Biso   1.000  C
  C38      1.0000 0.82150  0.50880  0.44008  Biso   1.000  C
  C39      1.0000 0.94830  0.48640  0.41481  Biso   1.000  C
  C40      1.0000 0.04580  0.41300  0.42752  Biso   1.000  C
  C41      1.0000 0.02300  0.36420  0.46415  Biso   1.000  C
  C42      1.0000 0.89840  0.38910  0.49005  Biso   1.000  C
  C43      1.0000 0.79760  0.45980  0.47747  Biso   1.000  C
  C44      1.0000 0.87510  0.33820  0.53065  Biso   1.000  C
  C45      1.0000 0.84170  0.31460  0.82750  Biso   1.000  C
  C46      1.0000 0.91960  0.34220  0.78741  Biso   1.000  C
  C47      1.0000 0.06370  0.38980  0.78730  Biso   1.000  C
  C48      1.0000 0.79250  0.08430  0.92672  Biso   1.000  C
  C49      1.0000 0.67850  0.00880  0.94008  Biso   1.000  C
  C50      1.0000 0.55170  0.98640  0.91481  Biso   1.000  C
  C51      1.0000 0.45420  0.91300  0.92752  Biso   1.000  C
  C52      1.0000 0.47700  0.86420  0.96415  Biso   1.000  C
  C53      1.0000 0.60160  0.88910  0.99005  Biso   1.000  C
  C54      1.0000 0.70240  0.95980  0.97747  Biso   1.000  C
  C55      1.0000 0.62490  0.83820  0.03065  Biso   1.000  C
  C56      1.0000 0.65830  0.81460  0.17250  Biso   1.000  C
  C57      1.0000 0.58040  0.84220  0.21259  Biso   1.000  C
  C58      1.0000 0.43630  0.88980  0.21270  Biso   1.000  C
  C59      1.0000 0.70750  0.58430  0.07328  Biso   1.000  C
  C60      1.0000 0.82150  0.50880  0.05992  Biso   1.000  C
  C61      1.0000 0.94830  0.48640  0.08519  Biso   1.000  C
  C62      1.0000 0.04580  0.41300  0.07248  Biso   1.000  C
  C63      1.0000 0.02300  0.36420  0.03585  Biso   1.000  C
  C64      1.0000 0.89840  0.38910  0.00995  Biso   1.000  C
  C65      1.0000 0.79760  0.45980  0.02253  Biso   1.000  C
  C66      1.0000 0.87510  0.33820  0.96935  Biso   1.000  C
  C67      1.0000 0.15830  0.68540  0.32750  Biso   1.000  C
  C68      1.0000 0.08040  0.65780  0.28741  Biso   1.000  C
  C69      1.0000 0.93630  0.61020  0.28730  Biso   1.000  C
  C70      1.0000 0.20750  0.91570  0.42672  Biso   1.000  C
  C71      1.0000 0.32150  0.99120  0.44008  Biso   1.000  C
  C72      1.0000 0.44830  0.01360  0.41481  Biso   1.000  C
  C73      1.0000 0.54580  0.08700  0.42752  Biso   1.000  C
  C74      1.0000 0.52300  0.13580  0.46415  Biso   1.000  C
  C75      1.0000 0.39840  0.11090  0.49005  Biso   1.000  C
  C76      1.0000 0.29760  0.04020  0.47747  Biso   1.000  C
  C77      1.0000 0.37510  0.16180  0.53065  Biso   1.000  C
  C78      1.0000 0.34170  0.18540  0.67250  Biso   1.000  C
  C79      1.0000 0.41960  0.15780  0.71259  Biso   1.000  C
  C80      1.0000 0.56370  0.11020  0.71270  Biso   1.000  C
  C81      1.0000 0.29250  0.41570  0.57328  Biso   1.000  C
  C82      1.0000 0.17850  0.49120  0.55992  Biso   1.000  C
  C83      1.0000 0.05170  0.51360  0.58519  Biso   1.000  C
  C84      1.0000 0.95420  0.58700  0.57248  Biso   1.000  C
  C85      1.0000 0.97700  0.63580  0.53585  Biso   1.000  C
  C86      1.0000 0.10160  0.61090  0.50995  Biso   1.000  C
  C87      1.0000 0.20240  0.54020  0.52253  Biso   1.000  C
  C88      1.0000 0.12490  0.66180  0.46935  Biso   1.000  C
  C89      1.0000 0.15250  0.67930  0.25000  Biso   1.000  C
  C90      1.0000 0.86900  0.58680  0.25000  Biso   1.000  C
  C91      1.0000 0.34750  0.17930  0.75000  Biso   1.000  C
  C92      1.0000 0.63100  0.08680  0.75000  Biso   1.000  C
  C93      1.0000 0.84750  0.32070  0.75000  Biso   1.000  C
  C94      1.0000 0.13100  0.41320  0.75000  Biso   1.000  C
  C95      1.0000 0.65250  0.82070  0.25000  Biso   1.000  C
  C96      1.0000 0.36900  0.91320  0.25000  Biso   1.000  C
  N1       1.0000 0.95830  0.97260  0.16180  Biso   1.000  N
  N2       1.0000 0.67750  0.11700  0.09948  Biso   1.000  N
  N3       1.0000 0.54170  0.47260  0.83820  Biso   1.000  N
  N4       1.0000 0.82250  0.61700  0.90052  Biso   1.000  N
  N5       1.0000 0.04170  0.02740  0.66180  Biso   1.000  N
  N6       1.0000 0.32250  0.88300  0.59948  Biso   1.000  N
  N7       1.0000 0.45830  0.52740  0.33820  Biso   1.000  N
  N8       1.0000 0.17750  0.38300  0.40052  Biso   1.000  N
  N9       1.0000 0.04170  0.02740  0.83820  Biso   1.000  N
  N10      1.0000 0.32250  0.88300  0.90052  Biso   1.000  N
  N11      1.0000 0.45830  0.52740  0.16180  Biso   1.000  N
  N12      1.0000 0.17750  0.38300  0.09948  Biso   1.000  N
  N13      1.0000 0.95830  0.97260  0.33820  Biso   1.000  N
  N14      1.0000 0.67750  0.11700  0.40052  Biso   1.000  N
  N15      1.0000 0.54170  0.47260  0.66180  Biso   1.000  N
  N16      1.0000 0.82250  0.61700  0.59948  Biso   1.000  N
  N17      1.0000 0.72220  0.53350  0.25000  Biso   1.000  N
  N18      1.0000 0.77780  0.03350  0.75000  Biso   1.000  N
  N19      1.0000 0.27780  0.46650  0.75000  Biso   1.000  N
  N20      1.0000 0.22220  0.96650  0.25000  Biso   1.000  N
  O1       1.0000 0.24740  0.84290  0.09505  Biso   1.000  O
  O2       1.0000 0.06580  0.92870  0.06351  Biso   1.000  O
  O3       1.0000 0.08020  0.68000  0.13846  Biso   1.000  O
  O4       1.0000 0.29650  0.71160  0.17348  Biso   1.000  O
  O5       1.0000 0.48000  0.22140  0.95799  Biso   1.000  O
  O6       1.0000 0.25710  0.14090  0.94806  Biso   1.000  O
  O7       1.0000 0.85340  0.96830  0.13437  Biso   1.000  O
  O8       1.0000 0.05990  0.90970  0.16370  Biso   1.000  O
  O9       1.0000 0.95370  0.03860  0.18870  Biso   1.000  O
  O10      1.0000 0.25260  0.34290  0.90495  Biso   1.000  O
  O11      1.0000 0.43420  0.42870  0.93649  Biso   1.000  O
  O12      1.0000 0.41980  0.18000  0.86154  Biso   1.000  O
  O13      1.0000 0.20350  0.21160  0.82652  Biso   1.000  O
  O14      1.0000 0.02000  0.72140  0.04201  Biso   1.000  O
  O15      1.0000 0.24290  0.64090  0.05194  Biso   1.000  O
  O16      1.0000 0.64660  0.46830  0.86563  Biso   1.000  O
  O17      1.0000 0.44010  0.40970  0.83630  Biso   1.000  O
  O18      1.0000 0.54630  0.53860  0.81130  Biso   1.000  O
  O19      1.0000 0.75260  0.15710  0.59505  Biso   1.000  O
  O20      1.0000 0.93420  0.07130  0.56351  Biso   1.000  O
  O21      1.0000 0.91980  0.32000  0.63846  Biso   1.000  O
  O22      1.0000 0.70350  0.28840  0.67348  Biso   1.000  O
  O23      1.0000 0.52000  0.77860  0.45799  Biso   1.000  O
  O24      1.0000 0.74290  0.85910  0.44806  Biso   1.000  O
  O25      1.0000 0.14660  0.03170  0.63437  Biso   1.000  O
  O26      1.0000 0.94010  0.09030  0.66370  Biso   1.000  O
  O27      1.0000 0.04630  0.96140  0.68870  Biso   1.000  O
  O28      1.0000 0.74740  0.65710  0.40495  Biso   1.000  O
  O29      1.0000 0.56580  0.57130  0.43649  Biso   1.000  O
  O30      1.0000 0.58020  0.82000  0.36154  Biso   1.000  O
  O31      1.0000 0.79650  0.78840  0.32652  Biso   1.000  O
  O32      1.0000 0.98000  0.27860  0.54201  Biso   1.000  O
  O33      1.0000 0.75710  0.35910  0.55194  Biso   1.000  O
  O34      1.0000 0.35340  0.53170  0.36563  Biso   1.000  O
  O35      1.0000 0.55990  0.59030  0.33630  Biso   1.000  O
  O36      1.0000 0.45370  0.46140  0.31130  Biso   1.000  O
  O37      1.0000 0.75260  0.15710  0.90495  Biso   1.000  O
  O38      1.0000 0.93420  0.07130  0.93649  Biso   1.000  O
  O39      1.0000 0.91980  0.32000  0.86154  Biso   1.000  O
  O40      1.0000 0.70350  0.28840  0.82652  Biso   1.000  O
  O41      1.0000 0.52000  0.77860  0.04201  Biso   1.000  O
  O42      1.0000 0.74290  0.85910  0.05194  Biso   1.000  O
  O43      1.0000 0.14660  0.03170  0.86563  Biso   1.000  O
  O44      1.0000 0.94010  0.09030  0.83630  Biso   1.000  O
  O45      1.0000 0.04630  0.96140  0.81130  Biso   1.000  O
  O46      1.0000 0.74740  0.65710  0.09505  Biso   1.000  O
  O47      1.0000 0.56580  0.57130  0.06351  Biso   1.000  O
  O48      1.0000 0.58020  0.82000  0.13846  Biso   1.000  O
  O49      1.0000 0.79650  0.78840  0.17348  Biso   1.000  O
  O50      1.0000 0.98000  0.27860  0.95799  Biso   1.000  O
  O51      1.0000 0.75710  0.35910  0.94806  Biso   1.000  O
  O52      1.0000 0.35340  0.53170  0.13437  Biso   1.000  O
  O53      1.0000 0.55990  0.59030  0.16370  Biso   1.000  O
  O54      1.0000 0.45370  0.46140  0.18870  Biso   1.000  O
  O55      1.0000 0.24740  0.84290  0.40495  Biso   1.000  O
  O56      1.0000 0.06580  0.92870  0.43649  Biso   1.000  O
  O57      1.0000 0.08020  0.68000  0.36154  Biso   1.000  O
  O58      1.0000 0.29650  0.71160  0.32652  Biso   1.000  O
  O59      1.0000 0.48000  0.22140  0.54201  Biso   1.000  O
  O60      1.0000 0.25710  0.14090  0.55194  Biso   1.000  O
  O61      1.0000 0.85340  0.96830  0.36563  Biso   1.000  O
  O62      1.0000 0.05990  0.90970  0.33630  Biso   1.000  O
  O63      1.0000 0.95370  0.03860  0.31130  Biso   1.000  O
  O64      1.0000 0.25260  0.34290  0.59505  Biso   1.000  O
  O65      1.0000 0.43420  0.42870  0.56351  Biso   1.000  O
  O66      1.0000 0.41980  0.18000  0.63846  Biso   1.000  O
  O67      1.0000 0.20350  0.21160  0.67348  Biso   1.000  O
  O68      1.0000 0.02000  0.72140  0.45799  Biso   1.000  O
  O69      1.0000 0.24290  0.64090  0.44806  Biso   1.000  O
  O70      1.0000 0.64660  0.46830  0.63437  Biso   1.000  O
  O71      1.0000 0.44010  0.40970  0.66370  Biso   1.000  O
  O72      1.0000 0.54630  0.53860  0.68870  Biso   1.000  O
