data_image0
_cell_length_a       17.5757
_cell_length_b       17.5757
_cell_length_c       17.5757
_cell_angle_alpha    90.9296
_cell_angle_beta     90.9296
_cell_angle_gamma    90.9296

_symmetry_space_group_name_H-M    P 1
_symmetry_int_tables_number       1

loop_
  _symmetry_equiv_pos_as_xyz
  'x, y, z'

loop_
  _atom_site_label
  _atom_site_occupancy
  _atom_site_fract_x
  _atom_site_fract_y
  _atom_site_fract_z
  _atom_site_thermal_displace_type
  _atom_site_B_iso_or_equiv
  _atom_site_type_symbol
  Ce1      1.0000 0.36705  0.36705  0.36705  Biso   1.000  Ce
  Ce2      1.0000 0.63295  0.63295  0.63295  Biso   1.000  Ce
  Ce3      1.0000 0.50000  0.50000  0.50000  Biso   1.000  Ce
  H1       1.0000 0.38200  0.53620  0.23280  Biso   1.000  H
  H2       1.0000 0.38110  0.57350  0.10670  Biso   1.000  H
  H3       1.0000 0.61070  0.54110  0.23710  Biso   1.000  H
  H4       1.0000 0.40260  0.61430  0.96730  Biso   1.000  H
  H5       1.0000 0.66330  0.62560  0.91640  Biso   1.000  H
  H6       1.0000 0.44560  0.63680  0.84750  Biso   1.000  H
  H7       1.0000 0.23280  0.38200  0.53620  Biso   1.000  H
  H8       1.0000 0.10670  0.38110  0.57350  Biso   1.000  H
  H9       1.0000 0.23710  0.61070  0.54110  Biso   1.000  H
  H10      1.0000 0.96730  0.40260  0.61430  Biso   1.000  H
  H11      1.0000 0.91640  0.66330  0.62560  Biso   1.000  H
  H12      1.0000 0.84750  0.44560  0.63680  Biso   1.000  H
  H13      1.0000 0.53620  0.23280  0.38200  Biso   1.000  H
  H14      1.0000 0.57350  0.10670  0.38110  Biso   1.000  H
  H15      1.0000 0.54110  0.23710  0.61070  Biso   1.000  H
  H16      1.0000 0.61430  0.96730  0.40260  Biso   1.000  H
  H17      1.0000 0.62560  0.91640  0.66330  Biso   1.000  H
  H18      1.0000 0.63680  0.84750  0.44560  Biso   1.000  H
  H19      1.0000 0.61800  0.46380  0.76720  Biso   1.000  H
  H20      1.0000 0.61890  0.42650  0.89330  Biso   1.000  H
  H21      1.0000 0.38930  0.45890  0.76290  Biso   1.000  H
  H22      1.0000 0.59740  0.38570  0.03270  Biso   1.000  H
  H23      1.0000 0.33670  0.37440  0.08360  Biso   1.000  H
  H24      1.0000 0.55440  0.36320  0.15250  Biso   1.000  H
  H25      1.0000 0.76720  0.61800  0.46380  Biso   1.000  H
  H26      1.0000 0.89330  0.61890  0.42650  Biso   1.000  H
  H27      1.0000 0.76290  0.38930  0.45890  Biso   1.000  H
  H28      1.0000 0.03270  0.59740  0.38570  Biso   1.000  H
  H29      1.0000 0.08360  0.33670  0.37440  Biso   1.000  H
  H30      1.0000 0.15250  0.55440  0.36320  Biso   1.000  H
  H31      1.0000 0.46380  0.76720  0.61800  Biso   1.000  H
  H32      1.0000 0.42650  0.89330  0.61890  Biso   1.000  H
  H33      1.0000 0.45890  0.76290  0.38930  Biso   1.000  H
  H34      1.0000 0.38570  0.03270  0.59740  Biso   1.000  H
  H35      1.0000 0.37440  0.08360  0.33670  Biso   1.000  H
  H36      1.0000 0.36320  0.15250  0.55440  Biso   1.000  H
  C1       1.0000 0.49760  0.51140  0.32830  Biso   1.000  C
  C2       1.0000 0.49530  0.53440  0.24790  Biso   1.000  C
  C3       1.0000 0.42790  0.54470  0.20840  Biso   1.000  C
  C4       1.0000 0.42700  0.56710  0.13290  Biso   1.000  C
  C5       1.0000 0.56480  0.54840  0.21150  Biso   1.000  C
  C6       1.0000 0.56410  0.57310  0.13740  Biso   1.000  C
  C7       1.0000 0.49620  0.58030  0.09700  Biso   1.000  C
  C8       1.0000 0.50940  0.60160  0.01630  Biso   1.000  C
  C9       1.0000 0.58570  0.60740  0.99960  Biso   1.000  C
  C10      1.0000 0.45440  0.61520  0.95750  Biso   1.000  C
  C11      1.0000 0.61150  0.62260  0.92620  Biso   1.000  C
  C12      1.0000 0.48090  0.62940  0.88650  Biso   1.000  C
  C13      1.0000 0.55850  0.63310  0.86910  Biso   1.000  C
  C14      1.0000 0.58310  0.64320  0.78850  Biso   1.000  C
  C15      1.0000 0.32830  0.49760  0.51140  Biso   1.000  C
  C16      1.0000 0.24790  0.49530  0.53440  Biso   1.000  C
  C17      1.0000 0.20840  0.42790  0.54470  Biso   1.000  C
  C18      1.0000 0.13290  0.42700  0.56710  Biso   1.000  C
  C19      1.0000 0.21150  0.56480  0.54840  Biso   1.000  C
  C20      1.0000 0.13740  0.56410  0.57310  Biso   1.000  C
  C21      1.0000 0.09700  0.49620  0.58030  Biso   1.000  C
  C22      1.0000 0.01630  0.50940  0.60160  Biso   1.000  C
  C23      1.0000 0.99960  0.58570  0.60740  Biso   1.000  C
  C24      1.0000 0.95750  0.45440  0.61520  Biso   1.000  C
  C25      1.0000 0.92620  0.61150  0.62260  Biso   1.000  C
  C26      1.0000 0.88650  0.48090  0.62940  Biso   1.000  C
  C27      1.0000 0.86910  0.55850  0.63310  Biso   1.000  C
  C28      1.0000 0.78850  0.58310  0.64320  Biso   1.000  C
  C29      1.0000 0.51140  0.32830  0.49760  Biso   1.000  C
  C30      1.0000 0.53440  0.24790  0.49530  Biso   1.000  C
  C31      1.0000 0.54470  0.20840  0.42790  Biso   1.000  C
  C32      1.0000 0.56710  0.13290  0.42700  Biso   1.000  C
  C33      1.0000 0.54840  0.21150  0.56480  Biso   1.000  C
  C34      1.0000 0.57310  0.13740  0.56410  Biso   1.000  C
  C35      1.0000 0.58030  0.09700  0.49620  Biso   1.000  C
  C36      1.0000 0.60160  0.01630  0.50940  Biso   1.000  C
  C37      1.0000 0.60740  0.99960  0.58570  Biso   1.000  C
  C38      1.0000 0.61520  0.95750  0.45440  Biso   1.000  C
  C39      1.0000 0.62260  0.92620  0.61150  Biso   1.000  C
  C40      1.0000 0.62940  0.88650  0.48090  Biso   1.000  C
  C41      1.0000 0.63310  0.86910  0.55850  Biso   1.000  C
  C42      1.0000 0.64320  0.78850  0.58310  Biso   1.000  C
  C43      1.0000 0.50240  0.48860  0.67170  Biso   1.000  C
  C44      1.0000 0.50470  0.46560  0.75210  Biso   1.000  C
  C45      1.0000 0.57210  0.45530  0.79160  Biso   1.000  C
  C46      1.0000 0.57300  0.43290  0.86710  Biso   1.000  C
  C47      1.0000 0.43520  0.45160  0.78850  Biso   1.000  C
  C48      1.0000 0.43590  0.42690  0.86260  Biso   1.000  C
  C49      1.0000 0.50380  0.41970  0.90300  Biso   1.000  C
  C50      1.0000 0.49060  0.39840  0.98370  Biso   1.000  C
  C51      1.0000 0.41430  0.39260  0.00040  Biso   1.000  C
  C52      1.0000 0.54560  0.38480  0.04250  Biso   1.000  C
  C53      1.0000 0.38850  0.37740  0.07380  Biso   1.000  C
  C54      1.0000 0.51910  0.37060  0.11350  Biso   1.000  C
  C55      1.0000 0.44150  0.36690  0.13090  Biso   1.000  C
  C56      1.0000 0.41690  0.35680  0.21150  Biso   1.000  C
  C57      1.0000 0.67170  0.50240  0.48860  Biso   1.000  C
  C58      1.0000 0.75210  0.50470  0.46560  Biso   1.000  C
  C59      1.0000 0.79160  0.57210  0.45530  Biso   1.000  C
  C60      1.0000 0.86710  0.57300  0.43290  Biso   1.000  C
  C61      1.0000 0.78850  0.43520  0.45160  Biso   1.000  C
  C62      1.0000 0.86260  0.43590  0.42690  Biso   1.000  C
  C63      1.0000 0.90300  0.50380  0.41970  Biso   1.000  C
  C64      1.0000 0.98370  0.49060  0.39840  Biso   1.000  C
  C65      1.0000 0.00040  0.41430  0.39260  Biso   1.000  C
  C66      1.0000 0.04250  0.54560  0.38480  Biso   1.000  C
  C67      1.0000 0.07380  0.38850  0.37740  Biso   1.000  C
  C68      1.0000 0.11350  0.51910  0.37060  Biso   1.000  C
  C69      1.0000 0.13090  0.44150  0.36690  Biso   1.000  C
  C70      1.0000 0.21150  0.41690  0.35680  Biso   1.000  C
  C71      1.0000 0.48860  0.67170  0.50240  Biso   1.000  C
  C72      1.0000 0.46560  0.75210  0.50470  Biso   1.000  C
  C73      1.0000 0.45530  0.79160  0.57210  Biso   1.000  C
  C74      1.0000 0.43290  0.86710  0.57300  Biso   1.000  C
  C75      1.0000 0.45160  0.78850  0.43520  Biso   1.000  C
  C76      1.0000 0.42690  0.86260  0.43590  Biso   1.000  C
  C77      1.0000 0.41970  0.90300  0.50380  Biso   1.000  C
  C78      1.0000 0.39840  0.98370  0.49060  Biso   1.000  C
  C79      1.0000 0.39260  0.00040  0.41430  Biso   1.000  C
  C80      1.0000 0.38480  0.04250  0.54560  Biso   1.000  C
  C81      1.0000 0.37740  0.07380  0.38850  Biso   1.000  C
  C82      1.0000 0.37060  0.11350  0.51910  Biso   1.000  C
  C83      1.0000 0.36690  0.13090  0.44150  Biso   1.000  C
  C84      1.0000 0.35680  0.21150  0.41690  Biso   1.000  C
  S1       1.0000 0.64346  0.59021  0.07990  Biso   1.000  S
  S2       1.0000 0.07990  0.64346  0.59021  Biso   1.000  S
  S3       1.0000 0.59021  0.07990  0.64346  Biso   1.000  S
  S4       1.0000 0.35654  0.40979  0.92010  Biso   1.000  S
  S5       1.0000 0.92010  0.35654  0.40979  Biso   1.000  S
  S6       1.0000 0.40979  0.92010  0.35654  Biso   1.000  S
  O1       1.0000 0.55901  0.51021  0.36411  Biso   1.000  O
  O2       1.0000 0.43443  0.49113  0.35993  Biso   1.000  O
  O3       1.0000 0.65338  0.63758  0.77568  Biso   1.000  O
  O4       1.0000 0.53522  0.65422  0.73692  Biso   1.000  O
  O5       1.0000 0.68380  0.65900  0.10700  Biso   1.000  O
  O6       1.0000 0.68630  0.52110  0.06840  Biso   1.000  O
  O7       1.0000 0.36411  0.55901  0.51021  Biso   1.000  O
  O8       1.0000 0.35993  0.43443  0.49113  Biso   1.000  O
  O9       1.0000 0.77568  0.65338  0.63758  Biso   1.000  O
  O10      1.0000 0.73692  0.53522  0.65422  Biso   1.000  O
  O11      1.0000 0.10700  0.68380  0.65900  Biso   1.000  O
  O12      1.0000 0.06840  0.68630  0.52110  Biso   1.000  O
  O13      1.0000 0.51021  0.36411  0.55901  Biso   1.000  O
  O14      1.0000 0.49113  0.35993  0.43443  Biso   1.000  O
  O15      1.0000 0.63758  0.77568  0.65338  Biso   1.000  O
  O16      1.0000 0.65422  0.73692  0.53522  Biso   1.000  O
  O17      1.0000 0.65900  0.10700  0.68380  Biso   1.000  O
  O18      1.0000 0.52110  0.06840  0.68630  Biso   1.000  O
  O19      1.0000 0.44099  0.48979  0.63589  Biso   1.000  O
  O20      1.0000 0.56557  0.50887  0.64007  Biso   1.000  O
  O21      1.0000 0.34662  0.36242  0.22432  Biso   1.000  O
  O22      1.0000 0.46478  0.34578  0.26308  Biso   1.000  O
  O23      1.0000 0.31620  0.34100  0.89300  Biso   1.000  O
  O24      1.0000 0.31370  0.47890  0.93160  Biso   1.000  O
  O25      1.0000 0.63589  0.44099  0.48979  Biso   1.000  O
  O26      1.0000 0.64007  0.56557  0.50887  Biso   1.000  O
  O27      1.0000 0.22432  0.34662  0.36242  Biso   1.000  O
  O28      1.0000 0.26308  0.46478  0.34578  Biso   1.000  O
  O29      1.0000 0.89300  0.31620  0.34100  Biso   1.000  O
  O30      1.0000 0.93160  0.31370  0.47890  Biso   1.000  O
  O31      1.0000 0.48979  0.63589  0.44099  Biso   1.000  O
  O32      1.0000 0.50887  0.64007  0.56557  Biso   1.000  O
  O33      1.0000 0.36242  0.22432  0.34662  Biso   1.000  O
  O34      1.0000 0.34578  0.26308  0.46478  Biso   1.000  O
  O35      1.0000 0.34100  0.89300  0.31620  Biso   1.000  O
  O36      1.0000 0.47890  0.93160  0.31370  Biso   1.000  O
