data_image0
_cell_length_a       14.9351
_cell_length_b       19.0332
_cell_length_c       30.3411
_cell_angle_alpha    96.8239
_cell_angle_beta     90
_cell_angle_gamma    113.1

_symmetry_space_group_name_H-M    P 1
_symmetry_int_tables_number       1

loop_
  _symmetry_equiv_pos_as_xyz
  'x, y, z'

loop_
  _atom_site_label
  _atom_site_occupancy
  _atom_site_fract_x
  _atom_site_fract_y
  _atom_site_fract_z
  _atom_site_thermal_displace_type
  _atom_site_B_iso_or_equiv
  _atom_site_type_symbol
  Pr1      1.0000 0.37576  0.82961  0.15835  Biso   1.000  Pr
  Pr2      1.0000 0.37848  0.58642  0.64450  Biso   1.000  Pr
  Pr3      1.0000 0.45385  0.82961  0.65835  Biso   1.000  Pr
  Pr4      1.0000 0.20794  0.58642  0.14450  Biso   1.000  Pr
  H1       1.0000 0.36820  0.06820  0.23640  Biso   1.000  H
  H2       1.0000 0.23710  0.33580  0.10390  Biso   1.000  H
  H3       1.0000 0.96250  0.62640  0.14570  Biso   1.000  H
  H4       1.0000 0.32920  0.05840  0.10330  Biso   1.000  H
  H5       1.0000 0.30260  0.29860  0.24840  Biso   1.000  H
  H6       1.0000 0.33920  0.17960  0.24830  Biso   1.000  H
  H7       1.0000 0.23670  0.59980  0.51460  Biso   1.000  H
  H8       1.0000 0.39660  0.81060  0.31140  Biso   1.000  H
  H9       1.0000 0.45510  0.80560  0.50540  Biso   1.000  H
  H10      1.0000 0.26470  0.40240  0.23680  Biso   1.000  H
  H11      1.0000 0.48310  0.92500  0.25900  Biso   1.000  H
  H12      1.0000 0.45880  0.34080  0.51480  Biso   1.000  H
  H13      1.0000 0.43620  0.32940  0.56450  Biso   1.000  H
  H14      1.0000 0.54310  0.35220  0.54920  Biso   1.000  H
  H15      1.0000 0.17990  0.59260  0.44240  Biso   1.000  H
  H16      1.0000 0.54150  0.57500  0.13850  Biso   1.000  H
  H17      1.0000 0.16230  0.61020  0.28680  Biso   1.000  H
  H18      1.0000 0.15370  0.59620  0.36180  Biso   1.000  H
  H19      1.0000 0.57850  0.79960  0.15510  Biso   1.000  H
  H20      1.0000 0.51690  0.96140  0.08230  Biso   1.000  H
  H21      1.0000 0.57240  0.52160  0.52090  Biso   1.000  H
  H22      1.0000 0.62440  0.46600  0.52730  Biso   1.000  H
  H23      1.0000 0.62410  0.52700  0.56680  Biso   1.000  H
  H24      1.0000 0.74600  0.83820  0.15610  Biso   1.000  H
  H25      1.0000 0.44620  0.50600  0.72920  Biso   1.000  H
  H26      1.0000 0.07580  0.85940  0.16250  Biso   1.000  H
  H27      1.0000 0.66310  0.95200  0.33960  Biso   1.000  H
  H28      1.0000 0.61220  0.00380  0.32430  Biso   1.000  H
  H29      1.0000 0.54930  0.92300  0.33880  Biso   1.000  H
  H30      1.0000 0.92140  0.85940  0.16180  Biso   1.000  H
  H31      1.0000 0.65130  0.84640  0.01440  Biso   1.000  H
  H32      1.0000 0.66120  0.85100  0.06620  Biso   1.000  H
  H33      1.0000 0.56250  0.79720  0.04040  Biso   1.000  H
  H34      1.0000 0.37690  0.42240  0.58110  Biso   1.000  H
  H35      1.0000 0.62480  0.40840  0.69520  Biso   1.000  H
  H36      1.0000 0.63980  0.48320  0.67410  Biso   1.000  H
  H37      1.0000 0.55020  0.40640  0.65830  Biso   1.000  H
  H38      1.0000 0.64610  0.94760  0.99030  Biso   1.000  H
  H39      1.0000 0.55330  0.96480  0.00070  Biso   1.000  H
  H40      1.0000 0.65230  0.01400  0.02770  Biso   1.000  H
  H41      1.0000 0.71960  0.89620  0.29070  Biso   1.000  H
  H42      1.0000 0.64240  0.83080  0.25770  Biso   1.000  H
  H43      1.0000 0.70770  0.90940  0.24140  Biso   1.000  H
  H44      1.0000 0.56600  0.40180  0.76330  Biso   1.000  H
  H45      1.0000 0.45860  0.39660  0.76380  Biso   1.000  H
  H46      1.0000 0.54490  0.47320  0.78350  Biso   1.000  H
  H47      1.0000 0.70000  0.06820  0.73640  Biso   1.000  H
  H48      1.0000 0.09870  0.33580  0.60390  Biso   1.000  H
  H49      1.0000 0.66390  0.62640  0.64570  Biso   1.000  H
  H50      1.0000 0.72920  0.05840  0.60330  Biso   1.000  H
  H51      1.0000 0.99600  0.29860  0.74840  Biso   1.000  H
  H52      1.0000 0.84040  0.17960  0.74830  Biso   1.000  H
  H53      1.0000 0.36310  0.59980  0.01460  Biso   1.000  H
  H54      1.0000 0.41400  0.81060  0.81140  Biso   1.000  H
  H55      1.0000 0.35050  0.80560  0.00540  Biso   1.000  H
  H56      1.0000 0.13770  0.40240  0.73680  Biso   1.000  H
  H57      1.0000 0.44190  0.92500  0.75900  Biso   1.000  H
  H58      1.0000 0.88200  0.34080  0.01480  Biso   1.000  H
  H59      1.0000 0.89320  0.32940  0.06450  Biso   1.000  H
  H60      1.0000 0.80910  0.35220  0.04920  Biso   1.000  H
  H61      1.0000 0.41270  0.59260  0.94240  Biso   1.000  H
  H62      1.0000 0.03350  0.57500  0.63850  Biso   1.000  H
  H63      1.0000 0.44790  0.61020  0.78680  Biso   1.000  H
  H64      1.0000 0.44250  0.59620  0.86180  Biso   1.000  H
  H65      1.0000 0.22110  0.79960  0.65510  Biso   1.000  H
  H66      1.0000 0.44450  0.96140  0.58230  Biso   1.000  H
  H67      1.0000 0.94920  0.52160  0.02090  Biso   1.000  H
  H68      1.0000 0.84160  0.46600  0.02730  Biso   1.000  H
  H69      1.0000 0.90290  0.52700  0.06680  Biso   1.000  H
  H70      1.0000 0.09220  0.83820  0.65610  Biso   1.000  H
  H71      1.0000 0.05980  0.50600  0.22920  Biso   1.000  H
  H72      1.0000 0.78360  0.85940  0.66250  Biso   1.000  H
  H73      1.0000 0.28890  0.95200  0.83960  Biso   1.000  H
  H74      1.0000 0.39160  0.00380  0.82430  Biso   1.000  H
  H75      1.0000 0.37370  0.92300  0.83880  Biso   1.000  H
  H76      1.0000 0.93800  0.85940  0.66180  Biso   1.000  H
  H77      1.0000 0.19510  0.84640  0.51440  Biso   1.000  H
  H78      1.0000 0.18980  0.85100  0.56620  Biso   1.000  H
  H79      1.0000 0.23470  0.79720  0.54040  Biso   1.000  H
  H80      1.0000 0.04550  0.42240  0.08110  Biso   1.000  H
  H81      1.0000 0.78360  0.40840  0.19520  Biso   1.000  H
  H82      1.0000 0.84340  0.48320  0.17410  Biso   1.000  H
  H83      1.0000 0.85620  0.40640  0.15830  Biso   1.000  H
  H84      1.0000 0.30150  0.94760  0.49030  Biso   1.000  H
  H85      1.0000 0.41150  0.96480  0.50070  Biso   1.000  H
  H86      1.0000 0.36170  0.01400  0.52770  Biso   1.000  H
  H87      1.0000 0.17660  0.89620  0.79070  Biso   1.000  H
  H88      1.0000 0.18840  0.83080  0.75770  Biso   1.000  H
  H89      1.0000 0.20170  0.90940  0.74140  Biso   1.000  H
  H90      1.0000 0.83580  0.40180  0.26330  Biso   1.000  H
  H91      1.0000 0.93800  0.39660  0.26380  Biso   1.000  H
  H92      1.0000 0.92830  0.47320  0.28350  Biso   1.000  H
  C1       1.0000 0.35426  0.08872  0.21221  Biso   1.000  C
  C2       1.0000 0.36897  0.97894  0.16237  Biso   1.000  C
  C3       1.0000 0.25062  0.32904  0.13266  Biso   1.000  C
  C4       1.0000 0.27514  0.69248  0.38105  Biso   1.000  C
  C5       1.0000 0.28960  0.69080  0.42914  Biso   1.000  C
  C6       1.0000 0.31583  0.18606  0.18316  Biso   1.000  C
  C7       1.0000 0.95522  0.67304  0.14882  Biso   1.000  C
  C8       1.0000 0.35122  0.05144  0.16905  Biso   1.000  C
  C9       1.0000 0.54239  0.68298  0.14795  Biso   1.000  C
  C10      1.0000 0.33100  0.08200  0.13213  Biso   1.000  C
  C11      1.0000 0.35256  0.70192  0.51720  Biso   1.000  C
  C12      1.0000 0.27988  0.71136  0.29139  Biso   1.000  C
  C13      1.0000 0.28108  0.71696  0.24240  Biso   1.000  C
  C14      1.0000 0.21971  0.44602  0.16273  Biso   1.000  C
  C15      1.0000 0.38812  0.70184  0.56315  Biso   1.000  C
  C16      1.0000 0.29011  0.30622  0.21972  Biso   1.000  C
  C17      1.0000 0.31401  0.14862  0.14040  Biso   1.000  C
  C18      1.0000 0.13834  0.74768  0.15264  Biso   1.000  C
  C19      1.0000 0.03536  0.74212  0.15354  Biso   1.000  C
  C20      1.0000 0.33684  0.15548  0.21953  Biso   1.000  C
  C21      1.0000 0.26988  0.63896  0.49775  Biso   1.000  C
  C22      1.0000 0.34927  0.76714  0.32097  Biso   1.000  C
  C23      1.0000 0.24650  0.37960  0.16950  Biso   1.000  C
  C24      1.0000 0.37111  0.75362  0.44848  Biso   1.000  C
  C25      1.0000 0.86253  0.67506  0.14882  Biso   1.000  C
  C26      1.0000 0.68268  0.65356  0.14475  Biso   1.000  C
  C27      1.0000 0.43467  0.66026  0.14909  Biso   1.000  C
  C28      1.0000 0.34576  0.75592  0.36532  Biso   1.000  C
  C29      1.0000 0.40272  0.76184  0.49273  Biso   1.000  C
  C30      1.0000 0.26688  0.36816  0.21266  Biso   1.000  C
  C31      1.0000 0.53097  0.90774  0.24948  Biso   1.000  C
  C32      1.0000 0.48320  0.35860  0.54500  Biso   1.000  C
  C33      1.0000 0.23631  0.63342  0.45431  Biso   1.000  C
  C34      1.0000 0.29460  0.25580  0.18344  Biso   1.000  C
  C35      1.0000 0.27527  0.26874  0.14061  Biso   1.000  C
  C36      1.0000 0.58110  0.62720  0.14290  Biso   1.000  C
  C37      1.0000 0.20824  0.64748  0.30709  Biso   1.000  C
  C38      1.0000 0.74469  0.73118  0.15081  Biso   1.000  C
  C39      1.0000 0.20331  0.63782  0.35180  Biso   1.000  C
  C40      1.0000 0.84957  0.74414  0.15331  Biso   1.000  C
  C41      1.0000 0.60525  0.76270  0.15260  Biso   1.000  C
  C42      1.0000 0.53707  0.92074  0.08097  Biso   1.000  C
  C43      1.0000 0.58710  0.49260  0.54150  Biso   1.000  C
  C44      1.0000 0.70556  0.78612  0.15360  Biso   1.000  C
  C45      1.0000 0.48529  0.49738  0.70716  Biso   1.000  C
  C46      1.0000 0.02174  0.81288  0.15880  Biso   1.000  C
  C47      1.0000 0.60688  0.95176  0.32419  Biso   1.000  C
  C48      1.0000 0.92957  0.81314  0.15850  Biso   1.000  C
  C49      1.0000 0.61770  0.84520  0.04140  Biso   1.000  C
  C50      1.0000 0.43387  0.46074  0.57360  Biso   1.000  C
  C51      1.0000 0.59230  0.43720  0.68330  Biso   1.000  C
  C52      1.0000 0.61150  0.96360  0.01340  Biso   1.000  C
  C53      1.0000 0.67390  0.88560  0.26610  Biso   1.000  C
  C54      1.0000 0.52540  0.42980  0.76070  Biso   1.000  C
  C55      1.0000 0.73446  0.08872  0.71221  Biso   1.000  C
  C56      1.0000 0.60997  0.97894  0.66237  Biso   1.000  C
  C57      1.0000 0.07842  0.32904  0.63266  Biso   1.000  C
  C58      1.0000 0.41734  0.69248  0.88105  Biso   1.000  C
  C59      1.0000 0.40120  0.69080  0.92914  Biso   1.000  C
  C60      1.0000 0.87023  0.18606  0.68316  Biso   1.000  C
  C61      1.0000 0.71782  0.67304  0.64882  Biso   1.000  C
  C62      1.0000 0.70022  0.05144  0.66905  Biso   1.000  C
  C63      1.0000 0.14059  0.68298  0.64795  Biso   1.000  C
  C64      1.0000 0.75100  0.08200  0.63213  Biso   1.000  C
  C65      1.0000 0.34936  0.70192  0.01720  Biso   1.000  C
  C66      1.0000 0.43148  0.71136  0.79139  Biso   1.000  C
  C67      1.0000 0.43588  0.71696  0.74240  Biso   1.000  C
  C68      1.0000 0.22631  0.44602  0.66273  Biso   1.000  C
  C69      1.0000 0.31372  0.70184  0.06315  Biso   1.000  C
  C70      1.0000 0.01611  0.30622  0.71972  Biso   1.000  C
  C71      1.0000 0.83461  0.14862  0.64040  Biso   1.000  C
  C72      1.0000 0.60934  0.74768  0.65264  Biso   1.000  C
  C73      1.0000 0.70676  0.74212  0.65354  Biso   1.000  C
  C74      1.0000 0.81864  0.15548  0.71953  Biso   1.000  C
  C75      1.0000 0.36908  0.63896  0.99775  Biso   1.000  C
  C76      1.0000 0.41787  0.76714  0.82097  Biso   1.000  C
  C77      1.0000 0.13310  0.37960  0.66950  Biso   1.000  C
  C78      1.0000 0.38251  0.75362  0.94848  Biso   1.000  C
  C79      1.0000 0.81253  0.67506  0.64882  Biso   1.000  C
  C80      1.0000 0.97088  0.65356  0.64475  Biso   1.000  C
  C81      1.0000 0.22559  0.66026  0.64909  Biso   1.000  C
  C82      1.0000 0.41016  0.75592  0.86532  Biso   1.000  C
  C83      1.0000 0.35912  0.76184  0.99273  Biso   1.000  C
  C84      1.0000 0.10128  0.36816  0.71266  Biso   1.000  C
  C85      1.0000 0.37677  0.90774  0.74948  Biso   1.000  C
  C86      1.0000 0.87540  0.35860  0.04500  Biso   1.000  C
  C87      1.0000 0.39711  0.63342  0.95431  Biso   1.000  C
  C88      1.0000 0.96120  0.25580  0.68344  Biso   1.000  C
  C89      1.0000 0.99347  0.26874  0.64061  Biso   1.000  C
  C90      1.0000 0.04610  0.62720  0.64290  Biso   1.000  C
  C91      1.0000 0.43924  0.64748  0.80709  Biso   1.000  C
  C92      1.0000 0.98649  0.73118  0.65081  Biso   1.000  C
  C93      1.0000 0.43451  0.63782  0.85180  Biso   1.000  C
  C94      1.0000 0.89457  0.74414  0.65331  Biso   1.000  C
  C95      1.0000 0.15745  0.76270  0.65260  Biso   1.000  C
  C96      1.0000 0.38367  0.92074  0.58097  Biso   1.000  C
  C97      1.0000 0.90550  0.49260  0.04150  Biso   1.000  C
  C98      1.0000 0.08056  0.78612  0.65360  Biso   1.000  C
  C99      1.0000 0.01209  0.49738  0.20716  Biso   1.000  C
  C100     1.0000 0.79114  0.81288  0.65880  Biso   1.000  C
  C101     1.0000 0.34488  0.95176  0.82419  Biso   1.000  C
  C102     1.0000 0.88357  0.81314  0.65850  Biso   1.000  C
  C103     1.0000 0.22750  0.84520  0.54140  Biso   1.000  C
  C104     1.0000 0.02687  0.46074  0.07360  Biso   1.000  C
  C105     1.0000 0.84490  0.43720  0.18330  Biso   1.000  C
  C106     1.0000 0.35210  0.96360  0.51340  Biso   1.000  C
  C107     1.0000 0.21170  0.88560  0.76610  Biso   1.000  C
  C108     1.0000 0.90440  0.42980  0.26070  Biso   1.000  C
  S1       1.0000 0.28365  0.19678  0.09991  Biso   1.000  S
  S2       1.0000 0.74928  0.59476  0.14411  Biso   1.000  S
  S3       1.0000 0.43122  0.81478  0.40873  Biso   1.000  S
  S4       1.0000 0.91313  0.19678  0.59991  Biso   1.000  S
  S5       1.0000 0.84548  0.59476  0.64411  Biso   1.000  S
  S6       1.0000 0.38356  0.81478  0.90873  Biso   1.000  S
  N1       1.0000 0.58497  0.90814  0.04656  Biso   1.000  N
  N2       1.0000 0.60071  0.91622  0.27884  Biso   1.000  N
  N3       1.0000 0.50070  0.43940  0.55510  Biso   1.000  N
  N4       1.0000 0.53568  0.45716  0.71680  Biso   1.000  N
  N5       1.0000 0.32317  0.90814  0.54656  Biso   1.000  N
  N6       1.0000 0.31551  0.91622  0.77884  Biso   1.000  N
  N7       1.0000 0.93870  0.43940  0.05510  Biso   1.000  N
  N8       1.0000 0.92148  0.45716  0.21680  Biso   1.000  N
  O1       1.0000 0.39360  0.95688  0.19663  Biso   1.000  O
  O2       1.0000 0.32912  0.78124  0.22997  Biso   1.000  O
  O3       1.0000 0.52412  0.87830  0.20993  Biso   1.000  O
  O4       1.0000 0.44628  0.76516  0.58372  Biso   1.000  O
  O5       1.0000 0.35739  0.63738  0.57717  Biso   1.000  O
  O6       1.0000 0.35817  0.94190  0.12424  Biso   1.000  O
  O7       1.0000 0.19869  0.45276  0.12314  Biso   1.000  O
  O8       1.0000 0.23376  0.65512  0.21763  Biso   1.000  O
  O9       1.0000 0.40153  0.71238  0.15460  Biso   1.000  O
  O10      1.0000 0.22033  0.49226  0.19543  Biso   1.000  O
  O11      1.0000 0.36288  0.22756  0.07152  Biso   1.000  O
  O12      1.0000 0.20555  0.81222  0.16304  Biso   1.000  O
  O13      1.0000 0.51763  0.87946  0.11229  Biso   1.000  O
  O14      1.0000 0.37948  0.59042  0.14585  Biso   1.000  O
  O15      1.0000 0.14882  0.68564  0.14052  Biso   1.000  O
  O16      1.0000 0.19033  0.15006  0.07854  Biso   1.000  O
  O17      1.0000 0.73736  0.54732  0.10227  Biso   1.000  O
  O18      1.0000 0.52479  0.81318  0.40140  Biso   1.000  O
  O19      1.0000 0.42759  0.88938  0.41807  Biso   1.000  O
  O20      1.0000 0.73337  0.55674  0.18312  Biso   1.000  O
  O21      1.0000 0.44137  0.52634  0.58127  Biso   1.000  O
  O22      1.0000 0.48350  0.52440  0.67322  Biso   1.000  O
  O23      1.0000 0.56328  0.95688  0.69663  Biso   1.000  O
  O24      1.0000 0.45212  0.78124  0.72997  Biso   1.000  O
  O25      1.0000 0.35418  0.87830  0.70993  Biso   1.000  O
  O26      1.0000 0.31888  0.76516  0.08372  Biso   1.000  O
  O27      1.0000 0.27999  0.63738  0.07717  Biso   1.000  O
  O28      1.0000 0.58373  0.94190  0.62424  Biso   1.000  O
  O29      1.0000 0.25407  0.45276  0.62314  Biso   1.000  O
  O30      1.0000 0.42136  0.65512  0.71763  Biso   1.000  O
  O31      1.0000 0.31085  0.71238  0.65460  Biso   1.000  O
  O32      1.0000 0.27193  0.49226  0.69543  Biso   1.000  O
  O33      1.0000 0.86468  0.22756  0.57152  Biso   1.000  O
  O34      1.0000 0.60667  0.81222  0.66304  Biso   1.000  O
  O35      1.0000 0.36183  0.87946  0.61229  Biso   1.000  O
  O36      1.0000 0.21094  0.59042  0.64585  Biso   1.000  O
  O37      1.0000 0.53682  0.68564  0.64052  Biso   1.000  O
  O38      1.0000 0.95973  0.15006  0.57854  Biso   1.000  O
  O39      1.0000 0.80996  0.54732  0.60227  Biso   1.000  O
  O40      1.0000 0.28839  0.81318  0.90140  Biso   1.000  O
  O41      1.0000 0.46179  0.88938  0.91807  Biso   1.000  O
  O42      1.0000 0.82337  0.55674  0.68312  Biso   1.000  O
  O43      1.0000 0.08497  0.52634  0.08127  Biso   1.000  O
  O44      1.0000 0.04090  0.52440  0.17322  Biso   1.000  O
  Pr5      1.0000 0.54615  0.17039  0.34165  Biso   1.000  Pr
  Pr6      1.0000 0.79206  0.41358  0.85550  Biso   1.000  Pr
  Pr7      1.0000 0.62424  0.17039  0.84165  Biso   1.000  Pr
  Pr8      1.0000 0.62152  0.41358  0.35550  Biso   1.000  Pr
  H93      1.0000 0.30000  0.93180  0.26360  Biso   1.000  H
  H94      1.0000 0.90130  0.66420  0.39610  Biso   1.000  H
  H95      1.0000 0.33610  0.37360  0.35430  Biso   1.000  H
  H96      1.0000 0.27080  0.94160  0.39670  Biso   1.000  H
  H97      1.0000 0.00400  0.70140  0.25160  Biso   1.000  H
  H98      1.0000 0.15960  0.82040  0.25170  Biso   1.000  H
  H99      1.0000 0.63690  0.40020  0.98540  Biso   1.000  H
  H100     1.0000 0.58600  0.18940  0.18860  Biso   1.000  H
  H101     1.0000 0.64950  0.19440  0.99460  Biso   1.000  H
  H102     1.0000 0.86230  0.59760  0.26320  Biso   1.000  H
  H103     1.0000 0.55810  0.07500  0.24100  Biso   1.000  H
  H104     1.0000 0.11800  0.65920  0.98520  Biso   1.000  H
  H105     1.0000 0.10680  0.67060  0.93550  Biso   1.000  H
  H106     1.0000 0.19090  0.64780  0.95080  Biso   1.000  H
  H107     1.0000 0.58730  0.40740  0.05760  Biso   1.000  H
  H108     1.0000 0.96650  0.42500  0.36150  Biso   1.000  H
  H109     1.0000 0.55210  0.38980  0.21320  Biso   1.000  H
  H110     1.0000 0.55750  0.40380  0.13820  Biso   1.000  H
  H111     1.0000 0.77890  0.20040  0.34490  Biso   1.000  H
  H112     1.0000 0.55550  0.03860  0.41770  Biso   1.000  H
  H113     1.0000 0.05080  0.47840  0.97910  Biso   1.000  H
  H114     1.0000 0.15840  0.53400  0.97270  Biso   1.000  H
  H115     1.0000 0.09710  0.47300  0.93320  Biso   1.000  H
  H116     1.0000 0.90780  0.16180  0.34390  Biso   1.000  H
  H117     1.0000 0.94020  0.49400  0.77080  Biso   1.000  H
  H118     1.0000 0.21640  0.14060  0.33750  Biso   1.000  H
  H119     1.0000 0.71110  0.04800  0.16040  Biso   1.000  H
  H120     1.0000 0.60840  0.99620  0.17570  Biso   1.000  H
  H121     1.0000 0.62630  0.07700  0.16120  Biso   1.000  H
  H122     1.0000 0.06200  0.14060  0.33820  Biso   1.000  H
  H123     1.0000 0.80490  0.15360  0.48560  Biso   1.000  H
  H124     1.0000 0.81020  0.14900  0.43380  Biso   1.000  H
  H125     1.0000 0.76530  0.20280  0.45960  Biso   1.000  H
  H126     1.0000 0.95450  0.57760  0.91890  Biso   1.000  H
  H127     1.0000 0.21640  0.59160  0.80480  Biso   1.000  H
  H128     1.0000 0.15660  0.51680  0.82590  Biso   1.000  H
  H129     1.0000 0.14380  0.59360  0.84170  Biso   1.000  H
  H130     1.0000 0.69850  0.05240  0.50970  Biso   1.000  H
  H131     1.0000 0.58850  0.03520  0.49930  Biso   1.000  H
  H132     1.0000 0.63830  0.98600  0.47230  Biso   1.000  H
  H133     1.0000 0.82340  0.10380  0.20930  Biso   1.000  H
  H134     1.0000 0.81160  0.16920  0.24230  Biso   1.000  H
  H135     1.0000 0.79830  0.09060  0.25860  Biso   1.000  H
  H136     1.0000 0.16420  0.59820  0.73670  Biso   1.000  H
  H137     1.0000 0.06200  0.60340  0.73620  Biso   1.000  H
  H138     1.0000 0.07170  0.52680  0.71650  Biso   1.000  H
  H139     1.0000 0.63180  0.93180  0.76360  Biso   1.000  H
  H140     1.0000 0.76290  0.66420  0.89610  Biso   1.000  H
  H141     1.0000 0.03750  0.37360  0.85430  Biso   1.000  H
  H142     1.0000 0.67080  0.94160  0.89670  Biso   1.000  H
  H143     1.0000 0.69740  0.70140  0.75160  Biso   1.000  H
  H144     1.0000 0.66080  0.82040  0.75170  Biso   1.000  H
  H145     1.0000 0.76330  0.40020  0.48540  Biso   1.000  H
  H146     1.0000 0.60340  0.18940  0.68860  Biso   1.000  H
  H147     1.0000 0.54490  0.19440  0.49460  Biso   1.000  H
  H148     1.0000 0.73530  0.59760  0.76320  Biso   1.000  H
  H149     1.0000 0.51690  0.07500  0.74100  Biso   1.000  H
  H150     1.0000 0.54120  0.65920  0.48520  Biso   1.000  H
  H151     1.0000 0.56380  0.67060  0.43550  Biso   1.000  H
  H152     1.0000 0.45690  0.64780  0.45080  Biso   1.000  H
  H153     1.0000 0.82010  0.40740  0.55760  Biso   1.000  H
  H154     1.0000 0.45850  0.42500  0.86150  Biso   1.000  H
  H155     1.0000 0.83770  0.38980  0.71320  Biso   1.000  H
  H156     1.0000 0.84630  0.40380  0.63820  Biso   1.000  H
  H157     1.0000 0.42150  0.20040  0.84490  Biso   1.000  H
  H158     1.0000 0.48310  0.03860  0.91770  Biso   1.000  H
  H159     1.0000 0.42760  0.47840  0.47910  Biso   1.000  H
  H160     1.0000 0.37560  0.53400  0.47270  Biso   1.000  H
  H161     1.0000 0.37590  0.47300  0.43320  Biso   1.000  H
  H162     1.0000 0.25400  0.16180  0.84390  Biso   1.000  H
  H163     1.0000 0.55380  0.49400  0.27080  Biso   1.000  H
  H164     1.0000 0.92420  0.14060  0.83750  Biso   1.000  H
  H165     1.0000 0.33690  0.04800  0.66040  Biso   1.000  H
  H166     1.0000 0.38780  0.99620  0.67570  Biso   1.000  H
  H167     1.0000 0.45070  0.07700  0.66120  Biso   1.000  H
  H168     1.0000 0.07860  0.14060  0.83820  Biso   1.000  H
  H169     1.0000 0.34870  0.15360  0.98560  Biso   1.000  H
  H170     1.0000 0.33880  0.14900  0.93380  Biso   1.000  H
  H171     1.0000 0.43750  0.20280  0.95960  Biso   1.000  H
  H172     1.0000 0.62310  0.57760  0.41890  Biso   1.000  H
  H173     1.0000 0.37520  0.59160  0.30480  Biso   1.000  H
  H174     1.0000 0.36020  0.51680  0.32590  Biso   1.000  H
  H175     1.0000 0.44980  0.59360  0.34170  Biso   1.000  H
  H176     1.0000 0.35390  0.05240  0.00970  Biso   1.000  H
  H177     1.0000 0.44670  0.03520  0.99930  Biso   1.000  H
  H178     1.0000 0.34770  0.98600  0.97230  Biso   1.000  H
  H179     1.0000 0.28040  0.10380  0.70930  Biso   1.000  H
  H180     1.0000 0.35760  0.16920  0.74230  Biso   1.000  H
  H181     1.0000 0.29230  0.09060  0.75860  Biso   1.000  H
  H182     1.0000 0.43400  0.59820  0.23670  Biso   1.000  H
  H183     1.0000 0.54140  0.60340  0.23620  Biso   1.000  H
  H184     1.0000 0.45510  0.52680  0.21650  Biso   1.000  H
  C109     1.0000 0.26554  0.91128  0.28779  Biso   1.000  C
  C110     1.0000 0.39003  0.02106  0.33763  Biso   1.000  C
  C111     1.0000 0.92158  0.67096  0.36734  Biso   1.000  C
  C112     1.0000 0.58266  0.30752  0.11895  Biso   1.000  C
  C113     1.0000 0.59880  0.30920  0.07086  Biso   1.000  C
  C114     1.0000 0.12977  0.81394  0.31684  Biso   1.000  C
  C115     1.0000 0.28218  0.32696  0.35118  Biso   1.000  C
  C116     1.0000 0.29978  0.94856  0.33095  Biso   1.000  C
  C117     1.0000 0.85941  0.31702  0.35205  Biso   1.000  C
  C118     1.0000 0.24900  0.91800  0.36787  Biso   1.000  C
  C119     1.0000 0.65064  0.29808  0.98280  Biso   1.000  C
  C120     1.0000 0.56852  0.28864  0.20861  Biso   1.000  C
  C121     1.0000 0.56412  0.28304  0.25760  Biso   1.000  C
  C122     1.0000 0.77369  0.55398  0.33727  Biso   1.000  C
  C123     1.0000 0.68628  0.29816  0.93685  Biso   1.000  C
  C124     1.0000 0.98389  0.69378  0.28028  Biso   1.000  C
  C125     1.0000 0.16539  0.85138  0.35960  Biso   1.000  C
  C126     1.0000 0.39066  0.25232  0.34736  Biso   1.000  C
  C127     1.0000 0.29324  0.25788  0.34646  Biso   1.000  C
  C128     1.0000 0.18136  0.84452  0.28047  Biso   1.000  C
  C129     1.0000 0.63092  0.36104  0.00225  Biso   1.000  C
  C130     1.0000 0.58213  0.23286  0.17903  Biso   1.000  C
  C131     1.0000 0.86690  0.62040  0.33050  Biso   1.000  C
  C132     1.0000 0.61749  0.24638  0.05152  Biso   1.000  C
  C133     1.0000 0.18747  0.32494  0.35118  Biso   1.000  C
  C134     1.0000 0.02912  0.34644  0.35525  Biso   1.000  C
  C135     1.0000 0.77441  0.33974  0.35091  Biso   1.000  C
  C136     1.0000 0.58984  0.24408  0.13468  Biso   1.000  C
  C137     1.0000 0.64088  0.23816  0.00727  Biso   1.000  C
  C138     1.0000 0.89872  0.63184  0.28734  Biso   1.000  C
  C139     1.0000 0.62323  0.09226  0.25052  Biso   1.000  C
  C140     1.0000 0.12460  0.64140  0.95500  Biso   1.000  C
  C141     1.0000 0.60289  0.36658  0.04569  Biso   1.000  C
  C142     1.0000 0.03880  0.74420  0.31656  Biso   1.000  C
  C143     1.0000 0.00653  0.73126  0.35939  Biso   1.000  C
  C144     1.0000 0.95390  0.37280  0.35710  Biso   1.000  C
  C145     1.0000 0.56076  0.35252  0.19291  Biso   1.000  C
  C146     1.0000 0.01351  0.26882  0.34919  Biso   1.000  C
  C147     1.0000 0.56549  0.36218  0.14820  Biso   1.000  C
  C148     1.0000 0.10543  0.25586  0.34669  Biso   1.000  C
  C149     1.0000 0.84255  0.23730  0.34740  Biso   1.000  C
  C150     1.0000 0.61633  0.07926  0.41903  Biso   1.000  C
  C151     1.0000 0.09450  0.50740  0.95850  Biso   1.000  C
  C152     1.0000 0.91944  0.21388  0.34640  Biso   1.000  C
  C153     1.0000 0.98791  0.50262  0.79284  Biso   1.000  C
  C154     1.0000 0.20886  0.18712  0.34120  Biso   1.000  C
  C155     1.0000 0.65512  0.04824  0.17581  Biso   1.000  C
  C156     1.0000 0.11643  0.18686  0.34150  Biso   1.000  C
  C157     1.0000 0.77250  0.15480  0.45860  Biso   1.000  C
  C158     1.0000 0.97313  0.53926  0.92640  Biso   1.000  C
  C159     1.0000 0.15510  0.56280  0.81670  Biso   1.000  C
  C160     1.0000 0.64790  0.03640  0.48660  Biso   1.000  C
  C161     1.0000 0.78830  0.11440  0.23390  Biso   1.000  C
  C162     1.0000 0.09560  0.57020  0.73930  Biso   1.000  C
  C163     1.0000 0.64574  0.91128  0.78779  Biso   1.000  C
  C164     1.0000 0.63103  0.02106  0.83763  Biso   1.000  C
  C165     1.0000 0.74938  0.67096  0.86734  Biso   1.000  C
  C166     1.0000 0.72486  0.30752  0.61895  Biso   1.000  C
  C167     1.0000 0.71040  0.30920  0.57086  Biso   1.000  C
  C168     1.0000 0.68417  0.81394  0.81684  Biso   1.000  C
  C169     1.0000 0.04478  0.32696  0.85118  Biso   1.000  C
  C170     1.0000 0.64878  0.94856  0.83095  Biso   1.000  C
  C171     1.0000 0.45761  0.31702  0.85205  Biso   1.000  C
  C172     1.0000 0.66900  0.91800  0.86787  Biso   1.000  C
  C173     1.0000 0.64744  0.29808  0.48280  Biso   1.000  C
  C174     1.0000 0.72012  0.28864  0.70861  Biso   1.000  C
  C175     1.0000 0.71892  0.28304  0.75760  Biso   1.000  C
  C176     1.0000 0.78029  0.55398  0.83727  Biso   1.000  C
  C177     1.0000 0.61188  0.29816  0.43685  Biso   1.000  C
  C178     1.0000 0.70989  0.69378  0.78028  Biso   1.000  C
  C179     1.0000 0.68599  0.85138  0.85960  Biso   1.000  C
  C180     1.0000 0.86166  0.25232  0.84736  Biso   1.000  C
  C181     1.0000 0.96464  0.25788  0.84646  Biso   1.000  C
  C182     1.0000 0.66316  0.84452  0.78047  Biso   1.000  C
  C183     1.0000 0.73012  0.36104  0.50225  Biso   1.000  C
  C184     1.0000 0.65073  0.23286  0.67903  Biso   1.000  C
  C185     1.0000 0.75350  0.62040  0.83050  Biso   1.000  C
  C186     1.0000 0.62889  0.24638  0.55152  Biso   1.000  C
  C187     1.0000 0.13747  0.32494  0.85118  Biso   1.000  C
  C188     1.0000 0.31732  0.34644  0.85525  Biso   1.000  C
  C189     1.0000 0.56533  0.33974  0.85091  Biso   1.000  C
  C190     1.0000 0.65424  0.24408  0.63468  Biso   1.000  C
  C191     1.0000 0.59728  0.23816  0.50727  Biso   1.000  C
  C192     1.0000 0.73312  0.63184  0.78734  Biso   1.000  C
  C193     1.0000 0.46903  0.09226  0.75052  Biso   1.000  C
  C194     1.0000 0.51680  0.64140  0.45500  Biso   1.000  C
  C195     1.0000 0.76369  0.36658  0.54569  Biso   1.000  C
  C196     1.0000 0.70540  0.74420  0.81656  Biso   1.000  C
  C197     1.0000 0.72473  0.73126  0.85939  Biso   1.000  C
  C198     1.0000 0.41890  0.37280  0.85710  Biso   1.000  C
  C199     1.0000 0.79176  0.35252  0.69291  Biso   1.000  C
  C200     1.0000 0.25531  0.26882  0.84919  Biso   1.000  C
  C201     1.0000 0.79669  0.36218  0.64820  Biso   1.000  C
  C202     1.0000 0.15043  0.25586  0.84669  Biso   1.000  C
  C203     1.0000 0.39475  0.23730  0.84740  Biso   1.000  C
  C204     1.0000 0.46293  0.07926  0.91903  Biso   1.000  C
  C205     1.0000 0.41290  0.50740  0.45850  Biso   1.000  C
  C206     1.0000 0.29444  0.21388  0.84640  Biso   1.000  C
  C207     1.0000 0.51471  0.50262  0.29284  Biso   1.000  C
  C208     1.0000 0.97826  0.18712  0.84120  Biso   1.000  C
  C209     1.0000 0.39312  0.04824  0.67581  Biso   1.000  C
  C210     1.0000 0.07043  0.18686  0.84150  Biso   1.000  C
  C211     1.0000 0.38230  0.15480  0.95860  Biso   1.000  C
  C212     1.0000 0.56613  0.53926  0.42640  Biso   1.000  C
  C213     1.0000 0.40770  0.56280  0.31670  Biso   1.000  C
  C214     1.0000 0.38850  0.03640  0.98660  Biso   1.000  C
  C215     1.0000 0.32610  0.11440  0.73390  Biso   1.000  C
  C216     1.0000 0.47460  0.57020  0.23930  Biso   1.000  C
  S7       1.0000 0.08687  0.80322  0.40009  Biso   1.000  S
  S8       1.0000 0.15452  0.40524  0.35589  Biso   1.000  S
  S9       1.0000 0.61644  0.18522  0.09127  Biso   1.000  S
  S10      1.0000 0.71635  0.80322  0.90009  Biso   1.000  S
  S11      1.0000 0.25072  0.40524  0.85589  Biso   1.000  S
  S12      1.0000 0.56878  0.18522  0.59127  Biso   1.000  S
  N9       1.0000 0.67683  0.09186  0.45344  Biso   1.000  N
  N10      1.0000 0.68449  0.08378  0.22116  Biso   1.000  N
  N11      1.0000 0.06130  0.56060  0.94490  Biso   1.000  N
  N12      1.0000 0.07852  0.54284  0.78320  Biso   1.000  N
  N13      1.0000 0.41503  0.09186  0.95344  Biso   1.000  N
  N14      1.0000 0.39929  0.08378  0.72116  Biso   1.000  N
  N15      1.0000 0.49930  0.56060  0.44490  Biso   1.000  N
  N16      1.0000 0.46432  0.54284  0.28320  Biso   1.000  N
  O45      1.0000 0.43672  0.04312  0.30337  Biso   1.000  O
  O46      1.0000 0.54788  0.21876  0.27003  Biso   1.000  O
  O47      1.0000 0.64582  0.12170  0.29007  Biso   1.000  O
  O48      1.0000 0.68112  0.23484  0.91628  Biso   1.000  O
  O49      1.0000 0.72001  0.36262  0.92283  Biso   1.000  O
  O50      1.0000 0.41627  0.05810  0.37576  Biso   1.000  O
  O51      1.0000 0.74593  0.54724  0.37686  Biso   1.000  O
  O52      1.0000 0.57864  0.34488  0.28237  Biso   1.000  O
  O53      1.0000 0.68915  0.28762  0.34540  Biso   1.000  O
  O54      1.0000 0.72807  0.50774  0.30457  Biso   1.000  O
  O55      1.0000 0.13532  0.77244  0.42848  Biso   1.000  O
  O56      1.0000 0.39333  0.18778  0.33696  Biso   1.000  O
  O57      1.0000 0.63817  0.12054  0.38771  Biso   1.000  O
  O58      1.0000 0.78906  0.40958  0.35415  Biso   1.000  O
  O59      1.0000 0.46318  0.31436  0.35948  Biso   1.000  O
  O60      1.0000 0.04027  0.84994  0.42146  Biso   1.000  O
  O61      1.0000 0.19004  0.45268  0.39773  Biso   1.000  O
  O62      1.0000 0.71161  0.18682  0.09860  Biso   1.000  O
  O63      1.0000 0.53821  0.11062  0.08193  Biso   1.000  O
  O64      1.0000 0.17663  0.44326  0.31688  Biso   1.000  O
  O65      1.0000 0.91503  0.47366  0.91873  Biso   1.000  O
  O66      1.0000 0.95910  0.47560  0.82678  Biso   1.000  O
  O67      1.0000 0.60640  0.04312  0.80337  Biso   1.000  O
  O68      1.0000 0.67088  0.21876  0.77003  Biso   1.000  O
  O69      1.0000 0.47588  0.12170  0.79007  Biso   1.000  O
  O70      1.0000 0.55372  0.23484  0.41628  Biso   1.000  O
  O71      1.0000 0.64261  0.36262  0.42283  Biso   1.000  O
  O72      1.0000 0.64183  0.05810  0.87576  Biso   1.000  O
  O73      1.0000 0.80131  0.54724  0.87686  Biso   1.000  O
  O74      1.0000 0.76624  0.34488  0.78237  Biso   1.000  O
  O75      1.0000 0.59847  0.28762  0.84540  Biso   1.000  O
  O76      1.0000 0.77967  0.50774  0.80457  Biso   1.000  O
  O77      1.0000 0.63712  0.77244  0.92848  Biso   1.000  O
  O78      1.0000 0.79445  0.18778  0.83696  Biso   1.000  O
  O79      1.0000 0.48237  0.12054  0.88771  Biso   1.000  O
  O80      1.0000 0.62052  0.40958  0.85415  Biso   1.000  O
  O81      1.0000 0.85118  0.31436  0.85948  Biso   1.000  O
  O82      1.0000 0.80967  0.84994  0.92146  Biso   1.000  O
  O83      1.0000 0.26264  0.45268  0.89773  Biso   1.000  O
  O84      1.0000 0.47521  0.18682  0.59860  Biso   1.000  O
  O85      1.0000 0.57241  0.11062  0.58193  Biso   1.000  O
  O86      1.0000 0.26663  0.44326  0.81688  Biso   1.000  O
  O87      1.0000 0.55863  0.47366  0.41873  Biso   1.000  O
  O88      1.0000 0.51650  0.47560  0.32678  Biso   1.000  O
