data_image0
_cell_length_a       16.7853
_cell_length_b       19.5011
_cell_length_c       24.295
_cell_angle_alpha    112.891
_cell_angle_beta     90
_cell_angle_gamma    90

_symmetry_space_group_name_H-M    P 1
_symmetry_int_tables_number       1

loop_
  _symmetry_equiv_pos_as_xyz
  'x, y, z'

loop_
  _atom_site_label
  _atom_site_occupancy
  _atom_site_fract_x
  _atom_site_fract_y
  _atom_site_fract_z
  _atom_site_thermal_displace_type
  _atom_site_B_iso_or_equiv
  _atom_site_type_symbol
  La1      1.0000 0.51580  0.88680  0.96851  Biso   1.000  La
  La2      1.0000 0.52195  0.61755  0.01912  Biso   1.000  La
  La3      1.0000 0.01580  0.61320  0.53149  Biso   1.000  La
  La4      1.0000 0.02195  0.88244  0.48088  Biso   1.000  La
  La5      1.0000 0.48420  0.11320  0.03149  Biso   1.000  La
  La6      1.0000 0.47805  0.38244  0.98088  Biso   1.000  La
  La7      1.0000 0.98420  0.38680  0.46851  Biso   1.000  La
  La8      1.0000 0.97805  0.11755  0.51912  Biso   1.000  La
  H1       1.0000 0.55910  0.82320  0.30400  Biso   1.000  H
  H2       1.0000 0.52950  0.84510  0.25180  Biso   1.000  H
  H3       1.0000 0.62030  0.83050  0.25780  Biso   1.000  H
  H4       1.0000 0.70320  0.74710  0.09060  Biso   1.000  H
  H5       1.0000 0.78560  0.78800  0.10180  Biso   1.000  H
  H6       1.0000 0.76500  0.73470  0.13430  Biso   1.000  H
  H7       1.0000 0.85920  0.92110  0.01660  Biso   1.000  H
  H8       1.0000 0.77830  0.92250  0.04920  Biso   1.000  H
  H9       1.0000 0.78100  0.94690  0.99490  Biso   1.000  H
  H10      1.0000 0.90180  0.69250  0.07730  Biso   1.000  H
  H11      1.0000 0.89910  0.64090  0.00910  Biso   1.000  H
  H12      1.0000 0.87320  0.60970  0.05690  Biso   1.000  H
  H13      1.0000 0.48670  0.53730  0.84000  Biso   1.000  H
  H14      1.0000 0.30770  0.07990  0.32280  Biso   1.000  H
  H15      1.0000 0.39610  0.02620  0.22750  Biso   1.000  H
  H16      1.0000 0.23920  0.15390  0.76350  Biso   1.000  H
  H17      1.0000 0.75330  0.58060  0.98570  Biso   1.000  H
  H18      1.0000 0.53300  0.71880  0.29870  Biso   1.000  H
  H19      1.0000 0.57570  0.65260  0.24820  Biso   1.000  H
  H20      1.0000 0.48500  0.66770  0.24230  Biso   1.000  H
  H21      1.0000 0.42150  0.46790  0.75160  Biso   1.000  H
  H22      1.0000 0.33160  0.41060  0.65730  Biso   1.000  H
  H23      1.0000 0.46450  0.95880  0.14000  Biso   1.000  H
  H24      1.0000 0.21720  0.10490  0.40120  Biso   1.000  H
  H25      1.0000 0.32820  0.86930  0.79450  Biso   1.000  H
  H26      1.0000 0.31540  0.12530  0.84000  Biso   1.000  H
  H27      1.0000 0.39490  0.72720  0.83740  Biso   1.000  H
  H28      1.0000 0.13960  0.93630  0.61330  Biso   1.000  H
  H29      1.0000 0.39740  0.76580  0.15100  Biso   1.000  H
  H30      1.0000 0.16050  0.16020  0.68730  Biso   1.000  H
  H31      1.0000 0.71140  0.76550  0.92130  Biso   1.000  H
  H32      1.0000 0.90180  0.84490  0.96020  Biso   1.000  H
  H33      1.0000 0.85400  0.81950  0.90020  Biso   1.000  H
  H34      1.0000 0.87010  0.76300  0.93040  Biso   1.000  H
  H35      1.0000 0.52680  0.71030  0.67630  Biso   1.000  H
  H36      1.0000 0.51120  0.66960  0.71960  Biso   1.000  H
  H37      1.0000 0.59860  0.68690  0.70640  Biso   1.000  H
  H38      1.0000 0.58380  0.78030  0.16650  Biso   1.000  H
  H39      1.0000 0.50290  0.81980  0.70570  Biso   1.000  H
  H40      1.0000 0.55800  0.87330  0.75640  Biso   1.000  H
  H41      1.0000 0.46960  0.86010  0.77070  Biso   1.000  H
  H42      1.0000 0.24260  0.38080  0.57870  Biso   1.000  H
  H43      1.0000 0.20240  0.88640  0.36930  Biso   1.000  H
  H44      1.0000 0.57630  0.74040  0.82200  Biso   1.000  H
  H45      1.0000 0.38320  0.08090  0.90240  Biso   1.000  H
  H46      1.0000 0.19640  0.59910  0.62140  Biso   1.000  H
  H47      1.0000 0.05910  0.67680  0.19600  Biso   1.000  H
  H48      1.0000 0.02950  0.65490  0.24820  Biso   1.000  H
  H49      1.0000 0.12030  0.66950  0.24220  Biso   1.000  H
  H50      1.0000 0.20320  0.75290  0.40940  Biso   1.000  H
  H51      1.0000 0.28560  0.71200  0.39820  Biso   1.000  H
  H52      1.0000 0.26500  0.76530  0.36570  Biso   1.000  H
  H53      1.0000 0.35920  0.57890  0.48340  Biso   1.000  H
  H54      1.0000 0.27830  0.57750  0.45080  Biso   1.000  H
  H55      1.0000 0.28100  0.55310  0.50510  Biso   1.000  H
  H56      1.0000 0.40180  0.80750  0.42270  Biso   1.000  H
  H57      1.0000 0.39910  0.85910  0.49090  Biso   1.000  H
  H58      1.0000 0.37320  0.89030  0.44310  Biso   1.000  H
  H59      1.0000 0.98670  0.96270  0.66000  Biso   1.000  H
  H60      1.0000 0.80770  0.42010  0.17720  Biso   1.000  H
  H61      1.0000 0.89610  0.47380  0.27250  Biso   1.000  H
  H62      1.0000 0.73920  0.34610  0.73650  Biso   1.000  H
  H63      1.0000 0.25330  0.91940  0.51430  Biso   1.000  H
  H64      1.0000 0.03300  0.78120  0.20130  Biso   1.000  H
  H65      1.0000 0.07570  0.84740  0.25180  Biso   1.000  H
  H66      1.0000 0.98500  0.83230  0.25770  Biso   1.000  H
  H67      1.0000 0.92150  0.03210  0.74840  Biso   1.000  H
  H68      1.0000 0.83160  0.08940  0.84270  Biso   1.000  H
  H69      1.0000 0.96450  0.54120  0.36000  Biso   1.000  H
  H70      1.0000 0.71720  0.39510  0.09880  Biso   1.000  H
  H71      1.0000 0.82820  0.63070  0.70550  Biso   1.000  H
  H72      1.0000 0.81540  0.37470  0.66000  Biso   1.000  H
  H73      1.0000 0.89490  0.77280  0.66260  Biso   1.000  H
  H74      1.0000 0.63960  0.56370  0.88670  Biso   1.000  H
  H75      1.0000 0.89740  0.73420  0.34900  Biso   1.000  H
  H76      1.0000 0.66050  0.33980  0.81270  Biso   1.000  H
  H77      1.0000 0.21140  0.73450  0.57870  Biso   1.000  H
  H78      1.0000 0.40180  0.65510  0.53980  Biso   1.000  H
  H79      1.0000 0.35400  0.68050  0.59980  Biso   1.000  H
  H80      1.0000 0.37010  0.73700  0.56960  Biso   1.000  H
  H81      1.0000 0.02680  0.78970  0.82370  Biso   1.000  H
  H82      1.0000 0.01120  0.83040  0.78040  Biso   1.000  H
  H83      1.0000 0.09860  0.81310  0.79360  Biso   1.000  H
  H84      1.0000 0.08380  0.71970  0.33350  Biso   1.000  H
  H85      1.0000 0.00290  0.68020  0.79430  Biso   1.000  H
  H86      1.0000 0.05800  0.62670  0.74360  Biso   1.000  H
  H87      1.0000 0.96960  0.63990  0.72930  Biso   1.000  H
  H88      1.0000 0.74260  0.11920  0.92130  Biso   1.000  H
  H89      1.0000 0.70240  0.61360  0.13070  Biso   1.000  H
  H90      1.0000 0.07630  0.75960  0.67800  Biso   1.000  H
  H91      1.0000 0.88320  0.41910  0.59760  Biso   1.000  H
  H92      1.0000 0.69640  0.90090  0.87860  Biso   1.000  H
  H93      1.0000 0.44090  0.17680  0.69600  Biso   1.000  H
  H94      1.0000 0.47050  0.15490  0.74820  Biso   1.000  H
  H95      1.0000 0.37970  0.16950  0.74220  Biso   1.000  H
  H96      1.0000 0.29680  0.25290  0.90940  Biso   1.000  H
  H97      1.0000 0.21440  0.21200  0.89820  Biso   1.000  H
  H98      1.0000 0.23500  0.26530  0.86570  Biso   1.000  H
  H99      1.0000 0.14080  0.07890  0.98340  Biso   1.000  H
  H100     1.0000 0.22170  0.07750  0.95080  Biso   1.000  H
  H101     1.0000 0.21900  0.05310  0.00510  Biso   1.000  H
  H102     1.0000 0.09820  0.30750  0.92270  Biso   1.000  H
  H103     1.0000 0.10090  0.35910  0.99090  Biso   1.000  H
  H104     1.0000 0.12680  0.39030  0.94310  Biso   1.000  H
  H105     1.0000 0.51330  0.46270  0.16000  Biso   1.000  H
  H106     1.0000 0.69230  0.92010  0.67720  Biso   1.000  H
  H107     1.0000 0.60390  0.97380  0.77250  Biso   1.000  H
  H108     1.0000 0.76080  0.84610  0.23650  Biso   1.000  H
  H109     1.0000 0.24670  0.41940  0.01430  Biso   1.000  H
  H110     1.0000 0.46700  0.28120  0.70130  Biso   1.000  H
  H111     1.0000 0.42430  0.34740  0.75180  Biso   1.000  H
  H112     1.0000 0.51500  0.33230  0.75770  Biso   1.000  H
  H113     1.0000 0.57850  0.53210  0.24840  Biso   1.000  H
  H114     1.0000 0.66840  0.58940  0.34270  Biso   1.000  H
  H115     1.0000 0.53550  0.04120  0.86000  Biso   1.000  H
  H116     1.0000 0.78280  0.89510  0.59880  Biso   1.000  H
  H117     1.0000 0.67180  0.13070  0.20550  Biso   1.000  H
  H118     1.0000 0.68460  0.87470  0.16000  Biso   1.000  H
  H119     1.0000 0.60510  0.27280  0.16260  Biso   1.000  H
  H120     1.0000 0.86040  0.06370  0.38670  Biso   1.000  H
  H121     1.0000 0.60260  0.23420  0.84900  Biso   1.000  H
  H122     1.0000 0.83950  0.83980  0.31270  Biso   1.000  H
  H123     1.0000 0.28860  0.23450  0.07870  Biso   1.000  H
  H124     1.0000 0.09820  0.15510  0.03980  Biso   1.000  H
  H125     1.0000 0.14600  0.18050  0.09980  Biso   1.000  H
  H126     1.0000 0.12990  0.23700  0.06960  Biso   1.000  H
  H127     1.0000 0.47320  0.28970  0.32370  Biso   1.000  H
  H128     1.0000 0.48880  0.33040  0.28040  Biso   1.000  H
  H129     1.0000 0.40140  0.31310  0.29360  Biso   1.000  H
  H130     1.0000 0.41620  0.21970  0.83350  Biso   1.000  H
  H131     1.0000 0.49710  0.18020  0.29430  Biso   1.000  H
  H132     1.0000 0.44200  0.12670  0.24360  Biso   1.000  H
  H133     1.0000 0.53040  0.13990  0.22930  Biso   1.000  H
  H134     1.0000 0.75740  0.61920  0.42130  Biso   1.000  H
  H135     1.0000 0.79760  0.11360  0.63070  Biso   1.000  H
  H136     1.0000 0.42370  0.25960  0.17800  Biso   1.000  H
  H137     1.0000 0.61680  0.91910  0.09760  Biso   1.000  H
  H138     1.0000 0.80360  0.40090  0.37860  Biso   1.000  H
  H139     1.0000 0.94090  0.32320  0.80400  Biso   1.000  H
  H140     1.0000 0.97050  0.34510  0.75180  Biso   1.000  H
  H141     1.0000 0.87970  0.33050  0.75780  Biso   1.000  H
  H142     1.0000 0.79680  0.24710  0.59060  Biso   1.000  H
  H143     1.0000 0.71440  0.28800  0.60180  Biso   1.000  H
  H144     1.0000 0.73500  0.23470  0.63430  Biso   1.000  H
  H145     1.0000 0.64080  0.42110  0.51660  Biso   1.000  H
  H146     1.0000 0.72170  0.42250  0.54920  Biso   1.000  H
  H147     1.0000 0.71900  0.44690  0.49490  Biso   1.000  H
  H148     1.0000 0.59820  0.19250  0.57730  Biso   1.000  H
  H149     1.0000 0.60090  0.14090  0.50910  Biso   1.000  H
  H150     1.0000 0.62680  0.10970  0.55690  Biso   1.000  H
  H151     1.0000 0.01330  0.03730  0.34000  Biso   1.000  H
  H152     1.0000 0.19230  0.57990  0.82280  Biso   1.000  H
  H153     1.0000 0.10390  0.52620  0.72750  Biso   1.000  H
  H154     1.0000 0.26080  0.65390  0.26350  Biso   1.000  H
  H155     1.0000 0.74670  0.08060  0.48570  Biso   1.000  H
  H156     1.0000 0.96700  0.21880  0.79870  Biso   1.000  H
  H157     1.0000 0.92430  0.15260  0.74820  Biso   1.000  H
  H158     1.0000 0.01500  0.16770  0.74230  Biso   1.000  H
  H159     1.0000 0.07850  0.96790  0.25160  Biso   1.000  H
  H160     1.0000 0.16840  0.91060  0.15730  Biso   1.000  H
  H161     1.0000 0.03550  0.45880  0.64000  Biso   1.000  H
  H162     1.0000 0.28280  0.60490  0.90120  Biso   1.000  H
  H163     1.0000 0.17180  0.36930  0.29450  Biso   1.000  H
  H164     1.0000 0.18460  0.62530  0.34000  Biso   1.000  H
  H165     1.0000 0.10510  0.22720  0.33740  Biso   1.000  H
  H166     1.0000 0.36040  0.43630  0.11330  Biso   1.000  H
  H167     1.0000 0.10260  0.26580  0.65100  Biso   1.000  H
  H168     1.0000 0.33950  0.66020  0.18730  Biso   1.000  H
  H169     1.0000 0.78860  0.26550  0.42130  Biso   1.000  H
  H170     1.0000 0.59820  0.34490  0.46020  Biso   1.000  H
  H171     1.0000 0.64600  0.31950  0.40020  Biso   1.000  H
  H172     1.0000 0.62990  0.26300  0.43040  Biso   1.000  H
  H173     1.0000 0.97320  0.21030  0.17630  Biso   1.000  H
  H174     1.0000 0.98880  0.16960  0.21960  Biso   1.000  H
  H175     1.0000 0.90140  0.18690  0.20640  Biso   1.000  H
  H176     1.0000 0.91620  0.28030  0.66650  Biso   1.000  H
  H177     1.0000 0.99710  0.31980  0.20570  Biso   1.000  H
  H178     1.0000 0.94200  0.37330  0.25640  Biso   1.000  H
  H179     1.0000 0.03040  0.36010  0.27070  Biso   1.000  H
  H180     1.0000 0.25740  0.88080  0.07870  Biso   1.000  H
  H181     1.0000 0.29760  0.38640  0.86930  Biso   1.000  H
  H182     1.0000 0.92370  0.24040  0.32200  Biso   1.000  H
  H183     1.0000 0.11680  0.58090  0.40240  Biso   1.000  H
  H184     1.0000 0.30360  0.09910  0.12140  Biso   1.000  H
  C1       1.0000 0.56720  0.81570  0.26290  Biso   1.000  C
  C2       1.0000 0.75880  0.74290  0.09800  Biso   1.000  C
  C3       1.0000 0.80280  0.91340  0.01130  Biso   1.000  C
  C4       1.0000 0.49200  0.68410  0.90410  Biso   1.000  C
  C5       1.0000 0.87340  0.65280  0.04700  Biso   1.000  C
  C6       1.0000 0.44890  0.63910  0.84750  Biso   1.000  C
  C7       1.0000 0.45520  0.56140  0.82160  Biso   1.000  C
  C8       1.0000 0.35590  0.93790  0.24270  Biso   1.000  C
  C9       1.0000 0.28590  0.04120  0.33120  Biso   1.000  C
  C10      1.0000 0.43560  0.85550  0.13530  Biso   1.000  C
  C11      1.0000 0.39600  0.97440  0.21260  Biso   1.000  C
  C12      1.0000 0.21930  0.11070  0.73390  Biso   1.000  C
  C13      1.0000 0.73970  0.62980  0.00840  Biso   1.000  C
  C14      1.0000 0.53580  0.69050  0.25640  Biso   1.000  C
  C15      1.0000 0.41530  0.51930  0.76880  Biso   1.000  C
  C16      1.0000 0.28210  0.02430  0.77910  Biso   1.000  C
  C17      1.0000 0.30420  0.44810  0.65060  Biso   1.000  C
  C18      1.0000 0.14120  0.05000  0.64300  Biso   1.000  C
  C19      1.0000 0.20650  0.97800  0.68830  Biso   1.000  C
  C20      1.0000 0.43650  0.93370  0.15950  Biso   1.000  C
  C21      1.0000 0.30580  0.96800  0.29700  Biso   1.000  C
  C22      1.0000 0.23600  0.04150  0.73460  Biso   1.000  C
  C23      1.0000 0.36620  0.55500  0.74220  Biso   1.000  C
  C24      1.0000 0.23220  0.05600  0.37880  Biso   1.000  C
  C25      1.0000 0.32700  0.92020  0.80350  Biso   1.000  C
  C26      1.0000 0.20940  0.48670  0.59180  Biso   1.000  C
  C27      1.0000 0.31840  0.07440  0.83070  Biso   1.000  C
  C28      1.0000 0.40030  0.67570  0.82080  Biso   1.000  C
  C29      1.0000 0.15910  0.97970  0.64280  Biso   1.000  C
  C30      1.0000 0.39710  0.81750  0.16570  Biso   1.000  C
  C31      1.0000 0.31590  0.52220  0.68790  Biso   1.000  C
  C32      1.0000 0.20070  0.99880  0.39330  Biso   1.000  C
  C33      1.0000 0.35840  0.85870  0.21840  Biso   1.000  C
  C34      1.0000 0.36430  0.97020  0.85430  Biso   1.000  C
  C35      1.0000 0.17210  0.11400  0.68810  Biso   1.000  C
  C36      1.0000 0.71490  0.81050  0.95410  Biso   1.000  C
  C37      1.0000 0.13850  0.01290  0.44160  Biso   1.000  C
  C38      1.0000 0.28790  0.94840  0.76650  Biso   1.000  C
  C39      1.0000 0.08810  0.05990  0.59690  Biso   1.000  C
  C40      1.0000 0.36080  0.63310  0.76930  Biso   1.000  C
  C41      1.0000 0.27400  0.57690  0.67540  Biso   1.000  C
  C42      1.0000 0.27330  0.91190  0.31270  Biso   1.000  C
  C43      1.0000 0.85900  0.81410  0.93760  Biso   1.000  C
  C44      1.0000 0.14670  0.47020  0.54470  Biso   1.000  C
  C45      1.0000 0.54470  0.70470  0.71180  Biso   1.000  C
  C46      1.0000 0.57210  0.73530  0.16960  Biso   1.000  C
  C47      1.0000 0.51580  0.83740  0.74740  Biso   1.000  C
  C48      1.0000 0.25100  0.43040  0.60330  Biso   1.000  C
  C49      1.0000 0.22200  0.92510  0.36000  Biso   1.000  C
  C50      1.0000 0.56250  0.78320  0.81610  Biso   1.000  C
  C51      1.0000 0.35910  0.04750  0.86800  Biso   1.000  C
  C52      1.0000 0.41160  0.94400  0.89510  Biso   1.000  C
  C53      1.0000 0.22230  0.56120  0.62850  Biso   1.000  C
  C54      1.0000 0.47390  0.81290  0.07610  Biso   1.000  C
  C55      1.0000 0.06720  0.68430  0.23710  Biso   1.000  C
  C56      1.0000 0.25880  0.75710  0.40200  Biso   1.000  C
  C57      1.0000 0.30280  0.58660  0.48870  Biso   1.000  C
  C58      1.0000 0.99200  0.81590  0.59590  Biso   1.000  C
  C59      1.0000 0.37340  0.84720  0.45300  Biso   1.000  C
  C60      1.0000 0.94890  0.86090  0.65250  Biso   1.000  C
  C61      1.0000 0.95520  0.93860  0.67840  Biso   1.000  C
  C62      1.0000 0.85590  0.56210  0.25730  Biso   1.000  C
  C63      1.0000 0.78590  0.45880  0.16880  Biso   1.000  C
  C64      1.0000 0.93560  0.64450  0.36470  Biso   1.000  C
  C65      1.0000 0.89600  0.52560  0.28740  Biso   1.000  C
  C66      1.0000 0.71930  0.38930  0.76610  Biso   1.000  C
  C67      1.0000 0.23970  0.87020  0.49160  Biso   1.000  C
  C68      1.0000 0.03580  0.80950  0.24360  Biso   1.000  C
  C69      1.0000 0.91530  0.98070  0.73120  Biso   1.000  C
  C70      1.0000 0.78210  0.47570  0.72090  Biso   1.000  C
  C71      1.0000 0.80420  0.05190  0.84940  Biso   1.000  C
  C72      1.0000 0.64120  0.45000  0.85700  Biso   1.000  C
  C73      1.0000 0.70650  0.52200  0.81170  Biso   1.000  C
  C74      1.0000 0.93650  0.56630  0.34050  Biso   1.000  C
  C75      1.0000 0.80580  0.53200  0.20300  Biso   1.000  C
  C76      1.0000 0.73600  0.45850  0.76540  Biso   1.000  C
  C77      1.0000 0.86620  0.94500  0.75780  Biso   1.000  C
  C78      1.0000 0.73220  0.44400  0.12120  Biso   1.000  C
  C79      1.0000 0.82700  0.57980  0.69650  Biso   1.000  C
  C80      1.0000 0.70940  0.01330  0.90820  Biso   1.000  C
  C81      1.0000 0.81840  0.42560  0.66930  Biso   1.000  C
  C82      1.0000 0.90030  0.82430  0.67920  Biso   1.000  C
  C83      1.0000 0.65910  0.52030  0.85720  Biso   1.000  C
  C84      1.0000 0.89710  0.68250  0.33430  Biso   1.000  C
  C85      1.0000 0.81590  0.97780  0.81210  Biso   1.000  C
  C86      1.0000 0.70070  0.50120  0.10670  Biso   1.000  C
  C87      1.0000 0.85840  0.64130  0.28160  Biso   1.000  C
  C88      1.0000 0.86430  0.52980  0.64570  Biso   1.000  C
  C89      1.0000 0.67210  0.38600  0.81190  Biso   1.000  C
  C90      1.0000 0.21490  0.68950  0.54590  Biso   1.000  C
  C91      1.0000 0.63850  0.48710  0.05840  Biso   1.000  C
  C92      1.0000 0.78790  0.55160  0.73350  Biso   1.000  C
  C93      1.0000 0.58810  0.44010  0.90310  Biso   1.000  C
  C94      1.0000 0.86080  0.86690  0.73070  Biso   1.000  C
  C95      1.0000 0.77400  0.92310  0.82460  Biso   1.000  C
  C96      1.0000 0.77330  0.58810  0.18730  Biso   1.000  C
  C97      1.0000 0.35900  0.68590  0.56240  Biso   1.000  C
  C98      1.0000 0.64670  0.02980  0.95530  Biso   1.000  C
  C99      1.0000 0.04470  0.79530  0.78820  Biso   1.000  C
  C100     1.0000 0.07210  0.76470  0.33040  Biso   1.000  C
  C101     1.0000 0.01580  0.66260  0.75260  Biso   1.000  C
  C102     1.0000 0.75100  0.06960  0.89670  Biso   1.000  C
  C103     1.0000 0.72200  0.57490  0.14000  Biso   1.000  C
  C104     1.0000 0.06250  0.71680  0.68390  Biso   1.000  C
  C105     1.0000 0.85910  0.45250  0.63200  Biso   1.000  C
  C106     1.0000 0.91160  0.55600  0.60490  Biso   1.000  C
  C107     1.0000 0.72230  0.93880  0.87150  Biso   1.000  C
  C108     1.0000 0.97390  0.68710  0.42390  Biso   1.000  C
  C109     1.0000 0.43280  0.18430  0.73710  Biso   1.000  C
  C110     1.0000 0.24120  0.25710  0.90200  Biso   1.000  C
  C111     1.0000 0.19720  0.08660  0.98870  Biso   1.000  C
  C112     1.0000 0.50800  0.31590  0.09590  Biso   1.000  C
  C113     1.0000 0.12660  0.34720  0.95300  Biso   1.000  C
  C114     1.0000 0.55110  0.36090  0.15250  Biso   1.000  C
  C115     1.0000 0.54480  0.43860  0.17840  Biso   1.000  C
  C116     1.0000 0.64410  0.06210  0.75730  Biso   1.000  C
  C117     1.0000 0.71410  0.95880  0.66880  Biso   1.000  C
  C118     1.0000 0.56440  0.14450  0.86470  Biso   1.000  C
  C119     1.0000 0.60400  0.02560  0.78740  Biso   1.000  C
  C120     1.0000 0.78070  0.88930  0.26610  Biso   1.000  C
  C121     1.0000 0.26030  0.37020  0.99160  Biso   1.000  C
  C122     1.0000 0.46420  0.30950  0.74360  Biso   1.000  C
  C123     1.0000 0.58470  0.48070  0.23120  Biso   1.000  C
  C124     1.0000 0.71790  0.97570  0.22090  Biso   1.000  C
  C125     1.0000 0.69580  0.55190  0.34940  Biso   1.000  C
  C126     1.0000 0.85880  0.95000  0.35700  Biso   1.000  C
  C127     1.0000 0.79350  0.02200  0.31170  Biso   1.000  C
  C128     1.0000 0.56350  0.06630  0.84050  Biso   1.000  C
  C129     1.0000 0.69420  0.03200  0.70300  Biso   1.000  C
  C130     1.0000 0.76400  0.95850  0.26540  Biso   1.000  C
  C131     1.0000 0.63380  0.44500  0.25780  Biso   1.000  C
  C132     1.0000 0.76780  0.94400  0.62120  Biso   1.000  C
  C133     1.0000 0.67300  0.07980  0.19650  Biso   1.000  C
  C134     1.0000 0.79060  0.51330  0.40820  Biso   1.000  C
  C135     1.0000 0.68160  0.92560  0.16930  Biso   1.000  C
  C136     1.0000 0.59970  0.32430  0.17920  Biso   1.000  C
  C137     1.0000 0.84090  0.02030  0.35720  Biso   1.000  C
  C138     1.0000 0.60290  0.18250  0.83430  Biso   1.000  C
  C139     1.0000 0.68410  0.47780  0.31210  Biso   1.000  C
  C140     1.0000 0.79930  0.00120  0.60670  Biso   1.000  C
  C141     1.0000 0.64160  0.14130  0.78160  Biso   1.000  C
  C142     1.0000 0.63570  0.02980  0.14570  Biso   1.000  C
  C143     1.0000 0.82790  0.88600  0.31190  Biso   1.000  C
  C144     1.0000 0.28510  0.18950  0.04590  Biso   1.000  C
  C145     1.0000 0.86150  0.98710  0.55840  Biso   1.000  C
  C146     1.0000 0.71210  0.05160  0.23350  Biso   1.000  C
  C147     1.0000 0.91190  0.94010  0.40310  Biso   1.000  C
  C148     1.0000 0.63920  0.36690  0.23070  Biso   1.000  C
  C149     1.0000 0.72600  0.42310  0.32460  Biso   1.000  C
  C150     1.0000 0.72670  0.08810  0.68730  Biso   1.000  C
  C151     1.0000 0.14100  0.18590  0.06240  Biso   1.000  C
  C152     1.0000 0.85330  0.52980  0.45530  Biso   1.000  C
  C153     1.0000 0.45530  0.29530  0.28820  Biso   1.000  C
  C154     1.0000 0.42790  0.26470  0.83040  Biso   1.000  C
  C155     1.0000 0.48420  0.16260  0.25260  Biso   1.000  C
  C156     1.0000 0.74900  0.56960  0.39670  Biso   1.000  C
  C157     1.0000 0.77800  0.07490  0.64000  Biso   1.000  C
  C158     1.0000 0.43750  0.21680  0.18390  Biso   1.000  C
  C159     1.0000 0.64090  0.95250  0.13200  Biso   1.000  C
  C160     1.0000 0.58840  0.05600  0.10490  Biso   1.000  C
  C161     1.0000 0.77770  0.43880  0.37150  Biso   1.000  C
  C162     1.0000 0.52610  0.18710  0.92390  Biso   1.000  C
  C163     1.0000 0.93280  0.31570  0.76290  Biso   1.000  C
  C164     1.0000 0.74120  0.24290  0.59800  Biso   1.000  C
  C165     1.0000 0.69720  0.41340  0.51130  Biso   1.000  C
  C166     1.0000 0.00800  0.18410  0.40410  Biso   1.000  C
  C167     1.0000 0.62660  0.15280  0.54700  Biso   1.000  C
  C168     1.0000 0.05110  0.13910  0.34750  Biso   1.000  C
  C169     1.0000 0.04480  0.06140  0.32160  Biso   1.000  C
  C170     1.0000 0.14410  0.43790  0.74270  Biso   1.000  C
  C171     1.0000 0.21410  0.54120  0.83120  Biso   1.000  C
  C172     1.0000 0.06440  0.35550  0.63530  Biso   1.000  C
  C173     1.0000 0.10400  0.47440  0.71260  Biso   1.000  C
  C174     1.0000 0.28070  0.61070  0.23390  Biso   1.000  C
  C175     1.0000 0.76030  0.12980  0.50840  Biso   1.000  C
  C176     1.0000 0.96420  0.19050  0.75640  Biso   1.000  C
  C177     1.0000 0.08470  0.01930  0.26880  Biso   1.000  C
  C178     1.0000 0.21790  0.52430  0.27910  Biso   1.000  C
  C179     1.0000 0.19580  0.94810  0.15060  Biso   1.000  C
  C180     1.0000 0.35880  0.55000  0.14300  Biso   1.000  C
  C181     1.0000 0.29350  0.47800  0.18830  Biso   1.000  C
  C182     1.0000 0.06350  0.43370  0.65950  Biso   1.000  C
  C183     1.0000 0.19420  0.46800  0.79700  Biso   1.000  C
  C184     1.0000 0.26400  0.54150  0.23460  Biso   1.000  C
  C185     1.0000 0.13380  0.05500  0.24220  Biso   1.000  C
  C186     1.0000 0.26780  0.55600  0.87880  Biso   1.000  C
  C187     1.0000 0.17300  0.42020  0.30350  Biso   1.000  C
  C188     1.0000 0.29060  0.98670  0.09180  Biso   1.000  C
  C189     1.0000 0.18160  0.57440  0.33070  Biso   1.000  C
  C190     1.0000 0.09970  0.17570  0.32080  Biso   1.000  C
  C191     1.0000 0.34090  0.47970  0.14280  Biso   1.000  C
  C192     1.0000 0.10290  0.31750  0.66570  Biso   1.000  C
  C193     1.0000 0.18410  0.02220  0.18790  Biso   1.000  C
  C194     1.0000 0.29930  0.49880  0.89330  Biso   1.000  C
  C195     1.0000 0.14160  0.35870  0.71840  Biso   1.000  C
  C196     1.0000 0.13570  0.47020  0.35430  Biso   1.000  C
  C197     1.0000 0.32790  0.61400  0.18810  Biso   1.000  C
  C198     1.0000 0.78510  0.31050  0.45410  Biso   1.000  C
  C199     1.0000 0.36150  0.51290  0.94160  Biso   1.000  C
  C200     1.0000 0.21210  0.44840  0.26650  Biso   1.000  C
  C201     1.0000 0.41190  0.55990  0.09690  Biso   1.000  C
  C202     1.0000 0.13920  0.13310  0.26930  Biso   1.000  C
  C203     1.0000 0.22600  0.07690  0.17540  Biso   1.000  C
  C204     1.0000 0.22670  0.41190  0.81270  Biso   1.000  C
  C205     1.0000 0.64100  0.31410  0.43760  Biso   1.000  C
  C206     1.0000 0.35330  0.97020  0.04470  Biso   1.000  C
  C207     1.0000 0.95530  0.20470  0.21180  Biso   1.000  C
  C208     1.0000 0.92790  0.23530  0.66960  Biso   1.000  C
  C209     1.0000 0.98420  0.33740  0.24740  Biso   1.000  C
  C210     1.0000 0.24900  0.93040  0.10330  Biso   1.000  C
  C211     1.0000 0.27800  0.42510  0.86000  Biso   1.000  C
  C212     1.0000 0.93750  0.28320  0.31610  Biso   1.000  C
  C213     1.0000 0.14090  0.54750  0.36800  Biso   1.000  C
  C214     1.0000 0.08840  0.44400  0.39510  Biso   1.000  C
  C215     1.0000 0.27770  0.06120  0.12850  Biso   1.000  C
  C216     1.0000 0.02610  0.31290  0.57610  Biso   1.000  C
  S1       1.0000 0.23756  0.89654  0.69846  Biso   1.000  S
  S2       1.0000 0.30400  0.82283  0.26297  Biso   1.000  S
  S3       1.0000 0.29346  0.66681  0.72953  Biso   1.000  S
  S4       1.0000 0.73756  0.60346  0.80154  Biso   1.000  S
  S5       1.0000 0.80400  0.67717  0.23703  Biso   1.000  S
  S6       1.0000 0.79346  0.83319  0.77047  Biso   1.000  S
  S7       1.0000 0.76244  0.10346  0.30154  Biso   1.000  S
  S8       1.0000 0.69600  0.17717  0.73703  Biso   1.000  S
  S9       1.0000 0.70654  0.33319  0.27047  Biso   1.000  S
  S10      1.0000 0.26244  0.39654  0.19846  Biso   1.000  S
  S11      1.0000 0.19600  0.32283  0.76297  Biso   1.000  S
  S12      1.0000 0.20654  0.16681  0.22953  Biso   1.000  S
  N1       1.0000 0.54090  0.77580  0.76180  Biso   1.000  N
  N2       1.0000 0.78710  0.83590  0.97010  Biso   1.000  N
  N3       1.0000 0.55630  0.73960  0.22630  Biso   1.000  N
  N4       1.0000 0.79620  0.67490  0.04380  Biso   1.000  N
  N5       1.0000 0.04090  0.72420  0.73820  Biso   1.000  N
  N6       1.0000 0.28710  0.66410  0.52990  Biso   1.000  N
  N7       1.0000 0.05630  0.76040  0.27370  Biso   1.000  N
  N8       1.0000 0.29620  0.82510  0.45620  Biso   1.000  N
  N9       1.0000 0.45910  0.22420  0.23820  Biso   1.000  N
  N10      1.0000 0.21290  0.16410  0.02990  Biso   1.000  N
  N11      1.0000 0.44370  0.26040  0.77370  Biso   1.000  N
  N12      1.0000 0.20380  0.32510  0.95620  Biso   1.000  N
  N13      1.0000 0.95910  0.27580  0.26180  Biso   1.000  N
  N14      1.0000 0.71290  0.33590  0.47010  Biso   1.000  N
  N15      1.0000 0.94370  0.23960  0.72630  Biso   1.000  N
  N16      1.0000 0.70380  0.17490  0.54380  Biso   1.000  N
  O1       1.0000 0.51670  0.84590  0.05168  Biso   1.000  O
  O2       1.0000 0.52930  0.65040  0.93066  Biso   1.000  O
  O3       1.0000 0.40430  0.87830  0.89010  Biso   1.000  O
  O4       1.0000 0.48760  0.75380  0.92040  Biso   1.000  O
  O5       1.0000 0.10820  0.07670  0.46400  Biso   1.000  O
  O6       1.0000 0.46210  0.74230  0.05470  Biso   1.000  O
  O7       1.0000 0.08580  0.12210  0.59420  Biso   1.000  O
  O8       1.0000 0.22240  0.69630  0.76450  Biso   1.000  O
  O9       1.0000 0.23690  0.77920  0.23080  Biso   1.000  O
  O10      1.0000 0.04230  0.00820  0.56590  Biso   1.000  O
  O11      1.0000 0.65410  0.83700  0.97590  Biso   1.000  O
  O12      1.0000 0.33350  0.71340  0.70490  Biso   1.000  O
  O13      1.0000 0.12610  0.96070  0.45880  Biso   1.000  O
  O14      1.0000 0.17020  0.85770  0.70900  Biso   1.000  O
  O15      1.0000 0.67190  0.64970  0.00440  Biso   1.000  O
  O16      1.0000 0.12300  0.40440  0.51820  Biso   1.000  O
  O17      1.0000 0.35620  0.78880  0.29200  Biso   1.000  O
  O18      1.0000 0.29330  0.85450  0.65300  Biso   1.000  O
  O19      1.0000 0.46070  0.99030  0.93260  Biso   1.000  O
  O20      1.0000 0.56550  0.84400  0.86010  Biso   1.000  O
  O21      1.0000 0.12590  0.53010  0.53390  Biso   1.000  O
  O22      1.0000 0.57300  0.68500  0.12650  Biso   1.000  O
  O23      1.0000 0.01670  0.65410  0.44832  Biso   1.000  O
  O24      1.0000 0.02930  0.84960  0.56934  Biso   1.000  O
  O25      1.0000 0.90430  0.62170  0.60990  Biso   1.000  O
  O26      1.0000 0.98760  0.74620  0.57960  Biso   1.000  O
  O27      1.0000 0.60820  0.42330  0.03600  Biso   1.000  O
  O28      1.0000 0.96210  0.75770  0.44530  Biso   1.000  O
  O29      1.0000 0.58580  0.37790  0.90580  Biso   1.000  O
  O30      1.0000 0.72240  0.80370  0.73550  Biso   1.000  O
  O31      1.0000 0.73690  0.72080  0.26920  Biso   1.000  O
  O32      1.0000 0.54230  0.49180  0.93410  Biso   1.000  O
  O33      1.0000 0.15410  0.66300  0.52410  Biso   1.000  O
  O34      1.0000 0.83350  0.78660  0.79510  Biso   1.000  O
  O35      1.0000 0.62610  0.53930  0.04120  Biso   1.000  O
  O36      1.0000 0.67020  0.64230  0.79100  Biso   1.000  O
  O37      1.0000 0.17190  0.85030  0.49560  Biso   1.000  O
  O38      1.0000 0.62300  0.09560  0.98180  Biso   1.000  O
  O39      1.0000 0.85620  0.71120  0.20800  Biso   1.000  O
  O40      1.0000 0.79330  0.64550  0.84700  Biso   1.000  O
  O41      1.0000 0.96070  0.50970  0.56740  Biso   1.000  O
  O42      1.0000 0.06550  0.65600  0.63990  Biso   1.000  O
  O43      1.0000 0.62590  0.96990  0.96610  Biso   1.000  O
  O44      1.0000 0.07300  0.81500  0.37350  Biso   1.000  O
  O45      1.0000 0.48330  0.15410  0.94832  Biso   1.000  O
  O46      1.0000 0.47070  0.34960  0.06934  Biso   1.000  O
  O47      1.0000 0.59570  0.12170  0.10990  Biso   1.000  O
  O48      1.0000 0.51240  0.24620  0.07960  Biso   1.000  O
  O49      1.0000 0.89180  0.92330  0.53600  Biso   1.000  O
  O50      1.0000 0.53790  0.25770  0.94530  Biso   1.000  O
  O51      1.0000 0.91420  0.87790  0.40580  Biso   1.000  O
  O52      1.0000 0.77760  0.30370  0.23550  Biso   1.000  O
  O53      1.0000 0.76310  0.22080  0.76920  Biso   1.000  O
  O54      1.0000 0.95770  0.99180  0.43410  Biso   1.000  O
  O55      1.0000 0.34590  0.16300  0.02410  Biso   1.000  O
  O56      1.0000 0.66650  0.28660  0.29510  Biso   1.000  O
  O57      1.0000 0.87390  0.03930  0.54120  Biso   1.000  O
  O58      1.0000 0.82980  0.14230  0.29100  Biso   1.000  O
  O59      1.0000 0.32810  0.35030  0.99560  Biso   1.000  O
  O60      1.0000 0.87700  0.59560  0.48180  Biso   1.000  O
  O61      1.0000 0.64380  0.21120  0.70800  Biso   1.000  O
  O62      1.0000 0.70670  0.14550  0.34700  Biso   1.000  O
  O63      1.0000 0.53930  0.00970  0.06740  Biso   1.000  O
  O64      1.0000 0.43450  0.15600  0.13990  Biso   1.000  O
  O65      1.0000 0.87410  0.46990  0.46610  Biso   1.000  O
  O66      1.0000 0.42700  0.31500  0.87350  Biso   1.000  O
  O67      1.0000 0.98330  0.34590  0.55168  Biso   1.000  O
  O68      1.0000 0.97070  0.15040  0.43066  Biso   1.000  O
  O69      1.0000 0.09570  0.37830  0.39010  Biso   1.000  O
  O70      1.0000 0.01240  0.25380  0.42040  Biso   1.000  O
  O71      1.0000 0.39180  0.57670  0.96400  Biso   1.000  O
  O72      1.0000 0.03790  0.24230  0.55470  Biso   1.000  O
  O73      1.0000 0.41420  0.62210  0.09420  Biso   1.000  O
  O74      1.0000 0.27760  0.19630  0.26450  Biso   1.000  O
  O75      1.0000 0.26310  0.27920  0.73080  Biso   1.000  O
  O76      1.0000 0.45770  0.50820  0.06590  Biso   1.000  O
  O77      1.0000 0.84590  0.33700  0.47590  Biso   1.000  O
  O78      1.0000 0.16650  0.21340  0.20490  Biso   1.000  O
  O79      1.0000 0.37390  0.46070  0.95880  Biso   1.000  O
  O80      1.0000 0.32980  0.35770  0.20900  Biso   1.000  O
  O81      1.0000 0.82810  0.14970  0.50440  Biso   1.000  O
  O82      1.0000 0.37700  0.90440  0.01820  Biso   1.000  O
  O83      1.0000 0.14380  0.28880  0.79200  Biso   1.000  O
  O84      1.0000 0.20670  0.35450  0.15300  Biso   1.000  O
  O85      1.0000 0.03930  0.49030  0.43260  Biso   1.000  O
  O86      1.0000 0.93450  0.34400  0.36010  Biso   1.000  O
  O87      1.0000 0.37410  0.03010  0.03390  Biso   1.000  O
  O88      1.0000 0.92700  0.18500  0.62650  Biso   1.000  O
