data_image0
_cell_length_a       12.4996
_cell_length_b       17.7008
_cell_length_c       22.3869
_cell_angle_alpha    79.657
_cell_angle_beta     80.452
_cell_angle_gamma    81.326

_symmetry_space_group_name_H-M    P 1
_symmetry_int_tables_number       1

loop_
  _symmetry_equiv_pos_as_xyz
  'x, y, z'

loop_
  _atom_site_label
  _atom_site_occupancy
  _atom_site_fract_x
  _atom_site_fract_y
  _atom_site_fract_z
  _atom_site_thermal_displace_type
  _atom_site_B_iso_or_equiv
  _atom_site_type_symbol
  Dy1      1.0000 0.65337  0.02921  0.99792  Biso   1.000  Dy
  Dy2      1.0000 0.87118  0.42990  0.51805  Biso   1.000  Dy
  Dy3      1.0000 0.34663  0.97079  0.00208  Biso   1.000  Dy
  Dy4      1.0000 0.12882  0.57010  0.48195  Biso   1.000  Dy
  H1       1.0000 0.75360  0.00730  0.20170  Biso   1.000  H
  H2       1.0000 0.71160  0.23020  0.11950  Biso   1.000  H
  H3       1.0000 0.77740  0.04580  0.29150  Biso   1.000  H
  H4       1.0000 0.79930  0.10860  0.38100  Biso   1.000  H
  H5       1.0000 0.75800  0.37850  0.33210  Biso   1.000  H
  H6       1.0000 0.82060  0.18480  0.45150  Biso   1.000  H
  H7       1.0000 0.69070  0.88590  0.12530  Biso   1.000  H
  H8       1.0000 0.45420  0.74660  0.15110  Biso   1.000  H
  H9       1.0000 0.53030  0.66670  0.23260  Biso   1.000  H
  H10      1.0000 0.63550  0.59660  0.31760  Biso   1.000  H
  H11      1.0000 0.74740  0.55140  0.39590  Biso   1.000  H
  H12      1.0000 0.93110  0.72610  0.32850  Biso   1.000  H
  H13      1.0000 0.95520  0.69540  0.63660  Biso   1.000  H
  H14      1.0000 0.71470  0.56040  0.66300  Biso   1.000  H
  H15      1.0000 0.61870  0.62540  0.74230  Biso   1.000  H
  H16      1.0000 0.54200  0.71100  0.82200  Biso   1.000  H
  H17      1.0000 0.76800  0.89470  0.83020  Biso   1.000  H
  H18      1.0000 0.49160  0.79930  0.88900  Biso   1.000  H
  H19      1.0000 0.70350  0.59920  0.52510  Biso   1.000  H
  H20      1.0000 0.81680  0.88560  0.93220  Biso   1.000  H
  H21      1.0000 0.08990  0.99440  0.86870  Biso   1.000  H
  H22      1.0000 0.02790  0.05450  0.91020  Biso   1.000  H
  H23      1.0000 0.00050  0.96900  0.92360  Biso   1.000  H
  H24      1.0000 0.44290  0.66210  0.59880  Biso   1.000  H
  H25      1.0000 0.56220  0.66820  0.60900  Biso   1.000  H
  H26      1.0000 0.52540  0.69820  0.54440  Biso   1.000  H
  H27      1.0000 0.40830  0.55140  0.60260  Biso   1.000  H
  H28      1.0000 0.46320  0.50140  0.55200  Biso   1.000  H
  H29      1.0000 0.50400  0.48550  0.61610  Biso   1.000  H
  H30      1.0000 0.04200  0.00280  0.77870  Biso   1.000  H
  H31      1.0000 0.92490  0.98160  0.77790  Biso   1.000  H
  H32      1.0000 0.94910  0.06770  0.75850  Biso   1.000  H
  H33      1.0000 0.05170  0.75730  0.93740  Biso   1.000  H
  H34      1.0000 0.93700  0.75730  0.91780  Biso   1.000  H
  H35      1.0000 0.00590  0.82560  0.88970  Biso   1.000  H
  H36      1.0000 0.05870  0.78430  0.02530  Biso   1.000  H
  H37      1.0000 0.01630  0.87060  0.03270  Biso   1.000  H
  H38      1.0000 0.94720  0.80440  0.06640  Biso   1.000  H
  H39      1.0000 0.24640  0.99270  0.79830  Biso   1.000  H
  H40      1.0000 0.28840  0.76980  0.88050  Biso   1.000  H
  H41      1.0000 0.22260  0.95420  0.70850  Biso   1.000  H
  H42      1.0000 0.20070  0.89140  0.61900  Biso   1.000  H
  H43      1.0000 0.24200  0.62150  0.66790  Biso   1.000  H
  H44      1.0000 0.17940  0.81520  0.54850  Biso   1.000  H
  H45      1.0000 0.30930  0.11410  0.87470  Biso   1.000  H
  H46      1.0000 0.54580  0.25340  0.84890  Biso   1.000  H
  H47      1.0000 0.46970  0.33330  0.76740  Biso   1.000  H
  H48      1.0000 0.36450  0.40340  0.68240  Biso   1.000  H
  H49      1.0000 0.25260  0.44860  0.60410  Biso   1.000  H
  H50      1.0000 0.06890  0.27390  0.67150  Biso   1.000  H
  H51      1.0000 0.04480  0.30460  0.36340  Biso   1.000  H
  H52      1.0000 0.28530  0.43960  0.33700  Biso   1.000  H
  H53      1.0000 0.38130  0.37460  0.25770  Biso   1.000  H
  H54      1.0000 0.45800  0.28900  0.17800  Biso   1.000  H
  H55      1.0000 0.23200  0.10530  0.16980  Biso   1.000  H
  H56      1.0000 0.50840  0.20070  0.11100  Biso   1.000  H
  H57      1.0000 0.29650  0.40080  0.47490  Biso   1.000  H
  H58      1.0000 0.18320  0.11440  0.06780  Biso   1.000  H
  H59      1.0000 0.91010  0.00560  0.13130  Biso   1.000  H
  H60      1.0000 0.97210  0.94550  0.08980  Biso   1.000  H
  H61      1.0000 0.99950  0.03100  0.07640  Biso   1.000  H
  H62      1.0000 0.55710  0.33790  0.40120  Biso   1.000  H
  H63      1.0000 0.43780  0.33180  0.39100  Biso   1.000  H
  H64      1.0000 0.47460  0.30180  0.45560  Biso   1.000  H
  H65      1.0000 0.59170  0.44860  0.39740  Biso   1.000  H
  H66      1.0000 0.53680  0.49860  0.44800  Biso   1.000  H
  H67      1.0000 0.49600  0.51450  0.38390  Biso   1.000  H
  H68      1.0000 0.95800  0.99720  0.22130  Biso   1.000  H
  H69      1.0000 0.07510  0.01840  0.22210  Biso   1.000  H
  H70      1.0000 0.05090  0.93230  0.24150  Biso   1.000  H
  H71      1.0000 0.94830  0.24270  0.06260  Biso   1.000  H
  H72      1.0000 0.06300  0.24270  0.08220  Biso   1.000  H
  H73      1.0000 0.99410  0.17440  0.11030  Biso   1.000  H
  H74      1.0000 0.94130  0.21570  0.97470  Biso   1.000  H
  H75      1.0000 0.98370  0.12940  0.96730  Biso   1.000  H
  H76      1.0000 0.05280  0.19560  0.93360  Biso   1.000  H
  C1       1.0000 0.72410  0.08470  0.09220  Biso   1.000  C
  C2       1.0000 0.73440  0.11470  0.15080  Biso   1.000  C
  C3       1.0000 0.75100  0.05960  0.20340  Biso   1.000  C
  C4       1.0000 0.72480  0.19330  0.15350  Biso   1.000  C
  C5       1.0000 0.73560  0.21450  0.20780  Biso   1.000  C
  C6       1.0000 0.76350  0.08250  0.25740  Biso   1.000  C
  C7       1.0000 0.75490  0.16130  0.26010  Biso   1.000  C
  C8       1.0000 0.76780  0.19770  0.31320  Biso   1.000  C
  C9       1.0000 0.75450  0.27830  0.30010  Biso   1.000  C
  C10      1.0000 0.79170  0.16230  0.37070  Biso   1.000  C
  C11      1.0000 0.76690  0.32480  0.34200  Biso   1.000  C
  C12      1.0000 0.80430  0.20820  0.41290  Biso   1.000  C
  C13      1.0000 0.79280  0.28880  0.39830  Biso   1.000  C
  C14      1.0000 0.80850  0.33870  0.44490  Biso   1.000  C
  C15      1.0000 0.50330  0.87590  0.08130  Biso   1.000  C
  C16      1.0000 0.56330  0.82400  0.12930  Biso   1.000  C
  C17      1.0000 0.65870  0.84250  0.14550  Biso   1.000  C
  C18      1.0000 0.51740  0.75850  0.16220  Biso   1.000  C
  C19      1.0000 0.56230  0.70970  0.21130  Biso   1.000  C
  C20      1.0000 0.70340  0.79260  0.19360  Biso   1.000  C
  C21      1.0000 0.65730  0.72950  0.22610  Biso   1.000  C
  C22      1.0000 0.71860  0.68760  0.27850  Biso   1.000  C
  C23      1.0000 0.80990  0.72460  0.28190  Biso   1.000  C
  C24      1.0000 0.69410  0.62200  0.32020  Biso   1.000  C
  C25      1.0000 0.76190  0.59490  0.36710  Biso   1.000  C
  C26      1.0000 0.87320  0.69970  0.32660  Biso   1.000  C
  C27      1.0000 0.85260  0.63490  0.36970  Biso   1.000  C
  C28      1.0000 0.92230  0.60540  0.41800  Biso   1.000  C
  C29      1.0000 0.90410  0.57620  0.59190  Biso   1.000  C
  C30      1.0000 0.84390  0.61980  0.64330  Biso   1.000  C
  C31      1.0000 0.88940  0.68050  0.65790  Biso   1.000  C
  C32      1.0000 0.74420  0.60030  0.67390  Biso   1.000  C
  C33      1.0000 0.83220  0.71780  0.70570  Biso   1.000  C
  C34      1.0000 0.68540  0.63950  0.72160  Biso   1.000  C
  C35      1.0000 0.73110  0.70010  0.73650  Biso   1.000  C
  C36      1.0000 0.68460  0.74910  0.78440  Biso   1.000  C
  C37      1.0000 0.75060  0.80460  0.78780  Biso   1.000  C
  C38      1.0000 0.58770  0.74760  0.82270  Biso   1.000  C
  C39      1.0000 0.72160  0.85900  0.82860  Biso   1.000  C
  C40      1.0000 0.55760  0.80110  0.86290  Biso   1.000  C
  C41      1.0000 0.62290  0.85730  0.86550  Biso   1.000  C
  C42      1.0000 0.58480  0.91450  0.91070  Biso   1.000  C
  C43      1.0000 0.65680  0.56120  0.53540  Biso   1.000  C
  C44      1.0000 0.83220  0.05770  0.87290  Biso   1.000  C
  C45      1.0000 0.84470  0.88010  0.96890  Biso   1.000  C
  C46      1.0000 0.02110  0.01060  0.89190  Biso   1.000  C
  C47      1.0000 0.51800  0.65940  0.58030  Biso   1.000  C
  C48      1.0000 0.47580  0.52480  0.58520  Biso   1.000  C
  C49      1.0000 0.96510  0.02010  0.78560  Biso   1.000  C
  C50      1.0000 0.98700  0.78930  0.92590  Biso   1.000  C
  C51      1.0000 0.99500  0.82200  0.02980  Biso   1.000  C
  C52      1.0000 0.27590  0.91530  0.90780  Biso   1.000  C
  C53      1.0000 0.26560  0.88530  0.84920  Biso   1.000  C
  C54      1.0000 0.24900  0.94040  0.79660  Biso   1.000  C
  C55      1.0000 0.27520  0.80670  0.84650  Biso   1.000  C
  C56      1.0000 0.26440  0.78550  0.79220  Biso   1.000  C
  C57      1.0000 0.23650  0.91750  0.74260  Biso   1.000  C
  C58      1.0000 0.24510  0.83870  0.73990  Biso   1.000  C
  C59      1.0000 0.23220  0.80230  0.68680  Biso   1.000  C
  C60      1.0000 0.24550  0.72170  0.69990  Biso   1.000  C
  C61      1.0000 0.20830  0.83770  0.62930  Biso   1.000  C
  C62      1.0000 0.23310  0.67520  0.65800  Biso   1.000  C
  C63      1.0000 0.19570  0.79180  0.58710  Biso   1.000  C
  C64      1.0000 0.20720  0.71120  0.60170  Biso   1.000  C
  C65      1.0000 0.19150  0.66130  0.55510  Biso   1.000  C
  C66      1.0000 0.49670  0.12410  0.91870  Biso   1.000  C
  C67      1.0000 0.43670  0.17600  0.87070  Biso   1.000  C
  C68      1.0000 0.34130  0.15750  0.85450  Biso   1.000  C
  C69      1.0000 0.48260  0.24150  0.83780  Biso   1.000  C
  C70      1.0000 0.43770  0.29030  0.78870  Biso   1.000  C
  C71      1.0000 0.29660  0.20740  0.80640  Biso   1.000  C
  C72      1.0000 0.34270  0.27050  0.77390  Biso   1.000  C
  C73      1.0000 0.28140  0.31240  0.72150  Biso   1.000  C
  C74      1.0000 0.19010  0.27540  0.71810  Biso   1.000  C
  C75      1.0000 0.30590  0.37800  0.67980  Biso   1.000  C
  C76      1.0000 0.23810  0.40510  0.63290  Biso   1.000  C
  C77      1.0000 0.12680  0.30030  0.67340  Biso   1.000  C
  C78      1.0000 0.14740  0.36510  0.63030  Biso   1.000  C
  C79      1.0000 0.07770  0.39460  0.58200  Biso   1.000  C
  C80      1.0000 0.09590  0.42380  0.40810  Biso   1.000  C
  C81      1.0000 0.15610  0.38020  0.35670  Biso   1.000  C
  C82      1.0000 0.11060  0.31950  0.34210  Biso   1.000  C
  C83      1.0000 0.25580  0.39970  0.32610  Biso   1.000  C
  C84      1.0000 0.16780  0.28220  0.29430  Biso   1.000  C
  C85      1.0000 0.31460  0.36050  0.27840  Biso   1.000  C
  C86      1.0000 0.26890  0.29990  0.26350  Biso   1.000  C
  C87      1.0000 0.31540  0.25090  0.21560  Biso   1.000  C
  C88      1.0000 0.24940  0.19540  0.21220  Biso   1.000  C
  C89      1.0000 0.41230  0.25240  0.17730  Biso   1.000  C
  C90      1.0000 0.27840  0.14100  0.17140  Biso   1.000  C
  C91      1.0000 0.44240  0.19890  0.13710  Biso   1.000  C
  C92      1.0000 0.37710  0.14270  0.13450  Biso   1.000  C
  C93      1.0000 0.41520  0.08550  0.08930  Biso   1.000  C
  C94      1.0000 0.34320  0.43880  0.46460  Biso   1.000  C
  C95      1.0000 0.16780  0.94230  0.12710  Biso   1.000  C
  C96      1.0000 0.15530  0.11990  0.03110  Biso   1.000  C
  C97      1.0000 0.97890  0.98940  0.10810  Biso   1.000  C
  C98      1.0000 0.48200  0.34060  0.41970  Biso   1.000  C
  C99      1.0000 0.52420  0.47520  0.41480  Biso   1.000  C
  C100     1.0000 0.03490  0.97990  0.21440  Biso   1.000  C
  C101     1.0000 0.01300  0.21070  0.07410  Biso   1.000  C
  C102     1.0000 0.00500  0.17800  0.97020  Biso   1.000  C
  S1       1.0000 0.72000  0.31060  0.22441  Biso   1.000  S
  S2       1.0000 0.82070  0.80640  0.22400  Biso   1.000  S
  S3       1.0000 0.87370  0.79520  0.73480  Biso   1.000  S
  S4       1.0000 0.28000  0.68940  0.77559  Biso   1.000  S
  S5       1.0000 0.17930  0.19360  0.77600  Biso   1.000  S
  S6       1.0000 0.12630  0.20480  0.26520  Biso   1.000  S
  N1       1.0000 0.93340  0.03300  0.84920  Biso   1.000  N
  N2       1.0000 0.55530  0.58020  0.56230  Biso   1.000  N
  N3       1.0000 0.93590  0.83050  0.97500  Biso   1.000  N
  N4       1.0000 0.06660  0.96700  0.15080  Biso   1.000  N
  N5       1.0000 0.44470  0.41980  0.43770  Biso   1.000  N
  N6       1.0000 0.06410  0.16950  0.02500  Biso   1.000  N
  O1       1.0000 0.71290  0.01470  0.09600  Biso   1.000  O
  O2       1.0000 0.72310  0.13330  0.04100  Biso   1.000  O
  O3       1.0000 0.84120  0.30390  0.49490  Biso   1.000  O
  O4       1.0000 0.79310  0.41000  0.43010  Biso   1.000  O
  O5       1.0000 0.79960  0.35570  0.18500  Biso   1.000  O
  O6       1.0000 0.60580  0.34460  0.22760  Biso   1.000  O
  O7       1.0000 0.55040  0.93260  0.05060  Biso   1.000  O
  O8       1.0000 0.41190  0.86390  0.07320  Biso   1.000  O
  O9       1.0000 0.90330  0.54500  0.45660  Biso   1.000  O
  O10      1.0000 0.00160  0.64230  0.41890  Biso   1.000  O
  O11      1.0000 0.79990  0.87470  0.25050  Biso   1.000  O
  O12      1.0000 0.92090  0.79610  0.18110  Biso   1.000  O
  O13      1.0000 0.98060  0.60500  0.55800  Biso   1.000  O
  O14      1.0000 0.86790  0.51370  0.58970  Biso   1.000  O
  O15      1.0000 0.64880  0.96110  0.91530  Biso   1.000  O
  O16      1.0000 0.87920  0.86310  0.68900  Biso   1.000  O
  O17      1.0000 0.96630  0.76750  0.76780  Biso   1.000  O
  O18      1.0000 0.49060  0.90780  0.94100  Biso   1.000  O
  O19      1.0000 0.80640  0.06410  0.92770  Biso   1.000  O
  O20      1.0000 0.79480  0.91880  0.00710  Biso   1.000  O
  O21      1.0000 0.69080  0.49860  0.52380  Biso   1.000  O
  O22      1.0000 0.76520  0.36630  0.60880  Biso   1.000  O
  O23      1.0000 0.28710  0.98530  0.90400  Biso   1.000  O
  O24      1.0000 0.27690  0.86670  0.95900  Biso   1.000  O
  O25      1.0000 0.15880  0.69610  0.50510  Biso   1.000  O
  O26      1.0000 0.20690  0.59000  0.56990  Biso   1.000  O
  O27      1.0000 0.20040  0.64430  0.81500  Biso   1.000  O
  O28      1.0000 0.39420  0.65540  0.77240  Biso   1.000  O
  O29      1.0000 0.44960  0.06740  0.94940  Biso   1.000  O
  O30      1.0000 0.58810  0.13610  0.92680  Biso   1.000  O
  O31      1.0000 0.09670  0.45500  0.54340  Biso   1.000  O
  O32      1.0000 0.99840  0.35770  0.58110  Biso   1.000  O
  O33      1.0000 0.20010  0.12530  0.74950  Biso   1.000  O
  O34      1.0000 0.07910  0.20390  0.81890  Biso   1.000  O
  O35      1.0000 0.01940  0.39500  0.44200  Biso   1.000  O
  O36      1.0000 0.13210  0.48630  0.41030  Biso   1.000  O
  O37      1.0000 0.35120  0.03890  0.08470  Biso   1.000  O
  O38      1.0000 0.12080  0.13690  0.31100  Biso   1.000  O
  O39      1.0000 0.03370  0.23250  0.23220  Biso   1.000  O
  O40      1.0000 0.50940  0.09220  0.05900  Biso   1.000  O
  O41      1.0000 0.19360  0.93590  0.07230  Biso   1.000  O
  O42      1.0000 0.20520  0.08120  0.99290  Biso   1.000  O
  O43      1.0000 0.30920  0.50140  0.47620  Biso   1.000  O
  O44      1.0000 0.23480  0.63370  0.39120  Biso   1.000  O
