data_image0
_cell_length_a       9.4093
_cell_length_b       9.876
_cell_length_c       18.307
_cell_angle_alpha    79.35
_cell_angle_beta     87.3
_cell_angle_gamma    68.2

_symmetry_space_group_name_H-M    P 1
_symmetry_int_tables_number       1

loop_
  _symmetry_equiv_pos_as_xyz
  'x, y, z'

loop_
  _atom_site_label
  _atom_site_occupancy
  _atom_site_fract_x
  _atom_site_fract_y
  _atom_site_fract_z
  _atom_site_thermal_displace_type
  _atom_site_B_iso_or_equiv
  _atom_site_type_symbol
  Zn1      1.0000 0.80924  0.10031  0.85665  Biso   1.000  Zn
  Zn2      1.0000 0.09430  0.09448  0.96855  Biso   1.000  Zn
  Zn3      1.0000 0.19076  0.89969  0.14335  Biso   1.000  Zn
  Zn4      1.0000 0.90570  0.90552  0.03145  Biso   1.000  Zn
  H1       1.0000 0.93620  0.06760  0.70680  Biso   1.000  H
  H2       1.0000 0.04720  0.18860  0.61650  Biso   1.000  H
  H3       1.0000 0.93170  0.52310  0.72520  Biso   1.000  H
  H4       1.0000 0.81520  0.40260  0.81110  Biso   1.000  H
  H5       1.0000 0.07860  0.54100  0.61580  Biso   1.000  H
  H6       1.0000 0.16550  0.30620  0.54780  Biso   1.000  H
  H7       1.0000 0.29690  0.30590  0.43970  Biso   1.000  H
  H8       1.0000 0.43340  0.39140  0.35050  Biso   1.000  H
  H9       1.0000 0.36040  0.73940  0.44490  Biso   1.000  H
  H10      1.0000 0.22680  0.64800  0.53800  Biso   1.000  H
  H11      1.0000 0.53630  0.53420  0.29260  Biso   1.000  H
  H12      1.0000 0.49960  0.79050  0.33150  Biso   1.000  H
  H13      1.0000 0.70200  0.55260  0.19270  Biso   1.000  H
  H14      1.0000 0.84150  0.63170  0.09910  Biso   1.000  H
  H15      1.0000 0.74930  0.00040  0.17190  Biso   1.000  H
  H16      1.0000 0.60980  0.93030  0.26670  Biso   1.000  H
  H17      1.0000 0.42560  0.46020  0.93900  Biso   1.000  H
  H18      1.0000 0.11890  0.46010  0.09910  Biso   1.000  H
  H19      1.0000 0.47830  0.08650  0.08580  Biso   1.000  H
  H20      1.0000 0.01500  0.90370  0.91910  Biso   1.000  H
  H21      1.0000 0.06380  0.93240  0.29320  Biso   1.000  H
  H22      1.0000 0.95280  0.81140  0.38350  Biso   1.000  H
  H23      1.0000 0.06830  0.47690  0.27480  Biso   1.000  H
  H24      1.0000 0.18480  0.59740  0.18890  Biso   1.000  H
  H25      1.0000 0.92140  0.45900  0.38420  Biso   1.000  H
  H26      1.0000 0.83450  0.69380  0.45220  Biso   1.000  H
  H27      1.0000 0.70310  0.69410  0.56030  Biso   1.000  H
  H28      1.0000 0.56660  0.60860  0.64950  Biso   1.000  H
  H29      1.0000 0.63960  0.26060  0.55510  Biso   1.000  H
  H30      1.0000 0.77320  0.35200  0.46200  Biso   1.000  H
  H31      1.0000 0.46370  0.46580  0.70740  Biso   1.000  H
  H32      1.0000 0.50040  0.20950  0.66850  Biso   1.000  H
  H33      1.0000 0.29800  0.44740  0.80730  Biso   1.000  H
  H34      1.0000 0.15850  0.36830  0.90090  Biso   1.000  H
  H35      1.0000 0.25070  0.99960  0.82810  Biso   1.000  H
  H36      1.0000 0.39020  0.06970  0.73330  Biso   1.000  H
  H37      1.0000 0.57440  0.53980  0.06100  Biso   1.000  H
  H38      1.0000 0.88110  0.53990  0.90090  Biso   1.000  H
  H39      1.0000 0.52170  0.91350  0.91420  Biso   1.000  H
  H40      1.0000 0.98500  0.09630  0.08090  Biso   1.000  H
  C1       1.0000 0.93590  0.15990  0.71140  Biso   1.000  C
  C2       1.0000 0.00390  0.23210  0.65720  Biso   1.000  C
  C3       1.0000 0.00760  0.36660  0.66300  Biso   1.000  C
  C4       1.0000 0.93500  0.42970  0.72070  Biso   1.000  C
  C5       1.0000 0.86650  0.35630  0.77250  Biso   1.000  C
  C6       1.0000 0.08620  0.44770  0.60870  Biso   1.000  C
  C7       1.0000 0.16190  0.39870  0.55410  Biso   1.000  C
  C8       1.0000 0.24610  0.46860  0.49840  Biso   1.000  C
  C9       1.0000 0.30950  0.39430  0.44150  Biso   1.000  C
  C10      1.0000 0.39050  0.44630  0.38750  Biso   1.000  C
  C11      1.0000 0.41040  0.57490  0.38620  Biso   1.000  C
  C12      1.0000 0.34810  0.65070  0.44360  Biso   1.000  C
  C13      1.0000 0.26690  0.59600  0.49960  Biso   1.000  C
  C14      1.0000 0.50150  0.60600  0.32250  Biso   1.000  C
  C15      1.0000 0.53760  0.71530  0.30370  Biso   1.000  C
  C16      1.0000 0.63560  0.73720  0.24090  Biso   1.000  C
  C17      1.0000 0.70960  0.64480  0.18920  Biso   1.000  C
  C18      1.0000 0.79380  0.69320  0.13300  Biso   1.000  C
  C19      1.0000 0.73970  0.90890  0.17580  Biso   1.000  C
  C20      1.0000 0.65460  0.86720  0.23310  Biso   1.000  C
  C21      1.0000 0.47300  0.25980  0.00633  Biso   1.000  C
  C22      1.0000 0.39130  0.41040  0.97984  Biso   1.000  C
  C23      1.0000 0.25810  0.48550  0.01510  Biso   1.000  C
  C24      1.0000 0.20850  0.41070  0.07602  Biso   1.000  C
  C25      1.0000 0.29210  0.26170  0.10286  Biso   1.000  C
  C26      1.0000 0.42330  0.18640  0.06795  Biso   1.000  C
  C27      1.0000 0.61340  0.17510  0.96859  Biso   1.000  C
  C28      1.0000 0.16480  0.64730  0.98677  Biso   1.000  C
  C29      1.0000 0.06410  0.84010  0.28860  Biso   1.000  C
  C30      1.0000 0.99610  0.76790  0.34280  Biso   1.000  C
  C31      1.0000 0.99240  0.63340  0.33700  Biso   1.000  C
  C32      1.0000 0.06500  0.57030  0.27930  Biso   1.000  C
  C33      1.0000 0.13350  0.64370  0.22750  Biso   1.000  C
  C34      1.0000 0.91380  0.55230  0.39130  Biso   1.000  C
  C35      1.0000 0.83810  0.60130  0.44590  Biso   1.000  C
  C36      1.0000 0.75390  0.53140  0.50160  Biso   1.000  C
  C37      1.0000 0.69050  0.60570  0.55850  Biso   1.000  C
  C38      1.0000 0.60950  0.55370  0.61250  Biso   1.000  C
  C39      1.0000 0.58960  0.42510  0.61380  Biso   1.000  C
  C40      1.0000 0.65190  0.34930  0.55640  Biso   1.000  C
  C41      1.0000 0.73310  0.40400  0.50040  Biso   1.000  C
  C42      1.0000 0.49850  0.39400  0.67750  Biso   1.000  C
  C43      1.0000 0.46240  0.28470  0.69630  Biso   1.000  C
  C44      1.0000 0.36440  0.26280  0.75910  Biso   1.000  C
  C45      1.0000 0.29040  0.35520  0.81080  Biso   1.000  C
  C46      1.0000 0.20620  0.30680  0.86700  Biso   1.000  C
  C47      1.0000 0.26030  0.09110  0.82420  Biso   1.000  C
  C48      1.0000 0.34540  0.13280  0.76690  Biso   1.000  C
  C49      1.0000 0.52700  0.74020  0.99367  Biso   1.000  C
  C50      1.0000 0.60870  0.58960  0.02016  Biso   1.000  C
  C51      1.0000 0.74190  0.51450  0.98490  Biso   1.000  C
  C52      1.0000 0.79150  0.58930  0.92398  Biso   1.000  C
  C53      1.0000 0.70790  0.73830  0.89714  Biso   1.000  C
  C54      1.0000 0.57670  0.81360  0.93205  Biso   1.000  C
  C55      1.0000 0.38660  0.82490  0.03141  Biso   1.000  C
  C56      1.0000 0.83520  0.35270  0.01323  Biso   1.000  C
  S1       1.0000 0.24047  0.17554  0.18820  Biso   1.000  S
  S2       1.0000 0.75953  0.82446  0.81180  Biso   1.000  S
  N1       1.0000 0.87060  0.21850  0.76952  Biso   1.000  N
  N2       1.0000 0.80890  0.82380  0.12576  Biso   1.000  N
  N3       1.0000 0.12940  0.78150  0.23048  Biso   1.000  N
  N4       1.0000 0.19110  0.17620  0.87424  Biso   1.000  N
  O1       1.0000 0.68560  0.04210  0.99858  Biso   1.000  O
  O2       1.0000 0.64950  0.23840  0.90857  Biso   1.000  O
  O3       1.0000 0.04700  0.70110  0.02500  Biso   1.000  O
  O4       1.0000 0.20670  0.71580  0.93194  Biso   1.000  O
  O5       1.0000 0.28760  0.01680  0.18301  Biso   1.000  O
  O6       1.0000 0.33140  0.19270  0.24455  Biso   1.000  O
  O7       1.0000 0.07760  0.24620  0.19452  Biso   1.000  O
  O8       1.0000 0.98140  0.98750  0.92582  Biso   1.000  O
  O9       1.0000 0.31440  0.95790  0.00142  Biso   1.000  O
  O10      1.0000 0.35050  0.76160  0.09143  Biso   1.000  O
  O11      1.0000 0.95300  0.29890  0.97500  Biso   1.000  O
  O12      1.0000 0.79330  0.28420  0.06806  Biso   1.000  O
  O13      1.0000 0.71240  0.98320  0.81699  Biso   1.000  O
  O14      1.0000 0.66860  0.80730  0.75545  Biso   1.000  O
  O15      1.0000 0.92240  0.75380  0.80548  Biso   1.000  O
  O16      1.0000 0.01860  0.01250  0.07418  Biso   1.000  O
