data_YUVGOL_clean
_audit_creation_date              2015-05-20
_audit_creation_method            'Materials Studio'
_symmetry_space_group_name_H-M    'P1'
_symmetry_Int_Tables_number       1
_symmetry_cell_setting            triclinic
loop_
_symmetry_equiv_pos_as_xyz
  x,y,z
_cell_length_a                    20.3067
_cell_length_b                    20.3067
_cell_length_c                    20.3067
_cell_angle_alpha                 109.4712
_cell_angle_beta                  109.4712
_cell_angle_gamma                 109.4712
loop_
_atom_site_label
_atom_site_type_symbol
_atom_site_fract_x
_atom_site_fract_y
_atom_site_fract_z
_atom_site_U_iso_or_equiv
_atom_site_adp_type
_atom_site_occupancy
H1     H     0.24520   0.58870   0.46410   0.01267  Uiso   1.00
H2     H     0.31060   0.53020   0.40140   0.01267  Uiso   1.00
C3     C     0.26130   0.54820   0.47970   0.01267  Uiso   1.00
C4     C     0.29820   0.51560   0.44400   0.01267  Uiso   1.00
H5     H     0.87540   0.41130   0.65650   0.01267  Uiso   1.00
H6     H     0.87120   0.46980   0.78040   0.01267  Uiso   1.00
C7     C     0.93150   0.45180   0.71310   0.01267  Uiso   1.00
C8     C     0.92840   0.48440   0.78260   0.01267  Uiso   1.00
H9     H     0.12460   0.78110   0.53590   0.01267  Uiso   1.00
H10    H     0.12880   0.90920   0.59860   0.01267  Uiso   1.00
C11    C     0.06850   0.78160   0.52030   0.01267  Uiso   1.00
C12    C     0.07160   0.85420   0.55600   0.01267  Uiso   1.00
H13    H     0.75480   0.21890   0.34350   0.01267  Uiso   1.00
H14    H     0.68940   0.09080   0.21960   0.01267  Uiso   1.00
C15    C     0.73870   0.21840   0.28690   0.01267  Uiso   1.00
C16    C     0.70180   0.14580   0.21740   0.01267  Uiso   1.00
H17    H     0.34350   0.58870   0.12460   0.01267  Uiso   1.00
H18    H     0.21960   0.53020   0.12880   0.01267  Uiso   1.00
C19    C     0.28690   0.54820   0.06850   0.01267  Uiso   1.00
C20    C     0.21740   0.51560   0.07160   0.01267  Uiso   1.00
H21    H     0.53590   0.41130   0.75480   0.01267  Uiso   1.00
H22    H     0.59860   0.46980   0.68940   0.01267  Uiso   1.00
C23    C     0.52030   0.45180   0.73870   0.01267  Uiso   1.00
C24    C     0.55600   0.48440   0.70180   0.01267  Uiso   1.00
H25    H     0.65650   0.78110   0.24520   0.01267  Uiso   1.00
H26    H     0.78040   0.90920   0.31060   0.01267  Uiso   1.00
C27    C     0.71310   0.78160   0.26130   0.01267  Uiso   1.00
C28    C     0.78260   0.85420   0.29820   0.01267  Uiso   1.00
H29    H     0.46410   0.21890   0.87540   0.01267  Uiso   1.00
H30    H     0.40140   0.09080   0.87120   0.01267  Uiso   1.00
C31    C     0.47970   0.21840   0.93150   0.01267  Uiso   1.00
C32    C     0.44400   0.14580   0.92840   0.01267  Uiso   1.00
Zn33   Zn    0.22104   0.61052   0.61052   0.01267  Uiso   1.00
Zn34   Zn   -0.00000   0.38948   0.61052   0.01267  Uiso   1.00
C35    C     0.31900   0.46380   0.46380   0.01267  Uiso   1.00
C36    C     0.36700   0.43490   0.43490   0.01267  Uiso   1.00
N37    N     0.24480   0.53230   0.53230   0.01267  Uiso   1.00
C38    C    -0.00000   0.53620   0.85520   0.01267  Uiso   1.00
C39    C     0.00000   0.56510   0.93210   0.01267  Uiso   1.00
N40    N    -0.00000   0.46770   0.71250   0.01267  Uiso   1.00
C41    C    -0.00000   0.85520   0.53620   0.01267  Uiso   1.00
C42    C    -0.00000   0.93210   0.56510   0.01267  Uiso   1.00
N43    N    -0.00000   0.71250   0.46770   0.01267  Uiso   1.00
C44    C     0.68100   0.14480   0.14480   0.01267  Uiso   1.00
C45    C     0.63300   0.06790   0.06790   0.01267  Uiso   1.00
N46    N     0.75520   0.28750   0.28750   0.01267  Uiso   1.00
N47    N     0.15090   0.62620   0.52470   0.01267  Uiso   1.00
C48    C     0.89850   0.37380   0.52470   0.01267  Uiso   1.00
N49    N     0.47530   0.62620   0.10150   0.01267  Uiso   1.00
C50    C     0.47530   0.37380   0.84910   0.01267  Uiso   1.00
N51    N     0.38870   0.38870   0.45960   0.01267  Uiso   1.00
N52    N     0.07090   0.61130   0.00000   0.01267  Uiso   1.00
N53    N     0.92910   0.92910   0.54040   0.01267  Uiso   1.00
N54    N     0.61130   0.07090   0.00000   0.01267  Uiso   1.00
H55    H     0.46410   0.24520   0.58870   0.01267  Uiso   1.00
H56    H     0.40140   0.31060   0.53020   0.01267  Uiso   1.00
C57    C     0.47970   0.26130   0.54820   0.01267  Uiso   1.00
C58    C     0.44400   0.29820   0.51560   0.01267  Uiso   1.00
H59    H     0.65650   0.87540   0.41130   0.01267  Uiso   1.00
H60    H     0.78040   0.87120   0.46980   0.01267  Uiso   1.00
C61    C     0.71310   0.93150   0.45180   0.01267  Uiso   1.00
C62    C     0.78260   0.92840   0.48440   0.01267  Uiso   1.00
H63    H     0.53590   0.12460   0.78110   0.01267  Uiso   1.00
H64    H     0.59860   0.12880   0.90920   0.01267  Uiso   1.00
C65    C     0.52030   0.06850   0.78160   0.01267  Uiso   1.00
C66    C     0.55600   0.07160   0.85420   0.01267  Uiso   1.00
H67    H     0.34350   0.75480   0.21890   0.01267  Uiso   1.00
H68    H     0.21960   0.68940   0.09080   0.01267  Uiso   1.00
C69    C     0.28690   0.73870   0.21840   0.01267  Uiso   1.00
C70    C     0.21740   0.70180   0.14580   0.01267  Uiso   1.00
H71    H     0.12460   0.34350   0.58870   0.01267  Uiso   1.00
H72    H     0.12880   0.21960   0.53020   0.01267  Uiso   1.00
C73    C     0.06850   0.28690   0.54820   0.01267  Uiso   1.00
C74    C     0.07160   0.21740   0.51560   0.01267  Uiso   1.00
H75    H     0.75480   0.53590   0.41130   0.01267  Uiso   1.00
H76    H     0.68940   0.59860   0.46980   0.01267  Uiso   1.00
C77    C     0.73870   0.52030   0.45180   0.01267  Uiso   1.00
C78    C     0.70180   0.55600   0.48440   0.01267  Uiso   1.00
H79    H     0.24520   0.65650   0.78110   0.01267  Uiso   1.00
H80    H     0.31060   0.78040   0.90920   0.01267  Uiso   1.00
C81    C     0.26130   0.71310   0.78160   0.01267  Uiso   1.00
C82    C     0.29820   0.78260   0.85420   0.01267  Uiso   1.00
H83    H     0.87540   0.46410   0.21890   0.01267  Uiso   1.00
H84    H     0.87120   0.40140   0.09080   0.01267  Uiso   1.00
C85    C     0.93150   0.47970   0.21840   0.01267  Uiso   1.00
C86    C     0.92840   0.44400   0.14580   0.01267  Uiso   1.00
Zn87   Zn    0.61052   0.22104   0.61052   0.01267  Uiso   1.00
Zn88   Zn    0.61052  -0.00000   0.38948   0.01267  Uiso   1.00
C89    C     0.46380   0.31900   0.46380   0.01267  Uiso   1.00
C90    C     0.43490   0.36700   0.43490   0.01267  Uiso   1.00
N91    N     0.53230   0.24480   0.53230   0.01267  Uiso   1.00
C92    C     0.85520   0.00000   0.53620   0.01267  Uiso   1.00
C93    C     0.93210  -0.00000   0.56510   0.01267  Uiso   1.00
N94    N     0.71250   0.00000   0.46770   0.01267  Uiso   1.00
C95    C     0.53620  -0.00000   0.85520   0.01267  Uiso   1.00
C96    C     0.56510  -0.00000   0.93210   0.01267  Uiso   1.00
N97    N     0.46770   0.00000   0.71250   0.01267  Uiso   1.00
C98    C     0.14480   0.68100   0.14480   0.01267  Uiso   1.00
C99    C     0.06790   0.63300   0.06790   0.01267  Uiso   1.00
N100   N     0.28750   0.75520   0.28750   0.01267  Uiso   1.00
N101   N     0.52470   0.15090   0.62620   0.01267  Uiso   1.00
C102   C     0.52470   0.89850   0.37380   0.01267  Uiso   1.00
N103   N     0.10150   0.47530   0.62620   0.01267  Uiso   1.00
C104   C     0.84910   0.47530   0.37380   0.01267  Uiso   1.00
N105   N     0.45960   0.38870   0.38870   0.01267  Uiso   1.00
N106   N     0.00000   0.07090   0.61130   0.01267  Uiso   1.00
N107   N     0.54040   0.92910   0.92910   0.01267  Uiso   1.00
N108   N     0.00000   0.61130   0.07090   0.01267  Uiso   1.00
H109   H     0.58870   0.46410   0.24520   0.01267  Uiso   1.00
H110   H     0.53020   0.40140   0.31060   0.01267  Uiso   1.00
C111   C     0.54820   0.47970   0.26130   0.01267  Uiso   1.00
C112   C     0.51560   0.44400   0.29820   0.01267  Uiso   1.00
H113   H     0.41130   0.65650   0.87540   0.01267  Uiso   1.00
H114   H     0.46980   0.78040   0.87120   0.01267  Uiso   1.00
C115   C     0.45180   0.71310   0.93150   0.01267  Uiso   1.00
C116   C     0.48440   0.78260   0.92840   0.01267  Uiso   1.00
H117   H     0.78110   0.53590   0.12460   0.01267  Uiso   1.00
H118   H     0.90920   0.59860   0.12880   0.01267  Uiso   1.00
C119   C     0.78160   0.52030   0.06850   0.01267  Uiso   1.00
C120   C     0.85420   0.55600   0.07160   0.01267  Uiso   1.00
H121   H     0.21890   0.34350   0.75480   0.01267  Uiso   1.00
H122   H     0.09080   0.21960   0.68940   0.01267  Uiso   1.00
C123   C     0.21840   0.28690   0.73870   0.01267  Uiso   1.00
C124   C     0.14580   0.21740   0.70180   0.01267  Uiso   1.00
H125   H     0.58870   0.12460   0.34350   0.01267  Uiso   1.00
H126   H     0.53020   0.12880   0.21960   0.01267  Uiso   1.00
C127   C     0.54820   0.06850   0.28690   0.01267  Uiso   1.00
C128   C     0.51560   0.07160   0.21740   0.01267  Uiso   1.00
H129   H     0.41130   0.75480   0.53590   0.01267  Uiso   1.00
H130   H     0.46980   0.68940   0.59860   0.01267  Uiso   1.00
C131   C     0.45180   0.73870   0.52030   0.01267  Uiso   1.00
C132   C     0.48440   0.70180   0.55600   0.01267  Uiso   1.00
H133   H     0.78110   0.24520   0.65650   0.01267  Uiso   1.00
H134   H     0.90920   0.31060   0.78040   0.01267  Uiso   1.00
C135   C     0.78160   0.26130   0.71310   0.01267  Uiso   1.00
C136   C     0.85420   0.29820   0.78260   0.01267  Uiso   1.00
H137   H     0.21890   0.87540   0.46410   0.01267  Uiso   1.00
H138   H     0.09080   0.87120   0.40140   0.01267  Uiso   1.00
C139   C     0.21840   0.93150   0.47970   0.01267  Uiso   1.00
C140   C     0.14580   0.92840   0.44400   0.01267  Uiso   1.00
Zn141  Zn    0.61052   0.61052   0.22104   0.01267  Uiso   1.00
Zn142  Zn    0.38948   0.61052  -0.00000   0.01267  Uiso   1.00
C143   C     0.46380   0.46380   0.31900   0.01267  Uiso   1.00
C144   C     0.43490   0.43490   0.36700   0.01267  Uiso   1.00
N145   N     0.53230   0.53230   0.24480   0.01267  Uiso   1.00
C146   C     0.53620   0.85520  -0.00000   0.01267  Uiso   1.00
C147   C     0.56510   0.93210   0.00000   0.01267  Uiso   1.00
N148   N     0.46770   0.71250   0.00000   0.01267  Uiso   1.00
C149   C     0.85520   0.53620  -0.00000   0.01267  Uiso   1.00
C150   C     0.93210   0.56510  -0.00000   0.01267  Uiso   1.00
N151   N     0.71250   0.46770   0.00000   0.01267  Uiso   1.00
C152   C     0.14480   0.14480   0.68100   0.01267  Uiso   1.00
C153   C     0.06790   0.06790   0.63300   0.01267  Uiso   1.00
N154   N     0.28750   0.28750   0.75520   0.01267  Uiso   1.00
N155   N     0.62620   0.52470   0.15090   0.01267  Uiso   1.00
C156   C     0.37380   0.52470   0.89850   0.01267  Uiso   1.00
N157   N     0.62620   0.10150   0.47530   0.01267  Uiso   1.00
C158   C     0.37380   0.84910   0.47530   0.01267  Uiso   1.00
N159   N     0.38870   0.45960   0.38870   0.01267  Uiso   1.00
N160   N     0.61130   0.00000   0.07090   0.01267  Uiso   1.00
N161   N     0.92910   0.54040   0.92910   0.01267  Uiso   1.00
N162   N     0.07090   0.00000   0.61130   0.01267  Uiso   1.00
H163   H     0.75480   0.41130   0.53590   0.01267  Uiso   1.00
H164   H     0.68940   0.46980   0.59860   0.01267  Uiso   1.00
C165   C     0.73870   0.45180   0.52030   0.01267  Uiso   1.00
C166   C     0.70180   0.48440   0.55600   0.01267  Uiso   1.00
H167   H     0.12460   0.58870   0.34350   0.01267  Uiso   1.00
H168   H     0.12880   0.53020   0.21960   0.01267  Uiso   1.00
C169   C     0.06850   0.54820   0.28690   0.01267  Uiso   1.00
C170   C     0.07160   0.51560   0.21740   0.01267  Uiso   1.00
H171   H     0.87540   0.21890   0.46410   0.01267  Uiso   1.00
H172   H     0.87120   0.09080   0.40140   0.01267  Uiso   1.00
C173   C     0.93150   0.21840   0.47970   0.01267  Uiso   1.00
C174   C     0.92840   0.14580   0.44400   0.01267  Uiso   1.00
H175   H     0.24520   0.78110   0.65650   0.01267  Uiso   1.00
H176   H     0.31060   0.90920   0.78040   0.01267  Uiso   1.00
C177   C     0.26130   0.78160   0.71310   0.01267  Uiso   1.00
C178   C     0.29820   0.85420   0.78260   0.01267  Uiso   1.00
H179   H     0.65650   0.41130   0.87540   0.01267  Uiso   1.00
H180   H     0.78040   0.46980   0.87120   0.01267  Uiso   1.00
C181   C     0.71310   0.45180   0.93150   0.01267  Uiso   1.00
C182   C     0.78260   0.48440   0.92840   0.01267  Uiso   1.00
H183   H     0.46410   0.58870   0.24520   0.01267  Uiso   1.00
H184   H     0.40140   0.53020   0.31060   0.01267  Uiso   1.00
C185   C     0.47970   0.54820   0.26130   0.01267  Uiso   1.00
C186   C     0.44400   0.51560   0.29820   0.01267  Uiso   1.00
H187   H     0.34350   0.21890   0.75480   0.01267  Uiso   1.00
H188   H     0.21960   0.09080   0.68940   0.01267  Uiso   1.00
C189   C     0.28690   0.21840   0.73870   0.01267  Uiso   1.00
C190   C     0.21740   0.14580   0.70180   0.01267  Uiso   1.00
H191   H     0.53590   0.78110   0.12460   0.01267  Uiso   1.00
H192   H     0.59860   0.90920   0.12880   0.01267  Uiso   1.00
C193   C     0.52030   0.78160   0.06850   0.01267  Uiso   1.00
C194   C     0.55600   0.85420   0.07160   0.01267  Uiso   1.00
Zn195  Zn    0.77896   0.38948   0.38948   0.01267  Uiso   1.00
Zn196  Zn   -0.00000   0.61052   0.38948   0.01267  Uiso   1.00
C197   C     0.68100   0.53620   0.53620   0.01267  Uiso   1.00
C198   C     0.63300   0.56510   0.56510   0.01267  Uiso   1.00
N199   N     0.75520   0.46770   0.46770   0.01267  Uiso   1.00
C200   C    -0.00000   0.46380   0.14480   0.01267  Uiso   1.00
C201   C    -0.00000   0.43490   0.06790   0.01267  Uiso   1.00
N202   N    -0.00000   0.53230   0.28750   0.01267  Uiso   1.00
C203   C    -0.00000   0.14480   0.46380   0.01267  Uiso   1.00
C204   C     0.00000   0.06790   0.43490   0.01267  Uiso   1.00
N205   N    -0.00000   0.28750   0.53230   0.01267  Uiso   1.00
C206   C     0.31900   0.85520   0.85520   0.01267  Uiso   1.00
C207   C     0.36700   0.93210   0.93210   0.01267  Uiso   1.00
N208   N     0.24480   0.71250   0.71250   0.01267  Uiso   1.00
N209   N     0.84910   0.37380   0.47530   0.01267  Uiso   1.00
C210   C     0.10150   0.62620   0.47530   0.01267  Uiso   1.00
N211   N     0.52470   0.37380   0.89850   0.01267  Uiso   1.00
C212   C     0.52470   0.62620   0.15090   0.01267  Uiso   1.00
N213   N     0.61130   0.61130   0.54040   0.01267  Uiso   1.00
N214   N     0.92910   0.38870  -0.00000   0.01267  Uiso   1.00
N215   N     0.07090   0.07090   0.45960   0.01267  Uiso   1.00
N216   N     0.38870   0.92910  -0.00000   0.01267  Uiso   1.00
H217   H     0.53590   0.75480   0.41130   0.01267  Uiso   1.00
H218   H     0.59860   0.68940   0.46980   0.01267  Uiso   1.00
C219   C     0.52030   0.73870   0.45180   0.01267  Uiso   1.00
C220   C     0.55600   0.70180   0.48440   0.01267  Uiso   1.00
H221   H     0.34350   0.12460   0.58870   0.01267  Uiso   1.00
H222   H     0.21960   0.12880   0.53020   0.01267  Uiso   1.00
C223   C     0.28690   0.06850   0.54820   0.01267  Uiso   1.00
C224   C     0.21740   0.07160   0.51560   0.01267  Uiso   1.00
H225   H     0.46410   0.87540   0.21890   0.01267  Uiso   1.00
H226   H     0.40140   0.87120   0.09080   0.01267  Uiso   1.00
C227   C     0.47970   0.93150   0.21840   0.01267  Uiso   1.00
C228   C     0.44400   0.92840   0.14580   0.01267  Uiso   1.00
H229   H     0.65650   0.24520   0.78110   0.01267  Uiso   1.00
H230   H     0.78040   0.31060   0.90920   0.01267  Uiso   1.00
C231   C     0.71310   0.26130   0.78160   0.01267  Uiso   1.00
C232   C     0.78260   0.29820   0.85420   0.01267  Uiso   1.00
H233   H     0.87540   0.65650   0.41130   0.01267  Uiso   1.00
H234   H     0.87120   0.78040   0.46980   0.01267  Uiso   1.00
C235   C     0.93150   0.71310   0.45180   0.01267  Uiso   1.00
C236   C     0.92840   0.78260   0.48440   0.01267  Uiso   1.00
H237   H     0.24520   0.46410   0.58870   0.01267  Uiso   1.00
H238   H     0.31060   0.40140   0.53020   0.01267  Uiso   1.00
C239   C     0.26130   0.47970   0.54820   0.01267  Uiso   1.00
C240   C     0.29820   0.44400   0.51560   0.01267  Uiso   1.00
H241   H     0.75480   0.34350   0.21890   0.01267  Uiso   1.00
H242   H     0.68940   0.21960   0.09080   0.01267  Uiso   1.00
C243   C     0.73870   0.28690   0.21840   0.01267  Uiso   1.00
C244   C     0.70180   0.21740   0.14580   0.01267  Uiso   1.00
H245   H     0.12460   0.53590   0.78110   0.01267  Uiso   1.00
H246   H     0.12880   0.59860   0.90920   0.01267  Uiso   1.00
C247   C     0.06850   0.52030   0.78160   0.01267  Uiso   1.00
C248   C     0.07160   0.55600   0.85420   0.01267  Uiso   1.00
Zn249  Zn    0.38948   0.77896   0.38948   0.01267  Uiso   1.00
Zn250  Zn    0.38948   0.00000   0.61052   0.01267  Uiso   1.00
C251   C     0.53620   0.68100   0.53620   0.01267  Uiso   1.00
C252   C     0.56510   0.63300   0.56510   0.01267  Uiso   1.00
N253   N     0.46770   0.75520   0.46770   0.01267  Uiso   1.00
C254   C     0.14480   0.00000   0.46380   0.01267  Uiso   1.00
C255   C     0.06790  -0.00000   0.43490   0.01267  Uiso   1.00
N256   N     0.28750   0.00000   0.53230   0.01267  Uiso   1.00
C257   C     0.46380   0.00000   0.14480   0.01267  Uiso   1.00
C258   C     0.43490   0.00000   0.06790   0.01267  Uiso   1.00
N259   N     0.53230  -0.00000   0.28750   0.01267  Uiso   1.00
C260   C     0.85520   0.31900   0.85520   0.01267  Uiso   1.00
C261   C     0.93210   0.36700   0.93210   0.01267  Uiso   1.00
N262   N     0.71250   0.24480   0.71250   0.01267  Uiso   1.00
N263   N     0.47530   0.84910   0.37380   0.01267  Uiso   1.00
C264   C     0.47530   0.10150   0.62620   0.01267  Uiso   1.00
N265   N     0.89850   0.52470   0.37380   0.01267  Uiso   1.00
C266   C     0.15090   0.52470   0.62620   0.01267  Uiso   1.00
N267   N     0.54040   0.61130   0.61130   0.01267  Uiso   1.00
N268   N    -0.00000   0.92910   0.38870   0.01267  Uiso   1.00
N269   N     0.45960   0.07090   0.07090   0.01267  Uiso   1.00
N270   N    -0.00000   0.38870   0.92910   0.01267  Uiso   1.00
H271   H     0.41130   0.53590   0.75480   0.01267  Uiso   1.00
H272   H     0.46980   0.59860   0.68940   0.01267  Uiso   1.00
C273   C     0.45180   0.52030   0.73870   0.01267  Uiso   1.00
C274   C     0.48440   0.55600   0.70180   0.01267  Uiso   1.00
H275   H     0.58870   0.34350   0.12460   0.01267  Uiso   1.00
H276   H     0.53020   0.21960   0.12880   0.01267  Uiso   1.00
C277   C     0.54820   0.28690   0.06850   0.01267  Uiso   1.00
C278   C     0.51560   0.21740   0.07160   0.01267  Uiso   1.00
H279   H     0.21890   0.46410   0.87540   0.01267  Uiso   1.00
H280   H     0.09080   0.40140   0.87120   0.01267  Uiso   1.00
C281   C     0.21840   0.47970   0.93150   0.01267  Uiso   1.00
C282   C     0.14580   0.44400   0.92840   0.01267  Uiso   1.00
H283   H     0.78110   0.65650   0.24520   0.01267  Uiso   1.00
H284   H     0.90920   0.78040   0.31060   0.01267  Uiso   1.00
C285   C     0.78160   0.71310   0.26130   0.01267  Uiso   1.00
C286   C     0.85420   0.78260   0.29820   0.01267  Uiso   1.00
H287   H     0.41130   0.87540   0.65650   0.01267  Uiso   1.00
H288   H     0.46980   0.87120   0.78040   0.01267  Uiso   1.00
C289   C     0.45180   0.93150   0.71310   0.01267  Uiso   1.00
C290   C     0.48440   0.92840   0.78260   0.01267  Uiso   1.00
H291   H     0.58870   0.24520   0.46410   0.01267  Uiso   1.00
H292   H     0.53020   0.31060   0.40140   0.01267  Uiso   1.00
C293   C     0.54820   0.26130   0.47970   0.01267  Uiso   1.00
C294   C     0.51560   0.29820   0.44400   0.01267  Uiso   1.00
H295   H     0.21890   0.75480   0.34350   0.01267  Uiso   1.00
H296   H     0.09080   0.68940   0.21960   0.01267  Uiso   1.00
C297   C     0.21840   0.73870   0.28690   0.01267  Uiso   1.00
C298   C     0.14580   0.70180   0.21740   0.01267  Uiso   1.00
H299   H     0.78110   0.12460   0.53590   0.01267  Uiso   1.00
H300   H     0.90920   0.12880   0.59860   0.01267  Uiso   1.00
C301   C     0.78160   0.06850   0.52030   0.01267  Uiso   1.00
C302   C     0.85420   0.07160   0.55600   0.01267  Uiso   1.00
Zn303  Zn    0.38948   0.38948   0.77896   0.01267  Uiso   1.00
Zn304  Zn    0.61052   0.38948   0.00000   0.01267  Uiso   1.00
C305   C     0.53620   0.53620   0.68100   0.01267  Uiso   1.00
C306   C     0.56510   0.56510   0.63300   0.01267  Uiso   1.00
N307   N     0.46770   0.46770   0.75520   0.01267  Uiso   1.00
C308   C     0.46380   0.14480   0.00000   0.01267  Uiso   1.00
C309   C     0.43490   0.06790  -0.00000   0.01267  Uiso   1.00
N310   N     0.53230   0.28750  -0.00000   0.01267  Uiso   1.00
C311   C     0.14480   0.46380   0.00000   0.01267  Uiso   1.00
C312   C     0.06790   0.43490  -0.00000   0.01267  Uiso   1.00
N313   N     0.28750   0.53230  -0.00000   0.01267  Uiso   1.00
C314   C     0.85520   0.85520   0.31900   0.01267  Uiso   1.00
C315   C     0.93210   0.93210   0.36700   0.01267  Uiso   1.00
N316   N     0.71250   0.71250   0.24480   0.01267  Uiso   1.00
N317   N     0.37380   0.47530   0.84910   0.01267  Uiso   1.00
C318   C     0.62620   0.47530   0.10150   0.01267  Uiso   1.00
N319   N     0.37380   0.89850   0.52470   0.01267  Uiso   1.00
C320   C     0.62620   0.15090   0.52470   0.01267  Uiso   1.00
N321   N     0.61130   0.54040   0.61130   0.01267  Uiso   1.00
N322   N     0.38870  -0.00000   0.92910   0.01267  Uiso   1.00
N323   N     0.07090   0.45960   0.07090   0.01267  Uiso   1.00
N324   N     0.92910  -0.00000   0.38870   0.01267  Uiso   1.00
