data_image0
_cell_length_a       11.72
_cell_length_b       13.7
_cell_length_c       21.05
_cell_angle_alpha    90
_cell_angle_beta     90
_cell_angle_gamma    90

_symmetry_space_group_name_H-M    P 1
_symmetry_int_tables_number       1

loop_
  _symmetry_equiv_pos_as_xyz
  'x, y, z'

loop_
  _atom_site_label
  _atom_site_occupancy
  _atom_site_fract_x
  _atom_site_fract_y
  _atom_site_fract_z
  _atom_site_thermal_displace_type
  _atom_site_B_iso_or_equiv
  _atom_site_type_symbol
  Cd1      1.0000 0.00000  0.59869  0.43433  Biso   1.000  Cd
  Cd2      1.0000 0.00000  0.40131  0.56567  Biso   1.000  Cd
  Cd3      1.0000 0.00000  0.90131  0.93433  Biso   1.000  Cd
  Cd4      1.0000 0.00000  0.09869  0.06567  Biso   1.000  Cd
  H1       1.0000 0.78330  0.47240  0.38030  Biso   1.000  H
  H2       1.0000 0.58530  0.47270  0.37850  Biso   1.000  H
  H3       1.0000 0.58280  0.71380  0.48730  Biso   1.000  H
  H4       1.0000 0.78070  0.71350  0.48900  Biso   1.000  H
  H5       1.0000 0.78330  0.52760  0.61970  Biso   1.000  H
  H6       1.0000 0.58530  0.52730  0.62150  Biso   1.000  H
  H7       1.0000 0.58280  0.28620  0.51270  Biso   1.000  H
  H8       1.0000 0.78070  0.28650  0.51100  Biso   1.000  H
  H9       1.0000 0.21670  0.02760  0.88030  Biso   1.000  H
  H10      1.0000 0.41470  0.02730  0.87850  Biso   1.000  H
  H11      1.0000 0.41720  0.78620  0.98730  Biso   1.000  H
  H12      1.0000 0.21930  0.78650  0.98900  Biso   1.000  H
  H13      1.0000 0.21670  0.97240  0.11970  Biso   1.000  H
  H14      1.0000 0.41470  0.97270  0.12150  Biso   1.000  H
  H15      1.0000 0.41720  0.21380  0.01270  Biso   1.000  H
  H16      1.0000 0.21930  0.21350  0.01100  Biso   1.000  H
  H17      1.0000 0.21670  0.52760  0.61970  Biso   1.000  H
  H18      1.0000 0.41470  0.52730  0.62150  Biso   1.000  H
  H19      1.0000 0.41720  0.28620  0.51270  Biso   1.000  H
  H20      1.0000 0.21930  0.28650  0.51100  Biso   1.000  H
  H21      1.0000 0.21670  0.47240  0.38030  Biso   1.000  H
  H22      1.0000 0.41470  0.47270  0.37850  Biso   1.000  H
  H23      1.0000 0.41720  0.71380  0.48730  Biso   1.000  H
  H24      1.0000 0.21930  0.71350  0.48900  Biso   1.000  H
  H25      1.0000 0.78330  0.97240  0.11970  Biso   1.000  H
  H26      1.0000 0.58530  0.97270  0.12150  Biso   1.000  H
  H27      1.0000 0.58280  0.21380  0.01270  Biso   1.000  H
  H28      1.0000 0.78070  0.21350  0.01100  Biso   1.000  H
  H29      1.0000 0.78330  0.02760  0.88030  Biso   1.000  H
  H30      1.0000 0.58530  0.02730  0.87850  Biso   1.000  H
  H31      1.0000 0.58280  0.78620  0.98730  Biso   1.000  H
  H32      1.0000 0.78070  0.78650  0.98900  Biso   1.000  H
  H33      1.0000 0.00000  0.57720  0.67380  Biso   1.000  H
  H34      1.0000 0.00000  0.65100  0.76900  Biso   1.000  H
  H35      1.0000 0.00000  0.84300  0.59780  Biso   1.000  H
  H36      1.0000 0.00000  0.97540  0.66260  Biso   1.000  H
  H37      1.0000 0.00000  0.96920  0.73660  Biso   1.000  H
  H38      1.0000 0.00000  0.42280  0.32620  Biso   1.000  H
  H39      1.0000 0.00000  0.34900  0.23100  Biso   1.000  H
  H40      1.0000 0.00000  0.15700  0.40220  Biso   1.000  H
  H41      1.0000 0.00000  0.02460  0.33740  Biso   1.000  H
  H42      1.0000 0.00000  0.03080  0.26340  Biso   1.000  H
  H43      1.0000 0.00000  0.92280  0.17380  Biso   1.000  H
  H44      1.0000 0.00000  0.84900  0.26900  Biso   1.000  H
  H45      1.0000 0.00000  0.65700  0.09780  Biso   1.000  H
  H46      1.0000 0.00000  0.52460  0.16260  Biso   1.000  H
  H47      1.0000 0.00000  0.53080  0.23660  Biso   1.000  H
  H48      1.0000 0.00000  0.07720  0.82620  Biso   1.000  H
  H49      1.0000 0.00000  0.15100  0.73100  Biso   1.000  H
  H50      1.0000 0.00000  0.34300  0.90220  Biso   1.000  H
  H51      1.0000 0.00000  0.47540  0.83740  Biso   1.000  H
  H52      1.0000 0.00000  0.46920  0.76340  Biso   1.000  H
  C1       1.0000 0.74310  0.52080  0.40173  Biso   1.000  C
  C2       1.0000 0.62450  0.52100  0.40069  Biso   1.000  C
  C3       1.0000 0.56442  0.59330  0.43273  Biso   1.000  C
  C4       1.0000 0.62290  0.66540  0.46581  Biso   1.000  C
  C5       1.0000 0.74150  0.66520  0.46686  Biso   1.000  C
  C6       1.0000 0.74310  0.47920  0.59827  Biso   1.000  C
  C7       1.0000 0.62450  0.47900  0.59931  Biso   1.000  C
  C8       1.0000 0.56442  0.40670  0.56727  Biso   1.000  C
  C9       1.0000 0.62290  0.33460  0.53419  Biso   1.000  C
  C10      1.0000 0.74150  0.33480  0.53314  Biso   1.000  C
  C11      1.0000 0.25690  0.97920  0.90173  Biso   1.000  C
  C12      1.0000 0.37550  0.97900  0.90069  Biso   1.000  C
  C13      1.0000 0.43558  0.90670  0.93273  Biso   1.000  C
  C14      1.0000 0.37710  0.83460  0.96581  Biso   1.000  C
  C15      1.0000 0.25850  0.83480  0.96686  Biso   1.000  C
  C16      1.0000 0.25690  0.02080  0.09827  Biso   1.000  C
  C17      1.0000 0.37550  0.02100  0.09931  Biso   1.000  C
  C18      1.0000 0.43558  0.09330  0.06727  Biso   1.000  C
  C19      1.0000 0.37710  0.16540  0.03419  Biso   1.000  C
  C20      1.0000 0.25850  0.16520  0.03314  Biso   1.000  C
  C21      1.0000 0.25690  0.47920  0.59827  Biso   1.000  C
  C22      1.0000 0.37550  0.47900  0.59931  Biso   1.000  C
  C23      1.0000 0.43558  0.40670  0.56727  Biso   1.000  C
  C24      1.0000 0.37710  0.33460  0.53419  Biso   1.000  C
  C25      1.0000 0.25850  0.33480  0.53314  Biso   1.000  C
  C26      1.0000 0.25690  0.52080  0.40173  Biso   1.000  C
  C27      1.0000 0.37550  0.52100  0.40069  Biso   1.000  C
  C28      1.0000 0.43558  0.59330  0.43273  Biso   1.000  C
  C29      1.0000 0.37710  0.66540  0.46581  Biso   1.000  C
  C30      1.0000 0.25850  0.66520  0.46686  Biso   1.000  C
  C31      1.0000 0.74310  0.02080  0.09827  Biso   1.000  C
  C32      1.0000 0.62450  0.02100  0.09931  Biso   1.000  C
  C33      1.0000 0.56442  0.09330  0.06727  Biso   1.000  C
  C34      1.0000 0.62290  0.16540  0.03419  Biso   1.000  C
  C35      1.0000 0.74150  0.16520  0.03314  Biso   1.000  C
  C36      1.0000 0.74310  0.97920  0.90173  Biso   1.000  C
  C37      1.0000 0.62450  0.97900  0.90069  Biso   1.000  C
  C38      1.0000 0.56442  0.90670  0.93273  Biso   1.000  C
  C39      1.0000 0.62290  0.83460  0.96581  Biso   1.000  C
  C40      1.0000 0.74150  0.83480  0.96686  Biso   1.000  C
  C41      1.0000 0.00000  0.66120  0.56020  Biso   1.000  C
  C42      1.0000 0.00000  0.70400  0.62660  Biso   1.000  C
  C43      1.0000 0.00000  0.64460  0.67870  Biso   1.000  C
  C44      1.0000 0.00000  0.68620  0.73920  Biso   1.000  C
  C45      1.0000 0.00000  0.80220  0.63480  Biso   1.000  C
  C46      1.0000 0.00000  0.84270  0.69490  Biso   1.000  C
  C47      1.0000 0.00000  0.78380  0.74834  Biso   1.000  C
  C48      1.0000 0.00000  0.82390  0.81473  Biso   1.000  C
  C49      1.0000 0.00000  0.33880  0.43980  Biso   1.000  C
  C50      1.0000 0.00000  0.29600  0.37340  Biso   1.000  C
  C51      1.0000 0.00000  0.35540  0.32130  Biso   1.000  C
  C52      1.0000 0.00000  0.31380  0.26080  Biso   1.000  C
  C53      1.0000 0.00000  0.19780  0.36520  Biso   1.000  C
  C54      1.0000 0.00000  0.15730  0.30510  Biso   1.000  C
  C55      1.0000 0.00000  0.21620  0.25166  Biso   1.000  C
  C56      1.0000 0.00000  0.17610  0.18527  Biso   1.000  C
  C57      1.0000 0.00000  0.83880  0.06020  Biso   1.000  C
  C58      1.0000 0.00000  0.79600  0.12660  Biso   1.000  C
  C59      1.0000 0.00000  0.85540  0.17870  Biso   1.000  C
  C60      1.0000 0.00000  0.81380  0.23920  Biso   1.000  C
  C61      1.0000 0.00000  0.69780  0.13480  Biso   1.000  C
  C62      1.0000 0.00000  0.65730  0.19490  Biso   1.000  C
  C63      1.0000 0.00000  0.71620  0.24834  Biso   1.000  C
  C64      1.0000 0.00000  0.67610  0.31473  Biso   1.000  C
  C65      1.0000 0.00000  0.16120  0.93980  Biso   1.000  C
  C66      1.0000 0.00000  0.20400  0.87340  Biso   1.000  C
  C67      1.0000 0.00000  0.14460  0.82130  Biso   1.000  C
  C68      1.0000 0.00000  0.18620  0.76080  Biso   1.000  C
  C69      1.0000 0.00000  0.30220  0.86520  Biso   1.000  C
  C70      1.0000 0.00000  0.34270  0.80510  Biso   1.000  C
  C71      1.0000 0.00000  0.28380  0.75166  Biso   1.000  C
  C72      1.0000 0.00000  0.32390  0.68527  Biso   1.000  C
  N1       1.0000 0.80160  0.59290  0.43482  Biso   1.000  N
  N2       1.0000 0.80160  0.40710  0.56518  Biso   1.000  N
  N3       1.0000 0.19840  0.90710  0.93482  Biso   1.000  N
  N4       1.0000 0.19840  0.09290  0.06518  Biso   1.000  N
  N5       1.0000 0.19840  0.40710  0.56518  Biso   1.000  N
  N6       1.0000 0.19840  0.59290  0.43482  Biso   1.000  N
  N7       1.0000 0.80160  0.09290  0.06518  Biso   1.000  N
  N8       1.0000 0.80160  0.90710  0.93482  Biso   1.000  N
  N9       1.0000 0.00000  0.93950  0.69840  Biso   1.000  N
  N10      1.0000 0.00000  0.06050  0.30160  Biso   1.000  N
  N11      1.0000 0.00000  0.56050  0.19840  Biso   1.000  N
  N12      1.0000 0.00000  0.43950  0.80160  Biso   1.000  N
  O1       1.0000 0.00000  0.71710  0.51375  Biso   1.000  O
  O2       1.0000 0.00000  0.57110  0.55392  Biso   1.000  O
  O3       1.0000 0.00000  0.76680  0.86069  Biso   1.000  O
  O4       1.0000 0.00000  0.91260  0.82263  Biso   1.000  O
  O5       1.0000 0.00000  0.28290  0.48625  Biso   1.000  O
  O6       1.0000 0.00000  0.42890  0.44608  Biso   1.000  O
  O7       1.0000 0.00000  0.23320  0.13931  Biso   1.000  O
  O8       1.0000 0.00000  0.08740  0.17737  Biso   1.000  O
  O9       1.0000 0.00000  0.78290  0.01375  Biso   1.000  O
  O10      1.0000 0.00000  0.92890  0.05392  Biso   1.000  O
  O11      1.0000 0.00000  0.73320  0.36069  Biso   1.000  O
  O12      1.0000 0.00000  0.58740  0.32263  Biso   1.000  O
  O13      1.0000 0.00000  0.21710  0.98625  Biso   1.000  O
  O14      1.0000 0.00000  0.07110  0.94608  Biso   1.000  O
  O15      1.0000 0.00000  0.26680  0.63931  Biso   1.000  O
  O16      1.0000 0.00000  0.41260  0.67737  Biso   1.000  O
