data_image0
_cell_length_a       11.69
_cell_length_b       25.29
_cell_length_c       25.29
_cell_angle_alpha    120
_cell_angle_beta     90
_cell_angle_gamma    90

_symmetry_space_group_name_H-M    P 1
_symmetry_int_tables_number       1

loop_
  _symmetry_equiv_pos_as_xyz
  'x, y, z'

loop_
  _atom_site_label
  _atom_site_occupancy
  _atom_site_fract_x
  _atom_site_fract_y
  _atom_site_fract_z
  _atom_site_thermal_displace_type
  _atom_site_B_iso_or_equiv
  _atom_site_type_symbol
  Cd1      1.0000 0.00000  0.41239  0.93747  Biso   1.000  Cd
  Cd2      1.0000 0.00000  0.52508  0.58761  Biso   1.000  Cd
  Cd3      1.0000 0.00000  0.06253  0.47492  Biso   1.000  Cd
  Cd4      1.0000 0.00000  0.58761  0.06253  Biso   1.000  Cd
  Cd5      1.0000 0.00000  0.47492  0.41239  Biso   1.000  Cd
  Cd6      1.0000 0.00000  0.93747  0.52508  Biso   1.000  Cd
  H1       1.0000 0.22020  0.38250  0.98870  Biso   1.000  H
  H2       1.0000 0.41500  0.38650  0.99280  Biso   1.000  H
  H3       1.0000 0.41050  0.44710  0.87970  Biso   1.000  H
  H4       1.0000 0.21630  0.44930  0.88420  Biso   1.000  H
  H5       1.0000 0.22020  0.60620  0.61750  Biso   1.000  H
  H6       1.0000 0.41500  0.60630  0.61350  Biso   1.000  H
  H7       1.0000 0.41050  0.43260  0.55290  Biso   1.000  H
  H8       1.0000 0.21630  0.43490  0.55070  Biso   1.000  H
  H9       1.0000 0.22020  0.01130  0.39380  Biso   1.000  H
  H10      1.0000 0.41500  0.00720  0.39370  Biso   1.000  H
  H11      1.0000 0.41050  0.12030  0.56740  Biso   1.000  H
  H12      1.0000 0.21630  0.11580  0.56510  Biso   1.000  H
  H13      1.0000 0.22020  0.61750  0.01130  Biso   1.000  H
  H14      1.0000 0.41500  0.61350  0.00720  Biso   1.000  H
  H15      1.0000 0.41050  0.55290  0.12030  Biso   1.000  H
  H16      1.0000 0.21630  0.55070  0.11580  Biso   1.000  H
  H17      1.0000 0.22020  0.39380  0.38250  Biso   1.000  H
  H18      1.0000 0.41500  0.39370  0.38650  Biso   1.000  H
  H19      1.0000 0.41050  0.56740  0.44710  Biso   1.000  H
  H20      1.0000 0.21630  0.56510  0.44930  Biso   1.000  H
  H21      1.0000 0.22020  0.98870  0.60620  Biso   1.000  H
  H22      1.0000 0.41500  0.99280  0.60630  Biso   1.000  H
  H23      1.0000 0.41050  0.87970  0.43260  Biso   1.000  H
  H24      1.0000 0.21630  0.88420  0.43490  Biso   1.000  H
  H25      1.0000 0.77980  0.61750  0.01130  Biso   1.000  H
  H26      1.0000 0.58500  0.61350  0.00720  Biso   1.000  H
  H27      1.0000 0.58950  0.55290  0.12030  Biso   1.000  H
  H28      1.0000 0.78370  0.55070  0.11580  Biso   1.000  H
  H29      1.0000 0.77980  0.39380  0.38250  Biso   1.000  H
  H30      1.0000 0.58500  0.39370  0.38650  Biso   1.000  H
  H31      1.0000 0.58950  0.56740  0.44710  Biso   1.000  H
  H32      1.0000 0.78370  0.56510  0.44930  Biso   1.000  H
  H33      1.0000 0.77980  0.98870  0.60620  Biso   1.000  H
  H34      1.0000 0.58500  0.99280  0.60630  Biso   1.000  H
  H35      1.0000 0.58950  0.87970  0.43260  Biso   1.000  H
  H36      1.0000 0.78370  0.88420  0.43490  Biso   1.000  H
  H37      1.0000 0.77980  0.38250  0.98870  Biso   1.000  H
  H38      1.0000 0.58500  0.38650  0.99280  Biso   1.000  H
  H39      1.0000 0.58950  0.44710  0.87970  Biso   1.000  H
  H40      1.0000 0.78370  0.44930  0.88420  Biso   1.000  H
  H41      1.0000 0.77980  0.60620  0.61750  Biso   1.000  H
  H42      1.0000 0.58500  0.60630  0.61350  Biso   1.000  H
  H43      1.0000 0.58950  0.43260  0.55290  Biso   1.000  H
  H44      1.0000 0.78370  0.43490  0.55070  Biso   1.000  H
  H45      1.0000 0.77980  0.01130  0.39380  Biso   1.000  H
  H46      1.0000 0.58500  0.00720  0.39370  Biso   1.000  H
  H47      1.0000 0.58950  0.12030  0.56740  Biso   1.000  H
  H48      1.0000 0.78370  0.11580  0.56510  Biso   1.000  H
  H49      1.0000 0.00000  0.54840  0.17170  Biso   1.000  H
  H50      1.0000 0.00000  0.58290  0.31940  Biso   1.000  H
  H51      1.0000 0.00000  0.60730  0.27660  Biso   1.000  H
  H52      1.0000 0.00000  0.37890  0.19530  Biso   1.000  H
  H53      1.0000 0.00000  0.36830  0.10030  Biso   1.000  H
  H54      1.0000 0.00000  0.62330  0.45160  Biso   1.000  H
  H55      1.0000 0.00000  0.73650  0.41710  Biso   1.000  H
  H56      1.0000 0.00000  0.66930  0.39270  Biso   1.000  H
  H57      1.0000 0.00000  0.81640  0.62110  Biso   1.000  H
  H58      1.0000 0.00000  0.73200  0.63170  Biso   1.000  H
  H59      1.0000 0.00000  0.82830  0.37670  Biso   1.000  H
  H60      1.0000 0.00000  0.68060  0.26350  Biso   1.000  H
  H61      1.0000 0.00000  0.72340  0.33070  Biso   1.000  H
  H62      1.0000 0.00000  0.80470  0.18360  Biso   1.000  H
  H63      1.0000 0.00000  0.89970  0.26800  Biso   1.000  H
  H64      1.0000 0.00000  0.45160  0.82830  Biso   1.000  H
  H65      1.0000 0.00000  0.41710  0.68060  Biso   1.000  H
  H66      1.0000 0.00000  0.39270  0.72340  Biso   1.000  H
  H67      1.0000 0.00000  0.62110  0.80470  Biso   1.000  H
  H68      1.0000 0.00000  0.63170  0.89970  Biso   1.000  H
  H69      1.0000 0.00000  0.37670  0.54840  Biso   1.000  H
  H70      1.0000 0.00000  0.26350  0.58290  Biso   1.000  H
  H71      1.0000 0.00000  0.33070  0.60730  Biso   1.000  H
  H72      1.0000 0.00000  0.18360  0.37890  Biso   1.000  H
  H73      1.0000 0.00000  0.26800  0.36830  Biso   1.000  H
  H74      1.0000 0.00000  0.17170  0.62330  Biso   1.000  H
  H75      1.0000 0.00000  0.31940  0.73650  Biso   1.000  H
  H76      1.0000 0.00000  0.27660  0.66930  Biso   1.000  H
  H77      1.0000 0.00000  0.19530  0.81640  Biso   1.000  H
  H78      1.0000 0.00000  0.10030  0.73200  Biso   1.000  H
  C1       1.0000 0.25840  0.39780  0.96700  Biso   1.000  C
  C2       1.0000 0.37670  0.39850  0.96820  Biso   1.000  C
  C3       1.0000 0.43680  0.41620  0.93490  Biso   1.000  C
  C4       1.0000 0.37430  0.43420  0.90400  Biso   1.000  C
  C5       1.0000 0.25570  0.43490  0.90640  Biso   1.000  C
  C6       1.0000 0.25840  0.56920  0.60220  Biso   1.000  C
  C7       1.0000 0.37670  0.56970  0.60150  Biso   1.000  C
  C8       1.0000 0.43680  0.51870  0.58380  Biso   1.000  C
  C9       1.0000 0.37430  0.46980  0.56580  Biso   1.000  C
  C10      1.0000 0.25570  0.47150  0.56510  Biso   1.000  C
  C11      1.0000 0.25840  0.03300  0.43080  Biso   1.000  C
  C12      1.0000 0.37670  0.03180  0.43030  Biso   1.000  C
  C13      1.0000 0.43680  0.06510  0.48130  Biso   1.000  C
  C14      1.0000 0.37430  0.09600  0.53020  Biso   1.000  C
  C15      1.0000 0.25570  0.09360  0.52850  Biso   1.000  C
  C16      1.0000 0.25840  0.60220  0.03300  Biso   1.000  C
  C17      1.0000 0.37670  0.60150  0.03180  Biso   1.000  C
  C18      1.0000 0.43680  0.58380  0.06510  Biso   1.000  C
  C19      1.0000 0.37430  0.56580  0.09600  Biso   1.000  C
  C20      1.0000 0.25570  0.56510  0.09360  Biso   1.000  C
  C21      1.0000 0.25840  0.43080  0.39780  Biso   1.000  C
  C22      1.0000 0.37670  0.43030  0.39850  Biso   1.000  C
  C23      1.0000 0.43680  0.48130  0.41620  Biso   1.000  C
  C24      1.0000 0.37430  0.53020  0.43420  Biso   1.000  C
  C25      1.0000 0.25570  0.52850  0.43490  Biso   1.000  C
  C26      1.0000 0.25840  0.96700  0.56920  Biso   1.000  C
  C27      1.0000 0.37670  0.96820  0.56970  Biso   1.000  C
  C28      1.0000 0.43680  0.93490  0.51870  Biso   1.000  C
  C29      1.0000 0.37430  0.90400  0.46980  Biso   1.000  C
  C30      1.0000 0.25570  0.90640  0.47150  Biso   1.000  C
  C31      1.0000 0.74160  0.60220  0.03300  Biso   1.000  C
  C32      1.0000 0.62330  0.60150  0.03180  Biso   1.000  C
  C33      1.0000 0.56320  0.58380  0.06510  Biso   1.000  C
  C34      1.0000 0.62570  0.56580  0.09600  Biso   1.000  C
  C35      1.0000 0.74430  0.56510  0.09360  Biso   1.000  C
  C36      1.0000 0.74160  0.43080  0.39780  Biso   1.000  C
  C37      1.0000 0.62330  0.43030  0.39850  Biso   1.000  C
  C38      1.0000 0.56320  0.48130  0.41620  Biso   1.000  C
  C39      1.0000 0.62570  0.53020  0.43420  Biso   1.000  C
  C40      1.0000 0.74430  0.52850  0.43490  Biso   1.000  C
  C41      1.0000 0.74160  0.96700  0.56920  Biso   1.000  C
  C42      1.0000 0.62330  0.96820  0.56970  Biso   1.000  C
  C43      1.0000 0.56320  0.93490  0.51870  Biso   1.000  C
  C44      1.0000 0.62570  0.90400  0.46980  Biso   1.000  C
  C45      1.0000 0.74430  0.90640  0.47150  Biso   1.000  C
  C46      1.0000 0.74160  0.39780  0.96700  Biso   1.000  C
  C47      1.0000 0.62330  0.39850  0.96820  Biso   1.000  C
  C48      1.0000 0.56320  0.41620  0.93490  Biso   1.000  C
  C49      1.0000 0.62570  0.43420  0.90400  Biso   1.000  C
  C50      1.0000 0.74430  0.43490  0.90640  Biso   1.000  C
  C51      1.0000 0.74160  0.56920  0.60220  Biso   1.000  C
  C52      1.0000 0.62330  0.56970  0.60150  Biso   1.000  C
  C53      1.0000 0.56320  0.51870  0.58380  Biso   1.000  C
  C54      1.0000 0.62570  0.46980  0.56580  Biso   1.000  C
  C55      1.0000 0.74430  0.47150  0.56510  Biso   1.000  C
  C56      1.0000 0.74160  0.03300  0.43080  Biso   1.000  C
  C57      1.0000 0.62330  0.03180  0.43030  Biso   1.000  C
  C58      1.0000 0.56320  0.06510  0.48130  Biso   1.000  C
  C59      1.0000 0.62570  0.09600  0.53020  Biso   1.000  C
  C60      1.0000 0.74430  0.09360  0.52850  Biso   1.000  C
  C61      1.0000 0.00000  0.44950  0.06490  Biso   1.000  C
  C62      1.0000 0.00000  0.45760  0.12750  Biso   1.000  C
  C63      1.0000 0.00000  0.51420  0.17640  Biso   1.000  C
  C64      1.0000 0.00000  0.52020  0.23560  Biso   1.000  C
  C65      1.0000 0.00000  0.47060  0.24400  Biso   1.000  C
  C66      1.0000 0.00000  0.41370  0.19160  Biso   1.000  C
  C67      1.0000 0.00000  0.40720  0.13460  Biso   1.000  C
  C68      1.0000 0.00000  0.47500  0.30460  Biso   1.000  C
  C69      1.0000 0.00000  0.61540  0.55050  Biso   1.000  C
  C70      1.0000 0.00000  0.66990  0.54240  Biso   1.000  C
  C71      1.0000 0.00000  0.66220  0.48580  Biso   1.000  C
  C72      1.0000 0.00000  0.71540  0.47980  Biso   1.000  C
  C73      1.0000 0.00000  0.77340  0.52940  Biso   1.000  C
  C74      1.0000 0.00000  0.77790  0.58630  Biso   1.000  C
  C75      1.0000 0.00000  0.72740  0.59280  Biso   1.000  C
  C76      1.0000 0.00000  0.82960  0.52500  Biso   1.000  C
  C77      1.0000 0.00000  0.93510  0.38460  Biso   1.000  C
  C78      1.0000 0.00000  0.87250  0.33010  Biso   1.000  C
  C79      1.0000 0.00000  0.82360  0.33780  Biso   1.000  C
  C80      1.0000 0.00000  0.76440  0.28460  Biso   1.000  C
  C81      1.0000 0.00000  0.75600  0.22660  Biso   1.000  C
  C82      1.0000 0.00000  0.80840  0.22210  Biso   1.000  C
  C83      1.0000 0.00000  0.86540  0.27260  Biso   1.000  C
  C84      1.0000 0.00000  0.69540  0.17040  Biso   1.000  C
  C85      1.0000 0.00000  0.55050  0.93510  Biso   1.000  C
  C86      1.0000 0.00000  0.54240  0.87250  Biso   1.000  C
  C87      1.0000 0.00000  0.48580  0.82360  Biso   1.000  C
  C88      1.0000 0.00000  0.47980  0.76440  Biso   1.000  C
  C89      1.0000 0.00000  0.52940  0.75600  Biso   1.000  C
  C90      1.0000 0.00000  0.58630  0.80840  Biso   1.000  C
  C91      1.0000 0.00000  0.59280  0.86540  Biso   1.000  C
  C92      1.0000 0.00000  0.52500  0.69540  Biso   1.000  C
  C93      1.0000 0.00000  0.38460  0.44950  Biso   1.000  C
  C94      1.0000 0.00000  0.33010  0.45760  Biso   1.000  C
  C95      1.0000 0.00000  0.33780  0.51420  Biso   1.000  C
  C96      1.0000 0.00000  0.28460  0.52020  Biso   1.000  C
  C97      1.0000 0.00000  0.22660  0.47060  Biso   1.000  C
  C98      1.0000 0.00000  0.22210  0.41370  Biso   1.000  C
  C99      1.0000 0.00000  0.27260  0.40720  Biso   1.000  C
  C100     1.0000 0.00000  0.17040  0.47500  Biso   1.000  C
  C101     1.0000 0.00000  0.06490  0.61540  Biso   1.000  C
  C102     1.0000 0.00000  0.12750  0.66990  Biso   1.000  C
  C103     1.0000 0.00000  0.17640  0.66220  Biso   1.000  C
  C104     1.0000 0.00000  0.23560  0.71540  Biso   1.000  C
  C105     1.0000 0.00000  0.24400  0.77340  Biso   1.000  C
  C106     1.0000 0.00000  0.19160  0.77790  Biso   1.000  C
  C107     1.0000 0.00000  0.13460  0.72740  Biso   1.000  C
  C108     1.0000 0.00000  0.30460  0.82960  Biso   1.000  C
  N1       1.0000 0.19750  0.41700  0.93700  Biso   1.000  N
  N2       1.0000 0.19750  0.52000  0.58300  Biso   1.000  N
  N3       1.0000 0.19750  0.06300  0.48000  Biso   1.000  N
  N4       1.0000 0.19750  0.58300  0.06300  Biso   1.000  N
  N5       1.0000 0.19750  0.48000  0.41700  Biso   1.000  N
  N6       1.0000 0.19750  0.93700  0.52000  Biso   1.000  N
  N7       1.0000 0.80250  0.58300  0.06300  Biso   1.000  N
  N8       1.0000 0.80250  0.48000  0.41700  Biso   1.000  N
  N9       1.0000 0.80250  0.93700  0.52000  Biso   1.000  N
  N10      1.0000 0.80250  0.41700  0.93700  Biso   1.000  N
  N11      1.0000 0.80250  0.52000  0.58300  Biso   1.000  N
  N12      1.0000 0.80250  0.06300  0.48000  Biso   1.000  N
  N13      1.0000 0.00000  0.57680  0.28280  Biso   1.000  N
  N14      1.0000 0.00000  0.70600  0.42320  Biso   1.000  N
  N15      1.0000 0.00000  0.71720  0.29400  Biso   1.000  N
  N16      1.0000 0.00000  0.42320  0.71720  Biso   1.000  N
  N17      1.0000 0.00000  0.29400  0.57680  Biso   1.000  N
  N18      1.0000 0.00000  0.28280  0.70600  Biso   1.000  N
  O1       1.0000 0.00000  0.39740  0.01920  Biso   1.000  O
  O2       1.0000 0.00000  0.49700  0.05970  Biso   1.000  O
  O3       1.0000 0.00000  0.42760  0.30810  Biso   1.000  O
  O4       1.0000 0.00000  0.52690  0.35230  Biso   1.000  O
  O5       1.0000 0.00000  0.62180  0.60260  Biso   1.000  O
  O6       1.0000 0.00000  0.56270  0.50300  Biso   1.000  O
  O7       1.0000 0.00000  0.88050  0.57240  Biso   1.000  O
  O8       1.0000 0.00000  0.82540  0.47310  Biso   1.000  O
  O9       1.0000 0.00000  0.98080  0.37820  Biso   1.000  O
  O10      1.0000 0.00000  0.94030  0.43730  Biso   1.000  O
  O11      1.0000 0.00000  0.69190  0.11950  Biso   1.000  O
  O12      1.0000 0.00000  0.64770  0.17460  Biso   1.000  O
  O13      1.0000 0.00000  0.60260  0.98080  Biso   1.000  O
  O14      1.0000 0.00000  0.50300  0.94030  Biso   1.000  O
  O15      1.0000 0.00000  0.57240  0.69190  Biso   1.000  O
  O16      1.0000 0.00000  0.47310  0.64770  Biso   1.000  O
  O17      1.0000 0.00000  0.37820  0.39740  Biso   1.000  O
  O18      1.0000 0.00000  0.43730  0.49700  Biso   1.000  O
  O19      1.0000 0.00000  0.11950  0.42760  Biso   1.000  O
  O20      1.0000 0.00000  0.17460  0.52690  Biso   1.000  O
  O21      1.0000 0.00000  0.01920  0.62180  Biso   1.000  O
  O22      1.0000 0.00000  0.05970  0.56270  Biso   1.000  O
  O23      1.0000 0.00000  0.30810  0.88050  Biso   1.000  O
  O24      1.0000 0.00000  0.35230  0.82540  Biso   1.000  O
