data_image0
_cell_length_a       9.34021
_cell_length_b       13.7391
_cell_length_c       20.09
_cell_angle_alpha    86.1372
_cell_angle_beta     78.5689
_cell_angle_gamma    70.1284

_symmetry_space_group_name_H-M    P 1
_symmetry_int_tables_number       1

loop_
  _symmetry_equiv_pos_as_xyz
  'x, y, z'

loop_
  _atom_site_label
  _atom_site_occupancy
  _atom_site_fract_x
  _atom_site_fract_y
  _atom_site_fract_z
  _atom_site_thermal_displace_type
  _atom_site_B_iso_or_equiv
  _atom_site_type_symbol
  Zn1      1.0000 0.65877  0.24342  0.98640  Biso   1.000  Zn
  Zn2      1.0000 0.09781  0.24342  0.51360  Biso   1.000  Zn
  Zn3      1.0000 0.34123  0.75658  0.01360  Biso   1.000  Zn
  Zn4      1.0000 0.90219  0.75658  0.48640  Biso   1.000  Zn
  H1       1.0000 0.98100  0.12900  0.93400  Biso   1.000  H
  H2       1.0000 0.13560  0.98620  0.87190  Biso   1.000  H
  H3       1.0000 0.75670  0.91080  0.86900  Biso   1.000  H
  H4       1.0000 0.61120  0.06080  0.92830  Biso   1.000  H
  H5       1.0000 0.97230  0.73780  0.83680  Biso   1.000  H
  H6       1.0000 0.92100  0.81440  0.77720  Biso   1.000  H
  H7       1.0000 0.28900  0.68460  0.81960  Biso   1.000  H
  H8       1.0000 0.36750  0.61500  0.75440  Biso   1.000  H
  H9       1.0000 0.59680  0.45380  0.93710  Biso   1.000  H
  H10      1.0000 0.44440  0.57820  0.87590  Biso   1.000  H
  H11      1.0000 0.23050  0.38040  0.85060  Biso   1.000  H
  H12      1.0000 0.38140  0.26220  0.91320  Biso   1.000  H
  H13      1.0000 0.12450  0.35560  0.05990  Biso   1.000  H
  H14      1.0000 0.81050  0.49660  0.94370  Biso   1.000  H
  H15      1.0000 0.38600  0.32740  0.19260  Biso   1.000  H
  H16      1.0000 0.53280  0.01480  0.19090  Biso   1.000  H
  H17      1.0000 0.89000  0.12900  0.56600  Biso   1.000  H
  H18      1.0000 0.87820  0.98620  0.62810  Biso   1.000  H
  H19      1.0000 0.33250  0.91080  0.63100  Biso   1.000  H
  H20      1.0000 0.32800  0.06080  0.57170  Biso   1.000  H
  H21      1.0000 0.28990  0.73780  0.66320  Biso   1.000  H
  H22      1.0000 0.26460  0.81440  0.72280  Biso   1.000  H
  H23      1.0000 0.02640  0.68460  0.68040  Biso   1.000  H
  H24      1.0000 0.01750  0.61500  0.74560  Biso   1.000  H
  H25      1.0000 0.94940  0.45380  0.56290  Biso   1.000  H
  H26      1.0000 0.97740  0.57820  0.62410  Biso   1.000  H
  H27      1.0000 0.38910  0.38040  0.64940  Biso   1.000  H
  H28      1.0000 0.35640  0.26220  0.58680  Biso   1.000  H
  H29      1.0000 0.51990  0.35560  0.44010  Biso   1.000  H
  H30      1.0000 0.69290  0.49660  0.55630  Biso   1.000  H
  H31      1.0000 0.28660  0.32740  0.30740  Biso   1.000  H
  H32      1.0000 0.45240  0.01480  0.30910  Biso   1.000  H
  H33      1.0000 0.01900  0.87100  0.06600  Biso   1.000  H
  H34      1.0000 0.86440  0.01380  0.12810  Biso   1.000  H
  H35      1.0000 0.24330  0.08920  0.13100  Biso   1.000  H
  H36      1.0000 0.38880  0.93920  0.07170  Biso   1.000  H
  H37      1.0000 0.02770  0.26220  0.16320  Biso   1.000  H
  H38      1.0000 0.07900  0.18560  0.22280  Biso   1.000  H
  H39      1.0000 0.71100  0.31540  0.18040  Biso   1.000  H
  H40      1.0000 0.63250  0.38500  0.24560  Biso   1.000  H
  H41      1.0000 0.40320  0.54620  0.06290  Biso   1.000  H
  H42      1.0000 0.55560  0.42180  0.12410  Biso   1.000  H
  H43      1.0000 0.76950  0.61960  0.14940  Biso   1.000  H
  H44      1.0000 0.61860  0.73780  0.08680  Biso   1.000  H
  H45      1.0000 0.87550  0.64440  0.94010  Biso   1.000  H
  H46      1.0000 0.18950  0.50340  0.05630  Biso   1.000  H
  H47      1.0000 0.61400  0.67260  0.80740  Biso   1.000  H
  H48      1.0000 0.46720  0.98520  0.80910  Biso   1.000  H
  H49      1.0000 0.11000  0.87100  0.43400  Biso   1.000  H
  H50      1.0000 0.12180  0.01380  0.37190  Biso   1.000  H
  H51      1.0000 0.66750  0.08920  0.36900  Biso   1.000  H
  H52      1.0000 0.67200  0.93920  0.42830  Biso   1.000  H
  H53      1.0000 0.71010  0.26220  0.33680  Biso   1.000  H
  H54      1.0000 0.73540  0.18560  0.27720  Biso   1.000  H
  H55      1.0000 0.97360  0.31540  0.31960  Biso   1.000  H
  H56      1.0000 0.98250  0.38500  0.25440  Biso   1.000  H
  H57      1.0000 0.05060  0.54620  0.43710  Biso   1.000  H
  H58      1.0000 0.02260  0.42180  0.37590  Biso   1.000  H
  H59      1.0000 0.61090  0.61960  0.35060  Biso   1.000  H
  H60      1.0000 0.64360  0.73780  0.41320  Biso   1.000  H
  H61      1.0000 0.48010  0.64440  0.55990  Biso   1.000  H
  H62      1.0000 0.30710  0.50340  0.44370  Biso   1.000  H
  H63      1.0000 0.71340  0.67260  0.69260  Biso   1.000  H
  H64      1.0000 0.54760  0.98520  0.69090  Biso   1.000  H
  C1       1.0000 0.93549  0.08542  0.91978  Biso   1.000  C
  C2       1.0000 0.02916  0.99968  0.88300  Biso   1.000  C
  C3       1.0000 0.96409  0.93342  0.86262  Biso   1.000  C
  C4       1.0000 0.80377  0.95526  0.88084  Biso   1.000  C
  C5       1.0000 0.71811  0.04478  0.91689  Biso   1.000  C
  C6       1.0000 0.00689  0.77882  0.80004  Biso   1.000  C
  C7       1.0000 0.27153  0.64354  0.78661  Biso   1.000  C
  C8       1.0000 0.52280  0.43820  0.91907  Biso   1.000  C
  C9       1.0000 0.43116  0.51388  0.88261  Biso   1.000  C
  C10      1.0000 0.32162  0.49336  0.85673  Biso   1.000  C
  C11      1.0000 0.30487  0.39626  0.86822  Biso   1.000  C
  C12      1.0000 0.39665  0.32570  0.90480  Biso   1.000  C
  C13      1.0000 0.91415  0.31530  0.00410  Biso   1.000  C
  C14      1.0000 0.07440  0.41320  0.03586  Biso   1.000  C
  C15      1.0000 0.95881  0.41118  0.00131  Biso   1.000  C
  C16      1.0000 0.88737  0.49786  0.96650  Biso   1.000  C
  C17      1.0000 0.53306  0.17008  0.10553  Biso   1.000  C
  C18      1.0000 0.39622  0.26496  0.21553  Biso   1.000  C
  C19      1.0000 0.46923  0.17174  0.18039  Biso   1.000  C
  C20      1.0000 0.48724  0.07692  0.21470  Biso   1.000  C
  C21      1.0000 0.97909  0.08542  0.58022  Biso   1.000  C
  C22      1.0000 0.97116  0.99968  0.61700  Biso   1.000  C
  C23      1.0000 0.10249  0.93342  0.63738  Biso   1.000  C
  C24      1.0000 0.24097  0.95526  0.61916  Biso   1.000  C
  C25      1.0000 0.23711  0.04478  0.58311  Biso   1.000  C
  C26      1.0000 0.21429  0.77882  0.69996  Biso   1.000  C
  C27      1.0000 0.08493  0.64354  0.71339  Biso   1.000  C
  C28      1.0000 0.03900  0.43820  0.58093  Biso   1.000  C
  C29      1.0000 0.05496  0.51388  0.61739  Biso   1.000  C
  C30      1.0000 0.18502  0.49336  0.64327  Biso   1.000  C
  C31      1.0000 0.29887  0.39626  0.63178  Biso   1.000  C
  C32      1.0000 0.27765  0.32570  0.59520  Biso   1.000  C
  C33      1.0000 0.77055  0.31530  0.49590  Biso   1.000  C
  C34      1.0000 0.51240  0.41320  0.46414  Biso   1.000  C
  C35      1.0000 0.63001  0.41118  0.49869  Biso   1.000  C
  C36      1.0000 0.61477  0.49786  0.53350  Biso   1.000  C
  C37      1.0000 0.29686  0.17008  0.39447  Biso   1.000  C
  C38      1.0000 0.33882  0.26496  0.28447  Biso   1.000  C
  C39      1.0000 0.35903  0.17174  0.31961  Biso   1.000  C
  C40      1.0000 0.43584  0.07692  0.28530  Biso   1.000  C
  C41      1.0000 0.06451  0.91458  0.08022  Biso   1.000  C
  C42      1.0000 0.97084  0.00032  0.11700  Biso   1.000  C
  C43      1.0000 0.03591  0.06658  0.13738  Biso   1.000  C
  C44      1.0000 0.19623  0.04474  0.11916  Biso   1.000  C
  C45      1.0000 0.28189  0.95522  0.08311  Biso   1.000  C
  C46      1.0000 0.99311  0.22118  0.19996  Biso   1.000  C
  C47      1.0000 0.72847  0.35646  0.21339  Biso   1.000  C
  C48      1.0000 0.47720  0.56180  0.08093  Biso   1.000  C
  C49      1.0000 0.56884  0.48612  0.11739  Biso   1.000  C
  C50      1.0000 0.67838  0.50664  0.14327  Biso   1.000  C
  C51      1.0000 0.69513  0.60374  0.13178  Biso   1.000  C
  C52      1.0000 0.60335  0.67430  0.09520  Biso   1.000  C
  C53      1.0000 0.08585  0.68470  0.99590  Biso   1.000  C
  C54      1.0000 0.92560  0.58680  0.96414  Biso   1.000  C
  C55      1.0000 0.04119  0.58882  0.99869  Biso   1.000  C
  C56      1.0000 0.11263  0.50214  0.03350  Biso   1.000  C
  C57      1.0000 0.46694  0.82992  0.89447  Biso   1.000  C
  C58      1.0000 0.60378  0.73504  0.78447  Biso   1.000  C
  C59      1.0000 0.53077  0.82826  0.81961  Biso   1.000  C
  C60      1.0000 0.51276  0.92308  0.78530  Biso   1.000  C
  C61      1.0000 0.02091  0.91458  0.41978  Biso   1.000  C
  C62      1.0000 0.02884  0.00032  0.38300  Biso   1.000  C
  C63      1.0000 0.89751  0.06658  0.36262  Biso   1.000  C
  C64      1.0000 0.75903  0.04474  0.38084  Biso   1.000  C
  C65      1.0000 0.76289  0.95522  0.41689  Biso   1.000  C
  C66      1.0000 0.78571  0.22118  0.30004  Biso   1.000  C
  C67      1.0000 0.91507  0.35646  0.28661  Biso   1.000  C
  C68      1.0000 0.96100  0.56180  0.41907  Biso   1.000  C
  C69      1.0000 0.94504  0.48612  0.38261  Biso   1.000  C
  C70      1.0000 0.81498  0.50664  0.35673  Biso   1.000  C
  C71      1.0000 0.70113  0.60374  0.36822  Biso   1.000  C
  C72      1.0000 0.72235  0.67430  0.40480  Biso   1.000  C
  C73      1.0000 0.22945  0.68470  0.50410  Biso   1.000  C
  C74      1.0000 0.48760  0.58680  0.53586  Biso   1.000  C
  C75      1.0000 0.36999  0.58882  0.50131  Biso   1.000  C
  C76      1.0000 0.38523  0.50214  0.46650  Biso   1.000  C
  C77      1.0000 0.70314  0.82992  0.60553  Biso   1.000  C
  C78      1.0000 0.66118  0.73504  0.71553  Biso   1.000  C
  C79      1.0000 0.64097  0.82826  0.68039  Biso   1.000  C
  C80      1.0000 0.56416  0.92308  0.71470  Biso   1.000  C
  C81      1.0000 0.14496  0.71008  0.75000  Biso   1.000  C
  C82      1.0000 0.85504  0.28992  0.25000  Biso   1.000  C
  N1       1.0000 0.78126  0.11028  0.93645  Biso   1.000  N
  N2       1.0000 0.51185  0.34250  0.93041  Biso   1.000  N
  N3       1.0000 0.10846  0.11028  0.56355  Biso   1.000  N
  N4       1.0000 0.14565  0.34250  0.56959  Biso   1.000  N
  N5       1.0000 0.21874  0.88972  0.06355  Biso   1.000  N
  N6       1.0000 0.48815  0.65750  0.06959  Biso   1.000  N
  N7       1.0000 0.89154  0.88972  0.43645  Biso   1.000  N
  N8       1.0000 0.85435  0.65750  0.43041  Biso   1.000  N
  O1       1.0000 0.06251  0.85178  0.82555  Biso   1.000  O
  O2       1.0000 0.22183  0.56194  0.81996  Biso   1.000  O
  O3       1.0000 0.79432  0.32616  0.97964  Biso   1.000  O
  O4       1.0000 0.99204  0.23412  0.02824  Biso   1.000  O
  O5       1.0000 0.55027  0.25246  0.08037  Biso   1.000  O
  O6       1.0000 0.56218  0.09144  0.07168  Biso   1.000  O
  O7       1.0000 0.08571  0.85178  0.67445  Biso   1.000  O
  O8       1.0000 0.21623  0.56194  0.68004  Biso   1.000  O
  O9       1.0000 0.87952  0.32616  0.52036  Biso   1.000  O
  O10      1.0000 0.77384  0.23412  0.47176  Biso   1.000  O
  O11      1.0000 0.19727  0.25246  0.41963  Biso   1.000  O
  O12      1.0000 0.34638  0.09144  0.42832  Biso   1.000  O
  O13      1.0000 0.93749  0.14822  0.17445  Biso   1.000  O
  O14      1.0000 0.77817  0.43806  0.18004  Biso   1.000  O
  O15      1.0000 0.20568  0.67384  0.02036  Biso   1.000  O
  O16      1.0000 0.00796  0.76588  0.97176  Biso   1.000  O
  O17      1.0000 0.44973  0.74754  0.91963  Biso   1.000  O
  O18      1.0000 0.43782  0.90856  0.92832  Biso   1.000  O
  O19      1.0000 0.91429  0.14822  0.32555  Biso   1.000  O
  O20      1.0000 0.78377  0.43806  0.31996  Biso   1.000  O
  O21      1.0000 0.12048  0.67384  0.47964  Biso   1.000  O
  O22      1.0000 0.22616  0.76588  0.52824  Biso   1.000  O
  O23      1.0000 0.80273  0.74754  0.58037  Biso   1.000  O
  O24      1.0000 0.65362  0.90856  0.57168  Biso   1.000  O
