data_image0
_cell_length_a       9.0805
_cell_length_b       23.613
_cell_length_c       12.8303
_cell_angle_alpha    90
_cell_angle_beta     90
_cell_angle_gamma    90

_symmetry_space_group_name_H-M    P 1
_symmetry_int_tables_number       1

loop_
  _symmetry_equiv_pos_as_xyz
  'x, y, z'

loop_
  _atom_site_label
  _atom_site_occupancy
  _atom_site_fract_x
  _atom_site_fract_y
  _atom_site_fract_z
  _atom_site_thermal_displace_type
  _atom_site_B_iso_or_equiv
  _atom_site_type_symbol
  K1       1.0000 0.11450  0.78795  0.93630  Biso   1.000  K
  K2       1.0000 0.88550  0.21205  0.93630  Biso   1.000  K
  K3       1.0000 0.61450  0.71205  0.06370  Biso   1.000  K
  K4       1.0000 0.38550  0.28795  0.06370  Biso   1.000  K
  U1       1.0000 0.14598  0.73306  0.65762  Biso   1.000  U
  U2       1.0000 0.63491  0.56842  0.92325  Biso   1.000  U
  U3       1.0000 0.69495  0.82827  0.85075  Biso   1.000  U
  U4       1.0000 0.85402  0.26694  0.65762  Biso   1.000  U
  U5       1.0000 0.36509  0.43158  0.92325  Biso   1.000  U
  U6       1.0000 0.30505  0.17173  0.85075  Biso   1.000  U
  U7       1.0000 0.64598  0.76694  0.34238  Biso   1.000  U
  U8       1.0000 0.13491  0.93158  0.07675  Biso   1.000  U
  U9       1.0000 0.19495  0.67173  0.14925  Biso   1.000  U
  U10      1.0000 0.35402  0.23306  0.34238  Biso   1.000  U
  U11      1.0000 0.86509  0.06842  0.07675  Biso   1.000  U
  U12      1.0000 0.80505  0.32827  0.14925  Biso   1.000  U
  P1       1.0000 0.32160  0.66227  0.87770  Biso   1.000  P
  P2       1.0000 0.22840  0.55325  0.96460  Biso   1.000  P
  P3       1.0000 0.83110  0.68551  0.81430  Biso   1.000  P
  P4       1.0000 0.74730  0.74154  0.61730  Biso   1.000  P
  P5       1.0000 0.67840  0.33773  0.87770  Biso   1.000  P
  P6       1.0000 0.77160  0.44675  0.96460  Biso   1.000  P
  P7       1.0000 0.16890  0.31449  0.81430  Biso   1.000  P
  P8       1.0000 0.25270  0.25846  0.61730  Biso   1.000  P
  P9       1.0000 0.82160  0.83773  0.12230  Biso   1.000  P
  P10      1.0000 0.72840  0.94675  0.03540  Biso   1.000  P
  P11      1.0000 0.33110  0.81449  0.18570  Biso   1.000  P
  P12      1.0000 0.24730  0.75846  0.38270  Biso   1.000  P
  P13      1.0000 0.17840  0.16227  0.12230  Biso   1.000  P
  P14      1.0000 0.27160  0.05325  0.03540  Biso   1.000  P
  P15      1.0000 0.66890  0.18551  0.18570  Biso   1.000  P
  P16      1.0000 0.75270  0.24154  0.38270  Biso   1.000  P
  H1       1.0000 0.10790  0.60940  0.84710  Biso   1.000  H
  H2       1.0000 0.24670  0.57930  0.79340  Biso   1.000  H
  H3       1.0000 0.78360  0.64550  0.65150  Biso   1.000  H
  H4       1.0000 0.63300  0.66660  0.70400  Biso   1.000  H
  H5       1.0000 0.89210  0.39060  0.84710  Biso   1.000  H
  H6       1.0000 0.75330  0.42070  0.79340  Biso   1.000  H
  H7       1.0000 0.21640  0.35450  0.65150  Biso   1.000  H
  H8       1.0000 0.36700  0.33340  0.70400  Biso   1.000  H
  H9       1.0000 0.60790  0.89060  0.15290  Biso   1.000  H
  H10      1.0000 0.74670  0.92070  0.20660  Biso   1.000  H
  H11      1.0000 0.28360  0.85450  0.34850  Biso   1.000  H
  H12      1.0000 0.13300  0.83340  0.29600  Biso   1.000  H
  H13      1.0000 0.39210  0.10940  0.15290  Biso   1.000  H
  H14      1.0000 0.25330  0.07930  0.20660  Biso   1.000  H
  H15      1.0000 0.71640  0.14550  0.34850  Biso   1.000  H
  H16      1.0000 0.86700  0.16660  0.29600  Biso   1.000  H
  C1       1.0000 0.21250  0.59890  0.85710  Biso   1.000  C
  C2       1.0000 0.73730  0.67670  0.69140  Biso   1.000  C
  C3       1.0000 0.78750  0.40110  0.85710  Biso   1.000  C
  C4       1.0000 0.26270  0.32330  0.69140  Biso   1.000  C
  C5       1.0000 0.71250  0.90110  0.14290  Biso   1.000  C
  C6       1.0000 0.23730  0.82330  0.30860  Biso   1.000  C
  C7       1.0000 0.28750  0.09890  0.14290  Biso   1.000  C
  C8       1.0000 0.76270  0.17670  0.30860  Biso   1.000  C
  O1       1.0000 0.81660  0.62950  0.87620  Biso   1.000  O
  O2       1.0000 0.30930  0.70150  0.78610  Biso   1.000  O
  O3       1.0000 0.66050  0.58970  0.05470  Biso   1.000  O
  O4       1.0000 0.99160  0.70050  0.79150  Biso   1.000  O
  O5       1.0000 0.15440  0.80150  0.71560  Biso   1.000  O
  O6       1.0000 0.67220  0.78670  0.68220  Biso   1.000  O
  O7       1.0000 0.66730  0.73240  0.51390  Biso   1.000  O
  O8       1.0000 0.75290  0.73270  0.87250  Biso   1.000  O
  O9       1.0000 0.17360  0.58140  0.06040  Biso   1.000  O
  O10      1.0000 0.13950  0.66430  0.60050  Biso   1.000  O
  O11      1.0000 0.87940  0.84530  0.82400  Biso   1.000  O
  O12      1.0000 0.14690  0.49670  0.94210  Biso   1.000  O
  O13      1.0000 0.91130  0.75420  0.59770  Biso   1.000  O
  O14      1.0000 0.38990  0.53260  0.97060  Biso   1.000  O
  O15      1.0000 0.48220  0.64390  0.89480  Biso   1.000  O
  O16      1.0000 0.50770  0.81180  0.88000  Biso   1.000  O
  O17      1.0000 0.39870  0.75670  0.61420  Biso   1.000  O
  O18      1.0000 0.25820  0.68920  0.97520  Biso   1.000  O
  O19      1.0000 0.61330  0.54610  0.79290  Biso   1.000  O
  O20      1.0000 0.60620  0.90310  0.72800  Biso   1.000  O
  O21      1.0000 0.18340  0.37050  0.87620  Biso   1.000  O
  O22      1.0000 0.69070  0.29850  0.78610  Biso   1.000  O
  O23      1.0000 0.33950  0.41030  0.05470  Biso   1.000  O
  O24      1.0000 0.00840  0.29950  0.79150  Biso   1.000  O
  O25      1.0000 0.84560  0.19850  0.71560  Biso   1.000  O
  O26      1.0000 0.32780  0.21330  0.68220  Biso   1.000  O
  O27      1.0000 0.33270  0.26760  0.51390  Biso   1.000  O
  O28      1.0000 0.24710  0.26730  0.87250  Biso   1.000  O
  O29      1.0000 0.82640  0.41860  0.06040  Biso   1.000  O
  O30      1.0000 0.86050  0.33570  0.60050  Biso   1.000  O
  O31      1.0000 0.12060  0.15470  0.82400  Biso   1.000  O
  O32      1.0000 0.85310  0.50330  0.94210  Biso   1.000  O
  O33      1.0000 0.08870  0.24580  0.59770  Biso   1.000  O
  O34      1.0000 0.61010  0.46740  0.97060  Biso   1.000  O
  O35      1.0000 0.51780  0.35610  0.89480  Biso   1.000  O
  O36      1.0000 0.49230  0.18820  0.88000  Biso   1.000  O
  O37      1.0000 0.60130  0.24330  0.61420  Biso   1.000  O
  O38      1.0000 0.74180  0.31080  0.97520  Biso   1.000  O
  O39      1.0000 0.38670  0.45390  0.79290  Biso   1.000  O
  O40      1.0000 0.39380  0.09690  0.72800  Biso   1.000  O
  O41      1.0000 0.31660  0.87050  0.12380  Biso   1.000  O
  O42      1.0000 0.80930  0.79850  0.21390  Biso   1.000  O
  O43      1.0000 0.16050  0.91030  0.94530  Biso   1.000  O
  O44      1.0000 0.49160  0.79950  0.20850  Biso   1.000  O
  O45      1.0000 0.65440  0.69850  0.28440  Biso   1.000  O
  O46      1.0000 0.17220  0.71330  0.31780  Biso   1.000  O
  O47      1.0000 0.16730  0.76760  0.48610  Biso   1.000  O
  O48      1.0000 0.25290  0.76730  0.12750  Biso   1.000  O
  O49      1.0000 0.67360  0.91860  0.93960  Biso   1.000  O
  O50      1.0000 0.63950  0.83570  0.39950  Biso   1.000  O
  O51      1.0000 0.37940  0.65470  0.17600  Biso   1.000  O
  O52      1.0000 0.64690  0.00330  0.05790  Biso   1.000  O
  O53      1.0000 0.41130  0.74580  0.40230  Biso   1.000  O
  O54      1.0000 0.88990  0.96740  0.02940  Biso   1.000  O
  O55      1.0000 0.98220  0.85610  0.10520  Biso   1.000  O
  O56      1.0000 0.00770  0.68820  0.12000  Biso   1.000  O
  O57      1.0000 0.89870  0.74330  0.38580  Biso   1.000  O
  O58      1.0000 0.75820  0.81080  0.02480  Biso   1.000  O
  O59      1.0000 0.11330  0.95390  0.20710  Biso   1.000  O
  O60      1.0000 0.10620  0.59690  0.27200  Biso   1.000  O
  O61      1.0000 0.68340  0.12950  0.12380  Biso   1.000  O
  O62      1.0000 0.19070  0.20150  0.21390  Biso   1.000  O
  O63      1.0000 0.83950  0.08970  0.94530  Biso   1.000  O
  O64      1.0000 0.50840  0.20050  0.20850  Biso   1.000  O
  O65      1.0000 0.34560  0.30150  0.28440  Biso   1.000  O
  O66      1.0000 0.82780  0.28670  0.31780  Biso   1.000  O
  O67      1.0000 0.83270  0.23240  0.48610  Biso   1.000  O
  O68      1.0000 0.74710  0.23270  0.12750  Biso   1.000  O
  O69      1.0000 0.32640  0.08140  0.93960  Biso   1.000  O
  O70      1.0000 0.36050  0.16430  0.39950  Biso   1.000  O
  O71      1.0000 0.62060  0.34530  0.17600  Biso   1.000  O
  O72      1.0000 0.35310  0.99670  0.05790  Biso   1.000  O
  O73      1.0000 0.58870  0.25420  0.40230  Biso   1.000  O
  O74      1.0000 0.11010  0.03260  0.02940  Biso   1.000  O
  O75      1.0000 0.01780  0.14390  0.10520  Biso   1.000  O
  O76      1.0000 0.99230  0.31180  0.12000  Biso   1.000  O
  O77      1.0000 0.10130  0.25670  0.38580  Biso   1.000  O
  O78      1.0000 0.24180  0.18920  0.02480  Biso   1.000  O
  O79      1.0000 0.88670  0.04610  0.20710  Biso   1.000  O
  O80      1.0000 0.89380  0.40310  0.27200  Biso   1.000  O
