data_image0
_cell_length_a       7.34945
_cell_length_b       13.1996
_cell_length_c       13.1996
_cell_angle_alpha    63.3634
_cell_angle_beta     79.304
_cell_angle_gamma    100.696

_symmetry_space_group_name_H-M    P 1
_symmetry_int_tables_number       1

loop_
  _symmetry_equiv_pos_as_xyz
  'x, y, z'

loop_
  _atom_site_label
  _atom_site_occupancy
  _atom_site_fract_x
  _atom_site_fract_y
  _atom_site_fract_z
  _atom_site_thermal_displace_type
  _atom_site_B_iso_or_equiv
  _atom_site_type_symbol
  Fe1      1.0000 0.00000  0.00000  0.00000  Biso   1.000  Fe
  Fe2      1.0000 0.50000  0.00000  0.00000  Biso   1.000  Fe
  H1       1.0000 0.90490  0.74420  0.00040  Biso   1.000  H
  H2       1.0000 0.29650  0.55090  0.11490  Biso   1.000  H
  H3       1.0000 0.81990  0.62750  0.88820  Biso   1.000  H
  H4       1.0000 0.90530  0.00040  0.25540  Biso   1.000  H
  H5       1.0000 0.41140  0.11490  0.33420  Biso   1.000  H
  H6       1.0000 0.70810  0.88820  0.48430  Biso   1.000  H
  H7       1.0000 0.16070  0.25540  0.74420  Biso   1.000  H
  H8       1.0000 0.74560  0.33420  0.55090  Biso   1.000  H
  H9       1.0000 0.19240  0.48430  0.62750  Biso   1.000  H
  H10      1.0000 0.09510  0.25580  0.99960  Biso   1.000  H
  H11      1.0000 0.70350  0.44910  0.88510  Biso   1.000  H
  H12      1.0000 0.18010  0.37250  0.11180  Biso   1.000  H
  H13      1.0000 0.09470  0.99960  0.74460  Biso   1.000  H
  H14      1.0000 0.58860  0.88510  0.66580  Biso   1.000  H
  H15      1.0000 0.29190  0.11180  0.51570  Biso   1.000  H
  H16      1.0000 0.83930  0.74460  0.25580  Biso   1.000  H
  H17      1.0000 0.25440  0.66580  0.44910  Biso   1.000  H
  H18      1.0000 0.80760  0.51570  0.37250  Biso   1.000  H
  C1       1.0000 0.62734  0.71867  0.99995  Biso   1.000  C
  C2       1.0000 0.56470  0.60586  0.99976  Biso   1.000  C
  C3       1.0000 0.38000  0.53040  0.06680  Biso   1.000  C
  C4       1.0000 0.68890  0.57630  0.93300  Biso   1.000  C
  C5       1.0000 0.62729  0.99995  0.28138  Biso   1.000  C
  C6       1.0000 0.56446  0.99976  0.39438  Biso   1.000  C
  C7       1.0000 0.44680  0.06680  0.40280  Biso   1.000  C
  C8       1.0000 0.62190  0.93300  0.49070  Biso   1.000  C
  C9       1.0000 0.90867  0.28138  0.71867  Biso   1.000  C
  C10      1.0000 0.95884  0.39438  0.60586  Biso   1.000  C
  C11      1.0000 0.84960  0.40280  0.53040  Biso   1.000  C
  C12      1.0000 0.11260  0.49070  0.57630  Biso   1.000  C
  C13      1.0000 0.37266  0.28133  0.00005  Biso   1.000  C
  C14      1.0000 0.43530  0.39414  0.00024  Biso   1.000  C
  C15      1.0000 0.62000  0.46960  0.93320  Biso   1.000  C
  C16      1.0000 0.31110  0.42370  0.06700  Biso   1.000  C
  C17      1.0000 0.37271  0.00005  0.71862  Biso   1.000  C
  C18      1.0000 0.43554  0.00024  0.60562  Biso   1.000  C
  C19      1.0000 0.55320  0.93320  0.59720  Biso   1.000  C
  C20      1.0000 0.37810  0.06700  0.50930  Biso   1.000  C
  C21      1.0000 0.09133  0.71862  0.28133  Biso   1.000  C
  C22      1.0000 0.04116  0.60562  0.39414  Biso   1.000  C
  C23      1.0000 0.15040  0.59720  0.46960  Biso   1.000  C
  C24      1.0000 0.88740  0.50930  0.42370  Biso   1.000  C
  N1       1.0000 0.50387  0.78194  0.00013  Biso   1.000  N
  N2       1.0000 0.60919  0.87621  0.99984  Biso   1.000  N
  N3       1.0000 0.78612  0.87017  0.00001  Biso   1.000  N
  N4       1.0000 0.80035  0.77052  0.00017  Biso   1.000  N
  N5       1.0000 0.50400  0.00013  0.21793  Biso   1.000  N
  N6       1.0000 0.60903  0.99984  0.12395  Biso   1.000  N
  N7       1.0000 0.78613  0.00001  0.12982  Biso   1.000  N
  N8       1.0000 0.80052  0.00017  0.22931  Biso   1.000  N
  N9       1.0000 0.72193  0.21793  0.78194  Biso   1.000  N
  N10      1.0000 0.73298  0.12395  0.87621  Biso   1.000  N
  N11      1.0000 0.91595  0.12982  0.87017  Biso   1.000  N
  N12      1.0000 0.02983  0.22931  0.77052  Biso   1.000  N
  N13      1.0000 0.49613  0.21806  0.99987  Biso   1.000  N
  N14      1.0000 0.39081  0.12379  0.00016  Biso   1.000  N
  N15      1.0000 0.21388  0.12983  0.99999  Biso   1.000  N
  N16      1.0000 0.19965  0.22948  0.99983  Biso   1.000  N
  N17      1.0000 0.49600  0.99987  0.78207  Biso   1.000  N
  N18      1.0000 0.39097  0.00016  0.87605  Biso   1.000  N
  N19      1.0000 0.21387  0.99999  0.87018  Biso   1.000  N
  N20      1.0000 0.19948  0.99983  0.77069  Biso   1.000  N
  N21      1.0000 0.27807  0.78207  0.21806  Biso   1.000  N
  N22      1.0000 0.26702  0.87605  0.12379  Biso   1.000  N
  N23      1.0000 0.08405  0.87018  0.12983  Biso   1.000  N
  N24      1.0000 0.97017  0.77069  0.22948  Biso   1.000  N
