data_image0
_cell_length_a       11.7527
_cell_length_b       12.4829
_cell_length_c       16.6089
_cell_angle_alpha    90
_cell_angle_beta     90.477
_cell_angle_gamma    90

_symmetry_space_group_name_H-M    P 1
_symmetry_int_tables_number       1

loop_
  _symmetry_equiv_pos_as_xyz
  'x, y, z'

loop_
  _atom_site_label
  _atom_site_occupancy
  _atom_site_fract_x
  _atom_site_fract_y
  _atom_site_fract_z
  _atom_site_thermal_displace_type
  _atom_site_B_iso_or_equiv
  _atom_site_type_symbol
  Zn1      1.0000 0.64865  0.75197  0.74947  Biso   1.000  Zn
  Zn2      1.0000 0.35135  0.24803  0.25053  Biso   1.000  Zn
  H1       1.0000 0.73570  0.73940  0.57730  Biso   1.000  H
  H2       1.0000 0.81950  0.92390  0.75700  Biso   1.000  H
  H3       1.0000 0.87860  0.80730  0.50070  Biso   1.000  H
  H4       1.0000 0.95920  0.00280  0.68370  Biso   1.000  H
  H5       1.0000 0.07710  0.00510  0.56640  Biso   1.000  H
  H6       1.0000 0.07070  0.90780  0.50660  Biso   1.000  H
  H7       1.0000 0.07500  0.48480  0.93390  Biso   1.000  H
  H8       1.0000 0.07840  0.58610  0.99000  Biso   1.000  H
  H9       1.0000 0.96350  0.50010  0.81210  Biso   1.000  H
  H10      1.0000 0.88680  0.69200  0.99680  Biso   1.000  H
  H11      1.0000 0.82330  0.58310  0.73820  Biso   1.000  H
  H12      1.0000 0.74610  0.76690  0.91880  Biso   1.000  H
  H13      1.0000 0.26430  0.26060  0.42270  Biso   1.000  H
  H14      1.0000 0.18050  0.07610  0.24300  Biso   1.000  H
  H15      1.0000 0.12140  0.19270  0.49930  Biso   1.000  H
  H16      1.0000 0.04080  0.99720  0.31630  Biso   1.000  H
  H17      1.0000 0.92290  0.99490  0.43360  Biso   1.000  H
  H18      1.0000 0.92930  0.09220  0.49340  Biso   1.000  H
  H19      1.0000 0.92500  0.51520  0.06610  Biso   1.000  H
  H20      1.0000 0.92160  0.41390  0.01000  Biso   1.000  H
  H21      1.0000 0.03650  0.49990  0.18790  Biso   1.000  H
  H22      1.0000 0.11320  0.30800  0.00320  Biso   1.000  H
  H23      1.0000 0.17670  0.41690  0.26180  Biso   1.000  H
  H24      1.0000 0.25390  0.23310  0.08120  Biso   1.000  H
  C1       1.0000 0.53330  0.66090  0.62750  Biso   1.000  C
  C2       1.0000 0.51470  0.57510  0.56390  Biso   1.000  C
  C3       1.0000 0.41290  0.56490  0.52230  Biso   1.000  C
  C4       1.0000 0.39830  0.49220  0.46050  Biso   1.000  C
  C5       1.0000 0.52440  0.97580  0.07810  Biso   1.000  C
  C6       1.0000 0.54180  0.90120  0.01880  Biso   1.000  C
  C7       1.0000 0.51760  0.92310  0.93800  Biso   1.000  C
  C8       1.0000 0.53710  0.83970  0.87280  Biso   1.000  C
  C9       1.0000 0.78260  0.79200  0.59940  Biso   1.000  C
  C10      1.0000 0.83100  0.90100  0.70450  Biso   1.000  C
  C11      1.0000 0.86750  0.83320  0.55260  Biso   1.000  C
  C12      1.0000 0.91580  0.94810  0.66110  Biso   1.000  C
  C13      1.0000 0.93650  0.91340  0.58270  Biso   1.000  C
  C14      1.0000 0.02630  0.96350  0.53230  Biso   1.000  C
  C15      1.0000 0.02880  0.53230  0.96640  Biso   1.000  C
  C16      1.0000 0.94100  0.58570  0.91400  Biso   1.000  C
  C17      1.0000 0.92040  0.55430  0.83520  Biso   1.000  C
  C18      1.0000 0.87460  0.66740  0.94460  Biso   1.000  C
  C19      1.0000 0.83500  0.60410  0.79130  Biso   1.000  C
  C20      1.0000 0.79010  0.71230  0.89710  Biso   1.000  C
  C21      1.0000 0.46670  0.33910  0.37250  Biso   1.000  C
  C22      1.0000 0.48530  0.42490  0.43610  Biso   1.000  C
  C23      1.0000 0.58710  0.43510  0.47770  Biso   1.000  C
  C24      1.0000 0.60170  0.50780  0.53950  Biso   1.000  C
  C25      1.0000 0.47560  0.02420  0.92190  Biso   1.000  C
  C26      1.0000 0.45820  0.09880  0.98120  Biso   1.000  C
  C27      1.0000 0.48240  0.07690  0.06200  Biso   1.000  C
  C28      1.0000 0.46290  0.16030  0.12720  Biso   1.000  C
  C29      1.0000 0.21740  0.20800  0.40060  Biso   1.000  C
  C30      1.0000 0.16900  0.09900  0.29550  Biso   1.000  C
  C31      1.0000 0.13250  0.16680  0.44740  Biso   1.000  C
  C32      1.0000 0.08420  0.05190  0.33890  Biso   1.000  C
  C33      1.0000 0.06350  0.08660  0.41730  Biso   1.000  C
  C34      1.0000 0.97370  0.03650  0.46770  Biso   1.000  C
  C35      1.0000 0.97120  0.46770  0.03360  Biso   1.000  C
  C36      1.0000 0.05900  0.41430  0.08600  Biso   1.000  C
  C37      1.0000 0.07960  0.44570  0.16480  Biso   1.000  C
  C38      1.0000 0.12540  0.33260  0.05540  Biso   1.000  C
  C39      1.0000 0.16500  0.39590  0.20870  Biso   1.000  C
  C40      1.0000 0.20990  0.28770  0.10290  Biso   1.000  C
  N1       1.0000 0.76360  0.82350  0.67510  Biso   1.000  N
  N2       1.0000 0.76850  0.68090  0.82120  Biso   1.000  N
  N3       1.0000 0.23640  0.17650  0.32490  Biso   1.000  N
  N4       1.0000 0.23150  0.31910  0.17880  Biso   1.000  N
  O1       1.0000 0.58740  0.62930  0.69070  Biso   1.000  O
  O2       1.0000 0.50120  0.75300  0.61460  Biso   1.000  O
  O3       1.0000 0.59320  0.87280  0.81247  Biso   1.000  O
  O4       1.0000 0.50430  0.74750  0.88302  Biso   1.000  O
  O5       1.0000 0.41260  0.37070  0.30930  Biso   1.000  O
  O6       1.0000 0.49880  0.24700  0.38540  Biso   1.000  O
  O7       1.0000 0.40680  0.12720  0.18753  Biso   1.000  O
  O8       1.0000 0.49570  0.25250  0.11698  Biso   1.000  O
  F1       1.0000 0.32220  0.62270  0.54464  Biso   1.000  F
  F2       1.0000 0.29450  0.48640  0.42558  Biso   1.000  F
  F3       1.0000 0.55140  0.94760  0.15429  Biso   1.000  F
  F4       1.0000 0.58660  0.80610  0.03900  Biso   1.000  F
  F5       1.0000 0.67780  0.37730  0.45536  Biso   1.000  F
  F6       1.0000 0.70550  0.51360  0.57442  Biso   1.000  F
  F7       1.0000 0.44860  0.05240  0.84571  Biso   1.000  F
  F8       1.0000 0.41340  0.19390  0.96100  Biso   1.000  F
  Zn3      1.0000 0.85135  0.25197  0.75053  Biso   1.000  Zn
  Zn4      1.0000 0.14865  0.74803  0.24947  Biso   1.000  Zn
  H25      1.0000 0.76430  0.23940  0.92270  Biso   1.000  H
  H26      1.0000 0.68050  0.42390  0.74300  Biso   1.000  H
  H27      1.0000 0.62140  0.30730  0.99930  Biso   1.000  H
  H28      1.0000 0.54080  0.50280  0.81630  Biso   1.000  H
  H29      1.0000 0.42290  0.50510  0.93360  Biso   1.000  H
  H30      1.0000 0.42930  0.40780  0.99340  Biso   1.000  H
  H31      1.0000 0.42500  0.98480  0.56610  Biso   1.000  H
  H32      1.0000 0.42160  0.08610  0.51000  Biso   1.000  H
  H33      1.0000 0.53650  0.00010  0.68790  Biso   1.000  H
  H34      1.0000 0.61320  0.19200  0.50320  Biso   1.000  H
  H35      1.0000 0.67670  0.08310  0.76180  Biso   1.000  H
  H36      1.0000 0.75390  0.26690  0.58120  Biso   1.000  H
  H37      1.0000 0.23570  0.76060  0.07730  Biso   1.000  H
  H38      1.0000 0.31950  0.57610  0.25700  Biso   1.000  H
  H39      1.0000 0.37860  0.69270  0.00070  Biso   1.000  H
  H40      1.0000 0.45920  0.49720  0.18370  Biso   1.000  H
  H41      1.0000 0.57710  0.49490  0.06640  Biso   1.000  H
  H42      1.0000 0.57070  0.59220  0.00660  Biso   1.000  H
  H43      1.0000 0.57500  0.01520  0.43390  Biso   1.000  H
  H44      1.0000 0.57840  0.91390  0.49000  Biso   1.000  H
  H45      1.0000 0.46350  0.99990  0.31210  Biso   1.000  H
  H46      1.0000 0.38680  0.80800  0.49680  Biso   1.000  H
  H47      1.0000 0.32330  0.91690  0.23820  Biso   1.000  H
  H48      1.0000 0.24610  0.73310  0.41880  Biso   1.000  H
  C41      1.0000 0.96670  0.16090  0.87250  Biso   1.000  C
  C42      1.0000 0.98530  0.07510  0.93610  Biso   1.000  C
  C43      1.0000 0.08710  0.06490  0.97770  Biso   1.000  C
  C44      1.0000 0.10170  0.99220  0.03950  Biso   1.000  C
  C45      1.0000 0.97560  0.47580  0.42190  Biso   1.000  C
  C46      1.0000 0.95820  0.40120  0.48120  Biso   1.000  C
  C47      1.0000 0.98240  0.42310  0.56200  Biso   1.000  C
  C48      1.0000 0.96290  0.33970  0.62720  Biso   1.000  C
  C49      1.0000 0.71740  0.29200  0.90060  Biso   1.000  C
  C50      1.0000 0.66900  0.40100  0.79550  Biso   1.000  C
  C51      1.0000 0.63250  0.33320  0.94740  Biso   1.000  C
  C52      1.0000 0.58420  0.44810  0.83890  Biso   1.000  C
  C53      1.0000 0.56350  0.41340  0.91730  Biso   1.000  C
  C54      1.0000 0.47370  0.46350  0.96770  Biso   1.000  C
  C55      1.0000 0.47120  0.03230  0.53360  Biso   1.000  C
  C56      1.0000 0.55900  0.08570  0.58600  Biso   1.000  C
  C57      1.0000 0.57960  0.05430  0.66480  Biso   1.000  C
  C58      1.0000 0.62540  0.16740  0.55540  Biso   1.000  C
  C59      1.0000 0.66500  0.10410  0.70870  Biso   1.000  C
  C60      1.0000 0.70990  0.21230  0.60290  Biso   1.000  C
  C61      1.0000 0.03330  0.83910  0.12750  Biso   1.000  C
  C62      1.0000 0.01470  0.92490  0.06390  Biso   1.000  C
  C63      1.0000 0.91290  0.93510  0.02230  Biso   1.000  C
  C64      1.0000 0.89830  0.00780  0.96050  Biso   1.000  C
  C65      1.0000 0.02440  0.52420  0.57810  Biso   1.000  C
  C66      1.0000 0.04180  0.59880  0.51880  Biso   1.000  C
  C67      1.0000 0.01760  0.57690  0.43800  Biso   1.000  C
  C68      1.0000 0.03710  0.66030  0.37280  Biso   1.000  C
  C69      1.0000 0.28260  0.70800  0.09940  Biso   1.000  C
  C70      1.0000 0.33100  0.59900  0.20450  Biso   1.000  C
  C71      1.0000 0.36750  0.66680  0.05260  Biso   1.000  C
  C72      1.0000 0.41580  0.55190  0.16110  Biso   1.000  C
  C73      1.0000 0.43650  0.58660  0.08270  Biso   1.000  C
  C74      1.0000 0.52630  0.53650  0.03230  Biso   1.000  C
  C75      1.0000 0.52880  0.96770  0.46640  Biso   1.000  C
  C76      1.0000 0.44100  0.91430  0.41400  Biso   1.000  C
  C77      1.0000 0.42040  0.94570  0.33520  Biso   1.000  C
  C78      1.0000 0.37460  0.83260  0.44460  Biso   1.000  C
  C79      1.0000 0.33500  0.89590  0.29130  Biso   1.000  C
  C80      1.0000 0.29010  0.78770  0.39710  Biso   1.000  C
  N5       1.0000 0.73640  0.32350  0.82490  Biso   1.000  N
  N6       1.0000 0.73150  0.18090  0.67880  Biso   1.000  N
  N7       1.0000 0.26360  0.67650  0.17510  Biso   1.000  N
  N8       1.0000 0.26850  0.81910  0.32120  Biso   1.000  N
  O9       1.0000 0.91260  0.12930  0.80930  Biso   1.000  O
  O10      1.0000 0.99880  0.25300  0.88540  Biso   1.000  O
  O11      1.0000 0.90680  0.37280  0.68753  Biso   1.000  O
  O12      1.0000 0.99570  0.24750  0.61698  Biso   1.000  O
  O13      1.0000 0.08740  0.87070  0.19070  Biso   1.000  O
  O14      1.0000 0.00120  0.74700  0.11460  Biso   1.000  O
  O15      1.0000 0.09320  0.62720  0.31247  Biso   1.000  O
  O16      1.0000 0.00430  0.75250  0.38302  Biso   1.000  O
  F9       1.0000 0.17780  0.12270  0.95536  Biso   1.000  F
  F10      1.0000 0.20550  0.98640  0.07442  Biso   1.000  F
  F11      1.0000 0.94860  0.44760  0.34571  Biso   1.000  F
  F12      1.0000 0.91340  0.30610  0.46100  Biso   1.000  F
  F13      1.0000 0.82220  0.87730  0.04464  Biso   1.000  F
  F14      1.0000 0.79450  0.01360  0.92558  Biso   1.000  F
  F15      1.0000 0.05140  0.55240  0.65429  Biso   1.000  F
  F16      1.0000 0.08660  0.69390  0.53900  Biso   1.000  F
