data_image0
_cell_length_a       7.544
_cell_length_b       14.7297
_cell_length_c       14.7297
_cell_angle_alpha    116.916
_cell_angle_beta     104.428
_cell_angle_gamma    75.5721

_symmetry_space_group_name_H-M    P 1
_symmetry_int_tables_number       1

loop_
  _symmetry_equiv_pos_as_xyz
  'x, y, z'

loop_
  _atom_site_label
  _atom_site_occupancy
  _atom_site_fract_x
  _atom_site_fract_y
  _atom_site_fract_z
  _atom_site_thermal_displace_type
  _atom_site_B_iso_or_equiv
  _atom_site_type_symbol
  Cd1      1.0000 0.75157  0.91890  0.13262  Biso   1.000  Cd
  Cd2      1.0000 0.25157  0.86738  0.08110  Biso   1.000  Cd
  H1       1.0000 0.86140  0.61530  0.83890  Biso   1.000  H
  H2       1.0000 0.95870  0.44570  0.72650  Biso   1.000  H
  H3       1.0000 0.21410  0.56970  0.07330  Biso   1.000  H
  H4       1.0000 0.30630  0.40280  0.96380  Biso   1.000  H
  H5       1.0000 0.03100  0.28940  0.63220  Biso   1.000  H
  H6       1.0000 0.93760  0.22170  0.47570  Biso   1.000  H
  H7       1.0000 0.79670  0.13700  0.30780  Biso   1.000  H
  H8       1.0000 0.05850  0.87320  0.30180  Biso   1.000  H
  H9       1.0000 0.20420  0.94870  0.46490  Biso   1.000  H
  H10      1.0000 0.33780  0.02050  0.61290  Biso   1.000  H
  H11      1.0000 0.57710  0.95110  0.67550  Biso   1.000  H
  H12      1.0000 0.79550  0.86110  0.76450  Biso   1.000  H
  H13      1.0000 0.74980  0.10870  0.03210  Biso   1.000  H
  H14      1.0000 0.53300  0.19820  0.94500  Biso   1.000  H
  H15      1.0000 0.36140  0.16110  0.38470  Biso   1.000  H
  H16      1.0000 0.45870  0.27350  0.55430  Biso   1.000  H
  H17      1.0000 0.71410  0.92670  0.43030  Biso   1.000  H
  H18      1.0000 0.80630  0.03620  0.59720  Biso   1.000  H
  H19      1.0000 0.53100  0.36780  0.71060  Biso   1.000  H
  H20      1.0000 0.43760  0.52430  0.77830  Biso   1.000  H
  H21      1.0000 0.29670  0.69220  0.86300  Biso   1.000  H
  H22      1.0000 0.55850  0.69820  0.12680  Biso   1.000  H
  H23      1.0000 0.70420  0.53510  0.05130  Biso   1.000  H
  H24      1.0000 0.83780  0.38710  0.97950  Biso   1.000  H
  H25      1.0000 0.07710  0.32450  0.04890  Biso   1.000  H
  H26      1.0000 0.29550  0.23550  0.13890  Biso   1.000  H
  H27      1.0000 0.24980  0.96790  0.89130  Biso   1.000  H
  H28      1.0000 0.03300  0.05500  0.80180  Biso   1.000  H
  C1       1.0000 0.96430  0.72060  0.03700  Biso   1.000  C
  C2       1.0000 0.02810  0.61090  0.96550  Biso   1.000  C
  C3       1.0000 0.95220  0.57300  0.86400  Biso   1.000  C
  C4       1.0000 0.00950  0.46990  0.79610  Biso   1.000  C
  C5       1.0000 0.14100  0.40510  0.83310  Biso   1.000  C
  C6       1.0000 0.16270  0.54510  0.00390  Biso   1.000  C
  C7       1.0000 0.21680  0.44530  0.93810  Biso   1.000  C
  C8       1.0000 0.19940  0.29480  0.76420  Biso   1.000  C
  C9       1.0000 0.12020  0.24970  0.66130  Biso   1.000  C
  C10      1.0000 0.17290  0.14640  0.60220  Biso   1.000  C
  C11      1.0000 0.08630  0.09500  0.49340  Biso   1.000  C
  C12      1.0000 0.96400  0.15030  0.44250  Biso   1.000  C
  C13      1.0000 0.87940  0.09810  0.34030  Biso   1.000  C
  C14      1.0000 0.03200  0.94450  0.33670  Biso   1.000  C
  C15      1.0000 0.11980  0.98980  0.43560  Biso   1.000  C
  C16      1.0000 0.30280  0.09090  0.64990  Biso   1.000  C
  C17      1.0000 0.38160  0.13830  0.75150  Biso   1.000  C
  C18      1.0000 0.52660  0.08230  0.80510  Biso   1.000  C
  C19      1.0000 0.60850  0.98190  0.74690  Biso   1.000  C
  C20      1.0000 0.74180  0.92860  0.80100  Biso   1.000  C
  C21      1.0000 0.79280  0.97600  0.90780  Biso   1.000  C
  C22      1.0000 0.71510  0.07600  0.96100  Biso   1.000  C
  C23      1.0000 0.58240  0.12980  0.90840  Biso   1.000  C
  C24      1.0000 0.94350  0.92210  0.96270  Biso   1.000  C
  C25      1.0000 0.46430  0.96300  0.27940  Biso   1.000  C
  C26      1.0000 0.52810  0.03450  0.38910  Biso   1.000  C
  C27      1.0000 0.45220  0.13600  0.42700  Biso   1.000  C
  C28      1.0000 0.50950  0.20390  0.53010  Biso   1.000  C
  C29      1.0000 0.64100  0.16690  0.59490  Biso   1.000  C
  C30      1.0000 0.66270  0.99610  0.45490  Biso   1.000  C
  C31      1.0000 0.71680  0.06190  0.55470  Biso   1.000  C
  C32      1.0000 0.69940  0.23580  0.70520  Biso   1.000  C
  C33      1.0000 0.62020  0.33870  0.75030  Biso   1.000  C
  C34      1.0000 0.67290  0.39780  0.85360  Biso   1.000  C
  C35      1.0000 0.58630  0.50660  0.90500  Biso   1.000  C
  C36      1.0000 0.46400  0.55750  0.84970  Biso   1.000  C
  C37      1.0000 0.37940  0.65970  0.90190  Biso   1.000  C
  C38      1.0000 0.53200  0.66330  0.05550  Biso   1.000  C
  C39      1.0000 0.61980  0.56440  0.01020  Biso   1.000  C
  C40      1.0000 0.80280  0.35010  0.90910  Biso   1.000  C
  C41      1.0000 0.88160  0.24850  0.86170  Biso   1.000  C
  C42      1.0000 0.02660  0.19490  0.91770  Biso   1.000  C
  C43      1.0000 0.10850  0.25310  0.01810  Biso   1.000  C
  C44      1.0000 0.24180  0.19900  0.07140  Biso   1.000  C
  C45      1.0000 0.29280  0.09220  0.02400  Biso   1.000  C
  C46      1.0000 0.21510  0.03900  0.92400  Biso   1.000  C
  C47      1.0000 0.08240  0.09160  0.87020  Biso   1.000  C
  C48      1.0000 0.44350  0.03730  0.07790  Biso   1.000  C
  N1       1.0000 0.32690  0.23850  0.80930  Biso   1.000  N
  N2       1.0000 0.91160  0.99640  0.28760  Biso   1.000  N
  N3       1.0000 0.82690  0.19070  0.76150  Biso   1.000  N
  N4       1.0000 0.41160  0.71240  0.00360  Biso   1.000  N
  O1       1.0000 0.80570  0.76080  0.01420  Biso   1.000  O
  O2       1.0000 0.08270  0.76850  0.11470  Biso   1.000  O
  O3       1.0000 0.95780  0.95950  0.06070  Biso   1.000  O
  O4       1.0000 0.05330  0.84590  0.91270  Biso   1.000  O
  O5       1.0000 0.30570  0.98580  0.23920  Biso   1.000  O
  O6       1.0000 0.58270  0.88530  0.23150  Biso   1.000  O
  O7       1.0000 0.45780  0.93930  0.04050  Biso   1.000  O
  O8       1.0000 0.55330  0.08730  0.15410  Biso   1.000  O
