data_image0
_cell_length_a       6.605
_cell_length_b       10.4478
_cell_length_c       11.0881
_cell_angle_alpha    62.064
_cell_angle_beta     73.41
_cell_angle_gamma    78.404

_symmetry_space_group_name_H-M    P 1
_symmetry_int_tables_number       1

loop_
  _symmetry_equiv_pos_as_xyz
  'x, y, z'

loop_
  _atom_site_label
  _atom_site_occupancy
  _atom_site_fract_x
  _atom_site_fract_y
  _atom_site_fract_z
  _atom_site_thermal_displace_type
  _atom_site_B_iso_or_equiv
  _atom_site_type_symbol
  Cu1      1.0000 0.00000  0.00000  0.50000  Biso   1.000  Cu
  Cu2      1.0000 0.50000  0.00000  0.50000  Biso   1.000  Cu
  H1       1.0000 0.69070  0.83250  0.69490  Biso   1.000  H
  H2       1.0000 0.73790  0.78000  0.59650  Biso   1.000  H
  H3       1.0000 0.58670  0.73100  0.44290  Biso   1.000  H
  H4       1.0000 0.14620  0.44530  0.57760  Biso   1.000  H
  H5       1.0000 0.34780  0.04650  0.87280  Biso   1.000  H
  H6       1.0000 0.76380  0.95030  0.90830  Biso   1.000  H
  H7       1.0000 0.30930  0.16750  0.30510  Biso   1.000  H
  H8       1.0000 0.26210  0.22000  0.40350  Biso   1.000  H
  H9       1.0000 0.41330  0.26900  0.55710  Biso   1.000  H
  H10      1.0000 0.85380  0.55470  0.42240  Biso   1.000  H
  H11      1.0000 0.65220  0.95350  0.12720  Biso   1.000  H
  H12      1.0000 0.23620  0.04970  0.09170  Biso   1.000  H
  C1       1.0000 0.13630  0.99610  0.72890  Biso   1.000  C
  C2       1.0000 0.16470  0.71770  0.52600  Biso   1.000  C
  C3       1.0000 0.55140  0.63710  0.46630  Biso   1.000  C
  C4       1.0000 0.06550  0.99870  0.86970  Biso   1.000  C
  C5       1.0000 0.34020  0.60540  0.51320  Biso   1.000  C
  C6       1.0000 0.29010  0.46740  0.54630  Biso   1.000  C
  C7       1.0000 0.20630  0.02770  0.92440  Biso   1.000  C
  C8       1.0000 0.86000  0.97070  0.94530  Biso   1.000  C
  C9       1.0000 0.86370  0.00390  0.27110  Biso   1.000  C
  C10      1.0000 0.83530  0.28230  0.47400  Biso   1.000  C
  C11      1.0000 0.44860  0.36290  0.53370  Biso   1.000  C
  C12      1.0000 0.93450  0.00130  0.13030  Biso   1.000  C
  C13      1.0000 0.65980  0.39460  0.48680  Biso   1.000  C
  C14      1.0000 0.70990  0.53260  0.45370  Biso   1.000  C
  C15      1.0000 0.79370  0.97230  0.07560  Biso   1.000  C
  C16      1.0000 0.14000  0.02930  0.05470  Biso   1.000  C
  O1       1.0000 0.32920  0.01250  0.66980  Biso   1.000  O
  O2       1.0000 0.21300  0.83240  0.52070  Biso   1.000  O
  O3       1.0000 0.68350  0.85310  0.61230  Biso   1.000  O
  O4       1.0000 0.99770  0.97800  0.68410  Biso   1.000  O
  O5       1.0000 0.98110  0.69190  0.54050  Biso   1.000  O
  O6       1.0000 0.67080  0.98750  0.33020  Biso   1.000  O
  O7       1.0000 0.78700  0.16760  0.47930  Biso   1.000  O
  O8       1.0000 0.31650  0.14690  0.38770  Biso   1.000  O
  O9       1.0000 0.00230  0.02200  0.31590  Biso   1.000  O
  O10      1.0000 0.01890  0.30810  0.45950  Biso   1.000  O
