data_image0
_cell_length_a       14.0571
_cell_length_b       14.0571
_cell_length_c       14.0571
_cell_angle_alpha    108.353
_cell_angle_beta     110.033
_cell_angle_gamma    110.033

_symmetry_space_group_name_H-M    P 1
_symmetry_int_tables_number       1

loop_
  _symmetry_equiv_pos_as_xyz
  'x, y, z'

loop_
  _atom_site_label
  _atom_site_occupancy
  _atom_site_fract_x
  _atom_site_fract_y
  _atom_site_fract_z
  _atom_site_thermal_displace_type
  _atom_site_B_iso_or_equiv
  _atom_site_type_symbol
  Cu1      1.0000 0.89857  0.69884  0.80027  Biso   1.000  Cu
  Cu2      1.0000 0.10143  0.90170  0.80027  Biso   1.000  Cu
  Cu3      1.0000 0.60143  0.55027  0.15170  Biso   1.000  Cu
  Cu4      1.0000 0.39857  0.55027  0.94884  Biso   1.000  Cu
  H1       1.0000 0.65710  0.54940  0.58670  Biso   1.000  H
  H2       1.0000 0.67570  0.46470  0.49920  Biso   1.000  H
  H3       1.0000 0.59950  0.51870  0.45480  Biso   1.000  H
  H4       1.0000 0.34290  0.92960  0.89230  Biso   1.000  H
  H5       1.0000 0.32430  0.82350  0.78900  Biso   1.000  H
  H6       1.0000 0.40050  0.85530  0.91920  Biso   1.000  H
  H7       1.0000 0.53730  0.33670  0.17960  Biso   1.000  H
  H8       1.0000 0.53450  0.24920  0.07350  Biso   1.000  H
  H9       1.0000 0.43610  0.20480  0.10530  Biso   1.000  H
  H10      1.0000 0.46270  0.64230  0.79940  Biso   1.000  H
  H11      1.0000 0.46550  0.53900  0.71470  Biso   1.000  H
  H12      1.0000 0.56390  0.66920  0.76870  Biso   1.000  H
  H13      1.0000 0.03730  0.92960  0.58670  Biso   1.000  H
  H14      1.0000 0.03450  0.82350  0.49920  Biso   1.000  H
  H15      1.0000 0.93610  0.85530  0.45480  Biso   1.000  H
  H16      1.0000 0.96270  0.54940  0.89230  Biso   1.000  H
  H17      1.0000 0.96550  0.46470  0.78900  Biso   1.000  H
  H18      1.0000 0.06390  0.51870  0.91920  Biso   1.000  H
  H19      1.0000 0.84290  0.64230  0.17960  Biso   1.000  H
  H20      1.0000 0.82430  0.53900  0.07350  Biso   1.000  H
  H21      1.0000 0.90050  0.66920  0.10530  Biso   1.000  H
  H22      1.0000 0.15710  0.33670  0.79940  Biso   1.000  H
  H23      1.0000 0.17570  0.24920  0.71470  Biso   1.000  H
  H24      1.0000 0.09950  0.20480  0.76870  Biso   1.000  H
  C1       1.0000 0.77510  0.63450  0.54800  Biso   1.000  C
  C2       1.0000 0.66740  0.53290  0.51970  Biso   1.000  C
  C3       1.0000 0.22490  0.77290  0.85940  Biso   1.000  C
  C4       1.0000 0.33260  0.85230  0.86550  Biso   1.000  C
  C5       1.0000 0.41350  0.29800  0.02290  Biso   1.000  C
  C6       1.0000 0.48680  0.26970  0.10230  Biso   1.000  C
  C7       1.0000 0.58650  0.60940  0.88450  Biso   1.000  C
  C8       1.0000 0.51320  0.61550  0.78290  Biso   1.000  C
  C9       1.0000 0.91350  0.77290  0.54800  Biso   1.000  C
  C10      1.0000 0.98680  0.85230  0.51970  Biso   1.000  C
  C11      1.0000 0.08650  0.63450  0.85940  Biso   1.000  C
  C12      1.0000 0.01320  0.53290  0.86550  Biso   1.000  C
  C13      1.0000 0.72490  0.60940  0.02290  Biso   1.000  C
  C14      1.0000 0.83260  0.61550  0.10230  Biso   1.000  C
  C15      1.0000 0.27510  0.29800  0.88450  Biso   1.000  C
  C16      1.0000 0.16740  0.26970  0.78290  Biso   1.000  C
  C17      1.0000 0.79920  0.67700  0.47620  Biso   1.000  C
  C18      1.0000 0.72480  0.62940  0.35420  Biso   1.000  C
  C19      1.0000 0.20080  0.67700  0.87780  Biso   1.000  C
  C20      1.0000 0.27520  0.62940  0.90460  Biso   1.000  C
  C21      1.0000 0.29920  0.22620  0.92700  Biso   1.000  C
  C22      1.0000 0.22480  0.10420  0.87940  Biso   1.000  C
  C23      1.0000 0.70080  0.62780  0.92700  Biso   1.000  C
  C24      1.0000 0.77520  0.65460  0.87940  Biso   1.000  C
  N1       1.0000 0.86820  0.70220  0.65420  Biso   1.000  N
  N2       1.0000 0.13180  0.78600  0.83400  Biso   1.000  N
  N3       1.0000 0.45200  0.40420  0.03600  Biso   1.000  N
  N4       1.0000 0.54800  0.58400  0.95220  Biso   1.000  N
  N5       1.0000 0.95200  0.78600  0.65420  Biso   1.000  N
  N6       1.0000 0.04800  0.70220  0.83400  Biso   1.000  N
  N7       1.0000 0.63180  0.58400  0.03600  Biso   1.000  N
  N8       1.0000 0.36820  0.40420  0.95220  Biso   1.000  N
  O1       1.0000 0.62300  0.53970  0.29650  Biso   1.000  O
  O2       1.0000 0.37700  0.67350  0.91670  Biso   1.000  O
  O3       1.0000 0.25680  0.04650  0.92350  Biso   1.000  O
  O4       1.0000 0.74320  0.66670  0.78970  Biso   1.000  O
  O5       1.0000 0.75680  0.67350  0.29650  Biso   1.000  O
  O6       1.0000 0.24320  0.53970  0.91670  Biso   1.000  O
  O7       1.0000 0.87700  0.66670  0.92350  Biso   1.000  O
  O8       1.0000 0.12300  0.04650  0.78970  Biso   1.000  O
