data_image0
_cell_length_a       13.8151
_cell_length_b       13.8151
_cell_length_c       13.8151
_cell_angle_alpha    105.335
_cell_angle_beta     105.335
_cell_angle_gamma    118.104

_symmetry_space_group_name_H-M    P 1
_symmetry_int_tables_number       1

loop_
  _symmetry_equiv_pos_as_xyz
  'x, y, z'

loop_
  _atom_site_label
  _atom_site_occupancy
  _atom_site_fract_x
  _atom_site_fract_y
  _atom_site_fract_z
  _atom_site_thermal_displace_type
  _atom_site_B_iso_or_equiv
  _atom_site_type_symbol
  Cu1      1.0000 0.52117  0.62025  0.09908  Biso   1.000  Cu
  Cu2      1.0000 0.52117  0.42209  0.90092  Biso   1.000  Cu
  Cu3      1.0000 0.67209  0.27117  0.40092  Biso   1.000  Cu
  Cu4      1.0000 0.87025  0.27117  0.59908  Biso   1.000  Cu
  H1       1.0000 0.65770  0.59220  0.39150  Biso   1.000  H
  H2       1.0000 0.51190  0.51590  0.33260  Biso   1.000  H
  H3       1.0000 0.59190  0.63730  0.32260  Biso   1.000  H
  H4       1.0000 0.20070  0.26620  0.60850  Biso   1.000  H
  H5       1.0000 0.18330  0.17930  0.66740  Biso   1.000  H
  H6       1.0000 0.31470  0.26930  0.67740  Biso   1.000  H
  H7       1.0000 0.51620  0.40770  0.56550  Biso   1.000  H
  H8       1.0000 0.42930  0.26190  0.49600  Biso   1.000  H
  H9       1.0000 0.51930  0.34190  0.45460  Biso   1.000  H
  H10      1.0000 0.84220  0.95070  0.43450  Biso   1.000  H
  H11      1.0000 0.76590  0.93330  0.50400  Biso   1.000  H
  H12      1.0000 0.88730  0.06470  0.54540  Biso   1.000  H
  H13      1.0000 0.20070  0.59220  0.93450  Biso   1.000  H
  H14      1.0000 0.18330  0.51590  0.00400  Biso   1.000  H
  H15      1.0000 0.31470  0.63730  0.04540  Biso   1.000  H
  H16      1.0000 0.65770  0.26620  0.06550  Biso   1.000  H
  H17      1.0000 0.51190  0.17930  0.99600  Biso   1.000  H
  H18      1.0000 0.59190  0.26930  0.95460  Biso   1.000  H
  H19      1.0000 0.84220  0.40770  0.89150  Biso   1.000  H
  H20      1.0000 0.76590  0.26190  0.83260  Biso   1.000  H
  H21      1.0000 0.88730  0.34190  0.82260  Biso   1.000  H
  H22      1.0000 0.51620  0.95070  0.10850  Biso   1.000  H
  H23      1.0000 0.42930  0.93330  0.16740  Biso   1.000  H
  H24      1.0000 0.51930  0.06470  0.17740  Biso   1.000  H
  C1       1.0000 0.57980  0.49110  0.22210  Biso   1.000  C
  C2       1.0000 0.58590  0.56560  0.32630  Biso   1.000  C
  C3       1.0000 0.26900  0.35770  0.77790  Biso   1.000  C
  C4       1.0000 0.23930  0.25960  0.67370  Biso   1.000  C
  C5       1.0000 0.60770  0.32980  0.58870  Biso   1.000  C
  C6       1.0000 0.50960  0.33590  0.52030  Biso   1.000  C
  C7       1.0000 0.74110  0.01900  0.41130  Biso   1.000  C
  C8       1.0000 0.81560  0.98930  0.47970  Biso   1.000  C
  C9       1.0000 0.26900  0.49110  0.91130  Biso   1.000  C
  C10      1.0000 0.23930  0.56560  0.97970  Biso   1.000  C
  C11      1.0000 0.57980  0.35770  0.08870  Biso   1.000  C
  C12      1.0000 0.58590  0.25960  0.02030  Biso   1.000  C
  C13      1.0000 0.74110  0.32980  0.72210  Biso   1.000  C
  C14      1.0000 0.81560  0.33590  0.82630  Biso   1.000  C
  C15      1.0000 0.60770  0.01900  0.27790  Biso   1.000  C
  C16      1.0000 0.50960  0.98930  0.17370  Biso   1.000  C
  C17      1.0000 0.60430  0.39980  0.20450  Biso   1.000  C
  C18      1.0000 0.63450  0.35530  0.27920  Biso   1.000  C
  C19      1.0000 0.19530  0.39980  0.79550  Biso   1.000  C
  C20      1.0000 0.07610  0.35530  0.72080  Biso   1.000  C
  C21      1.0000 0.64980  0.35430  0.70450  Biso   1.000  C
  C22      1.0000 0.60530  0.38450  0.77920  Biso   1.000  C
  C23      1.0000 0.64980  0.94530  0.29550  Biso   1.000  C
  C24      1.0000 0.60530  0.82610  0.22080  Biso   1.000  C
  N1       1.0000 0.54890  0.50230  0.12780  Biso   1.000  N
  N2       1.0000 0.37450  0.42110  0.87220  Biso   1.000  N
  N3       1.0000 0.67110  0.29890  0.54660  Biso   1.000  N
  N4       1.0000 0.75230  0.12450  0.45340  Biso   1.000  N
  N5       1.0000 0.37450  0.50230  0.95340  Biso   1.000  N
  N6       1.0000 0.54890  0.42110  0.04660  Biso   1.000  N
  N7       1.0000 0.75230  0.29890  0.62780  Biso   1.000  N
  N8       1.0000 0.67110  0.12450  0.37220  Biso   1.000  N
  O1       1.0000 0.64960  0.39960  0.38020  Biso   1.000  O
  O2       1.0000 0.01940  0.26940  0.61980  Biso   1.000  O
  O3       1.0000 0.51940  0.39960  0.75000  Biso   1.000  O
  O4       1.0000 0.64960  0.76940  0.25000  Biso   1.000  O
  O5       1.0000 0.01940  0.39960  0.75000  Biso   1.000  O
  O6       1.0000 0.64960  0.26940  0.25000  Biso   1.000  O
  O7       1.0000 0.64960  0.39960  0.88020  Biso   1.000  O
  O8       1.0000 0.51940  0.76940  0.11980  Biso   1.000  O
