data_image0
_cell_length_a       9.4272
_cell_length_b       18.662
_cell_length_c       20.461
_cell_angle_alpha    90
_cell_angle_beta     90
_cell_angle_gamma    90

_symmetry_space_group_name_H-M    P 1
_symmetry_int_tables_number       1

loop_
  _symmetry_equiv_pos_as_xyz
  'x, y, z'

loop_
  _atom_site_label
  _atom_site_occupancy
  _atom_site_fract_x
  _atom_site_fract_y
  _atom_site_fract_z
  _atom_site_thermal_displace_type
  _atom_site_B_iso_or_equiv
  _atom_site_type_symbol
  Zn1      1.0000 0.74652  0.36553  0.33262  Biso   1.000  Zn
  Zn2      1.0000 0.44865  0.27238  0.38352  Biso   1.000  Zn
  Zn3      1.0000 0.64399  0.67736  0.07596  Biso   1.000  Zn
  Zn4      1.0000 0.74652  0.63447  0.66738  Biso   1.000  Zn
  Zn5      1.0000 0.44865  0.72762  0.61648  Biso   1.000  Zn
  Zn6      1.0000 0.64399  0.32264  0.92404  Biso   1.000  Zn
  Zn7      1.0000 0.24652  0.86553  0.16738  Biso   1.000  Zn
  Zn8      1.0000 0.94865  0.77238  0.11648  Biso   1.000  Zn
  Zn9      1.0000 0.14399  0.17736  0.42404  Biso   1.000  Zn
  Zn10     1.0000 0.24652  0.13447  0.83262  Biso   1.000  Zn
  Zn11     1.0000 0.94865  0.22762  0.88352  Biso   1.000  Zn
  Zn12     1.0000 0.14399  0.82264  0.57596  Biso   1.000  Zn
  H1       1.0000 0.69000  0.24250  0.36300  Biso   1.000  H
  H2       1.0000 0.18000  0.28600  0.37900  Biso   1.000  H
  H3       1.0000 0.18850  0.23260  0.07130  Biso   1.000  H
  H4       1.0000 0.53000  0.52770  0.23050  Biso   1.000  H
  H5       1.0000 0.15310  0.60200  0.17250  Biso   1.000  H
  H6       1.0000 0.04410  0.51410  0.23410  Biso   1.000  H
  H7       1.0000 0.17490  0.43290  0.29300  Biso   1.000  H
  H8       1.0000 0.23850  0.42860  0.42640  Biso   1.000  H
  H9       1.0000 0.71650  0.09650  0.45610  Biso   1.000  H
  H10      1.0000 0.99500  0.28620  0.26630  Biso   1.000  H
  H11      1.0000 0.04020  0.36580  0.08800  Biso   1.000  H
  H12      1.0000 0.85300  0.44160  0.10720  Biso   1.000  H
  H13      1.0000 0.73490  0.43560  0.20610  Biso   1.000  H
  H14      1.0000 0.12270  0.21910  0.17550  Biso   1.000  H
  H15      1.0000 0.22880  0.27960  0.19500  Biso   1.000  H
  H16      1.0000 0.38520  0.25720  0.99960  Biso   1.000  H
  H17      1.0000 0.32710  0.37540  0.15890  Biso   1.000  H
  H18      1.0000 0.51430  0.44490  0.12790  Biso   1.000  H
  H19      1.0000 0.63670  0.41770  0.03370  Biso   1.000  H
  H20      1.0000 0.69000  0.75750  0.63700  Biso   1.000  H
  H21      1.0000 0.18000  0.71400  0.62100  Biso   1.000  H
  H22      1.0000 0.18850  0.76740  0.92870  Biso   1.000  H
  H23      1.0000 0.53000  0.47230  0.76950  Biso   1.000  H
  H24      1.0000 0.15310  0.39800  0.82750  Biso   1.000  H
  H25      1.0000 0.04410  0.48590  0.76590  Biso   1.000  H
  H26      1.0000 0.17490  0.56710  0.70700  Biso   1.000  H
  H27      1.0000 0.23850  0.57140  0.57360  Biso   1.000  H
  H28      1.0000 0.71650  0.90350  0.54390  Biso   1.000  H
  H29      1.0000 0.99500  0.71380  0.73370  Biso   1.000  H
  H30      1.0000 0.04020  0.63420  0.91200  Biso   1.000  H
  H31      1.0000 0.85300  0.55840  0.89280  Biso   1.000  H
  H32      1.0000 0.73490  0.56440  0.79390  Biso   1.000  H
  H33      1.0000 0.12270  0.78090  0.82450  Biso   1.000  H
  H34      1.0000 0.22880  0.72040  0.80500  Biso   1.000  H
  H35      1.0000 0.38520  0.74280  0.00040  Biso   1.000  H
  H36      1.0000 0.32710  0.62460  0.84110  Biso   1.000  H
  H37      1.0000 0.51430  0.55510  0.87210  Biso   1.000  H
  H38      1.0000 0.63670  0.58230  0.96630  Biso   1.000  H
  H39      1.0000 0.19000  0.74250  0.13700  Biso   1.000  H
  H40      1.0000 0.68000  0.78600  0.12100  Biso   1.000  H
  H41      1.0000 0.68850  0.73260  0.42870  Biso   1.000  H
  H42      1.0000 0.03000  0.02770  0.26950  Biso   1.000  H
  H43      1.0000 0.65310  0.10200  0.32750  Biso   1.000  H
  H44      1.0000 0.54410  0.01410  0.26590  Biso   1.000  H
  H45      1.0000 0.67490  0.93290  0.20700  Biso   1.000  H
  H46      1.0000 0.73850  0.92860  0.07360  Biso   1.000  H
  H47      1.0000 0.21650  0.59650  0.04390  Biso   1.000  H
  H48      1.0000 0.49500  0.78620  0.23370  Biso   1.000  H
  H49      1.0000 0.54020  0.86580  0.41200  Biso   1.000  H
  H50      1.0000 0.35300  0.94160  0.39280  Biso   1.000  H
  H51      1.0000 0.23490  0.93560  0.29390  Biso   1.000  H
  H52      1.0000 0.62270  0.71910  0.32450  Biso   1.000  H
  H53      1.0000 0.72880  0.77960  0.30500  Biso   1.000  H
  H54      1.0000 0.88520  0.75720  0.50040  Biso   1.000  H
  H55      1.0000 0.82710  0.87540  0.34110  Biso   1.000  H
  H56      1.0000 0.01430  0.94490  0.37210  Biso   1.000  H
  H57      1.0000 0.13670  0.91770  0.46630  Biso   1.000  H
  H58      1.0000 0.19000  0.25750  0.86300  Biso   1.000  H
  H59      1.0000 0.68000  0.21400  0.87900  Biso   1.000  H
  H60      1.0000 0.68850  0.26740  0.57130  Biso   1.000  H
  H61      1.0000 0.03000  0.97230  0.73050  Biso   1.000  H
  H62      1.0000 0.65310  0.89800  0.67250  Biso   1.000  H
  H63      1.0000 0.54410  0.98590  0.73410  Biso   1.000  H
  H64      1.0000 0.67490  0.06710  0.79300  Biso   1.000  H
  H65      1.0000 0.73850  0.07140  0.92640  Biso   1.000  H
  H66      1.0000 0.21650  0.40350  0.95610  Biso   1.000  H
  H67      1.0000 0.49500  0.21380  0.76630  Biso   1.000  H
  H68      1.0000 0.54020  0.13420  0.58800  Biso   1.000  H
  H69      1.0000 0.35300  0.05840  0.60720  Biso   1.000  H
  H70      1.0000 0.23490  0.06440  0.70610  Biso   1.000  H
  H71      1.0000 0.62270  0.28090  0.67550  Biso   1.000  H
  H72      1.0000 0.72880  0.22040  0.69500  Biso   1.000  H
  H73      1.0000 0.88520  0.24280  0.49960  Biso   1.000  H
  H74      1.0000 0.82710  0.12460  0.65890  Biso   1.000  H
  H75      1.0000 0.01430  0.05510  0.62790  Biso   1.000  H
  H76      1.0000 0.13670  0.08230  0.53370  Biso   1.000  H
  H77      1.0000 0.86670  0.50000  0.50000  Biso   1.000  H
  H78      1.0000 0.35770  0.50000  0.50000  Biso   1.000  H
  H79      1.0000 0.36670  0.00000  0.00000  Biso   1.000  H
  H80      1.0000 0.85770  0.00000  0.00000  Biso   1.000  H
  H81      1.0000 0.34920  0.00000  0.50000  Biso   1.000  H
  H82      1.0000 0.83990  0.00000  0.50000  Biso   1.000  H
  H83      1.0000 0.84920  0.50000  0.00000  Biso   1.000  H
  H84      1.0000 0.33990  0.50000  0.00000  Biso   1.000  H
  C1       1.0000 0.45740  0.41960  0.30540  Biso   1.000  C
  C2       1.0000 0.36840  0.47260  0.26870  Biso   1.000  C
  C3       1.0000 0.43150  0.52490  0.23130  Biso   1.000  C
  C4       1.0000 0.35310  0.57360  0.19480  Biso   1.000  C
  C5       1.0000 0.20750  0.56960  0.19620  Biso   1.000  C
  C6       1.0000 0.14260  0.51680  0.23330  Biso   1.000  C
  C7       1.0000 0.22040  0.46830  0.26890  Biso   1.000  C
  C8       1.0000 0.42830  0.62670  0.15170  Biso   1.000  C
  C9       1.0000 0.96060  0.41300  0.40660  Biso   1.000  C
  C10      1.0000 0.04030  0.45720  0.45540  Biso   1.000  C
  C11      1.0000 0.18830  0.45710  0.45560  Biso   1.000  C
  C12      1.0000 0.43580  0.12050  0.44730  Biso   1.000  C
  C13      1.0000 0.52060  0.05790  0.47350  Biso   1.000  C
  C14      1.0000 0.66720  0.05790  0.47360  Biso   1.000  C
  C15      1.0000 0.96440  0.31700  0.23340  Biso   1.000  C
  C16      1.0000 0.03480  0.31680  0.17390  Biso   1.000  C
  C17      1.0000 0.99270  0.36400  0.12790  Biso   1.000  C
  C18      1.0000 0.88160  0.40910  0.13900  Biso   1.000  C
  C19      1.0000 0.81210  0.40570  0.19840  Biso   1.000  C
  C20      1.0000 0.15520  0.26680  0.16400  Biso   1.000  C
  C21      1.0000 0.41270  0.29470  0.02680  Biso   1.000  C
  C22      1.0000 0.33460  0.30650  0.08390  Biso   1.000  C
  C23      1.0000 0.37620  0.36440  0.12080  Biso   1.000  C
  C24      1.0000 0.48740  0.40580  0.10260  Biso   1.000  C
  C25      1.0000 0.56030  0.38930  0.04610  Biso   1.000  C
  C26      1.0000 0.45740  0.58040  0.69460  Biso   1.000  C
  C27      1.0000 0.36840  0.52740  0.73130  Biso   1.000  C
  C28      1.0000 0.43150  0.47510  0.76870  Biso   1.000  C
  C29      1.0000 0.35310  0.42640  0.80520  Biso   1.000  C
  C30      1.0000 0.20750  0.43040  0.80380  Biso   1.000  C
  C31      1.0000 0.14260  0.48320  0.76670  Biso   1.000  C
  C32      1.0000 0.22040  0.53170  0.73110  Biso   1.000  C
  C33      1.0000 0.42830  0.37330  0.84830  Biso   1.000  C
  C34      1.0000 0.96060  0.58700  0.59340  Biso   1.000  C
  C35      1.0000 0.04030  0.54280  0.54460  Biso   1.000  C
  C36      1.0000 0.18830  0.54290  0.54440  Biso   1.000  C
  C37      1.0000 0.43580  0.87950  0.55270  Biso   1.000  C
  C38      1.0000 0.52060  0.94210  0.52650  Biso   1.000  C
  C39      1.0000 0.66720  0.94210  0.52640  Biso   1.000  C
  C40      1.0000 0.96440  0.68300  0.76660  Biso   1.000  C
  C41      1.0000 0.03480  0.68320  0.82610  Biso   1.000  C
  C42      1.0000 0.99270  0.63600  0.87210  Biso   1.000  C
  C43      1.0000 0.88160  0.59090  0.86100  Biso   1.000  C
  C44      1.0000 0.81210  0.59430  0.80160  Biso   1.000  C
  C45      1.0000 0.15520  0.73320  0.83600  Biso   1.000  C
  C46      1.0000 0.41270  0.70530  0.97320  Biso   1.000  C
  C47      1.0000 0.33460  0.69350  0.91610  Biso   1.000  C
  C48      1.0000 0.37620  0.63560  0.87920  Biso   1.000  C
  C49      1.0000 0.48740  0.59420  0.89740  Biso   1.000  C
  C50      1.0000 0.56030  0.61070  0.95390  Biso   1.000  C
  C51      1.0000 0.95740  0.91960  0.19460  Biso   1.000  C
  C52      1.0000 0.86840  0.97260  0.23130  Biso   1.000  C
  C53      1.0000 0.93150  0.02490  0.26870  Biso   1.000  C
  C54      1.0000 0.85310  0.07360  0.30520  Biso   1.000  C
  C55      1.0000 0.70750  0.06960  0.30380  Biso   1.000  C
  C56      1.0000 0.64260  0.01680  0.26670  Biso   1.000  C
  C57      1.0000 0.72040  0.96830  0.23110  Biso   1.000  C
  C58      1.0000 0.92830  0.12670  0.34830  Biso   1.000  C
  C59      1.0000 0.46060  0.91300  0.09340  Biso   1.000  C
  C60      1.0000 0.54030  0.95720  0.04460  Biso   1.000  C
  C61      1.0000 0.68830  0.95710  0.04440  Biso   1.000  C
  C62      1.0000 0.93580  0.62050  0.05270  Biso   1.000  C
  C63      1.0000 0.02060  0.55790  0.02650  Biso   1.000  C
  C64      1.0000 0.16720  0.55790  0.02640  Biso   1.000  C
  C65      1.0000 0.46440  0.81700  0.26660  Biso   1.000  C
  C66      1.0000 0.53480  0.81680  0.32610  Biso   1.000  C
  C67      1.0000 0.49270  0.86400  0.37210  Biso   1.000  C
  C68      1.0000 0.38160  0.90910  0.36100  Biso   1.000  C
  C69      1.0000 0.31210  0.90570  0.30160  Biso   1.000  C
  C70      1.0000 0.65520  0.76680  0.33600  Biso   1.000  C
  C71      1.0000 0.91270  0.79470  0.47320  Biso   1.000  C
  C72      1.0000 0.83460  0.80650  0.41610  Biso   1.000  C
  C73      1.0000 0.87620  0.86440  0.37920  Biso   1.000  C
  C74      1.0000 0.98740  0.90580  0.39740  Biso   1.000  C
  C75      1.0000 0.06030  0.88930  0.45390  Biso   1.000  C
  C76      1.0000 0.95740  0.08040  0.80540  Biso   1.000  C
  C77      1.0000 0.86840  0.02740  0.76870  Biso   1.000  C
  C78      1.0000 0.93150  0.97510  0.73130  Biso   1.000  C
  C79      1.0000 0.85310  0.92640  0.69480  Biso   1.000  C
  C80      1.0000 0.70750  0.93040  0.69620  Biso   1.000  C
  C81      1.0000 0.64260  0.98320  0.73330  Biso   1.000  C
  C82      1.0000 0.72040  0.03170  0.76890  Biso   1.000  C
  C83      1.0000 0.92830  0.87330  0.65170  Biso   1.000  C
  C84      1.0000 0.46060  0.08700  0.90660  Biso   1.000  C
  C85      1.0000 0.54030  0.04280  0.95540  Biso   1.000  C
  C86      1.0000 0.68830  0.04290  0.95560  Biso   1.000  C
  C87      1.0000 0.93580  0.37950  0.94730  Biso   1.000  C
  C88      1.0000 0.02060  0.44210  0.97350  Biso   1.000  C
  C89      1.0000 0.16720  0.44210  0.97360  Biso   1.000  C
  C90      1.0000 0.46440  0.18300  0.73340  Biso   1.000  C
  C91      1.0000 0.53480  0.18320  0.67390  Biso   1.000  C
  C92      1.0000 0.49270  0.13600  0.62790  Biso   1.000  C
  C93      1.0000 0.38160  0.09090  0.63900  Biso   1.000  C
  C94      1.0000 0.31210  0.09430  0.69840  Biso   1.000  C
  C95      1.0000 0.65520  0.23320  0.66400  Biso   1.000  C
  C96      1.0000 0.91270  0.20530  0.52680  Biso   1.000  C
  C97      1.0000 0.83460  0.19350  0.58390  Biso   1.000  C
  C98      1.0000 0.87620  0.13560  0.62080  Biso   1.000  C
  C99      1.0000 0.98740  0.09420  0.60260  Biso   1.000  C
  C100     1.0000 0.06030  0.11070  0.54610  Biso   1.000  C
  C101     1.0000 0.96540  0.50000  0.50000  Biso   1.000  C
  C102     1.0000 0.25910  0.50000  0.50000  Biso   1.000  C
  C103     1.0000 0.46540  0.00000  0.00000  Biso   1.000  C
  C104     1.0000 0.75910  0.00000  0.00000  Biso   1.000  C
  C105     1.0000 0.44780  0.00000  0.50000  Biso   1.000  C
  C106     1.0000 0.74130  0.00000  0.50000  Biso   1.000  C
  C107     1.0000 0.94780  0.50000  0.00000  Biso   1.000  C
  C108     1.0000 0.24130  0.50000  0.00000  Biso   1.000  C
  N1       1.0000 0.85420  0.36000  0.24500  Biso   1.000  N
  N2       1.0000 0.22050  0.26250  0.09970  Biso   1.000  N
  N3       1.0000 0.52450  0.33400  0.00900  Biso   1.000  N
  N4       1.0000 0.85420  0.64000  0.75500  Biso   1.000  N
  N5       1.0000 0.22050  0.73750  0.90030  Biso   1.000  N
  N6       1.0000 0.52450  0.66600  0.99100  Biso   1.000  N
  N7       1.0000 0.35420  0.86000  0.25500  Biso   1.000  N
  N8       1.0000 0.72050  0.76250  0.40030  Biso   1.000  N
  N9       1.0000 0.02450  0.83400  0.49100  Biso   1.000  N
  N10      1.0000 0.35420  0.14000  0.74500  Biso   1.000  N
  N11      1.0000 0.72050  0.23750  0.59970  Biso   1.000  N
  N12      1.0000 0.02450  0.16600  0.50900  Biso   1.000  N
  O1       1.0000 0.58930  0.43000  0.30400  Biso   1.000  O
  O2       1.0000 0.39780  0.36980  0.33480  Biso   1.000  O
  O3       1.0000 0.55870  0.61190  0.13940  Biso   1.000  O
  O4       1.0000 0.36790  0.67890  0.12940  Biso   1.000  O
  O5       1.0000 0.83330  0.43320  0.39450  Biso   1.000  O
  O6       1.0000 0.01600  0.36050  0.38100  Biso   1.000  O
  O7       1.0000 0.50190  0.17250  0.42620  Biso   1.000  O
  O8       1.0000 0.30260  0.11380  0.45010  Biso   1.000  O
  O9       1.0000 0.65250  0.28394  0.36370  Biso   1.000  O
  O10      1.0000 0.24150  0.25960  0.39710  Biso   1.000  O
  O11      1.0000 0.58930  0.57000  0.69600  Biso   1.000  O
  O12      1.0000 0.39780  0.63020  0.66520  Biso   1.000  O
  O13      1.0000 0.55870  0.38810  0.86060  Biso   1.000  O
  O14      1.0000 0.36790  0.32110  0.87060  Biso   1.000  O
  O15      1.0000 0.83330  0.56680  0.60550  Biso   1.000  O
  O16      1.0000 0.01600  0.63950  0.61900  Biso   1.000  O
  O17      1.0000 0.50190  0.82750  0.57380  Biso   1.000  O
  O18      1.0000 0.30260  0.88620  0.54990  Biso   1.000  O
  O19      1.0000 0.65250  0.71606  0.63630  Biso   1.000  O
  O20      1.0000 0.24150  0.74040  0.60290  Biso   1.000  O
  O21      1.0000 0.08930  0.93000  0.19600  Biso   1.000  O
  O22      1.0000 0.89780  0.86980  0.16520  Biso   1.000  O
  O23      1.0000 0.05870  0.11190  0.36060  Biso   1.000  O
  O24      1.0000 0.86790  0.17890  0.37060  Biso   1.000  O
  O25      1.0000 0.33330  0.93320  0.10550  Biso   1.000  O
  O26      1.0000 0.51600  0.86050  0.11900  Biso   1.000  O
  O27      1.0000 0.00190  0.67250  0.07380  Biso   1.000  O
  O28      1.0000 0.80260  0.61380  0.04990  Biso   1.000  O
  O29      1.0000 0.15250  0.78394  0.13630  Biso   1.000  O
  O30      1.0000 0.74150  0.75960  0.10290  Biso   1.000  O
  O31      1.0000 0.08930  0.07000  0.80400  Biso   1.000  O
  O32      1.0000 0.89780  0.13020  0.83480  Biso   1.000  O
  O33      1.0000 0.05870  0.88810  0.63940  Biso   1.000  O
  O34      1.0000 0.86790  0.82110  0.62940  Biso   1.000  O
  O35      1.0000 0.33330  0.06680  0.89450  Biso   1.000  O
  O36      1.0000 0.51600  0.13950  0.88100  Biso   1.000  O
  O37      1.0000 0.00190  0.32750  0.92620  Biso   1.000  O
  O38      1.0000 0.80260  0.38620  0.95010  Biso   1.000  O
  O39      1.0000 0.15250  0.21606  0.86370  Biso   1.000  O
  O40      1.0000 0.74150  0.24040  0.89710  Biso   1.000  O
