data_image0
_cell_length_a       10.8471
_cell_length_b       18.232
_cell_length_c       18.894
_cell_angle_alpha    108.711
_cell_angle_beta     90
_cell_angle_gamma    90

_symmetry_space_group_name_H-M    P 1
_symmetry_int_tables_number       1

loop_
  _symmetry_equiv_pos_as_xyz
  'x, y, z'

loop_
  _atom_site_label
  _atom_site_occupancy
  _atom_site_fract_x
  _atom_site_fract_y
  _atom_site_fract_z
  _atom_site_thermal_displace_type
  _atom_site_B_iso_or_equiv
  _atom_site_type_symbol
  Zn1      1.0000 0.80482  0.68363  0.97198  Biso   1.000  Zn
  Zn2      1.0000 0.80603  0.78874  0.87493  Biso   1.000  Zn
  Zn3      1.0000 0.69518  0.18363  0.47198  Biso   1.000  Zn
  Zn4      1.0000 0.69397  0.28874  0.37493  Biso   1.000  Zn
  H1       1.0000 0.49240  0.38540  0.31760  Biso   1.000  H
  H2       1.0000 0.53860  0.45890  0.23140  Biso   1.000  H
  H3       1.0000 0.91440  0.33250  0.31030  Biso   1.000  H
  H4       1.0000 0.92710  0.33480  0.22670  Biso   1.000  H
  H5       1.0000 0.95000  0.41170  0.29590  Biso   1.000  H
  H6       1.0000 0.83090  0.40760  0.14840  Biso   1.000  H
  H7       1.0000 0.72410  0.46910  0.15240  Biso   1.000  H
  H8       1.0000 0.83080  0.56710  0.23470  Biso   1.000  H
  H9       1.0000 0.92260  0.50860  0.25600  Biso   1.000  H
  H10      1.0000 0.01400  0.47570  0.13600  Biso   1.000  H
  H11      1.0000 0.02660  0.56660  0.17890  Biso   1.000  H
  H12      1.0000 0.85260  0.43260  0.02220  Biso   1.000  H
  H13      1.0000 0.76440  0.50440  0.94300  Biso   1.000  H
  H14      1.0000 0.91330  0.72780  0.12240  Biso   1.000  H
  H15      1.0000 0.90040  0.69130  0.18860  Biso   1.000  H
  H16      1.0000 0.02620  0.68130  0.14220  Biso   1.000  H
  H17      1.0000 0.71230  0.99500  0.05310  Biso   1.000  H
  H18      1.0000 0.68350  0.10390  0.15750  Biso   1.000  H
  H19      1.0000 0.75770  0.97640  0.29220  Biso   1.000  H
  H20      1.0000 0.79150  0.86870  0.18770  Biso   1.000  H
  H21      1.0000 0.20100  0.78300  0.84220  Biso   1.000  H
  H22      1.0000 0.41480  0.77210  0.83750  Biso   1.000  H
  H23      1.0000 0.41050  0.69310  0.01350  Biso   1.000  H
  H24      1.0000 0.19660  0.70190  0.01830  Biso   1.000  H
  H25      1.0000 0.00760  0.88540  0.81760  Biso   1.000  H
  H26      1.0000 0.96140  0.95890  0.73140  Biso   1.000  H
  H27      1.0000 0.58560  0.83250  0.81030  Biso   1.000  H
  H28      1.0000 0.57290  0.83480  0.72670  Biso   1.000  H
  H29      1.0000 0.55000  0.91170  0.79590  Biso   1.000  H
  H30      1.0000 0.66910  0.90760  0.64840  Biso   1.000  H
  H31      1.0000 0.77590  0.96910  0.65240  Biso   1.000  H
  H32      1.0000 0.66920  0.06710  0.73470  Biso   1.000  H
  H33      1.0000 0.57740  0.00860  0.75600  Biso   1.000  H
  H34      1.0000 0.48600  0.97570  0.63600  Biso   1.000  H
  H35      1.0000 0.47340  0.06660  0.67890  Biso   1.000  H
  H36      1.0000 0.64740  0.93260  0.52220  Biso   1.000  H
  H37      1.0000 0.73560  0.00440  0.44300  Biso   1.000  H
  H38      1.0000 0.58670  0.22780  0.62240  Biso   1.000  H
  H39      1.0000 0.59960  0.19130  0.68860  Biso   1.000  H
  H40      1.0000 0.47380  0.18130  0.64220  Biso   1.000  H
  H41      1.0000 0.78770  0.49500  0.55310  Biso   1.000  H
  H42      1.0000 0.81650  0.60390  0.65750  Biso   1.000  H
  H43      1.0000 0.74230  0.47640  0.79220  Biso   1.000  H
  H44      1.0000 0.70850  0.36870  0.68770  Biso   1.000  H
  H45      1.0000 0.29900  0.28300  0.34220  Biso   1.000  H
  H46      1.0000 0.08520  0.27210  0.33750  Biso   1.000  H
  H47      1.0000 0.08950  0.19310  0.51350  Biso   1.000  H
  H48      1.0000 0.30340  0.20190  0.51830  Biso   1.000  H
  C1       1.0000 0.57140  0.39200  0.29890  Biso   1.000  C
  C2       1.0000 0.59650  0.43200  0.25170  Biso   1.000  C
  C3       1.0000 0.76870  0.38400  0.27770  Biso   1.000  C
  C4       1.0000 0.90130  0.36400  0.27760  Biso   1.000  C
  C5       1.0000 0.78600  0.45230  0.18250  Biso   1.000  C
  C6       1.0000 0.87660  0.51780  0.21440  Biso   1.000  C
  C7       1.0000 0.96710  0.52470  0.15540  Biso   1.000  C
  C8       1.0000 0.85430  0.48710  0.03220  Biso   1.000  C
  C9       1.0000 0.80640  0.52660  0.98910  Biso   1.000  C
  C10      1.0000 0.88860  0.61070  0.08490  Biso   1.000  C
  C11      1.0000 0.93630  0.68410  0.13920  Biso   1.000  C
  C12      1.0000 0.78060  0.85270  0.04220  Biso   1.000  C
  C13      1.0000 0.75740  0.92130  0.11000  Biso   1.000  C
  C14      1.0000 0.72330  0.99130  0.10170  Biso   1.000  C
  C15      1.0000 0.70500  0.05580  0.16380  Biso   1.000  C
  C16      1.0000 0.71780  0.05080  0.23470  Biso   1.000  C
  C17      1.0000 0.69810  0.12170  0.30200  Biso   1.000  C
  C18      1.0000 0.74960  0.98050  0.24350  Biso   1.000  C
  C19      1.0000 0.76930  0.91660  0.18140  Biso   1.000  C
  C20      1.0000 0.04040  0.74360  0.92940  Biso   1.000  C
  C21      1.0000 0.17790  0.74280  0.93020  Biso   1.000  C
  C22      1.0000 0.24330  0.76420  0.87690  Biso   1.000  C
  C23      1.0000 0.37010  0.75810  0.87440  Biso   1.000  C
  C24      1.0000 0.43260  0.73180  0.92520  Biso   1.000  C
  C25      1.0000 0.57080  0.72730  0.92330  Biso   1.000  C
  C26      1.0000 0.36760  0.71110  0.97850  Biso   1.000  C
  C27      1.0000 0.24080  0.71630  0.98140  Biso   1.000  C
  C28      1.0000 0.92860  0.89200  0.79890  Biso   1.000  C
  C29      1.0000 0.90350  0.93200  0.75170  Biso   1.000  C
  C30      1.0000 0.73130  0.88400  0.77770  Biso   1.000  C
  C31      1.0000 0.59870  0.86400  0.77760  Biso   1.000  C
  C32      1.0000 0.71400  0.95230  0.68250  Biso   1.000  C
  C33      1.0000 0.62340  0.01780  0.71440  Biso   1.000  C
  C34      1.0000 0.53290  0.02470  0.65540  Biso   1.000  C
  C35      1.0000 0.64570  0.98710  0.53220  Biso   1.000  C
  C36      1.0000 0.69360  0.02660  0.48910  Biso   1.000  C
  C37      1.0000 0.61140  0.11070  0.58490  Biso   1.000  C
  C38      1.0000 0.56370  0.18410  0.63920  Biso   1.000  C
  C39      1.0000 0.71940  0.35270  0.54220  Biso   1.000  C
  C40      1.0000 0.74260  0.42130  0.61000  Biso   1.000  C
  C41      1.0000 0.77670  0.49130  0.60170  Biso   1.000  C
  C42      1.0000 0.79500  0.55580  0.66380  Biso   1.000  C
  C43      1.0000 0.78220  0.55080  0.73470  Biso   1.000  C
  C44      1.0000 0.80190  0.62170  0.80200  Biso   1.000  C
  C45      1.0000 0.75040  0.48050  0.74350  Biso   1.000  C
  C46      1.0000 0.73070  0.41660  0.68140  Biso   1.000  C
  C47      1.0000 0.45960  0.24360  0.42940  Biso   1.000  C
  C48      1.0000 0.32210  0.24280  0.43020  Biso   1.000  C
  C49      1.0000 0.25670  0.26420  0.37690  Biso   1.000  C
  C50      1.0000 0.12990  0.25810  0.37440  Biso   1.000  C
  C51      1.0000 0.06740  0.23180  0.42520  Biso   1.000  C
  C52      1.0000 0.92920  0.22730  0.42330  Biso   1.000  C
  C53      1.0000 0.13240  0.21110  0.47850  Biso   1.000  C
  C54      1.0000 0.25920  0.21630  0.48140  Biso   1.000  C
  N1       1.0000 0.68170  0.36215  0.31529  Biso   1.000  N
  N2       1.0000 0.72130  0.42670  0.23850  Biso   1.000  N
  N3       1.0000 0.90600  0.54110  0.09310  Biso   1.000  N
  N4       1.0000 0.82840  0.60410  0.02288  Biso   1.000  N
  N5       1.0000 0.81830  0.86215  0.81529  Biso   1.000  N
  N6       1.0000 0.77870  0.92670  0.73850  Biso   1.000  N
  N7       1.0000 0.59400  0.04110  0.59310  Biso   1.000  N
  N8       1.0000 0.67160  0.10410  0.52288  Biso   1.000  N
  O1       1.0000 0.79510  0.78922  0.05210  Biso   1.000  O
  O2       1.0000 0.78450  0.86471  0.98140  Biso   1.000  O
  O3       1.0000 0.68550  0.18493  0.29077  Biso   1.000  O
  O4       1.0000 0.69660  0.11130  0.36389  Biso   1.000  O
  O5       1.0000 0.98860  0.78242  0.89467  Biso   1.000  O
  O6       1.0000 0.98760  0.70290  0.96250  Biso   1.000  O
  O7       1.0000 0.62650  0.75969  0.88413  Biso   1.000  O
  O8       1.0000 0.62120  0.69240  0.96280  Biso   1.000  O
  O9       1.0000 0.70490  0.28922  0.55210  Biso   1.000  O
  O10      1.0000 0.71550  0.36471  0.48140  Biso   1.000  O
  O11      1.0000 0.81450  0.68493  0.79077  Biso   1.000  O
  O12      1.0000 0.80340  0.61130  0.86389  Biso   1.000  O
  O13      1.0000 0.51140  0.28242  0.39467  Biso   1.000  O
  O14      1.0000 0.51240  0.20290  0.46250  Biso   1.000  O
  O15      1.0000 0.87350  0.25969  0.38413  Biso   1.000  O
  O16      1.0000 0.87880  0.19240  0.46280  Biso   1.000  O
  Zn5      1.0000 0.30482  0.81637  0.52802  Biso   1.000  Zn
  Zn6      1.0000 0.30603  0.71126  0.62507  Biso   1.000  Zn
  Zn7      1.0000 0.19518  0.31637  0.02802  Biso   1.000  Zn
  Zn8      1.0000 0.19397  0.21126  0.12507  Biso   1.000  Zn
  H49      1.0000 0.99240  0.11460  0.18240  Biso   1.000  H
  H50      1.0000 0.03860  0.04110  0.26860  Biso   1.000  H
  H51      1.0000 0.41440  0.16750  0.18970  Biso   1.000  H
  H52      1.0000 0.42710  0.16520  0.27330  Biso   1.000  H
  H53      1.0000 0.45000  0.08830  0.20410  Biso   1.000  H
  H54      1.0000 0.33090  0.09240  0.35160  Biso   1.000  H
  H55      1.0000 0.22410  0.03090  0.34760  Biso   1.000  H
  H56      1.0000 0.33080  0.93290  0.26530  Biso   1.000  H
  H57      1.0000 0.42260  0.99140  0.24400  Biso   1.000  H
  H58      1.0000 0.51400  0.02430  0.36400  Biso   1.000  H
  H59      1.0000 0.52660  0.93340  0.32110  Biso   1.000  H
  H60      1.0000 0.35260  0.06740  0.47780  Biso   1.000  H
  H61      1.0000 0.26440  0.99560  0.55700  Biso   1.000  H
  H62      1.0000 0.41330  0.77220  0.37760  Biso   1.000  H
  H63      1.0000 0.40040  0.80870  0.31140  Biso   1.000  H
  H64      1.0000 0.52620  0.81870  0.35780  Biso   1.000  H
  H65      1.0000 0.21230  0.50500  0.44690  Biso   1.000  H
  H66      1.0000 0.18350  0.39610  0.34250  Biso   1.000  H
  H67      1.0000 0.25770  0.52360  0.20780  Biso   1.000  H
  H68      1.0000 0.29150  0.63130  0.31230  Biso   1.000  H
  H69      1.0000 0.70100  0.71700  0.65780  Biso   1.000  H
  H70      1.0000 0.91480  0.72790  0.66250  Biso   1.000  H
  H71      1.0000 0.91050  0.80690  0.48650  Biso   1.000  H
  H72      1.0000 0.69660  0.79810  0.48170  Biso   1.000  H
  H73      1.0000 0.50760  0.61460  0.68240  Biso   1.000  H
  H74      1.0000 0.46140  0.54110  0.76860  Biso   1.000  H
  H75      1.0000 0.08560  0.66750  0.68970  Biso   1.000  H
  H76      1.0000 0.07290  0.66520  0.77330  Biso   1.000  H
  H77      1.0000 0.05000  0.58830  0.70410  Biso   1.000  H
  H78      1.0000 0.16910  0.59240  0.85160  Biso   1.000  H
  H79      1.0000 0.27590  0.53090  0.84760  Biso   1.000  H
  H80      1.0000 0.16920  0.43290  0.76530  Biso   1.000  H
  H81      1.0000 0.07740  0.49140  0.74400  Biso   1.000  H
  H82      1.0000 0.98600  0.52430  0.86400  Biso   1.000  H
  H83      1.0000 0.97340  0.43340  0.82110  Biso   1.000  H
  H84      1.0000 0.14740  0.56740  0.97780  Biso   1.000  H
  H85      1.0000 0.23560  0.49560  0.05700  Biso   1.000  H
  H86      1.0000 0.08670  0.27220  0.87760  Biso   1.000  H
  H87      1.0000 0.09960  0.30870  0.81140  Biso   1.000  H
  H88      1.0000 0.97380  0.31870  0.85780  Biso   1.000  H
  H89      1.0000 0.28770  0.00500  0.94690  Biso   1.000  H
  H90      1.0000 0.31650  0.89610  0.84250  Biso   1.000  H
  H91      1.0000 0.24230  0.02360  0.70780  Biso   1.000  H
  H92      1.0000 0.20850  0.13130  0.81230  Biso   1.000  H
  H93      1.0000 0.79900  0.21700  0.15780  Biso   1.000  H
  H94      1.0000 0.58520  0.22790  0.16250  Biso   1.000  H
  H95      1.0000 0.58950  0.30690  0.98650  Biso   1.000  H
  H96      1.0000 0.80340  0.29810  0.98170  Biso   1.000  H
  C55      1.0000 0.07140  0.10800  0.20110  Biso   1.000  C
  C56      1.0000 0.09650  0.06800  0.24830  Biso   1.000  C
  C57      1.0000 0.26870  0.11600  0.22230  Biso   1.000  C
  C58      1.0000 0.40130  0.13600  0.22240  Biso   1.000  C
  C59      1.0000 0.28600  0.04770  0.31750  Biso   1.000  C
  C60      1.0000 0.37660  0.98220  0.28560  Biso   1.000  C
  C61      1.0000 0.46710  0.97530  0.34460  Biso   1.000  C
  C62      1.0000 0.35430  0.01290  0.46780  Biso   1.000  C
  C63      1.0000 0.30640  0.97340  0.51090  Biso   1.000  C
  C64      1.0000 0.38860  0.88930  0.41510  Biso   1.000  C
  C65      1.0000 0.43630  0.81590  0.36080  Biso   1.000  C
  C66      1.0000 0.28060  0.64730  0.45780  Biso   1.000  C
  C67      1.0000 0.25740  0.57870  0.39000  Biso   1.000  C
  C68      1.0000 0.22330  0.50870  0.39830  Biso   1.000  C
  C69      1.0000 0.20500  0.44420  0.33620  Biso   1.000  C
  C70      1.0000 0.21780  0.44920  0.26530  Biso   1.000  C
  C71      1.0000 0.19810  0.37830  0.19800  Biso   1.000  C
  C72      1.0000 0.24960  0.51950  0.25650  Biso   1.000  C
  C73      1.0000 0.26930  0.58340  0.31860  Biso   1.000  C
  C74      1.0000 0.54040  0.75640  0.57060  Biso   1.000  C
  C75      1.0000 0.67790  0.75720  0.56980  Biso   1.000  C
  C76      1.0000 0.74330  0.73580  0.62310  Biso   1.000  C
  C77      1.0000 0.87010  0.74190  0.62560  Biso   1.000  C
  C78      1.0000 0.93260  0.76820  0.57480  Biso   1.000  C
  C79      1.0000 0.07080  0.77270  0.57670  Biso   1.000  C
  C80      1.0000 0.86760  0.78890  0.52150  Biso   1.000  C
  C81      1.0000 0.74080  0.78370  0.51860  Biso   1.000  C
  C82      1.0000 0.42860  0.60800  0.70110  Biso   1.000  C
  C83      1.0000 0.40350  0.56800  0.74830  Biso   1.000  C
  C84      1.0000 0.23130  0.61600  0.72230  Biso   1.000  C
  C85      1.0000 0.09870  0.63600  0.72240  Biso   1.000  C
  C86      1.0000 0.21400  0.54770  0.81750  Biso   1.000  C
  C87      1.0000 0.12340  0.48220  0.78560  Biso   1.000  C
  C88      1.0000 0.03290  0.47530  0.84460  Biso   1.000  C
  C89      1.0000 0.14570  0.51290  0.96780  Biso   1.000  C
  C90      1.0000 0.19360  0.47340  0.01090  Biso   1.000  C
  C91      1.0000 0.11140  0.38930  0.91510  Biso   1.000  C
  C92      1.0000 0.06370  0.31590  0.86080  Biso   1.000  C
  C93      1.0000 0.21940  0.14730  0.95780  Biso   1.000  C
  C94      1.0000 0.24260  0.07870  0.89000  Biso   1.000  C
  C95      1.0000 0.27670  0.00870  0.89830  Biso   1.000  C
  C96      1.0000 0.29500  0.94420  0.83620  Biso   1.000  C
  C97      1.0000 0.28220  0.94920  0.76530  Biso   1.000  C
  C98      1.0000 0.30190  0.87830  0.69800  Biso   1.000  C
  C99      1.0000 0.25040  0.01950  0.75650  Biso   1.000  C
  C100     1.0000 0.23070  0.08340  0.81860  Biso   1.000  C
  C101     1.0000 0.95960  0.25640  0.07060  Biso   1.000  C
  C102     1.0000 0.82210  0.25720  0.06980  Biso   1.000  C
  C103     1.0000 0.75670  0.23580  0.12310  Biso   1.000  C
  C104     1.0000 0.62990  0.24190  0.12560  Biso   1.000  C
  C105     1.0000 0.56740  0.26820  0.07480  Biso   1.000  C
  C106     1.0000 0.42920  0.27270  0.07670  Biso   1.000  C
  C107     1.0000 0.63240  0.28890  0.02150  Biso   1.000  C
  C108     1.0000 0.75920  0.28370  0.01860  Biso   1.000  C
  N9       1.0000 0.18170  0.13785  0.18471  Biso   1.000  N
  N10      1.0000 0.22130  0.07330  0.26150  Biso   1.000  N
  N11      1.0000 0.40600  0.95890  0.40690  Biso   1.000  N
  N12      1.0000 0.32840  0.89590  0.47712  Biso   1.000  N
  N13      1.0000 0.31830  0.63785  0.68471  Biso   1.000  N
  N14      1.0000 0.27870  0.57330  0.76150  Biso   1.000  N
  N15      1.0000 0.09400  0.45890  0.90690  Biso   1.000  N
  N16      1.0000 0.17160  0.39590  0.97712  Biso   1.000  N
  O17      1.0000 0.29510  0.71078  0.44790  Biso   1.000  O
  O18      1.0000 0.28450  0.63529  0.51860  Biso   1.000  O
  O19      1.0000 0.18550  0.31507  0.20923  Biso   1.000  O
  O20      1.0000 0.19660  0.38870  0.13611  Biso   1.000  O
  O21      1.0000 0.48860  0.71758  0.60533  Biso   1.000  O
  O22      1.0000 0.48760  0.79710  0.53750  Biso   1.000  O
  O23      1.0000 0.12650  0.74031  0.61587  Biso   1.000  O
  O24      1.0000 0.12120  0.80760  0.53720  Biso   1.000  O
  O25      1.0000 0.20490  0.21078  0.94790  Biso   1.000  O
  O26      1.0000 0.21550  0.13529  0.01860  Biso   1.000  O
  O27      1.0000 0.31450  0.81507  0.70923  Biso   1.000  O
  O28      1.0000 0.30340  0.88870  0.63611  Biso   1.000  O
  O29      1.0000 0.01140  0.21758  0.10533  Biso   1.000  O
  O30      1.0000 0.01240  0.29710  0.03750  Biso   1.000  O
  O31      1.0000 0.37350  0.24031  0.11587  Biso   1.000  O
  O32      1.0000 0.37880  0.30760  0.03720  Biso   1.000  O
