data_image0
_cell_length_a       16.4393
_cell_length_b       16.4393
_cell_length_c       23.777
_cell_angle_alpha    90
_cell_angle_beta     90
_cell_angle_gamma    120

_symmetry_space_group_name_H-M    P 1
_symmetry_int_tables_number       1

loop_
  _symmetry_equiv_pos_as_xyz
  'x, y, z'

loop_
  _atom_site_label
  _atom_site_occupancy
  _atom_site_fract_x
  _atom_site_fract_y
  _atom_site_fract_z
  _atom_site_thermal_displace_type
  _atom_site_B_iso_or_equiv
  _atom_site_type_symbol
  Pr1      1.0000 0.08433  0.08433  0.00000  Biso   1.000  Pr
  Pr2      1.0000 0.00000  0.91567  0.66667  Biso   1.000  Pr
  Pr3      1.0000 0.91567  0.00000  0.33333  Biso   1.000  Pr
  Pr4      1.0000 0.91567  0.91567  0.50000  Biso   1.000  Pr
  Pr5      1.0000 0.00000  0.08433  0.16667  Biso   1.000  Pr
  Pr6      1.0000 0.08433  0.00000  0.83333  Biso   1.000  Pr
  H1       1.0000 0.11090  0.81210  0.90900  Biso   1.000  H
  H2       1.0000 0.17770  0.72220  0.89350  Biso   1.000  H
  H3       1.0000 0.38690  0.88460  0.99920  Biso   1.000  H
  H4       1.0000 0.32510  0.98270  0.00900  Biso   1.000  H
  H5       1.0000 0.47160  0.85100  0.94230  Biso   1.000  H
  H6       1.0000 0.61090  0.87990  0.98470  Biso   1.000  H
  H7       1.0000 0.77330  0.96080  0.98330  Biso   1.000  H
  H8       1.0000 0.70120  0.88910  0.57567  Biso   1.000  H
  H9       1.0000 0.54450  0.82230  0.56017  Biso   1.000  H
  H10      1.0000 0.49770  0.61310  0.66587  Biso   1.000  H
  H11      1.0000 0.65760  0.67490  0.67567  Biso   1.000  H
  H12      1.0000 0.37940  0.52840  0.60897  Biso   1.000  H
  H13      1.0000 0.26900  0.38910  0.65137  Biso   1.000  H
  H14      1.0000 0.18750  0.22670  0.64997  Biso   1.000  H
  H15      1.0000 0.18790  0.29880  0.24233  Biso   1.000  H
  H16      1.0000 0.27780  0.45550  0.22683  Biso   1.000  H
  H17      1.0000 0.11540  0.50230  0.33253  Biso   1.000  H
  H18      1.0000 0.01730  0.34240  0.34233  Biso   1.000  H
  H19      1.0000 0.14900  0.62060  0.27563  Biso   1.000  H
  H20      1.0000 0.12010  0.73100  0.31803  Biso   1.000  H
  H21      1.0000 0.03920  0.81250  0.31663  Biso   1.000  H
  H22      1.0000 0.88910  0.18790  0.40900  Biso   1.000  H
  H23      1.0000 0.82230  0.27780  0.39350  Biso   1.000  H
  H24      1.0000 0.61310  0.11540  0.49920  Biso   1.000  H
  H25      1.0000 0.67490  0.01730  0.50900  Biso   1.000  H
  H26      1.0000 0.52840  0.14900  0.44230  Biso   1.000  H
  H27      1.0000 0.38910  0.12010  0.48470  Biso   1.000  H
  H28      1.0000 0.22670  0.03920  0.48330  Biso   1.000  H
  H29      1.0000 0.29880  0.11090  0.07567  Biso   1.000  H
  H30      1.0000 0.45550  0.17770  0.06017  Biso   1.000  H
  H31      1.0000 0.50230  0.38690  0.16587  Biso   1.000  H
  H32      1.0000 0.34240  0.32510  0.17567  Biso   1.000  H
  H33      1.0000 0.62060  0.47160  0.10897  Biso   1.000  H
  H34      1.0000 0.73100  0.61090  0.15137  Biso   1.000  H
  H35      1.0000 0.81250  0.77330  0.14997  Biso   1.000  H
  H36      1.0000 0.81210  0.70120  0.74233  Biso   1.000  H
  H37      1.0000 0.72220  0.54450  0.72683  Biso   1.000  H
  H38      1.0000 0.88460  0.49770  0.83253  Biso   1.000  H
  H39      1.0000 0.98270  0.65760  0.84233  Biso   1.000  H
  H40      1.0000 0.85100  0.37940  0.77563  Biso   1.000  H
  H41      1.0000 0.87990  0.26900  0.81803  Biso   1.000  H
  H42      1.0000 0.96080  0.18750  0.81663  Biso   1.000  H
  H43      1.0000 0.29880  0.18790  0.75767  Biso   1.000  H
  H44      1.0000 0.45550  0.27780  0.77317  Biso   1.000  H
  H45      1.0000 0.50230  0.11540  0.66747  Biso   1.000  H
  H46      1.0000 0.34240  0.01730  0.65767  Biso   1.000  H
  H47      1.0000 0.62060  0.14900  0.72437  Biso   1.000  H
  H48      1.0000 0.73100  0.12010  0.68197  Biso   1.000  H
  H49      1.0000 0.81250  0.03920  0.68337  Biso   1.000  H
  H50      1.0000 0.81210  0.11090  0.09100  Biso   1.000  H
  H51      1.0000 0.72220  0.17770  0.10650  Biso   1.000  H
  H52      1.0000 0.88460  0.38690  0.00080  Biso   1.000  H
  H53      1.0000 0.98270  0.32510  0.99100  Biso   1.000  H
  H54      1.0000 0.85100  0.47160  0.05770  Biso   1.000  H
  H55      1.0000 0.87990  0.61090  0.01530  Biso   1.000  H
  H56      1.0000 0.96080  0.77330  0.01670  Biso   1.000  H
  H57      1.0000 0.88910  0.70120  0.42433  Biso   1.000  H
  H58      1.0000 0.82230  0.54450  0.43983  Biso   1.000  H
  H59      1.0000 0.61310  0.49770  0.33413  Biso   1.000  H
  H60      1.0000 0.67490  0.65760  0.32433  Biso   1.000  H
  H61      1.0000 0.52840  0.37940  0.39103  Biso   1.000  H
  H62      1.0000 0.38910  0.26900  0.34863  Biso   1.000  H
  H63      1.0000 0.22670  0.18750  0.35003  Biso   1.000  H
  H64      1.0000 0.70120  0.81210  0.25767  Biso   1.000  H
  H65      1.0000 0.54450  0.72220  0.27317  Biso   1.000  H
  H66      1.0000 0.49770  0.88460  0.16747  Biso   1.000  H
  H67      1.0000 0.65760  0.98270  0.15767  Biso   1.000  H
  H68      1.0000 0.37940  0.85100  0.22437  Biso   1.000  H
  H69      1.0000 0.26900  0.87990  0.18197  Biso   1.000  H
  H70      1.0000 0.18750  0.96080  0.18337  Biso   1.000  H
  H71      1.0000 0.18790  0.88910  0.59100  Biso   1.000  H
  H72      1.0000 0.27780  0.82230  0.60650  Biso   1.000  H
  H73      1.0000 0.11540  0.61310  0.50080  Biso   1.000  H
  H74      1.0000 0.01730  0.67490  0.49100  Biso   1.000  H
  H75      1.0000 0.14900  0.52840  0.55770  Biso   1.000  H
  H76      1.0000 0.12010  0.38910  0.51530  Biso   1.000  H
  H77      1.0000 0.03920  0.22670  0.51670  Biso   1.000  H
  H78      1.0000 0.11090  0.29880  0.92433  Biso   1.000  H
  H79      1.0000 0.17770  0.45550  0.93983  Biso   1.000  H
  H80      1.0000 0.38690  0.50230  0.83413  Biso   1.000  H
  H81      1.0000 0.32510  0.34240  0.82433  Biso   1.000  H
  H82      1.0000 0.47160  0.62060  0.89103  Biso   1.000  H
  H83      1.0000 0.61090  0.73100  0.84863  Biso   1.000  H
  H84      1.0000 0.77330  0.81250  0.85003  Biso   1.000  H
  H85      1.0000 0.22770  0.61385  0.91667  Biso   1.000  H
  H86      1.0000 0.38615  0.77230  0.58333  Biso   1.000  H
  H87      1.0000 0.38615  0.61385  0.25000  Biso   1.000  H
  H88      1.0000 0.77230  0.38615  0.41667  Biso   1.000  H
  H89      1.0000 0.61385  0.22770  0.08333  Biso   1.000  H
  H90      1.0000 0.61385  0.38615  0.75000  Biso   1.000  H
  C1       1.0000 0.17570  0.97610  0.96370  Biso   1.000  C
  C2       1.0000 0.21370  0.91070  0.95850  Biso   1.000  C
  C3       1.0000 0.16850  0.82890  0.92540  Biso   1.000  C
  C4       1.0000 0.20720  0.77410  0.91710  Biso   1.000  C
  C5       1.0000 0.29310  0.79550  0.94410  Biso   1.000  C
  C6       1.0000 0.33310  0.87170  0.97930  Biso   1.000  C
  C7       1.0000 0.29520  0.93020  0.98590  Biso   1.000  C
  C8       1.0000 0.34210  0.74350  0.93030  Biso   1.000  C
  C9       1.0000 0.43850  0.78830  0.93130  Biso   1.000  C
  C10      1.0000 0.64330  0.86660  0.95760  Biso   1.000  C
  C11      1.0000 0.74030  0.91440  0.95660  Biso   1.000  C
  C12      1.0000 0.80040  0.82430  0.63037  Biso   1.000  C
  C13      1.0000 0.69700  0.78630  0.62517  Biso   1.000  C
  C14      1.0000 0.66040  0.83150  0.59207  Biso   1.000  C
  C15      1.0000 0.56690  0.79280  0.58377  Biso   1.000  C
  C16      1.0000 0.50240  0.70690  0.61077  Biso   1.000  C
  C17      1.0000 0.53860  0.66690  0.64597  Biso   1.000  C
  C18      1.0000 0.63500  0.70480  0.65257  Biso   1.000  C
  C19      1.0000 0.40140  0.65790  0.59697  Biso   1.000  C
  C20      1.0000 0.34980  0.56150  0.59797  Biso   1.000  C
  C21      1.0000 0.22330  0.35670  0.62427  Biso   1.000  C
  C22      1.0000 0.17410  0.25970  0.62327  Biso   1.000  C
  C23      1.0000 0.02390  0.19960  0.29703  Biso   1.000  C
  C24      1.0000 0.08930  0.30300  0.29183  Biso   1.000  C
  C25      1.0000 0.17110  0.33960  0.25873  Biso   1.000  C
  C26      1.0000 0.22590  0.43310  0.25043  Biso   1.000  C
  C27      1.0000 0.20450  0.49760  0.27743  Biso   1.000  C
  C28      1.0000 0.12830  0.46140  0.31263  Biso   1.000  C
  C29      1.0000 0.06980  0.36500  0.31923  Biso   1.000  C
  C30      1.0000 0.25650  0.59860  0.26363  Biso   1.000  C
  C31      1.0000 0.21170  0.65020  0.26463  Biso   1.000  C
  C32      1.0000 0.13340  0.77670  0.29093  Biso   1.000  C
  C33      1.0000 0.08560  0.82590  0.28993  Biso   1.000  C
  C34      1.0000 0.82430  0.02390  0.46370  Biso   1.000  C
  C35      1.0000 0.78630  0.08930  0.45850  Biso   1.000  C
  C36      1.0000 0.83150  0.17110  0.42540  Biso   1.000  C
  C37      1.0000 0.79280  0.22590  0.41710  Biso   1.000  C
  C38      1.0000 0.70690  0.20450  0.44410  Biso   1.000  C
  C39      1.0000 0.66690  0.12830  0.47930  Biso   1.000  C
  C40      1.0000 0.70480  0.06980  0.48590  Biso   1.000  C
  C41      1.0000 0.65790  0.25650  0.43030  Biso   1.000  C
  C42      1.0000 0.56150  0.21170  0.43130  Biso   1.000  C
  C43      1.0000 0.35670  0.13340  0.45760  Biso   1.000  C
  C44      1.0000 0.25970  0.08560  0.45660  Biso   1.000  C
  C45      1.0000 0.19960  0.17570  0.13037  Biso   1.000  C
  C46      1.0000 0.30300  0.21370  0.12517  Biso   1.000  C
  C47      1.0000 0.33960  0.16850  0.09207  Biso   1.000  C
  C48      1.0000 0.43310  0.20720  0.08377  Biso   1.000  C
  C49      1.0000 0.49760  0.29310  0.11077  Biso   1.000  C
  C50      1.0000 0.46140  0.33310  0.14597  Biso   1.000  C
  C51      1.0000 0.36500  0.29520  0.15257  Biso   1.000  C
  C52      1.0000 0.59860  0.34210  0.09697  Biso   1.000  C
  C53      1.0000 0.65020  0.43850  0.09797  Biso   1.000  C
  C54      1.0000 0.77670  0.64330  0.12427  Biso   1.000  C
  C55      1.0000 0.82590  0.74030  0.12327  Biso   1.000  C
  C56      1.0000 0.97610  0.80040  0.79703  Biso   1.000  C
  C57      1.0000 0.91070  0.69700  0.79183  Biso   1.000  C
  C58      1.0000 0.82890  0.66040  0.75873  Biso   1.000  C
  C59      1.0000 0.77410  0.56690  0.75043  Biso   1.000  C
  C60      1.0000 0.79550  0.50240  0.77743  Biso   1.000  C
  C61      1.0000 0.87170  0.53860  0.81263  Biso   1.000  C
  C62      1.0000 0.93020  0.63500  0.81923  Biso   1.000  C
  C63      1.0000 0.74350  0.40140  0.76363  Biso   1.000  C
  C64      1.0000 0.78830  0.34980  0.76463  Biso   1.000  C
  C65      1.0000 0.86660  0.22330  0.79093  Biso   1.000  C
  C66      1.0000 0.91440  0.17410  0.78993  Biso   1.000  C
  C67      1.0000 0.19960  0.02390  0.70297  Biso   1.000  C
  C68      1.0000 0.30300  0.08930  0.70817  Biso   1.000  C
  C69      1.0000 0.33960  0.17110  0.74127  Biso   1.000  C
  C70      1.0000 0.43310  0.22590  0.74957  Biso   1.000  C
  C71      1.0000 0.49760  0.20450  0.72257  Biso   1.000  C
  C72      1.0000 0.46140  0.12830  0.68737  Biso   1.000  C
  C73      1.0000 0.36500  0.06980  0.68077  Biso   1.000  C
  C74      1.0000 0.59860  0.25650  0.73637  Biso   1.000  C
  C75      1.0000 0.65020  0.21170  0.73537  Biso   1.000  C
  C76      1.0000 0.77670  0.13340  0.70907  Biso   1.000  C
  C77      1.0000 0.82590  0.08560  0.71007  Biso   1.000  C
  C78      1.0000 0.97610  0.17570  0.03630  Biso   1.000  C
  C79      1.0000 0.91070  0.21370  0.04150  Biso   1.000  C
  C80      1.0000 0.82890  0.16850  0.07460  Biso   1.000  C
  C81      1.0000 0.77410  0.20720  0.08290  Biso   1.000  C
  C82      1.0000 0.79550  0.29310  0.05590  Biso   1.000  C
  C83      1.0000 0.87170  0.33310  0.02070  Biso   1.000  C
  C84      1.0000 0.93020  0.29520  0.01410  Biso   1.000  C
  C85      1.0000 0.74350  0.34210  0.06970  Biso   1.000  C
  C86      1.0000 0.78830  0.43850  0.06870  Biso   1.000  C
  C87      1.0000 0.86660  0.64330  0.04240  Biso   1.000  C
  C88      1.0000 0.91440  0.74030  0.04340  Biso   1.000  C
  C89      1.0000 0.82430  0.80040  0.36963  Biso   1.000  C
  C90      1.0000 0.78630  0.69700  0.37483  Biso   1.000  C
  C91      1.0000 0.83150  0.66040  0.40793  Biso   1.000  C
  C92      1.0000 0.79280  0.56690  0.41623  Biso   1.000  C
  C93      1.0000 0.70690  0.50240  0.38923  Biso   1.000  C
  C94      1.0000 0.66690  0.53860  0.35403  Biso   1.000  C
  C95      1.0000 0.70480  0.63500  0.34743  Biso   1.000  C
  C96      1.0000 0.65790  0.40140  0.40303  Biso   1.000  C
  C97      1.0000 0.56150  0.34980  0.40203  Biso   1.000  C
  C98      1.0000 0.35670  0.22330  0.37573  Biso   1.000  C
  C99      1.0000 0.25970  0.17410  0.37673  Biso   1.000  C
  C100     1.0000 0.80040  0.97610  0.20297  Biso   1.000  C
  C101     1.0000 0.69700  0.91070  0.20817  Biso   1.000  C
  C102     1.0000 0.66040  0.82890  0.24127  Biso   1.000  C
  C103     1.0000 0.56690  0.77410  0.24957  Biso   1.000  C
  C104     1.0000 0.50240  0.79550  0.22257  Biso   1.000  C
  C105     1.0000 0.53860  0.87170  0.18737  Biso   1.000  C
  C106     1.0000 0.63500  0.93020  0.18077  Biso   1.000  C
  C107     1.0000 0.40140  0.74350  0.23637  Biso   1.000  C
  C108     1.0000 0.34980  0.78830  0.23537  Biso   1.000  C
  C109     1.0000 0.22330  0.86660  0.20907  Biso   1.000  C
  C110     1.0000 0.17410  0.91440  0.21007  Biso   1.000  C
  C111     1.0000 0.02390  0.82430  0.53630  Biso   1.000  C
  C112     1.0000 0.08930  0.78630  0.54150  Biso   1.000  C
  C113     1.0000 0.17110  0.83150  0.57460  Biso   1.000  C
  C114     1.0000 0.22590  0.79280  0.58290  Biso   1.000  C
  C115     1.0000 0.20450  0.70690  0.55590  Biso   1.000  C
  C116     1.0000 0.12830  0.66690  0.52070  Biso   1.000  C
  C117     1.0000 0.06980  0.70480  0.51410  Biso   1.000  C
  C118     1.0000 0.25650  0.65790  0.56970  Biso   1.000  C
  C119     1.0000 0.21170  0.56150  0.56870  Biso   1.000  C
  C120     1.0000 0.13340  0.35670  0.54240  Biso   1.000  C
  C121     1.0000 0.08560  0.25970  0.54340  Biso   1.000  C
  C122     1.0000 0.17570  0.19960  0.86963  Biso   1.000  C
  C123     1.0000 0.21370  0.30300  0.87483  Biso   1.000  C
  C124     1.0000 0.16850  0.33960  0.90793  Biso   1.000  C
  C125     1.0000 0.20720  0.43310  0.91623  Biso   1.000  C
  C126     1.0000 0.29310  0.49760  0.88923  Biso   1.000  C
  C127     1.0000 0.33310  0.46140  0.85403  Biso   1.000  C
  C128     1.0000 0.29520  0.36500  0.84743  Biso   1.000  C
  C129     1.0000 0.34210  0.59860  0.90303  Biso   1.000  C
  C130     1.0000 0.43850  0.65020  0.90203  Biso   1.000  C
  C131     1.0000 0.64330  0.77670  0.87573  Biso   1.000  C
  C132     1.0000 0.74030  0.82590  0.87673  Biso   1.000  C
  C133     1.0000 0.29310  0.64655  0.91667  Biso   1.000  C
  C134     1.0000 0.48850  0.74425  0.91667  Biso   1.000  C
  C135     1.0000 0.59470  0.79735  0.91667  Biso   1.000  C
  C136     1.0000 0.78970  0.89485  0.91667  Biso   1.000  C
  C137     1.0000 0.89470  0.94735  0.91667  Biso   1.000  C
  C138     1.0000 0.35345  0.70690  0.58333  Biso   1.000  C
  C139     1.0000 0.25575  0.51150  0.58333  Biso   1.000  C
  C140     1.0000 0.20265  0.40530  0.58333  Biso   1.000  C
  C141     1.0000 0.10515  0.21030  0.58333  Biso   1.000  C
  C142     1.0000 0.05265  0.10530  0.58333  Biso   1.000  C
  C143     1.0000 0.35345  0.64655  0.25000  Biso   1.000  C
  C144     1.0000 0.25575  0.74425  0.25000  Biso   1.000  C
  C145     1.0000 0.20265  0.79735  0.25000  Biso   1.000  C
  C146     1.0000 0.10515  0.89485  0.25000  Biso   1.000  C
  C147     1.0000 0.05265  0.94735  0.25000  Biso   1.000  C
  C148     1.0000 0.70690  0.35345  0.41667  Biso   1.000  C
  C149     1.0000 0.51150  0.25575  0.41667  Biso   1.000  C
  C150     1.0000 0.40530  0.20265  0.41667  Biso   1.000  C
  C151     1.0000 0.21030  0.10515  0.41667  Biso   1.000  C
  C152     1.0000 0.10530  0.05265  0.41667  Biso   1.000  C
  C153     1.0000 0.64655  0.29310  0.08333  Biso   1.000  C
  C154     1.0000 0.74425  0.48850  0.08333  Biso   1.000  C
  C155     1.0000 0.79735  0.59470  0.08333  Biso   1.000  C
  C156     1.0000 0.89485  0.78970  0.08333  Biso   1.000  C
  C157     1.0000 0.94735  0.89470  0.08333  Biso   1.000  C
  C158     1.0000 0.64655  0.35345  0.75000  Biso   1.000  C
  C159     1.0000 0.74425  0.25575  0.75000  Biso   1.000  C
  C160     1.0000 0.79735  0.20265  0.75000  Biso   1.000  C
  C161     1.0000 0.89485  0.10515  0.75000  Biso   1.000  C
  C162     1.0000 0.94735  0.05265  0.75000  Biso   1.000  C
  O1       1.0000 0.10890  0.96690  0.93164  Biso   1.000  O
  O2       1.0000 0.21020  0.04100  0.99790  Biso   1.000  O
  O3       1.0000 0.93480  0.00570  0.95554  Biso   1.000  O
  O4       1.0000 0.85800  0.89110  0.59831  Biso   1.000  O
  O5       1.0000 0.83080  0.78980  0.66457  Biso   1.000  O
  O6       1.0000 0.07090  0.06520  0.62221  Biso   1.000  O
  O7       1.0000 0.03310  0.14200  0.26497  Biso   1.000  O
  O8       1.0000 0.95900  0.16920  0.33123  Biso   1.000  O
  O9       1.0000 0.99430  0.92910  0.28887  Biso   1.000  O
  O10      1.0000 0.89110  0.03310  0.43164  Biso   1.000  O
  O11      1.0000 0.78980  0.95900  0.49790  Biso   1.000  O
  O12      1.0000 0.06520  0.99430  0.45554  Biso   1.000  O
  O13      1.0000 0.14200  0.10890  0.09831  Biso   1.000  O
  O14      1.0000 0.16920  0.21020  0.16457  Biso   1.000  O
  O15      1.0000 0.92910  0.93480  0.12221  Biso   1.000  O
  O16      1.0000 0.96690  0.85800  0.76497  Biso   1.000  O
  O17      1.0000 0.04100  0.83080  0.83123  Biso   1.000  O
  O18      1.0000 0.00570  0.07090  0.78887  Biso   1.000  O
  O19      1.0000 0.14200  0.03310  0.73503  Biso   1.000  O
  O20      1.0000 0.16920  0.95900  0.66877  Biso   1.000  O
  O21      1.0000 0.92910  0.99430  0.71113  Biso   1.000  O
  O22      1.0000 0.96690  0.10890  0.06836  Biso   1.000  O
  O23      1.0000 0.04100  0.21020  0.00210  Biso   1.000  O
  O24      1.0000 0.00570  0.93480  0.04446  Biso   1.000  O
  O25      1.0000 0.89110  0.85800  0.40169  Biso   1.000  O
  O26      1.0000 0.78980  0.83080  0.33543  Biso   1.000  O
  O27      1.0000 0.06520  0.07090  0.37779  Biso   1.000  O
  O28      1.0000 0.85800  0.96690  0.23503  Biso   1.000  O
  O29      1.0000 0.83080  0.04100  0.16877  Biso   1.000  O
  O30      1.0000 0.07090  0.00570  0.21113  Biso   1.000  O
  O31      1.0000 0.03310  0.89110  0.56836  Biso   1.000  O
  O32      1.0000 0.95900  0.78980  0.50210  Biso   1.000  O
  O33      1.0000 0.99430  0.06520  0.54446  Biso   1.000  O
  O34      1.0000 0.10890  0.14200  0.90169  Biso   1.000  O
  O35      1.0000 0.21020  0.16920  0.83543  Biso   1.000  O
  O36      1.0000 0.93480  0.92910  0.87779  Biso   1.000  O
  O37      1.0000 0.23580  0.23580  0.00000  Biso   1.000  O
  O38      1.0000 0.00000  0.76420  0.66667  Biso   1.000  O
  O39      1.0000 0.76420  0.00000  0.33333  Biso   1.000  O
  O40      1.0000 0.76420  0.76420  0.50000  Biso   1.000  O
  O41      1.0000 0.00000  0.23580  0.16667  Biso   1.000  O
  O42      1.0000 0.23580  0.00000  0.83333  Biso   1.000  O
