data_image0
_cell_length_a       7.6575
_cell_length_b       10.477
_cell_length_c       30.456
_cell_angle_alpha    99.06
_cell_angle_beta     90
_cell_angle_gamma    90

_symmetry_space_group_name_H-M    P 1
_symmetry_int_tables_number       1

loop_
  _symmetry_equiv_pos_as_xyz
  'x, y, z'

loop_
  _atom_site_label
  _atom_site_occupancy
  _atom_site_fract_x
  _atom_site_fract_y
  _atom_site_fract_z
  _atom_site_thermal_displace_type
  _atom_site_B_iso_or_equiv
  _atom_site_type_symbol
  Pr1      1.0000 0.37153  0.55207  0.76821  Biso   1.000  Pr
  Pr2      1.0000 0.87153  0.44793  0.73179  Biso   1.000  Pr
  Pr3      1.0000 0.62847  0.44793  0.23179  Biso   1.000  Pr
  Pr4      1.0000 0.12847  0.55207  0.26821  Biso   1.000  Pr
  Co1      1.0000 0.44581  0.71354  0.13005  Biso   1.000  Co
  Co2      1.0000 0.94581  0.28646  0.36995  Biso   1.000  Co
  Co3      1.0000 0.55419  0.28646  0.86995  Biso   1.000  Co
  Co4      1.0000 0.05419  0.71354  0.63005  Biso   1.000  Co
  Co5      1.0000 0.50000  0.00000  0.00000  Biso   1.000  Co
  Co6      1.0000 0.00000  0.00000  0.50000  Biso   1.000  Co
  H1       1.0000 0.55620  0.75640  0.91830  Biso   1.000  H
  H2       1.0000 0.15020  0.79830  0.87800  Biso   1.000  H
  H3       1.0000 0.87770  0.12740  0.98560  Biso   1.000  H
  H4       1.0000 0.81850  0.07710  0.21690  Biso   1.000  H
  H5       1.0000 0.42490  0.02300  0.18610  Biso   1.000  H
  H6       1.0000 0.02860  0.68880  0.12430  Biso   1.000  H
  H7       1.0000 0.10590  0.03560  0.93800  Biso   1.000  H
  H8       1.0000 0.81290  0.83380  0.16030  Biso   1.000  H
  H9       1.0000 0.71590  0.55550  0.13220  Biso   1.000  H
  H10      1.0000 0.69040  0.57010  0.08780  Biso   1.000  H
  H11      1.0000 0.05620  0.24360  0.58170  Biso   1.000  H
  H12      1.0000 0.65020  0.20170  0.62200  Biso   1.000  H
  H13      1.0000 0.37770  0.87260  0.51440  Biso   1.000  H
  H14      1.0000 0.31850  0.92290  0.28310  Biso   1.000  H
  H15      1.0000 0.92490  0.97700  0.31390  Biso   1.000  H
  H16      1.0000 0.52860  0.31120  0.37570  Biso   1.000  H
  H17      1.0000 0.60590  0.96440  0.56200  Biso   1.000  H
  H18      1.0000 0.31290  0.16620  0.33970  Biso   1.000  H
  H19      1.0000 0.21590  0.44450  0.36780  Biso   1.000  H
  H20      1.0000 0.19040  0.42990  0.41220  Biso   1.000  H
  H21      1.0000 0.44380  0.24360  0.08170  Biso   1.000  H
  H22      1.0000 0.84980  0.20170  0.12200  Biso   1.000  H
  H23      1.0000 0.12230  0.87260  0.01440  Biso   1.000  H
  H24      1.0000 0.18150  0.92290  0.78310  Biso   1.000  H
  H25      1.0000 0.57510  0.97700  0.81390  Biso   1.000  H
  H26      1.0000 0.97140  0.31120  0.87570  Biso   1.000  H
  H27      1.0000 0.89410  0.96440  0.06200  Biso   1.000  H
  H28      1.0000 0.18710  0.16620  0.83970  Biso   1.000  H
  H29      1.0000 0.28410  0.44450  0.86780  Biso   1.000  H
  H30      1.0000 0.30960  0.42990  0.91220  Biso   1.000  H
  H31      1.0000 0.94380  0.75640  0.41830  Biso   1.000  H
  H32      1.0000 0.34980  0.79830  0.37800  Biso   1.000  H
  H33      1.0000 0.62230  0.12740  0.48560  Biso   1.000  H
  H34      1.0000 0.68150  0.07710  0.71690  Biso   1.000  H
  H35      1.0000 0.07510  0.02300  0.68610  Biso   1.000  H
  H36      1.0000 0.47140  0.68880  0.62430  Biso   1.000  H
  H37      1.0000 0.39410  0.03560  0.43800  Biso   1.000  H
  H38      1.0000 0.68710  0.83380  0.66030  Biso   1.000  H
  H39      1.0000 0.78410  0.55550  0.63220  Biso   1.000  H
  H40      1.0000 0.80960  0.57010  0.58780  Biso   1.000  H
  C1       1.0000 0.47030  0.79020  0.04455  Biso   1.000  C
  C2       1.0000 0.56770  0.89490  0.07708  Biso   1.000  C
  C3       1.0000 0.65160  0.55530  0.86153  Biso   1.000  C
  C4       1.0000 0.75500  0.67320  0.87945  Biso   1.000  C
  C5       1.0000 0.67530  0.76460  0.91047  Biso   1.000  C
  C6       1.0000 0.77500  0.86920  0.92995  Biso   1.000  C
  C7       1.0000 0.94920  0.88200  0.91660  Biso   1.000  C
  C8       1.0000 0.03150  0.78960  0.88606  Biso   1.000  C
  C9       1.0000 0.93270  0.68410  0.86779  Biso   1.000  C
  C10      1.0000 0.01370  0.58410  0.83363  Biso   1.000  C
  C11      1.0000 0.87130  0.04760  0.96595  Biso   1.000  C
  C12      1.0000 0.99880  0.26160  0.26694  Biso   1.000  C
  C13      1.0000 0.06040  0.15670  0.23044  Biso   1.000  C
  C14      1.0000 0.94010  0.06610  0.21142  Biso   1.000  C
  C15      1.0000 0.00530  0.95800  0.18393  Biso   1.000  C
  C16      1.0000 0.18450  0.93880  0.17533  Biso   1.000  C
  C17      1.0000 0.30390  0.03310  0.19267  Biso   1.000  C
  C18      1.0000 0.24190  0.14230  0.21984  Biso   1.000  C
  C19      1.0000 0.36890  0.24730  0.23495  Biso   1.000  C
  C20      1.0000 0.05170  0.77070  0.14162  Biso   1.000  C
  C21      1.0000 0.97030  0.20980  0.45545  Biso   1.000  C
  C22      1.0000 0.06770  0.10510  0.42292  Biso   1.000  C
  C23      1.0000 0.15160  0.44470  0.63847  Biso   1.000  C
  C24      1.0000 0.25500  0.32680  0.62055  Biso   1.000  C
  C25      1.0000 0.17530  0.23540  0.58953  Biso   1.000  C
  C26      1.0000 0.27500  0.13080  0.57005  Biso   1.000  C
  C27      1.0000 0.44920  0.11800  0.58340  Biso   1.000  C
  C28      1.0000 0.53150  0.21040  0.61394  Biso   1.000  C
  C29      1.0000 0.43270  0.31590  0.63221  Biso   1.000  C
  C30      1.0000 0.51370  0.41590  0.66637  Biso   1.000  C
  C31      1.0000 0.37130  0.95240  0.53405  Biso   1.000  C
  C32      1.0000 0.49880  0.73840  0.23306  Biso   1.000  C
  C33      1.0000 0.56040  0.84330  0.26956  Biso   1.000  C
  C34      1.0000 0.44010  0.93390  0.28858  Biso   1.000  C
  C35      1.0000 0.50530  0.04200  0.31607  Biso   1.000  C
  C36      1.0000 0.68450  0.06120  0.32467  Biso   1.000  C
  C37      1.0000 0.80390  0.96690  0.30733  Biso   1.000  C
  C38      1.0000 0.74190  0.85770  0.28016  Biso   1.000  C
  C39      1.0000 0.86890  0.75270  0.26505  Biso   1.000  C
  C40      1.0000 0.55170  0.22930  0.35838  Biso   1.000  C
  C41      1.0000 0.52970  0.20980  0.95545  Biso   1.000  C
  C42      1.0000 0.43230  0.10510  0.92292  Biso   1.000  C
  C43      1.0000 0.34840  0.44470  0.13847  Biso   1.000  C
  C44      1.0000 0.24500  0.32680  0.12055  Biso   1.000  C
  C45      1.0000 0.32470  0.23540  0.08953  Biso   1.000  C
  C46      1.0000 0.22500  0.13080  0.07005  Biso   1.000  C
  C47      1.0000 0.05080  0.11800  0.08340  Biso   1.000  C
  C48      1.0000 0.96850  0.21040  0.11394  Biso   1.000  C
  C49      1.0000 0.06730  0.31590  0.13221  Biso   1.000  C
  C50      1.0000 0.98630  0.41590  0.16637  Biso   1.000  C
  C51      1.0000 0.12870  0.95240  0.03405  Biso   1.000  C
  C52      1.0000 0.00120  0.73840  0.73306  Biso   1.000  C
  C53      1.0000 0.93960  0.84330  0.76956  Biso   1.000  C
  C54      1.0000 0.05990  0.93390  0.78858  Biso   1.000  C
  C55      1.0000 0.99470  0.04200  0.81607  Biso   1.000  C
  C56      1.0000 0.81550  0.06120  0.82467  Biso   1.000  C
  C57      1.0000 0.69610  0.96690  0.80733  Biso   1.000  C
  C58      1.0000 0.75810  0.85770  0.78016  Biso   1.000  C
  C59      1.0000 0.63110  0.75270  0.76505  Biso   1.000  C
  C60      1.0000 0.94830  0.22930  0.85838  Biso   1.000  C
  C61      1.0000 0.02970  0.79020  0.54455  Biso   1.000  C
  C62      1.0000 0.93230  0.89490  0.57708  Biso   1.000  C
  C63      1.0000 0.84840  0.55530  0.36153  Biso   1.000  C
  C64      1.0000 0.74500  0.67320  0.37945  Biso   1.000  C
  C65      1.0000 0.82470  0.76460  0.41047  Biso   1.000  C
  C66      1.0000 0.72500  0.86920  0.42995  Biso   1.000  C
  C67      1.0000 0.55080  0.88200  0.41660  Biso   1.000  C
  C68      1.0000 0.46850  0.78960  0.38606  Biso   1.000  C
  C69      1.0000 0.56730  0.68410  0.36779  Biso   1.000  C
  C70      1.0000 0.48630  0.58410  0.33363  Biso   1.000  C
  C71      1.0000 0.62870  0.04760  0.46595  Biso   1.000  C
  C72      1.0000 0.50120  0.26160  0.76694  Biso   1.000  C
  C73      1.0000 0.43960  0.15670  0.73044  Biso   1.000  C
  C74      1.0000 0.55990  0.06610  0.71142  Biso   1.000  C
  C75      1.0000 0.49470  0.95800  0.68393  Biso   1.000  C
  C76      1.0000 0.31550  0.93880  0.67533  Biso   1.000  C
  C77      1.0000 0.19610  0.03310  0.69267  Biso   1.000  C
  C78      1.0000 0.25810  0.14230  0.71984  Biso   1.000  C
  C79      1.0000 0.13110  0.24730  0.73495  Biso   1.000  C
  C80      1.0000 0.44830  0.77070  0.64162  Biso   1.000  C
  N1       1.0000 0.73170  0.97390  0.96170  Biso   1.000  N
  N2       1.0000 0.00310  0.99930  0.93995  Biso   1.000  N
  N3       1.0000 0.21030  0.81900  0.14863  Biso   1.000  N
  N4       1.0000 0.92590  0.84930  0.16149  Biso   1.000  N
  N5       1.0000 0.23170  0.02610  0.53830  Biso   1.000  N
  N6       1.0000 0.50310  0.00070  0.56005  Biso   1.000  N
  N7       1.0000 0.71030  0.18100  0.35137  Biso   1.000  N
  N8       1.0000 0.42590  0.15070  0.33851  Biso   1.000  N
  N9       1.0000 0.26830  0.02610  0.03830  Biso   1.000  N
  N10      1.0000 0.99690  0.00070  0.06005  Biso   1.000  N
  N11      1.0000 0.78970  0.18100  0.85137  Biso   1.000  N
  N12      1.0000 0.07410  0.15070  0.83851  Biso   1.000  N
  N13      1.0000 0.76830  0.97390  0.46170  Biso   1.000  N
  N14      1.0000 0.49690  0.99930  0.43995  Biso   1.000  N
  N15      1.0000 0.28970  0.81900  0.64863  Biso   1.000  N
  N16      1.0000 0.57410  0.84930  0.66149  Biso   1.000  N
  O1       1.0000 0.62980  0.98960  0.06099  Biso   1.000  O
  O2       1.0000 0.46440  0.80340  0.00415  Biso   1.000  O
  O3       1.0000 0.58030  0.87750  0.11642  Biso   1.000  O
  O4       1.0000 0.40520  0.69960  0.06108  Biso   1.000  O
  O5       1.0000 0.68650  0.45510  0.87744  Biso   1.000  O
  O6       1.0000 0.52900  0.56630  0.83492  Biso   1.000  O
  O7       1.0000 0.91430  0.50850  0.80919  Biso   1.000  O
  O8       1.0000 0.17800  0.58240  0.83088  Biso   1.000  O
  O9       1.0000 0.03960  0.24700  0.30515  Biso   1.000  O
  O10      1.0000 0.91070  0.35680  0.25702  Biso   1.000  O
  O11      1.0000 0.31440  0.36170  0.24943  Biso   1.000  O
  O12      1.0000 0.53060  0.22560  0.23103  Biso   1.000  O
  O13      1.0000 0.68980  0.60780  0.11452  Biso   1.000  O
  O14      1.0000 0.12980  0.01040  0.43901  Biso   1.000  O
  O15      1.0000 0.96440  0.19660  0.49585  Biso   1.000  O
  O16      1.0000 0.08030  0.12250  0.38358  Biso   1.000  O
  O17      1.0000 0.90520  0.30040  0.43892  Biso   1.000  O
  O18      1.0000 0.18650  0.54490  0.62256  Biso   1.000  O
  O19      1.0000 0.02900  0.43370  0.66508  Biso   1.000  O
  O20      1.0000 0.41430  0.49150  0.69081  Biso   1.000  O
  O21      1.0000 0.67800  0.41760  0.66912  Biso   1.000  O
  O22      1.0000 0.53960  0.75300  0.19485  Biso   1.000  O
  O23      1.0000 0.41070  0.64320  0.24298  Biso   1.000  O
  O24      1.0000 0.81440  0.63830  0.25057  Biso   1.000  O
  O25      1.0000 0.03060  0.77440  0.26897  Biso   1.000  O
  O26      1.0000 0.18980  0.39220  0.38548  Biso   1.000  O
  O27      1.0000 0.37020  0.01040  0.93901  Biso   1.000  O
  O28      1.0000 0.53560  0.19660  0.99585  Biso   1.000  O
  O29      1.0000 0.41970  0.12250  0.88358  Biso   1.000  O
  O30      1.0000 0.59480  0.30040  0.93892  Biso   1.000  O
  O31      1.0000 0.31350  0.54490  0.12256  Biso   1.000  O
  O32      1.0000 0.47100  0.43370  0.16508  Biso   1.000  O
  O33      1.0000 0.08570  0.49150  0.19081  Biso   1.000  O
  O34      1.0000 0.82200  0.41760  0.16912  Biso   1.000  O
  O35      1.0000 0.96040  0.75300  0.69485  Biso   1.000  O
  O36      1.0000 0.08930  0.64320  0.74298  Biso   1.000  O
  O37      1.0000 0.68560  0.63830  0.75057  Biso   1.000  O
  O38      1.0000 0.46940  0.77440  0.76897  Biso   1.000  O
  O39      1.0000 0.31020  0.39220  0.88548  Biso   1.000  O
  O40      1.0000 0.87020  0.98960  0.56099  Biso   1.000  O
  O41      1.0000 0.03560  0.80340  0.50415  Biso   1.000  O
  O42      1.0000 0.91970  0.87750  0.61642  Biso   1.000  O
  O43      1.0000 0.09480  0.69960  0.56108  Biso   1.000  O
  O44      1.0000 0.81350  0.45510  0.37744  Biso   1.000  O
  O45      1.0000 0.97100  0.56630  0.33492  Biso   1.000  O
  O46      1.0000 0.58570  0.50850  0.30919  Biso   1.000  O
  O47      1.0000 0.32200  0.58240  0.33088  Biso   1.000  O
  O48      1.0000 0.46040  0.24700  0.80515  Biso   1.000  O
  O49      1.0000 0.58930  0.35680  0.75702  Biso   1.000  O
  O50      1.0000 0.18560  0.36170  0.74943  Biso   1.000  O
  O51      1.0000 0.96940  0.22560  0.73103  Biso   1.000  O
  O52      1.0000 0.81020  0.60780  0.61452  Biso   1.000  O
