data_image0
_cell_length_a       7.6374
_cell_length_b       10.467
_cell_length_c       30.492
_cell_angle_alpha    99.05
_cell_angle_beta     90
_cell_angle_gamma    90

_symmetry_space_group_name_H-M    P 1
_symmetry_int_tables_number       1

loop_
  _symmetry_equiv_pos_as_xyz
  'x, y, z'

loop_
  _atom_site_label
  _atom_site_occupancy
  _atom_site_fract_x
  _atom_site_fract_y
  _atom_site_fract_z
  _atom_site_thermal_displace_type
  _atom_site_B_iso_or_equiv
  _atom_site_type_symbol
  Nd1      1.0000 0.87182  0.55179  0.76810  Biso   1.000  Nd
  Nd2      1.0000 0.37182  0.44821  0.73190  Biso   1.000  Nd
  Nd3      1.0000 0.12818  0.44821  0.23190  Biso   1.000  Nd
  Nd4      1.0000 0.62818  0.55179  0.26810  Biso   1.000  Nd
  Co1      1.0000 0.94619  0.71369  0.13011  Biso   1.000  Co
  Co2      1.0000 0.44619  0.28631  0.36989  Biso   1.000  Co
  Co3      1.0000 0.05381  0.28631  0.86989  Biso   1.000  Co
  Co4      1.0000 0.55381  0.71369  0.63011  Biso   1.000  Co
  Co5      1.0000 0.00000  0.00000  0.00000  Biso   1.000  Co
  Co6      1.0000 0.50000  0.00000  0.50000  Biso   1.000  Co
  H1       1.0000 0.05520  0.75650  0.91830  Biso   1.000  H
  H2       1.0000 0.65090  0.79970  0.87780  Biso   1.000  H
  H3       1.0000 0.37810  0.12720  0.98580  Biso   1.000  H
  H4       1.0000 0.31770  0.07770  0.21700  Biso   1.000  H
  H5       1.0000 0.92540  0.02510  0.18610  Biso   1.000  H
  H6       1.0000 0.52940  0.68950  0.12420  Biso   1.000  H
  H7       1.0000 0.60700  0.03510  0.93770  Biso   1.000  H
  H8       1.0000 0.31190  0.83460  0.16010  Biso   1.000  H
  H9       1.0000 0.19660  0.56450  0.08880  Biso   1.000  H
  H10      1.0000 0.21610  0.55570  0.13260  Biso   1.000  H
  H11      1.0000 0.55520  0.24350  0.58170  Biso   1.000  H
  H12      1.0000 0.15090  0.20030  0.62220  Biso   1.000  H
  H13      1.0000 0.87810  0.87280  0.51420  Biso   1.000  H
  H14      1.0000 0.81770  0.92230  0.28300  Biso   1.000  H
  H15      1.0000 0.42540  0.97490  0.31390  Biso   1.000  H
  H16      1.0000 0.02940  0.31050  0.37580  Biso   1.000  H
  H17      1.0000 0.10700  0.96490  0.56230  Biso   1.000  H
  H18      1.0000 0.81190  0.16540  0.33990  Biso   1.000  H
  H19      1.0000 0.69660  0.43550  0.41120  Biso   1.000  H
  H20      1.0000 0.71610  0.44430  0.36740  Biso   1.000  H
  H21      1.0000 0.94480  0.24350  0.08170  Biso   1.000  H
  H22      1.0000 0.34910  0.20030  0.12220  Biso   1.000  H
  H23      1.0000 0.62190  0.87280  0.01420  Biso   1.000  H
  H24      1.0000 0.68230  0.92230  0.78300  Biso   1.000  H
  H25      1.0000 0.07460  0.97490  0.81390  Biso   1.000  H
  H26      1.0000 0.47060  0.31050  0.87580  Biso   1.000  H
  H27      1.0000 0.39300  0.96490  0.06230  Biso   1.000  H
  H28      1.0000 0.68810  0.16540  0.83990  Biso   1.000  H
  H29      1.0000 0.80340  0.43550  0.91120  Biso   1.000  H
  H30      1.0000 0.78390  0.44430  0.86740  Biso   1.000  H
  H31      1.0000 0.44480  0.75650  0.41830  Biso   1.000  H
  H32      1.0000 0.84910  0.79970  0.37780  Biso   1.000  H
  H33      1.0000 0.12190  0.12720  0.48580  Biso   1.000  H
  H34      1.0000 0.18230  0.07770  0.71700  Biso   1.000  H
  H35      1.0000 0.57460  0.02510  0.68610  Biso   1.000  H
  H36      1.0000 0.97060  0.68950  0.62420  Biso   1.000  H
  H37      1.0000 0.89300  0.03510  0.43770  Biso   1.000  H
  H38      1.0000 0.18810  0.83460  0.66010  Biso   1.000  H
  H39      1.0000 0.30340  0.56450  0.58880  Biso   1.000  H
  H40      1.0000 0.28390  0.55570  0.63260  Biso   1.000  H
  C1       1.0000 0.97040  0.79010  0.04461  Biso   1.000  C
  C2       1.0000 0.06770  0.89510  0.07721  Biso   1.000  C
  C3       1.0000 0.15070  0.55530  0.86095  Biso   1.000  C
  C4       1.0000 0.25520  0.67300  0.87909  Biso   1.000  C
  C5       1.0000 0.17450  0.76470  0.91042  Biso   1.000  C
  C6       1.0000 0.27510  0.86870  0.92973  Biso   1.000  C
  C7       1.0000 0.44950  0.88220  0.91647  Biso   1.000  C
  C8       1.0000 0.53190  0.79050  0.88586  Biso   1.000  C
  C9       1.0000 0.43320  0.68450  0.86744  Biso   1.000  C
  C10      1.0000 0.51350  0.58490  0.83320  Biso   1.000  C
  C11      1.0000 0.37160  0.04750  0.96610  Biso   1.000  C
  C12      1.0000 0.49830  0.26220  0.26696  Biso   1.000  C
  C13      1.0000 0.56010  0.15790  0.23042  Biso   1.000  C
  C14      1.0000 0.43960  0.06680  0.21152  Biso   1.000  C
  C15      1.0000 0.50520  0.95860  0.18412  Biso   1.000  C
  C16      1.0000 0.68520  0.93940  0.17557  Biso   1.000  C
  C17      1.0000 0.80420  0.03460  0.19280  Biso   1.000  C
  C18      1.0000 0.74190  0.14320  0.21984  Biso   1.000  C
  C19      1.0000 0.86870  0.24860  0.23488  Biso   1.000  C
  C20      1.0000 0.55210  0.77140  0.14154  Biso   1.000  C
  C21      1.0000 0.47040  0.20990  0.45539  Biso   1.000  C
  C22      1.0000 0.56770  0.10490  0.42279  Biso   1.000  C
  C23      1.0000 0.65070  0.44470  0.63905  Biso   1.000  C
  C24      1.0000 0.75520  0.32700  0.62091  Biso   1.000  C
  C25      1.0000 0.67450  0.23530  0.58958  Biso   1.000  C
  C26      1.0000 0.77510  0.13130  0.57027  Biso   1.000  C
  C27      1.0000 0.94950  0.11780  0.58353  Biso   1.000  C
  C28      1.0000 0.03190  0.20950  0.61414  Biso   1.000  C
  C29      1.0000 0.93320  0.31550  0.63256  Biso   1.000  C
  C30      1.0000 0.01350  0.41510  0.66680  Biso   1.000  C
  C31      1.0000 0.87160  0.95250  0.53390  Biso   1.000  C
  C32      1.0000 0.99830  0.73780  0.23304  Biso   1.000  C
  C33      1.0000 0.06010  0.84210  0.26958  Biso   1.000  C
  C34      1.0000 0.93960  0.93320  0.28848  Biso   1.000  C
  C35      1.0000 0.00520  0.04140  0.31588  Biso   1.000  C
  C36      1.0000 0.18520  0.06060  0.32443  Biso   1.000  C
  C37      1.0000 0.30420  0.96540  0.30720  Biso   1.000  C
  C38      1.0000 0.24190  0.85680  0.28016  Biso   1.000  C
  C39      1.0000 0.36870  0.75140  0.26512  Biso   1.000  C
  C40      1.0000 0.05210  0.22860  0.35846  Biso   1.000  C
  C41      1.0000 0.02960  0.20990  0.95539  Biso   1.000  C
  C42      1.0000 0.93230  0.10490  0.92279  Biso   1.000  C
  C43      1.0000 0.84930  0.44470  0.13905  Biso   1.000  C
  C44      1.0000 0.74480  0.32700  0.12091  Biso   1.000  C
  C45      1.0000 0.82550  0.23530  0.08958  Biso   1.000  C
  C46      1.0000 0.72490  0.13130  0.07027  Biso   1.000  C
  C47      1.0000 0.55050  0.11780  0.08353  Biso   1.000  C
  C48      1.0000 0.46810  0.20950  0.11414  Biso   1.000  C
  C49      1.0000 0.56680  0.31550  0.13256  Biso   1.000  C
  C50      1.0000 0.48650  0.41510  0.16680  Biso   1.000  C
  C51      1.0000 0.62840  0.95250  0.03390  Biso   1.000  C
  C52      1.0000 0.50170  0.73780  0.73304  Biso   1.000  C
  C53      1.0000 0.43990  0.84210  0.76958  Biso   1.000  C
  C54      1.0000 0.56040  0.93320  0.78848  Biso   1.000  C
  C55      1.0000 0.49480  0.04140  0.81588  Biso   1.000  C
  C56      1.0000 0.31480  0.06060  0.82443  Biso   1.000  C
  C57      1.0000 0.19580  0.96540  0.80720  Biso   1.000  C
  C58      1.0000 0.25810  0.85680  0.78016  Biso   1.000  C
  C59      1.0000 0.13130  0.75140  0.76512  Biso   1.000  C
  C60      1.0000 0.44790  0.22860  0.85846  Biso   1.000  C
  C61      1.0000 0.52960  0.79010  0.54461  Biso   1.000  C
  C62      1.0000 0.43230  0.89510  0.57721  Biso   1.000  C
  C63      1.0000 0.34930  0.55530  0.36095  Biso   1.000  C
  C64      1.0000 0.24480  0.67300  0.37909  Biso   1.000  C
  C65      1.0000 0.32550  0.76470  0.41042  Biso   1.000  C
  C66      1.0000 0.22490  0.86870  0.42973  Biso   1.000  C
  C67      1.0000 0.05050  0.88220  0.41647  Biso   1.000  C
  C68      1.0000 0.96810  0.79050  0.38586  Biso   1.000  C
  C69      1.0000 0.06680  0.68450  0.36744  Biso   1.000  C
  C70      1.0000 0.98650  0.58490  0.33320  Biso   1.000  C
  C71      1.0000 0.12840  0.04750  0.46610  Biso   1.000  C
  C72      1.0000 0.00170  0.26220  0.76696  Biso   1.000  C
  C73      1.0000 0.93990  0.15790  0.73042  Biso   1.000  C
  C74      1.0000 0.06040  0.06680  0.71152  Biso   1.000  C
  C75      1.0000 0.99480  0.95860  0.68412  Biso   1.000  C
  C76      1.0000 0.81480  0.93940  0.67557  Biso   1.000  C
  C77      1.0000 0.69580  0.03460  0.69280  Biso   1.000  C
  C78      1.0000 0.75810  0.14320  0.71984  Biso   1.000  C
  C79      1.0000 0.63130  0.24860  0.73488  Biso   1.000  C
  C80      1.0000 0.94790  0.77140  0.64154  Biso   1.000  C
  N1       1.0000 0.23140  0.97310  0.96174  Biso   1.000  N
  N2       1.0000 0.50390  0.99890  0.93977  Biso   1.000  N
  N3       1.0000 0.71030  0.82010  0.14869  Biso   1.000  N
  N4       1.0000 0.42520  0.85000  0.16144  Biso   1.000  N
  N5       1.0000 0.73140  0.02690  0.53826  Biso   1.000  N
  N6       1.0000 0.00390  0.00110  0.56023  Biso   1.000  N
  N7       1.0000 0.21030  0.17990  0.35131  Biso   1.000  N
  N8       1.0000 0.92520  0.15000  0.33856  Biso   1.000  N
  N9       1.0000 0.76860  0.02690  0.03826  Biso   1.000  N
  N10      1.0000 0.49610  0.00110  0.06023  Biso   1.000  N
  N11      1.0000 0.28970  0.17990  0.85131  Biso   1.000  N
  N12      1.0000 0.57480  0.15000  0.83856  Biso   1.000  N
  N13      1.0000 0.26860  0.97310  0.46174  Biso   1.000  N
  N14      1.0000 0.99610  0.99890  0.43977  Biso   1.000  N
  N15      1.0000 0.78970  0.82010  0.64869  Biso   1.000  N
  N16      1.0000 0.07480  0.85000  0.66144  Biso   1.000  N
  O1       1.0000 0.12850  0.99030  0.06119  Biso   1.000  O
  O2       1.0000 0.96420  0.80310  0.00433  Biso   1.000  O
  O3       1.0000 0.08030  0.87780  0.11646  Biso   1.000  O
  O4       1.0000 0.90540  0.69960  0.06121  Biso   1.000  O
  O5       1.0000 0.18620  0.45508  0.87716  Biso   1.000  O
  O6       1.0000 0.02920  0.56560  0.83447  Biso   1.000  O
  O7       1.0000 0.41380  0.50870  0.80887  Biso   1.000  O
  O8       1.0000 0.67890  0.58300  0.83023  Biso   1.000  O
  O9       1.0000 0.53930  0.24740  0.30509  Biso   1.000  O
  O10      1.0000 0.41010  0.35833  0.25723  Biso   1.000  O
  O11      1.0000 0.81460  0.36292  0.24952  Biso   1.000  O
  O12      1.0000 0.03130  0.22682  0.23093  Biso   1.000  O
  O13      1.0000 0.19060  0.60730  0.11469  Biso   1.000  O
  O14      1.0000 0.62850  0.00970  0.43881  Biso   1.000  O
  O15      1.0000 0.46420  0.19690  0.49567  Biso   1.000  O
  O16      1.0000 0.58030  0.12220  0.38354  Biso   1.000  O
  O17      1.0000 0.40540  0.30040  0.43879  Biso   1.000  O
  O18      1.0000 0.68620  0.54492  0.62284  Biso   1.000  O
  O19      1.0000 0.52920  0.43440  0.66553  Biso   1.000  O
  O20      1.0000 0.91380  0.49130  0.69113  Biso   1.000  O
  O21      1.0000 0.17890  0.41700  0.66977  Biso   1.000  O
  O22      1.0000 0.03930  0.75260  0.19491  Biso   1.000  O
  O23      1.0000 0.91010  0.64167  0.24277  Biso   1.000  O
  O24      1.0000 0.31460  0.63708  0.25048  Biso   1.000  O
  O25      1.0000 0.53130  0.77318  0.26907  Biso   1.000  O
  O26      1.0000 0.69060  0.39270  0.38531  Biso   1.000  O
  O27      1.0000 0.87150  0.00970  0.93881  Biso   1.000  O
  O28      1.0000 0.03580  0.19690  0.99567  Biso   1.000  O
  O29      1.0000 0.91970  0.12220  0.88354  Biso   1.000  O
  O30      1.0000 0.09460  0.30040  0.93879  Biso   1.000  O
  O31      1.0000 0.81380  0.54492  0.12284  Biso   1.000  O
  O32      1.0000 0.97080  0.43440  0.16553  Biso   1.000  O
  O33      1.0000 0.58620  0.49130  0.19113  Biso   1.000  O
  O34      1.0000 0.32110  0.41700  0.16977  Biso   1.000  O
  O35      1.0000 0.46070  0.75260  0.69491  Biso   1.000  O
  O36      1.0000 0.58990  0.64167  0.74277  Biso   1.000  O
  O37      1.0000 0.18540  0.63708  0.75048  Biso   1.000  O
  O38      1.0000 0.96870  0.77318  0.76907  Biso   1.000  O
  O39      1.0000 0.80940  0.39270  0.88531  Biso   1.000  O
  O40      1.0000 0.37150  0.99030  0.56119  Biso   1.000  O
  O41      1.0000 0.53580  0.80310  0.50433  Biso   1.000  O
  O42      1.0000 0.41970  0.87780  0.61646  Biso   1.000  O
  O43      1.0000 0.59460  0.69960  0.56121  Biso   1.000  O
  O44      1.0000 0.31380  0.45508  0.37716  Biso   1.000  O
  O45      1.0000 0.47080  0.56560  0.33447  Biso   1.000  O
  O46      1.0000 0.08620  0.50870  0.30887  Biso   1.000  O
  O47      1.0000 0.82110  0.58300  0.33023  Biso   1.000  O
  O48      1.0000 0.96070  0.24740  0.80509  Biso   1.000  O
  O49      1.0000 0.08990  0.35833  0.75723  Biso   1.000  O
  O50      1.0000 0.68540  0.36292  0.74952  Biso   1.000  O
  O51      1.0000 0.46870  0.22682  0.73093  Biso   1.000  O
  O52      1.0000 0.30940  0.60730  0.61469  Biso   1.000  O
