data_image0
_cell_length_a       7.5939
_cell_length_b       10.446
_cell_length_c       30.513
_cell_angle_alpha    99
_cell_angle_beta     90
_cell_angle_gamma    90

_symmetry_space_group_name_H-M    P 1
_symmetry_int_tables_number       1

loop_
  _symmetry_equiv_pos_as_xyz
  'x, y, z'

loop_
  _atom_site_label
  _atom_site_occupancy
  _atom_site_fract_x
  _atom_site_fract_y
  _atom_site_fract_z
  _atom_site_thermal_displace_type
  _atom_site_B_iso_or_equiv
  _atom_site_type_symbol
  Sm1      1.0000 0.36944  0.55075  0.76805  Biso   1.000  Sm
  Sm2      1.0000 0.86944  0.44925  0.73195  Biso   1.000  Sm
  Sm3      1.0000 0.63056  0.44925  0.23195  Biso   1.000  Sm
  Sm4      1.0000 0.13056  0.55075  0.26805  Biso   1.000  Sm
  Co1      1.0000 0.55068  0.28611  0.86990  Biso   1.000  Co
  Co2      1.0000 0.05068  0.71389  0.63010  Biso   1.000  Co
  Co3      1.0000 0.44932  0.71389  0.13010  Biso   1.000  Co
  Co4      1.0000 0.94932  0.28611  0.36990  Biso   1.000  Co
  Co5      1.0000 0.50000  0.00000  0.00000  Biso   1.000  Co
  Co6      1.0000 0.00000  0.00000  0.50000  Biso   1.000  Co
  H1       1.0000 0.55080  0.75540  0.91770  Biso   1.000  H
  H2       1.0000 0.15070  0.79800  0.87720  Biso   1.000  H
  H3       1.0000 0.87880  0.12480  0.98570  Biso   1.000  H
  H4       1.0000 0.18160  0.92180  0.78240  Biso   1.000  H
  H5       1.0000 0.57030  0.97320  0.81420  Biso   1.000  H
  H6       1.0000 0.96870  0.31020  0.87550  Biso   1.000  H
  H7       1.0000 0.10820  0.03110  0.93780  Biso   1.000  H
  H8       1.0000 0.18520  0.16610  0.83920  Biso   1.000  H
  H9       1.0000 0.28040  0.41840  0.91200  Biso   1.000  H
  H10      1.0000 0.29160  0.44540  0.86690  Biso   1.000  H
  H11      1.0000 0.05080  0.24460  0.58230  Biso   1.000  H
  H12      1.0000 0.65070  0.20200  0.62280  Biso   1.000  H
  H13      1.0000 0.37880  0.87520  0.51430  Biso   1.000  H
  H14      1.0000 0.68160  0.07820  0.71760  Biso   1.000  H
  H15      1.0000 0.07030  0.02680  0.68580  Biso   1.000  H
  H16      1.0000 0.46870  0.68980  0.62450  Biso   1.000  H
  H17      1.0000 0.60820  0.96890  0.56220  Biso   1.000  H
  H18      1.0000 0.68520  0.83390  0.66080  Biso   1.000  H
  H19      1.0000 0.78040  0.58160  0.58800  Biso   1.000  H
  H20      1.0000 0.79160  0.55460  0.63310  Biso   1.000  H
  H21      1.0000 0.44920  0.24460  0.08230  Biso   1.000  H
  H22      1.0000 0.84930  0.20200  0.12280  Biso   1.000  H
  H23      1.0000 0.12120  0.87520  0.01430  Biso   1.000  H
  H24      1.0000 0.81840  0.07820  0.21760  Biso   1.000  H
  H25      1.0000 0.42970  0.02680  0.18580  Biso   1.000  H
  H26      1.0000 0.03130  0.68980  0.12450  Biso   1.000  H
  H27      1.0000 0.89180  0.96890  0.06220  Biso   1.000  H
  H28      1.0000 0.81480  0.83390  0.16080  Biso   1.000  H
  H29      1.0000 0.71960  0.58160  0.08800  Biso   1.000  H
  H30      1.0000 0.70840  0.55460  0.13310  Biso   1.000  H
  H31      1.0000 0.94920  0.75540  0.41770  Biso   1.000  H
  H32      1.0000 0.34930  0.79800  0.37720  Biso   1.000  H
  H33      1.0000 0.62120  0.12480  0.48570  Biso   1.000  H
  H34      1.0000 0.31840  0.92180  0.28240  Biso   1.000  H
  H35      1.0000 0.92970  0.97320  0.31420  Biso   1.000  H
  H36      1.0000 0.53130  0.31020  0.37550  Biso   1.000  H
  H37      1.0000 0.39180  0.03110  0.43780  Biso   1.000  H
  H38      1.0000 0.31480  0.16610  0.33920  Biso   1.000  H
  H39      1.0000 0.21960  0.41840  0.41200  Biso   1.000  H
  H40      1.0000 0.20840  0.44540  0.36690  Biso   1.000  H
  C1       1.0000 0.43060  0.10530  0.92301  Biso   1.000  C
  C2       1.0000 0.52910  0.21030  0.95506  Biso   1.000  C
  C3       1.0000 0.64650  0.55430  0.86005  Biso   1.000  C
  C4       1.0000 0.75170  0.67280  0.87801  Biso   1.000  C
  C5       1.0000 0.67060  0.76350  0.90960  Biso   1.000  C
  C6       1.0000 0.77430  0.86720  0.92894  Biso   1.000  C
  C7       1.0000 0.94790  0.88090  0.91582  Biso   1.000  C
  C8       1.0000 0.03090  0.78900  0.88517  Biso   1.000  C
  C9       1.0000 0.93150  0.68380  0.86664  Biso   1.000  C
  C10      1.0000 0.01050  0.58520  0.83186  Biso   1.000  C
  C11      1.0000 0.87180  0.04520  0.96584  Biso   1.000  C
  C12      1.0000 0.99970  0.73640  0.73277  Biso   1.000  C
  C13      1.0000 0.93760  0.84100  0.76953  Biso   1.000  C
  C14      1.0000 0.05900  0.93250  0.78811  Biso   1.000  C
  C15      1.0000 0.99280  0.04090  0.81553  Biso   1.000  C
  C16      1.0000 0.81190  0.05950  0.82441  Biso   1.000  C
  C17      1.0000 0.69210  0.96400  0.80739  Biso   1.000  C
  C18      1.0000 0.75550  0.85470  0.78003  Biso   1.000  C
  C19      1.0000 0.62690  0.74960  0.76507  Biso   1.000  C
  C20      1.0000 0.94570  0.22820  0.85816  Biso   1.000  C
  C21      1.0000 0.93060  0.89470  0.57699  Biso   1.000  C
  C22      1.0000 0.02910  0.78970  0.54494  Biso   1.000  C
  C23      1.0000 0.14650  0.44570  0.63995  Biso   1.000  C
  C24      1.0000 0.25170  0.32720  0.62199  Biso   1.000  C
  C25      1.0000 0.17060  0.23650  0.59040  Biso   1.000  C
  C26      1.0000 0.27430  0.13280  0.57106  Biso   1.000  C
  C27      1.0000 0.44790  0.11910  0.58418  Biso   1.000  C
  C28      1.0000 0.53090  0.21100  0.61483  Biso   1.000  C
  C29      1.0000 0.43150  0.31620  0.63336  Biso   1.000  C
  C30      1.0000 0.51050  0.41480  0.66814  Biso   1.000  C
  C31      1.0000 0.37180  0.95480  0.53416  Biso   1.000  C
  C32      1.0000 0.49970  0.26360  0.76723  Biso   1.000  C
  C33      1.0000 0.43760  0.15900  0.73047  Biso   1.000  C
  C34      1.0000 0.55900  0.06750  0.71189  Biso   1.000  C
  C35      1.0000 0.49280  0.95910  0.68447  Biso   1.000  C
  C36      1.0000 0.31190  0.94050  0.67559  Biso   1.000  C
  C37      1.0000 0.19210  0.03600  0.69261  Biso   1.000  C
  C38      1.0000 0.25550  0.14530  0.71997  Biso   1.000  C
  C39      1.0000 0.12690  0.25040  0.73493  Biso   1.000  C
  C40      1.0000 0.44570  0.77180  0.64184  Biso   1.000  C
  C41      1.0000 0.56940  0.89470  0.07699  Biso   1.000  C
  C42      1.0000 0.47090  0.78970  0.04494  Biso   1.000  C
  C43      1.0000 0.35350  0.44570  0.13995  Biso   1.000  C
  C44      1.0000 0.24830  0.32720  0.12199  Biso   1.000  C
  C45      1.0000 0.32940  0.23650  0.09040  Biso   1.000  C
  C46      1.0000 0.22570  0.13280  0.07106  Biso   1.000  C
  C47      1.0000 0.05210  0.11910  0.08418  Biso   1.000  C
  C48      1.0000 0.96910  0.21100  0.11483  Biso   1.000  C
  C49      1.0000 0.06850  0.31620  0.13336  Biso   1.000  C
  C50      1.0000 0.98950  0.41480  0.16814  Biso   1.000  C
  C51      1.0000 0.12820  0.95480  0.03416  Biso   1.000  C
  C52      1.0000 0.00030  0.26360  0.26723  Biso   1.000  C
  C53      1.0000 0.06240  0.15900  0.23047  Biso   1.000  C
  C54      1.0000 0.94100  0.06750  0.21189  Biso   1.000  C
  C55      1.0000 0.00720  0.95910  0.18447  Biso   1.000  C
  C56      1.0000 0.18810  0.94050  0.17559  Biso   1.000  C
  C57      1.0000 0.30790  0.03600  0.19261  Biso   1.000  C
  C58      1.0000 0.24450  0.14530  0.21997  Biso   1.000  C
  C59      1.0000 0.37310  0.25040  0.23493  Biso   1.000  C
  C60      1.0000 0.05430  0.77180  0.14184  Biso   1.000  C
  C61      1.0000 0.06940  0.10530  0.42301  Biso   1.000  C
  C62      1.0000 0.97090  0.21030  0.45506  Biso   1.000  C
  C63      1.0000 0.85350  0.55430  0.36005  Biso   1.000  C
  C64      1.0000 0.74830  0.67280  0.37801  Biso   1.000  C
  C65      1.0000 0.82940  0.76350  0.40960  Biso   1.000  C
  C66      1.0000 0.72570  0.86720  0.42894  Biso   1.000  C
  C67      1.0000 0.55210  0.88090  0.41582  Biso   1.000  C
  C68      1.0000 0.46910  0.78900  0.38517  Biso   1.000  C
  C69      1.0000 0.56850  0.68380  0.36664  Biso   1.000  C
  C70      1.0000 0.48950  0.58520  0.33186  Biso   1.000  C
  C71      1.0000 0.62820  0.04520  0.46584  Biso   1.000  C
  C72      1.0000 0.50030  0.73640  0.23277  Biso   1.000  C
  C73      1.0000 0.56240  0.84100  0.26953  Biso   1.000  C
  C74      1.0000 0.44100  0.93250  0.28811  Biso   1.000  C
  C75      1.0000 0.50720  0.04090  0.31553  Biso   1.000  C
  C76      1.0000 0.68810  0.05950  0.32441  Biso   1.000  C
  C77      1.0000 0.80790  0.96400  0.30739  Biso   1.000  C
  C78      1.0000 0.74450  0.85470  0.28003  Biso   1.000  C
  C79      1.0000 0.87310  0.74960  0.26507  Biso   1.000  C
  C80      1.0000 0.55430  0.22820  0.35816  Biso   1.000  C
  N1       1.0000 0.73160  0.97130  0.96121  Biso   1.000  N
  N2       1.0000 0.00370  0.99590  0.93953  Biso   1.000  N
  N3       1.0000 0.78760  0.17900  0.85115  Biso   1.000  N
  N4       1.0000 0.07130  0.15010  0.83812  Biso   1.000  N
  N5       1.0000 0.23160  0.02870  0.53879  Biso   1.000  N
  N6       1.0000 0.50370  0.00410  0.56047  Biso   1.000  N
  N7       1.0000 0.28760  0.82100  0.64885  Biso   1.000  N
  N8       1.0000 0.57130  0.84990  0.66188  Biso   1.000  N
  N9       1.0000 0.26840  0.02870  0.03879  Biso   1.000  N
  N10      1.0000 0.99630  0.00410  0.06047  Biso   1.000  N
  N11      1.0000 0.21240  0.82100  0.14885  Biso   1.000  N
  N12      1.0000 0.92870  0.84990  0.16188  Biso   1.000  N
  N13      1.0000 0.76840  0.97130  0.46121  Biso   1.000  N
  N14      1.0000 0.49630  0.99590  0.43953  Biso   1.000  N
  N15      1.0000 0.71240  0.17900  0.35115  Biso   1.000  N
  N16      1.0000 0.42870  0.15010  0.33812  Biso   1.000  N
  O1       1.0000 0.37000  0.00940  0.93908  Biso   1.000  O
  O2       1.0000 0.53610  0.19650  0.99540  Biso   1.000  O
  O3       1.0000 0.41650  0.12180  0.88378  Biso   1.000  O
  O4       1.0000 0.59320  0.30040  0.93867  Biso   1.000  O
  O5       1.0000 0.68270  0.45460  0.87640  Biso   1.000  O
  O6       1.0000 0.52400  0.56540  0.83370  Biso   1.000  O
  O7       1.0000 0.17570  0.58210  0.82868  Biso   1.000  O
  O8       1.0000 0.90890  0.50890  0.80781  Biso   1.000  O
  O9       1.0000 0.95810  0.75290  0.69489  Biso   1.000  O
  O10      1.0000 0.08760  0.64060  0.74198  Biso   1.000  O
  O11      1.0000 0.68330  0.63560  0.75036  Biso   1.000  O
  O12      1.0000 0.46420  0.77020  0.76936  Biso   1.000  O
  O13      1.0000 0.30430  0.39180  0.88492  Biso   1.000  O
  O14      1.0000 0.87000  0.99060  0.56092  Biso   1.000  O
  O15      1.0000 0.03610  0.80350  0.50460  Biso   1.000  O
  O16      1.0000 0.91650  0.87820  0.61622  Biso   1.000  O
  O17      1.0000 0.09320  0.69960  0.56133  Biso   1.000  O
  O18      1.0000 0.18270  0.54540  0.62360  Biso   1.000  O
  O19      1.0000 0.02400  0.43460  0.66630  Biso   1.000  O
  O20      1.0000 0.67570  0.41790  0.67132  Biso   1.000  O
  O21      1.0000 0.40890  0.49110  0.69219  Biso   1.000  O
  O22      1.0000 0.45810  0.24710  0.80511  Biso   1.000  O
  O23      1.0000 0.58760  0.35940  0.75802  Biso   1.000  O
  O24      1.0000 0.18330  0.36440  0.74964  Biso   1.000  O
  O25      1.0000 0.96420  0.22980  0.73064  Biso   1.000  O
  O26      1.0000 0.80430  0.60820  0.61508  Biso   1.000  O
  O27      1.0000 0.63000  0.99060  0.06092  Biso   1.000  O
  O28      1.0000 0.46390  0.80350  0.00460  Biso   1.000  O
  O29      1.0000 0.58350  0.87820  0.11622  Biso   1.000  O
  O30      1.0000 0.40680  0.69960  0.06133  Biso   1.000  O
  O31      1.0000 0.31730  0.54540  0.12360  Biso   1.000  O
  O32      1.0000 0.47600  0.43460  0.16630  Biso   1.000  O
  O33      1.0000 0.82430  0.41790  0.17132  Biso   1.000  O
  O34      1.0000 0.09110  0.49110  0.19219  Biso   1.000  O
  O35      1.0000 0.04190  0.24710  0.30511  Biso   1.000  O
  O36      1.0000 0.91240  0.35940  0.25802  Biso   1.000  O
  O37      1.0000 0.31670  0.36440  0.24964  Biso   1.000  O
  O38      1.0000 0.53580  0.22980  0.23064  Biso   1.000  O
  O39      1.0000 0.69570  0.60820  0.11508  Biso   1.000  O
  O40      1.0000 0.13000  0.00940  0.43908  Biso   1.000  O
  O41      1.0000 0.96390  0.19650  0.49540  Biso   1.000  O
  O42      1.0000 0.08350  0.12180  0.38378  Biso   1.000  O
  O43      1.0000 0.90680  0.30040  0.43867  Biso   1.000  O
  O44      1.0000 0.81730  0.45460  0.37640  Biso   1.000  O
  O45      1.0000 0.97600  0.56540  0.33370  Biso   1.000  O
  O46      1.0000 0.32430  0.58210  0.32868  Biso   1.000  O
  O47      1.0000 0.59110  0.50890  0.30781  Biso   1.000  O
  O48      1.0000 0.54190  0.75290  0.19489  Biso   1.000  O
  O49      1.0000 0.41240  0.64060  0.24198  Biso   1.000  O
  O50      1.0000 0.81670  0.63560  0.25036  Biso   1.000  O
  O51      1.0000 0.03580  0.77020  0.26936  Biso   1.000  O
  O52      1.0000 0.19570  0.39180  0.38492  Biso   1.000  O
