data_image0
_cell_length_a       15.8546
_cell_length_b       22.0611
_cell_length_c       22.0611
_cell_angle_alpha    82.5812
_cell_angle_beta     68.9407
_cell_angle_gamma    68.9407

_symmetry_space_group_name_H-M    P 1
_symmetry_int_tables_number       1

loop_
  _symmetry_equiv_pos_as_xyz
  'x, y, z'

loop_
  _atom_site_label
  _atom_site_occupancy
  _atom_site_fract_x
  _atom_site_fract_y
  _atom_site_fract_z
  _atom_site_thermal_displace_type
  _atom_site_B_iso_or_equiv
  _atom_site_type_symbol
  Ca1      1.0000 0.85256  0.07214  0.07214  Biso   1.000  Ca
  Ca2      1.0000 0.09342  0.03628  0.03628  Biso   1.000  Ca
  Ca3      1.0000 0.49684  0.42786  0.42786  Biso   1.000  Ca
  Ca4      1.0000 0.66598  0.46372  0.46372  Biso   1.000  Ca
  Ca5      1.0000 0.42470  0.92786  0.57214  Biso   1.000  Ca
  Ca6      1.0000 0.62970  0.96372  0.53628  Biso   1.000  Ca
  Ca7      1.0000 0.42470  0.57214  0.92786  Biso   1.000  Ca
  Ca8      1.0000 0.62970  0.53628  0.96372  Biso   1.000  Ca
  Ca9      1.0000 0.50316  0.57214  0.57214  Biso   1.000  Ca
  Ca10     1.0000 0.33402  0.53628  0.53628  Biso   1.000  Ca
  Ca11     1.0000 0.14744  0.92786  0.92786  Biso   1.000  Ca
  Ca12     1.0000 0.90658  0.96372  0.96372  Biso   1.000  Ca
  Ca13     1.0000 0.57530  0.07214  0.42786  Biso   1.000  Ca
  Ca14     1.0000 0.37030  0.03628  0.46372  Biso   1.000  Ca
  Ca15     1.0000 0.57530  0.42786  0.07214  Biso   1.000  Ca
  Ca16     1.0000 0.37030  0.46372  0.03628  Biso   1.000  Ca
  Ca17     1.0000 0.68630  0.12740  0.25000  Biso   1.000  Ca
  Ca18     1.0000 0.56370  0.37260  0.25000  Biso   1.000  Ca
  Ca19     1.0000 0.43630  0.75000  0.62740  Biso   1.000  Ca
  Ca20     1.0000 0.31370  0.75000  0.87260  Biso   1.000  Ca
  Ca21     1.0000 0.31370  0.87260  0.75000  Biso   1.000  Ca
  Ca22     1.0000 0.43630  0.62740  0.75000  Biso   1.000  Ca
  Ca23     1.0000 0.56370  0.25000  0.37260  Biso   1.000  Ca
  Ca24     1.0000 0.68630  0.25000  0.12740  Biso   1.000  Ca
  H1       1.0000 0.80200  0.98590  0.29870  Biso   1.000  H
  H2       1.0000 0.83056  0.03852  0.32056  Biso   1.000  H
  H3       1.0000 0.98252  0.93385  0.40511  Biso   1.000  H
  H4       1.0000 0.94127  0.00693  0.38573  Biso   1.000  H
  H5       1.0000 0.10158  0.96000  0.31600  Biso   1.000  H
  H6       1.0000 0.99850  0.04213  0.26927  Biso   1.000  H
  H7       1.0000 0.07530  0.99122  0.21578  Biso   1.000  H
  H8       1.0000 0.03002  0.90508  0.18088  Biso   1.000  H
  H9       1.0000 0.92497  0.90323  0.21303  Biso   1.000  H
  H10      1.0000 0.86800  0.86780  0.32940  Biso   1.000  H
  H11      1.0000 0.93720  0.84796  0.37024  Biso   1.000  H
  H12      1.0000 0.14035  0.87415  0.24635  Biso   1.000  H
  H13      1.0000 0.10510  0.85201  0.31899  Biso   1.000  H
  H14      1.0000 0.02845  0.82195  0.25995  Biso   1.000  H
  H15      1.0000 0.58660  0.51410  0.20130  Biso   1.000  H
  H16      1.0000 0.68964  0.46148  0.17944  Biso   1.000  H
  H17      1.0000 0.82148  0.56615  0.09489  Biso   1.000  H
  H18      1.0000 0.83393  0.49307  0.11427  Biso   1.000  H
  H19      1.0000 0.87758  0.54000  0.18400  Biso   1.000  H
  H20      1.0000 0.80990  0.45787  0.23073  Biso   1.000  H
  H21      1.0000 0.78230  0.50878  0.28422  Biso   1.000  H
  H22      1.0000 0.61598  0.59492  0.31912  Biso   1.000  H
  H23      1.0000 0.54123  0.59677  0.28697  Biso   1.000  H
  H24      1.0000 0.56520  0.63220  0.17060  Biso   1.000  H
  H25      1.0000 0.65540  0.65204  0.12976  Biso   1.000  H
  H26      1.0000 0.76085  0.62585  0.25365  Biso   1.000  H
  H27      1.0000 0.77610  0.64799  0.18101  Biso   1.000  H
  H28      1.0000 0.61035  0.67805  0.24005  Biso   1.000  H
  H29      1.0000 0.60070  0.70130  0.48590  Biso   1.000  H
  H30      1.0000 0.65112  0.67944  0.53852  Biso   1.000  H
  H31      1.0000 0.88763  0.59489  0.43385  Biso   1.000  H
  H32      1.0000 0.82700  0.61427  0.50693  Biso   1.000  H
  H33      1.0000 0.91758  0.68400  0.46000  Biso   1.000  H
  H34      1.0000 0.76777  0.73073  0.54213  Biso   1.000  H
  H35      1.0000 0.79108  0.78422  0.49122  Biso   1.000  H
  H36      1.0000 0.71090  0.81912  0.40508  Biso   1.000  H
  H37      1.0000 0.63800  0.78697  0.40323  Biso   1.000  H
  H38      1.0000 0.69740  0.67060  0.36780  Biso   1.000  H
  H39      1.0000 0.80744  0.62976  0.34796  Biso   1.000  H
  H40      1.0000 0.88670  0.75365  0.37415  Biso   1.000  H
  H41      1.0000 0.92409  0.68101  0.35201  Biso   1.000  H
  H42      1.0000 0.78840  0.74005  0.32195  Biso   1.000  H
  H43      1.0000 0.28790  0.79870  0.01410  Biso   1.000  H
  H44      1.0000 0.36908  0.82056  0.96148  Biso   1.000  H
  H45      1.0000 0.41637  0.90511  0.06615  Biso   1.000  H
  H46      1.0000 0.44820  0.88573  0.99307  Biso   1.000  H
  H47      1.0000 0.56158  0.81600  0.04000  Biso   1.000  H
  H48      1.0000 0.54063  0.76927  0.95787  Biso   1.000  H
  H49      1.0000 0.56652  0.71578  0.00878  Biso   1.000  H
  H50      1.0000 0.43510  0.68088  0.09492  Biso   1.000  H
  H51      1.0000 0.32820  0.71303  0.09677  Biso   1.000  H
  H52      1.0000 0.23580  0.82940  0.13220  Biso   1.000  H
  H53      1.0000 0.28516  0.87024  0.15204  Biso   1.000  H
  H54      1.0000 0.51450  0.74635  0.12585  Biso   1.000  H
  H55      1.0000 0.45711  0.81899  0.14799  Biso   1.000  H
  H56      1.0000 0.35040  0.75995  0.17805  Biso   1.000  H
  H57      1.0000 0.41340  0.79870  0.48590  Biso   1.000  H
  H58      1.0000 0.31036  0.82056  0.53852  Biso   1.000  H
  H59      1.0000 0.17852  0.90511  0.43385  Biso   1.000  H
  H60      1.0000 0.16607  0.88573  0.50693  Biso   1.000  H
  H61      1.0000 0.12242  0.81600  0.46000  Biso   1.000  H
  H62      1.0000 0.19010  0.76927  0.54213  Biso   1.000  H
  H63      1.0000 0.21770  0.71578  0.49122  Biso   1.000  H
  H64      1.0000 0.38402  0.68088  0.40508  Biso   1.000  H
  H65      1.0000 0.45877  0.71303  0.40323  Biso   1.000  H
  H66      1.0000 0.43480  0.82940  0.36780  Biso   1.000  H
  H67      1.0000 0.34460  0.87024  0.34796  Biso   1.000  H
  H68      1.0000 0.23915  0.74635  0.37415  Biso   1.000  H
  H69      1.0000 0.22390  0.81899  0.35201  Biso   1.000  H
  H70      1.0000 0.38965  0.75995  0.32195  Biso   1.000  H
  H71      1.0000 0.19800  0.70130  0.01410  Biso   1.000  H
  H72      1.0000 0.16944  0.67944  0.96148  Biso   1.000  H
  H73      1.0000 0.01748  0.59489  0.06615  Biso   1.000  H
  H74      1.0000 0.05873  0.61427  0.99307  Biso   1.000  H
  H75      1.0000 0.89842  0.68400  0.04000  Biso   1.000  H
  H76      1.0000 0.00150  0.73073  0.95787  Biso   1.000  H
  H77      1.0000 0.92470  0.78422  0.00878  Biso   1.000  H
  H78      1.0000 0.96998  0.81912  0.09492  Biso   1.000  H
  H79      1.0000 0.07503  0.78697  0.09677  Biso   1.000  H
  H80      1.0000 0.13200  0.67060  0.13220  Biso   1.000  H
  H81      1.0000 0.06280  0.62976  0.15204  Biso   1.000  H
  H82      1.0000 0.85965  0.75365  0.12585  Biso   1.000  H
  H83      1.0000 0.89490  0.68101  0.14799  Biso   1.000  H
  H84      1.0000 0.97155  0.74005  0.17805  Biso   1.000  H
  H85      1.0000 0.71210  0.98590  0.20130  Biso   1.000  H
  H86      1.0000 0.63092  0.03852  0.17944  Biso   1.000  H
  H87      1.0000 0.58363  0.93385  0.09489  Biso   1.000  H
  H88      1.0000 0.55180  0.00693  0.11427  Biso   1.000  H
  H89      1.0000 0.43842  0.96000  0.18400  Biso   1.000  H
  H90      1.0000 0.45937  0.04213  0.23073  Biso   1.000  H
  H91      1.0000 0.43348  0.99122  0.28422  Biso   1.000  H
  H92      1.0000 0.56490  0.90508  0.31912  Biso   1.000  H
  H93      1.0000 0.67180  0.90323  0.28697  Biso   1.000  H
  H94      1.0000 0.76420  0.86780  0.17060  Biso   1.000  H
  H95      1.0000 0.71484  0.84796  0.12976  Biso   1.000  H
  H96      1.0000 0.48550  0.87415  0.25365  Biso   1.000  H
  H97      1.0000 0.54289  0.85201  0.18101  Biso   1.000  H
  H98      1.0000 0.64960  0.82195  0.24005  Biso   1.000  H
  H99      1.0000 0.39930  0.51410  0.29870  Biso   1.000  H
  H100     1.0000 0.34888  0.46148  0.32056  Biso   1.000  H
  H101     1.0000 0.11237  0.56615  0.40511  Biso   1.000  H
  H102     1.0000 0.17300  0.49307  0.38573  Biso   1.000  H
  H103     1.0000 0.08242  0.54000  0.31600  Biso   1.000  H
  H104     1.0000 0.23223  0.45787  0.26927  Biso   1.000  H
  H105     1.0000 0.20892  0.50878  0.21578  Biso   1.000  H
  H106     1.0000 0.28910  0.59492  0.18088  Biso   1.000  H
  H107     1.0000 0.36200  0.59677  0.21303  Biso   1.000  H
  H108     1.0000 0.30260  0.63220  0.32940  Biso   1.000  H
  H109     1.0000 0.19256  0.65204  0.37024  Biso   1.000  H
  H110     1.0000 0.11330  0.62585  0.24635  Biso   1.000  H
  H111     1.0000 0.07591  0.64799  0.31899  Biso   1.000  H
  H112     1.0000 0.21160  0.67805  0.25995  Biso   1.000  H
  H113     1.0000 0.19800  0.01410  0.70130  Biso   1.000  H
  H114     1.0000 0.16944  0.96148  0.67944  Biso   1.000  H
  H115     1.0000 0.01748  0.06615  0.59489  Biso   1.000  H
  H116     1.0000 0.05873  0.99307  0.61427  Biso   1.000  H
  H117     1.0000 0.89842  0.04000  0.68400  Biso   1.000  H
  H118     1.0000 0.00150  0.95787  0.73073  Biso   1.000  H
  H119     1.0000 0.92470  0.00878  0.78422  Biso   1.000  H
  H120     1.0000 0.96998  0.09492  0.81912  Biso   1.000  H
  H121     1.0000 0.07503  0.09677  0.78697  Biso   1.000  H
  H122     1.0000 0.13200  0.13220  0.67060  Biso   1.000  H
  H123     1.0000 0.06280  0.15204  0.62976  Biso   1.000  H
  H124     1.0000 0.85965  0.12585  0.75365  Biso   1.000  H
  H125     1.0000 0.89490  0.14799  0.68101  Biso   1.000  H
  H126     1.0000 0.97155  0.17805  0.74005  Biso   1.000  H
  H127     1.0000 0.41340  0.48590  0.79870  Biso   1.000  H
  H128     1.0000 0.31036  0.53852  0.82056  Biso   1.000  H
  H129     1.0000 0.17852  0.43385  0.90511  Biso   1.000  H
  H130     1.0000 0.16607  0.50693  0.88573  Biso   1.000  H
  H131     1.0000 0.12242  0.46000  0.81600  Biso   1.000  H
  H132     1.0000 0.19010  0.54213  0.76927  Biso   1.000  H
  H133     1.0000 0.21770  0.49122  0.71578  Biso   1.000  H
  H134     1.0000 0.38402  0.40508  0.68088  Biso   1.000  H
  H135     1.0000 0.45877  0.40323  0.71303  Biso   1.000  H
  H136     1.0000 0.43480  0.36780  0.82940  Biso   1.000  H
  H137     1.0000 0.34460  0.34796  0.87024  Biso   1.000  H
  H138     1.0000 0.23915  0.37415  0.74635  Biso   1.000  H
  H139     1.0000 0.22390  0.35201  0.81899  Biso   1.000  H
  H140     1.0000 0.38965  0.32195  0.75995  Biso   1.000  H
  H141     1.0000 0.39930  0.29870  0.51410  Biso   1.000  H
  H142     1.0000 0.34888  0.32056  0.46148  Biso   1.000  H
  H143     1.0000 0.11237  0.40511  0.56615  Biso   1.000  H
  H144     1.0000 0.17300  0.38573  0.49307  Biso   1.000  H
  H145     1.0000 0.08242  0.31600  0.54000  Biso   1.000  H
  H146     1.0000 0.23223  0.26927  0.45787  Biso   1.000  H
  H147     1.0000 0.20892  0.21578  0.50878  Biso   1.000  H
  H148     1.0000 0.28910  0.18088  0.59492  Biso   1.000  H
  H149     1.0000 0.36200  0.21303  0.59677  Biso   1.000  H
  H150     1.0000 0.30260  0.32940  0.63220  Biso   1.000  H
  H151     1.0000 0.19256  0.37024  0.65204  Biso   1.000  H
  H152     1.0000 0.11330  0.24635  0.62585  Biso   1.000  H
  H153     1.0000 0.07591  0.31899  0.64799  Biso   1.000  H
  H154     1.0000 0.21160  0.25995  0.67805  Biso   1.000  H
  H155     1.0000 0.71210  0.20130  0.98590  Biso   1.000  H
  H156     1.0000 0.63092  0.17944  0.03852  Biso   1.000  H
  H157     1.0000 0.58363  0.09489  0.93385  Biso   1.000  H
  H158     1.0000 0.55180  0.11427  0.00693  Biso   1.000  H
  H159     1.0000 0.43842  0.18400  0.96000  Biso   1.000  H
  H160     1.0000 0.45937  0.23073  0.04213  Biso   1.000  H
  H161     1.0000 0.43348  0.28422  0.99122  Biso   1.000  H
  H162     1.0000 0.56490  0.31912  0.90508  Biso   1.000  H
  H163     1.0000 0.67180  0.28697  0.90323  Biso   1.000  H
  H164     1.0000 0.76420  0.17060  0.86780  Biso   1.000  H
  H165     1.0000 0.71484  0.12976  0.84796  Biso   1.000  H
  H166     1.0000 0.48550  0.25365  0.87415  Biso   1.000  H
  H167     1.0000 0.54289  0.18101  0.85201  Biso   1.000  H
  H168     1.0000 0.64960  0.24005  0.82195  Biso   1.000  H
  H169     1.0000 0.58660  0.20130  0.51410  Biso   1.000  H
  H170     1.0000 0.68964  0.17944  0.46148  Biso   1.000  H
  H171     1.0000 0.82148  0.09489  0.56615  Biso   1.000  H
  H172     1.0000 0.83393  0.11427  0.49307  Biso   1.000  H
  H173     1.0000 0.87758  0.18400  0.54000  Biso   1.000  H
  H174     1.0000 0.80990  0.23073  0.45787  Biso   1.000  H
  H175     1.0000 0.78230  0.28422  0.50878  Biso   1.000  H
  H176     1.0000 0.61598  0.31912  0.59492  Biso   1.000  H
  H177     1.0000 0.54123  0.28697  0.59677  Biso   1.000  H
  H178     1.0000 0.56520  0.17060  0.63220  Biso   1.000  H
  H179     1.0000 0.65540  0.12976  0.65204  Biso   1.000  H
  H180     1.0000 0.76085  0.25365  0.62585  Biso   1.000  H
  H181     1.0000 0.77610  0.18101  0.64799  Biso   1.000  H
  H182     1.0000 0.61035  0.24005  0.67805  Biso   1.000  H
  H183     1.0000 0.80200  0.29870  0.98590  Biso   1.000  H
  H184     1.0000 0.83056  0.32056  0.03852  Biso   1.000  H
  H185     1.0000 0.98252  0.40511  0.93385  Biso   1.000  H
  H186     1.0000 0.94127  0.38573  0.00693  Biso   1.000  H
  H187     1.0000 0.10158  0.31600  0.96000  Biso   1.000  H
  H188     1.0000 0.99850  0.26927  0.04213  Biso   1.000  H
  H189     1.0000 0.07530  0.21578  0.99122  Biso   1.000  H
  H190     1.0000 0.03002  0.18088  0.90508  Biso   1.000  H
  H191     1.0000 0.92497  0.21303  0.90323  Biso   1.000  H
  H192     1.0000 0.86800  0.32940  0.86780  Biso   1.000  H
  H193     1.0000 0.93720  0.37024  0.84796  Biso   1.000  H
  H194     1.0000 0.14035  0.24635  0.87415  Biso   1.000  H
  H195     1.0000 0.10510  0.31899  0.85201  Biso   1.000  H
  H196     1.0000 0.02845  0.25995  0.82195  Biso   1.000  H
  H197     1.0000 0.28790  0.01410  0.79870  Biso   1.000  H
  H198     1.0000 0.36908  0.96148  0.82056  Biso   1.000  H
  H199     1.0000 0.41637  0.06615  0.90511  Biso   1.000  H
  H200     1.0000 0.44820  0.99307  0.88573  Biso   1.000  H
  H201     1.0000 0.56158  0.04000  0.81600  Biso   1.000  H
  H202     1.0000 0.54063  0.95787  0.76927  Biso   1.000  H
  H203     1.0000 0.56652  0.00878  0.71578  Biso   1.000  H
  H204     1.0000 0.43510  0.09492  0.68088  Biso   1.000  H
  H205     1.0000 0.32820  0.09677  0.71303  Biso   1.000  H
  H206     1.0000 0.23580  0.13220  0.82940  Biso   1.000  H
  H207     1.0000 0.28516  0.15204  0.87024  Biso   1.000  H
  H208     1.0000 0.51450  0.12585  0.74635  Biso   1.000  H
  H209     1.0000 0.45711  0.14799  0.81899  Biso   1.000  H
  H210     1.0000 0.35040  0.17805  0.75995  Biso   1.000  H
  H211     1.0000 0.60070  0.48590  0.70130  Biso   1.000  H
  H212     1.0000 0.65112  0.53852  0.67944  Biso   1.000  H
  H213     1.0000 0.88763  0.43385  0.59489  Biso   1.000  H
  H214     1.0000 0.82700  0.50693  0.61427  Biso   1.000  H
  H215     1.0000 0.91758  0.46000  0.68400  Biso   1.000  H
  H216     1.0000 0.76777  0.54213  0.73073  Biso   1.000  H
  H217     1.0000 0.79108  0.49122  0.78422  Biso   1.000  H
  H218     1.0000 0.71090  0.40508  0.81912  Biso   1.000  H
  H219     1.0000 0.63800  0.40323  0.78697  Biso   1.000  H
  H220     1.0000 0.69740  0.36780  0.67060  Biso   1.000  H
  H221     1.0000 0.80744  0.34796  0.62976  Biso   1.000  H
  H222     1.0000 0.88670  0.37415  0.75365  Biso   1.000  H
  H223     1.0000 0.92409  0.35201  0.68101  Biso   1.000  H
  H224     1.0000 0.78840  0.32195  0.74005  Biso   1.000  H
  C1       1.0000 0.93964  0.98380  0.24292  Biso   1.000  C
  C2       1.0000 0.85369  0.99389  0.30633  Biso   1.000  C
  C3       1.0000 0.88201  0.94812  0.35946  Biso   1.000  C
  C4       1.0000 0.96362  0.96234  0.37142  Biso   1.000  C
  C5       1.0000 0.04983  0.95134  0.30824  Biso   1.000  C
  C6       1.0000 0.02052  0.99750  0.25546  Biso   1.000  C
  C7       1.0000 0.97555  0.91231  0.22099  Biso   1.000  C
  C8       1.0000 0.91866  0.87720  0.33688  Biso   1.000  C
  C9       1.0000 0.08527  0.88124  0.28602  Biso   1.000  C
  C10      1.0000 0.00507  0.86712  0.27414  Biso   1.000  C
  C11      1.0000 0.90910  0.02664  0.18996  Biso   1.000  C
  C12      1.0000 0.79620  0.95868  0.42132  Biso   1.000  C
  C13      1.0000 0.66636  0.51620  0.25708  Biso   1.000  C
  C14      1.0000 0.65391  0.50611  0.19367  Biso   1.000  C
  C15      1.0000 0.68959  0.55188  0.14054  Biso   1.000  C
  C16      1.0000 0.79738  0.53766  0.12858  Biso   1.000  C
  C17      1.0000 0.80941  0.54866  0.19176  Biso   1.000  C
  C18      1.0000 0.77348  0.50250  0.24454  Biso   1.000  C
  C19      1.0000 0.60885  0.58769  0.27901  Biso   1.000  C
  C20      1.0000 0.63274  0.62280  0.16312  Biso   1.000  C
  C21      1.0000 0.75253  0.61876  0.21398  Biso   1.000  C
  C22      1.0000 0.64633  0.63288  0.22586  Biso   1.000  C
  C23      1.0000 0.62570  0.47336  0.31004  Biso   1.000  C
  C24      1.0000 0.67620  0.54132  0.07868  Biso   1.000  C
  C25      1.0000 0.68256  0.75708  0.48380  Biso   1.000  C
  C26      1.0000 0.66002  0.69367  0.49389  Biso   1.000  C
  C27      1.0000 0.74147  0.64054  0.44812  Biso   1.000  C
  C28      1.0000 0.83504  0.62858  0.46234  Biso   1.000  C
  C29      1.0000 0.85807  0.69176  0.45134  Biso   1.000  C
  C30      1.0000 0.77598  0.74454  0.49750  Biso   1.000  C
  C31      1.0000 0.69654  0.77901  0.41231  Biso   1.000  C
  C32      1.0000 0.75554  0.66312  0.37720  Biso   1.000  C
  C33      1.0000 0.87129  0.71398  0.38124  Biso   1.000  C
  C34      1.0000 0.77921  0.72586  0.36712  Biso   1.000  C
  C35      1.0000 0.59906  0.81004  0.52664  Biso   1.000  C
  C36      1.0000 0.71752  0.57868  0.45868  Biso   1.000  C
  C37      1.0000 0.42344  0.74292  0.01620  Biso   1.000  C
  C38      1.0000 0.34758  0.80633  0.00611  Biso   1.000  C
  C39      1.0000 0.33013  0.85946  0.05188  Biso   1.000  C
  C40      1.0000 0.42596  0.87142  0.03766  Biso   1.000  C
  C41      1.0000 0.50117  0.80824  0.04866  Biso   1.000  C
  C42      1.0000 0.51802  0.75546  0.00250  Biso   1.000  C
  C43      1.0000 0.38786  0.72099  0.08769  Biso   1.000  C
  C44      1.0000 0.29586  0.83688  0.12280  Biso   1.000  C
  C45      1.0000 0.46651  0.78602  0.11876  Biso   1.000  C
  C46      1.0000 0.37219  0.77414  0.13288  Biso   1.000  C
  C47      1.0000 0.43574  0.68996  0.97336  Biso   1.000  C
  C48      1.0000 0.25488  0.92132  0.04132  Biso   1.000  C
  C49      1.0000 0.33364  0.74292  0.48380  Biso   1.000  C
  C50      1.0000 0.34609  0.80633  0.49389  Biso   1.000  C
  C51      1.0000 0.31041  0.85946  0.44812  Biso   1.000  C
  C52      1.0000 0.20262  0.87142  0.46234  Biso   1.000  C
  C53      1.0000 0.19059  0.80824  0.45134  Biso   1.000  C
  C54      1.0000 0.22652  0.75546  0.49750  Biso   1.000  C
  C55      1.0000 0.39115  0.72099  0.41231  Biso   1.000  C
  C56      1.0000 0.36726  0.83688  0.37720  Biso   1.000  C
  C57      1.0000 0.24747  0.78602  0.38124  Biso   1.000  C
  C58      1.0000 0.35367  0.77414  0.36712  Biso   1.000  C
  C59      1.0000 0.37430  0.68996  0.52664  Biso   1.000  C
  C60      1.0000 0.32380  0.92132  0.45868  Biso   1.000  C
  C61      1.0000 0.06036  0.75708  0.01620  Biso   1.000  C
  C62      1.0000 0.14631  0.69367  0.00611  Biso   1.000  C
  C63      1.0000 0.11799  0.64054  0.05188  Biso   1.000  C
  C64      1.0000 0.03638  0.62858  0.03766  Biso   1.000  C
  C65      1.0000 0.95017  0.69176  0.04866  Biso   1.000  C
  C66      1.0000 0.97948  0.74454  0.00250  Biso   1.000  C
  C67      1.0000 0.02445  0.77901  0.08769  Biso   1.000  C
  C68      1.0000 0.08134  0.66312  0.12280  Biso   1.000  C
  C69      1.0000 0.91473  0.71398  0.11876  Biso   1.000  C
  C70      1.0000 0.99493  0.72586  0.13288  Biso   1.000  C
  C71      1.0000 0.09090  0.81004  0.97336  Biso   1.000  C
  C72      1.0000 0.20380  0.57868  0.04132  Biso   1.000  C
  C73      1.0000 0.57656  0.98380  0.25708  Biso   1.000  C
  C74      1.0000 0.65242  0.99389  0.19367  Biso   1.000  C
  C75      1.0000 0.66987  0.94812  0.14054  Biso   1.000  C
  C76      1.0000 0.57404  0.96234  0.12858  Biso   1.000  C
  C77      1.0000 0.49883  0.95134  0.19176  Biso   1.000  C
  C78      1.0000 0.48198  0.99750  0.24454  Biso   1.000  C
  C79      1.0000 0.61214  0.91231  0.27901  Biso   1.000  C
  C80      1.0000 0.70414  0.87720  0.16312  Biso   1.000  C
  C81      1.0000 0.53349  0.88124  0.21398  Biso   1.000  C
  C82      1.0000 0.62781  0.86712  0.22586  Biso   1.000  C
  C83      1.0000 0.56426  0.02664  0.31004  Biso   1.000  C
  C84      1.0000 0.74512  0.95868  0.07868  Biso   1.000  C
  C85      1.0000 0.31744  0.51620  0.24292  Biso   1.000  C
  C86      1.0000 0.33998  0.50611  0.30633  Biso   1.000  C
  C87      1.0000 0.25853  0.55188  0.35946  Biso   1.000  C
  C88      1.0000 0.16496  0.53766  0.37142  Biso   1.000  C
  C89      1.0000 0.14193  0.54866  0.30824  Biso   1.000  C
  C90      1.0000 0.22402  0.50250  0.25546  Biso   1.000  C
  C91      1.0000 0.30346  0.58769  0.22099  Biso   1.000  C
  C92      1.0000 0.24446  0.62280  0.33688  Biso   1.000  C
  C93      1.0000 0.12871  0.61876  0.28602  Biso   1.000  C
  C94      1.0000 0.22079  0.63288  0.27414  Biso   1.000  C
  C95      1.0000 0.40094  0.47336  0.18996  Biso   1.000  C
  C96      1.0000 0.28248  0.54132  0.42132  Biso   1.000  C
  C97      1.0000 0.06036  0.01620  0.75708  Biso   1.000  C
  C98      1.0000 0.14631  0.00611  0.69367  Biso   1.000  C
  C99      1.0000 0.11799  0.05188  0.64054  Biso   1.000  C
  C100     1.0000 0.03638  0.03766  0.62858  Biso   1.000  C
  C101     1.0000 0.95017  0.04866  0.69176  Biso   1.000  C
  C102     1.0000 0.97948  0.00250  0.74454  Biso   1.000  C
  C103     1.0000 0.02445  0.08769  0.77901  Biso   1.000  C
  C104     1.0000 0.08134  0.12280  0.66312  Biso   1.000  C
  C105     1.0000 0.91473  0.11876  0.71398  Biso   1.000  C
  C106     1.0000 0.99493  0.13288  0.72586  Biso   1.000  C
  C107     1.0000 0.09090  0.97336  0.81004  Biso   1.000  C
  C108     1.0000 0.20380  0.04132  0.57868  Biso   1.000  C
  C109     1.0000 0.33364  0.48380  0.74292  Biso   1.000  C
  C110     1.0000 0.34609  0.49389  0.80633  Biso   1.000  C
  C111     1.0000 0.31041  0.44812  0.85946  Biso   1.000  C
  C112     1.0000 0.20262  0.46234  0.87142  Biso   1.000  C
  C113     1.0000 0.19059  0.45134  0.80824  Biso   1.000  C
  C114     1.0000 0.22652  0.49750  0.75546  Biso   1.000  C
  C115     1.0000 0.39115  0.41231  0.72099  Biso   1.000  C
  C116     1.0000 0.36726  0.37720  0.83688  Biso   1.000  C
  C117     1.0000 0.24747  0.38124  0.78602  Biso   1.000  C
  C118     1.0000 0.35367  0.36712  0.77414  Biso   1.000  C
  C119     1.0000 0.37430  0.52664  0.68996  Biso   1.000  C
  C120     1.0000 0.32380  0.45868  0.92132  Biso   1.000  C
  C121     1.0000 0.31744  0.24292  0.51620  Biso   1.000  C
  C122     1.0000 0.33998  0.30633  0.50611  Biso   1.000  C
  C123     1.0000 0.25853  0.35946  0.55188  Biso   1.000  C
  C124     1.0000 0.16496  0.37142  0.53766  Biso   1.000  C
  C125     1.0000 0.14193  0.30824  0.54866  Biso   1.000  C
  C126     1.0000 0.22402  0.25546  0.50250  Biso   1.000  C
  C127     1.0000 0.30346  0.22099  0.58769  Biso   1.000  C
  C128     1.0000 0.24446  0.33688  0.62280  Biso   1.000  C
  C129     1.0000 0.12871  0.28602  0.61876  Biso   1.000  C
  C130     1.0000 0.22079  0.27414  0.63288  Biso   1.000  C
  C131     1.0000 0.40094  0.18996  0.47336  Biso   1.000  C
  C132     1.0000 0.28248  0.42132  0.54132  Biso   1.000  C
  C133     1.0000 0.57656  0.25708  0.98380  Biso   1.000  C
  C134     1.0000 0.65242  0.19367  0.99389  Biso   1.000  C
  C135     1.0000 0.66987  0.14054  0.94812  Biso   1.000  C
  C136     1.0000 0.57404  0.12858  0.96234  Biso   1.000  C
  C137     1.0000 0.49883  0.19176  0.95134  Biso   1.000  C
  C138     1.0000 0.48198  0.24454  0.99750  Biso   1.000  C
  C139     1.0000 0.61214  0.27901  0.91231  Biso   1.000  C
  C140     1.0000 0.70414  0.16312  0.87720  Biso   1.000  C
  C141     1.0000 0.53349  0.21398  0.88124  Biso   1.000  C
  C142     1.0000 0.62781  0.22586  0.86712  Biso   1.000  C
  C143     1.0000 0.56426  0.31004  0.02664  Biso   1.000  C
  C144     1.0000 0.74512  0.07868  0.95868  Biso   1.000  C
  C145     1.0000 0.66636  0.25708  0.51620  Biso   1.000  C
  C146     1.0000 0.65391  0.19367  0.50611  Biso   1.000  C
  C147     1.0000 0.68959  0.14054  0.55188  Biso   1.000  C
  C148     1.0000 0.79738  0.12858  0.53766  Biso   1.000  C
  C149     1.0000 0.80941  0.19176  0.54866  Biso   1.000  C
  C150     1.0000 0.77348  0.24454  0.50250  Biso   1.000  C
  C151     1.0000 0.60885  0.27901  0.58769  Biso   1.000  C
  C152     1.0000 0.63274  0.16312  0.62280  Biso   1.000  C
  C153     1.0000 0.75253  0.21398  0.61876  Biso   1.000  C
  C154     1.0000 0.64633  0.22586  0.63288  Biso   1.000  C
  C155     1.0000 0.62570  0.31004  0.47336  Biso   1.000  C
  C156     1.0000 0.67620  0.07868  0.54132  Biso   1.000  C
  C157     1.0000 0.93964  0.24292  0.98380  Biso   1.000  C
  C158     1.0000 0.85369  0.30633  0.99389  Biso   1.000  C
  C159     1.0000 0.88201  0.35946  0.94812  Biso   1.000  C
  C160     1.0000 0.96362  0.37142  0.96234  Biso   1.000  C
  C161     1.0000 0.04983  0.30824  0.95134  Biso   1.000  C
  C162     1.0000 0.02052  0.25546  0.99750  Biso   1.000  C
  C163     1.0000 0.97555  0.22099  0.91231  Biso   1.000  C
  C164     1.0000 0.91866  0.33688  0.87720  Biso   1.000  C
  C165     1.0000 0.08527  0.28602  0.88124  Biso   1.000  C
  C166     1.0000 0.00507  0.27414  0.86712  Biso   1.000  C
  C167     1.0000 0.90910  0.18996  0.02664  Biso   1.000  C
  C168     1.0000 0.79620  0.42132  0.95868  Biso   1.000  C
  C169     1.0000 0.42344  0.01620  0.74292  Biso   1.000  C
  C170     1.0000 0.34758  0.00611  0.80633  Biso   1.000  C
  C171     1.0000 0.33013  0.05188  0.85946  Biso   1.000  C
  C172     1.0000 0.42596  0.03766  0.87142  Biso   1.000  C
  C173     1.0000 0.50117  0.04866  0.80824  Biso   1.000  C
  C174     1.0000 0.51802  0.00250  0.75546  Biso   1.000  C
  C175     1.0000 0.38786  0.08769  0.72099  Biso   1.000  C
  C176     1.0000 0.29586  0.12280  0.83688  Biso   1.000  C
  C177     1.0000 0.46651  0.11876  0.78602  Biso   1.000  C
  C178     1.0000 0.37219  0.13288  0.77414  Biso   1.000  C
  C179     1.0000 0.43574  0.97336  0.68996  Biso   1.000  C
  C180     1.0000 0.25488  0.04132  0.92132  Biso   1.000  C
  C181     1.0000 0.68256  0.48380  0.75708  Biso   1.000  C
  C182     1.0000 0.66002  0.49389  0.69367  Biso   1.000  C
  C183     1.0000 0.74147  0.44812  0.64054  Biso   1.000  C
  C184     1.0000 0.83504  0.46234  0.62858  Biso   1.000  C
  C185     1.0000 0.85807  0.45134  0.69176  Biso   1.000  C
  C186     1.0000 0.77598  0.49750  0.74454  Biso   1.000  C
  C187     1.0000 0.69654  0.41231  0.77901  Biso   1.000  C
  C188     1.0000 0.75554  0.37720  0.66312  Biso   1.000  C
  C189     1.0000 0.87129  0.38124  0.71398  Biso   1.000  C
  C190     1.0000 0.77921  0.36712  0.72586  Biso   1.000  C
  C191     1.0000 0.59906  0.52664  0.81004  Biso   1.000  C
  C192     1.0000 0.71752  0.45868  0.57868  Biso   1.000  C
  C193     1.0000 0.50923  0.25000  0.25000  Biso   1.000  C
  C194     1.0000 0.25923  0.75000  0.75000  Biso   1.000  C
  C195     1.0000 0.49077  0.75000  0.75000  Biso   1.000  C
  C196     1.0000 0.74077  0.25000  0.25000  Biso   1.000  C
  O1       1.0000 0.97740  0.02730  0.13170  Biso   1.000  O
  O2       1.0000 0.83060  0.06930  0.18950  Biso   1.000  O
  O3       1.0000 0.71580  0.97990  0.41390  Biso   1.000  O
  O4       1.0000 0.80600  0.92950  0.47650  Biso   1.000  O
  O5       1.0000 0.63640  0.47270  0.36830  Biso   1.000  O
  O6       1.0000 0.58940  0.43070  0.31050  Biso   1.000  O
  O7       1.0000 0.60960  0.52010  0.08610  Biso   1.000  O
  O8       1.0000 0.71200  0.57050  0.02350  Biso   1.000  O
  O9       1.0000 0.60910  0.86830  0.52730  Biso   1.000  O
  O10      1.0000 0.52010  0.81050  0.56930  Biso   1.000  O
  O11      1.0000 0.62970  0.58610  0.47990  Biso   1.000  O
  O12      1.0000 0.78250  0.52350  0.42950  Biso   1.000  O
  O13      1.0000 0.50470  0.63170  0.97270  Biso   1.000  O
  O14      1.0000 0.39990  0.68950  0.93070  Biso   1.000  O
  O15      1.0000 0.19570  0.91390  0.02010  Biso   1.000  O
  O16      1.0000 0.23550  0.97650  0.07050  Biso   1.000  O
  O17      1.0000 0.36360  0.63170  0.52730  Biso   1.000  O
  O18      1.0000 0.41060  0.68950  0.56930  Biso   1.000  O
  O19      1.0000 0.39040  0.91390  0.47990  Biso   1.000  O
  O20      1.0000 0.28800  0.97650  0.42950  Biso   1.000  O
  O21      1.0000 0.02260  0.86830  0.97270  Biso   1.000  O
  O22      1.0000 0.16940  0.81050  0.93070  Biso   1.000  O
  O23      1.0000 0.28420  0.58610  0.02010  Biso   1.000  O
  O24      1.0000 0.19400  0.52350  0.07050  Biso   1.000  O
  O25      1.0000 0.49530  0.02730  0.36830  Biso   1.000  O
  O26      1.0000 0.60010  0.06930  0.31050  Biso   1.000  O
  O27      1.0000 0.80430  0.97990  0.08610  Biso   1.000  O
  O28      1.0000 0.76450  0.92950  0.02350  Biso   1.000  O
  O29      1.0000 0.39090  0.47270  0.13170  Biso   1.000  O
  O30      1.0000 0.47990  0.43070  0.18950  Biso   1.000  O
  O31      1.0000 0.37030  0.52010  0.41390  Biso   1.000  O
  O32      1.0000 0.21750  0.57050  0.47650  Biso   1.000  O
  O33      1.0000 0.02260  0.97270  0.86830  Biso   1.000  O
  O34      1.0000 0.16940  0.93070  0.81050  Biso   1.000  O
  O35      1.0000 0.28420  0.02010  0.58610  Biso   1.000  O
  O36      1.0000 0.19400  0.07050  0.52350  Biso   1.000  O
  O37      1.0000 0.36360  0.52730  0.63170  Biso   1.000  O
  O38      1.0000 0.41060  0.56930  0.68950  Biso   1.000  O
  O39      1.0000 0.39040  0.47990  0.91390  Biso   1.000  O
  O40      1.0000 0.28800  0.42950  0.97650  Biso   1.000  O
  O41      1.0000 0.39090  0.13170  0.47270  Biso   1.000  O
  O42      1.0000 0.47990  0.18950  0.43070  Biso   1.000  O
  O43      1.0000 0.37030  0.41390  0.52010  Biso   1.000  O
  O44      1.0000 0.21750  0.47650  0.57050  Biso   1.000  O
  O45      1.0000 0.49530  0.36830  0.02730  Biso   1.000  O
  O46      1.0000 0.60010  0.31050  0.06930  Biso   1.000  O
  O47      1.0000 0.80430  0.08610  0.97990  Biso   1.000  O
  O48      1.0000 0.76450  0.02350  0.92950  Biso   1.000  O
  O49      1.0000 0.63640  0.36830  0.47270  Biso   1.000  O
  O50      1.0000 0.58940  0.31050  0.43070  Biso   1.000  O
  O51      1.0000 0.60960  0.08610  0.52010  Biso   1.000  O
  O52      1.0000 0.71200  0.02350  0.57050  Biso   1.000  O
  O53      1.0000 0.97740  0.13170  0.02730  Biso   1.000  O
  O54      1.0000 0.83060  0.18950  0.06930  Biso   1.000  O
  O55      1.0000 0.71580  0.41390  0.97990  Biso   1.000  O
  O56      1.0000 0.80600  0.47650  0.92950  Biso   1.000  O
  O57      1.0000 0.50470  0.97270  0.63170  Biso   1.000  O
  O58      1.0000 0.39990  0.93070  0.68950  Biso   1.000  O
  O59      1.0000 0.19570  0.02010  0.91390  Biso   1.000  O
  O60      1.0000 0.23550  0.07050  0.97650  Biso   1.000  O
  O61      1.0000 0.60910  0.52730  0.86830  Biso   1.000  O
  O62      1.0000 0.52010  0.56930  0.81050  Biso   1.000  O
  O63      1.0000 0.62970  0.47990  0.58610  Biso   1.000  O
  O64      1.0000 0.78250  0.42950  0.52350  Biso   1.000  O
  O65      1.0000 0.69720  0.14000  0.14000  Biso   1.000  O
  O66      1.0000 0.13020  0.10280  0.10280  Biso   1.000  O
  O67      1.0000 0.47720  0.36000  0.36000  Biso   1.000  O
  O68      1.0000 0.83580  0.39720  0.39720  Biso   1.000  O
  O69      1.0000 0.33720  0.86000  0.64000  Biso   1.000  O
  O70      1.0000 0.73300  0.89720  0.60280  Biso   1.000  O
  O71      1.0000 0.33720  0.64000  0.86000  Biso   1.000  O
  O72      1.0000 0.73300  0.60280  0.89720  Biso   1.000  O
  O73      1.0000 0.52280  0.64000  0.64000  Biso   1.000  O
  O74      1.0000 0.16420  0.60280  0.60280  Biso   1.000  O
  O75      1.0000 0.30280  0.86000  0.86000  Biso   1.000  O
  O76      1.0000 0.86980  0.89720  0.89720  Biso   1.000  O
  O77      1.0000 0.66280  0.14000  0.36000  Biso   1.000  O
  O78      1.0000 0.26700  0.10280  0.39720  Biso   1.000  O
  O79      1.0000 0.66280  0.36000  0.14000  Biso   1.000  O
  O80      1.0000 0.26700  0.39720  0.10280  Biso   1.000  O
  O81      1.0000 0.43354  0.25000  0.25000  Biso   1.000  O
  O82      1.0000 0.18354  0.75000  0.75000  Biso   1.000  O
  O83      1.0000 0.56646  0.75000  0.75000  Biso   1.000  O
  O84      1.0000 0.81646  0.25000  0.25000  Biso   1.000  O
  O85      1.0000 0.54707  0.21431  0.28569  Biso   1.000  O
  O86      1.0000 0.54707  0.28569  0.21431  Biso   1.000  O
  O87      1.0000 0.33276  0.71431  0.71431  Biso   1.000  O
  O88      1.0000 0.26138  0.78569  0.78569  Biso   1.000  O
  O89      1.0000 0.45293  0.78569  0.71431  Biso   1.000  O
  O90      1.0000 0.45293  0.71431  0.78569  Biso   1.000  O
  O91      1.0000 0.73862  0.21431  0.21431  Biso   1.000  O
  O92      1.0000 0.66724  0.28569  0.28569  Biso   1.000  O
