data_ZELROZ_clean5b
_audit_creation_date              2014-07-02
_audit_creation_method            'Materials Studio'
_symmetry_space_group_name_H-M    'P1'
_symmetry_Int_Tables_number       1
_symmetry_cell_setting            triclinic
loop_
_symmetry_equiv_pos_as_xyz
  x,y,z
_cell_length_a                    17.1227
_cell_length_b                    17.1227
_cell_length_c                    17.1227
_cell_angle_alpha                 90.0000
_cell_angle_beta                  90.0000
_cell_angle_gamma                 90.0000
loop_
_atom_site_label
_atom_site_type_symbol
_atom_site_fract_x
_atom_site_fract_y
_atom_site_fract_z
_atom_site_U_iso_or_equiv
_atom_site_adp_type
_atom_site_occupancy
Zn1    Zn    0.56533   0.43467   0.43467   0.01267  Uiso   1.00
Zn2    Zn    0.43467   0.56533   0.43467   0.01267  Uiso   1.00
Zn3    Zn    0.43467   0.43467   0.56533   0.01267  Uiso   1.00
Zn4    Zn    0.56533   0.56533   0.56533   0.01267  Uiso   1.00
H5     H     0.79621   0.58474   0.58474   0.01267  Uiso   1.00
H6     H     0.92277   0.62871   0.62871   0.01267  Uiso   1.00
H7     H     0.20379   0.41526   0.58474   0.01267  Uiso   1.00
H8     H     0.02813   0.44024   0.64619   0.01267  Uiso   1.00
H9     H     0.20379   0.58474   0.41526   0.01267  Uiso   1.00
H10    H     0.79621   0.41526   0.41526   0.01267  Uiso   1.00
H11    H     0.58474   0.79621   0.58474   0.01267  Uiso   1.00
H12    H     0.55268   0.99642   0.62753   0.01267  Uiso   1.00
H13    H     0.58474   0.20379   0.41526   0.01267  Uiso   1.00
H14    H     0.41526   0.20379   0.58474   0.01267  Uiso   1.00
H15    H     0.39494   0.07132   0.64617   0.01267  Uiso   1.00
H16    H     0.41526   0.79621   0.41526   0.01267  Uiso   1.00
H17    H     0.58474   0.58474   0.79621   0.01267  Uiso   1.00
H18    H     0.41526   0.58474   0.20379   0.01267  Uiso   1.00
H19    H     0.39494   0.64617   0.07132   0.01267  Uiso   1.00
H20    H     0.58474   0.41526   0.20379   0.01267  Uiso   1.00
H21    H     0.41526   0.41526   0.79621   0.01267  Uiso   1.00
H22    H     0.39911   0.44022   1.01506   0.01267  Uiso   1.00
C23    C     0.83030   0.54430   0.54430   0.01267  Uiso   1.00
C24    C     0.91120   0.54510   0.54510   0.01267  Uiso   1.00
C25    C     0.16970   0.45570   0.54430   0.01267  Uiso   1.00
C26    C     0.08880   0.45490   0.54510   0.01267  Uiso   1.00
C27    C     0.16970   0.54430   0.45570   0.01267  Uiso   1.00
C28    C     0.08880   0.54510   0.45490   0.01267  Uiso   1.00
C29    C     0.83030   0.45570   0.45570   0.01267  Uiso   1.00
C30    C     0.91120   0.45490   0.45490   0.01267  Uiso   1.00
C31    C     0.54430   0.83030   0.54430   0.01267  Uiso   1.00
C32    C     0.54510   0.91120   0.54510   0.01267  Uiso   1.00
C33    C     0.54430   0.16970   0.45570   0.01267  Uiso   1.00
C34    C     0.54510   0.08880   0.45490   0.01267  Uiso   1.00
C35    C     0.45570   0.16970   0.54430   0.01267  Uiso   1.00
C36    C     0.45490   0.08880   0.54510   0.01267  Uiso   1.00
C37    C     0.45570   0.83030   0.45570   0.01267  Uiso   1.00
C38    C     0.45490   0.91120   0.45490   0.01267  Uiso   1.00
C39    C     0.54430   0.54430   0.83030   0.01267  Uiso   1.00
C40    C     0.54510   0.54510   0.91120   0.01267  Uiso   1.00
C41    C     0.45570   0.54430   0.16970   0.01267  Uiso   1.00
C42    C     0.45490   0.54510   0.08880   0.01267  Uiso   1.00
C43    C     0.54430   0.45570   0.16970   0.01267  Uiso   1.00
C44    C     0.54510   0.45490   0.08880   0.01267  Uiso   1.00
C45    C     0.45570   0.45570   0.83030   0.01267  Uiso   1.00
C46    C     0.45490   0.45490   0.91120   0.01267  Uiso   1.00
C47    C     0.71150   0.50000   0.50000   0.01267  Uiso   1.00
C48    C     0.78970   0.50000   0.50000   0.01267  Uiso   1.00
C49    C     0.95870   0.50000   0.50000   0.01267  Uiso   1.00
C50    C     0.28850   0.50000   0.50000   0.01267  Uiso   1.00
C51    C     0.21030   0.50000   0.50000   0.01267  Uiso   1.00
C52    C     0.04130   0.50000   0.50000   0.01267  Uiso   1.00
C53    C     0.50000   0.71150   0.50000   0.01267  Uiso   1.00
C54    C     0.50000   0.78970   0.50000   0.01267  Uiso   1.00
C55    C     0.50000   0.95870   0.50000   0.01267  Uiso   1.00
C56    C     0.50000   0.28850   0.50000   0.01267  Uiso   1.00
C57    C     0.50000   0.21030   0.50000   0.01267  Uiso   1.00
C58    C     0.50000   0.04130   0.50000   0.01267  Uiso   1.00
C59    C     0.50000   0.50000   0.71150   0.01267  Uiso   1.00
C60    C     0.50000   0.50000   0.78970   0.01267  Uiso   1.00
C61    C     0.50000   0.50000   0.95870   0.01267  Uiso   1.00
C62    C     0.50000   0.50000   0.28850   0.01267  Uiso   1.00
C63    C     0.50000   0.50000   0.21030   0.01267  Uiso   1.00
C64    C     0.50000   0.50000   0.04130   0.01267  Uiso   1.00
O65    O     0.50000   0.50000   0.50000   0.01267  Uiso   1.00
O66    O     0.67520   0.45380   0.45380   0.01267  Uiso   1.00
O67    O     0.95900   0.59070   0.59070   0.01267  Uiso   1.00
O68    O     0.32480   0.54620   0.45380   0.01267  Uiso   1.00
O69    O     0.04100   0.40930   0.59070   0.01267  Uiso   1.00
O70    O     0.32480   0.45380   0.54620   0.01267  Uiso   1.00
O71    O     0.67520   0.54620   0.54620   0.01267  Uiso   1.00
O72    O     0.45380   0.67520   0.45380   0.01267  Uiso   1.00
O73    O     0.59070   0.95900   0.59070   0.01267  Uiso   1.00
O74    O     0.45380   0.32480   0.54620   0.01267  Uiso   1.00
O75    O     0.54620   0.32480   0.45380   0.01267  Uiso   1.00
O76    O     0.40930   0.04100   0.59070   0.01267  Uiso   1.00
O77    O     0.54620   0.67520   0.54620   0.01267  Uiso   1.00
O78    O     0.45380   0.45380   0.67520   0.01267  Uiso   1.00
O79    O     0.54620   0.45380   0.32480   0.01267  Uiso   1.00
O80    O     0.40930   0.59070   0.04100   0.01267  Uiso   1.00
O81    O     0.45380   0.54620   0.32480   0.01267  Uiso   1.00
O82    O     0.54620   0.54620   0.67520   0.01267  Uiso   1.00
O83    O     0.40930   0.40930   0.95900   0.01267  Uiso   1.00
H84    H     0.05632   0.58620   0.41380   0.00000  Uiso   1.00
H85    H     0.94368   0.41380   0.41380   0.00000  Uiso   1.00
H86    H     0.58620   0.05632   0.41380   0.00000  Uiso   1.00
H87    H     0.41380   0.94368   0.41380   0.00000  Uiso   1.00
H88    H     0.58620   0.58620   0.94368   0.00000  Uiso   1.00
H89    H     0.58620   0.41380   0.05632   0.00000  Uiso   1.00
loop_
_geom_bond_atom_site_label_1
_geom_bond_atom_site_label_2
_geom_bond_distance
_geom_bond_site_symmetry_2
_ccdc_geom_bond_type
Zn1    O65     1.938   .     S
Zn1    O66     1.937   .     S
Zn1    O75     1.937   .     S
Zn1    O79     1.937   .     S
Zn2    O65     1.938   .     S
Zn2    O68     1.937   .     S
Zn2    O72     1.937   .     S
Zn2    O81     1.937   .     S
Zn3    O65     1.938   .     S
Zn3    O70     1.937   .     S
Zn3    O74     1.937   .     S
Zn3    O78     1.937   .     S
Zn4    O65     1.938   .     S
Zn4    O71     1.937   .     S
Zn4    O77     1.937   .     S
Zn4    O82     1.937   .     S
H5     C23     1.140   .     S
H6     O67     1.110   .     S
H7     C25     1.140   .     S
H8     O69     1.110   .     S
H9     C27     1.140   .     S
H10    C29     1.140   .     S
H11    C31     1.140   .     S
H12    O73     1.110   .     S
H13    C33     1.140   .     S
H14    C35     1.140   .     S
H15    O76     1.110   .     S
H16    C37     1.140   .     S
H17    C39     1.140   .     S
H18    C41     1.140   .     S
H19    O80     1.110   .     S
H20    C43     1.140   .     S
H21    C45     1.140   .     S
H22    O83     1.110   .     S
C23    C24     1.385   .     A
C23    C48     1.278   .     A
C24    C49     1.362   .     A
C24    O67     1.374   .     S
C25    C26     1.385   .     A
C25    C51     1.278   .     A
C26    C52     1.362   .     A
C26    O69     1.374   .     S
C27    C28     1.385   .     A
C27    C51     1.278   .     A
C28    C52     1.362   .     A
C28    H84     1.140   .     S
C29    C30     1.385   .     A
C29    C48     1.278   .     A
C30    C49     1.362   .     A
C30    H85     1.140   .     S
C31    C32     1.385   .     A
C31    C54     1.278   .     A
C32    C55     1.362   .     A
C32    O73     1.374   .     S
C33    C34     1.385   .     A
C33    C57     1.278   .     A
C34    C58     1.362   .     A
C34    H86     1.140   .     S
C35    C36     1.385   .     A
C35    C57     1.278   .     A
C36    C58     1.362   .     A
C36    O76     1.374   .     S
C37    C38     1.385   .     A
C37    C54     1.278   .     A
C38    C55     1.362   .     A
C38    H87     1.140   .     S
C39    C40     1.385   .     A
C39    C60     1.278   .     A
C40    C61     1.362   .     A
C40    H88     1.140   .     S
C41    C42     1.385   .     A
C41    C63     1.278   .     A
C42    C64     1.362   .     A
C42    O80     1.374   .     S
C43    C44     1.385   .     A
C43    C63     1.278   .     A
C44    C64     1.362   .     A
C44    H89     1.140   .     S
C45    C46     1.385   .     A
C45    C60     1.278   .     A
C46    C61     1.362   .     A
C46    O83     1.374   .     S
C47    C48     1.339   .     S
C47    O66     1.280   .     A
C47    O71     1.280   .     A
C49    C52     1.414   1_655 S
C50    C51     1.339   .     S
C50    O68     1.280   .     A
C50    O70     1.280   .     A
C52    C49     1.414   1_455 S
C53    C54     1.339   .     S
C53    O72     1.280   .     A
C53    O77     1.280   .     A
C55    C58     1.414   1_565 S
C56    C57     1.339   .     S
C56    O74     1.280   .     A
C56    O75     1.280   .     A
C58    C55     1.414   1_545 S
C59    C60     1.339   .     S
C59    O78     1.280   .     A
C59    O82     1.280   .     A
C61    C64     1.414   1_556 S
C62    C63     1.339   .     S
C62    O79     1.280   .     A
C62    O81     1.280   .     A
C64    C61     1.414   1_554 S
