data_image0
_cell_length_a       12.788
_cell_length_b       13.67
_cell_length_c       14.211
_cell_angle_alpha    66.169
_cell_angle_beta     66.947
_cell_angle_gamma    77.019

_symmetry_space_group_name_H-M    P 1
_symmetry_int_tables_number       1

loop_
  _symmetry_equiv_pos_as_xyz
  'x, y, z'

loop_
  _atom_site_label
  _atom_site_occupancy
  _atom_site_fract_x
  _atom_site_fract_y
  _atom_site_fract_z
  _atom_site_thermal_displace_type
  _atom_site_B_iso_or_equiv
  _atom_site_type_symbol
  Tb1      1.0000 0.57149  0.11865  0.98857  Biso   1.000  Tb
  Tb2      1.0000 0.56828  0.17978  0.33516  Biso   1.000  Tb
  Tb3      1.0000 0.42851  0.88135  0.01143  Biso   1.000  Tb
  Tb4      1.0000 0.43172  0.82022  0.66484  Biso   1.000  Tb
  H1       1.0000 0.65300  0.32540  0.89340  Biso   1.000  H
  H2       1.0000 0.58920  0.25650  0.85980  Biso   1.000  H
  H3       1.0000 0.51440  0.01110  0.27650  Biso   1.000  H
  H4       1.0000 0.46990  0.99130  0.39240  Biso   1.000  H
  H5       1.0000 0.55400  0.30570  0.47720  Biso   1.000  H
  H6       1.0000 0.47960  0.22120  0.47300  Biso   1.000  H
  H7       1.0000 0.32720  0.32740  0.00310  Biso   1.000  H
  H8       1.0000 0.22290  0.63250  0.97220  Biso   1.000  H
  H9       1.0000 0.40550  0.47130  0.15860  Biso   1.000  H
  H10      1.0000 0.11780  0.35460  0.01310  Biso   1.000  H
  H11      1.0000 0.00710  0.35630  0.91930  Biso   1.000  H
  H12      1.0000 0.01590  0.48980  0.75440  Biso   1.000  H
  H13      1.0000 0.13800  0.62320  0.68280  Biso   1.000  H
  H14      1.0000 0.67210  0.91950  0.74470  Biso   1.000  H
  H15      1.0000 0.77720  0.81540  0.64070  Biso   1.000  H
  H16      1.0000 0.95270  0.73660  0.65110  Biso   1.000  H
  H17      1.0000 0.02490  0.76430  0.76280  Biso   1.000  H
  H18      1.0000 0.80510  0.86800  0.02400  Biso   1.000  H
  H19      1.0000 0.07440  0.87110  0.08420  Biso   1.000  H
  H20      1.0000 0.10830  0.87010  0.79280  Biso   1.000  H
  H21      1.0000 0.14680  0.98810  0.55760  Biso   1.000  H
  H22      1.0000 0.95450  0.04400  0.61040  Biso   1.000  H
  H23      1.0000 0.89220  0.18060  0.68000  Biso   1.000  H
  H24      1.0000 0.01930  0.26160  0.69720  Biso   1.000  H
  H25      1.0000 0.20490  0.38030  0.57740  Biso   1.000  H
  H26      1.0000 0.41680  0.34350  0.72710  Biso   1.000  H
  H27      1.0000 0.29920  0.08420  0.75010  Biso   1.000  H
  H28      1.0000 0.34700  0.67460  0.10660  Biso   1.000  H
  H29      1.0000 0.41080  0.74350  0.14020  Biso   1.000  H
  H30      1.0000 0.48560  0.98890  0.72350  Biso   1.000  H
  H31      1.0000 0.53010  0.00870  0.60760  Biso   1.000  H
  H32      1.0000 0.44600  0.69430  0.52280  Biso   1.000  H
  H33      1.0000 0.52040  0.77880  0.52700  Biso   1.000  H
  H34      1.0000 0.67280  0.67260  0.99690  Biso   1.000  H
  H35      1.0000 0.77710  0.36750  0.02780  Biso   1.000  H
  H36      1.0000 0.59450  0.52870  0.84140  Biso   1.000  H
  H37      1.0000 0.88220  0.64540  0.98690  Biso   1.000  H
  H38      1.0000 0.99290  0.64370  0.08070  Biso   1.000  H
  H39      1.0000 0.98410  0.51020  0.24560  Biso   1.000  H
  H40      1.0000 0.86200  0.37680  0.31720  Biso   1.000  H
  H41      1.0000 0.32790  0.08050  0.25530  Biso   1.000  H
  H42      1.0000 0.22280  0.18460  0.35930  Biso   1.000  H
  H43      1.0000 0.04730  0.26340  0.34890  Biso   1.000  H
  H44      1.0000 0.97510  0.23570  0.23720  Biso   1.000  H
  H45      1.0000 0.19490  0.13200  0.97600  Biso   1.000  H
  H46      1.0000 0.92560  0.12890  0.91580  Biso   1.000  H
  H47      1.0000 0.89170  0.12990  0.20720  Biso   1.000  H
  H48      1.0000 0.85320  0.01190  0.44240  Biso   1.000  H
  H49      1.0000 0.04550  0.95600  0.38960  Biso   1.000  H
  H50      1.0000 0.10780  0.81940  0.32000  Biso   1.000  H
  H51      1.0000 0.98070  0.73840  0.30280  Biso   1.000  H
  H52      1.0000 0.79510  0.61970  0.42260  Biso   1.000  H
  H53      1.0000 0.58320  0.65650  0.27290  Biso   1.000  H
  H54      1.0000 0.70080  0.91580  0.24990  Biso   1.000  H
  C1       1.0000 0.43910  0.28250  0.14250  Biso   1.000  C
  C2       1.0000 0.37440  0.38320  0.09110  Biso   1.000  C
  C3       1.0000 0.32240  0.38740  0.02050  Biso   1.000  C
  C4       1.0000 0.26260  0.48260  0.97550  Biso   1.000  C
  C5       1.0000 0.26210  0.56860  0.00220  Biso   1.000  C
  C6       1.0000 0.36920  0.47430  0.11210  Biso   1.000  C
  C7       1.0000 0.19760  0.48780  0.90540  Biso   1.000  C
  C8       1.0000 0.12280  0.40910  0.94620  Biso   1.000  C
  C9       1.0000 0.05620  0.41010  0.89020  Biso   1.000  C
  C10      1.0000 0.06140  0.48930  0.79210  Biso   1.000  C
  C11      1.0000 0.13480  0.56870  0.74930  Biso   1.000  C
  C12      1.0000 0.20410  0.56820  0.80460  Biso   1.000  C
  C13      1.0000 0.28510  0.65490  0.75050  Biso   1.000  C
  C14      1.0000 0.71040  0.97690  0.87730  Biso   1.000  C
  C15      1.0000 0.78460  0.90410  0.81770  Biso   1.000  C
  C16      1.0000 0.74330  0.88790  0.74880  Biso   1.000  C
  C17      1.0000 0.80600  0.82570  0.68650  Biso   1.000  C
  C18      1.0000 0.91030  0.77940  0.69240  Biso   1.000  C
  C19      1.0000 0.95330  0.79610  0.75990  Biso   1.000  C
  C20      1.0000 0.89310  0.85870  0.82320  Biso   1.000  C
  C21      1.0000 0.94530  0.86870  0.89600  Biso   1.000  C
  C22      1.0000 0.88380  0.86890  0.00060  Biso   1.000  C
  C23      1.0000 0.04160  0.86990  0.03680  Biso   1.000  C
  C24      1.0000 0.11300  0.86780  0.93470  Biso   1.000  C
  C25      1.0000 0.06300  0.86910  0.86270  Biso   1.000  C
  C26      1.0000 0.23930  0.86270  0.90310  Biso   1.000  C
  C27      1.0000 0.32380  0.06620  0.53750  Biso   1.000  C
  C28      1.0000 0.19970  0.09560  0.58980  Biso   1.000  C
  C29      1.0000 0.12170  0.04450  0.58380  Biso   1.000  C
  C30      1.0000 0.00650  0.07710  0.61650  Biso   1.000  C
  C31      1.0000 0.96940  0.15850  0.65810  Biso   1.000  C
  C32      1.0000 0.04570  0.20760  0.66750  Biso   1.000  C
  C33      1.0000 0.16230  0.17750  0.63320  Biso   1.000  C
  C34      1.0000 0.23940  0.22460  0.65680  Biso   1.000  C
  C35      1.0000 0.24740  0.33460  0.62100  Biso   1.000  C
  C36      1.0000 0.37200  0.31360  0.70910  Biso   1.000  C
  C37      1.0000 0.36970  0.20280  0.74960  Biso   1.000  C
  C38      1.0000 0.30230  0.15820  0.72340  Biso   1.000  C
  C39      1.0000 0.43730  0.13230  0.82100  Biso   1.000  C
  C40      1.0000 0.56090  0.71750  0.85750  Biso   1.000  C
  C41      1.0000 0.62560  0.61680  0.90890  Biso   1.000  C
  C42      1.0000 0.67760  0.61260  0.97950  Biso   1.000  C
  C43      1.0000 0.73740  0.51740  0.02450  Biso   1.000  C
  C44      1.0000 0.73790  0.43140  0.99780  Biso   1.000  C
  C45      1.0000 0.63080  0.52570  0.88790  Biso   1.000  C
  C46      1.0000 0.80240  0.51220  0.09460  Biso   1.000  C
  C47      1.0000 0.87720  0.59090  0.05380  Biso   1.000  C
  C48      1.0000 0.94380  0.58990  0.10980  Biso   1.000  C
  C49      1.0000 0.93860  0.51070  0.20790  Biso   1.000  C
  C50      1.0000 0.86520  0.43130  0.25070  Biso   1.000  C
  C51      1.0000 0.79590  0.43180  0.19540  Biso   1.000  C
  C52      1.0000 0.71490  0.34510  0.24950  Biso   1.000  C
  C53      1.0000 0.28960  0.02310  0.12270  Biso   1.000  C
  C54      1.0000 0.21540  0.09590  0.18230  Biso   1.000  C
  C55      1.0000 0.25670  0.11210  0.25120  Biso   1.000  C
  C56      1.0000 0.19400  0.17430  0.31350  Biso   1.000  C
  C57      1.0000 0.08970  0.22060  0.30760  Biso   1.000  C
  C58      1.0000 0.04670  0.20390  0.24010  Biso   1.000  C
  C59      1.0000 0.10690  0.14130  0.17680  Biso   1.000  C
  C60      1.0000 0.05470  0.13130  0.10400  Biso   1.000  C
  C61      1.0000 0.11620  0.13110  0.99940  Biso   1.000  C
  C62      1.0000 0.95840  0.13010  0.96320  Biso   1.000  C
  C63      1.0000 0.88700  0.13220  0.06530  Biso   1.000  C
  C64      1.0000 0.93700  0.13090  0.13730  Biso   1.000  C
  C65      1.0000 0.76070  0.13730  0.09690  Biso   1.000  C
  C66      1.0000 0.67620  0.93380  0.46250  Biso   1.000  C
  C67      1.0000 0.80030  0.90440  0.41020  Biso   1.000  C
  C68      1.0000 0.87830  0.95550  0.41620  Biso   1.000  C
  C69      1.0000 0.99350  0.92290  0.38350  Biso   1.000  C
  C70      1.0000 0.03060  0.84150  0.34190  Biso   1.000  C
  C71      1.0000 0.95430  0.79240  0.33250  Biso   1.000  C
  C72      1.0000 0.83770  0.82250  0.36680  Biso   1.000  C
  C73      1.0000 0.76060  0.77540  0.34320  Biso   1.000  C
  C74      1.0000 0.75260  0.66540  0.37900  Biso   1.000  C
  C75      1.0000 0.62800  0.68640  0.29090  Biso   1.000  C
  C76      1.0000 0.63030  0.79720  0.25040  Biso   1.000  C
  C77      1.0000 0.69770  0.84180  0.27660  Biso   1.000  C
  C78      1.0000 0.56270  0.86770  0.17900  Biso   1.000  C
  N1       1.0000 0.31410  0.56720  0.06850  Biso   1.000  N
  N2       1.0000 0.92840  0.87030  0.07070  Biso   1.000  N
  N3       1.0000 0.31240  0.37870  0.64540  Biso   1.000  N
  N4       1.0000 0.68590  0.43280  0.93150  Biso   1.000  N
  N5       1.0000 0.07160  0.12970  0.92930  Biso   1.000  N
  N6       1.0000 0.68760  0.62130  0.35460  Biso   1.000  N
  O1       1.0000 0.47410  0.21520  0.09670  Biso   1.000  O
  O2       1.0000 0.45140  0.27260  0.22950  Biso   1.000  O
  O3       1.0000 0.25820  0.74590  0.68860  Biso   1.000  O
  O4       1.0000 0.37850  0.63670  0.76550  Biso   1.000  O
  O5       1.0000 0.74330  0.06100  0.86500  Biso   1.000  O
  O6       1.0000 0.60980  0.95270  0.93930  Biso   1.000  O
  O7       1.0000 0.27770  0.85990  0.97230  Biso   1.000  O
  O8       1.0000 0.29940  0.85960  0.81030  Biso   1.000  O
  O9       1.0000 0.38730  0.14080  0.47800  Biso   1.000  O
  O10      1.0000 0.35550  0.96840  0.55080  Biso   1.000  O
  O11      1.0000 0.43240  0.03220  0.85110  Biso   1.000  O
  O12      1.0000 0.49350  0.17540  0.84720  Biso   1.000  O
  O13      1.0000 0.63160  0.29200  0.86550  Biso   1.000  O
  O14      1.0000 0.50160  0.03200  0.32900  Biso   1.000  O
  O15      1.0000 0.52450  0.26020  0.47060  Biso   1.000  O
  O16      1.0000 0.52590  0.78480  0.90330  Biso   1.000  O
  O17      1.0000 0.54860  0.72740  0.77050  Biso   1.000  O
  O18      1.0000 0.74180  0.25410  0.31140  Biso   1.000  O
  O19      1.0000 0.62150  0.36330  0.23450  Biso   1.000  O
  O20      1.0000 0.25670  0.93900  0.13500  Biso   1.000  O
  O21      1.0000 0.39020  0.04730  0.06070  Biso   1.000  O
  O22      1.0000 0.72230  0.14010  0.02770  Biso   1.000  O
  O23      1.0000 0.70060  0.14040  0.18970  Biso   1.000  O
  O24      1.0000 0.61270  0.85920  0.52200  Biso   1.000  O
  O25      1.0000 0.64450  0.03160  0.44920  Biso   1.000  O
  O26      1.0000 0.56760  0.96780  0.14890  Biso   1.000  O
  O27      1.0000 0.50650  0.82460  0.15280  Biso   1.000  O
  O28      1.0000 0.36840  0.70800  0.13450  Biso   1.000  O
  O29      1.0000 0.49840  0.96800  0.67100  Biso   1.000  O
  O30      1.0000 0.47550  0.73980  0.52940  Biso   1.000  O
