data_image0
_cell_length_a       5.5418
_cell_length_b       11.8831
_cell_length_c       22.6515
_cell_angle_alpha    101.607
_cell_angle_beta     90
_cell_angle_gamma    90

_symmetry_space_group_name_H-M    P 1
_symmetry_int_tables_number       1

loop_
  _symmetry_equiv_pos_as_xyz
  'x, y, z'

loop_
  _atom_site_label
  _atom_site_occupancy
  _atom_site_fract_x
  _atom_site_fract_y
  _atom_site_fract_z
  _atom_site_thermal_displace_type
  _atom_site_B_iso_or_equiv
  _atom_site_type_symbol
  Ca1      1.0000 0.76526  0.60227  0.04209  Biso   1.000  Ca
  Ca2      1.0000 0.26526  0.89773  0.45791  Biso   1.000  Ca
  Ca3      1.0000 0.23474  0.39773  0.95791  Biso   1.000  Ca
  Ca4      1.0000 0.73474  0.10227  0.54209  Biso   1.000  Ca
  H1       1.0000 0.21230  0.10750  0.11900  Biso   1.000  H
  H2       1.0000 0.21170  0.97760  0.21410  Biso   1.000  H
  H3       1.0000 0.57300  0.82400  0.16600  Biso   1.000  H
  H4       1.0000 0.12360  0.27980  0.09020  Biso   1.000  H
  H5       1.0000 0.48920  0.82730  0.26720  Biso   1.000  H
  H6       1.0000 0.13100  0.97430  0.31450  Biso   1.000  H
  H7       1.0000 0.56150  0.98340  0.05900  Biso   1.000  H
  H8       1.0000 0.47270  0.15750  0.03180  Biso   1.000  H
  H9       1.0000 0.71230  0.39250  0.38100  Biso   1.000  H
  H10      1.0000 0.71170  0.52240  0.28590  Biso   1.000  H
  H11      1.0000 0.07300  0.67600  0.33400  Biso   1.000  H
  H12      1.0000 0.62360  0.22020  0.40980  Biso   1.000  H
  H13      1.0000 0.98920  0.67270  0.23280  Biso   1.000  H
  H14      1.0000 0.63100  0.52570  0.18550  Biso   1.000  H
  H15      1.0000 0.06150  0.51660  0.44100  Biso   1.000  H
  H16      1.0000 0.97270  0.34250  0.46820  Biso   1.000  H
  H17      1.0000 0.78770  0.89250  0.88100  Biso   1.000  H
  H18      1.0000 0.78830  0.02240  0.78590  Biso   1.000  H
  H19      1.0000 0.42700  0.17600  0.83400  Biso   1.000  H
  H20      1.0000 0.87640  0.72020  0.90980  Biso   1.000  H
  H21      1.0000 0.51080  0.17270  0.73280  Biso   1.000  H
  H22      1.0000 0.86900  0.02570  0.68550  Biso   1.000  H
  H23      1.0000 0.43850  0.01660  0.94100  Biso   1.000  H
  H24      1.0000 0.52730  0.84250  0.96820  Biso   1.000  H
  H25      1.0000 0.28770  0.60750  0.61900  Biso   1.000  H
  H26      1.0000 0.28830  0.47760  0.71410  Biso   1.000  H
  H27      1.0000 0.92700  0.32400  0.66600  Biso   1.000  H
  H28      1.0000 0.37640  0.77980  0.59020  Biso   1.000  H
  H29      1.0000 0.01080  0.32730  0.76720  Biso   1.000  H
  H30      1.0000 0.36900  0.47430  0.81450  Biso   1.000  H
  H31      1.0000 0.93850  0.48340  0.55900  Biso   1.000  H
  H32      1.0000 0.02730  0.65750  0.53180  Biso   1.000  H
  C1       1.0000 0.75420  0.89194  0.36572  Biso   1.000  C
  C2       1.0000 0.73290  0.34409  0.03583  Biso   1.000  C
  C3       1.0000 0.06610  0.11720  0.10049  Biso   1.000  C
  C4       1.0000 0.06900  0.94570  0.22476  Biso   1.000  C
  C5       1.0000 0.68410  0.85410  0.19575  Biso   1.000  C
  C6       1.0000 0.90260  0.89861  0.18105  Biso   1.000  C
  C7       1.0000 0.01190  0.22020  0.08361  Biso   1.000  C
  C8       1.0000 0.63540  0.85566  0.25634  Biso   1.000  C
  C9       1.0000 0.80330  0.89927  0.30059  Biso   1.000  C
  C10      1.0000 0.79160  0.23470  0.05689  Biso   1.000  C
  C11      1.0000 0.01920  0.94460  0.28482  Biso   1.000  C
  C12      1.0000 0.89820  0.02872  0.08934  Biso   1.000  C
  C13      1.0000 0.67450  0.04250  0.06462  Biso   1.000  C
  C14      1.0000 0.62220  0.14670  0.04841  Biso   1.000  C
  C15      1.0000 0.25420  0.60806  0.13428  Biso   1.000  C
  C16      1.0000 0.23290  0.15591  0.46417  Biso   1.000  C
  C17      1.0000 0.56610  0.38280  0.39951  Biso   1.000  C
  C18      1.0000 0.56900  0.55430  0.27524  Biso   1.000  C
  C19      1.0000 0.18410  0.64590  0.30425  Biso   1.000  C
  C20      1.0000 0.40260  0.60139  0.31895  Biso   1.000  C
  C21      1.0000 0.51190  0.27980  0.41639  Biso   1.000  C
  C22      1.0000 0.13540  0.64434  0.24366  Biso   1.000  C
  C23      1.0000 0.30330  0.60073  0.19941  Biso   1.000  C
  C24      1.0000 0.29160  0.26530  0.44311  Biso   1.000  C
  C25      1.0000 0.51920  0.55540  0.21518  Biso   1.000  C
  C26      1.0000 0.39820  0.47128  0.41066  Biso   1.000  C
  C27      1.0000 0.17450  0.45750  0.43538  Biso   1.000  C
  C28      1.0000 0.12220  0.35330  0.45159  Biso   1.000  C
  C29      1.0000 0.24580  0.10806  0.63428  Biso   1.000  C
  C30      1.0000 0.26710  0.65591  0.96417  Biso   1.000  C
  C31      1.0000 0.93390  0.88280  0.89951  Biso   1.000  C
  C32      1.0000 0.93100  0.05430  0.77524  Biso   1.000  C
  C33      1.0000 0.31590  0.14590  0.80425  Biso   1.000  C
  C34      1.0000 0.09740  0.10139  0.81895  Biso   1.000  C
  C35      1.0000 0.98810  0.77980  0.91639  Biso   1.000  C
  C36      1.0000 0.36460  0.14434  0.74366  Biso   1.000  C
  C37      1.0000 0.19670  0.10073  0.69941  Biso   1.000  C
  C38      1.0000 0.20840  0.76530  0.94311  Biso   1.000  C
  C39      1.0000 0.98080  0.05540  0.71518  Biso   1.000  C
  C40      1.0000 0.10180  0.97128  0.91066  Biso   1.000  C
  C41      1.0000 0.32550  0.95750  0.93538  Biso   1.000  C
  C42      1.0000 0.37780  0.85330  0.95159  Biso   1.000  C
  C43      1.0000 0.74580  0.39194  0.86572  Biso   1.000  C
  C44      1.0000 0.76710  0.84409  0.53583  Biso   1.000  C
  C45      1.0000 0.43390  0.61720  0.60049  Biso   1.000  C
  C46      1.0000 0.43100  0.44570  0.72476  Biso   1.000  C
  C47      1.0000 0.81590  0.35410  0.69575  Biso   1.000  C
  C48      1.0000 0.59740  0.39861  0.68105  Biso   1.000  C
  C49      1.0000 0.48810  0.72020  0.58361  Biso   1.000  C
  C50      1.0000 0.86460  0.35566  0.75634  Biso   1.000  C
  C51      1.0000 0.69670  0.39927  0.80059  Biso   1.000  C
  C52      1.0000 0.70840  0.73470  0.55689  Biso   1.000  C
  C53      1.0000 0.48080  0.44460  0.78482  Biso   1.000  C
  C54      1.0000 0.60180  0.52872  0.58934  Biso   1.000  C
  C55      1.0000 0.82550  0.54250  0.56462  Biso   1.000  C
  C56      1.0000 0.87780  0.64670  0.54841  Biso   1.000  C
  S1       1.0000 0.97582  0.89286  0.10471  Biso   1.000  S
  S2       1.0000 0.47582  0.60714  0.39529  Biso   1.000  S
  S3       1.0000 0.02418  0.10714  0.89529  Biso   1.000  S
  S4       1.0000 0.52418  0.39286  0.60471  Biso   1.000  S
  O1       1.0000 0.51660  0.36840  0.02971  Biso   1.000  O
  O2       1.0000 0.23270  0.87936  0.09816  Biso   1.000  O
  O3       1.0000 0.81720  0.81014  0.06786  Biso   1.000  O
  O4       1.0000 0.53860  0.88210  0.38009  Biso   1.000  O
  O5       1.0000 0.90820  0.40727  0.02701  Biso   1.000  O
  O6       1.0000 0.93360  0.89351  0.39909  Biso   1.000  O
  O7       1.0000 0.01660  0.13160  0.47029  Biso   1.000  O
  O8       1.0000 0.73270  0.62064  0.40184  Biso   1.000  O
  O9       1.0000 0.31720  0.68986  0.43214  Biso   1.000  O
  O10      1.0000 0.03860  0.61790  0.11991  Biso   1.000  O
  O11      1.0000 0.40820  0.09273  0.47299  Biso   1.000  O
  O12      1.0000 0.43360  0.60649  0.10091  Biso   1.000  O
  O13      1.0000 0.48340  0.63160  0.97029  Biso   1.000  O
  O14      1.0000 0.76730  0.12064  0.90184  Biso   1.000  O
  O15      1.0000 0.18280  0.18986  0.93214  Biso   1.000  O
  O16      1.0000 0.46140  0.11790  0.61991  Biso   1.000  O
  O17      1.0000 0.09180  0.59273  0.97299  Biso   1.000  O
  O18      1.0000 0.06640  0.10649  0.60091  Biso   1.000  O
  O19      1.0000 0.98340  0.86840  0.52971  Biso   1.000  O
  O20      1.0000 0.26730  0.37936  0.59816  Biso   1.000  O
  O21      1.0000 0.68280  0.31014  0.56786  Biso   1.000  O
  O22      1.0000 0.96140  0.38210  0.88009  Biso   1.000  O
  O23      1.0000 0.59180  0.90727  0.52701  Biso   1.000  O
  O24      1.0000 0.56640  0.39351  0.89909  Biso   1.000  O
