data_image0
_cell_length_a       12.0188
_cell_length_b       19.3548
_cell_length_c       19.3548
_cell_angle_alpha    84.468
_cell_angle_beta     71.9115
_cell_angle_gamma    71.9114

_symmetry_space_group_name_H-M    P 1
_symmetry_int_tables_number       1

loop_
  _symmetry_equiv_pos_as_xyz
  'x, y, z'

loop_
  _atom_site_label
  _atom_site_occupancy
  _atom_site_fract_x
  _atom_site_fract_y
  _atom_site_fract_z
  _atom_site_thermal_displace_type
  _atom_site_B_iso_or_equiv
  _atom_site_type_symbol
  Eu1      1.0000 0.48352  0.20141  0.63721  Biso   1.000  Eu
  Eu2      1.0000 0.43034  0.02113  0.60551  Biso   1.000  Eu
  Eu3      1.0000 0.82214  0.29859  0.86279  Biso   1.000  Eu
  Eu4      1.0000 0.55698  0.47887  0.89449  Biso   1.000  Eu
  Eu5      1.0000 0.12073  0.36279  0.70141  Biso   1.000  Eu
  Eu6      1.0000 0.03585  0.39449  0.52113  Biso   1.000  Eu
  Eu7      1.0000 0.68493  0.13721  0.79859  Biso   1.000  Eu
  Eu8      1.0000 0.45147  0.10551  0.97887  Biso   1.000  Eu
  Eu9      1.0000 0.51648  0.79859  0.36279  Biso   1.000  Eu
  Eu10     1.0000 0.56966  0.97887  0.39449  Biso   1.000  Eu
  Eu11     1.0000 0.17786  0.70141  0.13721  Biso   1.000  Eu
  Eu12     1.0000 0.44302  0.52113  0.10551  Biso   1.000  Eu
  Eu13     1.0000 0.87927  0.63721  0.29859  Biso   1.000  Eu
  Eu14     1.0000 0.96415  0.60551  0.47887  Biso   1.000  Eu
  Eu15     1.0000 0.31507  0.86279  0.20141  Biso   1.000  Eu
  Eu16     1.0000 0.54853  0.89449  0.02113  Biso   1.000  Eu
  H1       1.0000 0.65270  0.20900  0.44040  Biso   1.000  H
  H2       1.0000 0.76810  0.14220  0.43840  Biso   1.000  H
  H3       1.0000 0.80190  0.09150  0.55070  Biso   1.000  H
  H4       1.0000 0.86470  0.15370  0.53570  Biso   1.000  H
  H5       1.0000 0.54310  0.94280  0.77580  Biso   1.000  H
  H6       1.0000 0.67550  0.91440  0.72280  Biso   1.000  H
  H7       1.0000 0.46430  0.83950  0.68370  Biso   1.000  H
  H8       1.0000 0.48430  0.85170  0.75750  Biso   1.000  H
  H9       1.0000 0.05460  0.15090  0.66930  Biso   1.000  H
  H10      1.0000 0.11760  0.10100  0.72380  Biso   1.000  H
  H11      1.0000 0.09930  0.07290  0.55190  Biso   1.000  H
  H12      1.0000 0.14440  0.14120  0.54900  Biso   1.000  H
  H13      1.0000 0.69820  0.23450  0.53010  Biso   1.000  H
  H14      1.0000 0.60980  0.88720  0.64480  Biso   1.000  H
  H15      1.0000 0.16810  0.02790  0.63650  Biso   1.000  H
  H16      1.0000 0.80210  0.29100  0.05960  Biso   1.000  H
  H17      1.0000 0.84870  0.35780  0.06160  Biso   1.000  H
  H18      1.0000 0.94410  0.40850  0.94930  Biso   1.000  H
  H19      1.0000 0.05410  0.34630  0.96430  Biso   1.000  H
  H20      1.0000 0.76170  0.55720  0.72420  Biso   1.000  H
  H21      1.0000 0.81270  0.58560  0.77720  Biso   1.000  H
  H22      1.0000 0.48750  0.66050  0.81630  Biso   1.000  H
  H23      1.0000 0.59350  0.64830  0.74250  Biso   1.000  H
  H24      1.0000 0.37480  0.34910  0.83070  Biso   1.000  H
  H25      1.0000 0.44240  0.39900  0.77620  Biso   1.000  H
  H26      1.0000 0.22410  0.42710  0.94810  Biso   1.000  H
  H27      1.0000 0.33460  0.35880  0.95100  Biso   1.000  H
  H28      1.0000 0.96280  0.26550  0.96990  Biso   1.000  H
  H29      1.0000 0.64180  0.61280  0.85520  Biso   1.000  H
  H30      1.0000 0.33250  0.47210  0.86350  Biso   1.000  H
  H31      1.0000 0.09310  0.55960  0.70900  Biso   1.000  H
  H32      1.0000 0.20650  0.56160  0.64220  Biso   1.000  H
  H33      1.0000 0.35260  0.44930  0.59150  Biso   1.000  H
  H34      1.0000 0.40040  0.46430  0.65370  Biso   1.000  H
  H35      1.0000 0.31890  0.22420  0.44280  Biso   1.000  H
  H36      1.0000 0.39830  0.27720  0.41440  Biso   1.000  H
  H37      1.0000 0.14800  0.31630  0.33950  Biso   1.000  H
  H38      1.0000 0.24180  0.24250  0.35170  Biso   1.000  H
  H39      1.0000 0.72390  0.33070  0.65090  Biso   1.000  H
  H40      1.0000 0.84140  0.27620  0.60100  Biso   1.000  H
  H41      1.0000 0.65120  0.44810  0.57290  Biso   1.000  H
  H42      1.0000 0.69340  0.45100  0.64120  Biso   1.000  H
  H43      1.0000 0.22830  0.46990  0.73450  Biso   1.000  H
  H44      1.0000 0.25460  0.35520  0.38720  Biso   1.000  H
  H45      1.0000 0.80460  0.36350  0.52790  Biso   1.000  H
  H46      1.0000 0.86170  0.94040  0.79100  Biso   1.000  H
  H47      1.0000 0.91030  0.93840  0.85780  Biso   1.000  H
  H48      1.0000 0.89340  0.05070  0.90850  Biso   1.000  H
  H49      1.0000 0.01840  0.03570  0.84630  Biso   1.000  H
  H50      1.0000 0.48590  0.27580  0.05720  Biso   1.000  H
  H51      1.0000 0.58990  0.22280  0.08560  Biso   1.000  H
  H52      1.0000 0.30380  0.18370  0.16050  Biso   1.000  H
  H53      1.0000 0.33600  0.25750  0.14830  Biso   1.000  H
  H54      1.0000 0.20550  0.16930  0.84910  Biso   1.000  H
  H55      1.0000 0.21860  0.22380  0.89900  Biso   1.000  H
  H56      1.0000 0.17220  0.05190  0.92710  Biso   1.000  H
  H57      1.0000 0.28560  0.04900  0.85880  Biso   1.000  H
  H58      1.0000 0.93270  0.03010  0.76550  Biso   1.000  H
  H59      1.0000 0.49700  0.14480  0.11280  Biso   1.000  H
  H60      1.0000 0.19600  0.13650  0.97210  Biso   1.000  H
  H61      1.0000 0.34730  0.79100  0.55960  Biso   1.000  H
  H62      1.0000 0.23190  0.85780  0.56160  Biso   1.000  H
  H63      1.0000 0.19810  0.90850  0.44930  Biso   1.000  H
  H64      1.0000 0.13530  0.84630  0.46430  Biso   1.000  H
  H65      1.0000 0.45690  0.05720  0.22420  Biso   1.000  H
  H66      1.0000 0.32450  0.08560  0.27720  Biso   1.000  H
  H67      1.0000 0.53570  0.16050  0.31630  Biso   1.000  H
  H68      1.0000 0.51570  0.14830  0.24250  Biso   1.000  H
  H69      1.0000 0.94540  0.84910  0.33070  Biso   1.000  H
  H70      1.0000 0.88240  0.89900  0.27620  Biso   1.000  H
  H71      1.0000 0.90070  0.92710  0.44810  Biso   1.000  H
  H72      1.0000 0.85560  0.85880  0.45100  Biso   1.000  H
  H73      1.0000 0.30180  0.76550  0.46990  Biso   1.000  H
  H74      1.0000 0.39020  0.11280  0.35520  Biso   1.000  H
  H75      1.0000 0.83190  0.97210  0.36350  Biso   1.000  H
  H76      1.0000 0.19790  0.70900  0.94040  Biso   1.000  H
  H77      1.0000 0.15130  0.64220  0.93840  Biso   1.000  H
  H78      1.0000 0.05590  0.59150  0.05070  Biso   1.000  H
  H79      1.0000 0.94590  0.65370  0.03570  Biso   1.000  H
  H80      1.0000 0.23830  0.44280  0.27580  Biso   1.000  H
  H81      1.0000 0.18730  0.41440  0.22280  Biso   1.000  H
  H82      1.0000 0.51250  0.33950  0.18370  Biso   1.000  H
  H83      1.0000 0.40650  0.35170  0.25750  Biso   1.000  H
  H84      1.0000 0.62520  0.65090  0.16930  Biso   1.000  H
  H85      1.0000 0.55760  0.60100  0.22380  Biso   1.000  H
  H86      1.0000 0.77590  0.57290  0.05190  Biso   1.000  H
  H87      1.0000 0.66540  0.64120  0.04900  Biso   1.000  H
  H88      1.0000 0.03720  0.73450  0.03010  Biso   1.000  H
  H89      1.0000 0.35820  0.38720  0.14480  Biso   1.000  H
  H90      1.0000 0.66750  0.52790  0.13650  Biso   1.000  H
  H91      1.0000 0.90690  0.44040  0.29100  Biso   1.000  H
  H92      1.0000 0.79350  0.43840  0.35780  Biso   1.000  H
  H93      1.0000 0.64740  0.55070  0.40850  Biso   1.000  H
  H94      1.0000 0.59960  0.53570  0.34630  Biso   1.000  H
  H95      1.0000 0.68110  0.77580  0.55720  Biso   1.000  H
  H96      1.0000 0.60170  0.72280  0.58560  Biso   1.000  H
  H97      1.0000 0.85200  0.68370  0.66050  Biso   1.000  H
  H98      1.0000 0.75820  0.75750  0.64830  Biso   1.000  H
  H99      1.0000 0.27610  0.66930  0.34910  Biso   1.000  H
  H100     1.0000 0.15860  0.72380  0.39900  Biso   1.000  H
  H101     1.0000 0.34880  0.55190  0.42710  Biso   1.000  H
  H102     1.0000 0.30660  0.54900  0.35880  Biso   1.000  H
  H103     1.0000 0.77170  0.53010  0.26550  Biso   1.000  H
  H104     1.0000 0.74540  0.64480  0.61280  Biso   1.000  H
  H105     1.0000 0.19540  0.63650  0.47210  Biso   1.000  H
  H106     1.0000 0.13830  0.05960  0.20900  Biso   1.000  H
  H107     1.0000 0.08970  0.06160  0.14220  Biso   1.000  H
  H108     1.0000 0.10660  0.94930  0.09150  Biso   1.000  H
  H109     1.0000 0.98160  0.96430  0.15370  Biso   1.000  H
  H110     1.0000 0.51410  0.72420  0.94280  Biso   1.000  H
  H111     1.0000 0.41010  0.77720  0.91440  Biso   1.000  H
  H112     1.0000 0.69620  0.81630  0.83950  Biso   1.000  H
  H113     1.0000 0.66400  0.74250  0.85170  Biso   1.000  H
  H114     1.0000 0.79450  0.83070  0.15090  Biso   1.000  H
  H115     1.0000 0.78140  0.77620  0.10100  Biso   1.000  H
  H116     1.0000 0.82780  0.94810  0.07290  Biso   1.000  H
  H117     1.0000 0.71440  0.95100  0.14120  Biso   1.000  H
  H118     1.0000 0.06730  0.96990  0.23450  Biso   1.000  H
  H119     1.0000 0.50300  0.85520  0.88720  Biso   1.000  H
  H120     1.0000 0.80400  0.86350  0.02790  Biso   1.000  H
  C1       1.0000 0.60750  0.11560  0.47800  Biso   1.000  C
  C2       1.0000 0.68510  0.16650  0.46710  Biso   1.000  C
  C3       1.0000 0.79010  0.14150  0.56170  Biso   1.000  C
  C4       1.0000 0.76480  0.14970  0.64270  Biso   1.000  C
  C5       1.0000 0.59960  0.02260  0.71300  Biso   1.000  C
  C6       1.0000 0.59360  0.94590  0.72630  Biso   1.000  C
  C7       1.0000 0.46050  0.87620  0.71580  Biso   1.000  C
  C8       1.0000 0.33180  0.92610  0.74070  Biso   1.000  C
  C9       1.0000 0.20790  0.17380  0.67220  Biso   1.000  C
  C10      1.0000 0.13310  0.12330  0.67610  Biso   1.000  C
  C11      1.0000 0.16860  0.08850  0.55190  Biso   1.000  C
  C12      1.0000 0.27470  0.05780  0.48520  Biso   1.000  C
  C13      1.0000 0.70110  0.38440  0.02200  Biso   1.000  C
  C14      1.0000 0.81870  0.33350  0.03290  Biso   1.000  C
  C15      1.0000 0.99330  0.35850  0.93830  Biso   1.000  C
  C16      1.0000 0.05720  0.35030  0.85730  Biso   1.000  C
  C17      1.0000 0.83520  0.47740  0.78700  Biso   1.000  C
  C18      1.0000 0.76580  0.55410  0.77370  Biso   1.000  C
  C19      1.0000 0.55250  0.62380  0.78420  Biso   1.000  C
  C20      1.0000 0.49860  0.57390  0.75930  Biso   1.000  C
  C21      1.0000 0.55390  0.32620  0.82780  Biso   1.000  C
  C22      1.0000 0.43250  0.37670  0.82390  Biso   1.000  C
  C23      1.0000 0.30900  0.41150  0.94810  Biso   1.000  C
  C24      1.0000 0.31770  0.44220  0.01480  Biso   1.000  C
  C25      1.0000 0.08550  0.52200  0.61560  Biso   1.000  C
  C26      1.0000 0.15220  0.53290  0.66650  Biso   1.000  C
  C27      1.0000 0.35180  0.43830  0.64150  Biso   1.000  C
  C28      1.0000 0.40750  0.35730  0.64970  Biso   1.000  C
  C29      1.0000 0.31260  0.28700  0.52260  Biso   1.000  C
  C30      1.0000 0.31990  0.27370  0.44590  Biso   1.000  C
  C31      1.0000 0.17630  0.28420  0.37620  Biso   1.000  C
  C32      1.0000 0.07250  0.25930  0.42610  Biso   1.000  C
  C33      1.0000 0.88010  0.32780  0.67380  Biso   1.000  C
  C34      1.0000 0.80920  0.32390  0.62330  Biso   1.000  C
  C35      1.0000 0.72050  0.44810  0.58850  Biso   1.000  C
  C36      1.0000 0.75990  0.51480  0.55780  Biso   1.000  C
  C37      1.0000 0.72310  0.97800  0.88440  Biso   1.000  C
  C38      1.0000 0.85160  0.96710  0.83350  Biso   1.000  C
  C39      1.0000 0.93160  0.06170  0.85850  Biso   1.000  C
  C40      1.0000 0.91450  0.14270  0.85030  Biso   1.000  C
  C41      1.0000 0.62220  0.21300  0.97740  Biso   1.000  C
  C42      1.0000 0.53950  0.22630  0.05410  Biso   1.000  C
  C43      1.0000 0.33670  0.21580  0.12380  Biso   1.000  C
  C44      1.0000 0.25790  0.24070  0.07390  Biso   1.000  C
  C45      1.0000 0.38170  0.17220  0.82620  Biso   1.000  C
  C46      1.0000 0.25640  0.17610  0.87670  Biso   1.000  C
  C47      1.0000 0.25710  0.05190  0.91150  Biso   1.000  C
  C48      1.0000 0.33250  0.98520  0.94220  Biso   1.000  C
  C49      1.0000 0.39250  0.88440  0.52200  Biso   1.000  C
  C50      1.0000 0.31490  0.83350  0.53290  Biso   1.000  C
  C51      1.0000 0.20990  0.85850  0.43830  Biso   1.000  C
  C52      1.0000 0.23520  0.85030  0.35730  Biso   1.000  C
  C53      1.0000 0.40040  0.97740  0.28700  Biso   1.000  C
  C54      1.0000 0.40640  0.05410  0.27370  Biso   1.000  C
  C55      1.0000 0.53950  0.12380  0.28420  Biso   1.000  C
  C56      1.0000 0.66820  0.07390  0.25930  Biso   1.000  C
  C57      1.0000 0.79210  0.82620  0.32780  Biso   1.000  C
  C58      1.0000 0.86690  0.87670  0.32390  Biso   1.000  C
  C59      1.0000 0.83140  0.91150  0.44810  Biso   1.000  C
  C60      1.0000 0.72530  0.94220  0.51480  Biso   1.000  C
  C61      1.0000 0.29890  0.61560  0.97800  Biso   1.000  C
  C62      1.0000 0.18130  0.66650  0.96710  Biso   1.000  C
  C63      1.0000 0.00670  0.64150  0.06170  Biso   1.000  C
  C64      1.0000 0.94280  0.64970  0.14270  Biso   1.000  C
  C65      1.0000 0.16480  0.52260  0.21300  Biso   1.000  C
  C66      1.0000 0.23420  0.44590  0.22630  Biso   1.000  C
  C67      1.0000 0.44750  0.37620  0.21580  Biso   1.000  C
  C68      1.0000 0.50140  0.42610  0.24070  Biso   1.000  C
  C69      1.0000 0.44610  0.67380  0.17220  Biso   1.000  C
  C70      1.0000 0.56750  0.62330  0.17610  Biso   1.000  C
  C71      1.0000 0.69100  0.58850  0.05190  Biso   1.000  C
  C72      1.0000 0.68230  0.55780  0.98520  Biso   1.000  C
  C73      1.0000 0.91450  0.47800  0.38440  Biso   1.000  C
  C74      1.0000 0.84780  0.46710  0.33350  Biso   1.000  C
  C75      1.0000 0.64820  0.56170  0.35850  Biso   1.000  C
  C76      1.0000 0.59250  0.64270  0.35030  Biso   1.000  C
  C77      1.0000 0.68740  0.71300  0.47740  Biso   1.000  C
  C78      1.0000 0.68010  0.72630  0.55410  Biso   1.000  C
  C79      1.0000 0.82370  0.71580  0.62380  Biso   1.000  C
  C80      1.0000 0.92750  0.74070  0.57390  Biso   1.000  C
  C81      1.0000 0.11990  0.67220  0.32620  Biso   1.000  C
  C82      1.0000 0.19080  0.67610  0.37670  Biso   1.000  C
  C83      1.0000 0.27950  0.55190  0.41150  Biso   1.000  C
  C84      1.0000 0.24010  0.48520  0.44220  Biso   1.000  C
  C85      1.0000 0.27690  0.02200  0.11560  Biso   1.000  C
  C86      1.0000 0.14840  0.03290  0.16650  Biso   1.000  C
  C87      1.0000 0.06840  0.93830  0.14150  Biso   1.000  C
  C88      1.0000 0.08550  0.85730  0.14970  Biso   1.000  C
  C89      1.0000 0.37780  0.78700  0.02260  Biso   1.000  C
  C90      1.0000 0.46050  0.77370  0.94590  Biso   1.000  C
  C91      1.0000 0.66330  0.78420  0.87620  Biso   1.000  C
  C92      1.0000 0.74210  0.75930  0.92610  Biso   1.000  C
  C93      1.0000 0.61830  0.82780  0.17380  Biso   1.000  C
  C94      1.0000 0.74360  0.82390  0.12330  Biso   1.000  C
  C95      1.0000 0.74290  0.94810  0.08850  Biso   1.000  C
  C96      1.0000 0.66750  0.01480  0.05780  Biso   1.000  C
  N1       1.0000 0.68740  0.18953  0.53707  Biso   1.000  N
  N2       1.0000 0.54530  0.91740  0.67740  Biso   1.000  N
  N3       1.0000 0.19735  0.06635  0.61975  Biso   1.000  N
  N4       1.0000 0.91400  0.31047  0.96293  Biso   1.000  N
  N5       1.0000 0.64010  0.58260  0.82260  Biso   1.000  N
  N6       1.0000 0.38345  0.43365  0.88025  Biso   1.000  N
  N7       1.0000 0.22447  0.46293  0.68953  Biso   1.000  N
  N8       1.0000 0.22270  0.32260  0.41740  Biso   1.000  N
  N9       1.0000 0.81710  0.38025  0.56635  Biso   1.000  N
  N10      1.0000 0.87693  0.03707  0.81047  Biso   1.000  N
  N11      1.0000 0.46270  0.17740  0.08260  Biso   1.000  N
  N12      1.0000 0.26370  0.11975  0.93365  Biso   1.000  N
  N13      1.0000 0.31260  0.81047  0.46293  Biso   1.000  N
  N14      1.0000 0.45470  0.08260  0.32260  Biso   1.000  N
  N15      1.0000 0.80265  0.93365  0.38025  Biso   1.000  N
  N16      1.0000 0.08600  0.68953  0.03707  Biso   1.000  N
  N17      1.0000 0.35990  0.41740  0.17740  Biso   1.000  N
  N18      1.0000 0.61655  0.56635  0.11975  Biso   1.000  N
  N19      1.0000 0.77553  0.53707  0.31047  Biso   1.000  N
  N20      1.0000 0.77730  0.67740  0.58260  Biso   1.000  N
  N21      1.0000 0.18290  0.61975  0.43365  Biso   1.000  N
  N22      1.0000 0.12307  0.96293  0.18953  Biso   1.000  N
  N23      1.0000 0.53730  0.82260  0.91740  Biso   1.000  N
  N24      1.0000 0.73630  0.88025  0.06635  Biso   1.000  N
  O1       1.0000 0.54060  0.10941  0.54199  Biso   1.000  O
  O2       1.0000 0.61425  0.08374  0.42276  Biso   1.000  O
  O3       1.0000 0.65448  0.18067  0.67957  Biso   1.000  O
  O4       1.0000 0.84666  0.12437  0.67171  Biso   1.000  O
  O5       1.0000 0.53302  0.06444  0.67612  Biso   1.000  O
  O6       1.0000 0.66730  0.03997  0.74043  Biso   1.000  O
  O7       1.0000 0.31280  0.99130  0.72290  Biso   1.000  O
  O8       1.0000 0.25150  0.89570  0.77490  Biso   1.000  O
  O9       1.0000 0.32406  0.14747  0.64461  Biso   1.000  O
  O10      1.0000 0.15721  0.23558  0.69740  Biso   1.000  O
  O11      1.0000 0.38373  0.04518  0.49016  Biso   1.000  O
  O12      1.0000 0.25248  0.04729  0.43055  Biso   1.000  O
  O13      1.0000 0.69200  0.39059  0.95801  Biso   1.000  O
  O14      1.0000 0.62075  0.41626  0.07724  Biso   1.000  O
  O15      1.0000 0.01472  0.31933  0.82043  Biso   1.000  O
  O16      1.0000 0.14274  0.37563  0.82829  Biso   1.000  O
  O17      1.0000 0.77358  0.43556  0.82388  Biso   1.000  O
  O18      1.0000 0.94770  0.46003  0.75957  Biso   1.000  O
  O19      1.0000 0.52700  0.50870  0.77710  Biso   1.000  O
  O20      1.0000 0.42210  0.60430  0.72510  Biso   1.000  O
  O21      1.0000 0.61614  0.35253  0.85539  Biso   1.000  O
  O22      1.0000 0.59019  0.26442  0.80260  Biso   1.000  O
  O23      1.0000 0.41907  0.45482  0.00984  Biso   1.000  O
  O24      1.0000 0.23032  0.45271  0.06945  Biso   1.000  O
  O25      1.0000 0.08259  0.45801  0.60941  Biso   1.000  O
  O26      1.0000 0.03701  0.57724  0.58374  Biso   1.000  O
  O27      1.0000 0.33405  0.32043  0.68067  Biso   1.000  O
  O28      1.0000 0.51837  0.32829  0.62437  Biso   1.000  O
  O29      1.0000 0.20914  0.32388  0.56444  Biso   1.000  O
  O30      1.0000 0.40773  0.25957  0.53997  Biso   1.000  O
  O31      1.0000 0.03570  0.27710  0.49130  Biso   1.000  O
  O32      1.0000 0.02640  0.22510  0.39570  Biso   1.000  O
  O33      1.0000 0.96867  0.35539  0.64747  Biso   1.000  O
  O34      1.0000 0.85461  0.30260  0.73558  Biso   1.000  O
  O35      1.0000 0.87389  0.50984  0.54518  Biso   1.000  O
  O36      1.0000 0.68303  0.56945  0.54729  Biso   1.000  O
  O37      1.0000 0.65001  0.04199  0.89059  Biso   1.000  O
  O38      1.0000 0.69799  0.92276  0.91626  Biso   1.000  O
  O39      1.0000 0.83515  0.17957  0.81933  Biso   1.000  O
  O40      1.0000 0.97103  0.17171  0.87563  Biso   1.000  O
  O41      1.0000 0.59746  0.17612  0.93556  Biso   1.000  O
  O42      1.0000 0.70727  0.24043  0.96003  Biso   1.000  O
  O43      1.0000 0.30410  0.22290  0.00870  Biso   1.000  O
  O44      1.0000 0.14720  0.27490  0.10430  Biso   1.000  O
  O45      1.0000 0.47153  0.14461  0.85253  Biso   1.000  O
  O46      1.0000 0.39279  0.19740  0.76442  Biso   1.000  O
  O47      1.0000 0.42891  0.99016  0.95482  Biso   1.000  O
  O48      1.0000 0.29977  0.93055  0.95271  Biso   1.000  O
  O49      1.0000 0.45940  0.89059  0.45801  Biso   1.000  O
  O50      1.0000 0.38575  0.91626  0.57724  Biso   1.000  O
  O51      1.0000 0.34552  0.81933  0.32043  Biso   1.000  O
  O52      1.0000 0.15334  0.87563  0.32829  Biso   1.000  O
  O53      1.0000 0.46698  0.93556  0.32388  Biso   1.000  O
  O54      1.0000 0.33270  0.96003  0.25957  Biso   1.000  O
  O55      1.0000 0.68720  0.00870  0.27710  Biso   1.000  O
  O56      1.0000 0.74850  0.10430  0.22510  Biso   1.000  O
  O57      1.0000 0.67594  0.85253  0.35539  Biso   1.000  O
  O58      1.0000 0.84279  0.76442  0.30260  Biso   1.000  O
  O59      1.0000 0.61627  0.95482  0.50984  Biso   1.000  O
  O60      1.0000 0.74752  0.95271  0.56945  Biso   1.000  O
  O61      1.0000 0.30800  0.60941  0.04199  Biso   1.000  O
  O62      1.0000 0.37925  0.58374  0.92276  Biso   1.000  O
  O63      1.0000 0.98528  0.68067  0.17957  Biso   1.000  O
  O64      1.0000 0.85726  0.62437  0.17171  Biso   1.000  O
  O65      1.0000 0.22642  0.56444  0.17612  Biso   1.000  O
  O66      1.0000 0.05230  0.53997  0.24043  Biso   1.000  O
  O67      1.0000 0.47300  0.49130  0.22290  Biso   1.000  O
  O68      1.0000 0.57790  0.39570  0.27490  Biso   1.000  O
  O69      1.0000 0.38386  0.64747  0.14461  Biso   1.000  O
  O70      1.0000 0.40981  0.73558  0.19740  Biso   1.000  O
  O71      1.0000 0.58093  0.54518  0.99016  Biso   1.000  O
  O72      1.0000 0.76968  0.54729  0.93055  Biso   1.000  O
  O73      1.0000 0.91741  0.54199  0.39059  Biso   1.000  O
  O74      1.0000 0.96299  0.42276  0.41626  Biso   1.000  O
  O75      1.0000 0.66595  0.67957  0.31933  Biso   1.000  O
  O76      1.0000 0.48163  0.67171  0.37563  Biso   1.000  O
  O77      1.0000 0.79086  0.67612  0.43556  Biso   1.000  O
  O78      1.0000 0.59227  0.74043  0.46003  Biso   1.000  O
  O79      1.0000 0.96430  0.72290  0.50870  Biso   1.000  O
  O80      1.0000 0.97360  0.77490  0.60430  Biso   1.000  O
  O81      1.0000 0.03133  0.64461  0.35253  Biso   1.000  O
  O82      1.0000 0.14539  0.69740  0.26442  Biso   1.000  O
  O83      1.0000 0.12611  0.49016  0.45482  Biso   1.000  O
  O84      1.0000 0.31697  0.43055  0.45271  Biso   1.000  O
  O85      1.0000 0.34999  0.95801  0.10941  Biso   1.000  O
  O86      1.0000 0.30201  0.07724  0.08374  Biso   1.000  O
  O87      1.0000 0.16485  0.82043  0.18067  Biso   1.000  O
  O88      1.0000 0.02897  0.82829  0.12437  Biso   1.000  O
  O89      1.0000 0.40254  0.82388  0.06444  Biso   1.000  O
  O90      1.0000 0.29273  0.75957  0.03997  Biso   1.000  O
  O91      1.0000 0.69590  0.77710  0.99130  Biso   1.000  O
  O92      1.0000 0.85280  0.72510  0.89570  Biso   1.000  O
  O93      1.0000 0.52847  0.85539  0.14747  Biso   1.000  O
  O94      1.0000 0.60721  0.80260  0.23558  Biso   1.000  O
  O95      1.0000 0.57109  0.00984  0.04518  Biso   1.000  O
  O96      1.0000 0.70023  0.06945  0.04729  Biso   1.000  O
