data_image0
_cell_length_a       12.0733
_cell_length_b       19.5077
_cell_length_c       19.5077
_cell_angle_alpha    84.5049
_cell_angle_beta     71.9739
_cell_angle_gamma    71.9738

_symmetry_space_group_name_H-M    P 1
_symmetry_int_tables_number       1

loop_
  _symmetry_equiv_pos_as_xyz
  'x, y, z'

loop_
  _atom_site_label
  _atom_site_occupancy
  _atom_site_fract_x
  _atom_site_fract_y
  _atom_site_fract_z
  _atom_site_thermal_displace_type
  _atom_site_B_iso_or_equiv
  _atom_site_type_symbol
  Nd1      1.0000 0.98730  0.20204  0.63700  Biso   1.000  Nd
  Nd2      1.0000 0.93119  0.02054  0.60584  Biso   1.000  Nd
  Nd3      1.0000 0.32634  0.29796  0.86300  Biso   1.000  Nd
  Nd4      1.0000 0.05757  0.47946  0.89416  Biso   1.000  Nd
  Nd5      1.0000 0.62430  0.36300  0.70204  Biso   1.000  Nd
  Nd6      1.0000 0.53702  0.39417  0.52054  Biso   1.000  Nd
  Nd7      1.0000 0.18934  0.13700  0.79796  Biso   1.000  Nd
  Nd8      1.0000 0.95173  0.10584  0.97946  Biso   1.000  Nd
  Nd9      1.0000 0.01270  0.79796  0.36300  Biso   1.000  Nd
  Nd10     1.0000 0.06881  0.97946  0.39416  Biso   1.000  Nd
  Nd11     1.0000 0.67366  0.70204  0.13700  Biso   1.000  Nd
  Nd12     1.0000 0.94243  0.52054  0.10584  Biso   1.000  Nd
  Nd13     1.0000 0.37570  0.63700  0.29796  Biso   1.000  Nd
  Nd14     1.0000 0.46298  0.60583  0.47946  Biso   1.000  Nd
  Nd15     1.0000 0.81066  0.86300  0.20204  Biso   1.000  Nd
  Nd16     1.0000 0.04826  0.89417  0.02054  Biso   1.000  Nd
  H1       1.0000 0.15900  0.20690  0.43970  Biso   1.000  H
  H2       1.0000 0.27250  0.13970  0.43770  Biso   1.000  H
  H3       1.0000 0.30460  0.09030  0.54990  Biso   1.000  H
  H4       1.0000 0.36930  0.15100  0.53420  Biso   1.000  H
  H5       1.0000 0.03870  0.94500  0.77780  Biso   1.000  H
  H6       1.0000 0.17210  0.91390  0.72790  Biso   1.000  H
  H7       1.0000 0.96690  0.83990  0.68430  Biso   1.000  H
  H8       1.0000 0.98530  0.85170  0.75810  Biso   1.000  H
  H9       1.0000 0.55580  0.15200  0.66940  Biso   1.000  H
  H10      1.0000 0.61950  0.10110  0.72230  Biso   1.000  H
  H11      1.0000 0.59910  0.07300  0.55120  Biso   1.000  H
  H12      1.0000 0.64220  0.14140  0.54840  Biso   1.000  H
  H13      1.0000 0.20640  0.23160  0.52860  Biso   1.000  H
  H14      1.0000 0.11090  0.88760  0.64780  Biso   1.000  H
  H15      1.0000 0.66480  0.03030  0.63590  Biso   1.000  H
  H16      1.0000 0.30560  0.29310  0.06030  Biso   1.000  H
  H17      1.0000 0.34990  0.36030  0.06230  Biso   1.000  H
  H18      1.0000 0.44480  0.40970  0.95010  Biso   1.000  H
  H19      1.0000 0.55450  0.34900  0.96580  Biso   1.000  H
  H20      1.0000 0.26150  0.55500  0.72220  Biso   1.000  H
  H21      1.0000 0.31390  0.58610  0.77210  Biso   1.000  H
  H22      1.0000 0.99110  0.66010  0.81570  Biso   1.000  H
  H23      1.0000 0.09510  0.64830  0.74190  Biso   1.000  H
  H24      1.0000 0.87720  0.34800  0.83060  Biso   1.000  H
  H25      1.0000 0.94290  0.39890  0.77770  Biso   1.000  H
  H26      1.0000 0.72330  0.42700  0.94880  Biso   1.000  H
  H27      1.0000 0.83200  0.35860  0.95160  Biso   1.000  H
  H28      1.0000 0.46660  0.26840  0.97140  Biso   1.000  H
  H29      1.0000 0.14630  0.61240  0.85220  Biso   1.000  H
  H30      1.0000 0.83100  0.46970  0.86410  Biso   1.000  H
  H31      1.0000 0.59870  0.56030  0.70690  Biso   1.000  H
  H32      1.0000 0.71020  0.56230  0.63970  Biso   1.000  H
  H33      1.0000 0.85450  0.45010  0.59030  Biso   1.000  H
  H34      1.0000 0.90350  0.46580  0.65100  Biso   1.000  H
  H35      1.0000 0.81650  0.22220  0.44500  Biso   1.000  H
  H36      1.0000 0.90000  0.27210  0.41390  Biso   1.000  H
  H37      1.0000 0.65120  0.31570  0.33990  Biso   1.000  H
  H38      1.0000 0.74340  0.24190  0.35170  Biso   1.000  H
  H39      1.0000 0.22520  0.33060  0.65200  Biso   1.000  H
  H40      1.0000 0.34180  0.27770  0.60110  Biso   1.000  H
  H41      1.0000 0.15030  0.44880  0.57300  Biso   1.000  H
  H42      1.0000 0.19060  0.45160  0.64140  Biso   1.000  H
  H43      1.0000 0.73500  0.47140  0.73160  Biso   1.000  H
  H44      1.0000 0.75870  0.35220  0.38760  Biso   1.000  H
  H45      1.0000 0.30070  0.36410  0.53030  Biso   1.000  H
  H46      1.0000 0.36590  0.93970  0.79310  Biso   1.000  H
  H47      1.0000 0.41220  0.93770  0.86030  Biso   1.000  H
  H48      1.0000 0.39490  0.04990  0.90970  Biso   1.000  H
  H49      1.0000 0.52030  0.03420  0.84900  Biso   1.000  H
  H50      1.0000 0.98370  0.27780  0.05500  Biso   1.000  H
  H51      1.0000 0.08600  0.22790  0.08610  Biso   1.000  H
  H52      1.0000 0.80680  0.18430  0.16010  Biso   1.000  H
  H53      1.0000 0.83700  0.25810  0.14830  Biso   1.000  H
  H54      1.0000 0.70780  0.16940  0.84800  Biso   1.000  H
  H55      1.0000 0.72060  0.22230  0.89890  Biso   1.000  H
  H56      1.0000 0.67210  0.05120  0.92700  Biso   1.000  H
  H57      1.0000 0.78360  0.04840  0.85860  Biso   1.000  H
  H58      1.0000 0.43800  0.02860  0.76840  Biso   1.000  H
  H59      1.0000 0.99850  0.14780  0.11240  Biso   1.000  H
  H60      1.0000 0.69510  0.13590  0.96970  Biso   1.000  H
  H61      1.0000 0.84100  0.79310  0.56030  Biso   1.000  H
  H62      1.0000 0.72750  0.86030  0.56230  Biso   1.000  H
  H63      1.0000 0.69540  0.90970  0.45010  Biso   1.000  H
  H64      1.0000 0.63070  0.84900  0.46580  Biso   1.000  H
  H65      1.0000 0.96130  0.05500  0.22220  Biso   1.000  H
  H66      1.0000 0.82790  0.08610  0.27210  Biso   1.000  H
  H67      1.0000 0.03310  0.16010  0.31570  Biso   1.000  H
  H68      1.0000 0.01470  0.14830  0.24190  Biso   1.000  H
  H69      1.0000 0.44420  0.84800  0.33060  Biso   1.000  H
  H70      1.0000 0.38050  0.89890  0.27770  Biso   1.000  H
  H71      1.0000 0.40090  0.92700  0.44880  Biso   1.000  H
  H72      1.0000 0.35780  0.85860  0.45160  Biso   1.000  H
  H73      1.0000 0.79360  0.76840  0.47140  Biso   1.000  H
  H74      1.0000 0.88910  0.11240  0.35220  Biso   1.000  H
  H75      1.0000 0.33520  0.96970  0.36410  Biso   1.000  H
  H76      1.0000 0.69440  0.70690  0.93970  Biso   1.000  H
  H77      1.0000 0.65010  0.63970  0.93770  Biso   1.000  H
  H78      1.0000 0.55520  0.59030  0.04990  Biso   1.000  H
  H79      1.0000 0.44550  0.65100  0.03420  Biso   1.000  H
  H80      1.0000 0.73850  0.44500  0.27780  Biso   1.000  H
  H81      1.0000 0.68610  0.41390  0.22790  Biso   1.000  H
  H82      1.0000 0.00890  0.33990  0.18430  Biso   1.000  H
  H83      1.0000 0.90490  0.35170  0.25810  Biso   1.000  H
  H84      1.0000 0.12280  0.65200  0.16940  Biso   1.000  H
  H85      1.0000 0.05710  0.60110  0.22230  Biso   1.000  H
  H86      1.0000 0.27670  0.57300  0.05120  Biso   1.000  H
  H87      1.0000 0.16800  0.64140  0.04840  Biso   1.000  H
  H88      1.0000 0.53340  0.73160  0.02860  Biso   1.000  H
  H89      1.0000 0.85370  0.38760  0.14780  Biso   1.000  H
  H90      1.0000 0.16900  0.53030  0.13590  Biso   1.000  H
  H91      1.0000 0.40130  0.43970  0.29310  Biso   1.000  H
  H92      1.0000 0.28980  0.43770  0.36030  Biso   1.000  H
  H93      1.0000 0.14550  0.54990  0.40970  Biso   1.000  H
  H94      1.0000 0.09650  0.53420  0.34900  Biso   1.000  H
  H95      1.0000 0.18350  0.77780  0.55500  Biso   1.000  H
  H96      1.0000 0.10000  0.72790  0.58610  Biso   1.000  H
  H97      1.0000 0.34880  0.68430  0.66010  Biso   1.000  H
  H98      1.0000 0.25660  0.75810  0.64830  Biso   1.000  H
  H99      1.0000 0.77480  0.66940  0.34800  Biso   1.000  H
  H100     1.0000 0.65820  0.72230  0.39890  Biso   1.000  H
  H101     1.0000 0.84970  0.55120  0.42700  Biso   1.000  H
  H102     1.0000 0.80940  0.54840  0.35860  Biso   1.000  H
  H103     1.0000 0.26500  0.52860  0.26840  Biso   1.000  H
  H104     1.0000 0.24130  0.64780  0.61240  Biso   1.000  H
  H105     1.0000 0.69930  0.63590  0.46970  Biso   1.000  H
  H106     1.0000 0.63410  0.06030  0.20690  Biso   1.000  H
  H107     1.0000 0.58780  0.06230  0.13970  Biso   1.000  H
  H108     1.0000 0.60510  0.95010  0.09030  Biso   1.000  H
  H109     1.0000 0.47970  0.96580  0.15100  Biso   1.000  H
  H110     1.0000 0.01630  0.72220  0.94500  Biso   1.000  H
  H111     1.0000 0.91400  0.77210  0.91390  Biso   1.000  H
  H112     1.0000 0.19320  0.81570  0.83990  Biso   1.000  H
  H113     1.0000 0.16300  0.74190  0.85170  Biso   1.000  H
  H114     1.0000 0.29220  0.83060  0.15200  Biso   1.000  H
  H115     1.0000 0.27940  0.77770  0.10110  Biso   1.000  H
  H116     1.0000 0.32790  0.94880  0.07300  Biso   1.000  H
  H117     1.0000 0.21640  0.95160  0.14140  Biso   1.000  H
  H118     1.0000 0.56200  0.97140  0.23160  Biso   1.000  H
  H119     1.0000 0.00150  0.85220  0.88760  Biso   1.000  H
  H120     1.0000 0.30490  0.86410  0.03030  Biso   1.000  H
  C1       1.0000 0.11095  0.11549  0.47821  Biso   1.000  C
  C2       1.0000 0.19040  0.16460  0.46640  Biso   1.000  C
  C3       1.0000 0.29450  0.13980  0.56040  Biso   1.000  C
  C4       1.0000 0.27191  0.14761  0.64057  Biso   1.000  C
  C5       1.0000 0.10179  0.02205  0.71297  Biso   1.000  C
  C6       1.0000 0.09210  0.94590  0.72910  Biso   1.000  C
  C7       1.0000 0.96180  0.87620  0.71680  Biso   1.000  C
  C8       1.0000 0.83270  0.92440  0.74160  Biso   1.000  C
  C9       1.0000 0.70964  0.17353  0.67179  Biso   1.000  C
  C10      1.0000 0.63410  0.12400  0.67520  Biso   1.000  C
  C11      1.0000 0.66730  0.08920  0.55140  Biso   1.000  C
  C12      1.0000 0.77270  0.05950  0.48570  Biso   1.000  C
  C13      1.0000 0.20465  0.38451  0.02179  Biso   1.000  C
  C14      1.0000 0.32140  0.33540  0.03360  Biso   1.000  C
  C15      1.0000 0.49470  0.36020  0.93960  Biso   1.000  C
  C16      1.0000 0.56009  0.35239  0.85943  Biso   1.000  C
  C17      1.0000 0.33681  0.47795  0.78703  Biso   1.000  C
  C18      1.0000 0.26710  0.55410  0.77090  Biso   1.000  C
  C19      1.0000 0.05480  0.62380  0.78320  Biso   1.000  C
  C20      1.0000 0.99870  0.57560  0.75840  Biso   1.000  C
  C21      1.0000 0.05496  0.32647  0.82821  Biso   1.000  C
  C22      1.0000 0.93330  0.37600  0.82480  Biso   1.000  C
  C23      1.0000 0.80790  0.41080  0.94860  Biso   1.000  C
  C24      1.0000 0.81790  0.44050  0.01430  Biso   1.000  C
  C25      1.0000 0.58916  0.52179  0.61549  Biso   1.000  C
  C26      1.0000 0.65680  0.53360  0.66460  Biso   1.000  C
  C27      1.0000 0.85490  0.43960  0.63980  Biso   1.000  C
  C28      1.0000 0.91248  0.35943  0.64761  Biso   1.000  C
  C29      1.0000 0.81476  0.28703  0.52205  Biso   1.000  C
  C30      1.0000 0.82120  0.27090  0.44590  Biso   1.000  C
  C31      1.0000 0.67860  0.28320  0.37620  Biso   1.000  C
  C32      1.0000 0.57430  0.25840  0.42440  Biso   1.000  C
  C33      1.0000 0.38143  0.32821  0.67353  Biso   1.000  C
  C34      1.0000 0.30930  0.32480  0.62400  Biso   1.000  C
  C35      1.0000 0.21870  0.44860  0.58920  Biso   1.000  C
  C36      1.0000 0.25840  0.51430  0.55950  Biso   1.000  C
  C37      1.0000 0.22644  0.97821  0.88451  Biso   1.000  C
  C38      1.0000 0.35500  0.96640  0.83540  Biso   1.000  C
  C39      1.0000 0.43430  0.06040  0.86020  Biso   1.000  C
  C40      1.0000 0.41952  0.14057  0.85239  Biso   1.000  C
  C41      1.0000 0.12384  0.21297  0.97795  Biso   1.000  C
  C42      1.0000 0.03800  0.22910  0.05410  Biso   1.000  C
  C43      1.0000 0.83800  0.21680  0.12380  Biso   1.000  C
  C44      1.0000 0.75710  0.24160  0.07560  Biso   1.000  C
  C45      1.0000 0.88317  0.17179  0.82647  Biso   1.000  C
  C46      1.0000 0.75810  0.17520  0.87600  Biso   1.000  C
  C47      1.0000 0.75650  0.05140  0.91080  Biso   1.000  C
  C48      1.0000 0.83220  0.98570  0.94050  Biso   1.000  C
  C49      1.0000 0.88905  0.88451  0.52179  Biso   1.000  C
  C50      1.0000 0.80960  0.83540  0.53360  Biso   1.000  C
  C51      1.0000 0.70550  0.86020  0.43960  Biso   1.000  C
  C52      1.0000 0.72809  0.85239  0.35943  Biso   1.000  C
  C53      1.0000 0.89821  0.97795  0.28703  Biso   1.000  C
  C54      1.0000 0.90790  0.05410  0.27090  Biso   1.000  C
  C55      1.0000 0.03820  0.12380  0.28320  Biso   1.000  C
  C56      1.0000 0.16730  0.07560  0.25840  Biso   1.000  C
  C57      1.0000 0.29036  0.82647  0.32821  Biso   1.000  C
  C58      1.0000 0.36590  0.87600  0.32480  Biso   1.000  C
  C59      1.0000 0.33270  0.91080  0.44860  Biso   1.000  C
  C60      1.0000 0.22730  0.94050  0.51430  Biso   1.000  C
  C61      1.0000 0.79535  0.61549  0.97821  Biso   1.000  C
  C62      1.0000 0.67860  0.66460  0.96640  Biso   1.000  C
  C63      1.0000 0.50530  0.63980  0.06040  Biso   1.000  C
  C64      1.0000 0.43991  0.64761  0.14057  Biso   1.000  C
  C65      1.0000 0.66319  0.52205  0.21297  Biso   1.000  C
  C66      1.0000 0.73290  0.44590  0.22910  Biso   1.000  C
  C67      1.0000 0.94520  0.37620  0.21680  Biso   1.000  C
  C68      1.0000 0.00130  0.42440  0.24160  Biso   1.000  C
  C69      1.0000 0.94504  0.67353  0.17179  Biso   1.000  C
  C70      1.0000 0.06670  0.62400  0.17520  Biso   1.000  C
  C71      1.0000 0.19210  0.58920  0.05140  Biso   1.000  C
  C72      1.0000 0.18210  0.55950  0.98570  Biso   1.000  C
  C73      1.0000 0.41084  0.47821  0.38451  Biso   1.000  C
  C74      1.0000 0.34320  0.46640  0.33540  Biso   1.000  C
  C75      1.0000 0.14510  0.56040  0.36020  Biso   1.000  C
  C76      1.0000 0.08752  0.64057  0.35239  Biso   1.000  C
  C77      1.0000 0.18524  0.71297  0.47795  Biso   1.000  C
  C78      1.0000 0.17880  0.72910  0.55410  Biso   1.000  C
  C79      1.0000 0.32140  0.71680  0.62380  Biso   1.000  C
  C80      1.0000 0.42570  0.74160  0.57560  Biso   1.000  C
  C81      1.0000 0.61857  0.67179  0.32647  Biso   1.000  C
  C82      1.0000 0.69070  0.67520  0.37600  Biso   1.000  C
  C83      1.0000 0.78130  0.55140  0.41080  Biso   1.000  C
  C84      1.0000 0.74160  0.48570  0.44050  Biso   1.000  C
  C85      1.0000 0.77356  0.02179  0.11549  Biso   1.000  C
  C86      1.0000 0.64500  0.03360  0.16460  Biso   1.000  C
  C87      1.0000 0.56570  0.93960  0.13980  Biso   1.000  C
  C88      1.0000 0.58048  0.85943  0.14761  Biso   1.000  C
  C89      1.0000 0.87616  0.78703  0.02205  Biso   1.000  C
  C90      1.0000 0.96200  0.77090  0.94590  Biso   1.000  C
  C91      1.0000 0.16200  0.78320  0.87620  Biso   1.000  C
  C92      1.0000 0.24290  0.75840  0.92440  Biso   1.000  C
  C93      1.0000 0.11683  0.82821  0.17353  Biso   1.000  C
  C94      1.0000 0.24190  0.82480  0.12400  Biso   1.000  C
  C95      1.0000 0.24350  0.94860  0.08920  Biso   1.000  C
  C96      1.0000 0.16780  0.01430  0.05950  Biso   1.000  C
  N1       1.0000 0.19415  0.18740  0.53590  Biso   1.000  N
  N2       1.0000 0.04593  0.91751  0.67983  Biso   1.000  N
  N3       1.0000 0.69481  0.06814  0.61904  Biso   1.000  N
  N4       1.0000 0.41745  0.31260  0.96410  Biso   1.000  N
  N5       1.0000 0.14327  0.58249  0.82017  Biso   1.000  N
  N6       1.0000 0.88199  0.43186  0.88096  Biso   1.000  N
  N7       1.0000 0.73005  0.46410  0.68740  Biso   1.000  N
  N8       1.0000 0.72576  0.32017  0.41751  Biso   1.000  N
  N9       1.0000 0.31385  0.38096  0.56814  Biso   1.000  N
  N10      1.0000 0.38155  0.03590  0.81260  Biso   1.000  N
  N11      1.0000 0.96344  0.17983  0.08249  Biso   1.000  N
  N12      1.0000 0.76295  0.11904  0.93186  Biso   1.000  N
  N13      1.0000 0.80585  0.81260  0.46410  Biso   1.000  N
  N14      1.0000 0.95407  0.08249  0.32017  Biso   1.000  N
  N15      1.0000 0.30519  0.93186  0.38096  Biso   1.000  N
  N16      1.0000 0.58255  0.68740  0.03590  Biso   1.000  N
  N17      1.0000 0.85673  0.41751  0.17983  Biso   1.000  N
  N18      1.0000 0.11801  0.56814  0.11904  Biso   1.000  N
  N19      1.0000 0.26995  0.53590  0.31260  Biso   1.000  N
  N20      1.0000 0.27424  0.67983  0.58249  Biso   1.000  N
  N21      1.0000 0.68615  0.61904  0.43186  Biso   1.000  N
  N22      1.0000 0.61845  0.96410  0.18740  Biso   1.000  N
  N23      1.0000 0.03656  0.82017  0.91751  Biso   1.000  N
  N24      1.0000 0.23705  0.88096  0.06814  Biso   1.000  N
  O1       1.0000 0.04511  0.10869  0.54129  Biso   1.000  O
  O2       1.0000 0.11458  0.08472  0.42372  Biso   1.000  O
  O3       1.0000 0.16293  0.18071  0.67763  Biso   1.000  O
  O4       1.0000 0.35293  0.12143  0.66951  Biso   1.000  O
  O5       1.0000 0.03557  0.06364  0.67742  Biso   1.000  O
  O6       1.0000 0.17079  0.03884  0.73978  Biso   1.000  O
  O7       1.0000 0.81289  0.98937  0.72385  Biso   1.000  O
  O8       1.0000 0.75090  0.89400  0.77300  Biso   1.000  O
  O9       1.0000 0.82481  0.14755  0.64383  Biso   1.000  O
  O10      1.0000 0.66008  0.23498  0.69766  Biso   1.000  O
  O11      1.0000 0.88173  0.04640  0.49054  Biso   1.000  O
  O12      1.0000 0.75239  0.05000  0.43002  Biso   1.000  O
  O13      1.0000 0.19509  0.39131  0.95871  Biso   1.000  O
  O14      1.0000 0.12302  0.41528  0.07628  Biso   1.000  O
  O15      1.0000 0.52127  0.31929  0.82237  Biso   1.000  O
  O16      1.0000 0.64387  0.37857  0.83049  Biso   1.000  O
  O17      1.0000 0.27663  0.43636  0.82258  Biso   1.000  O
  O18      1.0000 0.44941  0.46116  0.76022  Biso   1.000  O
  O19      1.0000 0.02611  0.51063  0.77615  Biso   1.000  O
  O20      1.0000 0.91790  0.60600  0.72700  Biso   1.000  O
  O21      1.0000 0.11619  0.35245  0.85617  Biso   1.000  O
  O22      1.0000 0.09272  0.26502  0.80234  Biso   1.000  O
  O23      1.0000 0.91867  0.45360  0.00946  Biso   1.000  O
  O24      1.0000 0.73241  0.45000  0.06998  Biso   1.000  O
  O25      1.0000 0.58640  0.45871  0.60869  Biso   1.000  O
  O26      1.0000 0.53830  0.57628  0.58472  Biso   1.000  O
  O27      1.0000 0.84056  0.32237  0.68071  Biso   1.000  O
  O28      1.0000 0.02244  0.33049  0.62143  Biso   1.000  O
  O29      1.0000 0.71299  0.32258  0.56364  Biso   1.000  O
  O30      1.0000 0.91057  0.26022  0.53884  Biso   1.000  O
  O31      1.0000 0.53674  0.27615  0.48937  Biso   1.000  O
  O32      1.0000 0.52390  0.22700  0.39400  Biso   1.000  O
  O33      1.0000 0.46864  0.35617  0.64755  Biso   1.000  O
  O34      1.0000 0.35774  0.30234  0.73498  Biso   1.000  O
  O35      1.0000 0.37227  0.50946  0.54640  Biso   1.000  O
  O36      1.0000 0.18241  0.56998  0.55000  Biso   1.000  O
  O37      1.0000 0.15380  0.04129  0.89131  Biso   1.000  O
  O38      1.0000 0.19930  0.92372  0.91528  Biso   1.000  O
  O39      1.0000 0.34364  0.17763  0.81929  Biso   1.000  O
  O40      1.0000 0.47436  0.16951  0.87857  Biso   1.000  O
  O41      1.0000 0.09921  0.17742  0.93636  Biso   1.000  O
  O42      1.0000 0.20963  0.23978  0.96116  Biso   1.000  O
  O43      1.0000 0.80226  0.22385  0.01063  Biso   1.000  O
  O44      1.0000 0.64490  0.27300  0.10600  Biso   1.000  O
  O45      1.0000 0.97236  0.14383  0.85245  Biso   1.000  O
  O46      1.0000 0.89506  0.19766  0.76502  Biso   1.000  O
  O47      1.0000 0.92813  0.99054  0.95360  Biso   1.000  O
  O48      1.0000 0.80239  0.93002  0.95000  Biso   1.000  O
  O49      1.0000 0.95489  0.89131  0.45871  Biso   1.000  O
  O50      1.0000 0.88542  0.91528  0.57628  Biso   1.000  O
  O51      1.0000 0.83707  0.81929  0.32237  Biso   1.000  O
  O52      1.0000 0.64707  0.87857  0.33049  Biso   1.000  O
  O53      1.0000 0.96443  0.93636  0.32258  Biso   1.000  O
  O54      1.0000 0.82921  0.96116  0.26022  Biso   1.000  O
  O55      1.0000 0.18711  0.01063  0.27615  Biso   1.000  O
  O56      1.0000 0.24910  0.10600  0.22700  Biso   1.000  O
  O57      1.0000 0.17519  0.85245  0.35617  Biso   1.000  O
  O58      1.0000 0.33992  0.76502  0.30234  Biso   1.000  O
  O59      1.0000 0.11827  0.95360  0.50946  Biso   1.000  O
  O60      1.0000 0.24761  0.95000  0.56998  Biso   1.000  O
  O61      1.0000 0.80491  0.60869  0.04129  Biso   1.000  O
  O62      1.0000 0.87698  0.58472  0.92372  Biso   1.000  O
  O63      1.0000 0.47873  0.68071  0.17763  Biso   1.000  O
  O64      1.0000 0.35613  0.62143  0.16951  Biso   1.000  O
  O65      1.0000 0.72337  0.56364  0.17742  Biso   1.000  O
  O66      1.0000 0.55059  0.53884  0.23978  Biso   1.000  O
  O67      1.0000 0.97389  0.48937  0.22385  Biso   1.000  O
  O68      1.0000 0.08210  0.39400  0.27300  Biso   1.000  O
  O69      1.0000 0.88381  0.64755  0.14383  Biso   1.000  O
  O70      1.0000 0.90728  0.73498  0.19766  Biso   1.000  O
  O71      1.0000 0.08133  0.54640  0.99054  Biso   1.000  O
  O72      1.0000 0.26759  0.55000  0.93002  Biso   1.000  O
  O73      1.0000 0.41360  0.54129  0.39131  Biso   1.000  O
  O74      1.0000 0.46170  0.42372  0.41528  Biso   1.000  O
  O75      1.0000 0.15944  0.67763  0.31929  Biso   1.000  O
  O76      1.0000 0.97756  0.66951  0.37857  Biso   1.000  O
  O77      1.0000 0.28701  0.67742  0.43636  Biso   1.000  O
  O78      1.0000 0.08943  0.73978  0.46116  Biso   1.000  O
  O79      1.0000 0.46326  0.72385  0.51063  Biso   1.000  O
  O80      1.0000 0.47610  0.77300  0.60600  Biso   1.000  O
  O81      1.0000 0.53136  0.64383  0.35245  Biso   1.000  O
  O82      1.0000 0.64226  0.69766  0.26502  Biso   1.000  O
  O83      1.0000 0.62773  0.49054  0.45360  Biso   1.000  O
  O84      1.0000 0.81759  0.43002  0.45000  Biso   1.000  O
  O85      1.0000 0.84620  0.95871  0.10869  Biso   1.000  O
  O86      1.0000 0.80070  0.07628  0.08472  Biso   1.000  O
  O87      1.0000 0.65636  0.82237  0.18071  Biso   1.000  O
  O88      1.0000 0.52564  0.83049  0.12143  Biso   1.000  O
  O89      1.0000 0.90079  0.82258  0.06364  Biso   1.000  O
  O90      1.0000 0.79037  0.76022  0.03884  Biso   1.000  O
  O91      1.0000 0.19774  0.77615  0.98937  Biso   1.000  O
  O92      1.0000 0.35510  0.72700  0.89400  Biso   1.000  O
  O93      1.0000 0.02764  0.85617  0.14755  Biso   1.000  O
  O94      1.0000 0.10494  0.80234  0.23498  Biso   1.000  O
  O95      1.0000 0.07187  0.00946  0.04640  Biso   1.000  O
  O96      1.0000 0.19761  0.06998  0.05000  Biso   1.000  O
