data_image0
_cell_length_a       9.2992
_cell_length_b       11.519
_cell_length_c       13.262
_cell_angle_alpha    90
_cell_angle_beta     90.913
_cell_angle_gamma    90

_symmetry_space_group_name_H-M    P 1
_symmetry_int_tables_number       1

loop_
  _symmetry_equiv_pos_as_xyz
  'x, y, z'

loop_
  _atom_site_label
  _atom_site_occupancy
  _atom_site_fract_x
  _atom_site_fract_y
  _atom_site_fract_z
  _atom_site_thermal_displace_type
  _atom_site_B_iso_or_equiv
  _atom_site_type_symbol
  Co1      1.0000 0.25000  0.44970  0.50000  Biso   1.000  Co
  Co2      1.0000 0.75000  0.55030  0.50000  Biso   1.000  Co
  H1       1.0000 0.76160  0.53740  0.23400  Biso   1.000  H
  H2       1.0000 0.66430  0.45390  0.08950  Biso   1.000  H
  H3       1.0000 0.97450  0.21180  0.09690  Biso   1.000  H
  H4       1.0000 0.07110  0.29560  0.24140  Biso   1.000  H
  H5       1.0000 0.06860  0.23790  0.42560  Biso   1.000  H
  H6       1.0000 0.06880  0.03950  0.41670  Biso   1.000  H
  H7       1.0000 0.15000  0.86040  0.36520  Biso   1.000  H
  H8       1.0000 0.15610  0.66200  0.36810  Biso   1.000  H
  H9       1.0000 0.73840  0.53740  0.76600  Biso   1.000  H
  H10      1.0000 0.83570  0.45390  0.91050  Biso   1.000  H
  H11      1.0000 0.52550  0.21180  0.90310  Biso   1.000  H
  H12      1.0000 0.42890  0.29560  0.75860  Biso   1.000  H
  H13      1.0000 0.43140  0.23790  0.57440  Biso   1.000  H
  H14      1.0000 0.43120  0.03950  0.58330  Biso   1.000  H
  H15      1.0000 0.35000  0.86040  0.63480  Biso   1.000  H
  H16      1.0000 0.34390  0.66200  0.63190  Biso   1.000  H
  H17      1.0000 0.23840  0.46260  0.76600  Biso   1.000  H
  H18      1.0000 0.33570  0.54610  0.91050  Biso   1.000  H
  H19      1.0000 0.02550  0.78820  0.90310  Biso   1.000  H
  H20      1.0000 0.92890  0.70440  0.75860  Biso   1.000  H
  H21      1.0000 0.93140  0.76210  0.57440  Biso   1.000  H
  H22      1.0000 0.93120  0.96050  0.58330  Biso   1.000  H
  H23      1.0000 0.85000  0.13960  0.63480  Biso   1.000  H
  H24      1.0000 0.84390  0.33800  0.63190  Biso   1.000  H
  H25      1.0000 0.26160  0.46260  0.23400  Biso   1.000  H
  H26      1.0000 0.16430  0.54610  0.08950  Biso   1.000  H
  H27      1.0000 0.47450  0.78820  0.09690  Biso   1.000  H
  H28      1.0000 0.57110  0.70440  0.24140  Biso   1.000  H
  H29      1.0000 0.56860  0.76210  0.42560  Biso   1.000  H
  H30      1.0000 0.56880  0.96050  0.41670  Biso   1.000  H
  H31      1.0000 0.65000  0.13960  0.36520  Biso   1.000  H
  H32      1.0000 0.65610  0.33800  0.36810  Biso   1.000  H
  C1       1.0000 0.98330  0.47590  0.35129  Biso   1.000  C
  C2       1.0000 0.92560  0.42421  0.25387  Biso   1.000  C
  C3       1.0000 0.80400  0.47150  0.20693  Biso   1.000  C
  C4       1.0000 0.74540  0.42180  0.12049  Biso   1.000  C
  C5       1.0000 0.80900  0.32420  0.08109  Biso   1.000  C
  C6       1.0000 0.93130  0.27680  0.12505  Biso   1.000  C
  C7       1.0000 0.98890  0.32720  0.21145  Biso   1.000  C
  C8       1.0000 0.14460  0.19760  0.45556  Biso   1.000  C
  C9       1.0000 0.14240  0.07760  0.45165  Biso   1.000  C
  C10      1.0000 0.19130  0.82220  0.42019  Biso   1.000  C
  C11      1.0000 0.19460  0.70230  0.42298  Biso   1.000  C
  C12      1.0000 0.51670  0.47590  0.64871  Biso   1.000  C
  C13      1.0000 0.57440  0.42421  0.74613  Biso   1.000  C
  C14      1.0000 0.69600  0.47150  0.79307  Biso   1.000  C
  C15      1.0000 0.75460  0.42180  0.87951  Biso   1.000  C
  C16      1.0000 0.69100  0.32420  0.91891  Biso   1.000  C
  C17      1.0000 0.56870  0.27680  0.87495  Biso   1.000  C
  C18      1.0000 0.51110  0.32720  0.78855  Biso   1.000  C
  C19      1.0000 0.35540  0.19760  0.54444  Biso   1.000  C
  C20      1.0000 0.35760  0.07760  0.54835  Biso   1.000  C
  C21      1.0000 0.30870  0.82220  0.57981  Biso   1.000  C
  C22      1.0000 0.30540  0.70230  0.57702  Biso   1.000  C
  C23      1.0000 0.01670  0.52410  0.64871  Biso   1.000  C
  C24      1.0000 0.07440  0.57579  0.74613  Biso   1.000  C
  C25      1.0000 0.19600  0.52850  0.79307  Biso   1.000  C
  C26      1.0000 0.25460  0.57820  0.87951  Biso   1.000  C
  C27      1.0000 0.19100  0.67580  0.91891  Biso   1.000  C
  C28      1.0000 0.06870  0.72320  0.87495  Biso   1.000  C
  C29      1.0000 0.01110  0.67280  0.78855  Biso   1.000  C
  C30      1.0000 0.85540  0.80240  0.54444  Biso   1.000  C
  C31      1.0000 0.85760  0.92240  0.54835  Biso   1.000  C
  C32      1.0000 0.80870  0.17780  0.57981  Biso   1.000  C
  C33      1.0000 0.80540  0.29770  0.57702  Biso   1.000  C
  C34      1.0000 0.48330  0.52410  0.35129  Biso   1.000  C
  C35      1.0000 0.42560  0.57579  0.25387  Biso   1.000  C
  C36      1.0000 0.30400  0.52850  0.20693  Biso   1.000  C
  C37      1.0000 0.24540  0.57820  0.12049  Biso   1.000  C
  C38      1.0000 0.30900  0.67580  0.08109  Biso   1.000  C
  C39      1.0000 0.43130  0.72320  0.12505  Biso   1.000  C
  C40      1.0000 0.48890  0.67280  0.21145  Biso   1.000  C
  C41      1.0000 0.64460  0.80240  0.45556  Biso   1.000  C
  C42      1.0000 0.64240  0.92240  0.45165  Biso   1.000  C
  C43      1.0000 0.69130  0.17780  0.42019  Biso   1.000  C
  C44      1.0000 0.69460  0.29770  0.42298  Biso   1.000  C
  C45      1.0000 0.25000  0.01400  0.50000  Biso   1.000  C
  C46      1.0000 0.25000  0.88540  0.50000  Biso   1.000  C
  C47      1.0000 0.75000  0.98600  0.50000  Biso   1.000  C
  C48      1.0000 0.75000  0.11460  0.50000  Biso   1.000  C
  N1       1.0000 0.25000  0.25870  0.50000  Biso   1.000  N
  N2       1.0000 0.25000  0.64080  0.50000  Biso   1.000  N
  N3       1.0000 0.75000  0.74130  0.50000  Biso   1.000  N
  N4       1.0000 0.75000  0.35920  0.50000  Biso   1.000  N
  O1       1.0000 0.10331  0.43752  0.38090  Biso   1.000  O
  O2       1.0000 0.91122  0.55311  0.39329  Biso   1.000  O
  O3       1.0000 0.39669  0.43752  0.61910  Biso   1.000  O
  O4       1.0000 0.58878  0.55311  0.60671  Biso   1.000  O
  O5       1.0000 0.89669  0.56248  0.61910  Biso   1.000  O
  O6       1.0000 0.08878  0.44689  0.60671  Biso   1.000  O
  O7       1.0000 0.60331  0.56248  0.38090  Biso   1.000  O
  O8       1.0000 0.41122  0.44689  0.39329  Biso   1.000  O
  O9       1.0000 0.75000  0.26320  0.00000  Biso   1.000  O
  O10      1.0000 0.25000  0.73680  0.00000  Biso   1.000  O
