data_image0
_cell_length_a       16.063
_cell_length_b       16.485
_cell_length_c       19.025
_cell_angle_alpha    90
_cell_angle_beta     90
_cell_angle_gamma    90

_symmetry_space_group_name_H-M    P 1
_symmetry_int_tables_number       1

loop_
  _symmetry_equiv_pos_as_xyz
  'x, y, z'

loop_
  _atom_site_label
  _atom_site_occupancy
  _atom_site_fract_x
  _atom_site_fract_y
  _atom_site_fract_z
  _atom_site_thermal_displace_type
  _atom_site_B_iso_or_equiv
  _atom_site_type_symbol
  In1      1.0000 0.54413  0.25746  0.01260  Biso   1.000  In
  In2      1.0000 0.27961  0.93052  0.81576  Biso   1.000  In
  In3      1.0000 0.95587  0.24254  0.01260  Biso   1.000  In
  In4      1.0000 0.22039  0.56948  0.81576  Biso   1.000  In
  In5      1.0000 0.45587  0.75746  0.48740  Biso   1.000  In
  In6      1.0000 0.72039  0.43052  0.68424  Biso   1.000  In
  In7      1.0000 0.04413  0.74254  0.48740  Biso   1.000  In
  In8      1.0000 0.77961  0.06948  0.68424  Biso   1.000  In
  In9      1.0000 0.45587  0.74254  0.98740  Biso   1.000  In
  In10     1.0000 0.72039  0.06948  0.18424  Biso   1.000  In
  In11     1.0000 0.04413  0.75746  0.98740  Biso   1.000  In
  In12     1.0000 0.77961  0.43052  0.18424  Biso   1.000  In
  In13     1.0000 0.54413  0.24254  0.51260  Biso   1.000  In
  In14     1.0000 0.27961  0.56948  0.31576  Biso   1.000  In
  In15     1.0000 0.95587  0.25746  0.51260  Biso   1.000  In
  In16     1.0000 0.22039  0.93052  0.31576  Biso   1.000  In
  H1       1.0000 0.20260  0.95610  0.06630  Biso   1.000  H
  H2       1.0000 0.28600  0.06730  0.10010  Biso   1.000  H
  H3       1.0000 0.39230  0.05470  0.91140  Biso   1.000  H
  H4       1.0000 0.02520  0.04380  0.69560  Biso   1.000  H
  H5       1.0000 0.97220  0.12500  0.78420  Biso   1.000  H
  H6       1.0000 0.16540  0.06820  0.90570  Biso   1.000  H
  H7       1.0000 0.42930  0.10180  0.60030  Biso   1.000  H
  H8       1.0000 0.56050  0.23400  0.78250  Biso   1.000  H
  H9       1.0000 0.46150  0.13580  0.80770  Biso   1.000  H
  H10      1.0000 0.29740  0.54390  0.06630  Biso   1.000  H
  H11      1.0000 0.21400  0.43270  0.10010  Biso   1.000  H
  H12      1.0000 0.10770  0.44530  0.91140  Biso   1.000  H
  H13      1.0000 0.47480  0.45620  0.69560  Biso   1.000  H
  H14      1.0000 0.52780  0.37500  0.78420  Biso   1.000  H
  H15      1.0000 0.33460  0.43180  0.90570  Biso   1.000  H
  H16      1.0000 0.07070  0.39820  0.60030  Biso   1.000  H
  H17      1.0000 0.93950  0.26600  0.78250  Biso   1.000  H
  H18      1.0000 0.03850  0.36420  0.80770  Biso   1.000  H
  H19      1.0000 0.79740  0.45610  0.43370  Biso   1.000  H
  H20      1.0000 0.71400  0.56730  0.39990  Biso   1.000  H
  H21      1.0000 0.60770  0.55470  0.58860  Biso   1.000  H
  H22      1.0000 0.97480  0.54380  0.80440  Biso   1.000  H
  H23      1.0000 0.02780  0.62500  0.71580  Biso   1.000  H
  H24      1.0000 0.83460  0.56820  0.59430  Biso   1.000  H
  H25      1.0000 0.57070  0.60180  0.89970  Biso   1.000  H
  H26      1.0000 0.43950  0.73400  0.71750  Biso   1.000  H
  H27      1.0000 0.53850  0.63580  0.69230  Biso   1.000  H
  H28      1.0000 0.70260  0.04390  0.43370  Biso   1.000  H
  H29      1.0000 0.78600  0.93270  0.39990  Biso   1.000  H
  H30      1.0000 0.89230  0.94530  0.58860  Biso   1.000  H
  H31      1.0000 0.52520  0.95620  0.80440  Biso   1.000  H
  H32      1.0000 0.47220  0.87500  0.71580  Biso   1.000  H
  H33      1.0000 0.66540  0.93180  0.59430  Biso   1.000  H
  H34      1.0000 0.92930  0.89820  0.89970  Biso   1.000  H
  H35      1.0000 0.06050  0.76600  0.71750  Biso   1.000  H
  H36      1.0000 0.96150  0.86420  0.69230  Biso   1.000  H
  H37      1.0000 0.79740  0.04390  0.93370  Biso   1.000  H
  H38      1.0000 0.71400  0.93270  0.89990  Biso   1.000  H
  H39      1.0000 0.60770  0.94530  0.08860  Biso   1.000  H
  H40      1.0000 0.97480  0.95620  0.30440  Biso   1.000  H
  H41      1.0000 0.02780  0.87500  0.21580  Biso   1.000  H
  H42      1.0000 0.83460  0.93180  0.09430  Biso   1.000  H
  H43      1.0000 0.57070  0.89820  0.39970  Biso   1.000  H
  H44      1.0000 0.43950  0.76600  0.21750  Biso   1.000  H
  H45      1.0000 0.53850  0.86420  0.19230  Biso   1.000  H
  H46      1.0000 0.70260  0.45610  0.93370  Biso   1.000  H
  H47      1.0000 0.78600  0.56730  0.89990  Biso   1.000  H
  H48      1.0000 0.89230  0.55470  0.08860  Biso   1.000  H
  H49      1.0000 0.52520  0.54380  0.30440  Biso   1.000  H
  H50      1.0000 0.47220  0.62500  0.21580  Biso   1.000  H
  H51      1.0000 0.66540  0.56820  0.09430  Biso   1.000  H
  H52      1.0000 0.92930  0.60180  0.39970  Biso   1.000  H
  H53      1.0000 0.06050  0.73400  0.21750  Biso   1.000  H
  H54      1.0000 0.96150  0.63580  0.19230  Biso   1.000  H
  H55      1.0000 0.20260  0.54390  0.56630  Biso   1.000  H
  H56      1.0000 0.28600  0.43270  0.60010  Biso   1.000  H
  H57      1.0000 0.39230  0.44530  0.41140  Biso   1.000  H
  H58      1.0000 0.02520  0.45620  0.19560  Biso   1.000  H
  H59      1.0000 0.97220  0.37500  0.28420  Biso   1.000  H
  H60      1.0000 0.16540  0.43180  0.40570  Biso   1.000  H
  H61      1.0000 0.42930  0.39820  0.10030  Biso   1.000  H
  H62      1.0000 0.56050  0.26600  0.28250  Biso   1.000  H
  H63      1.0000 0.46150  0.36420  0.30770  Biso   1.000  H
  H64      1.0000 0.29740  0.95610  0.56630  Biso   1.000  H
  H65      1.0000 0.21400  0.06730  0.60010  Biso   1.000  H
  H66      1.0000 0.10770  0.05470  0.41140  Biso   1.000  H
  H67      1.0000 0.47480  0.04380  0.19560  Biso   1.000  H
  H68      1.0000 0.52780  0.12500  0.28420  Biso   1.000  H
  H69      1.0000 0.33460  0.06820  0.40570  Biso   1.000  H
  H70      1.0000 0.07070  0.10180  0.10030  Biso   1.000  H
  H71      1.0000 0.93950  0.23400  0.28250  Biso   1.000  H
  H72      1.0000 0.03850  0.13580  0.30770  Biso   1.000  H
  C1       1.0000 0.19240  0.87800  0.94670  Biso   1.000  C
  C2       1.0000 0.24880  0.94660  0.97360  Biso   1.000  C
  C3       1.0000 0.24150  0.97740  0.03510  Biso   1.000  C
  C4       1.0000 0.29210  0.04380  0.05600  Biso   1.000  C
  C5       1.0000 0.34980  0.07230  0.00970  Biso   1.000  C
  C6       1.0000 0.35320  0.03600  0.94360  Biso   1.000  C
  C7       1.0000 0.40750  0.14140  0.02880  Biso   1.000  C
  C8       1.0000 0.15230  0.93810  0.70230  Biso   1.000  C
  C9       1.0000 0.12200  0.00420  0.75360  Biso   1.000  C
  C10      1.0000 0.05140  0.04730  0.73910  Biso   1.000  C
  C11      1.0000 0.02090  0.09570  0.79150  Biso   1.000  C
  C12      1.0000 0.06160  0.10160  0.85510  Biso   1.000  C
  C13      1.0000 0.13590  0.06140  0.86400  Biso   1.000  C
  C14      1.0000 0.02720  0.15130  0.91520  Biso   1.000  C
  C15      1.0000 0.37130  0.04430  0.72100  Biso   1.000  C
  C16      1.0000 0.43400  0.11040  0.70900  Biso   1.000  C
  C17      1.0000 0.45390  0.13060  0.63680  Biso   1.000  C
  C18      1.0000 0.54530  0.22880  0.67610  Biso   1.000  C
  C19      1.0000 0.53140  0.20830  0.74660  Biso   1.000  C
  C20      1.0000 0.47340  0.14900  0.76120  Biso   1.000  C
  C21      1.0000 0.60270  0.29590  0.65510  Biso   1.000  C
  C22      1.0000 0.30760  0.62200  0.94670  Biso   1.000  C
  C23      1.0000 0.25120  0.55340  0.97360  Biso   1.000  C
  C24      1.0000 0.25850  0.52260  0.03510  Biso   1.000  C
  C25      1.0000 0.20790  0.45620  0.05600  Biso   1.000  C
  C26      1.0000 0.15020  0.42770  0.00970  Biso   1.000  C
  C27      1.0000 0.14680  0.46400  0.94360  Biso   1.000  C
  C28      1.0000 0.09250  0.35860  0.02880  Biso   1.000  C
  C29      1.0000 0.34770  0.56190  0.70230  Biso   1.000  C
  C30      1.0000 0.37800  0.49580  0.75360  Biso   1.000  C
  C31      1.0000 0.44860  0.45270  0.73910  Biso   1.000  C
  C32      1.0000 0.47910  0.40430  0.79150  Biso   1.000  C
  C33      1.0000 0.43840  0.39840  0.85510  Biso   1.000  C
  C34      1.0000 0.36410  0.43860  0.86400  Biso   1.000  C
  C35      1.0000 0.47280  0.34870  0.91520  Biso   1.000  C
  C36      1.0000 0.12870  0.45570  0.72100  Biso   1.000  C
  C37      1.0000 0.06600  0.38960  0.70900  Biso   1.000  C
  C38      1.0000 0.04610  0.36940  0.63680  Biso   1.000  C
  C39      1.0000 0.95470  0.27120  0.67610  Biso   1.000  C
  C40      1.0000 0.96860  0.29170  0.74660  Biso   1.000  C
  C41      1.0000 0.02660  0.35100  0.76120  Biso   1.000  C
  C42      1.0000 0.89730  0.20410  0.65510  Biso   1.000  C
  C43      1.0000 0.80760  0.37800  0.55330  Biso   1.000  C
  C44      1.0000 0.75120  0.44660  0.52640  Biso   1.000  C
  C45      1.0000 0.75850  0.47740  0.46490  Biso   1.000  C
  C46      1.0000 0.70790  0.54380  0.44400  Biso   1.000  C
  C47      1.0000 0.65020  0.57230  0.49030  Biso   1.000  C
  C48      1.0000 0.64680  0.53600  0.55640  Biso   1.000  C
  C49      1.0000 0.59250  0.64140  0.47120  Biso   1.000  C
  C50      1.0000 0.84770  0.43810  0.79770  Biso   1.000  C
  C51      1.0000 0.87800  0.50420  0.74640  Biso   1.000  C
  C52      1.0000 0.94860  0.54730  0.76090  Biso   1.000  C
  C53      1.0000 0.97910  0.59570  0.70850  Biso   1.000  C
  C54      1.0000 0.93840  0.60160  0.64490  Biso   1.000  C
  C55      1.0000 0.86410  0.56140  0.63600  Biso   1.000  C
  C56      1.0000 0.97280  0.65130  0.58480  Biso   1.000  C
  C57      1.0000 0.62870  0.54430  0.77900  Biso   1.000  C
  C58      1.0000 0.56600  0.61040  0.79100  Biso   1.000  C
  C59      1.0000 0.54610  0.63060  0.86320  Biso   1.000  C
  C60      1.0000 0.45470  0.72880  0.82390  Biso   1.000  C
  C61      1.0000 0.46860  0.70830  0.75340  Biso   1.000  C
  C62      1.0000 0.52660  0.64900  0.73880  Biso   1.000  C
  C63      1.0000 0.39730  0.79590  0.84490  Biso   1.000  C
  C64      1.0000 0.69240  0.12200  0.55330  Biso   1.000  C
  C65      1.0000 0.74880  0.05340  0.52640  Biso   1.000  C
  C66      1.0000 0.74150  0.02260  0.46490  Biso   1.000  C
  C67      1.0000 0.79210  0.95620  0.44400  Biso   1.000  C
  C68      1.0000 0.84980  0.92770  0.49030  Biso   1.000  C
  C69      1.0000 0.85320  0.96400  0.55640  Biso   1.000  C
  C70      1.0000 0.90750  0.85860  0.47120  Biso   1.000  C
  C71      1.0000 0.65230  0.06190  0.79770  Biso   1.000  C
  C72      1.0000 0.62200  0.99580  0.74640  Biso   1.000  C
  C73      1.0000 0.55140  0.95270  0.76090  Biso   1.000  C
  C74      1.0000 0.52090  0.90430  0.70850  Biso   1.000  C
  C75      1.0000 0.56160  0.89840  0.64490  Biso   1.000  C
  C76      1.0000 0.63590  0.93860  0.63600  Biso   1.000  C
  C77      1.0000 0.52720  0.84870  0.58480  Biso   1.000  C
  C78      1.0000 0.87130  0.95570  0.77900  Biso   1.000  C
  C79      1.0000 0.93400  0.88960  0.79100  Biso   1.000  C
  C80      1.0000 0.95390  0.86940  0.86320  Biso   1.000  C
  C81      1.0000 0.04530  0.77120  0.82390  Biso   1.000  C
  C82      1.0000 0.03140  0.79170  0.75340  Biso   1.000  C
  C83      1.0000 0.97340  0.85100  0.73880  Biso   1.000  C
  C84      1.0000 0.10270  0.70410  0.84490  Biso   1.000  C
  C85      1.0000 0.80760  0.12200  0.05330  Biso   1.000  C
  C86      1.0000 0.75120  0.05340  0.02640  Biso   1.000  C
  C87      1.0000 0.75850  0.02260  0.96490  Biso   1.000  C
  C88      1.0000 0.70790  0.95620  0.94400  Biso   1.000  C
  C89      1.0000 0.65020  0.92770  0.99030  Biso   1.000  C
  C90      1.0000 0.64680  0.96400  0.05640  Biso   1.000  C
  C91      1.0000 0.59250  0.85860  0.97120  Biso   1.000  C
  C92      1.0000 0.84770  0.06190  0.29770  Biso   1.000  C
  C93      1.0000 0.87800  0.99580  0.24640  Biso   1.000  C
  C94      1.0000 0.94860  0.95270  0.26090  Biso   1.000  C
  C95      1.0000 0.97910  0.90430  0.20850  Biso   1.000  C
  C96      1.0000 0.93840  0.89840  0.14490  Biso   1.000  C
  C97      1.0000 0.86410  0.93860  0.13600  Biso   1.000  C
  C98      1.0000 0.97280  0.84870  0.08480  Biso   1.000  C
  C99      1.0000 0.62870  0.95570  0.27900  Biso   1.000  C
  C100     1.0000 0.56600  0.88960  0.29100  Biso   1.000  C
  C101     1.0000 0.54610  0.86940  0.36320  Biso   1.000  C
  C102     1.0000 0.45470  0.77120  0.32390  Biso   1.000  C
  C103     1.0000 0.46860  0.79170  0.25340  Biso   1.000  C
  C104     1.0000 0.52660  0.85100  0.23880  Biso   1.000  C
  C105     1.0000 0.39730  0.70410  0.34490  Biso   1.000  C
  C106     1.0000 0.69240  0.37800  0.05330  Biso   1.000  C
  C107     1.0000 0.74880  0.44660  0.02640  Biso   1.000  C
  C108     1.0000 0.74150  0.47740  0.96490  Biso   1.000  C
  C109     1.0000 0.79210  0.54380  0.94400  Biso   1.000  C
  C110     1.0000 0.84980  0.57230  0.99030  Biso   1.000  C
  C111     1.0000 0.85320  0.53600  0.05640  Biso   1.000  C
  C112     1.0000 0.90750  0.64140  0.97120  Biso   1.000  C
  C113     1.0000 0.65230  0.43810  0.29770  Biso   1.000  C
  C114     1.0000 0.62200  0.50420  0.24640  Biso   1.000  C
  C115     1.0000 0.55140  0.54730  0.26090  Biso   1.000  C
  C116     1.0000 0.52090  0.59570  0.20850  Biso   1.000  C
  C117     1.0000 0.56160  0.60160  0.14490  Biso   1.000  C
  C118     1.0000 0.63590  0.56140  0.13600  Biso   1.000  C
  C119     1.0000 0.52720  0.65130  0.08480  Biso   1.000  C
  C120     1.0000 0.87130  0.54430  0.27900  Biso   1.000  C
  C121     1.0000 0.93400  0.61040  0.29100  Biso   1.000  C
  C122     1.0000 0.95390  0.63060  0.36320  Biso   1.000  C
  C123     1.0000 0.04530  0.72880  0.32390  Biso   1.000  C
  C124     1.0000 0.03140  0.70830  0.25340  Biso   1.000  C
  C125     1.0000 0.97340  0.64900  0.23880  Biso   1.000  C
  C126     1.0000 0.10270  0.79590  0.34490  Biso   1.000  C
  C127     1.0000 0.19240  0.62200  0.44670  Biso   1.000  C
  C128     1.0000 0.24880  0.55340  0.47360  Biso   1.000  C
  C129     1.0000 0.24150  0.52260  0.53510  Biso   1.000  C
  C130     1.0000 0.29210  0.45620  0.55600  Biso   1.000  C
  C131     1.0000 0.34980  0.42770  0.50970  Biso   1.000  C
  C132     1.0000 0.35320  0.46400  0.44360  Biso   1.000  C
  C133     1.0000 0.40750  0.35860  0.52880  Biso   1.000  C
  C134     1.0000 0.15230  0.56190  0.20230  Biso   1.000  C
  C135     1.0000 0.12200  0.49580  0.25360  Biso   1.000  C
  C136     1.0000 0.05140  0.45270  0.23910  Biso   1.000  C
  C137     1.0000 0.02090  0.40430  0.29150  Biso   1.000  C
  C138     1.0000 0.06160  0.39840  0.35510  Biso   1.000  C
  C139     1.0000 0.13590  0.43860  0.36400  Biso   1.000  C
  C140     1.0000 0.02720  0.34870  0.41520  Biso   1.000  C
  C141     1.0000 0.37130  0.45570  0.22100  Biso   1.000  C
  C142     1.0000 0.43400  0.38960  0.20900  Biso   1.000  C
  C143     1.0000 0.45390  0.36940  0.13680  Biso   1.000  C
  C144     1.0000 0.54530  0.27120  0.17610  Biso   1.000  C
  C145     1.0000 0.53140  0.29170  0.24660  Biso   1.000  C
  C146     1.0000 0.47340  0.35100  0.26120  Biso   1.000  C
  C147     1.0000 0.60270  0.20410  0.15510  Biso   1.000  C
  C148     1.0000 0.30760  0.87800  0.44670  Biso   1.000  C
  C149     1.0000 0.25120  0.94660  0.47360  Biso   1.000  C
  C150     1.0000 0.25850  0.97740  0.53510  Biso   1.000  C
  C151     1.0000 0.20790  0.04380  0.55600  Biso   1.000  C
  C152     1.0000 0.15020  0.07230  0.50970  Biso   1.000  C
  C153     1.0000 0.14680  0.03600  0.44360  Biso   1.000  C
  C154     1.0000 0.09250  0.14140  0.52880  Biso   1.000  C
  C155     1.0000 0.34770  0.93810  0.20230  Biso   1.000  C
  C156     1.0000 0.37800  0.00420  0.25360  Biso   1.000  C
  C157     1.0000 0.44860  0.04730  0.23910  Biso   1.000  C
  C158     1.0000 0.47910  0.09570  0.29150  Biso   1.000  C
  C159     1.0000 0.43840  0.10160  0.35510  Biso   1.000  C
  C160     1.0000 0.36410  0.06140  0.36400  Biso   1.000  C
  C161     1.0000 0.47280  0.15130  0.41520  Biso   1.000  C
  C162     1.0000 0.12870  0.04430  0.22100  Biso   1.000  C
  C163     1.0000 0.06600  0.11040  0.20900  Biso   1.000  C
  C164     1.0000 0.04610  0.13060  0.13680  Biso   1.000  C
  C165     1.0000 0.95470  0.22880  0.17610  Biso   1.000  C
  C166     1.0000 0.96860  0.20830  0.24660  Biso   1.000  C
  C167     1.0000 0.02660  0.14900  0.26120  Biso   1.000  C
  C168     1.0000 0.89730  0.29590  0.15510  Biso   1.000  C
  N1       1.0000 0.30250  0.97540  0.92430  Biso   1.000  N
  N2       1.0000 0.16740  0.01180  0.81310  Biso   1.000  N
  N3       1.0000 0.50710  0.19010  0.62250  Biso   1.000  N
  N4       1.0000 0.19750  0.52460  0.92430  Biso   1.000  N
  N5       1.0000 0.33260  0.48820  0.81310  Biso   1.000  N
  N6       1.0000 0.99290  0.30990  0.62250  Biso   1.000  N
  N7       1.0000 0.69750  0.47540  0.57570  Biso   1.000  N
  N8       1.0000 0.83260  0.51180  0.68690  Biso   1.000  N
  N9       1.0000 0.49290  0.69010  0.87750  Biso   1.000  N
  N10      1.0000 0.80250  0.02460  0.57570  Biso   1.000  N
  N11      1.0000 0.66740  0.98820  0.68690  Biso   1.000  N
  N12      1.0000 0.00710  0.80990  0.87750  Biso   1.000  N
  N13      1.0000 0.69750  0.02460  0.07570  Biso   1.000  N
  N14      1.0000 0.83260  0.98820  0.18690  Biso   1.000  N
  N15      1.0000 0.49290  0.80990  0.37750  Biso   1.000  N
  N16      1.0000 0.80250  0.47540  0.07570  Biso   1.000  N
  N17      1.0000 0.66740  0.51180  0.18690  Biso   1.000  N
  N18      1.0000 0.00710  0.69010  0.37750  Biso   1.000  N
  N19      1.0000 0.30250  0.52460  0.42430  Biso   1.000  N
  N20      1.0000 0.16740  0.48820  0.31310  Biso   1.000  N
  N21      1.0000 0.50710  0.30990  0.12250  Biso   1.000  N
  N22      1.0000 0.19750  0.97540  0.42430  Biso   1.000  N
  N23      1.0000 0.33260  0.01180  0.31310  Biso   1.000  N
  N24      1.0000 0.99290  0.19010  0.12250  Biso   1.000  N
  O1       1.0000 0.20000  0.85450  0.88340  Biso   1.000  O
  O2       1.0000 0.14350  0.84850  0.99030  Biso   1.000  O
  O3       1.0000 0.39420  0.18090  0.08090  Biso   1.000  O
  O4       1.0000 0.46530  0.15810  0.98670  Biso   1.000  O
  O5       1.0000 0.21150  0.89320  0.72550  Biso   1.000  O
  O6       1.0000 0.11410  0.92900  0.64760  Biso   1.000  O
  O7       1.0000 0.97100  0.20330  0.89910  Biso   1.000  O
  O8       1.0000 0.05200  0.14530  0.97600  Biso   1.000  O
  O9       1.0000 0.36620  0.02060  0.78510  Biso   1.000  O
  O10      1.0000 0.33220  0.01520  0.67520  Biso   1.000  O
  O11      1.0000 0.63980  0.33200  0.70470  Biso   1.000  O
  O12      1.0000 0.60710  0.31600  0.59310  Biso   1.000  O
  O13      1.0000 0.64190  0.18890  0.95330  Biso   1.000  O
  O14      1.0000 0.30000  0.64550  0.88340  Biso   1.000  O
  O15      1.0000 0.35650  0.65150  0.99030  Biso   1.000  O
  O16      1.0000 0.10580  0.31910  0.08090  Biso   1.000  O
  O17      1.0000 0.03470  0.34190  0.98670  Biso   1.000  O
  O18      1.0000 0.28850  0.60680  0.72550  Biso   1.000  O
  O19      1.0000 0.38590  0.57100  0.64760  Biso   1.000  O
  O20      1.0000 0.52900  0.29670  0.89910  Biso   1.000  O
  O21      1.0000 0.44800  0.35470  0.97600  Biso   1.000  O
  O22      1.0000 0.13380  0.47940  0.78510  Biso   1.000  O
  O23      1.0000 0.16780  0.48480  0.67520  Biso   1.000  O
  O24      1.0000 0.86020  0.16800  0.70470  Biso   1.000  O
  O25      1.0000 0.89290  0.18400  0.59310  Biso   1.000  O
  O26      1.0000 0.85810  0.31110  0.95330  Biso   1.000  O
  O27      1.0000 0.80000  0.35450  0.61660  Biso   1.000  O
  O28      1.0000 0.85650  0.34850  0.50970  Biso   1.000  O
  O29      1.0000 0.60580  0.68090  0.41910  Biso   1.000  O
  O30      1.0000 0.53470  0.65810  0.51330  Biso   1.000  O
  O31      1.0000 0.78850  0.39320  0.77450  Biso   1.000  O
  O32      1.0000 0.88590  0.42900  0.85240  Biso   1.000  O
  O33      1.0000 0.02900  0.70330  0.60090  Biso   1.000  O
  O34      1.0000 0.94800  0.64530  0.52400  Biso   1.000  O
  O35      1.0000 0.63380  0.52060  0.71490  Biso   1.000  O
  O36      1.0000 0.66780  0.51520  0.82480  Biso   1.000  O
  O37      1.0000 0.36020  0.83200  0.79530  Biso   1.000  O
  O38      1.0000 0.39290  0.81600  0.90690  Biso   1.000  O
  O39      1.0000 0.35810  0.68890  0.54670  Biso   1.000  O
  O40      1.0000 0.70000  0.14550  0.61660  Biso   1.000  O
  O41      1.0000 0.64350  0.15150  0.50970  Biso   1.000  O
  O42      1.0000 0.89420  0.81910  0.41910  Biso   1.000  O
  O43      1.0000 0.96530  0.84190  0.51330  Biso   1.000  O
  O44      1.0000 0.71150  0.10680  0.77450  Biso   1.000  O
  O45      1.0000 0.61410  0.07100  0.85240  Biso   1.000  O
  O46      1.0000 0.47100  0.79670  0.60090  Biso   1.000  O
  O47      1.0000 0.55200  0.85470  0.52400  Biso   1.000  O
  O48      1.0000 0.86620  0.97940  0.71490  Biso   1.000  O
  O49      1.0000 0.83220  0.98480  0.82480  Biso   1.000  O
  O50      1.0000 0.13980  0.66800  0.79530  Biso   1.000  O
  O51      1.0000 0.10710  0.68400  0.90690  Biso   1.000  O
  O52      1.0000 0.14190  0.81110  0.54670  Biso   1.000  O
  O53      1.0000 0.80000  0.14550  0.11660  Biso   1.000  O
  O54      1.0000 0.85650  0.15150  0.00970  Biso   1.000  O
  O55      1.0000 0.60580  0.81910  0.91910  Biso   1.000  O
  O56      1.0000 0.53470  0.84190  0.01330  Biso   1.000  O
  O57      1.0000 0.78850  0.10680  0.27450  Biso   1.000  O
  O58      1.0000 0.88590  0.07100  0.35240  Biso   1.000  O
  O59      1.0000 0.02900  0.79670  0.10090  Biso   1.000  O
  O60      1.0000 0.94800  0.85470  0.02400  Biso   1.000  O
  O61      1.0000 0.63380  0.97940  0.21490  Biso   1.000  O
  O62      1.0000 0.66780  0.98480  0.32480  Biso   1.000  O
  O63      1.0000 0.36020  0.66800  0.29530  Biso   1.000  O
  O64      1.0000 0.39290  0.68400  0.40690  Biso   1.000  O
  O65      1.0000 0.35810  0.81110  0.04670  Biso   1.000  O
  O66      1.0000 0.70000  0.35450  0.11660  Biso   1.000  O
  O67      1.0000 0.64350  0.34850  0.00970  Biso   1.000  O
  O68      1.0000 0.89420  0.68090  0.91910  Biso   1.000  O
  O69      1.0000 0.96530  0.65810  0.01330  Biso   1.000  O
  O70      1.0000 0.71150  0.39320  0.27450  Biso   1.000  O
  O71      1.0000 0.61410  0.42900  0.35240  Biso   1.000  O
  O72      1.0000 0.47100  0.70330  0.10090  Biso   1.000  O
  O73      1.0000 0.55200  0.64530  0.02400  Biso   1.000  O
  O74      1.0000 0.86620  0.52060  0.21490  Biso   1.000  O
  O75      1.0000 0.83220  0.51520  0.32480  Biso   1.000  O
  O76      1.0000 0.13980  0.83200  0.29530  Biso   1.000  O
  O77      1.0000 0.10710  0.81600  0.40690  Biso   1.000  O
  O78      1.0000 0.14190  0.68890  0.04670  Biso   1.000  O
  O79      1.0000 0.20000  0.64550  0.38340  Biso   1.000  O
  O80      1.0000 0.14350  0.65150  0.49030  Biso   1.000  O
  O81      1.0000 0.39420  0.31910  0.58090  Biso   1.000  O
  O82      1.0000 0.46530  0.34190  0.48670  Biso   1.000  O
  O83      1.0000 0.21150  0.60680  0.22550  Biso   1.000  O
  O84      1.0000 0.11410  0.57100  0.14760  Biso   1.000  O
  O85      1.0000 0.97100  0.29670  0.39910  Biso   1.000  O
  O86      1.0000 0.05200  0.35470  0.47600  Biso   1.000  O
  O87      1.0000 0.36620  0.47940  0.28510  Biso   1.000  O
  O88      1.0000 0.33220  0.48480  0.17520  Biso   1.000  O
  O89      1.0000 0.63980  0.16800  0.20470  Biso   1.000  O
  O90      1.0000 0.60710  0.18400  0.09310  Biso   1.000  O
  O91      1.0000 0.64190  0.31110  0.45330  Biso   1.000  O
  O92      1.0000 0.30000  0.85450  0.38340  Biso   1.000  O
  O93      1.0000 0.35650  0.84850  0.49030  Biso   1.000  O
  O94      1.0000 0.10580  0.18090  0.58090  Biso   1.000  O
  O95      1.0000 0.03470  0.15810  0.48670  Biso   1.000  O
  O96      1.0000 0.28850  0.89320  0.22550  Biso   1.000  O
  O97      1.0000 0.38590  0.92900  0.14760  Biso   1.000  O
  O98      1.0000 0.52900  0.20330  0.39910  Biso   1.000  O
  O99      1.0000 0.44800  0.14530  0.47600  Biso   1.000  O
  O100     1.0000 0.13380  0.02060  0.28510  Biso   1.000  O
  O101     1.0000 0.16780  0.01520  0.17520  Biso   1.000  O
  O102     1.0000 0.86020  0.33200  0.20470  Biso   1.000  O
  O103     1.0000 0.89290  0.31600  0.09310  Biso   1.000  O
  O104     1.0000 0.85810  0.18890  0.45330  Biso   1.000  O
