data_image0
_cell_length_a       13.2793
_cell_length_b       15.4414
_cell_length_c       18.463
_cell_angle_alpha    105.483
_cell_angle_beta     90
_cell_angle_gamma    115.467

_symmetry_space_group_name_H-M    P 1
_symmetry_int_tables_number       1

loop_
  _symmetry_equiv_pos_as_xyz
  'x, y, z'

loop_
  _atom_site_label
  _atom_site_occupancy
  _atom_site_fract_x
  _atom_site_fract_y
  _atom_site_fract_z
  _atom_site_thermal_displace_type
  _atom_site_B_iso_or_equiv
  _atom_site_type_symbol
  Co1      1.0000 0.24305  0.56610  0.96430  Biso   1.000  Co
  Co2      1.0000 0.67695  0.43390  0.53570  Biso   1.000  Co
  Co3      1.0000 0.61416  0.00000  0.75000  Biso   1.000  Co
  H1       1.0000 0.74520  0.25320  0.64110  Biso   1.000  H
  H2       1.0000 0.01850  0.51660  0.71950  Biso   1.000  H
  H3       1.0000 0.95360  0.30280  0.82010  Biso   1.000  H
  H4       1.0000 0.03240  0.61340  0.02500  Biso   1.000  H
  H5       1.0000 0.02900  0.77260  0.03500  Biso   1.000  H
  H6       1.0000 0.32910  0.79560  0.99280  Biso   1.000  H
  H7       1.0000 0.14030  0.96240  0.08850  Biso   1.000  H
  H8       1.0000 0.34890  0.18560  0.00980  Biso   1.000  H
  H9       1.0000 0.33200  0.91060  0.93100  Biso   1.000  H
  H10      1.0000 0.48750  0.98020  0.88770  Biso   1.000  H
  H11      1.0000 0.56020  0.20360  0.80610  Biso   1.000  H
  H12      1.0000 0.43350  0.21420  0.89850  Biso   1.000  H
  H13      1.0000 0.13260  0.07840  0.17910  Biso   1.000  H
  H14      1.0000 0.10930  0.33800  0.22780  Biso   1.000  H
  H15      1.0000 0.24680  0.25640  0.04470  Biso   1.000  H
  H16      1.0000 0.22760  0.50520  0.21930  Biso   1.000  H
  H17      1.0000 0.26010  0.62280  0.14630  Biso   1.000  H
  H18      1.0000 0.19970  0.36440  0.00280  Biso   1.000  H
  H19      1.0000 0.95820  0.02960  0.24750  Biso   1.000  H
  H20      1.0000 0.94410  0.06260  0.38690  Biso   1.000  H
  H21      1.0000 0.13620  0.31640  0.35560  Biso   1.000  H
  H22      1.0000 0.49200  0.74680  0.85890  Biso   1.000  H
  H23      1.0000 0.50190  0.48340  0.78050  Biso   1.000  H
  H24      1.0000 0.65080  0.69720  0.67990  Biso   1.000  H
  H25      1.0000 0.41900  0.38660  0.47500  Biso   1.000  H
  H26      1.0000 0.25640  0.22740  0.46500  Biso   1.000  H
  H27      1.0000 0.53350  0.20440  0.50720  Biso   1.000  H
  H28      1.0000 0.17790  0.03760  0.41150  Biso   1.000  H
  H29      1.0000 0.16330  0.81440  0.49020  Biso   1.000  H
  H30      1.0000 0.42140  0.08940  0.56900  Biso   1.000  H
  H31      1.0000 0.50730  0.01980  0.61230  Biso   1.000  H
  H32      1.0000 0.35660  0.79640  0.69390  Biso   1.000  H
  H33      1.0000 0.21930  0.78580  0.60150  Biso   1.000  H
  H34      1.0000 0.05420  0.92160  0.32090  Biso   1.000  H
  H35      1.0000 0.77130  0.66200  0.27220  Biso   1.000  H
  H36      1.0000 0.99040  0.74360  0.45530  Biso   1.000  H
  H37      1.0000 0.72240  0.49480  0.28070  Biso   1.000  H
  H38      1.0000 0.63730  0.37720  0.35370  Biso   1.000  H
  H39      1.0000 0.83530  0.63560  0.49720  Biso   1.000  H
  H40      1.0000 0.92860  0.97040  0.25250  Biso   1.000  H
  H41      1.0000 0.88150  0.93740  0.11310  Biso   1.000  H
  H42      1.0000 0.81980  0.68360  0.14440  Biso   1.000  H
  C1       1.0000 0.76367  0.15914  0.73640  Biso   1.000  C
  C2       1.0000 0.83854  0.26128  0.73120  Biso   1.000  C
  C3       1.0000 0.80976  0.29532  0.67560  Biso   1.000  C
  C4       1.0000 0.87564  0.39048  0.67100  Biso   1.000  C
  C5       1.0000 0.83727  0.42794  0.61490  Biso   1.000  C
  C6       1.0000 0.97284  0.45268  0.72270  Biso   1.000  C
  C7       1.0000 0.00191  0.42062  0.77850  Biso   1.000  C
  C8       1.0000 0.93429  0.32478  0.78240  Biso   1.000  C
  C9       1.0000 0.10316  0.48872  0.83590  Biso   1.000  C
  C10      1.0000 0.09226  0.67052  0.01940  Biso   1.000  C
  C11      1.0000 0.08968  0.75816  0.02520  Biso   1.000  C
  C12      1.0000 0.25439  0.76938  0.00180  Biso   1.000  C
  C13      1.0000 0.23356  0.92312  0.01280  Biso   1.000  C
  C14      1.0000 0.19416  0.98592  0.05720  Biso   1.000  C
  C15      1.0000 0.23508  0.08456  0.05520  Biso   1.000  C
  C16      1.0000 0.31767  0.11874  0.00950  Biso   1.000  C
  C17      1.0000 0.35355  0.05370  0.96360  Biso   1.000  C
  C18      1.0000 0.31015  0.95490  0.96350  Biso   1.000  C
  C19      1.0000 0.48972  0.03724  0.87830  Biso   1.000  C
  C20      1.0000 0.52902  0.15904  0.83440  Biso   1.000  C
  C21      1.0000 0.45926  0.16552  0.88500  Biso   1.000  C
  C22      1.0000 0.19412  0.15404  0.10270  Biso   1.000  C
  C23      1.0000 0.14438  0.13636  0.16690  Biso   1.000  C
  C24      1.0000 0.11256  0.20392  0.21220  Biso   1.000  C
  C25      1.0000 0.13026  0.29212  0.19650  Biso   1.000  C
  C26      1.0000 0.18008  0.30936  0.13280  Biso   1.000  C
  C27      1.0000 0.21231  0.24242  0.08690  Biso   1.000  C
  C28      1.0000 0.22544  0.49108  0.16700  Biso   1.000  C
  C29      1.0000 0.24335  0.55550  0.12610  Biso   1.000  C
  C30      1.0000 0.21016  0.41452  0.04750  Biso   1.000  C
  C31      1.0000 0.99320  0.09040  0.28570  Biso   1.000  C
  C32      1.0000 0.98520  0.11040  0.36320  Biso   1.000  C
  C33      1.0000 0.09080  0.24780  0.34570  Biso   1.000  C
  C34      1.0000 0.60453  0.84086  0.76360  Biso   1.000  C
  C35      1.0000 0.57726  0.73872  0.76880  Biso   1.000  C
  C36      1.0000 0.51444  0.70468  0.82440  Biso   1.000  C
  C37      1.0000 0.48516  0.60952  0.82900  Biso   1.000  C
  C38      1.0000 0.40933  0.57206  0.88510  Biso   1.000  C
  C39      1.0000 0.52016  0.54732  0.77730  Biso   1.000  C
  C40      1.0000 0.58129  0.57938  0.72150  Biso   1.000  C
  C41      1.0000 0.60951  0.67522  0.71760  Biso   1.000  C
  C42      1.0000 0.61444  0.51128  0.66410  Biso   1.000  C
  C43      1.0000 0.42174  0.32948  0.48060  Biso   1.000  C
  C44      1.0000 0.33152  0.24184  0.47480  Biso   1.000  C
  C45      1.0000 0.48501  0.23062  0.49820  Biso   1.000  C
  C46      1.0000 0.31044  0.07688  0.48720  Biso   1.000  C
  C47      1.0000 0.20824  0.01408  0.44280  Biso   1.000  C
  C48      1.0000 0.15052  0.91544  0.44480  Biso   1.000  C
  C49      1.0000 0.19893  0.88126  0.49050  Biso   1.000  C
  C50      1.0000 0.29985  0.94630  0.53640  Biso   1.000  C
  C51      1.0000 0.35525  0.04510  0.53650  Biso   1.000  C
  C52      1.0000 0.45248  0.96276  0.62170  Biso   1.000  C
  C53      1.0000 0.36998  0.84096  0.66560  Biso   1.000  C
  C54      1.0000 0.29374  0.83448  0.61500  Biso   1.000  C
  C55      1.0000 0.04008  0.84596  0.39730  Biso   1.000  C
  C56      1.0000 0.00802  0.86364  0.33310  Biso   1.000  C
  C57      1.0000 0.90864  0.79608  0.28780  Biso   1.000  C
  C58      1.0000 0.83814  0.70788  0.30350  Biso   1.000  C
  C59      1.0000 0.87072  0.69064  0.36720  Biso   1.000  C
  C60      1.0000 0.96989  0.75758  0.41310  Biso   1.000  C
  C61      1.0000 0.73436  0.50892  0.33300  Biso   1.000  C
  C62      1.0000 0.68785  0.44450  0.37390  Biso   1.000  C
  C63      1.0000 0.79564  0.58548  0.45250  Biso   1.000  C
  C64      1.0000 0.90280  0.90960  0.21430  Biso   1.000  C
  C65      1.0000 0.87480  0.88960  0.13680  Biso   1.000  C
  C66      1.0000 0.84300  0.75220  0.15430  Biso   1.000  C
  N1       1.0000 0.19578  0.67756  0.00400  Biso   1.000  N
  N2       1.0000 0.19374  0.82148  0.01394  Biso   1.000  N
  N3       1.0000 0.43312  0.08624  0.91329  Biso   1.000  N
  N4       1.0000 0.54842  0.07824  0.82965  Biso   1.000  N
  N5       1.0000 0.20330  0.40080  0.11584  Biso   1.000  N
  N6       1.0000 0.23359  0.50778  0.05089  Biso   1.000  N
  N7       1.0000 0.06812  0.18604  0.27978  Biso   1.000  N
  N8       1.0000 0.04540  0.20760  0.39810  Biso   1.000  N
  N9       1.0000 0.51822  0.32244  0.49600  Biso   1.000  N
  N10      1.0000 0.37226  0.17852  0.48606  Biso   1.000  N
  N11      1.0000 0.34688  0.91376  0.58671  Biso   1.000  N
  N12      1.0000 0.47018  0.92176  0.67035  Biso   1.000  N
  N13      1.0000 0.80250  0.59920  0.38416  Biso   1.000  N
  N14      1.0000 0.72581  0.49222  0.44911  Biso   1.000  N
  N15      1.0000 0.88208  0.81396  0.22022  Biso   1.000  N
  N16      1.0000 0.83780  0.79240  0.10190  Biso   1.000  N
  O1       1.0000 0.11329  0.45898  0.89296  Biso   1.000  O
  O2       1.0000 0.17250  0.56800  0.82789  Biso   1.000  O
  O3       1.0000 0.78898  0.12296  0.78214  Biso   1.000  O
  O4       1.0000 0.67153  0.10966  0.69406  Biso   1.000  O
  O5       1.0000 0.75427  0.36314  0.56519  Biso   1.000  O
  O6       1.0000 0.88029  0.51818  0.62080  Biso   1.000  O
  O7       1.0000 0.65431  0.54102  0.60704  Biso   1.000  O
  O8       1.0000 0.60450  0.43200  0.67211  Biso   1.000  O
  O9       1.0000 0.66602  0.87704  0.71786  Biso   1.000  O
  O10      1.0000 0.56187  0.89034  0.80594  Biso   1.000  O
  O11      1.0000 0.39113  0.63686  0.93481  Biso   1.000  O
  O12      1.0000 0.36211  0.48182  0.87920  Biso   1.000  O
  Co4      1.0000 0.75695  0.43390  0.03570  Biso   1.000  Co
  Co5      1.0000 0.32305  0.56610  0.46430  Biso   1.000  Co
  Co6      1.0000 0.38584  0.00000  0.25000  Biso   1.000  Co
  H43      1.0000 0.25480  0.74680  0.35890  Biso   1.000  H
  H44      1.0000 0.98150  0.48340  0.28050  Biso   1.000  H
  H45      1.0000 0.04640  0.69720  0.17990  Biso   1.000  H
  H46      1.0000 0.96760  0.38660  0.97500  Biso   1.000  H
  H47      1.0000 0.97100  0.22740  0.96500  Biso   1.000  H
  H48      1.0000 0.67090  0.20440  0.00720  Biso   1.000  H
  H49      1.0000 0.85970  0.03760  0.91150  Biso   1.000  H
  H50      1.0000 0.65110  0.81440  0.99020  Biso   1.000  H
  H51      1.0000 0.66800  0.08940  0.06900  Biso   1.000  H
  H52      1.0000 0.51250  0.01980  0.11230  Biso   1.000  H
  H53      1.0000 0.43980  0.79640  0.19390  Biso   1.000  H
  H54      1.0000 0.56650  0.78580  0.10150  Biso   1.000  H
  H55      1.0000 0.86740  0.92160  0.82090  Biso   1.000  H
  H56      1.0000 0.89070  0.66200  0.77220  Biso   1.000  H
  H57      1.0000 0.75320  0.74360  0.95530  Biso   1.000  H
  H58      1.0000 0.77240  0.49480  0.78070  Biso   1.000  H
  H59      1.0000 0.73990  0.37720  0.85370  Biso   1.000  H
  H60      1.0000 0.80030  0.63560  0.99720  Biso   1.000  H
  H61      1.0000 0.04180  0.97040  0.75250  Biso   1.000  H
  H62      1.0000 0.05590  0.93740  0.61310  Biso   1.000  H
  H63      1.0000 0.86380  0.68360  0.64440  Biso   1.000  H
  H64      1.0000 0.50800  0.25320  0.14110  Biso   1.000  H
  H65      1.0000 0.49810  0.51660  0.21950  Biso   1.000  H
  H66      1.0000 0.34920  0.30280  0.32010  Biso   1.000  H
  H67      1.0000 0.58100  0.61340  0.52500  Biso   1.000  H
  H68      1.0000 0.74360  0.77260  0.53500  Biso   1.000  H
  H69      1.0000 0.46650  0.79560  0.49280  Biso   1.000  H
  H70      1.0000 0.82210  0.96240  0.58850  Biso   1.000  H
  H71      1.0000 0.83670  0.18560  0.50980  Biso   1.000  H
  H72      1.0000 0.57860  0.91060  0.43100  Biso   1.000  H
  H73      1.0000 0.49270  0.98020  0.38770  Biso   1.000  H
  H74      1.0000 0.64340  0.20360  0.30610  Biso   1.000  H
  H75      1.0000 0.78070  0.21420  0.39850  Biso   1.000  H
  H76      1.0000 0.94580  0.07840  0.67910  Biso   1.000  H
  H77      1.0000 0.22870  0.33800  0.72780  Biso   1.000  H
  H78      1.0000 0.00960  0.25640  0.54470  Biso   1.000  H
  H79      1.0000 0.27760  0.50520  0.71930  Biso   1.000  H
  H80      1.0000 0.36270  0.62280  0.64630  Biso   1.000  H
  H81      1.0000 0.16470  0.36440  0.50280  Biso   1.000  H
  H82      1.0000 0.07140  0.02960  0.74750  Biso   1.000  H
  H83      1.0000 0.11850  0.06260  0.88690  Biso   1.000  H
  H84      1.0000 0.18020  0.31640  0.85560  Biso   1.000  H
  C67      1.0000 0.23633  0.84086  0.26360  Biso   1.000  C
  C68      1.0000 0.16146  0.73872  0.26880  Biso   1.000  C
  C69      1.0000 0.19024  0.70468  0.32440  Biso   1.000  C
  C70      1.0000 0.12436  0.60952  0.32900  Biso   1.000  C
  C71      1.0000 0.16273  0.57206  0.38510  Biso   1.000  C
  C72      1.0000 0.02716  0.54732  0.27730  Biso   1.000  C
  C73      1.0000 0.99809  0.57938  0.22150  Biso   1.000  C
  C74      1.0000 0.06571  0.67522  0.21760  Biso   1.000  C
  C75      1.0000 0.89684  0.51128  0.16410  Biso   1.000  C
  C76      1.0000 0.90774  0.32948  0.98060  Biso   1.000  C
  C77      1.0000 0.91032  0.24184  0.97480  Biso   1.000  C
  C78      1.0000 0.74561  0.23062  0.99820  Biso   1.000  C
  C79      1.0000 0.76644  0.07688  0.98720  Biso   1.000  C
  C80      1.0000 0.80584  0.01408  0.94280  Biso   1.000  C
  C81      1.0000 0.76492  0.91544  0.94480  Biso   1.000  C
  C82      1.0000 0.68233  0.88126  0.99050  Biso   1.000  C
  C83      1.0000 0.64645  0.94630  0.03640  Biso   1.000  C
  C84      1.0000 0.68985  0.04510  0.03650  Biso   1.000  C
  C85      1.0000 0.51028  0.96276  0.12170  Biso   1.000  C
  C86      1.0000 0.47098  0.84096  0.16560  Biso   1.000  C
  C87      1.0000 0.54074  0.83448  0.11500  Biso   1.000  C
  C88      1.0000 0.80588  0.84596  0.89730  Biso   1.000  C
  C89      1.0000 0.85562  0.86364  0.83310  Biso   1.000  C
  C90      1.0000 0.88744  0.79608  0.78780  Biso   1.000  C
  C91      1.0000 0.86974  0.70788  0.80350  Biso   1.000  C
  C92      1.0000 0.81992  0.69064  0.86720  Biso   1.000  C
  C93      1.0000 0.78769  0.75758  0.91310  Biso   1.000  C
  C94      1.0000 0.77456  0.50892  0.83300  Biso   1.000  C
  C95      1.0000 0.75665  0.44450  0.87390  Biso   1.000  C
  C96      1.0000 0.78984  0.58548  0.95250  Biso   1.000  C
  C97      1.0000 0.00680  0.90960  0.71430  Biso   1.000  C
  C98      1.0000 0.01480  0.88960  0.63680  Biso   1.000  C
  C99      1.0000 0.90920  0.75220  0.65430  Biso   1.000  C
  C100     1.0000 0.39547  0.15914  0.23640  Biso   1.000  C
  C101     1.0000 0.42274  0.26128  0.23120  Biso   1.000  C
  C102     1.0000 0.48556  0.29532  0.17560  Biso   1.000  C
  C103     1.0000 0.51484  0.39048  0.17100  Biso   1.000  C
  C104     1.0000 0.59067  0.42794  0.11490  Biso   1.000  C
  C105     1.0000 0.47984  0.45268  0.22270  Biso   1.000  C
  C106     1.0000 0.41871  0.42062  0.27850  Biso   1.000  C
  C107     1.0000 0.39049  0.32478  0.28240  Biso   1.000  C
  C108     1.0000 0.38556  0.48872  0.33590  Biso   1.000  C
  C109     1.0000 0.57826  0.67052  0.51940  Biso   1.000  C
  C110     1.0000 0.66848  0.75816  0.52520  Biso   1.000  C
  C111     1.0000 0.51499  0.76938  0.50180  Biso   1.000  C
  C112     1.0000 0.68956  0.92312  0.51280  Biso   1.000  C
  C113     1.0000 0.79176  0.98592  0.55720  Biso   1.000  C
  C114     1.0000 0.84948  0.08456  0.55520  Biso   1.000  C
  C115     1.0000 0.80107  0.11874  0.50950  Biso   1.000  C
  C116     1.0000 0.70015  0.05370  0.46360  Biso   1.000  C
  C117     1.0000 0.64475  0.95490  0.46350  Biso   1.000  C
  C118     1.0000 0.54752  0.03724  0.37830  Biso   1.000  C
  C119     1.0000 0.63002  0.15904  0.33440  Biso   1.000  C
  C120     1.0000 0.70626  0.16552  0.38500  Biso   1.000  C
  C121     1.0000 0.95992  0.15404  0.60270  Biso   1.000  C
  C122     1.0000 0.99198  0.13636  0.66690  Biso   1.000  C
  C123     1.0000 0.09136  0.20392  0.71220  Biso   1.000  C
  C124     1.0000 0.16186  0.29212  0.69650  Biso   1.000  C
  C125     1.0000 0.12928  0.30936  0.63280  Biso   1.000  C
  C126     1.0000 0.03011  0.24242  0.58690  Biso   1.000  C
  C127     1.0000 0.26564  0.49108  0.66700  Biso   1.000  C
  C128     1.0000 0.31215  0.55550  0.62610  Biso   1.000  C
  C129     1.0000 0.20436  0.41452  0.54750  Biso   1.000  C
  C130     1.0000 0.09720  0.09040  0.78570  Biso   1.000  C
  C131     1.0000 0.12520  0.11040  0.86320  Biso   1.000  C
  C132     1.0000 0.15700  0.24780  0.84570  Biso   1.000  C
  N17      1.0000 0.80422  0.32244  0.99600  Biso   1.000  N
  N18      1.0000 0.80626  0.17852  0.98606  Biso   1.000  N
  N19      1.0000 0.56688  0.91376  0.08671  Biso   1.000  N
  N20      1.0000 0.45158  0.92176  0.17035  Biso   1.000  N
  N21      1.0000 0.79670  0.59920  0.88416  Biso   1.000  N
  N22      1.0000 0.76641  0.49222  0.94911  Biso   1.000  N
  N23      1.0000 0.93188  0.81396  0.72022  Biso   1.000  N
  N24      1.0000 0.95460  0.79240  0.60190  Biso   1.000  N
  N25      1.0000 0.48178  0.67756  0.50400  Biso   1.000  N
  N26      1.0000 0.62774  0.82148  0.51394  Biso   1.000  N
  N27      1.0000 0.65312  0.08624  0.41329  Biso   1.000  N
  N28      1.0000 0.52982  0.07824  0.32965  Biso   1.000  N
  N29      1.0000 0.19750  0.40080  0.61584  Biso   1.000  N
  N30      1.0000 0.27419  0.50778  0.55089  Biso   1.000  N
  N31      1.0000 0.11792  0.18604  0.77978  Biso   1.000  N
  N32      1.0000 0.16220  0.20760  0.89810  Biso   1.000  N
  O13      1.0000 0.88671  0.54102  0.10704  Biso   1.000  O
  O14      1.0000 0.82750  0.43200  0.17211  Biso   1.000  O
  O15      1.0000 0.21102  0.87704  0.21786  Biso   1.000  O
  O16      1.0000 0.32847  0.89034  0.30594  Biso   1.000  O
  O17      1.0000 0.24573  0.63686  0.43481  Biso   1.000  O
  O18      1.0000 0.11971  0.48182  0.37920  Biso   1.000  O
  O19      1.0000 0.34569  0.45898  0.39296  Biso   1.000  O
  O20      1.0000 0.39550  0.56800  0.32789  Biso   1.000  O
  O21      1.0000 0.33398  0.12296  0.28214  Biso   1.000  O
  O22      1.0000 0.43813  0.10966  0.19406  Biso   1.000  O
  O23      1.0000 0.60887  0.36314  0.06519  Biso   1.000  O
  O24      1.0000 0.63789  0.51818  0.12080  Biso   1.000  O
