data_image0
_cell_length_a       10.7022
_cell_length_b       10.7022
_cell_length_c       22.8742
_cell_angle_alpha    90
_cell_angle_beta     90
_cell_angle_gamma    120

_symmetry_space_group_name_H-M    P 1
_symmetry_int_tables_number       1

loop_
  _symmetry_equiv_pos_as_xyz
  'x, y, z'

loop_
  _atom_site_label
  _atom_site_occupancy
  _atom_site_fract_x
  _atom_site_fract_y
  _atom_site_fract_z
  _atom_site_thermal_displace_type
  _atom_site_B_iso_or_equiv
  _atom_site_type_symbol
  Co1      1.0000 0.64470  0.28970  0.67750  Biso   1.000  Co
  Co2      1.0000 0.64500  0.35530  0.01083  Biso   1.000  Co
  Co3      1.0000 0.71030  0.35500  0.34417  Biso   1.000  Co
  H1       1.0000 0.65070  0.42060  0.79870  Biso   1.000  H
  H2       1.0000 0.78490  0.59680  0.85880  Biso   1.000  H
  H3       1.0000 0.12110  0.67900  0.76000  Biso   1.000  H
  H4       1.0000 0.96480  0.52580  0.69110  Biso   1.000  H
  H5       1.0000 0.90870  0.82980  0.88220  Biso   1.000  H
  H6       1.0000 0.05370  0.00430  0.95190  Biso   1.000  H
  H7       1.0000 0.40000  0.01110  0.88890  Biso   1.000  H
  H8       1.0000 0.26320  0.81190  0.83210  Biso   1.000  H
  H9       1.0000 0.53620  0.50860  0.65900  Biso   1.000  H
  H10      1.0000 0.57220  0.69350  0.59970  Biso   1.000  H
  H11      1.0000 0.80740  0.59810  0.49630  Biso   1.000  H
  H12      1.0000 0.78400  0.42740  0.56050  Biso   1.000  H
  H13      1.0000 0.55990  0.81240  0.52770  Biso   1.000  H
  H14      1.0000 0.59690  0.99500  0.46300  Biso   1.000  H
  H15      1.0000 0.95220  0.00650  0.40190  Biso   1.000  H
  H16      1.0000 0.90540  0.81230  0.46050  Biso   1.000  H
  H17      1.0000 0.60490  0.04760  0.58410  Biso   1.000  H
  H18      1.0000 0.44780  0.98670  0.55630  Biso   1.000  H
  H19      1.0000 0.46560  0.92920  0.61850  Biso   1.000  H
  H20      1.0000 0.51490  0.04470  0.80180  Biso   1.000  H
  H21      1.0000 0.50830  0.93030  0.75500  Biso   1.000  H
  H22      1.0000 0.42950  0.02090  0.74160  Biso   1.000  H
  H23      1.0000 0.76990  0.34930  0.13203  Biso   1.000  H
  H24      1.0000 0.81190  0.21510  0.19213  Biso   1.000  H
  H25      1.0000 0.55790  0.87890  0.09333  Biso   1.000  H
  H26      1.0000 0.56100  0.03520  0.02443  Biso   1.000  H
  H27      1.0000 0.92110  0.09130  0.21553  Biso   1.000  H
  H28      1.0000 0.95060  0.94630  0.28523  Biso   1.000  H
  H29      1.0000 0.61110  0.60000  0.22223  Biso   1.000  H
  H30      1.0000 0.54870  0.73680  0.16543  Biso   1.000  H
  H31      1.0000 0.97240  0.46380  0.99233  Biso   1.000  H
  H32      1.0000 0.12130  0.42780  0.93303  Biso   1.000  H
  H33      1.0000 0.79070  0.19260  0.82963  Biso   1.000  H
  H34      1.0000 0.64340  0.21600  0.89383  Biso   1.000  H
  H35      1.0000 0.25250  0.44010  0.86103  Biso   1.000  H
  H36      1.0000 0.39810  0.40310  0.79633  Biso   1.000  H
  H37      1.0000 0.05430  0.04780  0.73523  Biso   1.000  H
  H38      1.0000 0.90690  0.09460  0.79383  Biso   1.000  H
  H39      1.0000 0.44270  0.39510  0.91743  Biso   1.000  H
  H40      1.0000 0.53890  0.55220  0.88963  Biso   1.000  H
  H41      1.0000 0.46360  0.53440  0.95183  Biso   1.000  H
  H42      1.0000 0.52980  0.48510  0.13513  Biso   1.000  H
  H43      1.0000 0.42200  0.49170  0.08833  Biso   1.000  H
  H44      1.0000 0.59140  0.57050  0.07493  Biso   1.000  H
  H45      1.0000 0.57940  0.23010  0.46537  Biso   1.000  H
  H46      1.0000 0.40320  0.18810  0.52547  Biso   1.000  H
  H47      1.0000 0.32100  0.44210  0.42667  Biso   1.000  H
  H48      1.0000 0.47420  0.43900  0.35777  Biso   1.000  H
  H49      1.0000 0.17020  0.07890  0.54887  Biso   1.000  H
  H50      1.0000 0.99570  0.04940  0.61857  Biso   1.000  H
  H51      1.0000 0.98890  0.38890  0.55557  Biso   1.000  H
  H52      1.0000 0.18810  0.45130  0.49877  Biso   1.000  H
  H53      1.0000 0.49140  0.02760  0.32567  Biso   1.000  H
  H54      1.0000 0.30650  0.87870  0.26637  Biso   1.000  H
  H55      1.0000 0.40190  0.20930  0.16297  Biso   1.000  H
  H56      1.0000 0.57260  0.35660  0.22717  Biso   1.000  H
  H57      1.0000 0.18760  0.74750  0.19437  Biso   1.000  H
  H58      1.0000 0.00500  0.60190  0.12967  Biso   1.000  H
  H59      1.0000 0.99350  0.94570  0.06857  Biso   1.000  H
  H60      1.0000 0.18770  0.09310  0.12717  Biso   1.000  H
  H61      1.0000 0.95240  0.55730  0.25077  Biso   1.000  H
  H62      1.0000 0.01330  0.46110  0.22297  Biso   1.000  H
  H63      1.0000 0.07080  0.53640  0.28517  Biso   1.000  H
  H64      1.0000 0.95530  0.47020  0.46847  Biso   1.000  H
  H65      1.0000 0.06970  0.57800  0.42167  Biso   1.000  H
  H66      1.0000 0.97910  0.40860  0.40827  Biso   1.000  H
  C1       1.0000 0.74880  0.48180  0.78800  Biso   1.000  C
  C2       1.0000 0.82720  0.58220  0.82480  Biso   1.000  C
  C3       1.0000 0.97360  0.66950  0.81410  Biso   1.000  C
  C4       1.0000 0.02000  0.63400  0.76680  Biso   1.000  C
  C5       1.0000 0.92700  0.53500  0.72740  Biso   1.000  C
  C6       1.0000 0.06660  0.79060  0.85340  Biso   1.000  C
  C7       1.0000 0.00700  0.85700  0.88640  Biso   1.000  C
  C8       1.0000 0.09600  0.96600  0.92630  Biso   1.000  C
  C9       1.0000 0.24670  0.01970  0.92940  Biso   1.000  C
  C10      1.0000 0.29800  0.96600  0.89170  Biso   1.000  C
  C11      1.0000 0.21750  0.85080  0.85550  Biso   1.000  C
  C12      1.0000 0.34210  0.14790  0.96900  Biso   1.000  C
  C13      1.0000 0.59700  0.52900  0.62580  Biso   1.000  C
  C14      1.0000 0.61700  0.63900  0.58990  Biso   1.000  C
  C15      1.0000 0.69890  0.67340  0.54040  Biso   1.000  C
  C16      1.0000 0.75400  0.58570  0.53110  Biso   1.000  C
  C17      1.0000 0.73700  0.48070  0.56900  Biso   1.000  C
  C18      1.0000 0.72600  0.79190  0.50110  Biso   1.000  C
  C19      1.0000 0.63900  0.84900  0.50130  Biso   1.000  C
  C20      1.0000 0.66300  0.96000  0.46310  Biso   1.000  C
  C21      1.0000 0.77600  0.02140  0.42660  Biso   1.000  C
  C22      1.0000 0.87000  0.96600  0.42660  Biso   1.000  C
  C23      1.0000 0.84300  0.85100  0.46220  Biso   1.000  C
  C24      1.0000 0.80200  0.14100  0.38560  Biso   1.000  C
  C25      1.0000 0.50300  0.01300  0.59280  Biso   1.000  C
  C26      1.0000 0.51400  0.02400  0.76000  Biso   1.000  C
  C27      1.0000 0.73300  0.25120  0.12133  Biso   1.000  C
  C28      1.0000 0.75500  0.17280  0.15813  Biso   1.000  C
  C29      1.0000 0.69590  0.02640  0.14743  Biso   1.000  C
  C30      1.0000 0.61400  0.98000  0.10013  Biso   1.000  C
  C31      1.0000 0.60800  0.07300  0.06073  Biso   1.000  C
  C32      1.0000 0.72400  0.93340  0.18673  Biso   1.000  C
  C33      1.0000 0.85000  0.99300  0.21973  Biso   1.000  C
  C34      1.0000 0.87000  0.90400  0.25963  Biso   1.000  C
  C35      1.0000 0.77300  0.75330  0.26273  Biso   1.000  C
  C36      1.0000 0.66800  0.70200  0.22503  Biso   1.000  C
  C37      1.0000 0.63330  0.78250  0.18883  Biso   1.000  C
  C38      1.0000 0.80580  0.65790  0.30233  Biso   1.000  C
  C39      1.0000 0.93200  0.40300  0.95913  Biso   1.000  C
  C40      1.0000 0.02200  0.38300  0.92323  Biso   1.000  C
  C41      1.0000 0.97450  0.30110  0.87373  Biso   1.000  C
  C42      1.0000 0.83170  0.24600  0.86443  Biso   1.000  C
  C43      1.0000 0.74370  0.26300  0.90233  Biso   1.000  C
  C44      1.0000 0.06590  0.27400  0.83443  Biso   1.000  C
  C45      1.0000 0.21000  0.36100  0.83463  Biso   1.000  C
  C46      1.0000 0.29700  0.33700  0.79643  Biso   1.000  C
  C47      1.0000 0.24540  0.22400  0.75993  Biso   1.000  C
  C48      1.0000 0.09600  0.13000  0.75993  Biso   1.000  C
  C49      1.0000 0.00800  0.15700  0.79553  Biso   1.000  C
  C50      1.0000 0.33900  0.19800  0.71893  Biso   1.000  C
  C51      1.0000 0.51000  0.49700  0.92613  Biso   1.000  C
  C52      1.0000 0.51000  0.48600  0.09333  Biso   1.000  C
  C53      1.0000 0.51820  0.26700  0.45467  Biso   1.000  C
  C54      1.0000 0.41780  0.24500  0.49147  Biso   1.000  C
  C55      1.0000 0.33050  0.30410  0.48077  Biso   1.000  C
  C56      1.0000 0.36600  0.38600  0.43347  Biso   1.000  C
  C57      1.0000 0.46500  0.39200  0.39407  Biso   1.000  C
  C58      1.0000 0.20940  0.27600  0.52007  Biso   1.000  C
  C59      1.0000 0.14300  0.15000  0.55307  Biso   1.000  C
  C60      1.0000 0.03400  0.13000  0.59297  Biso   1.000  C
  C61      1.0000 0.98030  0.22700  0.59607  Biso   1.000  C
  C62      1.0000 0.03400  0.33200  0.55837  Biso   1.000  C
  C63      1.0000 0.14920  0.36670  0.52217  Biso   1.000  C
  C64      1.0000 0.85210  0.19420  0.63567  Biso   1.000  C
  C65      1.0000 0.47100  0.06800  0.29247  Biso   1.000  C
  C66      1.0000 0.36100  0.97800  0.25657  Biso   1.000  C
  C67      1.0000 0.32660  0.02550  0.20707  Biso   1.000  C
  C68      1.0000 0.41430  0.16830  0.19777  Biso   1.000  C
  C69      1.0000 0.51930  0.25630  0.23567  Biso   1.000  C
  C70      1.0000 0.20810  0.93410  0.16777  Biso   1.000  C
  C71      1.0000 0.15100  0.79000  0.16797  Biso   1.000  C
  C72      1.0000 0.04000  0.70300  0.12977  Biso   1.000  C
  C73      1.0000 0.97860  0.75460  0.09327  Biso   1.000  C
  C74      1.0000 0.03400  0.90400  0.09327  Biso   1.000  C
  C75      1.0000 0.14900  0.99200  0.12887  Biso   1.000  C
  C76      1.0000 0.85900  0.66100  0.05227  Biso   1.000  C
  C77      1.0000 0.98700  0.49000  0.25947  Biso   1.000  C
  C78      1.0000 0.97600  0.49000  0.42667  Biso   1.000  C
  N1       1.0000 0.78820  0.45250  0.73730  Biso   1.000  N
  N2       1.0000 0.65780  0.44710  0.61690  Biso   1.000  N
  N3       1.0000 0.66430  0.21180  0.07063  Biso   1.000  N
  N4       1.0000 0.78930  0.34220  0.95023  Biso   1.000  N
  N5       1.0000 0.54750  0.33570  0.40397  Biso   1.000  N
  N6       1.0000 0.55290  0.21070  0.28357  Biso   1.000  N
  O1       1.0000 0.27820  0.19390  0.00250  Biso   1.000  O
  O2       1.0000 0.71070  0.18340  0.38590  Biso   1.000  O
  O3       1.0000 0.91300  0.19080  0.35300  Biso   1.000  O
  O4       1.0000 0.49030  0.12710  0.62140  Biso   1.000  O
  O5       1.0000 0.63500  0.12780  0.73470  Biso   1.000  O
  O6       1.0000 0.47310  0.18630  0.96870  Biso   1.000  O
  O7       1.0000 0.91570  0.72180  0.33583  Biso   1.000  O
  O8       1.0000 0.47270  0.28930  0.71923  Biso   1.000  O
  O9       1.0000 0.27780  0.08700  0.68633  Biso   1.000  O
  O10      1.0000 0.63680  0.50970  0.95473  Biso   1.000  O
  O11      1.0000 0.49280  0.36500  0.06803  Biso   1.000  O
  O12      1.0000 0.71320  0.52690  0.30203  Biso   1.000  O
  O13      1.0000 0.80610  0.08430  0.66917  Biso   1.000  O
  O14      1.0000 0.81660  0.52730  0.05257  Biso   1.000  O
  O15      1.0000 0.80920  0.72220  0.01967  Biso   1.000  O
  O16      1.0000 0.87290  0.36320  0.28807  Biso   1.000  O
  O17      1.0000 0.87220  0.50720  0.40137  Biso   1.000  O
  O18      1.0000 0.81370  0.28680  0.63537  Biso   1.000  O
