data_image0
_cell_length_a       12.7035
_cell_length_b       22.6591
_cell_length_c       22.6591
_cell_angle_alpha    90
_cell_angle_beta     90
_cell_angle_gamma    90

_symmetry_space_group_name_H-M    P 1
_symmetry_int_tables_number       1

loop_
  _symmetry_equiv_pos_as_xyz
  'x, y, z'

loop_
  _atom_site_label
  _atom_site_occupancy
  _atom_site_fract_x
  _atom_site_fract_y
  _atom_site_fract_z
  _atom_site_thermal_displace_type
  _atom_site_B_iso_or_equiv
  _atom_site_type_symbol
  Co1      1.0000 0.75288  0.74312  0.73755  Biso   1.000  Co
  Co2      1.0000 0.75288  0.25688  0.26245  Biso   1.000  Co
  Co3      1.0000 0.24712  0.75688  0.23755  Biso   1.000  Co
  Co4      1.0000 0.24712  0.24312  0.76245  Biso   1.000  Co
  H1       1.0000 0.47540  0.86490  0.77410  Biso   1.000  H
  H2       1.0000 0.55160  0.11070  0.72200  Biso   1.000  H
  H3       1.0000 0.93890  0.77580  0.37450  Biso   1.000  H
  H4       1.0000 0.37880  0.95240  0.77290  Biso   1.000  H
  H5       1.0000 0.10980  0.69540  0.52520  Biso   1.000  H
  H6       1.0000 0.26170  0.68560  0.35080  Biso   1.000  H
  H7       1.0000 0.45950  0.19840  0.73320  Biso   1.000  H
  H8       1.0000 0.69800  0.94160  0.67190  Biso   1.000  H
  H9       1.0000 0.03880  0.79020  0.29090  Biso   1.000  H
  H10      1.0000 0.19000  0.11340  0.73840  Biso   1.000  H
  H11      1.0000 0.27390  0.02370  0.72900  Biso   1.000  H
  H12      1.0000 0.60030  0.02850  0.67050  Biso   1.000  H
  H13      1.0000 0.74700  0.72460  0.52750  Biso   1.000  H
  H14      1.0000 0.83670  0.72750  0.43810  Biso   1.000  H
  H15      1.0000 0.02070  0.69380  0.61380  Biso   1.000  H
  H16      1.0000 0.16680  0.66660  0.43540  Biso   1.000  H
  H17      1.0000 0.47540  0.13510  0.22590  Biso   1.000  H
  H18      1.0000 0.55160  0.88930  0.27800  Biso   1.000  H
  H19      1.0000 0.93890  0.22420  0.62550  Biso   1.000  H
  H20      1.0000 0.37880  0.04760  0.22710  Biso   1.000  H
  H21      1.0000 0.10980  0.30460  0.47480  Biso   1.000  H
  H22      1.0000 0.26170  0.31440  0.64920  Biso   1.000  H
  H23      1.0000 0.45950  0.80160  0.26680  Biso   1.000  H
  H24      1.0000 0.69800  0.05840  0.32810  Biso   1.000  H
  H25      1.0000 0.03880  0.20980  0.70910  Biso   1.000  H
  H26      1.0000 0.19000  0.88660  0.26160  Biso   1.000  H
  H27      1.0000 0.27390  0.97630  0.27100  Biso   1.000  H
  H28      1.0000 0.60030  0.97150  0.32950  Biso   1.000  H
  H29      1.0000 0.74700  0.27540  0.47250  Biso   1.000  H
  H30      1.0000 0.83670  0.27250  0.56190  Biso   1.000  H
  H31      1.0000 0.02070  0.30620  0.38620  Biso   1.000  H
  H32      1.0000 0.16680  0.33340  0.56460  Biso   1.000  H
  H33      1.0000 0.52460  0.63510  0.27410  Biso   1.000  H
  H34      1.0000 0.44840  0.38930  0.22200  Biso   1.000  H
  H35      1.0000 0.06110  0.72420  0.87450  Biso   1.000  H
  H36      1.0000 0.62120  0.54760  0.27290  Biso   1.000  H
  H37      1.0000 0.89020  0.80460  0.02520  Biso   1.000  H
  H38      1.0000 0.73830  0.81440  0.85080  Biso   1.000  H
  H39      1.0000 0.54050  0.30160  0.23320  Biso   1.000  H
  H40      1.0000 0.30200  0.55840  0.17190  Biso   1.000  H
  H41      1.0000 0.96120  0.70980  0.79090  Biso   1.000  H
  H42      1.0000 0.81000  0.38660  0.23840  Biso   1.000  H
  H43      1.0000 0.72610  0.47630  0.22900  Biso   1.000  H
  H44      1.0000 0.39970  0.47150  0.17050  Biso   1.000  H
  H45      1.0000 0.25300  0.77540  0.02750  Biso   1.000  H
  H46      1.0000 0.16330  0.77250  0.93810  Biso   1.000  H
  H47      1.0000 0.97930  0.80620  0.11380  Biso   1.000  H
  H48      1.0000 0.83320  0.83340  0.93540  Biso   1.000  H
  H49      1.0000 0.52460  0.36490  0.72590  Biso   1.000  H
  H50      1.0000 0.44840  0.61070  0.77800  Biso   1.000  H
  H51      1.0000 0.06110  0.27580  0.12550  Biso   1.000  H
  H52      1.0000 0.62120  0.45240  0.72710  Biso   1.000  H
  H53      1.0000 0.89020  0.19540  0.97480  Biso   1.000  H
  H54      1.0000 0.73830  0.18560  0.14920  Biso   1.000  H
  H55      1.0000 0.54050  0.69840  0.76680  Biso   1.000  H
  H56      1.0000 0.30200  0.44160  0.82810  Biso   1.000  H
  H57      1.0000 0.96120  0.29020  0.20910  Biso   1.000  H
  H58      1.0000 0.81000  0.61340  0.76160  Biso   1.000  H
  H59      1.0000 0.72610  0.52370  0.77100  Biso   1.000  H
  H60      1.0000 0.39970  0.52850  0.82950  Biso   1.000  H
  H61      1.0000 0.25300  0.22460  0.97250  Biso   1.000  H
  H62      1.0000 0.16330  0.22750  0.06190  Biso   1.000  H
  H63      1.0000 0.97930  0.19380  0.88620  Biso   1.000  H
  H64      1.0000 0.83320  0.16660  0.06460  Biso   1.000  H
  C1       1.0000 0.66290  0.84020  0.72810  Biso   1.000  C
  C2       1.0000 0.59760  0.89560  0.72380  Biso   1.000  C
  C3       1.0000 0.87540  0.71110  0.58000  Biso   1.000  C
  C4       1.0000 0.48180  0.99980  0.72320  Biso   1.000  C
  C5       1.0000 0.50140  0.89840  0.75360  Biso   1.000  C
  C6       1.0000 0.82070  0.71610  0.63760  Biso   1.000  C
  C7       1.0000 0.98380  0.71380  0.47210  Biso   1.000  C
  C8       1.0000 0.04290  0.72120  0.41570  Biso   1.000  C
  C9       1.0000 0.42380  0.05680  0.72590  Biso   1.000  C
  C10      1.0000 0.47720  0.11000  0.72630  Biso   1.000  C
  C11      1.0000 0.00550  0.75710  0.37090  Biso   1.000  C
  C12      1.0000 0.44440  0.95040  0.75290  Biso   1.000  C
  C13      1.0000 0.03610  0.70240  0.52560  Biso   1.000  C
  C14      1.0000 0.19520  0.70410  0.35570  Biso   1.000  C
  C15      1.0000 0.42150  0.16230  0.73300  Biso   1.000  C
  C16      1.0000 0.63340  0.94380  0.69290  Biso   1.000  C
  C17      1.0000 0.06540  0.76520  0.32110  Biso   1.000  C
  C18      1.0000 0.26460  0.11270  0.73620  Biso   1.000  C
  C19      1.0000 0.31410  0.05900  0.73020  Biso   1.000  C
  C20      1.0000 0.57550  0.99550  0.69230  Biso   1.000  C
  C21      1.0000 0.82130  0.71970  0.52700  Biso   1.000  C
  C22      1.0000 0.87450  0.72130  0.47380  Biso   1.000  C
  C23      1.0000 0.98330  0.70130  0.57820  Biso   1.000  C
  C24      1.0000 0.13970  0.69310  0.40660  Biso   1.000  C
  C25      1.0000 0.66290  0.15980  0.27190  Biso   1.000  C
  C26      1.0000 0.59760  0.10440  0.27620  Biso   1.000  C
  C27      1.0000 0.87540  0.28890  0.42000  Biso   1.000  C
  C28      1.0000 0.48180  0.00020  0.27680  Biso   1.000  C
  C29      1.0000 0.50140  0.10160  0.24640  Biso   1.000  C
  C30      1.0000 0.82070  0.28390  0.36240  Biso   1.000  C
  C31      1.0000 0.98380  0.28620  0.52790  Biso   1.000  C
  C32      1.0000 0.04290  0.27880  0.58430  Biso   1.000  C
  C33      1.0000 0.42380  0.94320  0.27410  Biso   1.000  C
  C34      1.0000 0.47720  0.89000  0.27370  Biso   1.000  C
  C35      1.0000 0.00550  0.24290  0.62910  Biso   1.000  C
  C36      1.0000 0.44440  0.04960  0.24710  Biso   1.000  C
  C37      1.0000 0.03610  0.29760  0.47440  Biso   1.000  C
  C38      1.0000 0.19520  0.29590  0.64430  Biso   1.000  C
  C39      1.0000 0.42150  0.83770  0.26700  Biso   1.000  C
  C40      1.0000 0.63340  0.05620  0.30710  Biso   1.000  C
  C41      1.0000 0.06540  0.23480  0.67890  Biso   1.000  C
  C42      1.0000 0.26460  0.88730  0.26380  Biso   1.000  C
  C43      1.0000 0.31410  0.94100  0.26980  Biso   1.000  C
  C44      1.0000 0.57550  0.00450  0.30770  Biso   1.000  C
  C45      1.0000 0.82130  0.28030  0.47300  Biso   1.000  C
  C46      1.0000 0.87450  0.27870  0.52620  Biso   1.000  C
  C47      1.0000 0.98330  0.29870  0.42180  Biso   1.000  C
  C48      1.0000 0.13970  0.30690  0.59340  Biso   1.000  C
  C49      1.0000 0.33710  0.65980  0.22810  Biso   1.000  C
  C50      1.0000 0.40240  0.60440  0.22380  Biso   1.000  C
  C51      1.0000 0.12460  0.78890  0.08000  Biso   1.000  C
  C52      1.0000 0.51820  0.50020  0.22320  Biso   1.000  C
  C53      1.0000 0.49860  0.60160  0.25360  Biso   1.000  C
  C54      1.0000 0.17930  0.78390  0.13760  Biso   1.000  C
  C55      1.0000 0.01620  0.78620  0.97210  Biso   1.000  C
  C56      1.0000 0.95710  0.77880  0.91570  Biso   1.000  C
  C57      1.0000 0.57620  0.44320  0.22590  Biso   1.000  C
  C58      1.0000 0.52280  0.39000  0.22630  Biso   1.000  C
  C59      1.0000 0.99450  0.74290  0.87090  Biso   1.000  C
  C60      1.0000 0.55560  0.54960  0.25290  Biso   1.000  C
  C61      1.0000 0.96390  0.79760  0.02560  Biso   1.000  C
  C62      1.0000 0.80480  0.79590  0.85570  Biso   1.000  C
  C63      1.0000 0.57850  0.33770  0.23300  Biso   1.000  C
  C64      1.0000 0.36660  0.55620  0.19290  Biso   1.000  C
  C65      1.0000 0.93460  0.73480  0.82110  Biso   1.000  C
  C66      1.0000 0.73540  0.38730  0.23620  Biso   1.000  C
  C67      1.0000 0.68590  0.44100  0.23020  Biso   1.000  C
  C68      1.0000 0.42450  0.50450  0.19230  Biso   1.000  C
  C69      1.0000 0.17870  0.78030  0.02700  Biso   1.000  C
  C70      1.0000 0.12550  0.77870  0.97380  Biso   1.000  C
  C71      1.0000 0.01670  0.79870  0.07820  Biso   1.000  C
  C72      1.0000 0.86030  0.80690  0.90660  Biso   1.000  C
  C73      1.0000 0.33710  0.34020  0.77190  Biso   1.000  C
  C74      1.0000 0.40240  0.39560  0.77620  Biso   1.000  C
  C75      1.0000 0.12460  0.21110  0.92000  Biso   1.000  C
  C76      1.0000 0.51820  0.49980  0.77680  Biso   1.000  C
  C77      1.0000 0.49860  0.39840  0.74640  Biso   1.000  C
  C78      1.0000 0.17930  0.21610  0.86240  Biso   1.000  C
  C79      1.0000 0.01620  0.21380  0.02790  Biso   1.000  C
  C80      1.0000 0.95710  0.22120  0.08430  Biso   1.000  C
  C81      1.0000 0.57620  0.55680  0.77410  Biso   1.000  C
  C82      1.0000 0.52280  0.61000  0.77370  Biso   1.000  C
  C83      1.0000 0.99450  0.25710  0.12910  Biso   1.000  C
  C84      1.0000 0.55560  0.45040  0.74710  Biso   1.000  C
  C85      1.0000 0.96390  0.20240  0.97440  Biso   1.000  C
  C86      1.0000 0.80480  0.20410  0.14430  Biso   1.000  C
  C87      1.0000 0.57850  0.66230  0.76700  Biso   1.000  C
  C88      1.0000 0.36660  0.44380  0.80710  Biso   1.000  C
  C89      1.0000 0.93460  0.26520  0.17890  Biso   1.000  C
  C90      1.0000 0.73540  0.61270  0.76380  Biso   1.000  C
  C91      1.0000 0.68590  0.55900  0.76980  Biso   1.000  C
  C92      1.0000 0.42450  0.49550  0.80770  Biso   1.000  C
  C93      1.0000 0.17870  0.21970  0.97300  Biso   1.000  C
  C94      1.0000 0.12550  0.22130  0.02620  Biso   1.000  C
  C95      1.0000 0.01670  0.20130  0.92180  Biso   1.000  C
  C96      1.0000 0.86030  0.19310  0.09340  Biso   1.000  C
  N1       1.0000 0.31680  0.16428  0.73915  Biso   1.000  N
  N2       1.0000 0.16040  0.73956  0.31293  Biso   1.000  N
  N3       1.0000 0.31680  0.83572  0.26085  Biso   1.000  N
  N4       1.0000 0.16040  0.26044  0.68707  Biso   1.000  N
  N5       1.0000 0.68320  0.33572  0.23915  Biso   1.000  N
  N6       1.0000 0.83960  0.76044  0.81293  Biso   1.000  N
  N7       1.0000 0.68320  0.66428  0.76085  Biso   1.000  N
  N8       1.0000 0.83960  0.23956  0.18707  Biso   1.000  N
  O1       1.0000 0.87400  0.71679  0.68447  Biso   1.000  O
  O2       1.0000 0.62290  0.79475  0.75263  Biso   1.000  O
  O3       1.0000 0.75460  0.83922  0.70802  Biso   1.000  O
  O4       1.0000 0.72110  0.72263  0.63970  Biso   1.000  O
  O5       1.0000 0.87400  0.28321  0.31553  Biso   1.000  O
  O6       1.0000 0.62290  0.20525  0.24737  Biso   1.000  O
  O7       1.0000 0.75460  0.16078  0.29198  Biso   1.000  O
  O8       1.0000 0.72110  0.27737  0.36030  Biso   1.000  O
  O9       1.0000 0.12600  0.78321  0.18447  Biso   1.000  O
  O10      1.0000 0.37710  0.70525  0.25263  Biso   1.000  O
  O11      1.0000 0.24540  0.66078  0.20802  Biso   1.000  O
  O12      1.0000 0.27890  0.77737  0.13970  Biso   1.000  O
  O13      1.0000 0.12600  0.21679  0.81553  Biso   1.000  O
  O14      1.0000 0.37710  0.29475  0.74737  Biso   1.000  O
  O15      1.0000 0.24540  0.33922  0.79198  Biso   1.000  O
  O16      1.0000 0.27890  0.22263  0.86030  Biso   1.000  O
  Co5      1.0000 0.75288  0.76245  0.24312  Biso   1.000  Co
  Co6      1.0000 0.75288  0.23755  0.75688  Biso   1.000  Co
  Co7      1.0000 0.24712  0.73755  0.74312  Biso   1.000  Co
  Co8      1.0000 0.24712  0.26245  0.25688  Biso   1.000  Co
  H65      1.0000 0.47540  0.72590  0.36490  Biso   1.000  H
  H66      1.0000 0.55160  0.77800  0.61070  Biso   1.000  H
  H67      1.0000 0.93890  0.12550  0.27580  Biso   1.000  H
  H68      1.0000 0.37880  0.72710  0.45240  Biso   1.000  H
  H69      1.0000 0.10980  0.97480  0.19540  Biso   1.000  H
  H70      1.0000 0.26170  0.14920  0.18560  Biso   1.000  H
  H71      1.0000 0.45950  0.76680  0.69840  Biso   1.000  H
  H72      1.0000 0.69800  0.82810  0.44160  Biso   1.000  H
  H73      1.0000 0.03880  0.20910  0.29020  Biso   1.000  H
  H74      1.0000 0.19000  0.76160  0.61340  Biso   1.000  H
  H75      1.0000 0.27390  0.77100  0.52370  Biso   1.000  H
  H76      1.0000 0.60030  0.82950  0.52850  Biso   1.000  H
  H77      1.0000 0.74700  0.97250  0.22460  Biso   1.000  H
  H78      1.0000 0.83670  0.06190  0.22750  Biso   1.000  H
  H79      1.0000 0.02070  0.88620  0.19380  Biso   1.000  H
  H80      1.0000 0.16680  0.06460  0.16660  Biso   1.000  H
  H81      1.0000 0.47540  0.27410  0.63510  Biso   1.000  H
  H82      1.0000 0.55160  0.22200  0.38930  Biso   1.000  H
  H83      1.0000 0.93890  0.87450  0.72420  Biso   1.000  H
  H84      1.0000 0.37880  0.27290  0.54760  Biso   1.000  H
  H85      1.0000 0.10980  0.02520  0.80460  Biso   1.000  H
  H86      1.0000 0.26170  0.85080  0.81440  Biso   1.000  H
  H87      1.0000 0.45950  0.23320  0.30160  Biso   1.000  H
  H88      1.0000 0.69800  0.17190  0.55840  Biso   1.000  H
  H89      1.0000 0.03880  0.79090  0.70980  Biso   1.000  H
  H90      1.0000 0.19000  0.23840  0.38660  Biso   1.000  H
  H91      1.0000 0.27390  0.22900  0.47630  Biso   1.000  H
  H92      1.0000 0.60030  0.17050  0.47150  Biso   1.000  H
  H93      1.0000 0.74700  0.02750  0.77540  Biso   1.000  H
  H94      1.0000 0.83670  0.93810  0.77250  Biso   1.000  H
  H95      1.0000 0.02070  0.11380  0.80620  Biso   1.000  H
  H96      1.0000 0.16680  0.93540  0.83340  Biso   1.000  H
  H97      1.0000 0.52460  0.77410  0.86490  Biso   1.000  H
  H98      1.0000 0.44840  0.72200  0.11070  Biso   1.000  H
  H99      1.0000 0.06110  0.37450  0.77580  Biso   1.000  H
  H100     1.0000 0.62120  0.77290  0.95240  Biso   1.000  H
  H101     1.0000 0.89020  0.52520  0.69540  Biso   1.000  H
  H102     1.0000 0.73830  0.35080  0.68560  Biso   1.000  H
  H103     1.0000 0.54050  0.73320  0.19840  Biso   1.000  H
  H104     1.0000 0.30200  0.67190  0.94160  Biso   1.000  H
  H105     1.0000 0.96120  0.29090  0.79020  Biso   1.000  H
  H106     1.0000 0.81000  0.73840  0.11340  Biso   1.000  H
  H107     1.0000 0.72610  0.72900  0.02370  Biso   1.000  H
  H108     1.0000 0.39970  0.67050  0.02850  Biso   1.000  H
  H109     1.0000 0.25300  0.52750  0.72460  Biso   1.000  H
  H110     1.0000 0.16330  0.43810  0.72750  Biso   1.000  H
  H111     1.0000 0.97930  0.61380  0.69380  Biso   1.000  H
  H112     1.0000 0.83320  0.43540  0.66660  Biso   1.000  H
  H113     1.0000 0.52460  0.22590  0.13510  Biso   1.000  H
  H114     1.0000 0.44840  0.27800  0.88930  Biso   1.000  H
  H115     1.0000 0.06110  0.62550  0.22420  Biso   1.000  H
  H116     1.0000 0.62120  0.22710  0.04760  Biso   1.000  H
  H117     1.0000 0.89020  0.47480  0.30460  Biso   1.000  H
  H118     1.0000 0.73830  0.64920  0.31440  Biso   1.000  H
  H119     1.0000 0.54050  0.26680  0.80160  Biso   1.000  H
  H120     1.0000 0.30200  0.32810  0.05840  Biso   1.000  H
  H121     1.0000 0.96120  0.70910  0.20980  Biso   1.000  H
  H122     1.0000 0.81000  0.26160  0.88660  Biso   1.000  H
  H123     1.0000 0.72610  0.27100  0.97630  Biso   1.000  H
  H124     1.0000 0.39970  0.32950  0.97150  Biso   1.000  H
  H125     1.0000 0.25300  0.47250  0.27540  Biso   1.000  H
  H126     1.0000 0.16330  0.56190  0.27250  Biso   1.000  H
  H127     1.0000 0.97930  0.38620  0.30620  Biso   1.000  H
  H128     1.0000 0.83320  0.56460  0.33340  Biso   1.000  H
  C97      1.0000 0.66290  0.77190  0.34020  Biso   1.000  C
  C98      1.0000 0.59760  0.77620  0.39560  Biso   1.000  C
  C99      1.0000 0.87540  0.92000  0.21110  Biso   1.000  C
  C100     1.0000 0.48180  0.77680  0.49980  Biso   1.000  C
  C101     1.0000 0.50140  0.74640  0.39840  Biso   1.000  C
  C102     1.0000 0.82070  0.86240  0.21610  Biso   1.000  C
  C103     1.0000 0.98380  0.02790  0.21380  Biso   1.000  C
  C104     1.0000 0.04290  0.08430  0.22120  Biso   1.000  C
  C105     1.0000 0.42380  0.77410  0.55680  Biso   1.000  C
  C106     1.0000 0.47720  0.77370  0.61000  Biso   1.000  C
  C107     1.0000 0.00550  0.12910  0.25710  Biso   1.000  C
  C108     1.0000 0.44440  0.74710  0.45040  Biso   1.000  C
  C109     1.0000 0.03610  0.97440  0.20240  Biso   1.000  C
  C110     1.0000 0.19520  0.14430  0.20410  Biso   1.000  C
  C111     1.0000 0.42150  0.76700  0.66230  Biso   1.000  C
  C112     1.0000 0.63340  0.80710  0.44380  Biso   1.000  C
  C113     1.0000 0.06540  0.17890  0.26520  Biso   1.000  C
  C114     1.0000 0.26460  0.76380  0.61270  Biso   1.000  C
  C115     1.0000 0.31410  0.76980  0.55900  Biso   1.000  C
  C116     1.0000 0.57550  0.80770  0.49550  Biso   1.000  C
  C117     1.0000 0.82130  0.97300  0.21970  Biso   1.000  C
  C118     1.0000 0.87450  0.02620  0.22130  Biso   1.000  C
  C119     1.0000 0.98330  0.92180  0.20130  Biso   1.000  C
  C120     1.0000 0.13970  0.09340  0.19310  Biso   1.000  C
  C121     1.0000 0.66290  0.22810  0.65980  Biso   1.000  C
  C122     1.0000 0.59760  0.22380  0.60440  Biso   1.000  C
  C123     1.0000 0.87540  0.08000  0.78890  Biso   1.000  C
  C124     1.0000 0.48180  0.22320  0.50020  Biso   1.000  C
  C125     1.0000 0.50140  0.25360  0.60160  Biso   1.000  C
  C126     1.0000 0.82070  0.13760  0.78390  Biso   1.000  C
  C127     1.0000 0.98380  0.97210  0.78620  Biso   1.000  C
  C128     1.0000 0.04290  0.91570  0.77880  Biso   1.000  C
  C129     1.0000 0.42380  0.22590  0.44320  Biso   1.000  C
  C130     1.0000 0.47720  0.22630  0.39000  Biso   1.000  C
  C131     1.0000 0.00550  0.87090  0.74290  Biso   1.000  C
  C132     1.0000 0.44440  0.25290  0.54960  Biso   1.000  C
  C133     1.0000 0.03610  0.02560  0.79760  Biso   1.000  C
  C134     1.0000 0.19520  0.85570  0.79590  Biso   1.000  C
  C135     1.0000 0.42150  0.23300  0.33770  Biso   1.000  C
  C136     1.0000 0.63340  0.19290  0.55620  Biso   1.000  C
  C137     1.0000 0.06540  0.82110  0.73480  Biso   1.000  C
  C138     1.0000 0.26460  0.23620  0.38730  Biso   1.000  C
  C139     1.0000 0.31410  0.23020  0.44100  Biso   1.000  C
  C140     1.0000 0.57550  0.19230  0.50450  Biso   1.000  C
  C141     1.0000 0.82130  0.02700  0.78030  Biso   1.000  C
  C142     1.0000 0.87450  0.97380  0.77870  Biso   1.000  C
  C143     1.0000 0.98330  0.07820  0.79870  Biso   1.000  C
  C144     1.0000 0.13970  0.90660  0.80690  Biso   1.000  C
  C145     1.0000 0.33710  0.72810  0.84020  Biso   1.000  C
  C146     1.0000 0.40240  0.72380  0.89560  Biso   1.000  C
  C147     1.0000 0.12460  0.58000  0.71110  Biso   1.000  C
  C148     1.0000 0.51820  0.72320  0.99980  Biso   1.000  C
  C149     1.0000 0.49860  0.75360  0.89840  Biso   1.000  C
  C150     1.0000 0.17930  0.63760  0.71610  Biso   1.000  C
  C151     1.0000 0.01620  0.47210  0.71380  Biso   1.000  C
  C152     1.0000 0.95710  0.41570  0.72120  Biso   1.000  C
  C153     1.0000 0.57620  0.72590  0.05680  Biso   1.000  C
  C154     1.0000 0.52280  0.72630  0.11000  Biso   1.000  C
  C155     1.0000 0.99450  0.37090  0.75710  Biso   1.000  C
  C156     1.0000 0.55560  0.75290  0.95040  Biso   1.000  C
  C157     1.0000 0.96390  0.52560  0.70240  Biso   1.000  C
  C158     1.0000 0.80480  0.35570  0.70410  Biso   1.000  C
  C159     1.0000 0.57850  0.73300  0.16230  Biso   1.000  C
  C160     1.0000 0.36660  0.69290  0.94380  Biso   1.000  C
  C161     1.0000 0.93460  0.32110  0.76520  Biso   1.000  C
  C162     1.0000 0.73540  0.73620  0.11270  Biso   1.000  C
  C163     1.0000 0.68590  0.73020  0.05900  Biso   1.000  C
  C164     1.0000 0.42450  0.69230  0.99550  Biso   1.000  C
  C165     1.0000 0.17870  0.52700  0.71970  Biso   1.000  C
  C166     1.0000 0.12550  0.47380  0.72130  Biso   1.000  C
  C167     1.0000 0.01670  0.57820  0.70130  Biso   1.000  C
  C168     1.0000 0.86030  0.40660  0.69310  Biso   1.000  C
  C169     1.0000 0.33710  0.27190  0.15980  Biso   1.000  C
  C170     1.0000 0.40240  0.27620  0.10440  Biso   1.000  C
  C171     1.0000 0.12460  0.42000  0.28890  Biso   1.000  C
  C172     1.0000 0.51820  0.27680  0.00020  Biso   1.000  C
  C173     1.0000 0.49860  0.24640  0.10160  Biso   1.000  C
  C174     1.0000 0.17930  0.36240  0.28390  Biso   1.000  C
  C175     1.0000 0.01620  0.52790  0.28620  Biso   1.000  C
  C176     1.0000 0.95710  0.58430  0.27880  Biso   1.000  C
  C177     1.0000 0.57620  0.27410  0.94320  Biso   1.000  C
  C178     1.0000 0.52280  0.27370  0.89000  Biso   1.000  C
  C179     1.0000 0.99450  0.62910  0.24290  Biso   1.000  C
  C180     1.0000 0.55560  0.24710  0.04960  Biso   1.000  C
  C181     1.0000 0.96390  0.47440  0.29760  Biso   1.000  C
  C182     1.0000 0.80480  0.64430  0.29590  Biso   1.000  C
  C183     1.0000 0.57850  0.26700  0.83770  Biso   1.000  C
  C184     1.0000 0.36660  0.30710  0.05620  Biso   1.000  C
  C185     1.0000 0.93460  0.67890  0.23480  Biso   1.000  C
  C186     1.0000 0.73540  0.26380  0.88730  Biso   1.000  C
  C187     1.0000 0.68590  0.26980  0.94100  Biso   1.000  C
  C188     1.0000 0.42450  0.30770  0.00450  Biso   1.000  C
  C189     1.0000 0.17870  0.47300  0.28030  Biso   1.000  C
  C190     1.0000 0.12550  0.52620  0.27870  Biso   1.000  C
  C191     1.0000 0.01670  0.42180  0.29870  Biso   1.000  C
  C192     1.0000 0.86030  0.59340  0.30690  Biso   1.000  C
  N9       1.0000 0.31680  0.76085  0.66428  Biso   1.000  N
  N10      1.0000 0.16040  0.18707  0.23956  Biso   1.000  N
  N11      1.0000 0.31680  0.23915  0.33572  Biso   1.000  N
  N12      1.0000 0.16040  0.81293  0.76044  Biso   1.000  N
  N13      1.0000 0.68320  0.73915  0.16428  Biso   1.000  N
  N14      1.0000 0.83960  0.31293  0.73956  Biso   1.000  N
  N15      1.0000 0.68320  0.26085  0.83572  Biso   1.000  N
  N16      1.0000 0.83960  0.68707  0.26044  Biso   1.000  N
  O17      1.0000 0.87400  0.81553  0.21679  Biso   1.000  O
  O18      1.0000 0.62290  0.74737  0.29475  Biso   1.000  O
  O19      1.0000 0.75460  0.79198  0.33922  Biso   1.000  O
  O20      1.0000 0.72110  0.86030  0.22263  Biso   1.000  O
  O21      1.0000 0.87400  0.18447  0.78321  Biso   1.000  O
  O22      1.0000 0.62290  0.25263  0.70525  Biso   1.000  O
  O23      1.0000 0.75460  0.20802  0.66078  Biso   1.000  O
  O24      1.0000 0.72110  0.13970  0.77737  Biso   1.000  O
  O25      1.0000 0.12600  0.68447  0.71679  Biso   1.000  O
  O26      1.0000 0.37710  0.75263  0.79475  Biso   1.000  O
  O27      1.0000 0.24540  0.70802  0.83922  Biso   1.000  O
  O28      1.0000 0.27890  0.63970  0.72263  Biso   1.000  O
  O29      1.0000 0.12600  0.31553  0.28321  Biso   1.000  O
  O30      1.0000 0.37710  0.24737  0.20525  Biso   1.000  O
  O31      1.0000 0.24540  0.29198  0.16078  Biso   1.000  O
  O32      1.0000 0.27890  0.36030  0.27737  Biso   1.000  O
