data_image0
_cell_length_a       10.599
_cell_length_b       17.0218
_cell_length_c       18.3064
_cell_angle_alpha    106.073
_cell_angle_beta     90
_cell_angle_gamma    90

_symmetry_space_group_name_H-M    P 1
_symmetry_int_tables_number       1

loop_
  _symmetry_equiv_pos_as_xyz
  'x, y, z'

loop_
  _atom_site_label
  _atom_site_occupancy
  _atom_site_fract_x
  _atom_site_fract_y
  _atom_site_fract_z
  _atom_site_thermal_displace_type
  _atom_site_B_iso_or_equiv
  _atom_site_type_symbol
  Co1      1.0000 0.53495  0.11880  0.60276  Biso   1.000  Co
  Co2      1.0000 0.50009  0.86882  0.85284  Biso   1.000  Co
  Co3      1.0000 0.46505  0.61880  0.10276  Biso   1.000  Co
  Co4      1.0000 0.49991  0.36882  0.35284  Biso   1.000  Co
  H1       1.0000 0.41570  0.97390  0.37240  Biso   1.000  H
  H2       1.0000 0.94520  0.90080  0.08890  Biso   1.000  H
  H3       1.0000 0.40620  0.38770  0.08440  Biso   1.000  H
  H4       1.0000 0.68120  0.95610  0.98050  Biso   1.000  H
  H5       1.0000 0.68170  0.27800  0.22530  Biso   1.000  H
  H6       1.0000 0.38170  0.41160  0.21370  Biso   1.000  H
  H7       1.0000 0.40030  0.85280  0.12320  Biso   1.000  H
  H8       1.0000 0.93780  0.72090  0.88760  Biso   1.000  H
  H9       1.0000 0.70860  0.98910  0.11200  Biso   1.000  H
  H10      1.0000 0.71540  0.25250  0.09700  Biso   1.000  H
  H11      1.0000 0.88400  0.95800  0.85860  Biso   1.000  H
  H12      1.0000 0.39210  0.94810  0.24130  Biso   1.000  H
  H13      1.0000 0.77110  0.30040  0.98960  Biso   1.000  H
  H14      1.0000 0.11030  0.77690  0.84760  Biso   1.000  H
  H15      1.0000 0.38940  0.29720  0.96390  Biso   1.000  H
  H16      1.0000 0.06210  0.01740  0.81520  Biso   1.000  H
  H17      1.0000 0.76780  0.93560  0.21380  Biso   1.000  H
  H18      1.0000 0.44640  0.07440  0.74470  Biso   1.000  H
  H19      1.0000 0.37960  0.82700  0.99140  Biso   1.000  H
  H20      1.0000 0.13760  0.94470  0.57370  Biso   1.000  H
  H21      1.0000 0.72460  0.72550  0.91760  Biso   1.000  H
  H22      1.0000 0.41600  0.25530  0.83140  Biso   1.000  H
  H23      1.0000 0.11170  0.96450  0.03810  Biso   1.000  H
  H24      1.0000 0.30610  0.01770  0.53870  Biso   1.000  H
  H25      1.0000 0.28080  0.00640  0.78640  Biso   1.000  H
  H26      1.0000 0.86860  0.78470  0.13090  Biso   1.000  H
  H27      1.0000 0.79260  0.26930  0.85720  Biso   1.000  H
  H28      1.0000 0.79630  0.95850  0.34500  Biso   1.000  H
  H29      1.0000 0.34380  0.69330  0.82570  Biso   1.000  H
  H30      1.0000 0.45140  0.62880  0.83020  Biso   1.000  H
  H31      1.0000 0.43170  0.65500  0.75350  Biso   1.000  H
  H32      1.0000 0.89740  0.77340  0.66270  Biso   1.000  H
  H33      1.0000 0.69690  0.72840  0.16940  Biso   1.000  H
  H34      1.0000 0.06750  0.83120  0.62410  Biso   1.000  H
  H35      1.0000 0.83010  0.10430  0.67670  Biso   1.000  H
  H36      1.0000 0.83400  0.00930  0.67300  Biso   1.000  H
  H37      1.0000 0.74710  0.07070  0.73470  Biso   1.000  H
  H38      1.0000 0.85360  0.15500  0.54460  Biso   1.000  H
  H39      1.0000 0.81010  0.22860  0.51170  Biso   1.000  H
  H40      1.0000 0.75590  0.13840  0.47530  Biso   1.000  H
  H41      1.0000 0.55920  0.66510  0.96120  Biso   1.000  H
  H42      1.0000 0.58430  0.47390  0.87240  Biso   1.000  H
  H43      1.0000 0.05480  0.40080  0.58890  Biso   1.000  H
  H44      1.0000 0.59380  0.88770  0.58440  Biso   1.000  H
  H45      1.0000 0.31880  0.45610  0.48050  Biso   1.000  H
  H46      1.0000 0.31830  0.77800  0.72530  Biso   1.000  H
  H47      1.0000 0.61830  0.91160  0.71370  Biso   1.000  H
  H48      1.0000 0.59970  0.35280  0.62320  Biso   1.000  H
  H49      1.0000 0.06220  0.22090  0.38760  Biso   1.000  H
  H50      1.0000 0.29140  0.48910  0.61200  Biso   1.000  H
  H51      1.0000 0.28460  0.75250  0.59700  Biso   1.000  H
  H52      1.0000 0.11600  0.45800  0.35860  Biso   1.000  H
  H53      1.0000 0.60790  0.44810  0.74130  Biso   1.000  H
  H54      1.0000 0.22890  0.80040  0.48960  Biso   1.000  H
  H55      1.0000 0.88970  0.27690  0.34760  Biso   1.000  H
  H56      1.0000 0.61060  0.79720  0.46390  Biso   1.000  H
  H57      1.0000 0.93790  0.51740  0.31520  Biso   1.000  H
  H58      1.0000 0.23220  0.43560  0.71380  Biso   1.000  H
  H59      1.0000 0.55360  0.57440  0.24470  Biso   1.000  H
  H60      1.0000 0.62040  0.32700  0.49140  Biso   1.000  H
  H61      1.0000 0.86240  0.44470  0.07370  Biso   1.000  H
  H62      1.0000 0.27540  0.22550  0.41760  Biso   1.000  H
  H63      1.0000 0.58400  0.75530  0.33140  Biso   1.000  H
  H64      1.0000 0.88830  0.46450  0.53810  Biso   1.000  H
  H65      1.0000 0.69390  0.51770  0.03870  Biso   1.000  H
  H66      1.0000 0.71920  0.50640  0.28640  Biso   1.000  H
  H67      1.0000 0.13140  0.28470  0.63090  Biso   1.000  H
  H68      1.0000 0.20740  0.76930  0.35720  Biso   1.000  H
  H69      1.0000 0.20370  0.45850  0.84500  Biso   1.000  H
  H70      1.0000 0.65620  0.19330  0.32570  Biso   1.000  H
  H71      1.0000 0.54860  0.12880  0.33020  Biso   1.000  H
  H72      1.0000 0.56830  0.15500  0.25350  Biso   1.000  H
  H73      1.0000 0.10260  0.27340  0.16270  Biso   1.000  H
  H74      1.0000 0.30310  0.22840  0.66940  Biso   1.000  H
  H75      1.0000 0.93250  0.33120  0.12410  Biso   1.000  H
  H76      1.0000 0.16990  0.60430  0.17670  Biso   1.000  H
  H77      1.0000 0.16600  0.50930  0.17300  Biso   1.000  H
  H78      1.0000 0.25290  0.57070  0.23470  Biso   1.000  H
  H79      1.0000 0.14640  0.65500  0.04460  Biso   1.000  H
  H80      1.0000 0.18990  0.72860  0.01170  Biso   1.000  H
  H81      1.0000 0.24410  0.63840  0.97530  Biso   1.000  H
  H82      1.0000 0.44080  0.16510  0.46120  Biso   1.000  H
  C1       1.0000 0.48820  0.96740  0.34070  Biso   1.000  C
  C2       1.0000 0.97590  0.87680  0.03900  Biso   1.000  C
  C3       1.0000 0.46330  0.36340  0.11180  Biso   1.000  C
  C4       1.0000 0.24350  0.91310  0.91190  Biso   1.000  C
  C5       1.0000 0.76130  0.82440  0.79380  Biso   1.000  C
  C6       1.0000 0.56310  0.92340  0.13250  Biso   1.000  C
  C7       1.0000 0.07700  0.93290  0.71400  Biso   1.000  C
  C8       1.0000 0.92230  0.80440  0.99340  Biso   1.000  C
  C9       1.0000 0.62450  0.99830  0.45840  Biso   1.000  C
  C10      1.0000 0.62260  0.24280  0.74840  Biso   1.000  C
  C11      1.0000 0.62240  0.93550  0.00990  Biso   1.000  C
  C12      1.0000 0.60720  0.97440  0.37250  Biso   1.000  C
  C13      1.0000 0.62490  0.30010  0.19610  Biso   1.000  C
  C14      1.0000 0.12460  0.87630  0.93890  Biso   1.000  C
  C15      1.0000 0.86960  0.85940  0.76570  Biso   1.000  C
  C16      1.0000 0.44960  0.37780  0.18960  Biso   1.000  C
  C17      1.0000 0.45960  0.87480  0.09520  Biso   1.000  C
  C18      1.0000 0.55700  0.31540  0.07470  Biso   1.000  C
  C19      1.0000 0.57960  0.93860  0.21560  Biso   1.000  C
  C20      1.0000 0.97430  0.76920  0.91980  Biso   1.000  C
  C21      1.0000 0.64090  0.95440  0.08910  Biso   1.000  C
  C22      1.0000 0.60790  0.26590  0.83300  Biso   1.000  C
  C23      1.0000 0.64470  0.28400  0.12010  Biso   1.000  C
  C24      1.0000 0.92000  0.93220  0.81050  Biso   1.000  C
  C25      1.0000 0.81280  0.76540  0.01950  Biso   1.000  C
  C26      1.0000 0.47420  0.95100  0.26280  Biso   1.000  C
  C27      1.0000 0.18390  0.97280  0.68620  Biso   1.000  C
  C28      1.0000 0.69830  0.29230  0.95810  Biso   1.000  C
  C29      1.0000 0.57590  0.29770  0.99080  Biso   1.000  C
  C30      1.0000 0.07380  0.80330  0.89560  Biso   1.000  C
  C31      1.0000 0.47190  0.28890  0.94280  Biso   1.000  C
  C32      1.0000 0.02650  0.96840  0.78390  Biso   1.000  C
  C33      1.0000 0.69620  0.94310  0.24620  Biso   1.000  C
  C34      1.0000 0.38230  0.04850  0.71000  Biso   1.000  C
  C35      1.0000 0.44750  0.86020  0.01640  Biso   1.000  C
  C36      1.0000 0.19690  0.97260  0.61080  Biso   1.000  C
  C37      1.0000 0.72060  0.72670  0.96970  Biso   1.000  C
  C38      1.0000 0.48740  0.26800  0.86390  Biso   1.000  C
  C39      1.0000 0.07740  0.91390  0.00910  Biso   1.000  C
  C40      1.0000 0.30070  0.01500  0.58980  Biso   1.000  C
  C41      1.0000 0.28210  0.00880  0.73520  Biso   1.000  C
  C42      1.0000 0.80380  0.76190  0.09550  Biso   1.000  C
  C43      1.0000 0.71070  0.27490  0.87910  Biso   1.000  C
  C44      1.0000 0.71400  0.95860  0.32440  Biso   1.000  C
  C45      1.0000 0.42900  0.67400  0.80920  Biso   1.000  C
  C46      1.0000 0.92930  0.82340  0.69440  Biso   1.000  C
  C47      1.0000 0.70420  0.72640  0.11720  Biso   1.000  C
  C48      1.0000 0.02870  0.85810  0.67120  Biso   1.000  C
  C49      1.0000 0.78030  0.05800  0.68270  Biso   1.000  C
  C50      1.0000 0.78310  0.17790  0.52260  Biso   1.000  C
  C51      1.0000 0.62300  0.69010  0.99640  Biso   1.000  C
  C52      1.0000 0.51180  0.46740  0.84070  Biso   1.000  C
  C53      1.0000 0.02410  0.37680  0.53900  Biso   1.000  C
  C54      1.0000 0.53670  0.86340  0.61180  Biso   1.000  C
  C55      1.0000 0.75650  0.41310  0.41190  Biso   1.000  C
  C56      1.0000 0.23870  0.32440  0.29380  Biso   1.000  C
  C57      1.0000 0.43690  0.42340  0.63250  Biso   1.000  C
  C58      1.0000 0.92300  0.43290  0.21400  Biso   1.000  C
  C59      1.0000 0.07770  0.30440  0.49340  Biso   1.000  C
  C60      1.0000 0.37550  0.49830  0.95840  Biso   1.000  C
  C61      1.0000 0.37740  0.74280  0.24840  Biso   1.000  C
  C62      1.0000 0.37760  0.43550  0.50990  Biso   1.000  C
  C63      1.0000 0.39280  0.47440  0.87250  Biso   1.000  C
  C64      1.0000 0.37510  0.80010  0.69610  Biso   1.000  C
  C65      1.0000 0.87540  0.37630  0.43890  Biso   1.000  C
  C66      1.0000 0.13040  0.35940  0.26570  Biso   1.000  C
  C67      1.0000 0.55040  0.87780  0.68960  Biso   1.000  C
  C68      1.0000 0.54040  0.37480  0.59520  Biso   1.000  C
  C69      1.0000 0.44300  0.81540  0.57470  Biso   1.000  C
  C70      1.0000 0.42040  0.43860  0.71560  Biso   1.000  C
  C71      1.0000 0.02570  0.26920  0.41980  Biso   1.000  C
  C72      1.0000 0.35910  0.45440  0.58910  Biso   1.000  C
  C73      1.0000 0.39210  0.76590  0.33300  Biso   1.000  C
  C74      1.0000 0.35530  0.78400  0.62010  Biso   1.000  C
  C75      1.0000 0.08000  0.43220  0.31050  Biso   1.000  C
  C76      1.0000 0.18720  0.26540  0.51950  Biso   1.000  C
  C77      1.0000 0.52580  0.45100  0.76280  Biso   1.000  C
  C78      1.0000 0.81610  0.47280  0.18620  Biso   1.000  C
  C79      1.0000 0.30170  0.79230  0.45810  Biso   1.000  C
  C80      1.0000 0.42410  0.79770  0.49080  Biso   1.000  C
  C81      1.0000 0.92620  0.30330  0.39560  Biso   1.000  C
  C82      1.0000 0.52810  0.78890  0.44280  Biso   1.000  C
  C83      1.0000 0.97350  0.46840  0.28390  Biso   1.000  C
  C84      1.0000 0.30380  0.44310  0.74620  Biso   1.000  C
  C85      1.0000 0.61770  0.54850  0.21000  Biso   1.000  C
  C86      1.0000 0.55250  0.36020  0.51640  Biso   1.000  C
  C87      1.0000 0.80310  0.47260  0.11080  Biso   1.000  C
  C88      1.0000 0.27940  0.22670  0.46970  Biso   1.000  C
  C89      1.0000 0.51260  0.76800  0.36390  Biso   1.000  C
  C90      1.0000 0.92260  0.41390  0.50910  Biso   1.000  C
  C91      1.0000 0.69930  0.51500  0.08980  Biso   1.000  C
  C92      1.0000 0.71790  0.50880  0.23520  Biso   1.000  C
  C93      1.0000 0.19620  0.26190  0.59550  Biso   1.000  C
  C94      1.0000 0.28930  0.77490  0.37910  Biso   1.000  C
  C95      1.0000 0.28600  0.45860  0.82440  Biso   1.000  C
  C96      1.0000 0.57100  0.17400  0.30920  Biso   1.000  C
  C97      1.0000 0.07070  0.32340  0.19440  Biso   1.000  C
  C98      1.0000 0.29580  0.22640  0.61720  Biso   1.000  C
  C99      1.0000 0.97130  0.35810  0.17120  Biso   1.000  C
  C100     1.0000 0.21970  0.55800  0.18270  Biso   1.000  C
  C101     1.0000 0.21690  0.67790  0.02260  Biso   1.000  C
  C102     1.0000 0.37700  0.19010  0.49640  Biso   1.000  C
  N1       1.0000 0.52560  0.34740  0.23270  Biso   1.000  N
  N2       1.0000 0.38810  0.05010  0.63720  Biso   1.000  N
  N3       1.0000 0.61040  0.68680  0.06780  Biso   1.000  N
  N4       1.0000 0.52780  0.89090  0.97460  Biso   1.000  N
  N5       1.0000 0.47440  0.84740  0.73270  Biso   1.000  N
  N6       1.0000 0.61190  0.55010  0.13720  Biso   1.000  N
  N7       1.0000 0.38960  0.18680  0.56780  Biso   1.000  N
  N8       1.0000 0.47220  0.39090  0.47460  Biso   1.000  N
  O1       1.0000 0.68070  0.19490  0.57500  Biso   1.000  O
  O2       1.0000 0.67950  0.04310  0.63080  Biso   1.000  O
  O3       1.0000 0.53580  0.19670  0.71000  Biso   1.000  O
  O4       1.0000 0.48250  0.99880  0.87110  Biso   1.000  O
  O5       1.0000 0.53770  0.03980  0.49520  Biso   1.000  O
  O6       1.0000 0.51570  0.73860  0.83510  Biso   1.000  O
  O7       1.0000 0.68980  0.87450  0.84060  Biso   1.000  O
  O8       1.0000 0.30950  0.86280  0.86440  Biso   1.000  O
  O9       1.0000 0.71790  0.97310  0.48460  Biso   1.000  O
  O10      1.0000 0.26650  0.98810  0.93730  Biso   1.000  O
  O11      1.0000 0.74060  0.74900  0.76930  Biso   1.000  O
  O12      1.0000 0.72160  0.26370  0.71880  Biso   1.000  O
  O13      1.0000 0.31930  0.69490  0.07500  Biso   1.000  O
  O14      1.0000 0.32050  0.54310  0.13080  Biso   1.000  O
  O15      1.0000 0.46420  0.69670  0.21000  Biso   1.000  O
  O16      1.0000 0.51750  0.49880  0.37110  Biso   1.000  O
  O17      1.0000 0.46230  0.53980  0.99520  Biso   1.000  O
  O18      1.0000 0.48430  0.23860  0.33510  Biso   1.000  O
  O19      1.0000 0.31020  0.37450  0.34060  Biso   1.000  O
  O20      1.0000 0.69050  0.36280  0.36440  Biso   1.000  O
  O21      1.0000 0.28210  0.47310  0.98460  Biso   1.000  O
  O22      1.0000 0.73350  0.48810  0.43730  Biso   1.000  O
  O23      1.0000 0.25940  0.24900  0.26930  Biso   1.000  O
  O24      1.0000 0.27840  0.76370  0.21880  Biso   1.000  O
