data_image0
_cell_length_a       11.7992
_cell_length_b       11.8606
_cell_length_c       13.6301
_cell_angle_alpha    95.263
_cell_angle_beta     108.547
_cell_angle_gamma    108.081

_symmetry_space_group_name_H-M    P 1
_symmetry_int_tables_number       1

loop_
  _symmetry_equiv_pos_as_xyz
  'x, y, z'

loop_
  _atom_site_label
  _atom_site_occupancy
  _atom_site_fract_x
  _atom_site_fract_y
  _atom_site_fract_z
  _atom_site_thermal_displace_type
  _atom_site_B_iso_or_equiv
  _atom_site_type_symbol
  Ce1      1.0000 0.00139  0.99780  0.74980  Biso   1.000  Ce
  Ce2      1.0000 0.37253  0.35864  0.61235  Biso   1.000  Ce
  Ce3      1.0000 0.99861  0.00220  0.25020  Biso   1.000  Ce
  Ce4      1.0000 0.62747  0.64136  0.38765  Biso   1.000  Ce
  H1       1.0000 0.61920  0.19520  0.69370  Biso   1.000  H
  H2       1.0000 0.46900  0.83310  0.58400  Biso   1.000  H
  H3       1.0000 0.53370  0.16990  0.86370  Biso   1.000  H
  H4       1.0000 0.39660  0.81560  0.86970  Biso   1.000  H
  H5       1.0000 0.23210  0.92540  0.51210  Biso   1.000  H
  H6       1.0000 0.70570  0.89750  0.95410  Biso   1.000  H
  H7       1.0000 0.14000  0.31000  0.66900  Biso   1.000  H
  H8       1.0000 0.06900  0.34600  0.59300  Biso   1.000  H
  H9       1.0000 0.13090  0.50330  0.39950  Biso   1.000  H
  H10      1.0000 0.16830  0.38860  0.38430  Biso   1.000  H
  H11      1.0000 0.44330  0.60800  0.53330  Biso   1.000  H
  H12      1.0000 0.15900  0.41900  0.22300  Biso   1.000  H
  H13      1.0000 0.12700  0.51700  0.23200  Biso   1.000  H
  H14      1.0000 0.47600  0.58900  0.81660  Biso   1.000  H
  H15      1.0000 0.43700  0.62000  0.72700  Biso   1.000  H
  H16      1.0000 0.38080  0.80480  0.30630  Biso   1.000  H
  H17      1.0000 0.53100  0.16690  0.41600  Biso   1.000  H
  H18      1.0000 0.46630  0.83010  0.13630  Biso   1.000  H
  H19      1.0000 0.60340  0.18440  0.13030  Biso   1.000  H
  H20      1.0000 0.76790  0.07460  0.48790  Biso   1.000  H
  H21      1.0000 0.29430  0.10250  0.04590  Biso   1.000  H
  H22      1.0000 0.86000  0.69000  0.33100  Biso   1.000  H
  H23      1.0000 0.93100  0.65400  0.40700  Biso   1.000  H
  H24      1.0000 0.86910  0.49670  0.60050  Biso   1.000  H
  H25      1.0000 0.83170  0.61140  0.61570  Biso   1.000  H
  H26      1.0000 0.55670  0.39200  0.46670  Biso   1.000  H
  H27      1.0000 0.84100  0.58100  0.77700  Biso   1.000  H
  H28      1.0000 0.87300  0.48300  0.76800  Biso   1.000  H
  H29      1.0000 0.52400  0.41100  0.18340  Biso   1.000  H
  H30      1.0000 0.56300  0.38000  0.27300  Biso   1.000  H
  C1       1.0000 0.74810  0.11050  0.71523  Biso   1.000  C
  C2       1.0000 0.62810  0.12040  0.68231  Biso   1.000  C
  C3       1.0000 0.52220  0.01520  0.63184  Biso   1.000  C
  C4       1.0000 0.53910  0.90510  0.61514  Biso   1.000  C
  C5       1.0000 0.66300  0.90500  0.64600  Biso   1.000  C
  C6       1.0000 0.86960  0.21710  0.77721  Biso   1.000  C
  C7       1.0000 0.39120  0.02340  0.59210  Biso   1.000  C
  C8       1.0000 0.69530  0.79460  0.62085  Biso   1.000  C
  C9       1.0000 0.34100  0.09600  0.82179  Biso   1.000  C
  C10      1.0000 0.46600  0.09880  0.85472  Biso   1.000  C
  C11      1.0000 0.48760  0.99300  0.87390  Biso   1.000  C
  C12      1.0000 0.38470  0.88820  0.85929  Biso   1.000  C
  C13      1.0000 0.26300  0.89490  0.82860  Biso   1.000  C
  C14      1.0000 0.30400  0.20220  0.79193  Biso   1.000  C
  C15      1.0000 0.62380  0.99730  0.91392  Biso   1.000  C
  C16      1.0000 0.14370  0.78900  0.81363  Biso   1.000  C
  C17      1.0000 0.06920  0.04620  0.02386  Biso   1.000  C
  C18      1.0000 0.04170  0.96040  0.50853  Biso   1.000  C
  C19      1.0000 0.31610  0.54720  0.40910  Biso   1.000  C
  C20      1.0000 0.17720  0.46760  0.36680  Biso   1.000  C
  C21      1.0000 0.25190  0.88950  0.28477  Biso   1.000  C
  C22      1.0000 0.37190  0.87960  0.31769  Biso   1.000  C
  C23      1.0000 0.47780  0.98480  0.36816  Biso   1.000  C
  C24      1.0000 0.46090  0.09490  0.38486  Biso   1.000  C
  C25      1.0000 0.33700  0.09500  0.35400  Biso   1.000  C
  C26      1.0000 0.13040  0.78290  0.22279  Biso   1.000  C
  C27      1.0000 0.60880  0.97660  0.40790  Biso   1.000  C
  C28      1.0000 0.30470  0.20540  0.37915  Biso   1.000  C
  C29      1.0000 0.65900  0.90400  0.17821  Biso   1.000  C
  C30      1.0000 0.53400  0.90120  0.14528  Biso   1.000  C
  C31      1.0000 0.51240  0.00700  0.12610  Biso   1.000  C
  C32      1.0000 0.61530  0.11180  0.14071  Biso   1.000  C
  C33      1.0000 0.73700  0.10510  0.17140  Biso   1.000  C
  C34      1.0000 0.69600  0.79780  0.20807  Biso   1.000  C
  C35      1.0000 0.37620  0.00270  0.08608  Biso   1.000  C
  C36      1.0000 0.85630  0.21100  0.18637  Biso   1.000  C
  C37      1.0000 0.93080  0.95380  0.97614  Biso   1.000  C
  C38      1.0000 0.95830  0.03960  0.49147  Biso   1.000  C
  C39      1.0000 0.68390  0.45280  0.59090  Biso   1.000  C
  C40      1.0000 0.82280  0.53240  0.63320  Biso   1.000  C
  N1       1.0000 0.76529  0.00610  0.69559  Biso   1.000  N
  N2       1.0000 0.24206  0.99663  0.81087  Biso   1.000  N
  N3       1.0000 0.12240  0.45330  0.25130  Biso   1.000  N
  N4       1.0000 0.23471  0.99390  0.30441  Biso   1.000  N
  N5       1.0000 0.75794  0.00337  0.18913  Biso   1.000  N
  N6       1.0000 0.87760  0.54670  0.74870  Biso   1.000  N
  O1       1.0000 0.97146  0.19405  0.80640  Biso   1.000  O
  O2       1.0000 0.86206  0.31774  0.79852  Biso   1.000  O
  O3       1.0000 0.30230  0.91820  0.53250  Biso   1.000  O
  O4       1.0000 0.37323  0.11745  0.59987  Biso   1.000  O
  O5       1.0000 0.60704  0.69379  0.58055  Biso   1.000  O
  O6       1.0000 0.81129  0.81277  0.63949  Biso   1.000  O
  O7       1.0000 0.18645  0.18515  0.75972  Biso   1.000  O
  O8       1.0000 0.38938  0.29929  0.79795  Biso   1.000  O
  O9       1.0000 0.63057  0.89201  0.93243  Biso   1.000  O
  O10      1.0000 0.71394  0.08856  0.92992  Biso   1.000  O
  O11      1.0000 0.15311  0.68762  0.82109  Biso   1.000  O
  O12      1.0000 0.04216  0.80995  0.79442  Biso   1.000  O
  O13      1.0000 0.12415  0.07717  0.95997  Biso   1.000  O
  O14      1.0000 0.11602  0.08231  0.12216  Biso   1.000  O
  O15      1.0000 0.06959  0.92908  0.59519  Biso   1.000  O
  O16      1.0000 0.07610  0.93507  0.43381  Biso   1.000  O
  O17      1.0000 0.14350  0.35650  0.62880  Biso   1.000  O
  O18      1.0000 0.36759  0.56417  0.51282  Biso   1.000  O
  O19      1.0000 0.37202  0.58897  0.35370  Biso   1.000  O
  O20      1.0000 0.48600  0.58780  0.75873  Biso   1.000  O
  O21      1.0000 0.02854  0.80595  0.19360  Biso   1.000  O
  O22      1.0000 0.13794  0.68226  0.20148  Biso   1.000  O
  O23      1.0000 0.69770  0.08180  0.46750  Biso   1.000  O
  O24      1.0000 0.62677  0.88255  0.40013  Biso   1.000  O
  O25      1.0000 0.39296  0.30621  0.41945  Biso   1.000  O
  O26      1.0000 0.18871  0.18723  0.36051  Biso   1.000  O
  O27      1.0000 0.81355  0.81485  0.24028  Biso   1.000  O
  O28      1.0000 0.61062  0.70071  0.20205  Biso   1.000  O
  O29      1.0000 0.36943  0.10799  0.06757  Biso   1.000  O
  O30      1.0000 0.28606  0.91144  0.07008  Biso   1.000  O
  O31      1.0000 0.84689  0.31238  0.17891  Biso   1.000  O
  O32      1.0000 0.95784  0.19005  0.20558  Biso   1.000  O
  O33      1.0000 0.87585  0.92283  0.04003  Biso   1.000  O
  O34      1.0000 0.88398  0.91769  0.87784  Biso   1.000  O
  O35      1.0000 0.93041  0.07092  0.40481  Biso   1.000  O
  O36      1.0000 0.92390  0.06493  0.56619  Biso   1.000  O
  O37      1.0000 0.85650  0.64350  0.37120  Biso   1.000  O
  O38      1.0000 0.63241  0.43583  0.48718  Biso   1.000  O
  O39      1.0000 0.62798  0.41103  0.64630  Biso   1.000  O
  O40      1.0000 0.51400  0.41220  0.24127  Biso   1.000  O
