data_image0
_cell_length_a       18.5153
_cell_length_b       18.5153
_cell_length_c       25.0576
_cell_angle_alpha    90
_cell_angle_beta     90
_cell_angle_gamma    90

_symmetry_space_group_name_H-M    P 1
_symmetry_int_tables_number       1

loop_
  _symmetry_equiv_pos_as_xyz
  'x, y, z'

loop_
  _atom_site_label
  _atom_site_occupancy
  _atom_site_fract_x
  _atom_site_fract_y
  _atom_site_fract_z
  _atom_site_thermal_displace_type
  _atom_site_B_iso_or_equiv
  _atom_site_type_symbol
  Cu1      1.0000 0.40334  0.59666  0.50000  Biso   1.000  Cu
  Cu2      1.0000 0.59666  0.40334  0.50000  Biso   1.000  Cu
  Cu3      1.0000 0.90334  0.90334  0.00000  Biso   1.000  Cu
  Cu4      1.0000 0.09666  0.09666  0.00000  Biso   1.000  Cu
  Cu5      1.0000 0.50000  0.50000  0.39839  Biso   1.000  Cu
  Cu6      1.0000 0.00000  0.00000  0.89839  Biso   1.000  Cu
  Cu7      1.0000 0.00000  0.00000  0.10161  Biso   1.000  Cu
  Cu8      1.0000 0.50000  0.50000  0.60161  Biso   1.000  Cu
  Si1      1.0000 0.50000  0.00000  0.25000  Biso   1.000  Si
  Si2      1.0000 0.50000  0.00000  0.75000  Biso   1.000  Si
  Si3      1.0000 0.00000  0.50000  0.25000  Biso   1.000  Si
  Si4      1.0000 0.00000  0.50000  0.75000  Biso   1.000  Si
  H1       1.0000 0.56520  0.75180  0.29460  Biso   1.000  H
  H2       1.0000 0.56760  0.85770  0.24500  Biso   1.000  H
  H3       1.0000 0.44030  0.95430  0.35330  Biso   1.000  H
  H4       1.0000 0.43750  0.84800  0.40290  Biso   1.000  H
  H5       1.0000 0.43480  0.24820  0.29460  Biso   1.000  H
  H6       1.0000 0.43240  0.14230  0.24500  Biso   1.000  H
  H7       1.0000 0.55970  0.04570  0.35330  Biso   1.000  H
  H8       1.0000 0.56250  0.15200  0.40290  Biso   1.000  H
  H9       1.0000 0.74820  0.06520  0.79460  Biso   1.000  H
  H10      1.0000 0.64230  0.06760  0.74500  Biso   1.000  H
  H11      1.0000 0.54570  0.94030  0.85330  Biso   1.000  H
  H12      1.0000 0.65200  0.93750  0.90290  Biso   1.000  H
  H13      1.0000 0.25180  0.93480  0.79460  Biso   1.000  H
  H14      1.0000 0.35770  0.93240  0.74500  Biso   1.000  H
  H15      1.0000 0.45430  0.05970  0.85330  Biso   1.000  H
  H16      1.0000 0.34800  0.06250  0.90290  Biso   1.000  H
  H17      1.0000 0.93480  0.25180  0.20540  Biso   1.000  H
  H18      1.0000 0.93240  0.35770  0.25500  Biso   1.000  H
  H19      1.0000 0.05970  0.45430  0.14670  Biso   1.000  H
  H20      1.0000 0.06250  0.34800  0.09710  Biso   1.000  H
  H21      1.0000 0.06520  0.74820  0.20540  Biso   1.000  H
  H22      1.0000 0.06760  0.64230  0.25500  Biso   1.000  H
  H23      1.0000 0.94030  0.54570  0.14670  Biso   1.000  H
  H24      1.0000 0.93750  0.65200  0.09710  Biso   1.000  H
  H25      1.0000 0.75180  0.56520  0.70540  Biso   1.000  H
  H26      1.0000 0.85770  0.56760  0.75500  Biso   1.000  H
  H27      1.0000 0.95430  0.44030  0.64670  Biso   1.000  H
  H28      1.0000 0.84800  0.43750  0.59710  Biso   1.000  H
  H29      1.0000 0.24820  0.43480  0.70540  Biso   1.000  H
  H30      1.0000 0.14230  0.43240  0.75500  Biso   1.000  H
  H31      1.0000 0.04570  0.55970  0.64670  Biso   1.000  H
  H32      1.0000 0.15200  0.56250  0.59710  Biso   1.000  H
  H33      1.0000 0.43480  0.24820  0.70540  Biso   1.000  H
  H34      1.0000 0.43240  0.14230  0.75500  Biso   1.000  H
  H35      1.0000 0.55970  0.04570  0.64670  Biso   1.000  H
  H36      1.0000 0.56250  0.15200  0.59710  Biso   1.000  H
  H37      1.0000 0.56520  0.75180  0.70540  Biso   1.000  H
  H38      1.0000 0.56760  0.85770  0.75500  Biso   1.000  H
  H39      1.0000 0.44030  0.95430  0.64670  Biso   1.000  H
  H40      1.0000 0.43750  0.84800  0.59710  Biso   1.000  H
  H41      1.0000 0.25180  0.93480  0.20540  Biso   1.000  H
  H42      1.0000 0.35770  0.93240  0.25500  Biso   1.000  H
  H43      1.0000 0.45430  0.05970  0.14670  Biso   1.000  H
  H44      1.0000 0.34800  0.06250  0.09710  Biso   1.000  H
  H45      1.0000 0.74820  0.06520  0.20540  Biso   1.000  H
  H46      1.0000 0.64230  0.06760  0.25500  Biso   1.000  H
  H47      1.0000 0.54570  0.94030  0.14670  Biso   1.000  H
  H48      1.0000 0.65200  0.93750  0.09710  Biso   1.000  H
  H49      1.0000 0.06520  0.74820  0.79460  Biso   1.000  H
  H50      1.0000 0.06760  0.64230  0.74500  Biso   1.000  H
  H51      1.0000 0.94030  0.54570  0.85330  Biso   1.000  H
  H52      1.0000 0.93750  0.65200  0.90290  Biso   1.000  H
  H53      1.0000 0.93480  0.25180  0.79460  Biso   1.000  H
  H54      1.0000 0.93240  0.35770  0.74500  Biso   1.000  H
  H55      1.0000 0.05970  0.45430  0.85330  Biso   1.000  H
  H56      1.0000 0.06250  0.34800  0.90290  Biso   1.000  H
  H57      1.0000 0.24820  0.43480  0.29460  Biso   1.000  H
  H58      1.0000 0.14230  0.43240  0.24500  Biso   1.000  H
  H59      1.0000 0.04570  0.55970  0.35330  Biso   1.000  H
  H60      1.0000 0.15200  0.56250  0.40290  Biso   1.000  H
  H61      1.0000 0.75180  0.56520  0.29460  Biso   1.000  H
  H62      1.0000 0.85770  0.56760  0.24500  Biso   1.000  H
  H63      1.0000 0.95430  0.44030  0.35330  Biso   1.000  H
  H64      1.0000 0.84800  0.43750  0.40290  Biso   1.000  H
  C1       1.0000 0.49354  0.72117  0.38312  Biso   1.000  C
  C2       1.0000 0.49995  0.78936  0.35332  Biso   1.000  C
  C3       1.0000 0.53907  0.79284  0.30663  Biso   1.000  C
  C4       1.0000 0.54039  0.85626  0.27710  Biso   1.000  C
  C5       1.0000 0.50322  0.91743  0.29304  Biso   1.000  C
  C6       1.0000 0.46559  0.91304  0.34060  Biso   1.000  C
  C7       1.0000 0.46394  0.84954  0.37038  Biso   1.000  C
  C8       1.0000 0.50646  0.27883  0.38312  Biso   1.000  C
  C9       1.0000 0.50005  0.21064  0.35332  Biso   1.000  C
  C10      1.0000 0.46093  0.20716  0.30663  Biso   1.000  C
  C11      1.0000 0.45961  0.14374  0.27710  Biso   1.000  C
  C12      1.0000 0.49678  0.08257  0.29304  Biso   1.000  C
  C13      1.0000 0.53441  0.08696  0.34060  Biso   1.000  C
  C14      1.0000 0.53606  0.15046  0.37038  Biso   1.000  C
  C15      1.0000 0.77883  0.99354  0.88312  Biso   1.000  C
  C16      1.0000 0.71064  0.99995  0.85332  Biso   1.000  C
  C17      1.0000 0.70716  0.03907  0.80663  Biso   1.000  C
  C18      1.0000 0.64374  0.04039  0.77710  Biso   1.000  C
  C19      1.0000 0.58257  0.00322  0.79304  Biso   1.000  C
  C20      1.0000 0.58696  0.96559  0.84060  Biso   1.000  C
  C21      1.0000 0.65046  0.96394  0.87038  Biso   1.000  C
  C22      1.0000 0.22117  0.00646  0.88312  Biso   1.000  C
  C23      1.0000 0.28936  0.00005  0.85332  Biso   1.000  C
  C24      1.0000 0.29284  0.96093  0.80663  Biso   1.000  C
  C25      1.0000 0.35626  0.95961  0.77710  Biso   1.000  C
  C26      1.0000 0.41743  0.99678  0.79304  Biso   1.000  C
  C27      1.0000 0.41304  0.03441  0.84060  Biso   1.000  C
  C28      1.0000 0.34954  0.03606  0.87038  Biso   1.000  C
  C29      1.0000 0.00646  0.22117  0.11688  Biso   1.000  C
  C30      1.0000 0.00005  0.28936  0.14668  Biso   1.000  C
  C31      1.0000 0.96093  0.29284  0.19337  Biso   1.000  C
  C32      1.0000 0.95961  0.35626  0.22290  Biso   1.000  C
  C33      1.0000 0.99678  0.41743  0.20696  Biso   1.000  C
  C34      1.0000 0.03441  0.41304  0.15940  Biso   1.000  C
  C35      1.0000 0.03606  0.34954  0.12962  Biso   1.000  C
  C36      1.0000 0.99354  0.77883  0.11688  Biso   1.000  C
  C37      1.0000 0.99995  0.71064  0.14668  Biso   1.000  C
  C38      1.0000 0.03907  0.70716  0.19337  Biso   1.000  C
  C39      1.0000 0.04039  0.64374  0.22290  Biso   1.000  C
  C40      1.0000 0.00322  0.58257  0.20696  Biso   1.000  C
  C41      1.0000 0.96559  0.58696  0.15940  Biso   1.000  C
  C42      1.0000 0.96394  0.65046  0.12962  Biso   1.000  C
  C43      1.0000 0.72117  0.49354  0.61688  Biso   1.000  C
  C44      1.0000 0.78936  0.49995  0.64668  Biso   1.000  C
  C45      1.0000 0.79284  0.53907  0.69337  Biso   1.000  C
  C46      1.0000 0.85626  0.54039  0.72290  Biso   1.000  C
  C47      1.0000 0.91743  0.50322  0.70696  Biso   1.000  C
  C48      1.0000 0.91304  0.46559  0.65940  Biso   1.000  C
  C49      1.0000 0.84954  0.46394  0.62962  Biso   1.000  C
  C50      1.0000 0.27883  0.50646  0.61688  Biso   1.000  C
  C51      1.0000 0.21064  0.50005  0.64668  Biso   1.000  C
  C52      1.0000 0.20716  0.46093  0.69337  Biso   1.000  C
  C53      1.0000 0.14374  0.45961  0.72290  Biso   1.000  C
  C54      1.0000 0.08257  0.49678  0.70696  Biso   1.000  C
  C55      1.0000 0.08696  0.53441  0.65940  Biso   1.000  C
  C56      1.0000 0.15046  0.53606  0.62962  Biso   1.000  C
  C57      1.0000 0.50646  0.27883  0.61688  Biso   1.000  C
  C58      1.0000 0.50005  0.21064  0.64668  Biso   1.000  C
  C59      1.0000 0.46093  0.20716  0.69337  Biso   1.000  C
  C60      1.0000 0.45961  0.14374  0.72290  Biso   1.000  C
  C61      1.0000 0.49678  0.08257  0.70696  Biso   1.000  C
  C62      1.0000 0.53441  0.08696  0.65940  Biso   1.000  C
  C63      1.0000 0.53606  0.15046  0.62962  Biso   1.000  C
  C64      1.0000 0.49354  0.72117  0.61688  Biso   1.000  C
  C65      1.0000 0.49995  0.78936  0.64668  Biso   1.000  C
  C66      1.0000 0.53907  0.79284  0.69337  Biso   1.000  C
  C67      1.0000 0.54039  0.85626  0.72290  Biso   1.000  C
  C68      1.0000 0.50322  0.91743  0.70696  Biso   1.000  C
  C69      1.0000 0.46559  0.91304  0.65940  Biso   1.000  C
  C70      1.0000 0.46394  0.84954  0.62962  Biso   1.000  C
  C71      1.0000 0.22117  0.00646  0.11688  Biso   1.000  C
  C72      1.0000 0.28936  0.00005  0.14668  Biso   1.000  C
  C73      1.0000 0.29284  0.96093  0.19337  Biso   1.000  C
  C74      1.0000 0.35626  0.95961  0.22290  Biso   1.000  C
  C75      1.0000 0.41743  0.99678  0.20696  Biso   1.000  C
  C76      1.0000 0.41304  0.03441  0.15940  Biso   1.000  C
  C77      1.0000 0.34954  0.03606  0.12962  Biso   1.000  C
  C78      1.0000 0.77883  0.99354  0.11688  Biso   1.000  C
  C79      1.0000 0.71064  0.99995  0.14668  Biso   1.000  C
  C80      1.0000 0.70716  0.03907  0.19337  Biso   1.000  C
  C81      1.0000 0.64374  0.04039  0.22290  Biso   1.000  C
  C82      1.0000 0.58257  0.00322  0.20696  Biso   1.000  C
  C83      1.0000 0.58696  0.96559  0.15940  Biso   1.000  C
  C84      1.0000 0.65046  0.96394  0.12962  Biso   1.000  C
  C85      1.0000 0.99354  0.77883  0.88312  Biso   1.000  C
  C86      1.0000 0.99995  0.71064  0.85332  Biso   1.000  C
  C87      1.0000 0.03907  0.70716  0.80663  Biso   1.000  C
  C88      1.0000 0.04039  0.64374  0.77710  Biso   1.000  C
  C89      1.0000 0.00322  0.58257  0.79304  Biso   1.000  C
  C90      1.0000 0.96559  0.58696  0.84060  Biso   1.000  C
  C91      1.0000 0.96394  0.65046  0.87038  Biso   1.000  C
  C92      1.0000 0.00646  0.22117  0.88312  Biso   1.000  C
  C93      1.0000 0.00005  0.28936  0.85332  Biso   1.000  C
  C94      1.0000 0.96093  0.29284  0.80663  Biso   1.000  C
  C95      1.0000 0.95961  0.35626  0.77710  Biso   1.000  C
  C96      1.0000 0.99678  0.41743  0.79304  Biso   1.000  C
  C97      1.0000 0.03441  0.41304  0.84060  Biso   1.000  C
  C98      1.0000 0.03606  0.34954  0.87038  Biso   1.000  C
  C99      1.0000 0.27883  0.50646  0.38312  Biso   1.000  C
  C100     1.0000 0.21064  0.50005  0.35332  Biso   1.000  C
  C101     1.0000 0.20716  0.46093  0.30663  Biso   1.000  C
  C102     1.0000 0.14374  0.45961  0.27710  Biso   1.000  C
  C103     1.0000 0.08257  0.49678  0.29304  Biso   1.000  C
  C104     1.0000 0.08696  0.53441  0.34060  Biso   1.000  C
  C105     1.0000 0.15046  0.53606  0.37038  Biso   1.000  C
  C106     1.0000 0.72117  0.49354  0.38312  Biso   1.000  C
  C107     1.0000 0.78936  0.49995  0.35332  Biso   1.000  C
  C108     1.0000 0.79284  0.53907  0.30663  Biso   1.000  C
  C109     1.0000 0.85626  0.54039  0.27710  Biso   1.000  C
  C110     1.0000 0.91743  0.50322  0.29304  Biso   1.000  C
  C111     1.0000 0.91304  0.46559  0.34060  Biso   1.000  C
  C112     1.0000 0.84954  0.46394  0.37038  Biso   1.000  C
  N1       1.0000 0.45992  0.64582  0.44104  Biso   1.000  N
  N2       1.0000 0.49600  0.61068  0.40280  Biso   1.000  N
  N3       1.0000 0.51796  0.65695  0.36592  Biso   1.000  N
  N4       1.0000 0.45774  0.71575  0.42940  Biso   1.000  N
  N5       1.0000 0.54008  0.35418  0.44104  Biso   1.000  N
  N6       1.0000 0.50400  0.38932  0.40280  Biso   1.000  N
  N7       1.0000 0.48204  0.34305  0.36592  Biso   1.000  N
  N8       1.0000 0.54226  0.28425  0.42940  Biso   1.000  N
  N9       1.0000 0.85418  0.95992  0.94104  Biso   1.000  N
  N10      1.0000 0.88932  0.99600  0.90280  Biso   1.000  N
  N11      1.0000 0.84305  0.01796  0.86592  Biso   1.000  N
  N12      1.0000 0.78425  0.95774  0.92940  Biso   1.000  N
  N13      1.0000 0.14582  0.04008  0.94104  Biso   1.000  N
  N14      1.0000 0.11068  0.00400  0.90280  Biso   1.000  N
  N15      1.0000 0.15695  0.98204  0.86592  Biso   1.000  N
  N16      1.0000 0.21575  0.04226  0.92940  Biso   1.000  N
  N17      1.0000 0.04008  0.14582  0.05896  Biso   1.000  N
  N18      1.0000 0.00400  0.11068  0.09720  Biso   1.000  N
  N19      1.0000 0.98204  0.15695  0.13408  Biso   1.000  N
  N20      1.0000 0.04226  0.21575  0.07060  Biso   1.000  N
  N21      1.0000 0.95992  0.85418  0.05896  Biso   1.000  N
  N22      1.0000 0.99600  0.88932  0.09720  Biso   1.000  N
  N23      1.0000 0.01796  0.84305  0.13408  Biso   1.000  N
  N24      1.0000 0.95774  0.78425  0.07060  Biso   1.000  N
  N25      1.0000 0.64582  0.45992  0.55896  Biso   1.000  N
  N26      1.0000 0.61068  0.49600  0.59720  Biso   1.000  N
  N27      1.0000 0.65695  0.51796  0.63408  Biso   1.000  N
  N28      1.0000 0.71575  0.45774  0.57060  Biso   1.000  N
  N29      1.0000 0.35418  0.54008  0.55896  Biso   1.000  N
  N30      1.0000 0.38932  0.50400  0.59720  Biso   1.000  N
  N31      1.0000 0.34305  0.48204  0.63408  Biso   1.000  N
  N32      1.0000 0.28425  0.54226  0.57060  Biso   1.000  N
  N33      1.0000 0.54008  0.35418  0.55896  Biso   1.000  N
  N34      1.0000 0.50400  0.38932  0.59720  Biso   1.000  N
  N35      1.0000 0.48204  0.34305  0.63408  Biso   1.000  N
  N36      1.0000 0.54226  0.28425  0.57060  Biso   1.000  N
  N37      1.0000 0.45992  0.64582  0.55896  Biso   1.000  N
  N38      1.0000 0.49600  0.61068  0.59720  Biso   1.000  N
  N39      1.0000 0.51796  0.65695  0.63408  Biso   1.000  N
  N40      1.0000 0.45774  0.71575  0.57060  Biso   1.000  N
  N41      1.0000 0.14582  0.04008  0.05896  Biso   1.000  N
  N42      1.0000 0.11068  0.00400  0.09720  Biso   1.000  N
  N43      1.0000 0.15695  0.98204  0.13408  Biso   1.000  N
  N44      1.0000 0.21575  0.04226  0.07060  Biso   1.000  N
  N45      1.0000 0.85418  0.95992  0.05896  Biso   1.000  N
  N46      1.0000 0.88932  0.99600  0.09720  Biso   1.000  N
  N47      1.0000 0.84305  0.01796  0.13408  Biso   1.000  N
  N48      1.0000 0.78425  0.95774  0.07060  Biso   1.000  N
  N49      1.0000 0.95992  0.85418  0.94104  Biso   1.000  N
  N50      1.0000 0.99600  0.88932  0.90280  Biso   1.000  N
  N51      1.0000 0.01796  0.84305  0.86592  Biso   1.000  N
  N52      1.0000 0.95774  0.78425  0.92940  Biso   1.000  N
  N53      1.0000 0.04008  0.14582  0.94104  Biso   1.000  N
  N54      1.0000 0.00400  0.11068  0.90280  Biso   1.000  N
  N55      1.0000 0.98204  0.15695  0.86592  Biso   1.000  N
  N56      1.0000 0.04226  0.21575  0.92940  Biso   1.000  N
  N57      1.0000 0.35418  0.54008  0.44104  Biso   1.000  N
  N58      1.0000 0.38932  0.50400  0.40280  Biso   1.000  N
  N59      1.0000 0.34305  0.48204  0.36592  Biso   1.000  N
  N60      1.0000 0.28425  0.54226  0.42940  Biso   1.000  N
  N61      1.0000 0.64582  0.45992  0.44104  Biso   1.000  N
  N62      1.0000 0.61068  0.49600  0.40280  Biso   1.000  N
  N63      1.0000 0.65695  0.51796  0.36592  Biso   1.000  N
  N64      1.0000 0.71575  0.45774  0.42940  Biso   1.000  N
  Cl1      1.0000 0.50000  0.50000  0.50000  Biso   1.000  Cl
  Cl2      1.0000 0.00000  0.00000  0.00000  Biso   1.000  Cl
  O1       1.0000 0.31703  0.68297  0.50000  Biso   1.000  O
  O2       1.0000 0.68297  0.31703  0.50000  Biso   1.000  O
  O3       1.0000 0.81703  0.81703  0.00000  Biso   1.000  O
  O4       1.0000 0.18297  0.18297  0.00000  Biso   1.000  O
  O5       1.0000 0.50000  0.50000  0.30963  Biso   1.000  O
  O6       1.0000 0.00000  0.00000  0.80963  Biso   1.000  O
  O7       1.0000 0.00000  0.00000  0.19037  Biso   1.000  O
  O8       1.0000 0.50000  0.50000  0.69037  Biso   1.000  O
