data_image0
_cell_length_a       26.855
_cell_length_b       26.855
_cell_length_c       26.9075
_cell_angle_alpha    60.0645
_cell_angle_beta     60.0645
_cell_angle_gamma    90

_symmetry_space_group_name_H-M    P 1
_symmetry_int_tables_number       1

loop_
  _symmetry_equiv_pos_as_xyz
  'x, y, z'

loop_
  _atom_site_label
  _atom_site_occupancy
  _atom_site_fract_x
  _atom_site_fract_y
  _atom_site_fract_z
  _atom_site_thermal_displace_type
  _atom_site_B_iso_or_equiv
  _atom_site_type_symbol
  Zn1      1.0000 0.18440  0.23626  0.28939  Biso   1.000  Zn
  Zn2      1.0000 0.06344  0.13569  0.40182  Biso   1.000  Zn
  Zn3      1.0000 0.52621  0.47436  0.28938  Biso   1.000  Zn
  Zn4      1.0000 0.53474  0.46249  0.40182  Biso   1.000  Zn
  Zn5      1.0000 0.23626  0.52620  0.28939  Biso   1.000  Zn
  Zn6      1.0000 0.13569  0.53474  0.40182  Biso   1.000  Zn
  Zn7      1.0000 0.47436  0.18441  0.28938  Biso   1.000  Zn
  Zn8      1.0000 0.46249  0.06344  0.40182  Biso   1.000  Zn
  Zn9      1.0000 0.81560  0.76374  0.71061  Biso   1.000  Zn
  Zn10     1.0000 0.93656  0.86431  0.59818  Biso   1.000  Zn
  Zn11     1.0000 0.47379  0.52564  0.71062  Biso   1.000  Zn
  Zn12     1.0000 0.46526  0.53751  0.59818  Biso   1.000  Zn
  Zn13     1.0000 0.76373  0.47379  0.71062  Biso   1.000  Zn
  Zn14     1.0000 0.86431  0.46526  0.59818  Biso   1.000  Zn
  Zn15     1.0000 0.52564  0.81559  0.71062  Biso   1.000  Zn
  Zn16     1.0000 0.53751  0.93656  0.59818  Biso   1.000  Zn
  Zn17     1.0000 0.20960  0.54965  0.00000  Biso   1.000  Zn
  Zn18     1.0000 0.10009  0.56728  0.00000  Biso   1.000  Zn
  Zn19     1.0000 0.79040  0.45035  0.00000  Biso   1.000  Zn
  Zn20     1.0000 0.89991  0.43272  1.00000  Biso   1.000  Zn
  Zn21     1.0000 0.54965  0.79040  1.00000  Biso   1.000  Zn
  Zn22     1.0000 0.56728  0.89991  0.00000  Biso   1.000  Zn
  Zn23     1.0000 0.45035  0.20960  0.00000  Biso   1.000  Zn
  Zn24     1.0000 0.43272  0.10009  1.00000  Biso   1.000  Zn
  H1       1.0000 0.26720  0.90490  0.67240  Biso   1.000  H
  H2       1.0000 0.10760  0.92940  0.60700  Biso   1.000  H
  H3       1.0000 0.08310  0.70840  0.80460  Biso   1.000  H
  H4       1.0000 0.18850  0.75470  0.82000  Biso   1.000  H
  H5       1.0000 0.32950  0.73310  0.83480  Biso   1.000  H
  H6       1.0000 0.35040  0.88920  0.67400  Biso   1.000  H
  H7       1.0000 0.26140  0.98620  0.53400  Biso   1.000  H
  H8       1.0000 0.28820  0.14640  0.37220  Biso   1.000  H
  H9       1.0000 0.12080  0.02340  0.52440  Biso   1.000  H
  H10      1.0000 0.02070  0.78860  0.71260  Biso   1.000  H
  H11      1.0000 0.87620  0.64050  0.82600  Biso   1.000  H
  H12      1.0000 0.00490  0.62720  0.86320  Biso   1.000  H
  H13      1.0000 0.06040  0.42270  0.67240  Biso   1.000  H
  H14      1.0000 0.28540  0.46360  0.60700  Biso   1.000  H
  H15      1.0000 0.11230  0.48700  0.80460  Biso   1.000  H
  H16      1.0000 0.99150  0.42530  0.82000  Biso   1.000  H
  H17      1.0000 0.83570  0.43210  0.83480  Biso   1.000  H
  H18      1.0000 0.97560  0.43680  0.67400  Biso   1.000  H
  H19      1.0000 0.20460  0.47980  0.53400  Biso   1.000  H
  H20      1.0000 0.33960  0.48140  0.37220  Biso   1.000  H
  H21      1.0000 0.35480  0.45220  0.52440  Biso   1.000  H
  H22      1.0000 0.26670  0.49880  0.71260  Biso   1.000  H
  H23      1.0000 0.29780  0.53350  0.82600  Biso   1.000  H
  H24      1.0000 0.13190  0.50960  0.86320  Biso   1.000  H
  H25      1.0000 0.90490  0.06040  0.67240  Biso   1.000  H
  H26      1.0000 0.92940  0.28540  0.60700  Biso   1.000  H
  H27      1.0000 0.70840  0.11230  0.80460  Biso   1.000  H
  H28      1.0000 0.75470  0.99150  0.82000  Biso   1.000  H
  H29      1.0000 0.73310  0.83570  0.83480  Biso   1.000  H
  H30      1.0000 0.88920  0.97560  0.67400  Biso   1.000  H
  H31      1.0000 0.98620  0.20460  0.53400  Biso   1.000  H
  H32      1.0000 0.14640  0.33960  0.37220  Biso   1.000  H
  H33      1.0000 0.02340  0.35480  0.52440  Biso   1.000  H
  H34      1.0000 0.78860  0.26670  0.71260  Biso   1.000  H
  H35      1.0000 0.64050  0.29780  0.82600  Biso   1.000  H
  H36      1.0000 0.62720  0.13190  0.86320  Biso   1.000  H
  H37      1.0000 0.42270  0.26720  0.67240  Biso   1.000  H
  H38      1.0000 0.46360  0.10760  0.60700  Biso   1.000  H
  H39      1.0000 0.48700  0.08310  0.80460  Biso   1.000  H
  H40      1.0000 0.42530  0.18850  0.82000  Biso   1.000  H
  H41      1.0000 0.43210  0.32950  0.83480  Biso   1.000  H
  H42      1.0000 0.43680  0.35040  0.67400  Biso   1.000  H
  H43      1.0000 0.47980  0.26140  0.53400  Biso   1.000  H
  H44      1.0000 0.48140  0.28820  0.37220  Biso   1.000  H
  H45      1.0000 0.45220  0.12080  0.52440  Biso   1.000  H
  H46      1.0000 0.49880  0.02070  0.71260  Biso   1.000  H
  H47      1.0000 0.53350  0.87620  0.82600  Biso   1.000  H
  H48      1.0000 0.50960  0.00490  0.86320  Biso   1.000  H
  H49      1.0000 0.73280  0.09510  0.32760  Biso   1.000  H
  H50      1.0000 0.89240  0.07060  0.39300  Biso   1.000  H
  H51      1.0000 0.91690  0.29160  0.19540  Biso   1.000  H
  H52      1.0000 0.81150  0.24530  0.18000  Biso   1.000  H
  H53      1.0000 0.67050  0.26690  0.16520  Biso   1.000  H
  H54      1.0000 0.64960  0.11080  0.32600  Biso   1.000  H
  H55      1.0000 0.73860  0.01380  0.46600  Biso   1.000  H
  H56      1.0000 0.71180  0.85360  0.62780  Biso   1.000  H
  H57      1.0000 0.87920  0.97660  0.47560  Biso   1.000  H
  H58      1.0000 0.97930  0.21140  0.28740  Biso   1.000  H
  H59      1.0000 0.12380  0.35950  0.17400  Biso   1.000  H
  H60      1.0000 0.99510  0.37280  0.13680  Biso   1.000  H
  H61      1.0000 0.93960  0.57730  0.32760  Biso   1.000  H
  H62      1.0000 0.71460  0.53640  0.39300  Biso   1.000  H
  H63      1.0000 0.88770  0.51300  0.19540  Biso   1.000  H
  H64      1.0000 0.00850  0.57470  0.18000  Biso   1.000  H
  H65      1.0000 0.16430  0.56790  0.16520  Biso   1.000  H
  H66      1.0000 0.02440  0.56320  0.32600  Biso   1.000  H
  H67      1.0000 0.79540  0.52020  0.46600  Biso   1.000  H
  H68      1.0000 0.66040  0.51860  0.62780  Biso   1.000  H
  H69      1.0000 0.64520  0.54780  0.47560  Biso   1.000  H
  H70      1.0000 0.73330  0.50120  0.28740  Biso   1.000  H
  H71      1.0000 0.70220  0.46650  0.17400  Biso   1.000  H
  H72      1.0000 0.86810  0.49040  0.13680  Biso   1.000  H
  H73      1.0000 0.09510  0.93960  0.32760  Biso   1.000  H
  H74      1.0000 0.07060  0.71460  0.39300  Biso   1.000  H
  H75      1.0000 0.29160  0.88770  0.19540  Biso   1.000  H
  H76      1.0000 0.24530  0.00850  0.18000  Biso   1.000  H
  H77      1.0000 0.26690  0.16430  0.16520  Biso   1.000  H
  H78      1.0000 0.11080  0.02440  0.32600  Biso   1.000  H
  H79      1.0000 0.01380  0.79540  0.46600  Biso   1.000  H
  H80      1.0000 0.85360  0.66040  0.62780  Biso   1.000  H
  H81      1.0000 0.97660  0.64520  0.47560  Biso   1.000  H
  H82      1.0000 0.21140  0.73330  0.28740  Biso   1.000  H
  H83      1.0000 0.35950  0.70220  0.17400  Biso   1.000  H
  H84      1.0000 0.37280  0.86810  0.13680  Biso   1.000  H
  H85      1.0000 0.57730  0.73280  0.32760  Biso   1.000  H
  H86      1.0000 0.53640  0.89240  0.39300  Biso   1.000  H
  H87      1.0000 0.51300  0.91690  0.19540  Biso   1.000  H
  H88      1.0000 0.57470  0.81150  0.18000  Biso   1.000  H
  H89      1.0000 0.56790  0.67050  0.16520  Biso   1.000  H
  H90      1.0000 0.56320  0.64960  0.32600  Biso   1.000  H
  H91      1.0000 0.52020  0.73860  0.46600  Biso   1.000  H
  H92      1.0000 0.51860  0.71180  0.62780  Biso   1.000  H
  H93      1.0000 0.54780  0.87920  0.47560  Biso   1.000  H
  H94      1.0000 0.50120  0.97930  0.28740  Biso   1.000  H
  H95      1.0000 0.46650  0.12380  0.17400  Biso   1.000  H
  H96      1.0000 0.49040  0.99510  0.13680  Biso   1.000  H
  C1       1.0000 0.19775  0.85404  0.69904  Biso   1.000  C
  C2       1.0000 0.14833  0.89237  0.64904  Biso   1.000  C
  C3       1.0000 0.11335  0.79323  0.73480  Biso   1.000  C
  C4       1.0000 0.26523  0.82756  0.74076  Biso   1.000  C
  C5       1.0000 0.22903  0.76990  0.80220  Biso   1.000  C
  C6       1.0000 0.25302  0.73505  0.83692  Biso   1.000  C
  C7       1.0000 0.31351  0.75704  0.81118  Biso   1.000  C
  C8       1.0000 0.35024  0.81555  0.74930  Biso   1.000  C
  C9       1.0000 0.32615  0.85032  0.71482  Biso   1.000  C
  C10      1.0000 0.21531  0.67126  0.90120  Biso   1.000  C
  C11      1.0000 0.41637  0.83840  0.71886  Biso   1.000  C
  C12      1.0000 0.18373  0.99541  0.54076  Biso   1.000  C
  C13      1.0000 0.24589  0.01249  0.51150  Biso   1.000  C
  C14      1.0000 0.28468  0.06958  0.44808  Biso   1.000  C
  C15      1.0000 0.26202  0.10867  0.41438  Biso   1.000  C
  C16      1.0000 0.20076  0.09191  0.44308  Biso   1.000  C
  C17      1.0000 0.16204  0.03492  0.50582  Biso   1.000  C
  C18      1.0000 0.35224  0.08651  0.41486  Biso   1.000  C
  C19      1.0000 0.17541  0.13112  0.40544  Biso   1.000  C
  C20      1.0000 0.02102  0.71195  0.78694  Biso   1.000  C
  C21      1.0000 0.99934  0.74732  0.74802  Biso   1.000  C
  C22      1.0000 0.94523  0.71972  0.76308  Biso   1.000  C
  C23      1.0000 0.91291  0.65821  0.81544  Biso   1.000  C
  C24      1.0000 0.93665  0.62330  0.85202  Biso   1.000  C
  C25      1.0000 0.98986  0.65058  0.83794  Biso   1.000  C
  C26      1.0000 0.92172  0.75650  0.72098  Biso   1.000  C
  C27      1.0000 0.90377  0.55649  0.90548  Biso   1.000  C
  C28      1.0000 0.10321  0.44692  0.69904  Biso   1.000  C
  C29      1.0000 0.20263  0.45859  0.64904  Biso   1.000  C
  C30      1.0000 0.15185  0.47197  0.73480  Biso   1.000  C
  C31      1.0000 0.99401  0.43168  0.74076  Biso   1.000  C
  C32      1.0000 0.96877  0.42790  0.80220  Biso   1.000  C
  C33      1.0000 0.91006  0.42803  0.83692  Biso   1.000  C
  C34      1.0000 0.87531  0.43178  0.81118  Biso   1.000  C
  C35      1.0000 0.90046  0.43515  0.74930  Biso   1.000  C
  C36      1.0000 0.95903  0.43486  0.71482  Biso   1.000  C
  C37      1.0000 0.88349  0.42754  0.90120  Biso   1.000  C
  C38      1.0000 0.86477  0.44274  0.71886  Biso   1.000  C
  C39      1.0000 0.27551  0.46383  0.54076  Biso   1.000  C
  C40      1.0000 0.24261  0.47601  0.51150  Biso   1.000  C
  C41      1.0000 0.26724  0.48234  0.44808  Biso   1.000  C
  C42      1.0000 0.32360  0.47695  0.41438  Biso   1.000  C
  C43      1.0000 0.35616  0.46501  0.44308  Biso   1.000  C
  C44      1.0000 0.33214  0.45926  0.50582  Biso   1.000  C
  C45      1.0000 0.23290  0.49863  0.41486  Biso   1.000  C
  C46      1.0000 0.41915  0.46344  0.40544  Biso   1.000  C
  C47      1.0000 0.19204  0.50111  0.78694  Biso   1.000  C
  C48      1.0000 0.25264  0.50466  0.74802  Biso   1.000  C
  C49      1.0000 0.29169  0.51720  0.76308  Biso   1.000  C
  C50      1.0000 0.27165  0.52635  0.81544  Biso   1.000  C
  C51      1.0000 0.21133  0.52468  0.85202  Biso   1.000  C
  C52      1.0000 0.17220  0.51148  0.83794  Biso   1.000  C
  C53      1.0000 0.35730  0.52252  0.72098  Biso   1.000  C
  C54      1.0000 0.19075  0.53803  0.90548  Biso   1.000  C
  C55      1.0000 0.85404  0.10321  0.69904  Biso   1.000  C
  C56      1.0000 0.89237  0.20263  0.64904  Biso   1.000  C
  C57      1.0000 0.79323  0.15185  0.73480  Biso   1.000  C
  C58      1.0000 0.82756  0.99401  0.74076  Biso   1.000  C
  C59      1.0000 0.76990  0.96877  0.80220  Biso   1.000  C
  C60      1.0000 0.73505  0.91006  0.83692  Biso   1.000  C
  C61      1.0000 0.75704  0.87531  0.81118  Biso   1.000  C
  C62      1.0000 0.81555  0.90046  0.74930  Biso   1.000  C
  C63      1.0000 0.85032  0.95903  0.71482  Biso   1.000  C
  C64      1.0000 0.67126  0.88349  0.90120  Biso   1.000  C
  C65      1.0000 0.83840  0.86477  0.71886  Biso   1.000  C
  C66      1.0000 0.99541  0.27551  0.54076  Biso   1.000  C
  C67      1.0000 0.01249  0.24261  0.51150  Biso   1.000  C
  C68      1.0000 0.06958  0.26724  0.44808  Biso   1.000  C
  C69      1.0000 0.10867  0.32360  0.41438  Biso   1.000  C
  C70      1.0000 0.09191  0.35616  0.44308  Biso   1.000  C
  C71      1.0000 0.03492  0.33214  0.50582  Biso   1.000  C
  C72      1.0000 0.08651  0.23290  0.41486  Biso   1.000  C
  C73      1.0000 0.13112  0.41915  0.40544  Biso   1.000  C
  C74      1.0000 0.71195  0.19204  0.78694  Biso   1.000  C
  C75      1.0000 0.74732  0.25264  0.74802  Biso   1.000  C
  C76      1.0000 0.71972  0.29169  0.76308  Biso   1.000  C
  C77      1.0000 0.65821  0.27165  0.81544  Biso   1.000  C
  C78      1.0000 0.62330  0.21133  0.85202  Biso   1.000  C
  C79      1.0000 0.65058  0.17220  0.83794  Biso   1.000  C
  C80      1.0000 0.75650  0.35730  0.72098  Biso   1.000  C
  C81      1.0000 0.55649  0.19075  0.90548  Biso   1.000  C
  C82      1.0000 0.44692  0.19775  0.69904  Biso   1.000  C
  C83      1.0000 0.45859  0.14833  0.64904  Biso   1.000  C
  C84      1.0000 0.47197  0.11335  0.73480  Biso   1.000  C
  C85      1.0000 0.43168  0.26523  0.74076  Biso   1.000  C
  C86      1.0000 0.42790  0.22903  0.80220  Biso   1.000  C
  C87      1.0000 0.42803  0.25302  0.83692  Biso   1.000  C
  C88      1.0000 0.43178  0.31351  0.81118  Biso   1.000  C
  C89      1.0000 0.43515  0.35024  0.74930  Biso   1.000  C
  C90      1.0000 0.43486  0.32615  0.71482  Biso   1.000  C
  C91      1.0000 0.42754  0.21531  0.90120  Biso   1.000  C
  C92      1.0000 0.44274  0.41637  0.71886  Biso   1.000  C
  C93      1.0000 0.46383  0.18373  0.54076  Biso   1.000  C
  C94      1.0000 0.47601  0.24589  0.51150  Biso   1.000  C
  C95      1.0000 0.48234  0.28468  0.44808  Biso   1.000  C
  C96      1.0000 0.47695  0.26202  0.41438  Biso   1.000  C
  C97      1.0000 0.46501  0.20076  0.44308  Biso   1.000  C
  C98      1.0000 0.45926  0.16204  0.50582  Biso   1.000  C
  C99      1.0000 0.49863  0.35224  0.41486  Biso   1.000  C
  C100     1.0000 0.46344  0.17541  0.40544  Biso   1.000  C
  C101     1.0000 0.50111  0.02102  0.78694  Biso   1.000  C
  C102     1.0000 0.50466  0.99934  0.74802  Biso   1.000  C
  C103     1.0000 0.51720  0.94523  0.76308  Biso   1.000  C
  C104     1.0000 0.52635  0.91291  0.81544  Biso   1.000  C
  C105     1.0000 0.52468  0.93665  0.85202  Biso   1.000  C
  C106     1.0000 0.51148  0.98986  0.83794  Biso   1.000  C
  C107     1.0000 0.52252  0.92172  0.72098  Biso   1.000  C
  C108     1.0000 0.53803  0.90377  0.90548  Biso   1.000  C
  C109     1.0000 0.80225  0.14596  0.30096  Biso   1.000  C
  C110     1.0000 0.85167  0.10763  0.35096  Biso   1.000  C
  C111     1.0000 0.88665  0.20677  0.26520  Biso   1.000  C
  C112     1.0000 0.73477  0.17244  0.25924  Biso   1.000  C
  C113     1.0000 0.77097  0.23010  0.19780  Biso   1.000  C
  C114     1.0000 0.74698  0.26495  0.16308  Biso   1.000  C
  C115     1.0000 0.68649  0.24296  0.18882  Biso   1.000  C
  C116     1.0000 0.64976  0.18445  0.25070  Biso   1.000  C
  C117     1.0000 0.67385  0.14968  0.28518  Biso   1.000  C
  C118     1.0000 0.78469  0.32874  0.09880  Biso   1.000  C
  C119     1.0000 0.58363  0.16160  0.28114  Biso   1.000  C
  C120     1.0000 0.81627  0.00459  0.45924  Biso   1.000  C
  C121     1.0000 0.75411  0.98751  0.48850  Biso   1.000  C
  C122     1.0000 0.71532  0.93042  0.55192  Biso   1.000  C
  C123     1.0000 0.73798  0.89133  0.58562  Biso   1.000  C
  C124     1.0000 0.79924  0.90809  0.55692  Biso   1.000  C
  C125     1.0000 0.83796  0.96508  0.49418  Biso   1.000  C
  C126     1.0000 0.64776  0.91349  0.58514  Biso   1.000  C
  C127     1.0000 0.82459  0.86888  0.59456  Biso   1.000  C
  C128     1.0000 0.97898  0.28805  0.21306  Biso   1.000  C
  C129     1.0000 0.00066  0.25268  0.25198  Biso   1.000  C
  C130     1.0000 0.05477  0.28028  0.23692  Biso   1.000  C
  C131     1.0000 0.08709  0.34179  0.18456  Biso   1.000  C
  C132     1.0000 0.06335  0.37670  0.14798  Biso   1.000  C
  C133     1.0000 0.01014  0.34942  0.16206  Biso   1.000  C
  C134     1.0000 0.07828  0.24350  0.27902  Biso   1.000  C
  C135     1.0000 0.09623  0.44351  0.09452  Biso   1.000  C
  C136     1.0000 0.89679  0.55308  0.30096  Biso   1.000  C
  C137     1.0000 0.79737  0.54141  0.35096  Biso   1.000  C
  C138     1.0000 0.84815  0.52803  0.26520  Biso   1.000  C
  C139     1.0000 0.00599  0.56832  0.25924  Biso   1.000  C
  C140     1.0000 0.03123  0.57210  0.19780  Biso   1.000  C
  C141     1.0000 0.08994  0.57197  0.16308  Biso   1.000  C
  C142     1.0000 0.12469  0.56822  0.18882  Biso   1.000  C
  C143     1.0000 0.09954  0.56485  0.25070  Biso   1.000  C
  C144     1.0000 0.04097  0.56514  0.28518  Biso   1.000  C
  C145     1.0000 0.11651  0.57246  0.09880  Biso   1.000  C
  C146     1.0000 0.13523  0.55726  0.28114  Biso   1.000  C
  C147     1.0000 0.72449  0.53617  0.45924  Biso   1.000  C
  C148     1.0000 0.75739  0.52399  0.48850  Biso   1.000  C
  C149     1.0000 0.73276  0.51766  0.55192  Biso   1.000  C
  C150     1.0000 0.67640  0.52305  0.58562  Biso   1.000  C
  C151     1.0000 0.64384  0.53499  0.55692  Biso   1.000  C
  C152     1.0000 0.66786  0.54074  0.49418  Biso   1.000  C
  C153     1.0000 0.76710  0.50137  0.58514  Biso   1.000  C
  C154     1.0000 0.58085  0.53656  0.59456  Biso   1.000  C
  C155     1.0000 0.80796  0.49889  0.21306  Biso   1.000  C
  C156     1.0000 0.74736  0.49534  0.25198  Biso   1.000  C
  C157     1.0000 0.70831  0.48280  0.23692  Biso   1.000  C
  C158     1.0000 0.72835  0.47365  0.18456  Biso   1.000  C
  C159     1.0000 0.78867  0.47532  0.14798  Biso   1.000  C
  C160     1.0000 0.82780  0.48852  0.16206  Biso   1.000  C
  C161     1.0000 0.64270  0.47748  0.27902  Biso   1.000  C
  C162     1.0000 0.80925  0.46197  0.09452  Biso   1.000  C
  C163     1.0000 0.14596  0.89679  0.30096  Biso   1.000  C
  C164     1.0000 0.10763  0.79737  0.35096  Biso   1.000  C
  C165     1.0000 0.20677  0.84815  0.26520  Biso   1.000  C
  C166     1.0000 0.17244  0.00599  0.25924  Biso   1.000  C
  C167     1.0000 0.23010  0.03123  0.19780  Biso   1.000  C
  C168     1.0000 0.26495  0.08994  0.16308  Biso   1.000  C
  C169     1.0000 0.24296  0.12469  0.18882  Biso   1.000  C
  C170     1.0000 0.18445  0.09954  0.25070  Biso   1.000  C
  C171     1.0000 0.14968  0.04097  0.28518  Biso   1.000  C
  C172     1.0000 0.32874  0.11651  0.09880  Biso   1.000  C
  C173     1.0000 0.16160  0.13523  0.28114  Biso   1.000  C
  C174     1.0000 0.00459  0.72449  0.45924  Biso   1.000  C
  C175     1.0000 0.98751  0.75739  0.48850  Biso   1.000  C
  C176     1.0000 0.93042  0.73276  0.55192  Biso   1.000  C
  C177     1.0000 0.89133  0.67640  0.58562  Biso   1.000  C
  C178     1.0000 0.90809  0.64384  0.55692  Biso   1.000  C
  C179     1.0000 0.96508  0.66786  0.49418  Biso   1.000  C
  C180     1.0000 0.91349  0.76710  0.58514  Biso   1.000  C
  C181     1.0000 0.86888  0.58085  0.59456  Biso   1.000  C
  C182     1.0000 0.28805  0.80796  0.21306  Biso   1.000  C
  C183     1.0000 0.25268  0.74736  0.25198  Biso   1.000  C
  C184     1.0000 0.28028  0.70831  0.23692  Biso   1.000  C
  C185     1.0000 0.34179  0.72835  0.18456  Biso   1.000  C
  C186     1.0000 0.37670  0.78867  0.14798  Biso   1.000  C
  C187     1.0000 0.34942  0.82780  0.16206  Biso   1.000  C
  C188     1.0000 0.24350  0.64270  0.27902  Biso   1.000  C
  C189     1.0000 0.44351  0.80925  0.09452  Biso   1.000  C
  C190     1.0000 0.55308  0.80225  0.30096  Biso   1.000  C
  C191     1.0000 0.54141  0.85167  0.35096  Biso   1.000  C
  C192     1.0000 0.52803  0.88665  0.26520  Biso   1.000  C
  C193     1.0000 0.56832  0.73477  0.25924  Biso   1.000  C
  C194     1.0000 0.57210  0.77097  0.19780  Biso   1.000  C
  C195     1.0000 0.57197  0.74698  0.16308  Biso   1.000  C
  C196     1.0000 0.56822  0.68649  0.18882  Biso   1.000  C
  C197     1.0000 0.56485  0.64976  0.25070  Biso   1.000  C
  C198     1.0000 0.56514  0.67385  0.28518  Biso   1.000  C
  C199     1.0000 0.57246  0.78469  0.09880  Biso   1.000  C
  C200     1.0000 0.55726  0.58363  0.28114  Biso   1.000  C
  C201     1.0000 0.53617  0.81627  0.45924  Biso   1.000  C
  C202     1.0000 0.52399  0.75411  0.48850  Biso   1.000  C
  C203     1.0000 0.51766  0.71532  0.55192  Biso   1.000  C
  C204     1.0000 0.52305  0.73798  0.58562  Biso   1.000  C
  C205     1.0000 0.53499  0.79924  0.55692  Biso   1.000  C
  C206     1.0000 0.54074  0.83796  0.49418  Biso   1.000  C
  C207     1.0000 0.50137  0.64776  0.58514  Biso   1.000  C
  C208     1.0000 0.53656  0.82459  0.59456  Biso   1.000  C
  C209     1.0000 0.49889  0.97898  0.21306  Biso   1.000  C
  C210     1.0000 0.49534  0.00066  0.25198  Biso   1.000  C
  C211     1.0000 0.48280  0.05477  0.23692  Biso   1.000  C
  C212     1.0000 0.47365  0.08709  0.18456  Biso   1.000  C
  C213     1.0000 0.47532  0.06335  0.14798  Biso   1.000  C
  C214     1.0000 0.48852  0.01014  0.16206  Biso   1.000  C
  C215     1.0000 0.47748  0.07828  0.27902  Biso   1.000  C
  C216     1.0000 0.46197  0.09623  0.09452  Biso   1.000  C
  N1       1.0000 0.15925  0.79886  0.74186  Biso   1.000  N
  N2       1.0000 0.19552  0.90363  0.65046  Biso   1.000  N
  N3       1.0000 0.10458  0.83806  0.69144  Biso   1.000  N
  N4       1.0000 0.24547  0.86701  0.70032  Biso   1.000  N
  N5       1.0000 0.14231  0.93759  0.60026  Biso   1.000  N
  N6       1.0000 0.07412  0.73514  0.77832  Biso   1.000  N
  N7       1.0000 0.09889  0.45928  0.74186  Biso   1.000  N
  N8       1.0000 0.15402  0.44591  0.65046  Biso   1.000  N
  N9       1.0000 0.20398  0.47050  0.69144  Biso   1.000  N
  N10      1.0000 0.05421  0.43267  0.70032  Biso   1.000  N
  N11      1.0000 0.25743  0.46215  0.60026  Biso   1.000  N
  N12      1.0000 0.14756  0.48654  0.77832  Biso   1.000  N
  N13      1.0000 0.79886  0.09889  0.74186  Biso   1.000  N
  N14      1.0000 0.90363  0.15402  0.65046  Biso   1.000  N
  N15      1.0000 0.83806  0.20398  0.69144  Biso   1.000  N
  N16      1.0000 0.86701  0.05421  0.70032  Biso   1.000  N
  N17      1.0000 0.93759  0.25743  0.60026  Biso   1.000  N
  N18      1.0000 0.73514  0.14756  0.77832  Biso   1.000  N
  N19      1.0000 0.45928  0.15925  0.74186  Biso   1.000  N
  N20      1.0000 0.44591  0.19552  0.65046  Biso   1.000  N
  N21      1.0000 0.47050  0.10458  0.69144  Biso   1.000  N
  N22      1.0000 0.43267  0.24547  0.70032  Biso   1.000  N
  N23      1.0000 0.46215  0.14231  0.60026  Biso   1.000  N
  N24      1.0000 0.48654  0.07412  0.77832  Biso   1.000  N
  N25      1.0000 0.84075  0.20114  0.25814  Biso   1.000  N
  N26      1.0000 0.80448  0.09637  0.34954  Biso   1.000  N
  N27      1.0000 0.89542  0.16194  0.30856  Biso   1.000  N
  N28      1.0000 0.75453  0.13299  0.29968  Biso   1.000  N
  N29      1.0000 0.85769  0.06241  0.39974  Biso   1.000  N
  N30      1.0000 0.92588  0.26486  0.22168  Biso   1.000  N
  N31      1.0000 0.90111  0.54072  0.25814  Biso   1.000  N
  N32      1.0000 0.84598  0.55409  0.34954  Biso   1.000  N
  N33      1.0000 0.79602  0.52950  0.30856  Biso   1.000  N
  N34      1.0000 0.94579  0.56733  0.29968  Biso   1.000  N
  N35      1.0000 0.74257  0.53785  0.39974  Biso   1.000  N
  N36      1.0000 0.85244  0.51346  0.22168  Biso   1.000  N
  N37      1.0000 0.20114  0.90111  0.25814  Biso   1.000  N
  N38      1.0000 0.09637  0.84598  0.34954  Biso   1.000  N
  N39      1.0000 0.16194  0.79602  0.30856  Biso   1.000  N
  N40      1.0000 0.13299  0.94579  0.29968  Biso   1.000  N
  N41      1.0000 0.06241  0.74257  0.39974  Biso   1.000  N
  N42      1.0000 0.26486  0.85244  0.22168  Biso   1.000  N
  N43      1.0000 0.54072  0.84075  0.25814  Biso   1.000  N
  N44      1.0000 0.55409  0.80448  0.34954  Biso   1.000  N
  N45      1.0000 0.52950  0.89542  0.30856  Biso   1.000  N
  N46      1.0000 0.56733  0.75453  0.29968  Biso   1.000  N
  N47      1.0000 0.53785  0.85769  0.39974  Biso   1.000  N
  N48      1.0000 0.51346  0.92588  0.22168  Biso   1.000  N
  O1       1.0000 0.16066  0.65320  0.92450  Biso   1.000  O
  O2       1.0000 0.24171  0.63961  0.92568  Biso   1.000  O
  O3       1.0000 0.25723  0.31055  0.21612  Biso   1.000  O
  O4       1.0000 0.43648  0.80394  0.74996  Biso   1.000  O
  O5       1.0000 0.99335  0.05802  0.47896  Biso   1.000  O
  O6       1.0000 0.44614  0.89099  0.66434  Biso   1.000  O
  O7       1.0000 0.37245  0.04671  0.44184  Biso   1.000  O
  O8       1.0000 0.38378  0.13978  0.36092  Biso   1.000  O
  O9       1.0000 0.21238  0.18084  0.34742  Biso   1.000  O
  O10      1.0000 0.11955  0.11222  0.43318  Biso   1.000  O
  O11      1.0000 0.95728  0.80783  0.66540  Biso   1.000  O
  O12      1.0000 0.86883  0.73232  0.74398  Biso   1.000  O
  O13      1.0000 0.85123  0.53654  0.92564  Biso   1.000  O
  O14      1.0000 0.93223  0.52483  0.92596  Biso   1.000  O
  O15      1.0000 0.91484  0.42230  0.92450  Biso   1.000  O
  O16      1.0000 0.83261  0.43471  0.92568  Biso   1.000  O
  O17      1.0000 0.52665  0.47333  0.21612  Biso   1.000  O
  O18      1.0000 0.81356  0.44610  0.74996  Biso   1.000  O
  O19      1.0000 0.52769  0.46302  0.47896  Biso   1.000  O
  O20      1.0000 0.88952  0.44467  0.66434  Biso   1.000  O
  O21      1.0000 0.18571  0.51145  0.44184  Biso   1.000  O
  O22      1.0000 0.25530  0.49930  0.36092  Biso   1.000  O
  O23      1.0000 0.44020  0.47174  0.34742  Biso   1.000  O
  O24      1.0000 0.44727  0.45460  0.43318  Biso   1.000  O
  O25      1.0000 0.37732  0.52677  0.66540  Biso   1.000  O
  O26      1.0000 0.38719  0.52370  0.74398  Biso   1.000  O
  O27      1.0000 0.22313  0.53782  0.92564  Biso   1.000  O
  O28      1.0000 0.14181  0.54921  0.92596  Biso   1.000  O
  O29      1.0000 0.65320  0.91484  0.92450  Biso   1.000  O
  O30      1.0000 0.63961  0.83261  0.92568  Biso   1.000  O
  O31      1.0000 0.31055  0.52665  0.21612  Biso   1.000  O
  O32      1.0000 0.80394  0.81356  0.74996  Biso   1.000  O
  O33      1.0000 0.05802  0.52769  0.47896  Biso   1.000  O
  O34      1.0000 0.89099  0.88952  0.66434  Biso   1.000  O
  O35      1.0000 0.04671  0.18571  0.44184  Biso   1.000  O
  O36      1.0000 0.13978  0.25530  0.36092  Biso   1.000  O
  O37      1.0000 0.18084  0.44020  0.34742  Biso   1.000  O
  O38      1.0000 0.11222  0.44727  0.43318  Biso   1.000  O
  O39      1.0000 0.80783  0.37732  0.66540  Biso   1.000  O
  O40      1.0000 0.73232  0.38719  0.74398  Biso   1.000  O
  O41      1.0000 0.53654  0.22313  0.92564  Biso   1.000  O
  O42      1.0000 0.52483  0.14181  0.92596  Biso   1.000  O
  O43      1.0000 0.42230  0.16066  0.92450  Biso   1.000  O
  O44      1.0000 0.43471  0.24171  0.92568  Biso   1.000  O
  O45      1.0000 0.47333  0.25723  0.21612  Biso   1.000  O
  O46      1.0000 0.44610  0.43648  0.74996  Biso   1.000  O
  O47      1.0000 0.46302  0.99335  0.47896  Biso   1.000  O
  O48      1.0000 0.44467  0.44614  0.66434  Biso   1.000  O
  O49      1.0000 0.51145  0.37245  0.44184  Biso   1.000  O
  O50      1.0000 0.49930  0.38378  0.36092  Biso   1.000  O
  O51      1.0000 0.47174  0.21238  0.34742  Biso   1.000  O
  O52      1.0000 0.45460  0.11955  0.43318  Biso   1.000  O
  O53      1.0000 0.52677  0.95728  0.66540  Biso   1.000  O
  O54      1.0000 0.52370  0.86883  0.74398  Biso   1.000  O
  O55      1.0000 0.53782  0.85123  0.92564  Biso   1.000  O
  O56      1.0000 0.54921  0.93223  0.92596  Biso   1.000  O
  O57      1.0000 0.83934  0.34680  0.07550  Biso   1.000  O
  O58      1.0000 0.75829  0.36039  0.07432  Biso   1.000  O
  O59      1.0000 0.74277  0.68945  0.78388  Biso   1.000  O
  O60      1.0000 0.56352  0.19606  0.25004  Biso   1.000  O
  O61      1.0000 0.00665  0.94198  0.52104  Biso   1.000  O
  O62      1.0000 0.55386  0.10901  0.33566  Biso   1.000  O
  O63      1.0000 0.62755  0.95329  0.55816  Biso   1.000  O
  O64      1.0000 0.61622  0.86022  0.63908  Biso   1.000  O
  O65      1.0000 0.78762  0.81916  0.65258  Biso   1.000  O
  O66      1.0000 0.88045  0.88778  0.56682  Biso   1.000  O
  O67      1.0000 0.04272  0.19217  0.33460  Biso   1.000  O
  O68      1.0000 0.13117  0.26768  0.25602  Biso   1.000  O
  O69      1.0000 0.14877  0.46346  0.07436  Biso   1.000  O
  O70      1.0000 0.06777  0.47517  0.07404  Biso   1.000  O
  O71      1.0000 0.08516  0.57770  0.07550  Biso   1.000  O
  O72      1.0000 0.16739  0.56529  0.07432  Biso   1.000  O
  O73      1.0000 0.47335  0.52667  0.78388  Biso   1.000  O
  O74      1.0000 0.18644  0.55390  0.25004  Biso   1.000  O
  O75      1.0000 0.47231  0.53698  0.52104  Biso   1.000  O
  O76      1.0000 0.11048  0.55533  0.33566  Biso   1.000  O
  O77      1.0000 0.81429  0.48855  0.55816  Biso   1.000  O
  O78      1.0000 0.74470  0.50070  0.63908  Biso   1.000  O
  O79      1.0000 0.55980  0.52826  0.65258  Biso   1.000  O
  O80      1.0000 0.55273  0.54540  0.56682  Biso   1.000  O
  O81      1.0000 0.62268  0.47323  0.33460  Biso   1.000  O
  O82      1.0000 0.61281  0.47630  0.25602  Biso   1.000  O
  O83      1.0000 0.77687  0.46218  0.07436  Biso   1.000  O
  O84      1.0000 0.85819  0.45079  0.07404  Biso   1.000  O
  O85      1.0000 0.34680  0.08516  0.07550  Biso   1.000  O
  O86      1.0000 0.36039  0.16739  0.07432  Biso   1.000  O
  O87      1.0000 0.68945  0.47335  0.78388  Biso   1.000  O
  O88      1.0000 0.19606  0.18644  0.25004  Biso   1.000  O
  O89      1.0000 0.94198  0.47231  0.52104  Biso   1.000  O
  O90      1.0000 0.10901  0.11048  0.33566  Biso   1.000  O
  O91      1.0000 0.95329  0.81429  0.55816  Biso   1.000  O
  O92      1.0000 0.86022  0.74470  0.63908  Biso   1.000  O
  O93      1.0000 0.81916  0.55980  0.65258  Biso   1.000  O
  O94      1.0000 0.88778  0.55273  0.56682  Biso   1.000  O
  O95      1.0000 0.19217  0.62268  0.33460  Biso   1.000  O
  O96      1.0000 0.26768  0.61281  0.25602  Biso   1.000  O
  O97      1.0000 0.46346  0.77687  0.07436  Biso   1.000  O
  O98      1.0000 0.47517  0.85819  0.07404  Biso   1.000  O
  O99      1.0000 0.57770  0.83934  0.07550  Biso   1.000  O
  O100     1.0000 0.56529  0.75829  0.07432  Biso   1.000  O
  O101     1.0000 0.52667  0.74277  0.78388  Biso   1.000  O
  O102     1.0000 0.55390  0.56352  0.25004  Biso   1.000  O
  O103     1.0000 0.53698  0.00665  0.52104  Biso   1.000  O
  O104     1.0000 0.55533  0.55386  0.33566  Biso   1.000  O
  O105     1.0000 0.48855  0.62755  0.55816  Biso   1.000  O
  O106     1.0000 0.50070  0.61622  0.63908  Biso   1.000  O
  O107     1.0000 0.52826  0.78762  0.65258  Biso   1.000  O
  O108     1.0000 0.54540  0.88045  0.56682  Biso   1.000  O
  O109     1.0000 0.47323  0.04272  0.33460  Biso   1.000  O
  O110     1.0000 0.47630  0.13117  0.25602  Biso   1.000  O
  O111     1.0000 0.46218  0.14877  0.07436  Biso   1.000  O
  O112     1.0000 0.45079  0.06777  0.07404  Biso   1.000  O
  O113     1.0000 0.02856  0.58390  0.00000  Biso   1.000  O
  O114     1.0000 0.28136  0.53680  0.00000  Biso   1.000  O
  O115     1.0000 0.97144  0.41610  0.00000  Biso   1.000  O
  O116     1.0000 0.71864  0.46320  1.00000  Biso   1.000  O
  O117     1.0000 0.58390  0.97144  1.00000  Biso   1.000  O
  O118     1.0000 0.53680  0.71864  0.00000  Biso   1.000  O
  O119     1.0000 0.41610  0.02856  0.00000  Biso   1.000  O
  O120     1.0000 0.46320  0.28136  0.00000  Biso   1.000  O
