data_image0
_cell_length_a       7.11101
_cell_length_b       19.4549
_cell_length_c       19.4549
_cell_angle_alpha    88.086
_cell_angle_beta     79.4698
_cell_angle_gamma    79.4697

_symmetry_space_group_name_H-M    P 1
_symmetry_int_tables_number       1

loop_
  _symmetry_equiv_pos_as_xyz
  'x, y, z'

loop_
  _atom_site_label
  _atom_site_occupancy
  _atom_site_fract_x
  _atom_site_fract_y
  _atom_site_fract_z
  _atom_site_thermal_displace_type
  _atom_site_B_iso_or_equiv
  _atom_site_type_symbol
  Cu1      1.0000 0.87500  0.05020  0.44980  Biso   1.000  Cu
  Cu2      1.0000 0.37500  0.94980  0.55020  Biso   1.000  Cu
  Cu3      1.0000 0.67520  0.44980  0.94980  Biso   1.000  Cu
  Cu4      1.0000 0.07480  0.55020  0.05020  Biso   1.000  Cu
  H1       1.0000 0.85050  0.20760  0.42580  Biso   1.000  H
  H2       1.0000 0.61310  0.30960  0.44280  Biso   1.000  H
  H3       1.0000 0.21130  0.18880  0.49720  Biso   1.000  H
  H4       1.0000 0.45000  0.08980  0.47640  Biso   1.000  H
  H5       1.0000 0.04950  0.28220  0.56080  Biso   1.000  H
  H6       1.0000 0.79690  0.37620  0.57400  Biso   1.000  H
  H7       1.0000 0.09360  0.47500  0.41600  Biso   1.000  H
  H8       1.0000 0.34590  0.38000  0.40080  Biso   1.000  H
  H9       1.0000 0.48390  0.79240  0.57420  Biso   1.000  H
  H10      1.0000 0.36550  0.69040  0.55720  Biso   1.000  H
  H11      1.0000 0.89730  0.81120  0.50280  Biso   1.000  H
  H12      1.0000 0.01620  0.91020  0.52360  Biso   1.000  H
  H13      1.0000 0.89250  0.71780  0.43920  Biso   1.000  H
  H14      1.0000 0.74710  0.62380  0.42600  Biso   1.000  H
  H15      1.0000 0.98460  0.52500  0.58400  Biso   1.000  H
  H16      1.0000 0.12670  0.62000  0.59920  Biso   1.000  H
  H17      1.0000 0.72370  0.42580  0.79240  Biso   1.000  H
  H18      1.0000 0.94410  0.44280  0.69040  Biso   1.000  H
  H19      1.0000 0.29150  0.49720  0.81120  Biso   1.000  H
  H20      1.0000 0.07360  0.47640  0.91020  Biso   1.000  H
  H21      1.0000 0.38970  0.56080  0.71780  Biso   1.000  H
  H22      1.0000 0.62910  0.57400  0.62380  Biso   1.000  H
  H23      1.0000 0.49040  0.41600  0.52500  Biso   1.000  H
  H24      1.0000 0.25330  0.40080  0.62000  Biso   1.000  H
  H25      1.0000 0.94190  0.57420  0.20760  Biso   1.000  H
  H26      1.0000 0.07730  0.55720  0.30960  Biso   1.000  H
  H27      1.0000 0.59990  0.50280  0.18880  Biso   1.000  H
  H28      1.0000 0.46020  0.52360  0.08980  Biso   1.000  H
  H29      1.0000 0.66830  0.43920  0.28220  Biso   1.000  H
  H30      1.0000 0.82690  0.42600  0.37620  Biso   1.000  H
  H31      1.0000 0.43140  0.58400  0.47500  Biso   1.000  H
  H32      1.0000 0.27410  0.59920  0.38000  Biso   1.000  H
  H33      1.0000 0.89950  0.07420  0.29240  Biso   1.000  H
  H34      1.0000 0.13690  0.05720  0.19040  Biso   1.000  H
  H35      1.0000 0.53870  0.00280  0.31120  Biso   1.000  H
  H36      1.0000 0.30000  0.02360  0.41020  Biso   1.000  H
  H37      1.0000 0.70050  0.93920  0.21780  Biso   1.000  H
  H38      1.0000 0.95310  0.92600  0.12380  Biso   1.000  H
  H39      1.0000 0.65640  0.08400  0.02500  Biso   1.000  H
  H40      1.0000 0.40410  0.09920  0.12000  Biso   1.000  H
  H41      1.0000 0.26610  0.92580  0.70760  Biso   1.000  H
  H42      1.0000 0.38450  0.94280  0.80960  Biso   1.000  H
  H43      1.0000 0.85270  0.99720  0.68880  Biso   1.000  H
  H44      1.0000 0.73380  0.97640  0.58980  Biso   1.000  H
  H45      1.0000 0.85750  0.06080  0.78220  Biso   1.000  H
  H46      1.0000 0.00290  0.07400  0.87620  Biso   1.000  H
  H47      1.0000 0.76540  0.91600  0.97500  Biso   1.000  H
  H48      1.0000 0.62330  0.90080  0.88000  Biso   1.000  H
  H49      1.0000 0.02630  0.70760  0.07420  Biso   1.000  H
  H50      1.0000 0.80590  0.80960  0.05720  Biso   1.000  H
  H51      1.0000 0.45850  0.68880  0.00280  Biso   1.000  H
  H52      1.0000 0.67640  0.58980  0.02360  Biso   1.000  H
  H53      1.0000 0.36030  0.78220  0.93920  Biso   1.000  H
  H54      1.0000 0.12090  0.87620  0.92600  Biso   1.000  H
  H55      1.0000 0.25960  0.97500  0.08400  Biso   1.000  H
  H56      1.0000 0.49670  0.88000  0.09920  Biso   1.000  H
  H57      1.0000 0.80810  0.29240  0.92580  Biso   1.000  H
  H58      1.0000 0.67270  0.19040  0.94280  Biso   1.000  H
  H59      1.0000 0.15010  0.31120  0.99720  Biso   1.000  H
  H60      1.0000 0.28980  0.41020  0.97640  Biso   1.000  H
  H61      1.0000 0.08170  0.21780  0.06080  Biso   1.000  H
  H62      1.0000 0.92310  0.12380  0.07400  Biso   1.000  H
  H63      1.0000 0.31860  0.02500  0.91600  Biso   1.000  H
  H64      1.0000 0.47590  0.12000  0.90080  Biso   1.000  H
  C1       1.0000 0.71840  0.20400  0.44240  Biso   1.000  C
  C2       1.0000 0.57690  0.26500  0.45100  Biso   1.000  C
  C3       1.0000 0.38500  0.25920  0.47140  Biso   1.000  C
  C4       1.0000 0.34290  0.19390  0.48230  Biso   1.000  C
  C5       1.0000 0.48520  0.13470  0.47230  Biso   1.000  C
  C6       1.0000 0.22250  0.32050  0.47930  Biso   1.000  C
  C7       1.0000 0.05770  0.32130  0.53070  Biso   1.000  C
  C8       1.0000 0.90750  0.37710  0.53850  Biso   1.000  C
  C9       1.0000 0.91470  0.43530  0.49490  Biso   1.000  C
  C10      1.0000 0.08330  0.43490  0.44490  Biso   1.000  C
  C11      1.0000 0.23450  0.37900  0.43600  Biso   1.000  C
  C12      1.0000 0.36480  0.79600  0.55760  Biso   1.000  C
  C13      1.0000 0.29290  0.73500  0.54900  Biso   1.000  C
  C14      1.0000 0.11560  0.74080  0.52860  Biso   1.000  C
  C15      1.0000 0.01910  0.80610  0.51770  Biso   1.000  C
  C16      1.0000 0.09220  0.86530  0.52770  Biso   1.000  C
  C17      1.0000 0.02230  0.67950  0.52070  Biso   1.000  C
  C18      1.0000 0.90970  0.67870  0.46930  Biso   1.000  C
  C19      1.0000 0.82310  0.62290  0.46150  Biso   1.000  C
  C20      1.0000 0.84490  0.56470  0.50510  Biso   1.000  C
  C21      1.0000 0.96310  0.56510  0.55510  Biso   1.000  C
  C22      1.0000 0.04950  0.62100  0.56400  Biso   1.000  C
  C23      1.0000 0.83920  0.44240  0.79600  Biso   1.000  C
  C24      1.0000 0.97210  0.45100  0.73500  Biso   1.000  C
  C25      1.0000 0.14360  0.47140  0.74080  Biso   1.000  C
  C26      1.0000 0.17480  0.48230  0.80610  Biso   1.000  C
  C27      1.0000 0.04250  0.47230  0.86530  Biso   1.000  C
  C28      1.0000 0.29820  0.47930  0.67950  Biso   1.000  C
  C29      1.0000 0.41160  0.53070  0.67870  Biso   1.000  C
  C30      1.0000 0.55400  0.53850  0.62290  Biso   1.000  C
  C31      1.0000 0.59040  0.49490  0.56470  Biso   1.000  C
  C32      1.0000 0.47180  0.44490  0.56510  Biso   1.000  C
  C33      1.0000 0.32950  0.43600  0.62100  Biso   1.000  C
  C34      1.0000 0.07760  0.55760  0.20400  Biso   1.000  C
  C35      1.0000 0.15810  0.54900  0.26500  Biso   1.000  C
  C36      1.0000 0.35580  0.52860  0.25920  Biso   1.000  C
  C37      1.0000 0.46320  0.51770  0.19390  Biso   1.000  C
  C38      1.0000 0.38010  0.52770  0.13470  Biso   1.000  C
  C39      1.0000 0.45700  0.52070  0.32050  Biso   1.000  C
  C40      1.0000 0.62100  0.46930  0.32130  Biso   1.000  C
  C41      1.0000 0.71540  0.46150  0.37710  Biso   1.000  C
  C42      1.0000 0.65000  0.50510  0.43530  Biso   1.000  C
  C43      1.0000 0.48180  0.55510  0.43490  Biso   1.000  C
  C44      1.0000 0.38650  0.56400  0.37900  Biso   1.000  C
  C45      1.0000 0.03160  0.05760  0.29600  Biso   1.000  C
  C46      1.0000 0.17310  0.04900  0.23500  Biso   1.000  C
  C47      1.0000 0.36500  0.02860  0.24080  Biso   1.000  C
  C48      1.0000 0.40710  0.01770  0.30610  Biso   1.000  C
  C49      1.0000 0.26480  0.02770  0.36530  Biso   1.000  C
  C50      1.0000 0.52750  0.02070  0.17950  Biso   1.000  C
  C51      1.0000 0.69230  0.96930  0.17870  Biso   1.000  C
  C52      1.0000 0.84250  0.96150  0.12290  Biso   1.000  C
  C53      1.0000 0.83530  0.00510  0.06470  Biso   1.000  C
  C54      1.0000 0.66670  0.05510  0.06510  Biso   1.000  C
  C55      1.0000 0.51550  0.06400  0.12100  Biso   1.000  C
  C56      1.0000 0.38520  0.94240  0.70400  Biso   1.000  C
  C57      1.0000 0.45710  0.95100  0.76500  Biso   1.000  C
  C58      1.0000 0.63440  0.97140  0.75920  Biso   1.000  C
  C59      1.0000 0.73090  0.98230  0.69390  Biso   1.000  C
  C60      1.0000 0.65780  0.97230  0.63470  Biso   1.000  C
  C61      1.0000 0.72770  0.97930  0.82050  Biso   1.000  C
  C62      1.0000 0.84030  0.03070  0.82130  Biso   1.000  C
  C63      1.0000 0.92690  0.03850  0.87710  Biso   1.000  C
  C64      1.0000 0.90510  0.99490  0.93530  Biso   1.000  C
  C65      1.0000 0.78690  0.94490  0.93490  Biso   1.000  C
  C66      1.0000 0.70050  0.93600  0.87900  Biso   1.000  C
  C67      1.0000 0.91080  0.70400  0.05760  Biso   1.000  C
  C68      1.0000 0.77790  0.76500  0.04900  Biso   1.000  C
  C69      1.0000 0.60640  0.75920  0.02860  Biso   1.000  C
  C70      1.0000 0.57520  0.69390  0.01770  Biso   1.000  C
  C71      1.0000 0.70750  0.63470  0.02770  Biso   1.000  C
  C72      1.0000 0.45180  0.82050  0.02070  Biso   1.000  C
  C73      1.0000 0.33840  0.82130  0.96930  Biso   1.000  C
  C74      1.0000 0.19600  0.87710  0.96150  Biso   1.000  C
  C75      1.0000 0.15960  0.93530  0.00510  Biso   1.000  C
  C76      1.0000 0.27820  0.93490  0.05510  Biso   1.000  C
  C77      1.0000 0.42050  0.87900  0.06400  Biso   1.000  C
  C78      1.0000 0.67240  0.29600  0.94240  Biso   1.000  C
  C79      1.0000 0.59190  0.23500  0.95100  Biso   1.000  C
  C80      1.0000 0.39420  0.24080  0.97140  Biso   1.000  C
  C81      1.0000 0.28680  0.30610  0.98230  Biso   1.000  C
  C82      1.0000 0.36990  0.36530  0.97230  Biso   1.000  C
  C83      1.0000 0.29300  0.17950  0.97930  Biso   1.000  C
  C84      1.0000 0.12900  0.17870  0.03070  Biso   1.000  C
  C85      1.0000 0.03460  0.12290  0.03850  Biso   1.000  C
  C86      1.0000 0.10000  0.06470  0.99490  Biso   1.000  C
  C87      1.0000 0.26820  0.06510  0.94490  Biso   1.000  C
  C88      1.0000 0.36350  0.12100  0.93600  Biso   1.000  C
  C89      1.0000 0.75000  0.50000  0.50000  Biso   1.000  C
  C90      1.0000 0.00000  0.00000  0.00000  Biso   1.000  C
  I1       1.0000 0.67807  0.94693  0.44693  Biso   1.000  I
  I2       1.0000 0.07193  0.05307  0.55307  Biso   1.000  I
  I3       1.0000 0.87500  0.44693  0.05307  Biso   1.000  I
  I4       1.0000 0.37500  0.55307  0.94693  Biso   1.000  I
  N1       1.0000 0.67160  0.14070  0.45690  Biso   1.000  N
  N2       1.0000 0.26920  0.85930  0.54310  Biso   1.000  N
  N3       1.0000 0.87150  0.45690  0.85930  Biso   1.000  N
  N4       1.0000 0.18770  0.54310  0.14070  Biso   1.000  N
  N5       1.0000 0.07840  0.04310  0.35930  Biso   1.000  N
  N6       1.0000 0.48080  0.95690  0.64070  Biso   1.000  N
  N7       1.0000 0.87850  0.64070  0.04310  Biso   1.000  N
  N8       1.0000 0.56230  0.35930  0.95690  Biso   1.000  N
