data_ZIYPUU_freeONLY
_audit_creation_date              2015-10-16
_audit_creation_method            'Materials Studio'
_symmetry_space_group_name_H-M    'P1'
_symmetry_Int_Tables_number       1
_symmetry_cell_setting            triclinic
loop_
_symmetry_equiv_pos_as_xyz
  x,y,z
_cell_length_a                    9.5996
_cell_length_b                    9.7638
_cell_length_c                    9.8660
_cell_angle_alpha                 88.1500
_cell_angle_beta                  77.4310
_cell_angle_gamma                 64.2930
loop_
_atom_site_label
_atom_site_type_symbol
_atom_site_fract_x
_atom_site_fract_y
_atom_site_fract_z
_atom_site_U_iso_or_equiv
_atom_site_adp_type
_atom_site_occupancy
Cd1    Cd    0.95194   0.22667   0.02831   0.01267  Uiso   1.00
Cd2    Cd    0.04806   0.77333   0.97169   0.01267  Uiso   1.00
H1     H     0.41560   0.13120   0.43450   0.01267  Uiso   1.00
H2     H     0.76670   0.67210   0.11440   0.01267  Uiso   1.00
H3     H     0.20640   0.41670   0.30610   0.01267  Uiso   1.00
H4     H     0.62950   0.00550   0.54090   0.01267  Uiso   1.00
H5     H     0.72100   0.47100   0.92200   0.01267  Uiso   1.00
H6     H     0.71680   0.90800   0.81330   0.01267  Uiso   1.00
H7     H     0.58440   0.86880   0.56550   0.01267  Uiso   1.00
H8     H     0.37050   0.99450   0.45910   0.01267  Uiso   1.00
H9     H     0.27900   0.52900   0.07800   0.01267  Uiso   1.00
H10    H     0.79360   0.58330   0.69390   0.01267  Uiso   1.00
H11    H     0.47980   0.16830   0.17040   0.01267  Uiso   1.00
H12    H     0.77330   0.47100   0.50140   0.01267  Uiso   1.00
H13    H     0.14300   0.50200   0.08400   0.01267  Uiso   1.00
H14    H     0.85700   0.49800   0.91600   0.01267  Uiso   1.00
H15    H     0.22670   0.52900   0.49860   0.01267  Uiso   1.00
H16    H     0.52020   0.83170   0.82960   0.01267  Uiso   1.00
H17    H     0.84530   0.95680   0.31080   0.01267  Uiso   1.00
H18    H     0.15470   0.04320   0.68920   0.01267  Uiso   1.00
H19    H     0.23330   0.32790   0.88560   0.01267  Uiso   1.00
H20    H     0.28320   0.09200   0.18670   0.01267  Uiso   1.00
C1     C     0.37030   0.05500   0.11150   0.01267  Uiso   1.00
C2     C     0.19750   0.10570   0.71300   0.01267  Uiso   1.00
C3     C     0.62970   0.94500   0.88850   0.01267  Uiso   1.00
C4     C     0.41610   0.05200   0.49650   0.01267  Uiso   1.00
C5     C     0.12250   0.45070   0.38400   0.01267  Uiso   1.00
C6     C     0.01230   0.56570   0.61790   0.01267  Uiso   1.00
C7     C     0.86460   0.48290   0.50010   0.01267  Uiso   1.00
C8     C     0.98770   0.43430   0.38210   0.01267  Uiso   1.00
C9     C     0.80250   0.89430   0.28700   0.01267  Uiso   1.00
C10    C     0.24220   0.25900   0.81750   0.01267  Uiso   1.00
C11    C     0.02530   0.63620   0.74390   0.01267  Uiso   1.00
C12    C     0.48780   0.10040   0.10180   0.01267  Uiso   1.00
C13    C     0.87750   0.54930   0.61600   0.01267  Uiso   1.00
C14    C     0.97470   0.36380   0.25610   0.01267  Uiso   1.00
C15    C     0.62070   0.04570   0.98950   0.01267  Uiso   1.00
C16    C     0.24770   0.90950   0.01570   0.01267  Uiso   1.00
C17    C     0.13540   0.51710   0.49990   0.01267  Uiso   1.00
C18    C     0.51220   0.89960   0.89820   0.01267  Uiso   1.00
C19    C     0.75780   0.74100   0.18250   0.01267  Uiso   1.00
C20    C     0.58390   0.94800   0.50350   0.01267  Uiso   1.00
C21    C     0.75230   0.09050   0.98430   0.01267  Uiso   1.00
C22    C     0.37930   0.95430   0.01050   0.01267  Uiso   1.00
N1     N     0.64840   0.78030   0.29940   0.01267  Uiso   1.00
N2     N     0.85470   0.80790   0.16950   0.01267  Uiso   1.00
N3     N     0.35160   0.21970   0.70060   0.01267  Uiso   1.00
N4     N     0.32000   0.12150   0.63410   0.01267  Uiso   1.00
N5     N     0.68000   0.87850   0.36590   0.01267  Uiso   1.00
N6     N     0.14530   0.19210   0.83050   0.01267  Uiso   1.00
O1     O     0.05760   0.36450   0.13950   0.01267  Uiso   1.00
O2     O     0.12060   0.69540   0.73090   0.01267  Uiso   1.00
O3     O     0.88540   0.01590   0.90330   0.01267  Uiso   1.00
O4     O     0.94240   0.63550   0.86050   0.01267  Uiso   1.00
O5     O     0.79550   0.46060   0.96300   0.01267  Uiso   1.00
O6     O     0.72770   0.19920   0.06430   0.01267  Uiso   1.00
O7     O     0.11460   0.98410   0.09670   0.01267  Uiso   1.00
O8     O     0.87940   0.30460   0.26910   0.01267  Uiso   1.00
O9     O     0.20450   0.53940   0.03700   0.01267  Uiso   1.00
O10    O     0.27230   0.80080   0.93570   0.01267  Uiso   1.00
