data_ZIYQAB_freeONLY
_audit_creation_date              2015-10-16
_audit_creation_method            'Materials Studio'
_symmetry_space_group_name_H-M    'P1'
_symmetry_Int_Tables_number       1
_symmetry_cell_setting            triclinic
loop_
_symmetry_equiv_pos_as_xyz
  x,y,z
_cell_length_a                    10.8512
_cell_length_b                    11.0140
_cell_length_c                    17.2370
_cell_angle_alpha                 106.1710
_cell_angle_beta                  90.0000
_cell_angle_gamma                 90.0000
loop_
_atom_site_label
_atom_site_type_symbol
_atom_site_fract_x
_atom_site_fract_y
_atom_site_fract_z
_atom_site_U_iso_or_equiv
_atom_site_adp_type
_atom_site_occupancy
Cd1    Cd    0.31450   0.87870   0.68443   0.01267  Uiso   1.00
Cd2    Cd    0.68550   0.12130   0.31557   0.01267  Uiso   1.00
Cd3    Cd    0.81450   0.62130   0.81557   0.01267  Uiso   1.00
Cd4    Cd    0.18550   0.37870   0.18443   0.01267  Uiso   1.00
H1     H     0.80370   0.29240   0.79440   0.01267  Uiso   1.00
H2     H     0.24110   0.39610   0.64950   0.01267  Uiso   1.00
H3     H     0.16620   0.44800   0.00180   0.01267  Uiso   1.00
H4     H     0.33380   0.94800   0.50180   0.01267  Uiso   1.00
H5     H     0.84720   0.39520   0.55100   0.01267  Uiso   1.00
H6     H     0.70890   0.14310   0.94390   0.01267  Uiso   1.00
H7     H     0.59010   0.71530   0.68310   0.01267  Uiso   1.00
H8     H     0.75890   0.60390   0.35050   0.01267  Uiso   1.00
H9     H     0.59100   0.26840   0.50900   0.01267  Uiso   1.00
H10    H     0.12930   0.00710   0.08670   0.01267  Uiso   1.00
H11    H     0.20890   0.35690   0.55610   0.01267  Uiso   1.00
H12    H     0.69630   0.79240   0.29440   0.01267  Uiso   1.00
H13    H     0.90900   0.76840   0.00900   0.01267  Uiso   1.00
H14    H     0.32400   0.55800   0.31100   0.01267  Uiso   1.00
H15    H     0.15280   0.60480   0.44900   0.01267  Uiso   1.00
H16    H     0.82400   0.94200   0.18900   0.01267  Uiso   1.00
H17    H     0.25890   0.89610   0.14950   0.01267  Uiso   1.00
H18    H     0.04820   0.91090   0.11810   0.01267  Uiso   1.00
H19    H     0.62930   0.49290   0.41330   0.01267  Uiso   1.00
H20    H     0.54820   0.58910   0.38190   0.01267  Uiso   1.00
H21    H     0.87070   0.99290   0.91330   0.01267  Uiso   1.00
H22    H     0.89700   0.01400   0.26100   0.01267  Uiso   1.00
H23    H     0.39700   0.48600   0.23900   0.01267  Uiso   1.00
H24    H     0.30370   0.20760   0.70560   0.01267  Uiso   1.00
H25    H     0.40990   0.28470   0.31690   0.01267  Uiso   1.00
H26    H     0.45180   0.41090   0.61810   0.01267  Uiso   1.00
H27    H     0.40900   0.73160   0.49100   0.01267  Uiso   1.00
H28    H     0.90990   0.21530   0.18310   0.01267  Uiso   1.00
H29    H     0.34720   0.10480   0.94900   0.01267  Uiso   1.00
H30    H     0.79110   0.64310   0.44390   0.01267  Uiso   1.00
H31    H     0.74110   0.10390   0.85050   0.01267  Uiso   1.00
H32    H     0.95180   0.08910   0.88190   0.01267  Uiso   1.00
H33    H     0.29110   0.85690   0.05610   0.01267  Uiso   1.00
H34    H     0.09100   0.23160   0.99100   0.01267  Uiso   1.00
H35    H     0.83380   0.55200   0.99820   0.01267  Uiso   1.00
H36    H     0.67600   0.44200   0.68900   0.01267  Uiso   1.00
H37    H     0.37070   0.50710   0.58670   0.01267  Uiso   1.00
H38    H     0.19630   0.70760   0.20560   0.01267  Uiso   1.00
H39    H     0.60300   0.51400   0.76100   0.01267  Uiso   1.00
H40    H     0.65280   0.89520   0.05100   0.01267  Uiso   1.00
H41    H     0.10300   0.98600   0.73900   0.01267  Uiso   1.00
H42    H     0.09010   0.78470   0.81690   0.01267  Uiso   1.00
H43    H     0.66620   0.05200   0.49820   0.01267  Uiso   1.00
H44    H     0.17600   0.05800   0.81100   0.01267  Uiso   1.00
C1     C     0.93270   0.40190   0.44810   0.01267  Uiso   1.00
C2     C     0.09110   0.56250   0.46970   0.01267  Uiso   1.00
C3     C     0.69230   0.83540   0.34970   0.01267  Uiso   1.00
C4     C     0.30770   0.16460   0.65030   0.01267  Uiso   1.00
C5     C     0.52530   0.03500   0.08290   0.01267  Uiso   1.00
C6     C     0.03250   0.21190   0.02590   0.01267  Uiso   1.00
C7     C     0.56180   0.07240   0.17040   0.01267  Uiso   1.00
C8     C     0.43240   0.29820   0.37130   0.01267  Uiso   1.00
C9     C     0.40890   0.06250   0.96970   0.01267  Uiso   1.00
C10    C     0.22770   0.85230   0.09570   0.01267  Uiso   1.00
C11    C     0.93240   0.20180   0.12870   0.01267  Uiso   1.00
C12    C     0.88810   0.08270   0.92090   0.01267  Uiso   1.00
C13    C     0.27230   0.35230   0.59570   0.01267  Uiso   1.00
C14    C     0.67660   0.97310   0.46010   0.01267  Uiso   1.00
C15    C     0.80770   0.33540   0.84970   0.01267  Uiso   1.00
C16    C     0.46750   0.71190   0.52590   0.01267  Uiso   1.00
C17    C     0.47470   0.96500   0.91710   0.01267  Uiso   1.00
C18    C     0.56760   0.70180   0.62870   0.01267  Uiso   1.00
C19    C     0.96750   0.78810   0.97410   0.01267  Uiso   1.00
C20    C     0.97470   0.53500   0.58290   0.01267  Uiso   1.00
C21    C     0.85270   0.30210   0.39380   0.01267  Uiso   1.00
C22    C     0.38810   0.41730   0.57910   0.01267  Uiso   1.00
C23    C     0.17660   0.52690   0.03990   0.01267  Uiso   1.00
C24    C     0.06760   0.79820   0.87130   0.01267  Uiso   1.00
C25    C     0.72770   0.64770   0.40430   0.01267  Uiso   1.00
C26    C     0.61190   0.58270   0.42090   0.01267  Uiso   1.00
C27    C     0.19230   0.66460   0.15030   0.01267  Uiso   1.00
C28    C     0.02530   0.46500   0.41710   0.01267  Uiso   1.00
C29    C     0.32340   0.02690   0.53990   0.01267  Uiso   1.00
C30    C     0.93820   0.57240   0.67040   0.01267  Uiso   1.00
C31    C     0.64730   0.80210   0.89380   0.01267  Uiso   1.00
C32    C     0.59110   0.93750   0.03030   0.01267  Uiso   1.00
C33    C     0.43820   0.92760   0.82960   0.01267  Uiso   1.00
C34    C     0.11190   0.91730   0.07910   0.01267  Uiso   1.00
C35    C     0.06180   0.42760   0.32960   0.01267  Uiso   1.00
C36    C     0.82340   0.47310   0.96010   0.01267  Uiso   1.00
C37    C     0.06730   0.59810   0.55190   0.01267  Uiso   1.00
C38    C     0.90890   0.43750   0.53030   0.01267  Uiso   1.00
C39    C     0.53250   0.28810   0.47410   0.01267  Uiso   1.00
C40    C     0.77230   0.14770   0.90430   0.01267  Uiso   1.00
C41    C     0.56730   0.90190   0.94810   0.01267  Uiso   1.00
C42    C     0.14730   0.69790   0.60620   0.01267  Uiso   1.00
C43    C     0.35270   0.19790   0.10620   0.01267  Uiso   1.00
C44    C     0.43270   0.09810   0.05190   0.01267  Uiso   1.00
N1     N     0.36690   0.36890   0.43130   0.01267  Uiso   1.00
N2     N     0.80570   0.36880   0.98100   0.01267  Uiso   1.00
N3     N     0.63310   0.63110   0.56870   0.01267  Uiso   1.00
N4     N     0.06530   0.86240   0.99740   0.01267  Uiso   1.00
N5     N     0.19430   0.63120   0.01900   0.01267  Uiso   1.00
N6     N     0.82550   0.45900   0.87940   0.01267  Uiso   1.00
N7     N     0.86690   0.13110   0.06870   0.01267  Uiso   1.00
N8     N     0.30570   0.13120   0.51900   0.01267  Uiso   1.00
N9     N     0.03490   0.25380   0.10590   0.01267  Uiso   1.00
N10    N     0.70370   0.78130   0.40890   0.01267  Uiso   1.00
N11    N     0.29630   0.21870   0.59110   0.01267  Uiso   1.00
N12    N     0.20370   0.71870   0.09110   0.01267  Uiso   1.00
N13    N     0.79630   0.28130   0.90890   0.01267  Uiso   1.00
N14    N     0.96510   0.74620   0.89410   0.01267  Uiso   1.00
N15    N     0.69430   0.86880   0.48100   0.01267  Uiso   1.00
N16    N     0.53490   0.24620   0.39410   0.01267  Uiso   1.00
N17    N     0.56530   0.63760   0.50260   0.01267  Uiso   1.00
N18    N     0.17450   0.54100   0.12060   0.01267  Uiso   1.00
N19    N     0.93470   0.13760   0.00260   0.01267  Uiso   1.00
N20    N     0.43470   0.36240   0.49740   0.01267  Uiso   1.00
N21    N     0.13310   0.86890   0.93130   0.01267  Uiso   1.00
N22    N     0.67450   0.95900   0.37940   0.01267  Uiso   1.00
N23    N     0.46510   0.75380   0.60590   0.01267  Uiso   1.00
N24    N     0.32550   0.04100   0.62060   0.01267  Uiso   1.00
O1     O     0.10550   0.32030   0.29859   0.01267  Uiso   1.00
O2     O     0.31950   0.18740   0.17270   0.01267  Uiso   1.00
O3     O     0.39450   0.82030   0.79859   0.01267  Uiso   1.00
O4     O     0.81980   0.21160   0.42120   0.01267  Uiso   1.00
O5     O     0.89450   0.67970   0.70141   0.01267  Uiso   1.00
O6     O     0.55570   0.98950   0.20840   0.01267  Uiso   1.00
O7     O     0.31980   0.28840   0.07880   0.01267  Uiso   1.00
O8     O     0.16790   0.99630   0.76910   0.01267  Uiso   1.00
O9     O     0.68020   0.71160   0.92120   0.01267  Uiso   1.00
O10    O     0.83210   0.00370   0.23090   0.01267  Uiso   1.00
O11    O     0.60550   0.17970   0.20141   0.01267  Uiso   1.00
O12    O     0.33210   0.49630   0.26910   0.01267  Uiso   1.00
O13    O     0.94430   0.48950   0.70840   0.01267  Uiso   1.00
O14    O     0.81950   0.31260   0.32730   0.01267  Uiso   1.00
O15    O     0.68050   0.81260   0.82730   0.01267  Uiso   1.00
O16    O     0.66790   0.50370   0.73090   0.01267  Uiso   1.00
O17    O     0.18020   0.78840   0.57880   0.01267  Uiso   1.00
O18    O     0.44430   0.01050   0.79160   0.01267  Uiso   1.00
O19    O     0.18050   0.68740   0.67270   0.01267  Uiso   1.00
O20    O     0.05570   0.51050   0.29160   0.01267  Uiso   1.00
