data_image0
_cell_length_a       6.96
_cell_length_b       7.718
_cell_length_c       9.693
_cell_angle_alpha    90.61
_cell_angle_beta     91.72
_cell_angle_gamma    90.17

_symmetry_space_group_name_H-M    P 1
_symmetry_int_tables_number       1

loop_
  _symmetry_equiv_pos_as_xyz
  'x, y, z'

loop_
  _atom_site_label
  _atom_site_occupancy
  _atom_site_fract_x
  _atom_site_fract_y
  _atom_site_fract_z
  _atom_site_thermal_displace_type
  _atom_site_B_iso_or_equiv
  _atom_site_type_symbol
  Cd1      1.0000 0.00000  0.00000  0.00000  Biso   1.000  Cd
  Ni1      1.0000 0.50000  0.50000  0.00000  Biso   1.000  Ni
  H1       1.0000 0.95900  0.91055  0.28026  Biso   1.000  H
  H2       1.0000 0.66301  0.80924  0.20662  Biso   1.000  H
  H3       1.0000 0.59519  0.02472  0.15713  Biso   1.000  H
  H4       1.0000 0.81172  0.84808  0.48980  Biso   1.000  H
  H5       1.0000 0.34669  0.11192  0.28713  Biso   1.000  H
  H6       1.0000 0.04100  0.08945  0.71974  Biso   1.000  H
  H7       1.0000 0.33699  0.19076  0.79338  Biso   1.000  H
  H8       1.0000 0.40481  0.97528  0.84287  Biso   1.000  H
  H9       1.0000 0.18828  0.15192  0.51020  Biso   1.000  H
  H10      1.0000 0.65331  0.88808  0.71287  Biso   1.000  H
  C1       1.0000 0.68960  0.66030  0.95820  Biso   1.000  C
  C2       1.0000 0.33560  0.68270  0.03260  Biso   1.000  C
  C3       1.0000 0.67710  0.94770  0.23330  Biso   1.000  C
  C4       1.0000 0.58880  0.97650  0.37340  Biso   1.000  C
  C5       1.0000 0.67550  0.91430  0.49350  Biso   1.000  C
  C6       1.0000 0.41420  0.06240  0.38040  Biso   1.000  C
  C7       1.0000 0.31040  0.33970  0.04180  Biso   1.000  C
  C8       1.0000 0.66440  0.31730  0.96740  Biso   1.000  C
  C9       1.0000 0.32290  0.05230  0.76670  Biso   1.000  C
  C10      1.0000 0.41120  0.02350  0.62660  Biso   1.000  C
  C11      1.0000 0.32450  0.08570  0.50650  Biso   1.000  C
  C12      1.0000 0.58580  0.93760  0.61960  Biso   1.000  C
  N1       1.0000 0.80170  0.76340  0.93700  Biso   1.000  N
  N2       1.0000 0.23690  0.79800  0.05130  Biso   1.000  N
  N3       1.0000 0.88160  0.99580  0.22530  Biso   1.000  N
  N4       1.0000 0.19830  0.23660  0.06300  Biso   1.000  N
  N5       1.0000 0.76310  0.20200  0.94870  Biso   1.000  N
  N6       1.0000 0.11840  0.00420  0.77470  Biso   1.000  N
