data_image0
_cell_length_a       9.25397
_cell_length_b       12.0442
_cell_length_c       13.17
_cell_angle_alpha    80.0637
_cell_angle_beta     69.4314
_cell_angle_gamma    67.4079

_symmetry_space_group_name_H-M    P 1
_symmetry_int_tables_number       1

loop_
  _symmetry_equiv_pos_as_xyz
  'x, y, z'

loop_
  _atom_site_label
  _atom_site_occupancy
  _atom_site_fract_x
  _atom_site_fract_y
  _atom_site_fract_z
  _atom_site_thermal_displace_type
  _atom_site_B_iso_or_equiv
  _atom_site_type_symbol
  Cd1      1.0000 0.00000  0.00000  0.00000  Biso   1.000  Cd
  Cd2      1.0000 0.00000  0.50000  0.50000  Biso   1.000  Cd
  Ni1      1.0000 0.36207  0.25000  0.75000  Biso   1.000  Ni
  Ni2      1.0000 0.63793  0.75000  0.25000  Biso   1.000  Ni
  H1       1.0000 0.00597  0.30882  0.39864  Biso   1.000  H
  H2       1.0000 0.84239  0.33799  0.50575  Biso   1.000  H
  H3       1.0000 0.18040  0.19786  0.50614  Biso   1.000  H
  H4       1.0000 0.99870  0.22802  0.62276  Biso   1.000  H
  H5       1.0000 0.82295  0.11568  0.66296  Biso   1.000  H
  H6       1.0000 0.78431  0.93292  0.63714  Biso   1.000  H
  H7       1.0000 0.71343  0.19118  0.10136  Biso   1.000  H
  H8       1.0000 0.68613  0.16201  0.99425  Biso   1.000  H
  H9       1.0000 0.88440  0.30214  0.99386  Biso   1.000  H
  H10      1.0000 0.84948  0.27198  0.87724  Biso   1.000  H
  H11      1.0000 0.60159  0.38432  0.83704  Biso   1.000  H
  H12      1.0000 0.35437  0.56708  0.86286  Biso   1.000  H
  H13      1.0000 0.99403  0.69118  0.60136  Biso   1.000  H
  H14      1.0000 0.15761  0.66201  0.49425  Biso   1.000  H
  H15      1.0000 0.81960  0.80214  0.49386  Biso   1.000  H
  H16      1.0000 0.00130  0.77198  0.37724  Biso   1.000  H
  H17      1.0000 0.17705  0.88432  0.33704  Biso   1.000  H
  H18      1.0000 0.21569  0.06708  0.36286  Biso   1.000  H
  H19      1.0000 0.28657  0.80882  0.89864  Biso   1.000  H
  H20      1.0000 0.31387  0.83799  0.00575  Biso   1.000  H
  H21      1.0000 0.11560  0.69786  0.00614  Biso   1.000  H
  H22      1.0000 0.15052  0.72802  0.12276  Biso   1.000  H
  H23      1.0000 0.39841  0.61568  0.16296  Biso   1.000  H
  H24      1.0000 0.64563  0.43292  0.13714  Biso   1.000  H
  C1       1.0000 0.23160  0.15830  0.82290  Biso   1.000  C
  C2       1.0000 0.51110  0.16560  0.82540  Biso   1.000  C
  C3       1.0000 0.95250  0.78650  0.46490  Biso   1.000  C
  C4       1.0000 0.97740  0.89670  0.48410  Biso   1.000  C
  C5       1.0000 0.09880  0.93520  0.40860  Biso   1.000  C
  C6       1.0000 0.12160  0.03780  0.42320  Biso   1.000  C
  C7       1.0000 0.21280  0.34170  0.67710  Biso   1.000  C
  C8       1.0000 0.50210  0.33440  0.67460  Biso   1.000  C
  C9       1.0000 0.20390  0.71350  0.03510  Biso   1.000  C
  C10      1.0000 0.35820  0.60330  0.01590  Biso   1.000  C
  C11      1.0000 0.44260  0.56480  0.09140  Biso   1.000  C
  C12      1.0000 0.58260  0.46220  0.07680  Biso   1.000  C
  C13      1.0000 0.76840  0.84170  0.17710  Biso   1.000  C
  C14      1.0000 0.48890  0.83440  0.17460  Biso   1.000  C
  C15      1.0000 0.04750  0.21350  0.53510  Biso   1.000  C
  C16      1.0000 0.02260  0.10330  0.51590  Biso   1.000  C
  C17      1.0000 0.90120  0.06480  0.59140  Biso   1.000  C
  C18      1.0000 0.87840  0.96220  0.57680  Biso   1.000  C
  C19      1.0000 0.78720  0.65830  0.32290  Biso   1.000  C
  C20      1.0000 0.49790  0.66560  0.32540  Biso   1.000  C
  C21      1.0000 0.79610  0.28650  0.96490  Biso   1.000  C
  C22      1.0000 0.64180  0.39670  0.98410  Biso   1.000  C
  C23      1.0000 0.55740  0.43520  0.90860  Biso   1.000  C
  C24      1.0000 0.41740  0.53780  0.92320  Biso   1.000  C
  N1       1.0000 0.15500  0.09910  0.86790  Biso   1.000  N
  N2       1.0000 0.60120  0.11780  0.87340  Biso   1.000  N
  N3       1.0000 0.03680  0.67620  0.52200  Biso   1.000  N
  N4       1.0000 0.12200  0.40090  0.63210  Biso   1.000  N
  N5       1.0000 0.59240  0.38220  0.62660  Biso   1.000  N
  N6       1.0000 0.23500  0.82380  0.97800  Biso   1.000  N
  N7       1.0000 0.84500  0.90090  0.13210  Biso   1.000  N
  N8       1.0000 0.39880  0.88220  0.12660  Biso   1.000  N
  N9       1.0000 0.96320  0.32380  0.47800  Biso   1.000  N
  N10      1.0000 0.87800  0.59910  0.36790  Biso   1.000  N
  N11      1.0000 0.40760  0.61780  0.37340  Biso   1.000  N
  N12      1.0000 0.76500  0.17620  0.02200  Biso   1.000  N
