{'_ref': 'TBD', '_srcid': 'CAKYAQ_clean', 'submitters': [{'name': 'Dalar Nazarian Jeff Camp and David Sholl', 'email': 'dalar@gatech.edu jcamp6@gatech.edu'}], '_method': 'VASP DFT with PBE;DDEC'}
data_Zn8P6ClO24
_symmetry_space_group_name_H-M   'P 1'
_cell_length_a   8.87750000
_cell_length_b   8.87750041
_cell_length_c   23.77500000
_cell_angle_alpha   90.00000000
_cell_angle_beta   90.00000000
_cell_angle_gamma   119.99999846
_symmetry_Int_Tables_number   1
_chemical_formula_structural   Zn8P6ClO24
_chemical_formula_sum   'Zn16 P12 Cl2 O48'
_cell_volume   1622.67874032
_cell_formula_units_Z   2
loop_
 _symmetry_equiv_pos_site_id
 _symmetry_equiv_pos_as_xyz
  1  'x, y, z'
loop_
 _atom_site_label
 _atom_site_fract_x
 _atom_site_fract_y
 _atom_site_fract_z
 _atom_site_charge
 Zn 0.96002 0.29329 0.45592   1.262355
 Zn 0.33327 0.03998 0.45592   1.262355
 Zn 0.70671 0.66673 0.45592   1.262356
 Zn 0.33327 0.29329 0.04408   1.262355
 Zn 0.70671 0.03998 0.04408   1.262355
 Zn 0.96002 0.66673 0.04408   1.262356
 Zn 0.03998 0.70671 0.54408   1.262354
 Zn 0.66673 0.96002 0.54408   1.262354
 Zn 0.29329 0.33327 0.54408   1.262355
 Zn 0.66673 0.70671 0.95592   1.262354
 Zn 0.29329 0.96002 0.95592   1.262354
 Zn 0.03998 0.33327 0.95592   1.262355
 Zn 0.33333 0.66666 0.35062   1.113712
 Zn 0.33333 0.66666 0.14938   1.113712
 Zn 0.66667 0.33334 0.64938   1.113712
 Zn 0.66667 0.33334 0.85062   1.113712
 P 0.03531 0.68092 0.41725   1.772904
 P 0.64561 0.96469 0.41725   1.77292
 P 0.31908 0.35439 0.41725   1.772879
 P 0.64561 0.68092 0.08275   1.772907
 P 0.31908 0.96469 0.08275   1.772923
 P 0.03531 0.35439 0.08275   1.772881
 P 0.96469 0.31908 0.58275   1.772904
 P 0.35439 0.03531 0.58275   1.77292
 P 0.68092 0.64561 0.58275   1.772879
 P 0.35439 0.31908 0.91725   1.772907
 P 0.68092 0.03531 0.91725   1.772923
 P 0.96469 0.64561 0.91725   1.772881
 Cl 0.33333 0.66666 0.25   -0.349088
 Cl 0.66667 0.33334 0.75   -0.349088
 O 0.9495 0.4931 0.43437   -0.867173
 O 0.145 0.7957 0.46814   -0.975668
 O 0.8968 0.7291 0.40339   -0.740327
 O 0.1576 0.7264 0.36686   -0.765153
 O 0.5436 0.0505 0.43437   -0.867176
 O 0.6507 0.855 0.46814   -0.97567
 O 0.8323 0.1032 0.40339   -0.740331
 O 0.5688 0.8424 0.36686   -0.765167
 O 0.5069 0.4564 0.43437   -0.867171
 O 0.2043 0.3493 0.46814   -0.975666
 O 0.2709 0.1677 0.40339   -0.740327
 O 0.2736 0.4312 0.36686   -0.765108
 O 0.5436 0.4931 0.06563   -0.867174
 O 0.6507 0.7957 0.03186   -0.975669
 O 0.8323 0.7291 0.09661   -0.740327
 O 0.5688 0.7264 0.13314   -0.765153
 O 0.5069 0.0505 0.06563   -0.867176
 O 0.2043 0.855 0.03186   -0.975671
 O 0.2709 0.1032 0.09661   -0.740331
 O 0.2736 0.8424 0.13314   -0.765168
 O 0.9495 0.4564 0.06563   -0.867171
 O 0.145 0.3493 0.03186   -0.975666
 O 0.8968 0.1677 0.09661   -0.740327
 O 0.1576 0.4312 0.13314   -0.765109
 O 0.0505 0.5069 0.56563   -0.867173
 O 0.855 0.2043 0.53186   -0.975668
 O 0.1032 0.2709 0.59661   -0.740327
 O 0.8424 0.2736 0.63314   -0.765153
 O 0.4564 0.9495 0.56563   -0.867176
 O 0.3493 0.145 0.53186   -0.97567
 O 0.1677 0.8968 0.59661   -0.740331
 O 0.4312 0.1576 0.63314   -0.765167
 O 0.4931 0.5436 0.56563   -0.867171
 O 0.7957 0.6507 0.53186   -0.975666
 O 0.7291 0.8323 0.59661   -0.740327
 O 0.7264 0.5688 0.63314   -0.765108
 O 0.4564 0.5069 0.93437   -0.867174
 O 0.3493 0.2043 0.96814   -0.975669
 O 0.1677 0.2709 0.90339   -0.740327
 O 0.4312 0.2736 0.86686   -0.765153
 O 0.4931 0.9495 0.93437   -0.867176
 O 0.7957 0.145 0.96814   -0.975671
 O 0.7291 0.8968 0.90339   -0.740331
 O 0.7264 0.1576 0.86686   -0.765168
 O 0.0505 0.5436 0.93437   -0.867171
 O 0.855 0.6507 0.96814   -0.975666
 O 0.1032 0.8323 0.90339   -0.740327
 O 0.8424 0.5688 0.86686   -0.765109
