{'_ref': 'TBD', '_srcid': 'CAKYAQ_clean', 'submitters': [{'name': 'Dalar Nazarian Jeff Camp and David Sholl', 'email': 'dalar@gatech.edu jcamp6@gatech.edu'}], '_method': 'VASP DFT with PBE;DDEC'}
data_Cu2C17(N5O2)2
_symmetry_space_group_name_H-M   'P 1'
_cell_length_a   9.24130034
_cell_length_b   9.28440024
_cell_length_c   14.01883726
_cell_angle_alpha   102.40405709
_cell_angle_beta   109.24426618
_cell_angle_gamma   90.00000112
_symmetry_Int_Tables_number   1
_chemical_formula_structural   Cu2C17(N5O2)2
_chemical_formula_sum   'Cu4 C34 N20 O8'
_cell_volume   1105.82194201
_cell_formula_units_Z   2
loop_
 _symmetry_equiv_pos_site_id
 _symmetry_equiv_pos_as_xyz
  1  'x, y, z'
loop_
 _atom_site_label
 _atom_site_fract_x
 _atom_site_fract_y
 _atom_site_fract_z
 _atom_site_charge
 Cu 0.6457 0.9356 0.6206   0.665684
 Cu 0.0251 0.5644 0.3794   0.665301
 Cu 0.3543 0.0644 0.3794   0.665684
 Cu 0.9749 0.4356 0.6206   0.665301
 C 0.7883 0.6886 0.6986   0.580134
 C 0.8376 0.6904 0.6074   0.154802
 C 0.6238 0.1636 0.7946   0.237968
 C 0.5748 0.2642 0.8642   -0.187523
 C 0.4304 0.2331 0.8686   0.128678
 C 0.3419 0.1058 0.8048   0.029003
 C 0.4015 0.0116 0.7376   0.067743
 C 0.3692 0.33737 0.9424   0.008664
 C 0.0897 0.8114 0.3014   0.578452
 C 0.2302 0.8096 0.3926   0.154712
 C 0.8292 0.3364 0.2054   0.238427
 C 0.7106 0.2358 0.1358   -0.187441
 C 0.5618 0.2669 0.1314   0.128122
 C 0.5371 0.3942 0.1952   0.029505
 C 0.6639 0.4884 0.2624   0.067187
 C 0.4268 0.16263 0.0576   0.008471
 C 0.2117 0.3114 0.3014   0.580134
 C 0.1624 0.3096 0.3926   0.154802
 C 0.3762 0.8364 0.2054   0.237968
 C 0.4252 0.7358 0.1358   -0.187521
 C 0.5696 0.7669 0.1314   0.128678
 C 0.6581 0.8942 0.1952   0.029004
 C 0.5985 0.9884 0.2624   0.067743
 C 0.6308 0.66263 0.0576   0.008667
 C 0.9103 0.1886 0.6986   0.578452
 C 0.7698 0.1904 0.6074   0.154711
 C 0.1708 0.6636 0.7946   0.238427
 C 0.2894 0.7642 0.8642   -0.187439
 C 0.4382 0.7331 0.8686   0.128122
 C 0.4629 0.6058 0.8048   0.029506
 C 0.3361 0.5116 0.7376   0.067187
 C 0.5732 0.83737 0.9424   0.008474
 C 0.304 0.25 0.0   -0.00011
 C 0.696 0.75 0.0   -0.00011
 N 0.7598 0.7626 0.5376   -0.222511
 N 0.8277 0.7454 0.4654   -0.085267
 N 0.9446 0.6632 0.4932   0.01498
 N 0.9517 0.6274 0.5814   -0.24838
 N 0.541 0.0396 0.7316   -0.164668
 N 0.2222 0.7374 0.4624   -0.222159
 N 0.3623 0.7546 0.5346   -0.085706
 N 0.4514 0.8368 0.5068   0.014665
 N 0.3703 0.8726 0.4186   -0.248007
 N 0.8094 0.4604 0.2684   -0.16451
 N 0.2402 0.2374 0.4624   -0.222511
 N 0.1723 0.2546 0.5346   -0.085268
 N 0.0554 0.3368 0.5068   0.01498
 N 0.0483 0.3726 0.4186   -0.24838
 N 0.459 0.9604 0.2684   -0.164668
 N 0.7778 0.2626 0.5376   -0.222159
 N 0.6377 0.2454 0.4654   -0.085707
 N 0.5486 0.1632 0.4932   0.014665
 N 0.6297 0.1274 0.5814   -0.248007
 N 0.1906 0.5396 0.7316   -0.16451
 O 0.8511 0.6052 0.7542   -0.493404
 O 0.685 0.776 0.708   -0.485582
 O 0.0969 0.8948 0.2458   -0.492523
 O 0.977 0.724 0.292   -0.484711
 O 0.1489 0.3948 0.2458   -0.493404
 O 0.315 0.224 0.292   -0.485581
 O 0.9031 0.1052 0.7542   -0.492523
 O 0.023 0.276 0.708   -0.484711
