{'_ref': 'TBD', '_srcid': 'CAKYAQ_clean', 'submitters': [{'name': 'Dalar Nazarian Jeff Camp and David Sholl', 'email': 'dalar@gatech.edu jcamp6@gatech.edu'}], '_method': 'VASP DFT with PBE;DDEC'}
data_La2H4C11N4O11
_symmetry_space_group_name_H-M   'P 1'
_cell_length_a   8.52100000
_cell_length_b   15.38000000
_cell_length_c   18.47700000
_cell_angle_alpha   90.00000000
_cell_angle_beta   90.00000000
_cell_angle_gamma   90.00000000
_symmetry_Int_Tables_number   1
_chemical_formula_structural   La2H4C11N4O11
_chemical_formula_sum   'La8 H16 C44 N16 O44'
_cell_volume   2421.46591146
_cell_formula_units_Z   4
loop_
 _symmetry_equiv_pos_site_id
 _symmetry_equiv_pos_as_xyz
  1  'x, y, z'
loop_
 _atom_site_label
 _atom_site_fract_x
 _atom_site_fract_y
 _atom_site_fract_z
 _atom_site_charge
 La 0.65604 0.71554 0.38324   2.184722
 La 0.84396 0.21554 0.61676   2.184722
 La 0.34396 0.28446 0.88324   2.184722
 La 0.15604 0.78446 0.11676   2.184722
 La 0.34396 0.28446 0.61676   2.184724
 La 0.15604 0.78446 0.38324   2.184724
 La 0.65604 0.71554 0.11676   2.184724
 La 0.84396 0.21554 0.88324   2.184724
 H 0.4796 0.981 0.5863   0.145136
 H 0.0333 0.951 0.5442   0.271473
 H 0.0204 0.481 0.4137   0.145136
 H 0.4667 0.451 0.4558   0.271473
 H 0.5204 0.019 0.0863   0.145136
 H 0.9667 0.049 0.0442   0.271473
 H 0.9796 0.519 0.9137   0.145136
 H 0.5333 0.549 0.9558   0.271473
 H 0.5204 0.019 0.4137   0.145137
 H 0.9667 0.049 0.4558   0.271473
 H 0.9796 0.519 0.5863   0.145137
 H 0.5333 0.549 0.5442   0.271473
 H 0.4796 0.981 0.9137   0.145137
 H 0.0333 0.951 0.9558   0.271473
 H 0.0204 0.481 0.0863   0.145137
 H 0.4667 0.451 0.0442   0.271473
 C 0.4691 0.8219 0.4965   0.657317
 C 0.3591 0.885 0.5281   0.060305
 C 0.3833 0.9597 0.569   -0.154412
 C 0.2373 0.996 0.5789   -0.065603
 C 0.1859 0.0786 0.6122   0.76629
 C 0.0309 0.3219 0.5035   0.657317
 C 0.1409 0.385 0.4719   0.060305
 C 0.1167 0.4597 0.431   -0.154412
 C 0.2627 0.496 0.4211   -0.065603
 C 0.3141 0.5786 0.3878   0.76629
 C 0.5309 0.1781 0.9965   0.657317
 C 0.6409 0.115 0.0281   0.060305
 C 0.6167 0.0403 0.069   -0.154412
 C 0.7627 0.004 0.0789   -0.065603
 C 0.8141 0.9214 0.1122   0.76629
 C 0.9691 0.6781 0.0035   0.657317
 C 0.8591 0.615 0.9719   0.060305
 C 0.8833 0.5403 0.931   -0.154412
 C 0.7373 0.504 0.9211   -0.065603
 C 0.6859 0.4214 0.8878   0.76629
 C 0.5309 0.1781 0.5035   0.657317
 C 0.6409 0.115 0.4719   0.060305
 C 0.6167 0.0403 0.431   -0.154412
 C 0.7627 0.004 0.4211   -0.065603
 C 0.8141 0.9214 0.3878   0.766291
 C 0.9691 0.6781 0.4965   0.657317
 C 0.8591 0.615 0.5281   0.060305
 C 0.8833 0.5403 0.569   -0.154412
 C 0.7373 0.504 0.5789   -0.065603
 C 0.6859 0.4214 0.6122   0.766291
 C 0.4691 0.8219 0.0035   0.657317
 C 0.3591 0.885 0.9719   0.060305
 C 0.3833 0.9597 0.931   -0.154412
 C 0.2373 0.996 0.9211   -0.065603
 C 0.1859 0.0786 0.8878   0.766291
 C 0.0309 0.3219 0.9965   0.657317
 C 0.1409 0.385 0.0281   0.060305
 C 0.1167 0.4597 0.069   -0.154412
 C 0.2627 0.496 0.0789   -0.065603
 C 0.3141 0.5786 0.1122   0.766291
 C 0.4697 0.7509 0.25   1.079479
 C 0.0303 0.2509 0.75   1.079479
 C 0.5303 0.2491 0.75   1.079479
 C 0.9697 0.7491 0.25   1.079479
 N 0.1342 0.9423 0.5451   0.039259
 N 0.2043 0.875 0.5136   -0.386814
 N 0.3658 0.4423 0.4549   0.039259
 N 0.2957 0.375 0.4864   -0.386814
 N 0.8658 0.0577 0.0451   0.039259
 N 0.7957 0.125 0.0136   -0.386814
 N 0.6342 0.5577 0.9549   0.039259
 N 0.7043 0.625 0.9864   -0.386814
 N 0.8658 0.0577 0.4549   0.039259
 N 0.7957 0.125 0.4864   -0.386814
 N 0.6342 0.5577 0.5451   0.039259
 N 0.7043 0.625 0.5136   -0.386814
 N 0.1342 0.9423 0.9549   0.039259
 N 0.2043 0.875 0.9864   -0.386814
 N 0.3658 0.4423 0.0451   0.039259
 N 0.2957 0.375 0.0136   -0.386814
 O 0.6103 0.8246 0.5099   -0.59398
 O 0.411 0.7659 0.4542   -0.767974
 O 0.0428 0.0941 0.6091   -0.74862
 O 0.29 0.1253 0.6387   -0.664036
 O 0.4133 0.7735 0.3108   -0.852744
 O 0.8897 0.3246 0.4901   -0.59398
 O 0.089 0.2659 0.5458   -0.767974
 O 0.4572 0.5941 0.3909   -0.74862
 O 0.21 0.6253 0.3613   -0.664036
 O 0.0867 0.2735 0.6892   -0.852744
 O 0.3897 0.1754 0.0099   -0.59398
 O 0.589 0.2341 0.9542   -0.767974
 O 0.9572 0.9059 0.1091   -0.74862
 O 0.71 0.8747 0.1387   -0.664036
 O 0.5867 0.2265 0.8108   -0.852744
 O 0.1103 0.6754 0.9901   -0.59398
 O 0.911 0.7341 0.0458   -0.767974
 O 0.5428 0.4059 0.8909   -0.74862
 O 0.79 0.3747 0.8613   -0.664036
 O 0.9133 0.7265 0.1892   -0.852744
 O 0.3897 0.1754 0.4901   -0.59398
 O 0.589 0.2341 0.5458   -0.767974
 O 0.9572 0.9059 0.3909   -0.74862
 O 0.71 0.8747 0.3613   -0.664036
 O 0.5867 0.2265 0.6892   -0.852744
 O 0.1103 0.6754 0.5099   -0.59398
 O 0.911 0.7341 0.4542   -0.767974
 O 0.5428 0.4059 0.6091   -0.74862
 O 0.79 0.3747 0.6387   -0.664036
 O 0.9133 0.7265 0.3108   -0.852744
 O 0.6103 0.8246 0.9901   -0.59398
 O 0.411 0.7659 0.0458   -0.767974
 O 0.0428 0.0941 0.8909   -0.74862
 O 0.29 0.1253 0.8613   -0.664036
 O 0.4133 0.7735 0.1892   -0.852744
 O 0.8897 0.3246 0.0099   -0.59398
 O 0.089 0.2659 0.9542   -0.767974
 O 0.4572 0.5941 0.1091   -0.74862
 O 0.21 0.6253 0.1387   -0.664036
 O 0.0867 0.2735 0.8108   -0.852744
 O 0.5964 0.7057 0.25   -0.860124
 O 0.9036 0.2057 0.75   -0.860124
 O 0.4036 0.2943 0.75   -0.860124
 O 0.0964 0.7943 0.25   -0.860124
