{'_ref': 'TBD', '_srcid': 'CAKYAQ_clean', 'submitters': [{'name': 'Dalar Nazarian Jeff Camp and David Sholl', 'email': 'dalar@gatech.edu jcamp6@gatech.edu'}], '_method': 'VASP DFT with PBE;DDEC'}
data_Er2Cu3H30C24(NO4)6
_symmetry_space_group_name_H-M   'P 1'
_cell_length_a   13.31690000
_cell_length_b   13.31690026
_cell_length_c   14.29700000
_cell_angle_alpha   90.00000000
_cell_angle_beta   90.00000000
_cell_angle_gamma   119.99999935
_symmetry_Int_Tables_number   1
_chemical_formula_structural   Er2Cu3H30C24(NO4)6
_chemical_formula_sum   'Er4 Cu6 H60 C48 N12 O48'
_cell_volume   2195.74467016
_cell_formula_units_Z   2
loop_
 _symmetry_equiv_pos_site_id
 _symmetry_equiv_pos_as_xyz
  1  'x, y, z'
loop_
 _atom_site_label
 _atom_site_fract_x
 _atom_site_fract_y
 _atom_site_fract_z
 _atom_site_charge
 Er 0.33333 0.66666 0.84568   1.430134
 Er 0.33333 0.66666 0.34568   1.430135
 Er 0.66667 0.33334 0.18054   1.458006
 Er 0.66667 0.33334 0.68054   1.458008
 Cu 0.000500000000002 0.5002 0.0133   0.861762
 Cu 0.4997 0.9995 0.0133   0.865133
 Cu 0.4998 0.5003 0.0133   0.865199
 Cu 0.4997 0.5002 0.5133   0.861771
 Cu 0.4998 0.9995 0.5133   0.865134
 Cu 0.000500000000002 0.5003 0.5133   0.865202
 H 0.0188 0.6691 0.9357   0.254422
 H 0.9736 0.3239 0.0934   0.258066
 H 0.922 0.6092 0.8229   0.140204
 H 0.8101 0.5484 0.8854   0.132598
 H 0.0975 0.4069 0.2115   0.147614
 H 0.2009 0.471 0.1416   0.142742
 H 0.9581 0.7013 0.0619   0.122308
 H 0.8583 0.6754 0.9915   0.109793
 H 0.0382 0.2905 0.9591   0.127238
 H 0.1353 0.3121 0.0324   0.115021
 H 0.6503 0.9812 0.9357   0.254338
 H 0.3503 0.0264 0.0934   0.257782
 H 0.6872 0.078 0.8229   0.139029
 H 0.7383 0.1899 0.8854   0.130988
 H 0.3094 0.9025 0.2115   0.146625
 H 0.2701 0.7991 0.1416   0.141374
 H 0.7432 0.0419 0.0619   0.121951
 H 0.8171 0.1417 0.9915   0.107925
 H 0.2523 0.9618 0.9591   0.126739
 H 0.1768 0.8647 0.0324   0.113146
 H 0.3309 0.3497 0.9357   0.254074
 H 0.6761 0.6497 0.0934   0.25754
 H 0.3908 0.3128 0.8229   0.138738
 H 0.4516 0.2617 0.8854   0.131768
 H 0.5931 0.6906 0.2115   0.146439
 H 0.529 0.7299 0.1416   0.142085
 H 0.2987 0.2568 0.0619   0.121569
 H 0.3246 0.1829 0.9915   0.108385
 H 0.7095 0.7477 0.9591   0.12644
 H 0.6879 0.8232 0.0324   0.113545
 H 0.6503 0.6691 0.4357   0.254423
 H 0.3503 0.3239 0.5934   0.258066
 H 0.6872 0.6092 0.3229   0.140203
 H 0.7383 0.5484 0.3854   0.132598
 H 0.3094 0.4069 0.7115   0.147613
 H 0.2701 0.471 0.6416   0.142742
 H 0.7432 0.7013 0.5619   0.122308
 H 0.8171 0.6754 0.4915   0.109794
 H 0.2523 0.2905 0.4591   0.127238
 H 0.1768 0.3121 0.5324   0.11502
 H 0.3309 0.9812 0.4357   0.254338
 H 0.6761 0.0264 0.5934   0.257782
 H 0.3908 0.078 0.3229   0.139029
 H 0.4516 0.1899 0.3854   0.130988
 H 0.5931 0.9025 0.7115   0.146625
 H 0.529 0.7991 0.6416   0.141374
 H 0.2987 0.0419 0.5619   0.12195
 H 0.3246 0.1417 0.4915   0.107925
 H 0.7095 0.9618 0.4591   0.126739
 H 0.6879 0.8647 0.5324   0.113147
 H 0.0188 0.3497 0.4357   0.254074
 H 0.9736 0.6497 0.5934   0.25754
 H 0.922 0.3128 0.3229   0.138738
 H 0.8101 0.2617 0.3854   0.131768
 H 0.0975 0.6906 0.7115   0.146438
 H 0.2009 0.7299 0.6416   0.142085
 H 0.9581 0.2568 0.5619   0.121568
 H 0.8583 0.1829 0.4915   0.108385
 H 0.0382 0.7477 0.4591   0.12644
 H 0.1353 0.8232 0.5324   0.113545
 C 0.1297 0.564 0.1785   0.735401
 C 0.8743 0.4362 0.8539   0.666804
 C 0.8863 0.5575 0.8757   -0.208656
 C 0.1235 0.4559 0.1564   -0.230907
 C 0.8977 0.641 0.024   -0.223281
 C 0.0956 0.347 0.0013   -0.181192
 C 0.1872 0.4621 0.9445   0.62169
 C 0.8148 0.552 0.0863   0.728789
 C 0.4343 0.8703 0.1785   0.736284
 C 0.5619 0.1257 0.8539   0.66738
 C 0.6712 0.1137 0.8757   -0.207014
 C 0.3324 0.8765 0.1564   -0.229835
 C 0.7433 0.1023 0.024   -0.222063
 C 0.2514 0.9044 0.0013   -0.180075
 C 0.2749 0.8128 0.9445   0.621512
 C 0.7372 0.1852 0.0863   0.72804
 C 0.436 0.5657 0.1785   0.736303
 C 0.5638 0.4381 0.8539   0.6675
 C 0.4425 0.3288 0.8757   -0.207021
 C 0.5441 0.6676 0.1564   -0.22987
 C 0.359 0.2567 0.024   -0.22185
 C 0.653 0.7486 0.0013   -0.179872
 C 0.5379 0.7251 0.9445   0.621475
 C 0.448 0.2628 0.0863   0.728082
 C 0.4343 0.564 0.6785   0.735401
 C 0.5619 0.4362 0.3539   0.666804
 C 0.6712 0.5575 0.3757   -0.208656
 C 0.3324 0.4559 0.6564   -0.230906
 C 0.7433 0.641 0.524   -0.22328
 C 0.2514 0.347 0.5013   -0.181192
 C 0.2749 0.4621 0.4445   0.62169
 C 0.7372 0.552 0.5863   0.728789
 C 0.436 0.8703 0.6785   0.736284
 C 0.5638 0.1257 0.3539   0.66738
 C 0.4425 0.1137 0.3757   -0.207014
 C 0.5441 0.8765 0.6564   -0.229835
 C 0.359 0.1023 0.524   -0.222063
 C 0.653 0.9044 0.5013   -0.180076
 C 0.5379 0.8128 0.4445   0.621512
 C 0.448 0.1852 0.5863   0.72804
 C 0.1297 0.5657 0.6785   0.736302
 C 0.8743 0.4381 0.3539   0.6675
 C 0.8863 0.3288 0.3757   -0.207021
 C 0.1235 0.6676 0.6564   -0.22987
 C 0.8977 0.2567 0.524   -0.22185
 C 0.0956 0.7486 0.5013   -0.179871
 C 0.1872 0.7251 0.4445   0.621475
 C 0.8148 0.2628 0.5863   0.728081
 N 0.9528 0.6044 0.9542   -0.200792
 N 0.0393 0.3861 0.0712   -0.26756
 N 0.6516 0.0472 0.9542   -0.20682
 N 0.3468 0.9607 0.0712   -0.273099
 N 0.3956 0.3484 0.9542   -0.206997
 N 0.6139 0.6532 0.0712   -0.273309
 N 0.6516 0.6044 0.4542   -0.200795
 N 0.3468 0.3861 0.5712   -0.267564
 N 0.3956 0.0472 0.4542   -0.20682
 N 0.6139 0.9607 0.5712   -0.273099
 N 0.9528 0.3484 0.4542   -0.206999
 N 0.0393 0.6532 0.5712   -0.273311
 O 0.1906 0.5558 0.955   -0.60668
 O 0.0761 0.5983 0.1236   -0.567597
 O 0.8113 0.4559 0.0746   -0.716116
 O 0.9282 0.4024 0.9061   -0.51421
 O 0.2524 0.4462 0.8843   -0.644231
 O 0.7589 0.568 0.1411   -0.600994
 O 0.8148 0.3769 0.7844   -0.573139
 O 0.1853 0.6159 0.2454   -0.572004
 O 0.3652 0.8094 0.955   -0.605085
 O 0.5222 0.9239 0.1236   -0.572974
 O 0.6446 0.1887 0.0746   -0.711881
 O 0.4742 0.0718 0.9061   -0.518948
 O 0.1938 0.7476 0.8843   -0.644763
 O 0.8091 0.2411 0.1411   -0.600764
 O 0.5621 0.1852 0.7844   -0.579749
 O 0.4306 0.8147 0.2454   -0.57653
 O 0.4442 0.6348 0.955   -0.60556
 O 0.4017 0.4778 0.1236   -0.573852
 O 0.5441 0.3554 0.0746   -0.712828
 O 0.5976 0.5258 0.9061   -0.519687
 O 0.5538 0.8062 0.8843   -0.644112
 O 0.432 0.1909 0.1411   -0.600593
 O 0.6231 0.4379 0.7844   -0.580352
 O 0.3841 0.5694 0.2454   -0.577112
 O 0.3652 0.5558 0.455   -0.606681
 O 0.5222 0.5983 0.6236   -0.567597
 O 0.6446 0.4559 0.5746   -0.716117
 O 0.4742 0.4024 0.4061   -0.514212
 O 0.1938 0.4462 0.3843   -0.644231
 O 0.8091 0.568 0.6411   -0.600994
 O 0.5621 0.3769 0.2844   -0.573138
 O 0.4306 0.6159 0.7454   -0.572004
 O 0.4442 0.8094 0.455   -0.605086
 O 0.4017 0.9239 0.6236   -0.572975
 O 0.5441 0.1887 0.5746   -0.711882
 O 0.5976 0.0718 0.4061   -0.518948
 O 0.5538 0.7476 0.3843   -0.644763
 O 0.432 0.2411 0.6411   -0.600765
 O 0.6231 0.1852 0.2844   -0.579749
 O 0.3841 0.8147 0.7454   -0.57653
 O 0.1906 0.6348 0.455   -0.60556
 O 0.0761 0.4778 0.6236   -0.573852
 O 0.8113 0.3554 0.5746   -0.71283
 O 0.9282 0.5258 0.4061   -0.519688
 O 0.2524 0.8062 0.3843   -0.644112
 O 0.7589 0.1909 0.6411   -0.600593
 O 0.8148 0.4379 0.2844   -0.580352
 O 0.1853 0.5694 0.7454   -0.577113
