{'_ref': 'TBD', '_srcid': 'CAKYAQ_clean', 'submitters': [{'name': 'Dalar Nazarian Jeff Camp and David Sholl', 'email': 'dalar@gatech.edu jcamp6@gatech.edu'}], '_method': 'VASP DFT with PBE;DDEC'}
data_CuH7(C7O2)2
_symmetry_space_group_name_H-M   'P 1'
_cell_length_a   17.58379997
_cell_length_b   17.58379970
_cell_length_c   17.58380000
_cell_angle_alpha   96.82990002
_cell_angle_beta   96.82989991
_cell_angle_gamma   96.82989948
_symmetry_Int_Tables_number   1
_chemical_formula_structural   CuH7(C7O2)2
_chemical_formula_sum   'Cu6 H42 C84 O24'
_cell_volume   5310.79971733
_cell_formula_units_Z   6
loop_
 _symmetry_equiv_pos_site_id
 _symmetry_equiv_pos_as_xyz
  1  'x, y, z'
loop_
 _atom_site_label
 _atom_site_fract_x
 _atom_site_fract_y
 _atom_site_fract_z
 _atom_site_charge
 Cu 0.30717 0.90466 0.90466   0.913722
 Cu 0.90466 0.30717 0.90466   0.913617
 Cu 0.90466 0.90466 0.30717   0.913661
 Cu 0.85178 0.16317 0.85178   0.939868
 Cu 0.85178 0.85178 0.16317   0.939886
 Cu 0.16317 0.85178 0.85178   0.939856
 H 0.2131 0.4881 0.8384   0.094193
 H 0.1836 0.6086 0.8302   0.114453
 H 0.4254 0.5675 0.9271   0.09681
 H 0.3953 0.692 0.9272   0.104203
 H 0.2353 0.3865 0.8965   0.099838
 H 0.1471 0.298 0.8881   0.10778
 H 0.8384 0.2131 0.4881   0.094164
 H 0.8302 0.1836 0.6086   0.114384
 H 0.9271 0.4254 0.5675   0.096773
 H 0.9272 0.3953 0.692   0.10419
 H 0.8965 0.2353 0.3865   0.099831
 H 0.8881 0.1471 0.298   0.107789
 H 0.4881 0.8384 0.2131   0.094183
 H 0.6086 0.8302 0.1836   0.114422
 H 0.5675 0.9271 0.4254   0.096811
 H 0.692 0.9272 0.3953   0.104222
 H 0.3865 0.8965 0.2353   0.099844
 H 0.298 0.8881 0.1471   0.107797
 H 0.4881 0.2131 0.8384   0.094163
 H 0.6086 0.1836 0.8302   0.114388
 H 0.5675 0.4254 0.9271   0.096784
 H 0.692 0.3953 0.9272   0.104194
 H 0.3865 0.2353 0.8965   0.099832
 H 0.298 0.1471 0.8881   0.107777
 H 0.2131 0.8384 0.4881   0.094185
 H 0.1836 0.8302 0.6086   0.114452
 H 0.4254 0.9271 0.5675   0.096813
 H 0.3953 0.9272 0.692   0.104215
 H 0.2353 0.8965 0.3865   0.099845
 H 0.1471 0.8881 0.298   0.107796
 H 0.8384 0.4881 0.2131   0.09419
 H 0.8302 0.6086 0.1836   0.114416
 H 0.9271 0.5675 0.4254   0.096792
 H 0.9272 0.692 0.3953   0.104203
 H 0.8965 0.3865 0.2353   0.099833
 H 0.8881 0.298 0.1471   0.10779
 H 0.45385 0.45385 0.8836   0.096193
 H 0.07015 0.07015 0.8737   0.128271
 H 0.8836 0.45385 0.45385   0.096186
 H 0.8737 0.07015 0.07015   0.128292
 H 0.45385 0.8836 0.45385   0.096204
 H 0.07015 0.8737 0.07015   0.128328
 C 0.2873 0.664 0.8829   -0.117792
 C 0.2514 0.5295 0.8571   -0.130342
 C 0.2323 0.6015 0.8528   -0.044083
 C 0.3238 0.5117 0.8874   0.059159
 C 0.3748 0.574 0.9097   -0.132146
 C 0.3569 0.6506 0.9089   -0.043113
 C 0.271 0.7461 0.8807   0.666576
 C 0.0142 0.2035 0.8803   0.669441
 C 0.343 0.4326 0.8867   0.056206
 C 0.2848 0.3739 0.8929   -0.145768
 C 0.0978 0.191 0.8842   -0.125932
 C 0.1571 0.2472 0.8881   -0.037452
 C 0.8829 0.2873 0.664   -0.117806
 C 0.8571 0.2514 0.5295   -0.130371
 C 0.8528 0.2323 0.6015   -0.044098
 C 0.8874 0.3238 0.5117   0.059137
 C 0.9097 0.3748 0.574   -0.132155
 C 0.9089 0.3569 0.6506   -0.043119
 C 0.8807 0.271 0.7461   0.666585
 C 0.8803 0.0142 0.2035   0.669425
 C 0.8867 0.343 0.4326   0.056214
 C 0.8929 0.2848 0.3739   -0.145768
 C 0.8842 0.0978 0.191   -0.12594
 C 0.8881 0.1571 0.2472   -0.037467
 C 0.664 0.8829 0.2873   -0.117772
 C 0.5295 0.8571 0.2514   -0.130353
 C 0.6015 0.8528 0.2323   -0.044081
 C 0.5117 0.8874 0.3238   0.05915
 C 0.574 0.9097 0.3748   -0.132129
 C 0.6506 0.9089 0.3569   -0.0431
 C 0.7461 0.8807 0.271   0.666572
 C 0.2035 0.8803 0.0142   0.669424
 C 0.4326 0.8867 0.343   0.05622
 C 0.3739 0.8929 0.2848   -0.145761
 C 0.191 0.8842 0.0978   -0.125907
 C 0.2472 0.8881 0.1571   -0.037466
 C 0.664 0.2873 0.8829   -0.117803
 C 0.5295 0.2514 0.8571   -0.130362
 C 0.6015 0.2323 0.8528   -0.044092
 C 0.5117 0.3238 0.8874   0.05914
 C 0.574 0.3748 0.9097   -0.132143
 C 0.6506 0.3569 0.9089   -0.04311
 C 0.7461 0.271 0.8807   0.666587
 C 0.2035 0.0142 0.8803   0.669441
 C 0.4326 0.343 0.8867   0.056217
 C 0.3739 0.2848 0.8929   -0.145768
 C 0.191 0.0978 0.8842   -0.126003
 C 0.2472 0.1571 0.8881   -0.037443
 C 0.2873 0.8829 0.664   -0.117763
 C 0.2514 0.8571 0.5295   -0.130348
 C 0.2323 0.8528 0.6015   -0.044076
 C 0.3238 0.8874 0.5117   0.059145
 C 0.3748 0.9097 0.574   -0.13213
 C 0.3569 0.9089 0.6506   -0.043102
 C 0.271 0.8807 0.7461   0.666572
 C 0.0142 0.8803 0.2035   0.669426
 C 0.343 0.8867 0.4326   0.056223
 C 0.2848 0.8929 0.3739   -0.145758
 C 0.0978 0.8842 0.191   -0.125912
 C 0.1571 0.8881 0.2472   -0.037461
 C 0.8829 0.664 0.2873   -0.117807
 C 0.8571 0.5295 0.2514   -0.130353
 C 0.8528 0.6015 0.2323   -0.044092
 C 0.8874 0.5117 0.3238   0.059158
 C 0.9097 0.574 0.3748   -0.132154
 C 0.9089 0.6506 0.3569   -0.043118
 C 0.8807 0.7461 0.271   0.666574
 C 0.8803 0.2035 0.0142   0.669432
 C 0.8867 0.4326 0.343   0.0562
 C 0.8929 0.3739 0.2848   -0.145768
 C 0.8842 0.191 0.0978   -0.125921
 C 0.8881 0.2472 0.1571   -0.037458
 C 0.41425 0.41425 0.8854   -0.134538
 C 0.29655 0.29655 0.894   0.035783
 C 0.23235 0.23235 0.8922   0.015716
 C 0.11049 0.1105 0.87941   -0.036508
 C 0.8854 0.41425 0.41425   -0.134539
 C 0.894 0.29655 0.29655   0.035775
 C 0.8922 0.23235 0.23235   0.015738
 C 0.87941 0.11049 0.11049   -0.036584
 C 0.41425 0.8854 0.41425   -0.134533
 C 0.29655 0.894 0.29655   0.035788
 C 0.23235 0.8922 0.23235   0.015737
 C 0.11049 0.87941 0.11049   -0.036554
 O 0.3233 0.7996 0.9012   -0.54022
 O 0.9598 0.1491 0.8571   -0.563034
 O 0.00628 0.27395 0.90072   -0.57453
 O 0.19869 0.75245 0.85642   -0.59346
 O 0.9012 0.3233 0.7996   -0.540267
 O 0.8571 0.9598 0.1491   -0.563
 O 0.90072 0.00628 0.27395   -0.574479
 O 0.85642 0.19869 0.75245   -0.593437
 O 0.7996 0.9012 0.3233   -0.540216
 O 0.1491 0.8571 0.9598   -0.563025
 O 0.27395 0.90072 0.00628   -0.574465
 O 0.75245 0.85642 0.19869   -0.593406
 O 0.7996 0.3233 0.9012   -0.540264
 O 0.1491 0.9598 0.8571   -0.563037
 O 0.27395 0.00628 0.90072   -0.574467
 O 0.75245 0.19869 0.85642   -0.593433
 O 0.3233 0.9012 0.7996   -0.54021
 O 0.9598 0.8571 0.1491   -0.562997
 O 0.00628 0.90072 0.27395   -0.574478
 O 0.19869 0.85642 0.75245   -0.593452
 O 0.9012 0.7996 0.3233   -0.540232
 O 0.8571 0.1491 0.9598   -0.563029
 O 0.90072 0.27395 0.00628   -0.574528
 O 0.85642 0.75245 0.19869   -0.593417
