{'_ref': 'TBD', '_srcid': 'CAKYAQ_clean', 'submitters': [{'name': 'Dalar Nazarian Jeff Camp and David Sholl', 'email': 'dalar@gatech.edu jcamp6@gatech.edu'}], '_method': 'VASP DFT with PBE;DDEC'}
data_ZnH2C6SO4
_symmetry_space_group_name_H-M   'P 1'
_cell_length_a   10.21510000
_cell_length_b   13.11700000
_cell_length_c   14.13600000
_cell_angle_alpha   90.00000000
_cell_angle_beta   90.00000000
_cell_angle_gamma   90.00000000
_symmetry_Int_Tables_number   1
_chemical_formula_structural   ZnH2C6SO4
_chemical_formula_sum   'Zn8 H16 C48 S8 O32'
_cell_volume   1894.10337327
_cell_formula_units_Z   8
loop_
 _symmetry_equiv_pos_site_id
 _symmetry_equiv_pos_as_xyz
  1  'x, y, z'
loop_
 _atom_site_label
 _atom_site_fract_x
 _atom_site_fract_y
 _atom_site_fract_z
 _atom_site_charge
 Zn 0.11409 0.93077 0.28564   1.045705
 Zn 0.09206 0.23357 0.27964   1.111187
 Zn 0.38591 0.06923 0.78564   1.045704
 Zn 0.40794 0.76643 0.77964   1.111186
 Zn 0.88591 0.43077 0.21436   1.045705
 Zn 0.90794 0.73357 0.22036   1.111187
 Zn 0.61409 0.56923 0.71436   1.045704
 Zn 0.59206 0.26643 0.72036   1.111186
 H 0.5236 0.9549 0.3006   0.107693
 H 0.75 0.0104 0.2915   0.108913
 H 0.6735 0.7829 0.4507   0.118774
 H 0.518 0.8637 0.5536   0.124315
 H 0.9764 0.0451 0.8006   0.107693
 H 0.75 0.9896 0.7915   0.108913
 H 0.8265 0.2171 0.9507   0.118774
 H 0.982 0.1363 0.0536   0.124315
 H 0.4764 0.4549 0.1994   0.107693
 H 0.25 0.5104 0.2085   0.108913
 H 0.3265 0.2829 0.0493   0.118774
 H 0.482 0.3637 0.9464   0.124315
 H 0.0236 0.5451 0.6994   0.107693
 H 0.25 0.4896 0.7085   0.108913
 H 0.1735 0.7171 0.5493   0.118774
 H 0.018 0.6363 0.4464   0.124315
 C 0.4631 0.0951 0.2619   -0.212458
 C 0.5486 0.0205 0.2837   -0.033749
 C 0.6791 0.0525 0.278   -0.051026
 C 0.6914 0.1509 0.2509   -0.207222
 C 0.3181 0.0931 0.2661   0.740628
 C 0.8109 0.2126 0.2438   0.739376
 C 0.7951 0.9044 0.4613   -0.209868
 C 0.6863 0.8471 0.4771   -0.040683
 C 0.5971 0.8934 0.5363   -0.031847
 C 0.6359 0.9865 0.5667   -0.222413
 C 0.9045 0.8843 0.3968   0.717698
 C 0.572 0.057 0.6343   0.74856
 C 0.0369 0.9049 0.7619   -0.212458
 C 0.9514 0.9795 0.7837   -0.033749
 C 0.8209 0.9475 0.778   -0.051026
 C 0.8086 0.8491 0.7509   -0.207222
 C 0.1819 0.9069 0.7661   0.740628
 C 0.6891 0.7874 0.7438   0.739376
 C 0.7049 0.0956 0.9613   -0.209868
 C 0.8137 0.1529 0.9771   -0.040683
 C 0.9029 0.1066 0.0363   -0.031847
 C 0.8641 0.0135 0.0667   -0.222413
 C 0.5955 0.1157 0.8968   0.717698
 C 0.928 0.943 0.1343   0.74856
 C 0.5369 0.5951 0.2381   -0.212458
 C 0.4514 0.5205 0.2163   -0.033749
 C 0.3209 0.5525 0.222   -0.051026
 C 0.3086 0.6509 0.2491   -0.207222
 C 0.6819 0.5931 0.2339   0.740628
 C 0.1891 0.7126 0.2562   0.739376
 C 0.2049 0.4044 0.0387   -0.209868
 C 0.3137 0.3471 0.0229   -0.040683
 C 0.4029 0.3934 0.9637   -0.031847
 C 0.3641 0.4865 0.9333   -0.222413
 C 0.0955 0.3843 0.1032   0.717698
 C 0.428 0.557 0.8657   0.74856
 C 0.9631 0.4049 0.7381   -0.212458
 C 0.0486 0.4795 0.7163   -0.033749
 C 0.1791 0.4475 0.722   -0.051026
 C 0.1914 0.3491 0.7491   -0.207222
 C 0.8181 0.4069 0.7339   0.740628
 C 0.3109 0.2874 0.7562   0.739376
 C 0.2951 0.5956 0.5387   -0.209868
 C 0.1863 0.6529 0.5229   -0.040683
 C 0.0971 0.6066 0.4637   -0.031847
 C 0.1359 0.5135 0.4333   -0.222413
 C 0.4045 0.6157 0.6032   0.717698
 C 0.072 0.443 0.3657   0.74856
 S 0.54148 0.20639 0.2313   0.178337
 S 0.78631 0.01723 0.52215   0.182469
 S 0.95852 0.79361 0.7313   0.178337
 S 0.71369 0.98277 0.02215   0.182469
 S 0.45852 0.70639 0.2687   0.178336
 S 0.21369 0.51723 0.97785   0.182468
 S 0.04148 0.29361 0.7687   0.178337
 S 0.28631 0.48277 0.47785   0.182469
 O 0.2704 0.0108 0.2969   -0.599015
 O 0.7944 0.3025 0.2139   -0.621166
 O 0.989 0.9544 0.3864   -0.611021
 O 0.4629 0.0304 0.6655   -0.598474
 O 0.2581 0.1706 0.2424   -0.592558
 O 0.9095 0.8005 0.3558   -0.630485
 O 0.6321 0.1372 0.6558   -0.64604
 O 0.917 0.1743 0.2694   -0.615629
 O 0.2296 0.9892 0.7969   -0.599014
 O 0.7056 0.6975 0.7139   -0.621166
 O 0.511 0.0456 0.8864   -0.611021
 O 0.0371 0.9696 0.1655   -0.598474
 O 0.2419 0.8294 0.7424   -0.592558
 O 0.5905 0.1995 0.8558   -0.630485
 O 0.8679 0.8628 0.1558   -0.64604
 O 0.583 0.8257 0.7694   -0.615629
 O 0.7296 0.5108 0.2031   -0.599015
 O 0.2056 0.8025 0.2861   -0.621166
 O 0.011 0.4544 0.1136   -0.611021
 O 0.5371 0.5304 0.8345   -0.598474
 O 0.7419 0.6706 0.2576   -0.592558
 O 0.0905 0.3005 0.1442   -0.630485
 O 0.3679 0.6372 0.8442   -0.64604
 O 0.083 0.6743 0.2306   -0.615629
 O 0.7704 0.4892 0.7031   -0.599014
 O 0.2944 0.1975 0.7861   -0.621166
 O 0.489 0.5456 0.6136   -0.611021
 O 0.9629 0.4696 0.3345   -0.598474
 O 0.7581 0.3294 0.7576   -0.592558
 O 0.4095 0.6995 0.6442   -0.630485
 O 0.1321 0.3628 0.3442   -0.64604
 O 0.417 0.3257 0.7306   -0.615629
