{'_ref': 'TBD', '_srcid': 'CAKYAQ_clean', 'submitters': [{'name': 'Dalar Nazarian Jeff Camp and David Sholl', 'email': 'dalar@gatech.edu jcamp6@gatech.edu'}], '_method': 'VASP DFT with PBE;DDEC'}
data_VH4C8O5
_symmetry_space_group_name_H-M   'P 1'
_cell_length_a   6.86060000
_cell_length_b   21.20329965
_cell_length_c   21.20330000
_cell_angle_alpha   119.97749990
_cell_angle_beta   90.00000000
_cell_angle_gamma   90.00000000
_symmetry_Int_Tables_number   1
_chemical_formula_structural   VH4C8O5
_chemical_formula_sum   'V6 H24 C48 O30'
_cell_volume   2671.76379765
_cell_formula_units_Z   6
loop_
 _symmetry_equiv_pos_site_id
 _symmetry_equiv_pos_as_xyz
  1  'x, y, z'
loop_
 _atom_site_label
 _atom_site_fract_x
 _atom_site_fract_y
 _atom_site_fract_z
 _atom_site_charge
 V 0.5 0.0 0.0   2.029559
 V 0.0 0.0 0.0   2.029558
 V 0.5 0.5 0.0   1.806986
 V 0.0 0.5 0.0   1.806987
 V 0.0 0.0 0.5   1.806985
 V 0.5 0.0 0.5   1.806987
 H 0.5393 0.3215 0.7841   0.104217
 H 0.9622 0.6766 0.9616   0.108654
 H 0.9598 0.7851 0.9623   0.117493
 H 0.0393 0.6785 0.2159   0.104217
 H 0.4622 0.3234 0.0384   0.108654
 H 0.4598 0.2149 0.0377   0.117493
 H 0.9607 0.2159 0.6785   0.104217
 H 0.5378 0.0384 0.3234   0.108654
 H 0.5402 0.0377 0.2149   0.117493
 H 0.4607 0.7841 0.3215   0.104217
 H 0.0378 0.9616 0.6766   0.108654
 H 0.0402 0.9623 0.7851   0.117493
 H 0.4607 0.6785 0.2159   0.104213
 H 0.0378 0.3234 0.0384   0.108655
 H 0.0402 0.2149 0.0377   0.117493
 H 0.9607 0.3215 0.7841   0.104213
 H 0.5378 0.6766 0.9616   0.108655
 H 0.5402 0.7851 0.9623   0.117493
 H 0.0393 0.7841 0.3215   0.104213
 H 0.4622 0.9616 0.6766   0.108655
 H 0.4598 0.9623 0.7851   0.117493
 H 0.5393 0.2159 0.6785   0.104213
 H 0.9622 0.0384 0.3234   0.108655
 H 0.9598 0.0377 0.2149   0.117493
 C 0.4214 0.29931 0.76299   -0.053391
 C 0.0792 0.6994 0.96302   -0.048165
 C 0.0767 0.76322 0.96298   -0.05756
 C 0.9214 0.70069 0.23701   -0.053391
 C 0.5792 0.3006 0.03698   -0.048165
 C 0.5767 0.23678 0.03702   -0.05756
 C 0.0786 0.23701 0.70069   -0.053391
 C 0.4208 0.03698 0.3006   -0.048165
 C 0.4233 0.03702 0.23678   -0.05756
 C 0.5786 0.76299 0.29931   -0.053391
 C 0.9208 0.96302 0.6994   -0.048165
 C 0.9233 0.96298 0.76322   -0.05756
 C 0.5786 0.70069 0.23701   -0.053347
 C 0.9208 0.3006 0.03698   -0.048165
 C 0.9233 0.23678 0.03702   -0.05756
 C 0.0786 0.29931 0.76299   -0.053347
 C 0.4208 0.6994 0.96302   -0.048165
 C 0.4233 0.76322 0.96298   -0.05756
 C 0.9214 0.76299 0.29931   -0.053347
 C 0.5792 0.96302 0.6994   -0.048165
 C 0.5767 0.96298 0.76322   -0.05756
 C 0.4214 0.23701 0.70069   -0.053347
 C 0.0792 0.03698 0.3006   -0.048165
 C 0.0767 0.03702 0.23678   -0.05756
 C 0.25 0.33156 0.7969   -0.13716
 C 0.25 0.60463 0.98095   0.68836
 C 0.25 0.40224 0.8775   0.734212
 C 0.25 0.66828 0.96502   -0.107889
 C 0.25 0.87009 0.96937   0.705723
 C 0.25 0.79426 0.96388   -0.111295
 C 0.75 0.66844 0.2031   -0.13716
 C 0.75 0.39537 0.01905   0.68836
 C 0.75 0.59776 0.1225   0.734212
 C 0.75 0.33172 0.03498   -0.107889
 C 0.75 0.12991 0.03063   0.705723
 C 0.75 0.20574 0.03612   -0.111295
 C 0.25 0.2031 0.66844   -0.13716
 C 0.25 0.01905 0.39537   0.688361
 C 0.25 0.1225 0.59776   0.734212
 C 0.25 0.03498 0.33172   -0.10789
 C 0.25 0.03063 0.12991   0.705722
 C 0.25 0.03612 0.20574   -0.111295
 C 0.75 0.7969 0.33156   -0.13716
 C 0.75 0.98095 0.60463   0.688361
 C 0.75 0.8775 0.40224   0.734212
 C 0.75 0.96502 0.66828   -0.10789
 C 0.75 0.96937 0.87009   0.705722
 C 0.75 0.96388 0.79426   -0.111295
 O 0.4096 0.425 0.90166   -0.601412
 O 0.4159 0.90023 0.97463   -0.635677
 O 0.4151 0.57611 0.97761   -0.597323
 O 0.9096 0.575 0.09834   -0.601412
 O 0.9159 0.09977 0.02537   -0.635677
 O 0.9151 0.42389 0.02239   -0.597323
 O 0.0904 0.09834 0.575   -0.601412
 O 0.0841 0.02537 0.09977   -0.635677
 O 0.0849 0.02239 0.42389   -0.597323
 O 0.5904 0.90166 0.425   -0.601412
 O 0.5841 0.97463 0.90023   -0.635677
 O 0.5849 0.97761 0.57611   -0.597323
 O 0.5904 0.575 0.09834   -0.601413
 O 0.5841 0.09977 0.02537   -0.635677
 O 0.5849 0.42389 0.02239   -0.597323
 O 0.0904 0.425 0.90166   -0.601413
 O 0.0841 0.90023 0.97463   -0.635677
 O 0.0849 0.57611 0.97761   -0.597323
 O 0.9096 0.90166 0.425   -0.601413
 O 0.9159 0.97463 0.90023   -0.635677
 O 0.9151 0.97761 0.57611   -0.597323
 O 0.4096 0.09834 0.575   -0.601413
 O 0.4159 0.02537 0.09977   -0.635677
 O 0.4151 0.02239 0.42389   -0.597323
 O 0.75 0.98244 0.01756   -0.90931
 O 0.25 0.01756 0.98244   -0.90931
 O 0.75 0.5013 0.95862   -0.812774
 O 0.25 0.4987 0.04138   -0.812774
 O 0.75 0.04138 0.4987   -0.812774
 O 0.25 0.95862 0.5013   -0.812774
