{'_ref': 'TBD', '_srcid': 'CAKYAQ_clean', 'submitters': [{'name': 'Dalar Nazarian Jeff Camp and David Sholl', 'email': 'dalar@gatech.edu jcamp6@gatech.edu'}], '_method': 'VASP DFT with PBE;DDEC'}
data_Na3H31C30S7O19
_symmetry_space_group_name_H-M   'P 1'
_cell_length_a   9.99800040
_cell_length_b   16.21600047
_cell_length_c   16.66300000
_cell_angle_alpha   94.89900043
_cell_angle_beta   102.40999925
_cell_angle_gamma   96.10099989
_symmetry_Int_Tables_number   1
_chemical_formula_structural   Na3H31C30S7O19
_chemical_formula_sum   'Na6 H62 C60 S14 O38'
_cell_volume   2607.11898099
_cell_formula_units_Z   2
loop_
 _symmetry_equiv_pos_site_id
 _symmetry_equiv_pos_as_xyz
  1  'x, y, z'
loop_
 _atom_site_label
 _atom_site_fract_x
 _atom_site_fract_y
 _atom_site_fract_z
 _atom_site_charge
 Na 0.1106 0.9462 0.4525   0.910015
 Na 0.4727 0.104 0.5418   0.926921
 Na 0.252 0.1561 0.8632   0.931859
 Na 0.8894 0.0538 0.5475   0.910015
 Na 0.5273 0.896 0.4582   0.926921
 Na 0.748 0.8439 0.1368   0.931859
 H 0.717 0.5016 0.1567   0.106911
 H 0.3442 0.5855 0.1532   0.112299
 H 0.9415 0.2461 0.2339   0.114831
 H 0.1184 0.4834 0.2058   0.116117
 H 0.2887 0.9489 0.1171   0.105496
 H 0.9599 0.0422 0.1825   0.093761
 H 0.5042 0.0433 0.1709   0.118215
 H 0.7133 0.2874 0.2081   0.109291
 H 0.9361 0.5076 0.2814   0.128238
 H 0.8389 0.4385 0.3068   0.123466
 H 0.9542 0.5023 0.3873   0.083342
 H 0.1658 0.492 0.4138   0.110336
 H 0.2492 0.4279 0.3809   0.110343
 H 0.2066 0.501 0.3309   0.123958
 H 0.9213 0.3131 0.3593   0.118928
 H 0.0262 0.3762 0.4405   0.099197
 H 0.0769 0.3023 0.3785   0.099467
 H 0.8438 0.2573 0.905   0.127166
 H 0.8791 0.3576 0.9384   0.071463
 H 0.1262 0.3341 0.8117   0.406024
 H 0.2621 0.3527 0.9807   0.3481
 H 0.0704 0.1875 0.9857   0.339902
 H 0.4813 0.2606 0.9589   0.352983
 H 0.8947 0.8818 0.5479   0.483192
 H 0.0367 0.9139 0.6119   0.48374
 H 0.29 0.0021 0.6029   0.450813
 H 0.2233 0.0661 0.5857   0.462552
 H 0.3573 0.0052 0.3753   0.461919
 H 0.471 0.0491 0.3739   0.458751
 H 0.2626 0.8027 0.447   0.466224
 H 0.2938 0.8207 0.5302   0.407702
 H 0.283 0.4984 0.8433   0.106911
 H 0.6558 0.4145 0.8468   0.112299
 H 0.0585 0.7539 0.7661   0.114831
 H 0.8816 0.5166 0.7942   0.116117
 H 0.7113 0.0511 0.8829   0.105496
 H 0.0401 0.9578 0.8175   0.093761
 H 0.4958 0.9567 0.8291   0.118215
 H 0.2867 0.7126 0.7919   0.109291
 H 0.0639 0.4924 0.7186   0.128238
 H 0.1611 0.5615 0.6932   0.123466
 H 0.0458 0.4977 0.6127   0.083341
 H 0.8342 0.508 0.5862   0.110334
 H 0.7508 0.5721 0.6191   0.110342
 H 0.7934 0.499 0.6691   0.123957
 H 0.0787 0.6869 0.6407   0.118928
 H 0.9738 0.6238 0.5595   0.099197
 H 0.9231 0.6977 0.6215   0.099468
 H 0.1562 0.7427 0.095   0.127166
 H 0.1209 0.6424 0.0616   0.071463
 H 0.8738 0.6659 0.1883   0.406024
 H 0.7379 0.6473 0.0193   0.3481
 H 0.9296 0.8125 0.0143   0.339902
 H 0.5187 0.7394 0.0411   0.352983
 H 0.1053 0.1182 0.4521   0.483192
 H 0.9633 0.0861 0.3881   0.48374
 H 0.71 0.9979 0.3971   0.450813
 H 0.7767 0.9339 0.4143   0.462552
 H 0.6427 0.9948 0.6247   0.461919
 H 0.529 0.9509 0.6261   0.458751
 H 0.7374 0.1973 0.553   0.466224
 H 0.7062 0.1793 0.4698   0.407701
 C 0.4061 0.4164 0.0579   0.284078
 C 0.5491 0.4252 0.088   -0.096686
 C 0.6161 0.4964 0.1404   -0.020132
 C 0.5396 0.5577 0.163   -0.212259
 C 0.398 0.5488 0.1346   0.009971
 C 0.3303 0.4786 0.0813   -0.126189
 C 0.03 0.3196 0.0701   0.168304
 C 0.9827 0.2651 0.1212   -0.039161
 C 0.9908 0.2926 0.2039   -0.15261
 C 0.0399 0.3756 0.2359   0.038093
 C 0.0856 0.4287 0.1835   -0.097897
 C 0.0842 0.4014 0.1021   -0.044475
 C 0.1269 0.0949 0.0456   0.311192
 C 0.2225 0.0377 0.0579   -0.080344
 C 0.2148 0.9798 0.1146   -0.013905
 C 0.1158 0.9811 0.1607   -0.26192
 C 0.0233 0.0399 0.1514   0.017553
 C 0.0283 0.0964 0.0946   -0.111403
 C 0.512 0.1944 0.0376   0.291886
 C 0.4753 0.1186 0.0663   -0.043615
 C 0.5325 0.1046 0.1468   -0.059269
 C 0.6226 0.1667 0.1994   -0.23178
 C 0.6547 0.2437 0.1727   0.006385
 C 0.5999 0.2574 0.0918   -0.104682
 C 0.9203 0.3088 0.9263   -0.115978
 C 0.972 0.3293 0.8513   0.657282
 C 0.0407 0.41 0.3246   0.220162
 C 0.9296 0.4679 0.3208   -0.364529
 C 0.178 0.4618 0.3663   -0.368561
 C 0.012 0.3424 0.3781   -0.390644
 C 0.5939 0.5836 0.9421   0.284078
 C 0.4509 0.5748 0.912   -0.096686
 C 0.3839 0.5036 0.8596   -0.020132
 C 0.4604 0.4423 0.837   -0.212259
 C 0.602 0.4512 0.8654   0.009971
 C 0.6697 0.5214 0.9187   -0.126189
 C 0.97 0.6804 0.9299   0.168304
 C 0.0173 0.7349 0.8788   -0.039161
 C 0.0092 0.7074 0.7961   -0.15261
 C 0.9601 0.6244 0.7641   0.038093
 C 0.9144 0.5713 0.8165   -0.097898
 C 0.9158 0.5986 0.8979   -0.044475
 C 0.8731 0.9051 0.9544   0.311192
 C 0.7775 0.9623 0.9421   -0.080344
 C 0.7852 0.0202 0.8854   -0.013905
 C 0.8842 0.0189 0.8393   -0.26192
 C 0.9767 0.9601 0.8486   0.017553
 C 0.9717 0.9036 0.9054   -0.111403
 C 0.488 0.8056 0.9624   0.291886
 C 0.5247 0.8814 0.9337   -0.043615
 C 0.4675 0.8954 0.8532   -0.059269
 C 0.3774 0.8333 0.8006   -0.23178
 C 0.3453 0.7563 0.8273   0.006385
 C 0.4001 0.7426 0.9082   -0.104682
 C 0.0797 0.6912 0.0737   -0.115978
 C 0.028 0.6707 0.1487   0.657281
 C 0.9593 0.59 0.6754   0.220162
 C 0.0704 0.5321 0.6792   -0.364529
 C 0.822 0.5382 0.6337   -0.36856
 C 0.988 0.6576 0.6219   -0.390645
 S 0.1508 0.47049 0.03755   -0.029734
 S 0.8967 0.16352 0.07665   -0.034483
 S 0.3539 0.03806 0.000839999999997   -0.096649
 S 0.6531 0.35281 0.05419   -0.007856
 S 0.109 0.90879 0.23485   1.437154
 S 0.703 0.1463 0.30027   1.352922
 S 0.6233 0.65032 0.22691   1.375991
 S 0.8492 0.52951 0.96245   -0.029735
 S 0.1033 0.83648 0.92335   -0.034483
 S 0.6461 0.96194 0.99916   -0.09665
 S 0.3469 0.64719 0.94581   -0.007856
 S 0.891 0.09121 0.76515   1.437154
 S 0.297 0.8537 0.69973   1.352922
 S 0.3767 0.34968 0.77309   1.375991
 O 0.3463 0.3476 0.0068   -0.443746
 O 0.0319 0.291 0.9899   -0.226511
 O 0.1376 0.148 0.9885   -0.509745
 O 0.4619 0.2025 0.9569   -0.518152
 O 0.8981 0.3542 0.7936   -0.507417
 O 0.1015 0.3174 0.8555   -0.546794
 O 0.9638 0.8756 0.2215   -0.799895
 O 0.1602 0.9555 0.3165   -0.811422
 O 0.1947 0.8463 0.2169   -0.645862
 O 0.6252 0.0683 0.3134   -0.728443
 O 0.689 0.2157 0.3564   -0.653358
 O 0.8444 0.1356 0.2983   -0.662095
 O 0.7662 0.6347 0.2572   -0.694424
 O 0.5508 0.6615 0.2922   -0.690888
 O 0.6152 0.717 0.1744   -0.759589
 O 0.9758 0.9182 0.5622   -1.003245
 O 0.2649 0.0317 0.5643   -0.943974
 O 0.4302 0.0229 0.4073   -0.978447
 O 0.2922 0.848 0.4799   -0.905718
 O 0.6537 0.6524 0.9932   -0.443746
 O 0.9681 0.709 0.0101   -0.226511
 O 0.8624 0.852 0.0115   -0.509745
 O 0.5381 0.7975 0.0431   -0.518152
 O 0.1019 0.6458 0.2064   -0.507416
 O 0.8985 0.6826 0.1445   -0.546794
 O 0.0362 0.1244 0.7785   -0.799895
 O 0.8398 0.0445 0.6835   -0.811422
 O 0.8053 0.1537 0.7831   -0.645862
 O 0.3748 0.9317 0.6866   -0.728443
 O 0.311 0.7843 0.6436   -0.653358
 O 0.1556 0.8644 0.7017   -0.662095
 O 0.2338 0.3653 0.7428   -0.694424
 O 0.4492 0.3385 0.7078   -0.690888
 O 0.3848 0.283 0.8256   -0.759589
 O 0.0242 0.0818 0.4378   -1.003245
 O 0.7351 0.9683 0.4357   -0.943974
 O 0.5698 0.9771 0.5927   -0.978447
 O 0.7078 0.152 0.5201   -0.905718
