{'_ref': 'TBD', '_srcid': 'CAKYAQ_clean', 'submitters': [{'name': 'Dalar Nazarian Jeff Camp and David Sholl', 'email': 'dalar@gatech.edu jcamp6@gatech.edu'}], '_method': 'VASP DFT with PBE;DDEC'}
data_CuC7N3O4
_symmetry_space_group_name_H-M   'P 1'
_cell_length_a   7.46500000
_cell_length_b   9.62200000
_cell_length_c   16.04900000
_cell_angle_alpha   90.00000000
_cell_angle_beta   90.00000000
_cell_angle_gamma   90.00000000
_symmetry_Int_Tables_number   1
_chemical_formula_structural   CuC7N3O4
_chemical_formula_sum   'Cu4 C28 N12 O16'
_cell_volume   1152.77126327
_cell_formula_units_Z   4
loop_
 _symmetry_equiv_pos_site_id
 _symmetry_equiv_pos_as_xyz
  1  'x, y, z'
loop_
 _atom_site_label
 _atom_site_fract_x
 _atom_site_fract_y
 _atom_site_fract_z
 _atom_site_charge
 Cu 0.2402 0.1583 0.6656   0.946522
 Cu 0.2598 0.6583 0.3344   0.946522
 Cu 0.7402 0.8417 0.8344   0.946522
 Cu 0.7598 0.3417 0.1656   0.946522
 C 0.4019 0.9066 0.7126   0.647596
 C 0.2889 0.8625 0.6381   0.047893
 C 0.3964 0.8394 0.5605   -0.037375
 C 0.3039 0.771 0.49   0.616163
 C 0.3796 0.4474 0.6901   0.314344
 C 0.426 0.4597 0.8227   0.112
 C 0.3741 0.3312 0.8056   0.176409
 C 0.0981 0.4066 0.2874   0.647596
 C 0.2111 0.3625 0.3619   0.047893
 C 0.1036 0.3394 0.4395   -0.037375
 C 0.1961 0.271 0.51   0.616163
 C 0.1204 0.9474 0.3099   0.314344
 C 0.074 0.9597 0.1773   0.112
 C 0.1259 0.8312 0.1944   0.176409
 C 0.9019 0.0934 0.7874   0.647596
 C 0.7889 0.1375 0.8619   0.047894
 C 0.8964 0.1606 0.9395   -0.03738
 C 0.8039 0.229 0.01   0.616163
 C 0.8796 0.5526 0.8099   0.314343
 C 0.926 0.5403 0.6773   0.111996
 C 0.8741 0.6688 0.6944   0.176408
 C 0.5981 0.5934 0.2126   0.647596
 C 0.7111 0.6375 0.1381   0.047894
 C 0.6036 0.6606 0.0605   -0.03738
 C 0.6961 0.729 0.99   0.616164
 C 0.6204 0.0526 0.1901   0.314343
 C 0.574 0.0403 0.3227   0.111996
 C 0.6259 0.1688 0.3056   0.176408
 N 0.1479 0.976 0.6269   -0.256546
 N 0.3424 0.3238 0.7216   -0.405717
 N 0.4317 0.5357 0.7516   -0.233813
 N 0.3521 0.476 0.3731   -0.256546
 N 0.1576 0.8238 0.2784   -0.405717
 N 0.0683 0.0357 0.2484   -0.233813
 N 0.6479 0.024 0.8731   -0.256546
 N 0.8424 0.6762 0.7784   -0.405716
 N 0.9317 0.4643 0.7484   -0.233812
 N 0.8521 0.524 0.1269   -0.256546
 N 0.6576 0.1762 0.2216   -0.405716
 N 0.5683 0.9643 0.2516   -0.233812
 O 0.4968 0.8157 0.741   -0.469086
 O 0.4012 0.0323 0.7298   -0.495604
 O 0.3754 0.7719 0.4187   -0.499135
 O 0.1633 0.7065 0.5019   -0.463647
 O 0.0032 0.3157 0.259   -0.469086
 O 0.0988 0.5323 0.2702   -0.495604
 O 0.1246 0.2719 0.5813   -0.499135
 O 0.3367 0.2065 0.4981   -0.463647
 O 0.9968 0.1843 0.759   -0.469086
 O 0.9012 0.9677 0.7702   -0.495604
 O 0.8754 0.2281 0.0813   -0.499135
 O 0.6633 0.2935 0.9981   -0.463647
 O 0.5032 0.6843 0.241   -0.469086
 O 0.5988 0.4677 0.2298   -0.495604
 O 0.6246 0.7281 0.9187   -0.499135
 O 0.8367 0.7935 0.0019   -0.463647
