{'_ref': 'TBD', '_srcid': 'CAKYAQ_clean', 'submitters': [{'name': 'Dalar Nazarian Jeff Camp and David Sholl', 'email': 'dalar@gatech.edu jcamp6@gatech.edu'}], '_method': 'VASP DFT with PBE;DDEC'}
data_MnH16(C17N5)2
_symmetry_space_group_name_H-M   'P 1'
_cell_length_a   11.61600000
_cell_length_b   12.50300000
_cell_length_c   14.89100000
_cell_angle_alpha   90.00000000
_cell_angle_beta   90.00000000
_cell_angle_gamma   90.00000000
_symmetry_Int_Tables_number   1
_chemical_formula_structural   MnH16(C17N5)2
_chemical_formula_sum   'Mn2 H32 C68 N20'
_cell_volume   2162.69212157
_cell_formula_units_Z   2
loop_
 _symmetry_equiv_pos_site_id
 _symmetry_equiv_pos_as_xyz
  1  'x, y, z'
loop_
 _atom_site_label
 _atom_site_fract_x
 _atom_site_fract_y
 _atom_site_fract_z
 _atom_site_charge
 Mn 0.5 0.5 0.25   0.581454
 Mn 0.5 0.5 0.75   0.581451
 H 0.3006 0.7826 0.3641   0.112124
 H 0.1635 0.918 0.3648   0.104584
 H 0.286 0.6519 0.2187   0.086165
 H 0.0867 0.6571 0.2192   0.12827
 H 0.6994 0.2174 0.3641   0.112124
 H 0.8365 0.082 0.3648   0.104584
 H 0.714 0.3481 0.2187   0.086165
 H 0.9133 0.3429 0.2192   0.128271
 H 0.6994 0.7826 0.1359   0.112124
 H 0.8365 0.918 0.1352   0.104584
 H 0.714 0.6519 0.2813   0.086165
 H 0.9133 0.6571 0.2808   0.128271
 H 0.3006 0.2174 0.1359   0.112124
 H 0.1635 0.082 0.1352   0.104584
 H 0.286 0.3481 0.2813   0.086165
 H 0.0867 0.3429 0.2808   0.12827
 H 0.6994 0.2174 0.6359   0.112124
 H 0.8365 0.082 0.6352   0.104584
 H 0.714 0.3481 0.7813   0.086165
 H 0.9133 0.3429 0.7808   0.12827
 H 0.3006 0.7826 0.6359   0.112124
 H 0.1635 0.918 0.6352   0.104584
 H 0.286 0.6519 0.7813   0.086165
 H 0.0867 0.6571 0.7808   0.128271
 H 0.3006 0.2174 0.8641   0.112124
 H 0.1635 0.082 0.8648   0.104584
 H 0.286 0.3481 0.7187   0.086165
 H 0.0867 0.3429 0.7192   0.128271
 H 0.6994 0.7826 0.8641   0.112124
 H 0.8365 0.918 0.8648   0.104584
 H 0.714 0.6519 0.7187   0.086165
 H 0.9133 0.6571 0.7192   0.12827
 C 0.4632 0.6583 0.4202   0.407596
 C 0.2757 0.812 0.4196   -0.147987
 C 0.1942 0.8926 0.42   -0.090202
 C 0.0771 0.092 0.4203   0.300806
 C 0.2449 0.5882 0.2322   0.139874
 C 0.1257 0.592 0.2319   -0.189993
 C 0.5368 0.3417 0.4202   0.407595
 C 0.7243 0.188 0.4196   -0.147989
 C 0.8058 0.1074 0.42   -0.090201
 C 0.9229 0.908 0.4203   0.300807
 C 0.7551 0.4118 0.2322   0.139875
 C 0.8743 0.408 0.2319   -0.189997
 C 0.5368 0.6583 0.0798   0.407597
 C 0.7243 0.812 0.0804   -0.147987
 C 0.8058 0.8926 0.08   -0.090202
 C 0.9229 0.092 0.0797   0.300807
 C 0.7551 0.5882 0.2678   0.139876
 C 0.8743 0.592 0.2681   -0.189997
 C 0.4632 0.3417 0.0798   0.407595
 C 0.2757 0.188 0.0804   -0.147988
 C 0.1942 0.1074 0.08   -0.090201
 C 0.0771 0.908 0.0797   0.300807
 C 0.2449 0.4118 0.2678   0.139875
 C 0.1257 0.408 0.2681   -0.189993
 C 0.5368 0.3417 0.5798   0.407577
 C 0.7243 0.188 0.5804   -0.147987
 C 0.8058 0.1074 0.58   -0.090202
 C 0.9229 0.908 0.5797   0.300807
 C 0.7551 0.4118 0.7678   0.139874
 C 0.8743 0.408 0.7681   -0.189993
 C 0.4632 0.6583 0.5798   0.407576
 C 0.2757 0.812 0.5804   -0.147989
 C 0.1942 0.8926 0.58   -0.090201
 C 0.0771 0.092 0.5797   0.300807
 C 0.2449 0.5882 0.7678   0.139875
 C 0.1257 0.592 0.7681   -0.189997
 C 0.4632 0.3417 0.9202   0.407577
 C 0.2757 0.188 0.9196   -0.147986
 C 0.1942 0.1074 0.92   -0.090202
 C 0.0771 0.908 0.9203   0.300807
 C 0.2449 0.4118 0.7322   0.139876
 C 0.1257 0.408 0.7319   -0.189997
 C 0.5368 0.6583 0.9202   0.407576
 C 0.7243 0.812 0.9196   -0.147988
 C 0.8058 0.8926 0.92   -0.090202
 C 0.9229 0.092 0.9203   0.300807
 C 0.7551 0.5882 0.7322   0.139875
 C 0.8743 0.592 0.7319   -0.189992
 C 0.0642 0.5 0.25   0.09206
 C 0.9358 0.5 0.25   0.092088
 C 0.9358 0.5 0.75   0.09206
 C 0.0642 0.5 0.75   0.092088
 C 0.4173 0.6979 0.5   -0.389579
 C 0.3232 0.7736 0.5   0.164371
 C 0.1565 0.9362 0.5   -0.059487
 C 0.0638 0.0272 0.5   0.000291
 C 0.5827 0.3021 0.5   -0.389579
 C 0.6768 0.2264 0.5   0.164371
 C 0.8435 0.0638 0.5   -0.059487
 C 0.9362 0.9728 0.5   0.000291
 C 0.5827 0.6979 0.0   -0.389579
 C 0.6768 0.7736 0.0   0.164371
 C 0.8435 0.9362 0.0   -0.059486
 C 0.9362 0.0272 0.0   0.000291
 C 0.4173 0.3021 0.0   -0.389579
 C 0.3232 0.2264 0.0   0.16437
 C 0.1565 0.0638 0.0   -0.059487
 C 0.0638 0.9728 0.0   0.000291
 N 0.5014 0.6253 0.3542   -0.435066
 N 0.0941 0.1396 0.3573   -0.343219
 N 0.4986 0.3747 0.3542   -0.435064
 N 0.9059 0.8604 0.3573   -0.343219
 N 0.4986 0.6253 0.1458   -0.435066
 N 0.9059 0.1396 0.1427   -0.343219
 N 0.5014 0.3747 0.1458   -0.435064
 N 0.0941 0.8604 0.1427   -0.343219
 N 0.4986 0.3747 0.6458   -0.435063
 N 0.9059 0.8604 0.6427   -0.343219
 N 0.5014 0.6253 0.6458   -0.435061
 N 0.0941 0.1396 0.6427   -0.343219
 N 0.5014 0.3747 0.8542   -0.435063
 N 0.0941 0.8604 0.8573   -0.343219
 N 0.4986 0.6253 0.8542   -0.435062
 N 0.9059 0.1396 0.8573   -0.343219
 N 0.3045 0.5 0.25   -0.244286
 N 0.6955 0.5 0.25   -0.244286
 N 0.6955 0.5 0.75   -0.244285
 N 0.3045 0.5 0.75   -0.244286
