{'_ref': 'TBD', '_srcid': 'CAKYAQ_clean', 'submitters': [{'name': 'Dalar Nazarian Jeff Camp and David Sholl', 'email': 'dalar@gatech.edu jcamp6@gatech.edu'}], '_method': 'VASP DFT with PBE;DDEC'}
data_CoH12C20N5O4
_symmetry_space_group_name_H-M   'P 1'
_cell_length_a   10.35470034
_cell_length_b   10.51720007
_cell_length_c   12.39000000
_cell_angle_alpha   70.64599781
_cell_angle_beta   89.45099859
_cell_angle_gamma   63.84900040
_symmetry_Int_Tables_number   1
_chemical_formula_structural   CoH12C20N5O4
_chemical_formula_sum   'Co2 H24 C40 N10 O8'
_cell_volume   1127.80008946
_cell_formula_units_Z   2
loop_
 _symmetry_equiv_pos_site_id
 _symmetry_equiv_pos_as_xyz
  1  'x, y, z'
loop_
 _atom_site_label
 _atom_site_fract_x
 _atom_site_fract_y
 _atom_site_fract_z
 _atom_site_charge
 Co 0.0 0.0 0.0   0.827438
 Co 0.0 0.5 0.0   0.753088
 H 0.3867 0.4629 0.7752   0.31358
 H 0.7173 0.4521 0.0193   0.060695
 H 0.8415 0.6598 0.7518   0.07912
 H 0.6658 0.6787 0.6294   0.132754
 H 0.5384 0.4635 0.9043   0.115642
 H 0.4011 0.7795 0.334   0.138444
 H 0.2848 0.8937 0.1476   0.097512
 H 0.9892 0.7616 0.2338   0.093188
 H 0.0956 0.6479 0.425   0.137856
 H 0.6891 0.0124 0.3213   0.107927
 H 0.8137 0.9457 0.4984   0.101596
 H 0.0611 0.13 0.3441   0.092803
 H 0.6133 0.5371 0.2248   0.313581
 H 0.2827 0.5479 0.9807   0.060696
 H 0.1585 0.3402 0.2482   0.07912
 H 0.3342 0.3213 0.3706   0.132753
 H 0.4616 0.5365 0.0957   0.115643
 H 0.5989 0.2205 0.666   0.138443
 H 0.7152 0.1063 0.8524   0.097512
 H 0.0108 0.2384 0.7662   0.093188
 H 0.9044 0.3521 0.575   0.137853
 H 0.3109 0.9876 0.6787   0.107927
 H 0.1863 0.0543 0.5016   0.101596
 H 0.9389 0.87 0.6559   0.092803
 C 0.7086 0.496 0.9393   0.209904
 C 0.7812 0.6175 0.7832   0.171988
 C 0.6743 0.6311 0.7089   -0.160468
 C 0.5804 0.5745 0.7517   0.039318
 C 0.5991 0.5043 0.871   -0.159518
 C 0.4675 0.5855 0.6734   0.283939
 C 0.3303 0.6395 0.5235   0.379643
 C 0.2595 0.7049 0.4017   0.053697
 C 0.3156 0.7768 0.316   -0.189152
 C 0.2455 0.8445 0.2042   0.15349
 C 0.0717 0.7678 0.2548   0.152191
 C 0.1353 0.6983 0.3698   -0.178094
 C 0.7318 0.1113 0.1125   0.651575
 C 0.8097 0.0949 0.2229   -0.099284
 C 0.7687 0.0306 0.325   -0.068234
 C 0.842 0.9928 0.4318   -0.103521
 C 0.9576 0.0238 0.4419   0.017081
 C 0.9899 0.0999 0.3398   -0.079894
 C 0.921 0.1336 0.2309   -0.131697
 C 0.9678 0.2182 0.1277   0.656752
 C 0.2914 0.504 0.0607   0.209904
 C 0.2188 0.3825 0.2168   0.171988
 C 0.3257 0.3689 0.2911   -0.160468
 C 0.4196 0.4255 0.2483   0.039318
 C 0.4009 0.4957 0.129   -0.159518
 C 0.5325 0.4145 0.3266   0.28394
 C 0.6697 0.3605 0.4765   0.379644
 C 0.7405 0.2951 0.5983   0.053696
 C 0.6844 0.2232 0.684   -0.189151
 C 0.7545 0.1555 0.7958   0.15349
 C 0.9283 0.2322 0.7452   0.15219
 C 0.8647 0.3017 0.6302   -0.178093
 C 0.2682 0.8887 0.8875   0.651575
 C 0.1903 0.9051 0.7771   -0.099284
 C 0.2313 0.9694 0.675   -0.068234
 C 0.158 0.0072 0.5682   -0.103521
 C 0.0424 0.9762 0.5581   0.017084
 C 0.0101 0.9001 0.6602   -0.079894
 C 0.079 0.8664 0.7691   -0.131697
 C 0.0322 0.7818 0.8723   0.656752
 N 0.3848 0.5178 0.7055   -0.063449
 N 0.296 0.5499 0.6101   -0.385799
 N 0.4364 0.6637 0.5589   -0.497188
 N 0.8034 0.5473 0.8977   -0.362221
 N 0.1229 0.8435 0.1719   -0.289203
 N 0.6152 0.4822 0.2945   -0.063449
 N 0.704 0.4501 0.3899   -0.385799
 N 0.5636 0.3363 0.4411   -0.497189
 N 0.1966 0.4527 0.1023   -0.362221
 N 0.8771 0.1565 0.8281   -0.289203
 O 0.9793 0.33 0.133   -0.576698
 O 0.9941 0.1772 0.0415   -0.550228
 O 0.5962 0.1889 0.0921   -0.593579
 O 0.8042 0.0354 0.0537   -0.542734
 O 0.0207 0.67 0.867   -0.576698
 O 0.0059 0.8228 0.9585   -0.550228
 O 0.4038 0.8111 0.9079   -0.593579
 O 0.1958 0.9646 0.9463   -0.542734
