{'_ref': 'TBD', '_srcid': 'CAKYAQ_clean', 'submitters': [{'name': 'Dalar Nazarian Jeff Camp and David Sholl', 'email': 'dalar@gatech.edu jcamp6@gatech.edu'}], '_method': 'VASP DFT with PBE;DDEC'}
data_CaPH9C7O9
_symmetry_space_group_name_H-M   'P 1'
_cell_length_a   7.26030011
_cell_length_b   10.35230000
_cell_length_c   18.69200000
_cell_angle_alpha   90.00000000
_cell_angle_beta   94.08700162
_cell_angle_gamma   90.00000000
_symmetry_Int_Tables_number   1
_chemical_formula_structural   CaPH9C7O9
_chemical_formula_sum   'Ca4 P4 H36 C28 O36'
_cell_volume   1401.33305622
_cell_formula_units_Z   4
loop_
 _symmetry_equiv_pos_site_id
 _symmetry_equiv_pos_as_xyz
  1  'x, y, z'
loop_
 _atom_site_label
 _atom_site_fract_x
 _atom_site_fract_y
 _atom_site_fract_z
 _atom_site_charge
 Ca 0.74695 0.2572 0.86708   1.661803
 Ca 0.75305 0.7572 0.63292   1.661803
 Ca 0.25305 0.7428 0.13292   1.661802
 Ca 0.24695 0.2428 0.36708   1.661802
 P 0.82366 0.43439 0.70006   1.538933
 P 0.67634 0.93439 0.79994   1.538933
 P 0.17634 0.56561 0.29994   1.538933
 P 0.32366 0.06561 0.20006   1.538933
 H 0.1213 0.4172 0.7948   0.121337
 H 0.2382 0.4618 0.7321   0.151784
 H 0.9917 0.3014 0.5883   0.072306
 H 0.1841 0.2494 0.6186   0.075553
 H 0.3114 0.453 0.6196   0.146129
 H 0.1174 0.5178 0.6048   0.139437
 H 0.4874 0.1537 0.766   0.379743
 H 0.7168 0.4223 0.5763   0.398481
 H 0.8715 0.0533 0.6967   0.416324
 H 0.3787 0.9172 0.7052   0.121337
 H 0.2618 0.9618 0.7679   0.151784
 H 0.5083 0.8014 0.9117   0.072306
 H 0.3159 0.7494 0.8814   0.075554
 H 0.1886 0.953 0.8804   0.146129
 H 0.3826 0.0178 0.8952   0.139437
 H 0.0126 0.6537 0.734   0.379743
 H 0.7832 0.9223 0.9237   0.398481
 H 0.6285 0.5533 0.8033   0.416324
 H 0.8787 0.5828 0.2052   0.121337
 H 0.7618 0.5382 0.2679   0.151784
 H 0.0083 0.6986 0.4117   0.072306
 H 0.8159 0.7506 0.3814   0.075553
 H 0.6886 0.547 0.3804   0.146129
 H 0.8826 0.4822 0.3952   0.139437
 H 0.5126 0.8463 0.234   0.379743
 H 0.2832 0.5777 0.4237   0.398481
 H 0.1285 0.9467 0.3033   0.416324
 H 0.6213 0.0828 0.2948   0.121337
 H 0.7382 0.0382 0.2321   0.151784
 H 0.4917 0.1986 0.0883   0.072306
 H 0.6841 0.2506 0.1186   0.075554
 H 0.8114 0.047 0.1196   0.146129
 H 0.6174 0.9822 0.1048   0.139437
 H 0.9874 0.3463 0.266   0.379743
 H 0.2168 0.0777 0.0763   0.398481
 H 0.3715 0.4467 0.1967   0.416324
 C 0.335 0.2965 0.7794   0.731169
 C 0.1829 0.3871 0.75351   -0.28779
 C 0.035 0.3303 0.69828   -0.409419
 C 0.0984 0.3209 0.62072   -0.011506
 C 0.1914 0.4433 0.59391   -0.382823
 C 0.2162 0.4414 0.5145   0.818229
 C 0.9785 0.2004 0.7266   0.727741
 C 0.165 0.7965 0.7206   0.731169
 C 0.3171 0.8871 0.74649   -0.28779
 C 0.465 0.8303 0.80172   -0.409419
 C 0.4016 0.8209 0.87928   -0.011506
 C 0.3086 0.9433 0.90609   -0.382823
 C 0.2838 0.9414 0.9855   0.818229
 C 0.5215 0.7004 0.7734   0.727741
 C 0.665 0.7035 0.2206   0.731169
 C 0.8171 0.6129 0.24649   -0.28779
 C 0.965 0.6697 0.30172   -0.409419
 C 0.9016 0.6791 0.37928   -0.011506
 C 0.8086 0.5567 0.40609   -0.382823
 C 0.7838 0.5586 0.4855   0.818229
 C 0.0215 0.7996 0.2734   0.727741
 C 0.835 0.2035 0.2794   0.731169
 C 0.6829 0.1129 0.25351   -0.28779
 C 0.535 0.1697 0.19828   -0.409419
 C 0.5984 0.1791 0.12072   -0.011506
 C 0.6914 0.0567 0.09391   -0.382823
 C 0.7162 0.0586 0.0145   0.818229
 C 0.4785 0.2996 0.2266   0.727741
 O 0.4179 0.3094 0.8387   -0.653658
 O 0.3723 0.204 0.73528   -0.486172
 O 0.1862 0.3494 0.47565   -0.750204
 O 0.2758 0.5525 0.49232   -0.621784
 O 0.9822 0.1768 0.79076   -0.645052
 O 0.919 0.1171 0.67754   -0.501083
 O 0.7471 0.411 0.77256   -0.967585
 O 0.8893 0.5729 0.69219   -0.923559
 O 0.6914 0.3954 0.63728   -0.738334
 O 0.0821 0.8094 0.6613   -0.653658
 O 0.1277 0.704 0.76472   -0.486172
 O 0.3138 0.8494 0.02435   -0.750204
 O 0.2242 0.0525 0.00768   -0.621784
 O 0.5178 0.6768 0.70924   -0.645052
 O 0.581 0.6171 0.82246   -0.501083
 O 0.7529 0.911 0.72744   -0.967585
 O 0.6107 0.0729 0.80781   -0.923559
 O 0.8086 0.8954 0.86272   -0.738334
 O 0.5821 0.6906 0.1613   -0.653658
 O 0.6277 0.796 0.26472   -0.486172
 O 0.8138 0.6506 0.52435   -0.750204
 O 0.7242 0.4475 0.50768   -0.621784
 O 0.0178 0.8232 0.20924   -0.645052
 O 0.081 0.8829 0.32246   -0.501083
 O 0.2529 0.589 0.22744   -0.967585
 O 0.1107 0.4271 0.30781   -0.923559
 O 0.3086 0.6046 0.36272   -0.738334
 O 0.9179 0.1906 0.3387   -0.653658
 O 0.8723 0.296 0.23528   -0.486172
 O 0.6862 0.1506 0.97565   -0.750204
 O 0.7758 0.9475 0.99232   -0.621784
 O 0.4822 0.3232 0.29076   -0.645052
 O 0.419 0.3829 0.17754   -0.501083
 O 0.2471 0.089 0.27256   -0.967585
 O 0.3893 0.9271 0.19219   -0.923559
 O 0.1914 0.1046 0.13728   -0.738334
