{'_ref': 'TBD', '_srcid': 'CAKYAQ_clean', 'submitters': [{'name': 'Dalar Nazarian Jeff Camp and David Sholl', 'email': 'dalar@gatech.edu jcamp6@gatech.edu'}], '_method': 'VASP DFT with PBE;DDEC'}
data_CdH8C10S(NO2)2
_symmetry_space_group_name_H-M   'P 1'
_cell_length_a   9.75540000
_cell_length_b   13.24300025
_cell_length_c   13.59560000
_cell_angle_alpha   118.30300105
_cell_angle_beta   90.00000000
_cell_angle_gamma   111.61199874
_symmetry_Int_Tables_number   1
_chemical_formula_structural   CdH8C10S(NO2)2
_chemical_formula_sum   'Cd4 H32 C40 S4 N8 O16'
_cell_volume   1404.63303164
_cell_formula_units_Z   4
loop_
 _symmetry_equiv_pos_site_id
 _symmetry_equiv_pos_as_xyz
  1  'x, y, z'
loop_
 _atom_site_label
 _atom_site_fract_x
 _atom_site_fract_y
 _atom_site_fract_z
 _atom_site_charge
 Cd 0.32318 0.51296 0.85645   1.082129
 Cd 0.81897 0.49182 0.60272   1.130143
 Cd 0.81022 0.48704 0.14355   1.081666
 Cd 0.32715 0.50818 0.39728   1.129852
 H 0.404 0.806 0.0029   0.09468
 H 0.5966 0.0022 0.1117   0.148248
 H 0.8907 0.8412 0.0592   0.138977
 H 0.6826 0.644 0.9572   0.101369
 H 0.77 0.1772 0.2053   0.128253
 H 0.9708 0.3736 0.2975   0.103775
 H 0.2596 0.22 0.2392   0.093153
 H 0.0662 0.0182 0.1368   0.133573
 H 0.9534 0.374 0.785   0.107571
 H 0.7557 0.1776 0.6951   0.148192
 H 0.0589 0.0222 0.6358   0.148137
 H 0.2478 0.224 0.7215   0.092653
 H 0.6901 0.6484 0.4599   0.083236
 H 0.8897 0.8486 0.5482   0.133959
 H 0.5831 0.9968 0.6403   0.145458
 H 0.3927 0.7928 0.5499   0.114733
 H 0.598 0.194 0.9971   0.09325
 H 0.5944 0.9978 0.8883   0.148622
 H 0.0495 0.1588 0.9408   0.139722
 H 0.0386 0.356 0.0428   0.1005
 H 0.5928 0.8228 0.7947   0.126498
 H 0.5972 0.6264 0.7025   0.103481
 H 0.0396 0.78 0.7608   0.09425
 H 0.048 0.9818 0.8632   0.134464
 H 0.5794 0.626 0.215   0.107759
 H 0.5781 0.8224 0.3049   0.147674
 H 0.0367 0.9778 0.3642   0.148749
 H 0.0238 0.776 0.2785   0.092684
 H 0.0417 0.3516 0.5401   0.083086
 H 0.0411 0.1514 0.4518   0.134105
 H 0.5863 0.0032 0.3597   0.146452
 H 0.5999 0.2072 0.4501   0.115541
 C 0.5032 0.8124 0.0146   0.190404
 C 0.6194 0.931 0.0793   -0.184961
 C 0.7649 0.9452 0.0983   0.098726
 C 0.7907 0.8368 0.0496   -0.205706
 C 0.6662 0.7184 0.9875   0.183412
 C 0.8926 0.0748 0.1611   0.066813
 C 0.8693 0.1832 0.2101   -0.181842
 C 0.9904 0.3004 0.267   0.187103
 C 0.1581 0.2108 0.2315   0.181286
 C 0.044 0.0904 0.1711   -0.205299
 C 0.9749 0.3018 0.7533   0.170948
 C 0.8561 0.1844 0.7021   -0.182939
 C 0.8833 0.0762 0.6599   0.089701
 C 0.0346 0.093 0.6665   -0.206881
 C 0.1461 0.2142 0.7177   0.195269
 C 0.6682 0.7202 0.4968   0.175301
 C 0.7879 0.84 0.5499   -0.212934
 C 0.7578 0.947 0.6044   0.074491
 C 0.6088 0.9272 0.604   -0.177043
 C 0.4946 0.8042 0.5493   0.205437
 C 0.6908 0.1876 0.9854   0.18939
 C 0.6884 0.069 0.9207   -0.183487
 C 0.8197 0.0548 0.9017   0.097418
 C 0.9539 0.1632 0.9504   -0.205935
 C 0.9478 0.2816 0.0125   0.182959
 C 0.8178 0.9252 0.8389   0.069291
 C 0.6861 0.8168 0.7899   -0.181756
 C 0.69 0.6996 0.733   0.187084
 C 0.9473 0.7892 0.7685   0.179491
 C 0.9536 0.9096 0.8289   -0.206437
 C 0.6731 0.6982 0.2467   0.1713
 C 0.6717 0.8156 0.2979   -0.182058
 C 0.8071 0.9238 0.3401   0.086974
 C 0.9416 0.907 0.3335   -0.206711
 C 0.9319 0.7858 0.2823   0.195724
 C 0.948 0.2798 0.5032   0.176082
 C 0.9479 0.16 0.4501   -0.213979
 C 0.8108 0.053 0.3956   0.075372
 C 0.6816 0.0728 0.396   -0.177078
 C 0.6904 0.1958 0.4507   0.203869
 S 0.22268 0.61696 0.6884   1.648201
 S 0.57714 0.37088 0.7232   1.705928
 S 0.60572 0.38304 0.3116   1.649629
 S 0.20626 0.62912 0.2768   1.709276
 N 0.525 0.7068 0.9688   -0.375294
 N 0.1335 0.3154 0.2802   -0.353632
 N 0.1221 0.319 0.7619   -0.380253
 N 0.5241 0.7014 0.4955   -0.356201
 N 0.8182 0.2932 0.0312   -0.372835
 N 0.8181 0.6846 0.7198   -0.353234
 N 0.8031 0.681 0.2381   -0.380367
 N 0.8227 0.2986 0.5045   -0.356315
 O 0.2983 0.5448 0.7051   -0.766516
 O 0.3064 0.7516 0.7662   -0.755875
 O 0.0674 0.5732 0.71   -0.803163
 O 0.2113 0.5856 0.5689   -0.757103
 O 0.5738 0.401 0.6315   -0.781973
 O 0.5089 0.2346 0.6708   -0.772424
 O 0.7357 0.4292 0.7762   -0.813304
 O 0.4953 0.428 0.8054   -0.827441
 O 0.7535 0.4552 0.2949   -0.767822
 O 0.5548 0.2484 0.2338   -0.755651
 O 0.4942 0.4268 0.29   -0.803286
 O 0.6257 0.4144 0.4311   -0.757428
 O 0.1728 0.599 0.3685   -0.782863
 O 0.2743 0.7654 0.3292   -0.77328
 O 0.3065 0.5708 0.2238   -0.814682
 O 0.0673 0.572 0.1946   -0.827483
