{'_ref': 'TBD', '_srcid': 'CAKYAQ_clean', 'submitters': [{'name': 'Dalar Nazarian Jeff Camp and David Sholl', 'email': 'dalar@gatech.edu jcamp6@gatech.edu'}], '_method': 'VASP DFT with PBE;DDEC'}
data_CeH5C14(NO4)2
_symmetry_space_group_name_H-M   'P 1'
_cell_length_a   12.13400000
_cell_length_b   12.39099981
_cell_length_c   12.72000000
_cell_angle_alpha   90.00000000
_cell_angle_beta   90.00000000
_cell_angle_gamma   114.77700046
_symmetry_Int_Tables_number   1
_chemical_formula_structural   CeH5C14(NO4)2
_chemical_formula_sum   'Ce4 H20 C56 N8 O32'
_cell_volume   1736.43034663
_cell_formula_units_Z   4
loop_
 _symmetry_equiv_pos_site_id
 _symmetry_equiv_pos_as_xyz
  1  'x, y, z'
loop_
 _atom_site_label
 _atom_site_fract_x
 _atom_site_fract_y
 _atom_site_fract_z
 _atom_site_charge
 Ce 0.5449 0.85365 0.54661   2.171333
 Ce 0.4551 0.64635 0.04661   2.171333
 Ce 0.4551 0.14635 0.45339   2.171329
 Ce 0.5449 0.35365 0.95339   2.171329
 H 0.621 0.673 0.722   0.395937
 H 0.0679 0.7535 0.6454   0.133475
 H 0.2016 0.5744 0.8364   0.122146
 H 0.9054 0.6731 0.7163   0.126916
 H 0.0205 0.4515 0.869   0.123856
 H 0.379 0.827 0.222   0.395937
 H 0.9321 0.7465 0.1454   0.133475
 H 0.7984 0.9256 0.3364   0.122146
 H 0.0946 0.8269 0.2163   0.126916
 H 0.9795 0.0485 0.369   0.123856
 H 0.379 0.327 0.278   0.395937
 H 0.9321 0.2465 0.3546   0.133475
 H 0.7984 0.4256 0.1636   0.122146
 H 0.0946 0.3269 0.2837   0.126916
 H 0.9795 0.5485 0.131   0.123856
 H 0.621 0.173 0.778   0.395937
 H 0.0679 0.2535 0.8546   0.133475
 H 0.2016 0.0744 0.6636   0.122146
 H 0.9054 0.1731 0.7837   0.126916
 H 0.0205 0.9515 0.631   0.123856
 C 0.2785 0.8943 0.5512   0.6307
 C 0.4349 0.6772 0.7675   0.718443
 C 0.667 0.5563 0.766   0.612553
 C 0.8018 0.3027 0.954   0.638035
 C 0.2479 0.7948 0.6284   0.149137
 C 0.1322 0.735 0.6692   -0.122971
 C 0.1107 0.6474 0.7453   0.087809
 C 0.2105 0.6291 0.7812   -0.092483
 C 0.3226 0.6921 0.7347   0.123619
 C 0.7749 0.5315 0.7907   0.117711
 C 0.8907 0.6043 0.7572   -0.115903
 C 0.9858 0.5743 0.7848   0.083104
 C 0.9583 0.4744 0.8478   -0.1048
 C 0.8388 0.4082 0.8797   0.163943
 C 0.7215 0.6057 0.0512   0.6307
 C 0.5651 0.8228 0.2675   0.718443
 C 0.333 0.9437 0.266   0.612553
 C 0.1982 0.1973 0.454   0.638035
 C 0.7521 0.7052 0.1284   0.149137
 C 0.8678 0.765 0.1692   -0.122971
 C 0.8893 0.8526 0.2453   0.087809
 C 0.7895 0.8709 0.2812   -0.092482
 C 0.6774 0.8079 0.2347   0.123619
 C 0.2251 0.9685 0.2907   0.117712
 C 0.1093 0.8957 0.2572   -0.115903
 C 0.0142 0.9257 0.2848   0.083104
 C 0.0417 0.0256 0.3478   -0.1048
 C 0.1612 0.0918 0.3797   0.163943
 C 0.7215 0.1057 0.4488   0.6307
 C 0.5651 0.3228 0.2325   0.718441
 C 0.333 0.4437 0.234   0.612553
 C 0.1982 0.6973 0.046   0.638035
 C 0.7521 0.2052 0.3716   0.149135
 C 0.8678 0.265 0.3308   -0.122969
 C 0.8893 0.3526 0.2547   0.08781
 C 0.7895 0.3709 0.2188   -0.092485
 C 0.6774 0.3079 0.2653   0.12362
 C 0.2251 0.4685 0.2093   0.117711
 C 0.1093 0.3957 0.2428   -0.115902
 C 0.0142 0.4257 0.2152   0.083105
 C 0.0417 0.5256 0.1522   -0.1048
 C 0.1612 0.5918 0.1203   0.163943
 C 0.2785 0.3943 0.9488   0.6307
 C 0.4349 0.1772 0.7325   0.718441
 C 0.667 0.0563 0.734   0.612553
 C 0.8018 0.8027 0.546   0.638035
 C 0.2479 0.2948 0.8716   0.149135
 C 0.1322 0.235 0.8308   -0.122969
 C 0.1107 0.1474 0.7547   0.08781
 C 0.2105 0.1291 0.7188   -0.092485
 C 0.3226 0.1921 0.7653   0.12362
 C 0.7749 0.0315 0.7093   0.117711
 C 0.8907 0.1043 0.7428   -0.115902
 C 0.9858 0.0743 0.7152   0.083105
 C 0.9583 0.9744 0.6522   -0.1048
 C 0.8388 0.9082 0.6203   0.163943
 N 0.34118 0.7706 0.65733   -0.452586
 N 0.74833 0.4351 0.84981   -0.453101
 N 0.65882 0.7294 0.15733   -0.452586
 N 0.25167 0.0649 0.34981   -0.453101
 N 0.65882 0.2294 0.34267   -0.452585
 N 0.25167 0.5649 0.15019   -0.453101
 N 0.34118 0.2706 0.84267   -0.452585
 N 0.74833 0.9351 0.65019   -0.453101
 O 0.38098 0.92562 0.50257   -0.811319
 O 0.21048 0.94401 0.54093   -0.524458
 O 0.52007 0.71271 0.69933   -0.698125
 O 0.43818 0.63356 0.8534   -0.67726
 O 0.56332 0.48081 0.78408   -0.571664
 O 0.69464 0.6609 0.7278   -0.445937
 O 0.69334 0.26386 0.98901   -0.747585
 O 0.87807 0.2647 0.97429   -0.580524
 O 0.61902 0.57438 0.00257   -0.811319
 O 0.78952 0.55599 0.04093   -0.524458
 O 0.47993 0.78729 0.19933   -0.698125
 O 0.56182 0.86644 0.3534   -0.67726
 O 0.43668 0.01919 0.28408   -0.571664
 O 0.30536 0.8391 0.2278   -0.445937
 O 0.30666 0.23614 0.48901   -0.747585
 O 0.12193 0.2353 0.47429   -0.580524
 O 0.61902 0.07438 0.49743   -0.811319
 O 0.78952 0.05599 0.45907   -0.524457
 O 0.47993 0.28729 0.30067   -0.698125
 O 0.56182 0.36644 0.1466   -0.67726
 O 0.43668 0.51919 0.21592   -0.571664
 O 0.30536 0.3391 0.2722   -0.445937
 O 0.30666 0.73614 0.01099   -0.747585
 O 0.12193 0.7353 0.02571   -0.580524
 O 0.38098 0.42562 0.99743   -0.811319
 O 0.21048 0.44401 0.95907   -0.524457
 O 0.52007 0.21271 0.80067   -0.698125
 O 0.43818 0.13356 0.6466   -0.67726
 O 0.56332 0.98081 0.71592   -0.571664
 O 0.69464 0.1609 0.7722   -0.445937
 O 0.69334 0.76386 0.51099   -0.747585
 O 0.87807 0.7647 0.52571   -0.580524
