{'_ref': 'TBD', '_srcid': 'CAKYAQ_clean', 'submitters': [{'name': 'Dalar Nazarian Jeff Camp and David Sholl', 'email': 'dalar@gatech.edu jcamp6@gatech.edu'}], '_method': 'VASP DFT with PBE;DDEC'}
data_Tm2P2H25C43O16
_symmetry_space_group_name_H-M   'P 1'
_cell_length_a   10.45770000
_cell_length_b   14.40140035
_cell_length_c   23.35240000
_cell_angle_alpha   107.37100014
_cell_angle_beta   90.00000000
_cell_angle_gamma   90.00000000
_symmetry_Int_Tables_number   1
_chemical_formula_structural   Tm2P2H25C43O16
_chemical_formula_sum   'Tm4 P4 H50 C86 O32'
_cell_volume   3356.59555812
_cell_formula_units_Z   2
loop_
 _symmetry_equiv_pos_site_id
 _symmetry_equiv_pos_as_xyz
  1  'x, y, z'
loop_
 _atom_site_label
 _atom_site_fract_x
 _atom_site_fract_y
 _atom_site_fract_z
 _atom_site_charge
 Tm 0.93061 0.8481 0.77284   2.229886
 Tm 0.93061 0.1519 0.72716   2.229885
 Tm 0.06939 0.1519 0.22716   2.229886
 Tm 0.06939 0.8481 0.27284   2.229885
 P 0.86638 0.77154 0.37751   1.113629
 P 0.86638 0.22846 0.12249   1.113629
 P 0.13362 0.22846 0.62249   1.113629
 P 0.13362 0.77154 0.87751   1.113629
 H 0.8899 0.6786 0.4715   0.090146
 H 0.8993 0.7334 0.5741   0.117635
 H 0.867 0.0083 0.5706   0.115065
 H 0.8695 0.9546 0.4671   0.099363
 H 0.6204 0.7689 0.4344   0.094498
 H 0.4115 0.7932 0.4091   0.112376
 H 0.5329 0.8231 0.2519   0.124337
 H 0.7397 0.7985 0.2778   0.100319
 H 0.0977 0.6661 0.3587   0.106945
 H 0.1542 0.4985 0.3199   0.128289
 H 0.7822 0.4271 0.3081   0.11843
 H 0.726 0.5901 0.3446   0.088269
 H 0.8899 0.3214 0.0285   0.090146
 H 0.8993 0.2666 0.9259   0.117635
 H 0.867 0.9917 0.9294   0.115065
 H 0.8695 0.0454 0.0329   0.099363
 H 0.6204 0.2311 0.0656   0.094498
 H 0.4115 0.2068 0.0909   0.112376
 H 0.5329 0.1769 0.2481   0.124337
 H 0.7397 0.2015 0.2222   0.100319
 H 0.0977 0.3339 0.1413   0.106945
 H 0.1542 0.5015 0.1801   0.12829
 H 0.7822 0.5729 0.1919   0.118429
 H 0.726 0.4099 0.1554   0.08827
 H 0.1101 0.3214 0.5285   0.090146
 H 0.1007 0.2666 0.4259   0.117634
 H 0.133 0.9917 0.4294   0.115065
 H 0.1305 0.0454 0.5329   0.099363
 H 0.3796 0.2311 0.5656   0.094498
 H 0.5885 0.2068 0.5909   0.112376
 H 0.4671 0.1769 0.7481   0.124337
 H 0.2603 0.2015 0.7222   0.100319
 H 0.9023 0.3339 0.6413   0.106945
 H 0.8458 0.5015 0.6801   0.128289
 H 0.2178 0.5729 0.6919   0.11843
 H 0.274 0.4099 0.6554   0.088269
 H 0.1101 0.6786 0.9715   0.090146
 H 0.1007 0.7334 0.0741   0.117634
 H 0.133 0.0083 0.0706   0.115065
 H 0.1305 0.9546 0.9671   0.099363
 H 0.3796 0.7689 0.9344   0.094498
 H 0.5885 0.7932 0.9091   0.112376
 H 0.4671 0.8231 0.7519   0.124337
 H 0.2603 0.7985 0.7778   0.100319
 H 0.9023 0.6661 0.8587   0.106945
 H 0.8458 0.4985 0.8199   0.12829
 H 0.2178 0.4271 0.8081   0.118429
 H 0.274 0.5901 0.8446   0.088269
 H 0.2452 0.0 0.75   -0.021036
 H 0.7548 0.0 0.25   -0.021036
 C 0.875 0.8098 0.4575   -0.299539
 C 0.886 0.745 0.491   -0.020446
 C 0.8911 0.7778 0.5524   -0.050828
 C 0.8842 0.8757 0.5824   -0.115723
 C 0.8734 0.9421 0.5505   -0.05281
 C 0.8722 0.9096 0.4886   -0.004193
 C 0.8884 0.9099 0.65   0.785706
 C 0.7013 0.7849 0.3589   -0.307284
 C 0.6026 0.7807 0.3982   -0.027155
 C 0.4773 0.7944 0.3826   -0.070609
 C 0.4488 0.8097 0.3285   -0.080517
 C 0.55 0.8123 0.2885   -0.073233
 C 0.6735 0.7986 0.3045   0.013485
 C 0.3133 0.8258 0.3104   0.627579
 C 0.9044 0.6448 0.353   -0.319236
 C 0.0346 0.6186 0.3478   0.001354
 C 0.0689 0.5172 0.3254   -0.067462
 C 0.974 0.4494 0.3125   -0.081043
 C 0.8451 0.4749 0.3183   -0.076607
 C 0.8119 0.5728 0.3395   -0.002654
 C 0.0092 0.3436 0.2879   0.623335
 C 0.875 0.1902 0.0425   -0.299539
 C 0.886 0.255 0.009   -0.020446
 C 0.8911 0.2222 0.9476   -0.050828
 C 0.8842 0.1243 0.9176   -0.115723
 C 0.8734 0.0579 0.9495   -0.05281
 C 0.8722 0.0904 0.0114   -0.004193
 C 0.8884 0.0901 0.85   0.785706
 C 0.7013 0.2151 0.1411   -0.307284
 C 0.6026 0.2193 0.1018   -0.027155
 C 0.4773 0.2056 0.1174   -0.070609
 C 0.4488 0.1903 0.1715   -0.080517
 C 0.55 0.1877 0.2115   -0.073233
 C 0.6735 0.2014 0.1955   0.013485
 C 0.3133 0.1742 0.1896   0.627579
 C 0.9044 0.3552 0.147   -0.319236
 C 0.0346 0.3814 0.1522   0.001354
 C 0.0689 0.4828 0.1746   -0.067463
 C 0.974 0.5506 0.1875   -0.081043
 C 0.8451 0.5251 0.1817   -0.076606
 C 0.8119 0.4272 0.1605   -0.002654
 C 0.0092 0.6564 0.2121   0.623335
 C 0.125 0.1902 0.5425   -0.299539
 C 0.114 0.255 0.509   -0.020446
 C 0.1089 0.2222 0.4476   -0.050828
 C 0.1158 0.1243 0.4176   -0.115723
 C 0.1266 0.0579 0.4495   -0.052809
 C 0.1278 0.0904 0.5114   -0.004193
 C 0.1116 0.0901 0.35   0.785706
 C 0.2987 0.2151 0.6411   -0.307284
 C 0.3974 0.2193 0.6018   -0.027155
 C 0.5227 0.2056 0.6174   -0.070609
 C 0.5512 0.1903 0.6715   -0.080517
 C 0.45 0.1877 0.7115   -0.073233
 C 0.3265 0.2014 0.6955   0.013485
 C 0.6867 0.1742 0.6896   0.627579
 C 0.0956 0.3552 0.647   -0.319236
 C 0.9654 0.3814 0.6522   0.001354
 C 0.9311 0.4828 0.6746   -0.067462
 C 0.026 0.5506 0.6875   -0.081043
 C 0.1549 0.5251 0.6817   -0.076607
 C 0.1881 0.4272 0.6605   -0.002654
 C 0.9908 0.6564 0.7121   0.623335
 C 0.125 0.8098 0.9575   -0.299539
 C 0.114 0.745 0.991   -0.020446
 C 0.1089 0.7778 0.0524   -0.050828
 C 0.1158 0.8757 0.0824   -0.115723
 C 0.1266 0.9421 0.0505   -0.052809
 C 0.1278 0.9096 0.9886   -0.004193
 C 0.1116 0.9099 0.15   0.785706
 C 0.2987 0.7849 0.8589   -0.307284
 C 0.3974 0.7807 0.8982   -0.027155
 C 0.5227 0.7944 0.8826   -0.070609
 C 0.5512 0.8097 0.8285   -0.080517
 C 0.45 0.8123 0.7885   -0.073233
 C 0.3265 0.7986 0.8045   0.013485
 C 0.6867 0.8258 0.8104   0.627579
 C 0.0956 0.6448 0.853   -0.319236
 C 0.9654 0.6186 0.8478   0.001354
 C 0.9311 0.5172 0.8254   -0.067463
 C 0.026 0.4494 0.8125   -0.081043
 C 0.1549 0.4749 0.8183   -0.076606
 C 0.1881 0.5728 0.8395   -0.002654
 C 0.9908 0.3436 0.7879   0.623335
 C 0.1562 0.0 0.75   0.788511
 C 0.8438 0.0 0.25   0.788511
 O 0.8973 0.8466 0.6762   -0.67814
 O 0.8767 0.000500000000002 0.6756   -0.755256
 O 0.2223 0.8148 0.3436   -0.610721
 O 0.2968 0.8473 0.2622   -0.590357
 O 0.1228 0.3209 0.2697   -0.631242
 O 0.9242 0.2801 0.2796   -0.616766
 O 0.9509 0.832 0.3512   -0.832186
 O 0.1094 0.9284 0.7589   -0.710374
 O 0.8973 0.1534 0.8238   -0.67814
 O 0.8767 0.9995 0.8244   -0.755256
 O 0.2223 0.1852 0.1564   -0.610721
 O 0.2968 0.1527 0.2378   -0.590357
 O 0.1228 0.6791 0.2303   -0.631242
 O 0.9242 0.7199 0.2204   -0.616766
 O 0.9509 0.168 0.1488   -0.832186
 O 0.1094 0.0716 0.7411   -0.710374
 O 0.1027 0.1534 0.3238   -0.67814
 O 0.1233 0.9995 0.3244   -0.755256
 O 0.7777 0.1852 0.6564   -0.610721
 O 0.7032 0.1527 0.7378   -0.590357
 O 0.8772 0.6791 0.7303   -0.631242
 O 0.0758 0.7199 0.7204   -0.616766
 O 0.0491 0.168 0.6488   -0.832186
 O 0.8906 0.0716 0.2411   -0.710374
 O 0.1027 0.8466 0.1762   -0.67814
 O 0.1233 0.000500000000002 0.1756   -0.755256
 O 0.7777 0.8148 0.8436   -0.610721
 O 0.7032 0.8473 0.7622   -0.590357
 O 0.8772 0.3209 0.7697   -0.631242
 O 0.0758 0.2801 0.7796   -0.616766
 O 0.0491 0.832 0.8512   -0.832186
 O 0.8906 0.9284 0.2589   -0.710374
