{'_ref': 'TBD', '_srcid': 'CAKYAQ_clean', 'submitters': [{'name': 'Dalar Nazarian Jeff Camp and David Sholl', 'email': 'dalar@gatech.edu jcamp6@gatech.edu'}], '_method': 'VASP DFT with PBE;DDEC'}
data_CoH8C10NO5
_symmetry_space_group_name_H-M   'P 1'
_cell_length_a   6.70020000
_cell_length_b   7.68170000
_cell_length_c   27.13310000
_cell_angle_alpha   90.00000000
_cell_angle_beta   90.00000000
_cell_angle_gamma   90.00000000
_symmetry_Int_Tables_number   1
_chemical_formula_structural   CoH8C10NO5
_chemical_formula_sum   'Co4 H32 C40 N4 O20'
_cell_volume   1396.51152528
_cell_formula_units_Z   4
loop_
 _symmetry_equiv_pos_site_id
 _symmetry_equiv_pos_as_xyz
  1  'x, y, z'
loop_
 _atom_site_label
 _atom_site_fract_x
 _atom_site_fract_y
 _atom_site_fract_z
 _atom_site_charge
 Co 0.99587 0.24966 0.71742   1.116344
 Co 0.00413 0.24966 0.28258   1.116344
 Co 0.49587 0.75034 0.78258   1.116344
 Co 0.50413 0.75034 0.21742   1.116344
 H 0.6163 0.3105 0.6126   0.136969
 H 0.9896 0.0904 0.8487   0.067618
 H 0.1479 0.1166 0.5376   0.125136
 H 0.2844 0.2557 0.8546   0.146398
 H 0.0929 0.3701 0.8605   0.1373
 H 0.413 0.3217 0.6813   0.090325
 H 0.9682 0.1167 0.6107   0.077418
 H 0.669 0.2162 0.5278   0.105267
 H 0.3837 0.3105 0.3874   0.136968
 H 0.0104 0.0904 0.1513   0.067618
 H 0.8521 0.1166 0.4624   0.125136
 H 0.7156 0.2557 0.1454   0.146398
 H 0.9071 0.3701 0.1395   0.1373
 H 0.587 0.3217 0.3187   0.090325
 H 0.0318 0.1167 0.3893   0.077418
 H 0.331 0.2162 0.4722   0.105263
 H 0.1163 0.6895 0.8874   0.136969
 H 0.4896 0.9096 0.6513   0.067618
 H 0.6479 0.8834 0.9624   0.125136
 H 0.7844 0.7443 0.6454   0.146397
 H 0.5929 0.6299 0.6395   0.1373
 H 0.913 0.6783 0.8187   0.090325
 H 0.4682 0.8833 0.8893   0.077418
 H 0.169 0.7838 0.9722   0.105267
 H 0.8837 0.6895 0.1126   0.136968
 H 0.5104 0.9096 0.3487   0.067618
 H 0.3521 0.8834 0.0376   0.125136
 H 0.2156 0.7443 0.3546   0.146397
 H 0.4071 0.6299 0.3605   0.1373
 H 0.087 0.6783 0.1813   0.090325
 H 0.5318 0.8833 0.1107   0.077418
 H 0.831 0.7838 0.0278   0.105263
 C 0.484 0.2747 0.6106   -0.211856
 C 0.0422 0.1503 0.8195   0.097571
 C 0.2468 0.4251 0.7972   0.767556
 C 0.4061 0.2146 0.567   0.132538
 C 0.2059 0.1572 0.5666   -0.236338
 C 0.1703 0.3024 0.8371   -0.388476
 C 0.3593 0.2807 0.6519   0.204827
 C 0.1666 0.0204 0.7901   0.629855
 C 0.0966 0.1627 0.6104   0.176958
 C 0.5316 0.2155 0.5229   -0.114074
 C 0.516 0.2747 0.3894   -0.211856
 C 0.9578 0.1503 0.1805   0.097571
 C 0.7532 0.4251 0.2028   0.767556
 C 0.5939 0.2146 0.433   0.132531
 C 0.7941 0.1572 0.4334   -0.236337
 C 0.8297 0.3024 0.1629   -0.388476
 C 0.6407 0.2807 0.3481   0.204828
 C 0.8334 0.0204 0.2099   0.629855
 C 0.9034 0.1627 0.3896   0.176958
 C 0.4684 0.2155 0.4771   -0.114027
 C 0.984 0.7253 0.8894   -0.211856
 C 0.5422 0.8497 0.6805   0.097571
 C 0.7468 0.5749 0.7028   0.767556
 C 0.9061 0.7854 0.933   0.132538
 C 0.7059 0.8428 0.9334   -0.236338
 C 0.6703 0.6976 0.6629   -0.388476
 C 0.8593 0.7193 0.8481   0.204827
 C 0.6666 0.9796 0.7099   0.629855
 C 0.5966 0.8373 0.8896   0.176958
 C 0.0316 0.7845 0.9771   -0.114074
 C 0.016 0.7253 0.1106   -0.211856
 C 0.4578 0.8497 0.3195   0.097571
 C 0.2532 0.5749 0.2972   0.767556
 C 0.0939 0.7854 0.067   0.132531
 C 0.2941 0.8428 0.0666   -0.236337
 C 0.3297 0.6976 0.3371   -0.388476
 C 0.1407 0.7193 0.1519   0.204827
 C 0.3334 0.9796 0.2901   0.629855
 C 0.4034 0.8373 0.1104   0.176958
 C 0.9684 0.7845 0.0229   -0.114027
 N 0.1695 0.2317 0.6519   -0.326633
 N 0.8305 0.2317 0.3481   -0.326633
 N 0.6695 0.7683 0.8481   -0.326633
 N 0.3305 0.7683 0.1519   -0.326633
 O 0.2777 0.9219 0.813   -0.564703
 O 0.8758 0.2184 0.792   -0.436609
 O 0.1435 0.0245 0.7436   -0.52935
 O 0.2103 0.3998 0.7521   -0.601926
 O 0.3416 0.5511 0.8139   -0.602132
 O 0.7223 0.9219 0.187   -0.564703
 O 0.1242 0.2184 0.208   -0.436609
 O 0.8565 0.0245 0.2564   -0.52935
 O 0.7897 0.3998 0.2479   -0.601926
 O 0.6584 0.5511 0.1861   -0.602132
 O 0.7777 0.0781 0.687   -0.564703
 O 0.3758 0.7816 0.708   -0.43661
 O 0.6435 0.9755 0.7564   -0.52935
 O 0.7103 0.6002 0.7479   -0.601927
 O 0.8416 0.4489 0.6861   -0.602132
 O 0.2223 0.0781 0.313   -0.564703
 O 0.6242 0.7816 0.292   -0.43661
 O 0.3565 0.9755 0.2436   -0.52935
 O 0.2897 0.6002 0.2521   -0.601927
 O 0.1584 0.4489 0.3139   -0.602132
