{'_ref': 'TBD', '_srcid': 'CAKYAQ_clean', 'submitters': [{'name': 'Dalar Nazarian Jeff Camp and David Sholl', 'email': 'dalar@gatech.edu jcamp6@gatech.edu'}], '_method': 'VASP DFT with PBE;DDEC'}
data_GdH6(C2O3)3
_symmetry_space_group_name_H-M   'P 1'
_cell_length_a   6.02600035
_cell_length_b   7.44999991
_cell_length_c   13.28700000
_cell_angle_alpha   102.74000286
_cell_angle_beta   101.45999549
_cell_angle_gamma   90.71999699
_symmetry_Int_Tables_number   1
_chemical_formula_structural   GdH6(C2O3)3
_chemical_formula_sum   'Gd2 H12 C12 O18'
_cell_volume   569.225249691
_cell_formula_units_Z   2
loop_
 _symmetry_equiv_pos_site_id
 _symmetry_equiv_pos_as_xyz
  1  'x, y, z'
loop_
 _atom_site_label
 _atom_site_fract_x
 _atom_site_fract_y
 _atom_site_fract_z
 _atom_site_charge
 Gd 0.50009 0.50994 0.50002   2.125759
 Gd 0.46433 0.87269 0.14001   2.128734
 H 0.8362 0.7939 0.8632   0.088461
 H 0.1268 0.7272 0.7635   0.080417
 H 0.9964 0.3741 0.2556   0.118266
 H 0.0144 0.4143 0.0909   0.13103
 H 0.9272 0.0918 0.5502   0.136741
 H 0.9619 0.9389 0.3847   0.123573
 H 0.7874 0.6191 0.9517   0.379036
 H 0.2478 0.469 0.7419   0.38597
 H 0.284 0.66 0.333   0.365447
 H 0.32 0.465 0.073   0.46265
 H 0.59 0.165 0.561   0.467764
 H 0.7 0.168 0.317   0.381897
 C 0.708 0.612 0.7234   0.636627
 C 0.8625 0.6663 0.8313   0.089915
 C 0.1104 0.6596 0.8173   0.08012
 C 0.2684 0.7554 0.9211   0.622894
 C 0.3251 0.3026 0.2494   0.691232
 C 0.1368 0.4394 0.2532   0.066353
 C 0.1001 0.5103 0.1488   0.029574
 C 0.9711 0.6882 0.1564   0.687276
 C 0.9879 0.3177 0.4905   0.696382
 C 0.8502 0.146 0.4927   0.053862
 C 0.8201 0.0013 0.3866   0.057003
 C 0.6342 0.8596 0.3869   0.66709
 O 0.5598 0.4774 0.6985   -0.684107
 O 0.7313 0.7089 0.6603   -0.685269
 O 0.8324 0.5563 0.9016   -0.547813
 O 0.1566 0.4741 0.7806   -0.554549
 O 0.437 0.6739 0.9598   -0.695197
 O 0.2259 0.91 0.9688   -0.666159
 O 0.3001 0.1656 0.1747   -0.659111
 O 0.4933 0.3415 0.3268   -0.701242
 O 0.1965 0.5863 0.3461   -0.613145
 O 0.3154 0.5464 0.1263   -0.622208
 O 0.0778 0.8299 0.1503   -0.664519
 O 0.7663 0.6771 0.1621   -0.69201
 O 0.8894 0.4613 0.4926   -0.641145
 O 0.1942 0.2988 0.4891   -0.721776
 O 0.6321 0.2026 0.5116   -0.655989
 O 0.7632 0.0727 0.296   -0.612161
 O 0.4614 0.8339 0.3123   -0.666859
 O 0.6633 0.7722 0.4611   -0.670815
