{'_ref': 'TBD', '_srcid': 'CAKYAQ_clean', 'submitters': [{'name': 'Dalar Nazarian Jeff Camp and David Sholl', 'email': 'dalar@gatech.edu jcamp6@gatech.edu'}], '_method': 'VASP DFT with PBE;DDEC'}
data_CoH21C17(NO2)2
_symmetry_space_group_name_H-M   'P 1'
_cell_length_a   10.22549971
_cell_length_b   13.01200000
_cell_length_c   13.55080000
_cell_angle_alpha   90.00000000
_cell_angle_beta   90.74899887
_cell_angle_gamma   90.00000000
_symmetry_Int_Tables_number   1
_chemical_formula_structural   CoH21C17(NO2)2
_chemical_formula_sum   'Co4 H84 C68 N8 O16'
_cell_volume   1802.83682835
_cell_formula_units_Z   4
loop_
 _symmetry_equiv_pos_site_id
 _symmetry_equiv_pos_as_xyz
  1  'x, y, z'
loop_
 _atom_site_label
 _atom_site_fract_x
 _atom_site_fract_y
 _atom_site_fract_z
 _atom_site_charge
 Co 0.85595 0.48224 0.23628   0.931278
 Co 0.13479 0.48967 0.26519   0.957177
 Co 0.14405 0.98224 0.76372   0.931278
 Co 0.86521 0.98967 0.73481   0.957177
 H 0.1371 0.5797 0.5686   0.072677
 H 0.0788 0.49 0.6324   0.071307
 H 0.1122 0.681 0.696   0.06783
 H 0.0332 0.596 0.7526   0.062849
 H 0.8441 0.6542 0.7031   0.095398
 H 0.873 0.4126 0.5764   0.107291
 H 0.8296 0.4951 0.6537   0.101587
 H 0.758 0.4882 0.5509   0.103041
 H 0.937 0.8147 0.5041   0.129117
 H 0.0593 0.7431 0.5173   0.125017
 H 0.9647 0.7284 0.4264   0.122956
 H 0.7237 0.7577 0.5351   0.113353
 H 0.7344 0.669 0.4573   0.117506
 H 0.693 0.6441 0.5657   0.104346
 H 0.0597 0.8527 0.2469   0.071167
 H 0.1153 0.7716 0.1722   0.079372
 H 0.1493 0.8982 0.0658   0.07068
 H 0.0807 0.9775 0.1364   0.061517
 H 0.8879 0.9582 0.0661   0.101568
 H 0.8323 0.8296 0.2949   0.108041
 H 0.8224 0.914 0.2126   0.107174
 H 0.7277 0.8193 0.2099   0.099895
 H 0.736 0.81 0.9482   0.11341
 H 0.7045 0.7339 0.0344   0.107851
 H 0.6965 0.8529 0.0517   0.108584
 H 0.9435 0.7352 0.9216   0.123648
 H 0.0525 0.727 0.0036   0.124368
 H 0.93 0.6547 0.007   0.123106
 H 0.5918 0.4375 0.3604   0.106071
 H 0.4327 0.3064 0.3203   0.138007
 H 0.7224 0.29 0.1327   0.101566
 H 0.4067 0.2011 0.1416   0.106947
 H 0.5419 0.1705 0.0976   0.107514
 H 0.6206 0.1187 0.3233   0.098917
 H 0.6126 0.9619 0.4025   0.105989
 H 0.3585 0.8599 0.2023   0.093804
 H 0.3578 0.0136 0.1271   0.110723
 H 0.416 0.8106 0.4278   0.105226
 H 0.5597 0.7829 0.3993   0.102887
 H 0.2495 0.6796 0.3751   0.090812
 H 0.4214 0.5357 0.1614   0.113055
 H 0.5686 0.674 0.2194   0.136918
 H 0.8629 0.0797 0.4314   0.072678
 H 0.9212 0.99 0.3676   0.071303
 H 0.8878 0.181 0.304   0.067829
 H 0.9668 0.096 0.2474   0.062844
 H 0.1559 0.1542 0.2969   0.095398
 H 0.127 0.9126 0.4236   0.107287
 H 0.1704 0.9951 0.3463   0.101585
 H 0.242 0.9882 0.4491   0.103041
 H 0.063 0.3147 0.4959   0.129116
 H 0.9407 0.2431 0.4827   0.125016
 H 0.0353 0.2284 0.5736   0.122956
 H 0.2763 0.2577 0.4649   0.113353
 H 0.2656 0.169 0.5427   0.117506
 H 0.307 0.1441 0.4343   0.104346
 H 0.9403 0.3527 0.7531   0.071164
 H 0.8847 0.2716 0.8278   0.079371
 H 0.8507 0.3982 0.9342   0.07068
 H 0.9193 0.4775 0.8636   0.061512
 H 0.1121 0.4582 0.9339   0.101566
 H 0.1677 0.3296 0.7051   0.10804
 H 0.1776 0.414 0.7874   0.107172
 H 0.2723 0.3193 0.7901   0.099894
 H 0.264 0.31 0.0518   0.113409
 H 0.2955 0.2339 0.9656   0.107853
 H 0.3035 0.3529 0.9483   0.108586
 H 0.0565 0.2352 0.0784   0.123647
 H 0.9475 0.227 0.9964   0.124367
 H 0.07 0.1547 0.993   0.123104
 H 0.4082 0.9375 0.6396   0.106073
 H 0.5673 0.8064 0.6797   0.138008
 H 0.2776 0.79 0.8673   0.101565
 H 0.5933 0.7011 0.8584   0.106946
 H 0.4581 0.6705 0.9024   0.107517
 H 0.3794 0.6187 0.6767   0.098919
 H 0.3874 0.4619 0.5975   0.105991
 H 0.6415 0.3599 0.7977   0.093805
 H 0.6422 0.5136 0.8729   0.110725
 H 0.584 0.3106 0.5722   0.105227
 H 0.4403 0.2829 0.6007   0.102887
 H 0.7505 0.1796 0.6249   0.090812
 H 0.5786 0.0357 0.8386   0.113059
 H 0.4314 0.174 0.7806   0.136917
 C 0.962 0.5322 0.4337   0.654801
 C 0.9389 0.5582 0.5416   -0.049599
 C 0.0622 0.5584 0.6067   -0.153267
 C 0.0401 0.6328 0.6907   -0.088088
 C 0.9141 0.6892 0.6676   -0.242577
 C 0.8887 0.6715 0.5543   0.210269
 C 0.9104 0.8005 0.6964   0.686549
 C 0.8407 0.4813 0.5847   -0.335023
 C 0.9699 0.7463 0.4951   -0.414932
 C 0.7471 0.687 0.5255   -0.397382
 C 0.9025 0.6674 0.1919   0.642367
 C 0.9132 0.7824 0.164   -0.034951
 C 0.0508 0.8254 0.1806   -0.160704
 C 0.0717 0.9113 0.1042   -0.094116
 C 0.9501 0.9085 0.0392   -0.245039
 C 0.8897 0.8003 0.051   0.198165
 C 0.9715 0.9371 0.9303   0.685622
 C 0.8148 0.8419 0.2261   -0.34349
 C 0.7425 0.7992 0.0182   -0.386402
 C 0.9603 0.7223 0.9903   -0.403683
 C 0.5974 0.3912 0.3083   0.030176
 C 0.5101 0.3189 0.2871   -0.147484
 C 0.6694 0.311 0.1841   0.12187
 C 0.496 0.1825 0.1587   -0.074768
 C 0.494 0.0833 0.2169   0.032607
 C 0.5666 0.067 0.2986   -0.127283
 C 0.5612 0.9727 0.3463   -0.105345
 C 0.4816 0.895 0.3125   0.029201
 C 0.4098 0.9126 0.2282   -0.104352
 C 0.4112 0.003 0.1822   -0.120972
 C 0.4735 0.7985 0.3726   -0.058033
 C 0.3105 0.6604 0.3283   0.130718
 C 0.4045 0.582 0.212   0.015855
 C 0.4862 0.6588 0.2438   -0.147735
 C 0.038 0.0322 0.5663   0.654801
 C 0.0611 0.0582 0.4584   -0.0496
 C 0.9378 0.0584 0.3933   -0.153266
 C 0.9599 0.1328 0.3093   -0.088087
 C 0.0859 0.1892 0.3324   -0.242577
 C 0.1113 0.1715 0.4457   0.210269
 C 0.0896 0.3005 0.3036   0.686549
 C 0.1593 0.9813 0.4153   -0.335021
 C 0.0301 0.2463 0.5049   -0.414931
 C 0.2529 0.187 0.4745   -0.397382
 C 0.0975 0.1674 0.8081   0.642367
 C 0.0868 0.2824 0.836   -0.034951
 C 0.9492 0.3254 0.8194   -0.160703
 C 0.9283 0.4113 0.8958   -0.094115
 C 0.0499 0.4085 0.9608   -0.245038
 C 0.1103 0.3003 0.949   0.198165
 C 0.0285 0.4371 0.0697   0.685622
 C 0.1852 0.3419 0.7739   -0.343489
 C 0.2575 0.2992 0.9818   -0.386403
 C 0.0397 0.2223 0.0097   -0.403682
 C 0.4026 0.8912 0.6917   0.030175
 C 0.4899 0.8189 0.7129   -0.147484
 C 0.3306 0.811 0.8159   0.121871
 C 0.504 0.6825 0.8413   -0.074768
 C 0.506 0.5833 0.7831   0.032607
 C 0.4334 0.567 0.7014   -0.127283
 C 0.4388 0.4727 0.6537   -0.105346
 C 0.5184 0.395 0.6875   0.029201
 C 0.5902 0.4126 0.7718   -0.104352
 C 0.5888 0.503 0.8178   -0.120973
 C 0.5265 0.2985 0.6274   -0.058034
 C 0.6895 0.1604 0.6717   0.130718
 C 0.5955 0.082 0.788   0.015853
 C 0.5138 0.1588 0.7562   -0.147734
 N 0.6959 0.3874 0.2427   -0.369287
 N 0.5551 0.2661 0.2074   0.061752
 N 0.425 0.708 0.3165   0.046948
 N 0.2937 0.585 0.2676   -0.369886
 N 0.3041 0.8874 0.7573   -0.369287
 N 0.4449 0.7661 0.7926   0.061752
 N 0.575 0.208 0.6835   0.046948
 N 0.7063 0.085 0.7324   -0.369886
 O 0.8609 0.5166 0.3817   -0.575947
 O 0.077 0.5286 0.4025   -0.593172
 O 0.8005 0.846 0.6971   -0.603051
 O 0.0135 0.8478 0.7163   -0.625392
 O 0.7917 0.6255 0.1896   -0.578906
 O 0.0026 0.6212 0.2194   -0.615378
 O 0.8704 0.96 0.8807   -0.591065
 O 0.0864 0.9369 0.8994   -0.591133
 O 0.1391 0.0166 0.6183   -0.575947
 O 0.923 0.0286 0.5975   -0.593172
 O 0.1995 0.346 0.3029   -0.603051
 O 0.9865 0.3478 0.2837   -0.625392
 O 0.2083 0.1255 0.8104   -0.578906
 O 0.9974 0.1212 0.7806   -0.615378
 O 0.1296 0.46 0.1193   -0.591065
 O 0.9136 0.4369 0.1006   -0.591133
