{'_ref': 'TBD', '_srcid': 'CAKYAQ_clean', 'submitters': [{'name': 'Dalar Nazarian Jeff Camp and David Sholl', 'email': 'dalar@gatech.edu jcamp6@gatech.edu'}], '_method': 'VASP DFT with PBE;DDEC'}
data_CdH12C12S2(NO3)2
_symmetry_space_group_name_H-M   'P 1'
_cell_length_a   8.42429973
_cell_length_b   11.63680004
_cell_length_c   15.70950000
_cell_angle_alpha   95.49400070
_cell_angle_beta   104.72499819
_cell_angle_gamma   99.12199969
_symmetry_Int_Tables_number   1
_chemical_formula_structural   CdH12C12S2(NO3)2
_chemical_formula_sum   'Cd3 H36 C36 S6 N6 O18'
_cell_volume   1455.61612763
_cell_formula_units_Z   3
loop_
 _symmetry_equiv_pos_site_id
 _symmetry_equiv_pos_as_xyz
  1  'x, y, z'
loop_
 _atom_site_label
 _atom_site_fract_x
 _atom_site_fract_y
 _atom_site_fract_z
 _atom_site_charge
 Cd 0.52326 0.55008 0.67617   1.129108
 Cd 0.47674 0.44992 0.32383   1.129108
 Cd 0.5 0.5 0.0   1.13102
 H 0.9715 0.4371 0.5705   0.160541
 H 0.0605 0.5725 0.5849   0.156825
 H 0.8686 0.4112 0.8117   0.142265
 H 0.0166 0.4509 0.9019   0.154652
 H 0.9777 0.5632 0.7451   0.162509
 H 0.1068 0.6257 0.8376   0.131652
 H 0.4876 0.3494 0.8006   0.066268
 H 0.6199 0.3333 0.5775   0.077368
 H 0.6474 0.1399 0.5823   0.128839
 H 0.5058 0.1555 0.8104   0.109117
 H 0.6555 0.9664 0.5855   0.134215
 H 0.4855 0.9726 0.8043   0.11194
 H 0.6326 0.7661 0.5807   0.080663
 H 0.2492 0.0577 0.9787   0.138486
 H 0.7516 0.1183 0.0155   0.139425
 H 0.2572 0.2558 0.9763   0.089586
 H 0.7443 0.3154 0.0121   0.094217
 H 0.467 0.7716 0.7933   0.080268
 H 0.0285 0.5629 0.4295   0.16054
 H 0.9395 0.4275 0.4151   0.156825
 H 0.1314 0.5888 0.1883   0.142265
 H 0.9834 0.5491 0.0981   0.154652
 H 0.0223 0.4368 0.2549   0.162509
 H 0.8932 0.3743 0.1624   0.131651
 H 0.5124 0.6506 0.1994   0.066268
 H 0.3801 0.6667 0.4225   0.077368
 H 0.3526 0.8601 0.4177   0.128839
 H 0.4942 0.8445 0.1896   0.109117
 H 0.3445 0.0336 0.4145   0.134215
 H 0.5145 0.0274 0.1957   0.11194
 H 0.3674 0.2339 0.4193   0.080663
 H 0.7508 0.9423 0.0213   0.138473
 H 0.2484 0.8817 0.9845   0.139415
 H 0.7428 0.7442 0.0237   0.089586
 H 0.2557 0.6846 0.9879   0.094218
 H 0.533 0.2284 0.2067   0.080268
 C 0.9751 0.5102 0.54291   -0.366216
 C 0.9437 0.48 0.85195   -0.359753
 C 0.0503 0.5486 0.80172   -0.360153
 C 0.5186 0.3059 0.75514   0.199165
 C 0.5964 0.2964 0.62546   0.204654
 C 0.6113 0.1803 0.62729   -0.185098
 C 0.5289 0.1897 0.76124   -0.181458
 C 0.573 0.12203 0.69598   0.094908
 C 0.5698 0.99462 0.69465   0.101338
 C 0.6149 0.9286 0.62877   -0.202918
 C 0.5152 0.932 0.75702   -0.205161
 C 0.6009 0.8088 0.6263   0.185814
 C 0.3531 0.1088 0.98636   -0.193569
 C 0.6482 0.1443 0.008   -0.196047
 C 0.5004 0.0632 0.99885   0.07773
 C 0.3589 0.2274 0.98515   0.192337
 C 0.6429 0.2621 0.006   0.186668
 C 0.5045 0.8118 0.75006   0.181836
 C 0.0249 0.4898 0.45709   -0.366214
 C 0.0563 0.52 0.14805   -0.359753
 C 0.9497 0.4514 0.19828   -0.360152
 C 0.4814 0.6941 0.24486   0.199165
 C 0.4036 0.7036 0.37454   0.204654
 C 0.3887 0.8197 0.37271   -0.185097
 C 0.4711 0.8103 0.23876   -0.181458
 C 0.427 0.87797 0.30402   0.094908
 C 0.4302 0.00538 0.30535   0.101338
 C 0.3851 0.0714 0.37123   -0.202917
 C 0.4848 0.068 0.24298   -0.205161
 C 0.3991 0.1912 0.3737   0.185814
 C 0.6469 0.8912 0.01364   -0.193563
 C 0.3518 0.8557 0.992   -0.196043
 C 0.4996 0.9368 0.00115   0.077727
 C 0.6411 0.7726 0.01485   0.192336
 C 0.3571 0.7379 0.994   0.186667
 C 0.4955 0.1882 0.24994   0.181836
 S 0.77629 0.55254 0.52392   1.393062
 S 0.82292 0.57223 0.89352   1.401242
 S 0.20243 0.46992 0.77919   1.40806
 S 0.22371 0.44746 0.47608   1.393062
 S 0.17708 0.42777 0.10648   1.401242
 S 0.79757 0.53008 0.22081   1.40806
 N 0.501 0.30495 0.99588   -0.34906
 N 0.5503 0.36019 0.68798   -0.370126
 N 0.5444 0.74923 0.68535   -0.315462
 N 0.499 0.69505 0.00412   -0.34906
 N 0.4497 0.63981 0.31202   -0.370126
 N 0.4556 0.25077 0.31465   -0.315462
 O 0.74783 0.56365 0.61212   -0.704159
 O 0.7847 0.66075 0.48647   -0.639858
 O 0.65715 0.45359 0.46367   -0.710632
 O 0.7211 0.49684 0.937   -0.708881
 O 0.7209 0.61384 0.81744   -0.708825
 O 0.94172 0.66649 0.95497   -0.65347
 O 0.2964 0.44546 0.86532   -0.718059
 O 0.3058 0.55175 0.7405   -0.713724
 O 0.1145 0.36448 0.7195   -0.637633
 O 0.25217 0.43635 0.38788   -0.70416
 O 0.2153 0.33925 0.51353   -0.639859
 O 0.34285 0.54641 0.53633   -0.710632
 O 0.2789 0.50316 0.063   -0.708881
 O 0.2791 0.38616 0.18256   -0.708825
 O 0.05828 0.33351 0.04503   -0.65347
 O 0.7036 0.55454 0.13468   -0.718059
 O 0.6942 0.44825 0.2595   -0.713724
 O 0.8855 0.63552 0.2805   -0.637634
