{'_ref': 'TBD', '_srcid': 'CAKYAQ_clean', 'submitters': [{'name': 'Dalar Nazarian Jeff Camp and David Sholl', 'email': 'dalar@gatech.edu jcamp6@gatech.edu'}], '_method': 'VASP DFT with PBE;DDEC'}
data_CoH10C11N2O5
_symmetry_space_group_name_H-M   'P 1'
_cell_length_a   11.33580000
_cell_length_b   11.33580000
_cell_length_c   24.95410000
_cell_angle_alpha   90.00000000
_cell_angle_beta   90.00000000
_cell_angle_gamma   90.00000000
_symmetry_Int_Tables_number   1
_chemical_formula_structural   CoH10C11N2O5
_chemical_formula_sum   'Co8 H80 C88 N16 O40'
_cell_volume   3206.6108744
_cell_formula_units_Z   8
loop_
 _symmetry_equiv_pos_site_id
 _symmetry_equiv_pos_as_xyz
  1  'x, y, z'
loop_
 _atom_site_label
 _atom_site_fract_x
 _atom_site_fract_y
 _atom_site_fract_z
 _atom_site_charge
 Co 0.5995 0.4005 0.875   1.115938
 Co 0.4005 0.5995 0.375   1.115938
 Co 0.5995 0.5995 0.625   1.115938
 Co 0.4005 0.4005 0.125   1.115938
 Co 0.70759 0.5 0.75   1.193698
 Co 0.29241 0.5 0.25   1.193698
 Co 0.5 0.70759 0.5   1.193698
 Co 0.5 0.29241 0.0   1.193698
 H 0.557 0.5702 0.0389   0.337138
 H 0.8137 0.4936 0.9459   0.327297
 H 0.5823 0.751 0.9415   0.093089
 H 0.5705 0.9492 0.9654   0.099052
 H 0.6782 0.0444 0.8192   0.102391
 H 0.6977 0.8569 0.7949   0.108204
 H 0.7101 0.7246 0.0506   0.071923
 H 0.7553 0.6132 0.0827   0.066942
 H 0.8993 0.595 0.0217   0.061757
 H 0.8411 0.6922 0.9849   0.068586
 H 0.443 0.4298 0.5389   0.337138
 H 0.1863 0.5064 0.4459   0.327297
 H 0.4177 0.249 0.4415   0.093089
 H 0.4295 0.0508 0.4654   0.099052
 H 0.3218 0.9556 0.3192   0.102391
 H 0.3023 0.1431 0.2949   0.108204
 H 0.2899 0.2754 0.5506   0.071923
 H 0.2447 0.3868 0.5827   0.066942
 H 0.1007 0.405 0.5217   0.061757
 H 0.1589 0.3078 0.4849   0.068586
 H 0.4298 0.557 0.7889   0.337138
 H 0.5064 0.8137 0.6959   0.327297
 H 0.249 0.5823 0.6915   0.093089
 H 0.0508 0.5705 0.7154   0.099052
 H 0.9556 0.6782 0.5692   0.102391
 H 0.1431 0.6977 0.5449   0.108204
 H 0.2754 0.7101 0.8006   0.071923
 H 0.3868 0.7553 0.8327   0.066942
 H 0.405 0.8993 0.7717   0.061757
 H 0.3078 0.8411 0.7349   0.068586
 H 0.5702 0.443 0.2889   0.337138
 H 0.4936 0.1863 0.1959   0.327297
 H 0.751 0.4177 0.1915   0.093089
 H 0.9492 0.4295 0.2154   0.099052
 H 0.0444 0.3218 0.0692   0.102391
 H 0.8569 0.3023 0.0449   0.108204
 H 0.7246 0.2899 0.3006   0.071923
 H 0.6132 0.2447 0.3327   0.066942
 H 0.595 0.1007 0.2717   0.061757
 H 0.6922 0.1589 0.2349   0.068586
 H 0.443 0.5702 0.9611   0.337138
 H 0.1863 0.4936 0.0541   0.327297
 H 0.4177 0.751 0.0585   0.093089
 H 0.4295 0.9492 0.0346   0.099052
 H 0.3218 0.0444 0.1808   0.10239
 H 0.3023 0.8569 0.2051   0.108203
 H 0.2899 0.7246 0.9494   0.071924
 H 0.2447 0.6132 0.9173   0.066943
 H 0.1007 0.595 0.9783   0.061758
 H 0.1589 0.6922 0.0151   0.068586
 H 0.557 0.4298 0.4611   0.337138
 H 0.8137 0.5064 0.5541   0.327297
 H 0.5823 0.249 0.5585   0.093089
 H 0.5705 0.0508 0.5346   0.099052
 H 0.6782 0.9556 0.6808   0.10239
 H 0.6977 0.1431 0.7051   0.108203
 H 0.7101 0.2754 0.4494   0.071924
 H 0.7553 0.3868 0.4173   0.066943
 H 0.8993 0.405 0.4783   0.061758
 H 0.8411 0.3078 0.5151   0.068586
 H 0.5702 0.557 0.2111   0.337138
 H 0.4936 0.8137 0.3041   0.327297
 H 0.751 0.5823 0.3085   0.093089
 H 0.9492 0.5705 0.2846   0.099052
 H 0.0444 0.6782 0.4308   0.10239
 H 0.8569 0.6977 0.4551   0.108203
 H 0.7246 0.7101 0.1994   0.071924
 H 0.6132 0.7553 0.1673   0.066943
 H 0.595 0.8993 0.2283   0.061758
 H 0.6922 0.8411 0.2651   0.068586
 H 0.4298 0.443 0.7111   0.337138
 H 0.5064 0.1863 0.8041   0.327297
 H 0.249 0.4177 0.8085   0.093089
 H 0.0508 0.4295 0.7846   0.099052
 H 0.9556 0.3218 0.9308   0.10239
 H 0.1431 0.3023 0.9551   0.108203
 H 0.2754 0.2899 0.6994   0.071924
 H 0.3868 0.2447 0.6673   0.066943
 H 0.405 0.1007 0.7283   0.061758
 H 0.3078 0.1589 0.7651   0.068586
 C 0.6444 0.7785 0.8641   -0.121094
 C 0.6032 0.8093 0.9171   -0.1108
 C 0.5952 0.9299 0.9309   -0.057671
 C 0.6218 0.0199 0.8965   -0.117241
 C 0.6603 0.9858 0.844   -0.085484
 C 0.6713 0.8737 0.8294   -0.063958
 C 0.6485 0.6552 0.8494   0.656
 C 0.6043 0.1444 0.9115   0.693101
 C 0.6673 0.5063 0.9847   0.72099
 C 0.7303 0.6416 0.0479   0.056064
 C 0.8262 0.621 0.0053   0.047574
 C 0.3556 0.2215 0.3641   -0.121094
 C 0.3968 0.1907 0.4171   -0.1108
 C 0.4048 0.0701 0.4309   -0.057671
 C 0.3782 0.9801 0.3965   -0.117241
 C 0.3397 0.0142 0.344   -0.085484
 C 0.3287 0.1263 0.3294   -0.063958
 C 0.3515 0.3448 0.3494   0.656
 C 0.3957 0.8556 0.4115   0.693101
 C 0.3327 0.4937 0.4847   0.72099
 C 0.2697 0.3584 0.5479   0.056064
 C 0.1738 0.379 0.5053   0.047574
 C 0.2215 0.6444 0.6141   -0.121094
 C 0.1907 0.6032 0.6671   -0.1108
 C 0.0701 0.5952 0.6809   -0.057671
 C 0.9801 0.6218 0.6465   -0.117241
 C 0.0142 0.6603 0.594   -0.085484
 C 0.1263 0.6713 0.5794   -0.063958
 C 0.3448 0.6485 0.5994   0.656
 C 0.8556 0.6043 0.6615   0.693101
 C 0.4937 0.6673 0.7347   0.72099
 C 0.3584 0.7303 0.7979   0.056064
 C 0.379 0.8262 0.7553   0.047574
 C 0.7785 0.3556 0.1141   -0.121094
 C 0.8093 0.3968 0.1671   -0.1108
 C 0.9299 0.4048 0.1809   -0.057671
 C 0.0199 0.3782 0.1465   -0.117241
 C 0.9858 0.3397 0.094   -0.085484
 C 0.8737 0.3287 0.0794   -0.063958
 C 0.6552 0.3515 0.0994   0.656
 C 0.1444 0.3957 0.1615   0.693101
 C 0.5063 0.3327 0.2347   0.72099
 C 0.6416 0.2697 0.2979   0.056064
 C 0.621 0.1738 0.2553   0.047574
 C 0.3556 0.7785 0.1359   -0.121094
 C 0.3968 0.8093 0.0829   -0.1108
 C 0.4048 0.9299 0.0691   -0.057671
 C 0.3782 0.0199 0.1035   -0.117241
 C 0.3397 0.9858 0.156   -0.085485
 C 0.3287 0.8737 0.1706   -0.063958
 C 0.3515 0.6552 0.1506   0.656
 C 0.3957 0.1444 0.0885   0.693101
 C 0.3327 0.5063 0.0153   0.72099
 C 0.2697 0.6416 0.9521   0.056063
 C 0.1738 0.621 0.9947   0.047573
 C 0.6444 0.2215 0.6359   -0.121094
 C 0.6032 0.1907 0.5829   -0.1108
 C 0.5952 0.0701 0.5691   -0.057671
 C 0.6218 0.9801 0.6035   -0.117241
 C 0.6603 0.0142 0.656   -0.085485
 C 0.6713 0.1263 0.6706   -0.063958
 C 0.6485 0.3448 0.6506   0.656
 C 0.6043 0.8556 0.5885   0.693101
 C 0.6673 0.4937 0.5153   0.72099
 C 0.7303 0.3584 0.4521   0.056063
 C 0.8262 0.379 0.4947   0.047573
 C 0.7785 0.6444 0.3859   -0.121094
 C 0.8093 0.6032 0.3329   -0.1108
 C 0.9299 0.5952 0.3191   -0.057671
 C 0.0199 0.6218 0.3535   -0.117241
 C 0.9858 0.6603 0.406   -0.085485
 C 0.8737 0.6713 0.4206   -0.063958
 C 0.6552 0.6485 0.4006   0.656
 C 0.1444 0.6043 0.3385   0.693101
 C 0.5063 0.6673 0.2653   0.72099
 C 0.6416 0.7303 0.2021   0.056063
 C 0.621 0.8262 0.2447   0.047574
 C 0.2215 0.3556 0.8859   -0.121094
 C 0.1907 0.3968 0.8329   -0.1108
 C 0.0701 0.4048 0.8191   -0.057671
 C 0.9801 0.3782 0.8535   -0.117241
 C 0.0142 0.3397 0.906   -0.085485
 C 0.1263 0.3287 0.9206   -0.063958
 C 0.3448 0.3515 0.9006   0.656
 C 0.8556 0.3957 0.8385   0.693101
 C 0.4937 0.3327 0.7653   0.72099
 C 0.3584 0.2697 0.7021   0.056063
 C 0.379 0.1738 0.7447   0.047574
 N 0.6278 0.5701 0.0265   -0.506521
 N 0.7762 0.5286 0.9714   -0.448126
 N 0.3722 0.4299 0.5265   -0.506521
 N 0.2238 0.4714 0.4714   -0.448126
 N 0.4299 0.6278 0.7765   -0.506521
 N 0.4714 0.7762 0.7214   -0.448126
 N 0.5701 0.3722 0.2765   -0.506521
 N 0.5286 0.2238 0.2214   -0.448126
 N 0.3722 0.5701 0.9735   -0.50652
 N 0.2238 0.5286 0.0286   -0.448125
 N 0.6278 0.4299 0.4735   -0.50652
 N 0.7762 0.4714 0.5286   -0.448125
 N 0.5701 0.6278 0.2235   -0.50652
 N 0.5286 0.7762 0.2786   -0.448125
 N 0.4299 0.3722 0.7235   -0.50652
 N 0.4714 0.2238 0.7786   -0.448125
 O 0.7096 0.631 0.8076   -0.62056
 O 0.5943 0.5812 0.8769   -0.613935
 O 0.6012 0.2179 0.8755   -0.613377
 O 0.5963 0.1667 0.9616   -0.60687
 O 0.5994 0.4281 0.962   -0.699287
 O 0.2904 0.369 0.3076   -0.62056
 O 0.4057 0.4188 0.3769   -0.613935
 O 0.3988 0.7821 0.3755   -0.613377
 O 0.4037 0.8333 0.4616   -0.60687
 O 0.4006 0.5719 0.462   -0.699287
 O 0.369 0.7096 0.5576   -0.62056
 O 0.4188 0.5943 0.6269   -0.613935
 O 0.7821 0.6012 0.6255   -0.613377
 O 0.8333 0.5963 0.7116   -0.60687
 O 0.5719 0.5994 0.712   -0.699287
 O 0.631 0.2904 0.0576   -0.62056
 O 0.5812 0.4057 0.1269   -0.613935
 O 0.2179 0.3988 0.1255   -0.613377
 O 0.1667 0.4037 0.2116   -0.60687
 O 0.4281 0.4006 0.212   -0.699287
 O 0.2904 0.631 0.1924   -0.62056
 O 0.4057 0.5812 0.1231   -0.613935
 O 0.3988 0.2179 0.1245   -0.613377
 O 0.4037 0.1667 0.0384   -0.60687
 O 0.4006 0.4281 0.038   -0.699287
 O 0.7096 0.369 0.6924   -0.62056
 O 0.5943 0.4188 0.6231   -0.613935
 O 0.6012 0.7821 0.6245   -0.613377
 O 0.5963 0.8333 0.5384   -0.60687
 O 0.5994 0.5719 0.538   -0.699287
 O 0.631 0.7096 0.4424   -0.62056
 O 0.5812 0.5943 0.3731   -0.613935
 O 0.2179 0.6012 0.3745   -0.613377
 O 0.1667 0.5963 0.2884   -0.60687
 O 0.4281 0.5994 0.288   -0.699287
 O 0.369 0.2904 0.9424   -0.62056
 O 0.4188 0.4057 0.8731   -0.613935
 O 0.7821 0.3988 0.8745   -0.613377
 O 0.8333 0.4037 0.7884   -0.60687
 O 0.5719 0.4006 0.788   -0.699287
