{'_ref': 'TBD', '_srcid': 'CAKYAQ_clean', 'submitters': [{'name': 'Dalar Nazarian Jeff Camp and David Sholl', 'email': 'dalar@gatech.edu jcamp6@gatech.edu'}], '_method': 'VASP DFT with PBE;DDEC'}
data_GdH4C7(NO3)2
_symmetry_space_group_name_H-M   'P 1'
_cell_length_a   10.19000020
_cell_length_b   11.23200000
_cell_length_c   22.14000000
_cell_angle_alpha   90.00000000
_cell_angle_beta   96.86299773
_cell_angle_gamma   90.00000000
_symmetry_Int_Tables_number   1
_chemical_formula_structural   GdH4C7(NO3)2
_chemical_formula_sum   'Gd8 H32 C56 N16 O48'
_cell_volume   2515.85646669
_cell_formula_units_Z   8
loop_
 _symmetry_equiv_pos_site_id
 _symmetry_equiv_pos_as_xyz
  1  'x, y, z'
loop_
 _atom_site_label
 _atom_site_fract_x
 _atom_site_fract_y
 _atom_site_fract_z
 _atom_site_charge
 Gd 0.38895 0.68617 0.27453   2.080473
 Gd 0.74112 0.41173 0.43609   2.163004
 Gd 0.11105 0.18617 0.22547   2.080479
 Gd 0.75888 0.91173 0.06391   2.16301
 Gd 0.61105 0.31383 0.72547   2.080464
 Gd 0.25888 0.58827 0.56391   2.162908
 Gd 0.88895 0.81383 0.77453   2.080471
 Gd 0.24112 0.08827 0.93609   2.162914
 H 0.7501 0.3897 0.0743   0.136617
 H 0.9031 0.3692 0.0872   0.173039
 H 0.8059 0.2612 0.0879   0.165086
 H 0.0402 0.6687 0.2038   0.180871
 H 0.9301 0.5807 0.2197   0.139675
 H 0.9109 0.7184 0.2264   0.134166
 H 0.662 0.4705 0.1648   0.340391
 H 0.882 0.618 0.3386   0.311469
 H 0.7499 0.8897 0.4257   0.136616
 H 0.5969 0.8692 0.4128   0.173039
 H 0.6941 0.7612 0.4121   0.16506
 H 0.4598 0.1687 0.2962   0.180872
 H 0.5699 0.0807 0.2803   0.139677
 H 0.5891 0.2184 0.2736   0.134168
 H 0.838 0.9705 0.3352   0.340394
 H 0.618 0.118 0.1614   0.311442
 H 0.2499 0.6103 0.9257   0.136667
 H 0.0969 0.6308 0.9128   0.1731
 H 0.1941 0.7388 0.9121   0.165093
 H 0.9598 0.3313 0.7962   0.180871
 H 0.0699 0.4193 0.7803   0.139675
 H 0.0891 0.2816 0.7736   0.134166
 H 0.338 0.5295 0.8352   0.340405
 H 0.118 0.382 0.6614   0.311469
 H 0.2501 0.1103 0.5743   0.136667
 H 0.4031 0.1308 0.5872   0.1731
 H 0.3059 0.2388 0.5879   0.165067
 H 0.5402 0.8313 0.7038   0.180872
 H 0.4301 0.9193 0.7197   0.139677
 H 0.4109 0.7816 0.7264   0.134168
 H 0.162 0.0295 0.6648   0.340408
 H 0.382 0.882 0.8386   0.311441
 C 0.9211 0.3113 0.3206   0.74055
 C 0.8494 0.354 0.2625   0.010333
 C 0.7427 0.4271 0.2485   -0.105654
 C 0.6594 0.5048 0.2837   0.746161
 C 0.8121 0.3633 0.1644   0.462581
 C 0.8184 0.3441 0.0974   -0.455762
 C 0.3078 0.6528 0.4124   0.795614
 C 0.1743 0.6496 0.3762   0.03603
 C 0.0506 0.6287 0.3943   -0.070792
 C 0.9944 0.6149 0.4526   0.789234
 C 0.0375 0.6487 0.2939   0.472576
 C 0.9741 0.6546 0.2304   -0.458052
 C 0.2959 0.4076 0.2785   0.536301
 C 0.2367 0.4533 0.215   0.538803
 C 0.5789 0.8113 0.1794   0.740551
 C 0.6506 0.854 0.2375   0.010325
 C 0.7573 0.9271 0.2515   -0.105652
 C 0.8406 0.0048 0.2163   0.746152
 C 0.6879 0.8633 0.3356   0.462584
 C 0.6816 0.8441 0.4026   -0.455768
 C 0.1922 0.1528 0.0876   0.795618
 C 0.3257 0.1496 0.1238   0.036017
 C 0.4494 0.1287 0.1057   -0.070794
 C 0.5056 0.1149 0.0474   0.789224
 C 0.4625 0.1487 0.2061   0.472528
 C 0.5259 0.1546 0.2696   -0.458078
 C 0.2041 0.9076 0.2215   0.536247
 C 0.2633 0.9533 0.285   0.538792
 C 0.0789 0.6887 0.6794   0.740549
 C 0.1506 0.646 0.7375   0.010333
 C 0.2573 0.5729 0.7515   -0.105652
 C 0.3406 0.4952 0.7163   0.746159
 C 0.1879 0.6367 0.8356   0.462591
 C 0.1816 0.6559 0.9026   -0.455801
 C 0.6922 0.3472 0.5876   0.795615
 C 0.8257 0.3504 0.6238   0.03603
 C 0.9494 0.3713 0.6057   -0.070792
 C 0.0056 0.3851 0.5474   0.789233
 C 0.9625 0.3513 0.7061   0.472576
 C 0.0259 0.3454 0.7696   -0.458052
 C 0.7041 0.5924 0.7215   0.5363
 C 0.7633 0.5467 0.785   0.538804
 C 0.4211 0.1887 0.8206   0.740551
 C 0.3494 0.146 0.7625   0.010324
 C 0.2427 0.0729 0.7485   -0.10565
 C 0.1594 0.9952 0.7837   0.74615
 C 0.3121 0.1367 0.6644   0.462595
 C 0.3184 0.1559 0.5974   -0.455808
 C 0.8078 0.8472 0.9124   0.79562
 C 0.6743 0.8504 0.8762   0.036017
 C 0.5506 0.8713 0.8943   -0.070794
 C 0.4944 0.8851 0.9526   0.789223
 C 0.5375 0.8513 0.7939   0.472528
 C 0.4741 0.8454 0.7304   -0.458078
 C 0.7959 0.0924 0.7785   0.536246
 C 0.7367 0.0467 0.715   0.538793
 N 0.8948 0.3124 0.2084   -0.556362
 N 0.7229 0.4307 0.1862   -0.289362
 N 0.1646 0.6599 0.314   -0.553696
 N 0.966 0.6287 0.3415   -0.283619
 N 0.6052 0.8124 0.2916   -0.556362
 N 0.7771 0.9307 0.3138   -0.289398
 N 0.3354 0.1599 0.186   -0.55369
 N 0.534 0.1287 0.1585   -0.283637
 N 0.1052 0.6876 0.7916   -0.556363
 N 0.2771 0.5693 0.8138   -0.289369
 N 0.8354 0.3401 0.686   -0.553695
 N 0.034 0.3713 0.6585   -0.283619
 N 0.3948 0.1876 0.7084   -0.556362
 N 0.2229 0.0693 0.6862   -0.289405
 N 0.6646 0.8401 0.814   -0.55369
 N 0.466 0.8713 0.8415   -0.283637
 O 0.8789 0.3363 0.369   -0.781868
 O 0.0249 0.253 0.3178   -0.61111
 O 0.6858 0.5134 0.3412   -0.812374
 O 0.4029 0.6766 0.3838   -0.654669
 O 0.5709 0.5605 0.2526   -0.655912
 O 0.3205 0.6299 0.4681   -0.858967
 O 0.06 0.6354 0.5017   -0.684472
 O 0.8722 0.5852 0.4468   -0.760648
 O 0.3663 0.4786 0.3118   -0.613072
 O 0.2686 0.3035 0.2914   -0.574732
 O 0.2727 0.5565 0.2005   -0.583917
 O 0.1593 0.3856 0.184   -0.587709
 O 0.6211 0.8363 0.131   -0.781868
 O 0.4751 0.753 0.1822   -0.611121
 O 0.8142 0.0134 0.1588   -0.812372
 O 0.0971 0.1766 0.1162   -0.654705
 O 0.9291 0.0605 0.2474   -0.655923
 O 0.1795 0.1299 0.0319   -0.858967
 O 0.44 0.1354 0.9983   -0.684471
 O 0.6278 0.0852 0.0532   -0.760647
 O 0.1337 0.9786 0.1882   -0.613066
 O 0.2314 0.8035 0.2086   -0.574779
 O 0.2273 0.0565 0.2995   -0.583969
 O 0.3407 0.8856 0.316   -0.587743
 O 0.1211 0.6637 0.631   -0.781872
 O 0.9751 0.747 0.6822   -0.61111
 O 0.3142 0.4866 0.6588   -0.81237
 O 0.5971 0.3234 0.6162   -0.654668
 O 0.4291 0.4395 0.7474   -0.655912
 O 0.6795 0.3701 0.5319   -0.858971
 O 0.94 0.3646 0.4983   -0.684478
 O 0.1278 0.4148 0.5532   -0.76064
 O 0.6337 0.5214 0.6882   -0.613072
 O 0.7314 0.6965 0.7086   -0.574732
 O 0.7273 0.4435 0.7995   -0.583917
 O 0.8407 0.6144 0.816   -0.587709
 O 0.3789 0.1637 0.869   -0.781873
 O 0.5249 0.247 0.8178   -0.611121
 O 0.1858 0.9866 0.8412   -0.812368
 O 0.9029 0.8234 0.8838   -0.654705
 O 0.0709 0.9395 0.7526   -0.655922
 O 0.8205 0.8701 0.9681   -0.858972
 O 0.56 0.8646 0.0017   -0.684477
 O 0.3722 0.9148 0.9468   -0.76064
 O 0.8663 0.0214 0.8118   -0.613066
 O 0.7686 0.1965 0.7914   -0.574779
 O 0.7727 0.9435 0.7005   -0.583968
 O 0.6593 0.1144 0.684   -0.587743
