{'_ref': 'TBD', '_srcid': 'CAKYAQ_clean', 'submitters': [{'name': 'Dalar Nazarian Jeff Camp and David Sholl', 'email': 'dalar@gatech.edu jcamp6@gatech.edu'}], '_method': 'VASP DFT with PBE;DDEC'}
data_Zn4H90C144Cl3O19
_symmetry_space_group_name_H-M   'P 1'
_cell_length_a   10.91749986
_cell_length_b   21.46990043
_cell_length_c   21.46990000
_cell_angle_alpha   117.18750085
_cell_angle_beta   99.75880133
_cell_angle_gamma   99.75879857
_symmetry_Int_Tables_number   1
_chemical_formula_structural   Zn4H90C144Cl3O19
_chemical_formula_sum   'Zn4 H90 C144 Cl3 O19'
_cell_volume   4233.05290947
_cell_formula_units_Z   1
loop_
 _symmetry_equiv_pos_site_id
 _symmetry_equiv_pos_as_xyz
  1  'x, y, z'
loop_
 _atom_site_label
 _atom_site_fract_x
 _atom_site_fract_y
 _atom_site_fract_z
 _atom_site_charge
 Zn 0.27628 0.000160000000001 0.91378   1.205999
 Zn 0.3625 0.08622 0.08638   1.20502
 Zn 0.27612 0.91362 0.99984   1.206107
 Zn 0.53927 0.0 0.0   1.049402
 H 0.8421 0.0 0.7565   0.116888
 H 0.4883 0.9935 0.6541   0.074689
 H 0.4117 0.9996 0.7515   0.108008
 H 0.7655 0.0063 0.854   0.113849
 H 0.6874 0.8963 0.5728   0.129355
 H 0.9711 0.1293 0.5528   0.111164
 H 0.9894 0.2426 0.6528   0.112188
 H 0.7831 0.1406 0.7368   0.11354
 H 0.1777 0.9982 0.4292   0.106748
 H 0.6687 0.0093 0.4433   0.105354
 H 0.5507 0.0114 0.3428   0.128622
 H 0.8622 0.0046 0.2632   0.127617
 H 0.0297 0.8881 0.2438   0.116084
 H 0.1526 0.1091 0.3585   0.122475
 H 0.2524 0.109 0.2701   0.103533
 H 0.1296 0.8881 0.1556   0.099379
 H 0.2347 0.0095 0.6042   0.085596
 H 0.1771 0.9397 0.5222   0.029619
 H 0.5579 0.9754 0.6068   0.054606
 H 0.5197 0.0875 0.6771   0.117966
 H 0.3593 0.1234 0.6253   0.102624
 H 0.2754 0.9352 0.4331   0.070578
 H 0.4357 0.8992 0.4847   0.107151
 H 0.9174 0.8955 0.4254   0.019343
 H 0.9825 0.8742 0.4824   0.030117
 H 0.0211 0.7826 0.3646   0.056515
 H 0.6875 0.7699 0.4229   0.091113
 H 0.7811 0.743 0.5107   0.103278
 H 0.9948 0.7361 0.5257   0.094787
 H 0.1147 0.7557 0.4524   0.117441
 H 0.0856 0.2435 0.2435   0.116591
 H 0.8342 0.3459 0.3394   0.072422
 H 0.6602 0.2485 0.2481   0.106715
 H 0.9115 0.146 0.1523   0.113606
 H 0.1146 0.4272 0.3235   0.129922
 H 0.4183 0.4472 0.5765   0.11178
 H 0.3366 0.3472 0.5898   0.112086
 H 0.0463 0.2632 0.4038   0.11288
 H 0.7485 0.5708 0.569   0.105036
 H 0.2254 0.5567 0.566   0.106173
 H 0.2079 0.6572 0.6686   0.128389
 H 0.599 0.7368 0.7414   0.127964
 H 0.7859 0.7562 0.6443   0.115937
 H 0.7941 0.6415 0.7506   0.123115
 H 0.9823 0.7299 0.8389   0.104083
 H 0.974 0.8444 0.7325   0.099197
 H 0.6305 0.3958 0.4053   0.085298
 H 0.6549 0.4778 0.4175   0.02888
 H 0.9511 0.3932 0.3686   0.05612
 H 0.8426 0.3229 0.4104   0.119242
 H 0.734 0.3747 0.4981   0.10263
 H 0.8423 0.5669 0.5021   0.070741
 H 0.951 0.5153 0.4145   0.107494
 H 0.492 0.5746 0.4701   0.019574
 H 0.5001 0.5176 0.3918   0.029992
 H 0.6565 0.6354 0.418   0.056977
 H 0.2646 0.5771 0.347   0.091481
 H 0.2704 0.4893 0.2323   0.101967
 H 0.4691 0.4743 0.2104   0.095026
 H 0.6623 0.5476 0.3033   0.11729
 H 0.8421 0.7565 0.0   0.116608
 H 0.4948 0.6606 0.0065   0.074883
 H 0.4121 0.7519 0.000399999999999   0.108607
 H 0.7592 0.8477 0.9937   0.113997
 H 0.7911 0.6765 0.1037   0.130031
 H 0.8418 0.4235 0.8707   0.11088
 H 0.7468 0.4102 0.7574   0.112459
 H 0.6425 0.5962 0.8594   0.111495
 H 0.1795 0.431 0.0018   0.106944
 H 0.6594 0.434 0.9907   0.105914
 H 0.5393 0.3314 0.9886   0.127912
 H 0.8576 0.2586 0.9954   0.128937
 H 0.1416 0.3557 0.1119   0.117276
 H 0.0435 0.2494 0.8909   0.122999
 H 0.1434 0.1611 0.891   0.10336
 H 0.2415 0.2675 0.1119   0.09947
 H 0.2252 0.5947 0.9905   0.084942
 H 0.2374 0.5825 0.0603   0.029594
 H 0.5825 0.6314 0.0246   0.055231
 H 0.4322 0.5896 0.9125   0.117568
 H 0.2359 0.5019 0.8766   0.102855
 H 0.3402 0.4979 0.0648   0.070467
 H 0.5365 0.5855 0.1008   0.105775
 H 0.0219 0.5299 0.1045   0.019916
 H 0.1083 0.6082 0.1258   0.029519
 H 0.2385 0.582 0.2174   0.057364
 H 0.9176 0.653 0.2301   0.091141
 H 0.0381 0.7677 0.257   0.102907
 H 0.2587 0.7896 0.2639   0.095694
 H 0.359 0.6967 0.2443   0.118966
 C 0.755 0.0 0.755   -0.150749
 C 0.672 0.996 0.696   0.032823
 C 0.5446 0.9961 0.6947   -0.121882
 C 0.4991 0.9997 0.7526   -0.063783
 C 0.5812 0.0036 0.812   -0.14047
 C 0.71 0.004 0.814   -0.027492
 C 0.5053 0.000999999999998 0.8689   0.681778
 C 0.254 0.999 0.159   0.870657
 C 0.856 0.000999999999998 0.526   -0.206582
 C 0.789 0.937 0.521   0.251422
 C 0.734 0.941 0.577   -0.302909
 C 0.744 0.008 0.636   0.041667
 C 0.811 0.072 0.641   0.017598
 C 0.8664 0.0684 0.5858   0.069503
 C 0.933 0.132 0.59   -0.128468
 C 0.944 0.199 0.649   -0.079204
 C 0.888 0.203 0.705   -0.105644
 C 0.822 0.139 0.7   -0.128666
 C 0.9052 0.0042 0.4724   -0.061472
 C 0.0332 0.0012 0.4784   0.22603
 C 0.091 0.0 0.425   -0.256302
 C 0.0208 0.0018 0.3656   0.022723
 C 0.8925 0.0042 0.3593   0.035453
 C 0.836 0.006 0.413   0.038504
 C 0.708 0.009 0.407   -0.088976
 C 0.638 0.009 0.347   -0.157834
 C 0.695 0.008 0.294   0.138591
 C 0.8227 0.0047 0.2994   -0.177329
 C 0.075 0.9329 0.2491   -0.188354
 C 0.0824 0.9994 0.3098   0.123874
 C 0.1478 0.0648 0.3176   -0.169741
 C 0.207 0.0642 0.2648   0.027876
 C 0.2 0.9985 0.2045   -0.239978
 C 0.1345 0.9328 0.1967   0.022473
 C 0.202 0.993 0.552   0.22216
 C 0.494 0.991 0.587   0.097502
 C 0.47 0.056 0.627   -0.192316
 C 0.379 0.079 0.598   0.087016
 C 0.302 0.033 0.524   -0.461557
 C 0.325 0.966 0.483   0.127216
 C 0.42 0.945 0.513   -0.240863
 C 0.899 0.867 0.45   0.169016
 C 0.97 0.775 0.395   0.124004
 C 0.848 0.779 0.385   -0.510908
 C 0.774 0.766 0.428   0.107057
 C 0.83 0.75 0.48   -0.156765
 C 0.953 0.748 0.491   -0.002946
 C 0.028 0.759 0.447   -0.19374
 C 0.0 0.245 0.245   -0.152291
 C 0.976 0.304 0.3   0.033861
 C 0.8499 0.3053 0.3014   -0.119304
 C 0.7465 0.2474 0.2471   -0.062513
 C 0.7692 0.188 0.1916   -0.139298
 C 0.896 0.186 0.19   -0.027034
 C 0.6364 0.1311 0.1321   0.683182
 C 0.095 0.841 0.84   0.870033
 C 0.33 0.474 0.475   -0.206776
 C 0.268 0.479 0.416   0.251758
 C 0.157 0.423 0.364   -0.304826
 C 0.108 0.364 0.372   0.0409
 C 0.17 0.359 0.431   0.017882
 C 0.2806 0.4142 0.4826   0.067259
 C 0.343 0.41 0.542   -0.128673
 C 0.295 0.351 0.55   -0.07863
 C 0.183 0.295 0.498   -0.106796
 C 0.122 0.3 0.439   -0.126545
 C 0.4328 0.5276 0.5318   -0.061243
 C 0.5548 0.5216 0.5228   0.227074
 C 0.666 0.575 0.575   -0.256473
 C 0.6552 0.6344 0.6362   0.025421
 C 0.5332 0.6407 0.6449   0.033057
 C 0.423 0.587 0.593   0.040743
 C 0.301 0.593 0.602   -0.092802
 C 0.291 0.653 0.662   -0.155716
 C 0.401 0.706 0.714   0.138208
 C 0.5233 0.7006 0.7053   -0.177242
 C 0.8259 0.7509 0.6838   -0.189869
 C 0.7726 0.6902 0.6896   0.12297
 C 0.8302 0.6824 0.7472   -0.169109
 C 0.9422 0.7352 0.7994   0.027746
 C 0.9955 0.7955 0.794   -0.241975
 C 0.9378 0.8033 0.7361   0.025004
 C 0.65 0.448 0.441   0.224123
 C 0.907 0.413 0.404   0.098596
 C 0.843 0.373 0.429   -0.19284
 C 0.781 0.402 0.481   0.085723
 C 0.778 0.476 0.509   -0.459046
 C 0.842 0.517 0.483   0.125765
 C 0.907 0.487 0.432   -0.243819
 C 0.449 0.55 0.417   0.168975
 C 0.575 0.605 0.38   0.122686
 C 0.463 0.615 0.394   -0.510567
 C 0.346 0.572 0.338   0.107196
 C 0.35 0.52 0.27   -0.156064
 C 0.462 0.509 0.257   -0.002958
 C 0.581 0.553 0.312   -0.192984
 C 0.755 0.755 0.0   -0.149235
 C 0.676 0.7 0.004   0.032852
 C 0.5485 0.6986 0.0039   -0.122017
 C 0.4994 0.7529 0.000300000000003   -0.062645
 C 0.5776 0.8084 0.9964   -0.14082
 C 0.706 0.81 0.996   -0.027467
 C 0.5043 0.8679 0.999   0.679703
 C 0.255 0.16 0.000999999999998   0.863297
 C 0.855 0.525 0.999   -0.205016
 C 0.852 0.584 0.063   0.251312
 C 0.793 0.636 0.059   -0.306113
 C 0.736 0.628 0.992   0.039743
 C 0.739 0.569 0.928   0.019049
 C 0.798 0.5174 0.9316   0.067806
 C 0.801 0.458 0.868   -0.127308
 C 0.745 0.45 0.801   -0.079282
 C 0.685 0.502 0.797   -0.107248
 C 0.683 0.561 0.861   -0.125465
 C 0.901 0.4682 0.9958   -0.059924
 C 0.032 0.4772 0.9988   0.224826
 C 0.091 0.425 0.0   -0.257719
 C 0.019 0.3638 0.9982   0.023182
 C 0.8883 0.3551 0.9958   0.035826
 C 0.83 0.407 0.994   0.041077
 C 0.699 0.398 0.991   -0.093092
 C 0.629 0.338 0.991   -0.155021
 C 0.687 0.286 0.992   0.138373
 C 0.818 0.2947 0.9953   -0.179683
 C 0.1421 0.3162 0.0671   -0.190897
 C 0.083 0.3104 0.000599999999999   0.124018
 C 0.083 0.2528 0.9352   -0.169337
 C 0.1428 0.2006 0.9358   0.026698
 C 0.2015 0.206 0.0015   -0.235695
 C 0.2017 0.2639 0.0672   0.02235
 C 0.209 0.559 0.007   0.223504
 C 0.503 0.596 0.009   0.09553
 C 0.414 0.571 0.944   -0.191605
 C 0.3 0.519 0.921   0.085245
 C 0.269 0.491 0.967   -0.458496
 C 0.359 0.517 0.034   0.125572
 C 0.475 0.568 0.055   -0.238815
 C 0.032 0.583 0.133   0.165777
 C 0.195 0.62 0.225   0.122015
 C 0.069 0.606 0.221   -0.510595
 C 0.008 0.662 0.234   0.109331
 C 0.08 0.73 0.25   -0.156748
 C 0.205 0.743 0.252   -0.004702
 C 0.269 0.688 0.241   -0.194592
 Cl 0.578 0.995 0.205   -0.16132
 Cl 0.373 0.795 0.79   -0.161482
 Cl 0.583 0.21 0.005   -0.161301
 O 0.3982 0.000300000000003 0.8573   -0.543947
 O 0.5854 0.9995 0.9187   -0.599902
 O 0.2493 0.1016 0.9483   -0.751385
 O 0.3018 0.1544 0.053   -0.735569
 O 0.116 0.018 0.539   -0.168778
 O 0.829 0.892 0.488   -0.015194
 O 0.5409 0.1427 0.143   -0.546218
 O 0.6667 0.0813 0.0808   -0.600144
 O 0.301 0.0517 0.1533   -0.753266
 O 0.2488 0.947 0.1014   -0.737691
 O 0.577 0.461 0.479   -0.168996
 O 0.341 0.512 0.404   -0.014229
 O 0.3979 0.857 0.9997   -0.544449
 O 0.5859 0.9192 0.000500000000002   -0.598652
 O 0.1477 0.8467 0.8984   -0.753805
 O 0.1474 0.8986 0.8456   -0.736417
 O 0.098 0.521 0.982   -0.168491
 O 0.937 0.596 0.108   -0.011102
 O 0.36467 0.0 0.0   -1.277078
