{'_ref': 'TBD', '_srcid': 'CAKYAQ_clean', 'submitters': [{'name': 'Dalar Nazarian Jeff Camp and David Sholl', 'email': 'dalar@gatech.edu jcamp6@gatech.edu'}], '_method': 'VASP DFT with PBE;DDEC'}
data_ErP4Ru2H8(C2O7)2
_symmetry_space_group_name_H-M   'P 1'
_cell_length_a   9.53210022
_cell_length_b   9.53210000
_cell_length_c   15.45100000
_cell_angle_alpha   92.86509928
_cell_angle_beta   92.86509922
_cell_angle_gamma   99.04120239
_symmetry_Int_Tables_number   1
_chemical_formula_structural   ErP4Ru2H8(C2O7)2
_chemical_formula_sum   'Er2 P8 Ru4 H16 C8 O28'
_cell_volume   1382.33380345
_cell_formula_units_Z   2
loop_
 _symmetry_equiv_pos_site_id
 _symmetry_equiv_pos_as_xyz
  1  'x, y, z'
loop_
 _atom_site_label
 _atom_site_fract_x
 _atom_site_fract_y
 _atom_site_fract_z
 _atom_site_charge
 Er 0.01086 0.98914 0.75   1.653129
 Er 0.98914 0.01086 0.25   1.653128
 P 0.35393 0.04491 0.64596   1.327743
 P 0.65165 0.97627 0.65429   1.338052
 P 0.95509 0.64607 0.85404   1.327743
 P 0.02373 0.34835 0.84571   1.338052
 P 0.64607 0.95509 0.35404   1.327743
 P 0.34835 0.02373 0.34571   1.338052
 P 0.04491 0.35393 0.14596   1.327743
 P 0.97627 0.65165 0.15429   1.338052
 H 0.4204 0.8296 0.7325   0.395985
 H 0.472 0.159 0.8143   0.137262
 H 0.6316 0.1262 0.8165   0.133301
 H 0.579 0.2252 0.745   0.119145
 H 0.1704 0.5796 0.7675   0.395986
 H 0.841 0.528 0.6857   0.137262
 H 0.8738 0.3684 0.6835   0.133301
 H 0.7748 0.421 0.755   0.119146
 H 0.5796 0.1704 0.2675   0.395984
 H 0.528 0.841 0.1857   0.137261
 H 0.3684 0.8738 0.1835   0.133301
 H 0.421 0.7748 0.255   0.119145
 H 0.8296 0.4204 0.2325   0.395985
 H 0.159 0.472 0.3143   0.137261
 H 0.1262 0.6316 0.3165   0.133301
 H 0.2252 0.579 0.245   0.119146
 Ru 0.54568 0.12164 0.5019   1.12414
 Ru 0.87836 0.45432 0.9981   1.12414
 Ru 0.45432 0.87836 0.4981   1.124286
 Ru 0.12164 0.54568 0.0019   1.124286
 C 0.5047 0.0167 0.7197   -0.321359
 C 0.5506 0.1422 0.7787   -0.26055
 C 0.9833 0.4953 0.7803   -0.321359
 C 0.8578 0.4494 0.7213   -0.260551
 C 0.4953 0.9833 0.2803   -0.321359
 C 0.4494 0.8578 0.2213   -0.26055
 C 0.0167 0.5047 0.2197   -0.321359
 C 0.1422 0.5506 0.2787   -0.26055
 O 0.4086 0.1678 0.5896   -0.64871
 O 0.3089 0.9097 0.5861   -0.697459
 O 0.2331 0.0741 0.6995   -0.837206
 O 0.6913 0.1043 0.5987   -0.681155
 O 0.5944 0.8418 0.5942   -0.665695
 O 0.7726 0.955 0.7148   -0.826241
 O 0.4507 0.9001 0.7674   -0.463889
 O 0.8322 0.5914 0.9104   -0.648711
 O 0.0903 0.6911 0.9139   -0.697459
 O 0.9259 0.7669 0.8005   -0.837206
 O 0.8957 0.3087 0.9013   -0.681155
 O 0.1582 0.4056 0.9058   -0.665695
 O 0.045 0.2274 0.7852   -0.826241
 O 0.0999 0.5493 0.7326   -0.463889
 O 0.5914 0.8322 0.4104   -0.648719
 O 0.6911 0.0903 0.4139   -0.69745
 O 0.7669 0.9259 0.3005   -0.837207
 O 0.3087 0.8957 0.4013   -0.681164
 O 0.4056 0.1582 0.4058   -0.665686
 O 0.2274 0.045 0.2852   -0.826241
 O 0.5493 0.0999 0.2326   -0.463889
 O 0.1678 0.4086 0.0896   -0.648719
 O 0.9097 0.3089 0.0861   -0.69745
 O 0.0741 0.2331 0.1995   -0.837206
 O 0.1043 0.6913 0.0987   -0.681164
 O 0.8418 0.5944 0.0942   -0.665687
 O 0.955 0.7726 0.2148   -0.826241
 O 0.9001 0.4507 0.2674   -0.463889
