{'_ref': 'TBD', '_srcid': 'CAKYAQ_clean', 'submitters': [{'name': 'Dalar Nazarian Jeff Camp and David Sholl', 'email': 'dalar@gatech.edu jcamp6@gatech.edu'}], '_method': 'VASP DFT with PBE;DDEC'}
data_CoH11C14(NO2)2
_symmetry_space_group_name_H-M   'P 1'
_cell_length_a   8.26700000
_cell_length_b   13.34399986
_cell_length_c   14.72400000
_cell_angle_alpha   90.00000000
_cell_angle_beta   90.00000000
_cell_angle_gamma   105.84000183
_symmetry_Int_Tables_number   1
_chemical_formula_structural   CoH11C14(NO2)2
_chemical_formula_sum   'Co4 H44 C56 N8 O16'
_cell_volume   1562.59825662
_cell_formula_units_Z   4
loop_
 _symmetry_equiv_pos_site_id
 _symmetry_equiv_pos_as_xyz
  1  'x, y, z'
loop_
 _atom_site_label
 _atom_site_fract_x
 _atom_site_fract_y
 _atom_site_fract_z
 _atom_site_charge
 Co 0.3166 0.36953 0.08315   0.955061
 Co 0.1834 0.63047 0.58315   0.955061
 Co 0.6834 0.63047 0.91685   0.955061
 Co 0.8166 0.36953 0.41685   0.955061
 H 0.1202 0.6766 0.3008   0.093333
 H 0.2201 0.5846 0.0561   0.094026
 H 0.0085 0.7249 0.1194   0.082208
 H 0.1818 0.753 0.0696   0.069979
 H 0.2959 0.8556 0.191   0.086924
 H 0.1569 0.8933 0.1398   0.097881
 H 0.1146 0.8335 0.2322   0.085312
 H 0.5909 0.2681 0.1094   0.080614
 H 0.6719 0.1219 0.0842   0.133469
 H 0.2589 0.015 0.9358   0.128521
 H 0.1968 0.1685 0.9617   0.070538
 H 0.3798 0.3234 0.8008   0.093335
 H 0.2799 0.4154 0.5561   0.094026
 H 0.4915 0.2751 0.6194   0.082208
 H 0.3182 0.247 0.5696   0.069979
 H 0.2041 0.1444 0.691   0.086922
 H 0.3431 0.1067 0.6398   0.097881
 H 0.3854 0.1665 0.7322   0.085312
 H 0.9091 0.7319 0.6094   0.080614
 H 0.8281 0.8781 0.5842   0.133469
 H 0.2411 0.985 0.4358   0.128519
 H 0.3032 0.8315 0.4617   0.07054
 H 0.8798 0.3234 0.6992   0.093333
 H 0.7799 0.4154 0.9439   0.094027
 H 0.9915 0.2751 0.8806   0.082211
 H 0.8182 0.247 0.9304   0.06998
 H 0.7041 0.1444 0.809   0.086927
 H 0.8431 0.1067 0.8602   0.097877
 H 0.8854 0.1665 0.7678   0.085316
 H 0.4091 0.7319 0.8906   0.080615
 H 0.3281 0.8781 0.9158   0.133457
 H 0.7411 0.985 0.0642   0.128507
 H 0.8032 0.8315 0.0383   0.070542
 H 0.6202 0.6766 0.1992   0.093335
 H 0.7201 0.5846 0.4439   0.094027
 H 0.5085 0.7249 0.3806   0.082211
 H 0.6818 0.753 0.4304   0.06998
 H 0.7959 0.8556 0.309   0.086925
 H 0.6569 0.8933 0.3602   0.097877
 H 0.6146 0.8335 0.2678   0.085316
 H 0.0909 0.2681 0.3906   0.080615
 H 0.1719 0.1219 0.4158   0.133457
 H 0.7589 0.015 0.5642   0.128504
 H 0.6968 0.1685 0.5383   0.070544
 C 0.3208 0.394 0.2774   0.614915
 C 0.2524 0.4809 0.244   0.10157
 C 0.1567 0.6312 0.2633   -0.058096
 C 0.1686 0.6505 0.1712   0.008735
 C 0.2173 0.5766 0.1189   0.13177
 C 0.1681 0.5291 0.4024   0.719886
 C 0.129 0.7423 0.129   -0.081651
 C 0.1781 0.8392 0.1769   -0.289107
 C 0.5223 0.216 0.0738   0.217677
 C 0.5718 0.1279 0.0591   -0.199631
 C 0.476 0.0487 0.0079   0.090289
 C 0.3303 0.0658 0.9715   -0.221348
 C 0.2926 0.158 0.9887   0.167245
 C 0.1967 0.5475 0.3015   -0.137452
 C 0.1792 0.606 0.7774   0.614915
 C 0.2476 0.5191 0.744   0.10157
 C 0.3433 0.3688 0.7633   -0.058096
 C 0.3314 0.3495 0.6712   0.008736
 C 0.2827 0.4234 0.6189   0.13177
 C 0.3319 0.4709 0.9024   0.719886
 C 0.371 0.2577 0.629   -0.081651
 C 0.3219 0.1608 0.6769   -0.289106
 C 0.9777 0.784 0.5738   0.217676
 C 0.9282 0.8721 0.5591   -0.199631
 C 0.024 0.9513 0.5079   0.090289
 C 0.1697 0.9342 0.4715   -0.221347
 C 0.2074 0.842 0.4887   0.167244
 C 0.3033 0.4525 0.8015   -0.137452
 C 0.6792 0.606 0.7226   0.614915
 C 0.7476 0.5191 0.756   0.10157
 C 0.8433 0.3688 0.7367   -0.058095
 C 0.8314 0.3495 0.8288   0.008736
 C 0.7827 0.4234 0.8811   0.131772
 C 0.8319 0.4709 0.5976   0.719887
 C 0.871 0.2577 0.871   -0.081652
 C 0.8219 0.1608 0.8231   -0.289107
 C 0.4777 0.784 0.9262   0.217676
 C 0.4282 0.8721 0.9409   -0.199627
 C 0.524 0.9513 0.9921   0.090283
 C 0.6697 0.9342 0.0285   -0.221342
 C 0.7074 0.842 0.0113   0.167242
 C 0.8033 0.4525 0.6985   -0.137452
 C 0.8208 0.394 0.2226   0.614915
 C 0.7524 0.4809 0.256   0.10157
 C 0.6567 0.6312 0.2367   -0.058096
 C 0.6686 0.6505 0.3288   0.008737
 C 0.7173 0.5766 0.3811   0.131772
 C 0.6681 0.5291 0.0976   0.719887
 C 0.629 0.7423 0.371   -0.081652
 C 0.6781 0.8392 0.3231   -0.289107
 C 0.0223 0.216 0.4262   0.217676
 C 0.0718 0.1279 0.4409   -0.199627
 C 0.976 0.0487 0.4921   0.090282
 C 0.8303 0.0658 0.5285   -0.221341
 C 0.7926 0.158 0.5113   0.167241
 C 0.6967 0.5475 0.1985   -0.137452
 N 0.2601 0.4953 0.15346   -0.350613
 N 0.3822 0.2319 0.04042   -0.347258
 N 0.2399 0.5047 0.65346   -0.350613
 N 0.1178 0.7681 0.54042   -0.347257
 N 0.7399 0.5047 0.84654   -0.350613
 N 0.6178 0.7681 0.95958   -0.347257
 N 0.7601 0.4953 0.34654   -0.350613
 N 0.8822 0.2319 0.45958   -0.347257
 O 0.3377 0.32848 0.21819   -0.615693
 O 0.3585 0.39266 0.35778   -0.552219
 O 0.0674 0.44628 0.42838   -0.590037
 O 0.2431 0.60258 0.45249   -0.586846
 O 0.1623 0.67152 0.71819   -0.615693
 O 0.1415 0.60734 0.85778   -0.552219
 O 0.4326 0.55372 0.92838   -0.590037
 O 0.2569 0.39742 0.95249   -0.586846
 O 0.6623 0.67152 0.78181   -0.615693
 O 0.6415 0.60734 0.64222   -0.552219
 O 0.9326 0.55372 0.57162   -0.590037
 O 0.7569 0.39742 0.54751   -0.586846
 O 0.8377 0.32848 0.28181   -0.615693
 O 0.8585 0.39266 0.14222   -0.552219
 O 0.5674 0.44628 0.07162   -0.590037
 O 0.7431 0.60258 0.04751   -0.586846
