{'_ref': 'TBD', '_srcid': 'CAKYAQ_clean', 'submitters': [{'name': 'Dalar Nazarian Jeff Camp and David Sholl', 'email': 'dalar@gatech.edu jcamp6@gatech.edu'}], '_method': 'VASP DFT with PBE;DDEC'}
data_CoH4C6(N3O2)2
_symmetry_space_group_name_H-M   'P 1'
_cell_length_a   17.27150000
_cell_length_b   17.27150000
_cell_length_c   17.27150000
_cell_angle_alpha   90.00000000
_cell_angle_beta   90.00000000
_cell_angle_gamma   90.00000000
_symmetry_Int_Tables_number   1
_chemical_formula_structural   CoH4C6(N3O2)2
_chemical_formula_sum   'Co12 H48 C72 N72 O48'
_cell_volume   5152.16983763
_cell_formula_units_Z   12
loop_
 _symmetry_equiv_pos_site_id
 _symmetry_equiv_pos_as_xyz
  1  'x, y, z'
loop_
 _atom_site_label
 _atom_site_fract_x
 _atom_site_fract_y
 _atom_site_fract_z
 _atom_site_charge
 Co 0.0 0.5 0.25   0.815144
 Co 0.0 0.5 0.75   0.815144
 Co 0.25 0.0 0.5   0.815144
 Co 0.75 0.0 0.5   0.815144
 Co 0.5 0.25 0.0   0.815144
 Co 0.5 0.75 0.0   0.815144
 Co 0.5 0.0 0.25   0.815144
 Co 0.5 0.0 0.75   0.815144
 Co 0.0 0.25 0.5   0.815144
 Co 0.0 0.75 0.5   0.815144
 Co 0.25 0.5 0.0   0.815144
 Co 0.75 0.5 0.0   0.815144
 H 0.8863 0.3579 0.2129   0.106521
 H 0.1137 0.6421 0.2129   0.106521
 H 0.1137 0.3579 0.7871   0.106521
 H 0.8863 0.6421 0.7871   0.106521
 H 0.2129 0.8863 0.3579   0.106521
 H 0.2129 0.1137 0.6421   0.106521
 H 0.7871 0.1137 0.3579   0.106521
 H 0.7871 0.8863 0.6421   0.106521
 H 0.3579 0.2129 0.8863   0.106521
 H 0.6421 0.2129 0.1137   0.106521
 H 0.3579 0.7871 0.1137   0.106521
 H 0.6421 0.7871 0.8863   0.106521
 H 0.3579 0.8863 0.2129   0.106517
 H 0.6421 0.1137 0.2129   0.106517
 H 0.3579 0.1137 0.7871   0.106517
 H 0.6421 0.8863 0.7871   0.106517
 H 0.8863 0.2129 0.3579   0.106517
 H 0.1137 0.2129 0.6421   0.106517
 H 0.1137 0.7871 0.3579   0.106517
 H 0.8863 0.7871 0.6421   0.106517
 H 0.2129 0.3579 0.8863   0.106517
 H 0.2129 0.6421 0.1137   0.106517
 H 0.7871 0.3579 0.1137   0.106517
 H 0.7871 0.6421 0.8863   0.106517
 H 0.3863 0.8579 0.7129   0.106521
 H 0.6137 0.1421 0.7129   0.106521
 H 0.6137 0.8579 0.2871   0.106521
 H 0.3863 0.1421 0.2871   0.106521
 H 0.7129 0.3863 0.8579   0.106521
 H 0.7129 0.6137 0.1421   0.106521
 H 0.2871 0.6137 0.8579   0.106521
 H 0.2871 0.3863 0.1421   0.106521
 H 0.8579 0.7129 0.3863   0.106521
 H 0.1421 0.7129 0.6137   0.106521
 H 0.8579 0.2871 0.6137   0.106521
 H 0.1421 0.2871 0.3863   0.106521
 H 0.8579 0.3863 0.7129   0.106517
 H 0.1421 0.6137 0.7129   0.106517
 H 0.8579 0.6137 0.2871   0.106517
 H 0.1421 0.3863 0.2871   0.106517
 H 0.3863 0.7129 0.8579   0.106517
 H 0.6137 0.7129 0.1421   0.106517
 H 0.6137 0.2871 0.8579   0.106517
 H 0.3863 0.2871 0.1421   0.106517
 H 0.7129 0.8579 0.3863   0.106517
 H 0.7129 0.1421 0.6137   0.106517
 H 0.2871 0.8579 0.6137   0.106517
 H 0.2871 0.1421 0.3863   0.106517
 C 0.8735 0.509 0.1265   0.29258
 C 0.1265 0.491 0.1265   0.29258
 C 0.1265 0.509 0.8735   0.29258
 C 0.8735 0.491 0.8735   0.29258
 C 0.1265 0.8735 0.509   0.29258
 C 0.1265 0.1265 0.491   0.29258
 C 0.8735 0.1265 0.509   0.29258
 C 0.8735 0.8735 0.491   0.29258
 C 0.509 0.1265 0.8735   0.29258
 C 0.491 0.1265 0.1265   0.29258
 C 0.509 0.8735 0.1265   0.29258
 C 0.491 0.8735 0.8735   0.29258
 C 0.3735 0.009 0.6265   0.29258
 C 0.6265 0.991 0.6265   0.29258
 C 0.6265 0.009 0.3735   0.29258
 C 0.3735 0.991 0.3735   0.29258
 C 0.6265 0.3735 0.009   0.29258
 C 0.6265 0.6265 0.991   0.29258
 C 0.3735 0.6265 0.009   0.29258
 C 0.3735 0.3735 0.991   0.29258
 C 0.009 0.6265 0.3735   0.29258
 C 0.991 0.6265 0.6265   0.29258
 C 0.009 0.3735 0.6265   0.29258
 C 0.991 0.3735 0.3735   0.29258
 C 0.8745 0.4001 0.1798   0.046837
 C 0.1255 0.5999 0.1798   0.046837
 C 0.1255 0.4001 0.8202   0.046837
 C 0.8745 0.5999 0.8202   0.046837
 C 0.1798 0.8745 0.4001   0.046837
 C 0.1798 0.1255 0.5999   0.046837
 C 0.8202 0.1255 0.4001   0.046837
 C 0.8202 0.8745 0.5999   0.046837
 C 0.4001 0.1798 0.8745   0.046837
 C 0.5999 0.1798 0.1255   0.046837
 C 0.4001 0.8202 0.1255   0.046837
 C 0.5999 0.8202 0.8745   0.046837
 C 0.4001 0.8745 0.1798   0.04689
 C 0.5999 0.1255 0.1798   0.04689
 C 0.4001 0.1255 0.8202   0.04689
 C 0.5999 0.8745 0.8202   0.04689
 C 0.8745 0.1798 0.4001   0.04689
 C 0.1255 0.1798 0.5999   0.04689
 C 0.1255 0.8202 0.4001   0.04689
 C 0.8745 0.8202 0.5999   0.04689
 C 0.1798 0.4001 0.8745   0.04689
 C 0.1798 0.5999 0.1255   0.04689
 C 0.8202 0.4001 0.1255   0.04689
 C 0.8202 0.5999 0.8745   0.04689
 C 0.3745 0.9001 0.6798   0.046837
 C 0.6255 0.0999 0.6798   0.046837
 C 0.6255 0.9001 0.3202   0.046837
 C 0.3745 0.0999 0.3202   0.046837
 C 0.6798 0.3745 0.9001   0.046837
 C 0.6798 0.6255 0.0999   0.046837
 C 0.3202 0.6255 0.9001   0.046837
 C 0.3202 0.3745 0.0999   0.046837
 C 0.9001 0.6798 0.3745   0.046837
 C 0.0999 0.6798 0.6255   0.046837
 C 0.9001 0.3202 0.6255   0.046837
 C 0.0999 0.3202 0.3745   0.046837
 C 0.9001 0.3745 0.6798   0.04689
 C 0.0999 0.6255 0.6798   0.04689
 C 0.9001 0.6255 0.3202   0.04689
 C 0.0999 0.3745 0.3202   0.04689
 C 0.3745 0.6798 0.9001   0.04689
 C 0.6255 0.6798 0.0999   0.04689
 C 0.6255 0.3202 0.9001   0.04689
 C 0.3745 0.3202 0.0999   0.04689
 C 0.6798 0.9001 0.3745   0.04689
 C 0.6798 0.0999 0.6255   0.04689
 C 0.3202 0.9001 0.6255   0.04689
 C 0.3202 0.0999 0.3745   0.04689
 N 0.9106 0.4698 0.1807   -0.406356
 N 0.0894 0.5302 0.1807   -0.406356
 N 0.0894 0.4698 0.8193   -0.406356
 N 0.9106 0.5302 0.8193   -0.406356
 N 0.1807 0.9106 0.4698   -0.406356
 N 0.1807 0.0894 0.5302   -0.406356
 N 0.8193 0.0894 0.4698   -0.406356
 N 0.8193 0.9106 0.5302   -0.406356
 N 0.4698 0.1807 0.9106   -0.406356
 N 0.5302 0.1807 0.0894   -0.406356
 N 0.4698 0.8193 0.0894   -0.406356
 N 0.5302 0.8193 0.9106   -0.406356
 N 0.4698 0.9106 0.1807   -0.406362
 N 0.5302 0.0894 0.1807   -0.406362
 N 0.4698 0.0894 0.8193   -0.406362
 N 0.5302 0.9106 0.8193   -0.406362
 N 0.9106 0.1807 0.4698   -0.406362
 N 0.0894 0.1807 0.5302   -0.406362
 N 0.0894 0.8193 0.4698   -0.406362
 N 0.9106 0.8193 0.5302   -0.406362
 N 0.1807 0.4698 0.9106   -0.406362
 N 0.1807 0.5302 0.0894   -0.406362
 N 0.8193 0.4698 0.0894   -0.406362
 N 0.8193 0.5302 0.9106   -0.406362
 N 0.4106 0.9698 0.6807   -0.406356
 N 0.5894 0.0302 0.6807   -0.406356
 N 0.5894 0.9698 0.3193   -0.406356
 N 0.4106 0.0302 0.3193   -0.406356
 N 0.6807 0.4106 0.9698   -0.406356
 N 0.6807 0.5894 0.0302   -0.406356
 N 0.3193 0.5894 0.9698   -0.406356
 N 0.3193 0.4106 0.0302   -0.406356
 N 0.9698 0.6807 0.4106   -0.406356
 N 0.0302 0.6807 0.5894   -0.406356
 N 0.9698 0.3193 0.5894   -0.406356
 N 0.0302 0.3193 0.4106   -0.406356
 N 0.9698 0.4106 0.6807   -0.406362
 N 0.0302 0.5894 0.6807   -0.406362
 N 0.9698 0.5894 0.3193   -0.406362
 N 0.0302 0.4106 0.3193   -0.406362
 N 0.4106 0.6807 0.9698   -0.406362
 N 0.5894 0.6807 0.0302   -0.406362
 N 0.5894 0.3193 0.9698   -0.406362
 N 0.4106 0.3193 0.0302   -0.406362
 N 0.6807 0.9698 0.4106   -0.406362
 N 0.6807 0.0302 0.5894   -0.406362
 N 0.3193 0.9698 0.5894   -0.406362
 N 0.3193 0.0302 0.4106   -0.406362
 N 0.8931 0.5844 0.1069   0.575069
 N 0.1069 0.4156 0.1069   0.575069
 N 0.1069 0.5844 0.8931   0.575069
 N 0.8931 0.4156 0.8931   0.575069
 N 0.1069 0.8931 0.5844   0.575069
 N 0.1069 0.1069 0.4156   0.575069
 N 0.8931 0.1069 0.5844   0.575069
 N 0.8931 0.8931 0.4156   0.575069
 N 0.5844 0.1069 0.8931   0.575069
 N 0.4156 0.1069 0.1069   0.575069
 N 0.5844 0.8931 0.1069   0.575069
 N 0.4156 0.8931 0.8931   0.575069
 N 0.3931 0.0844 0.6069   0.575069
 N 0.6069 0.9156 0.6069   0.575069
 N 0.6069 0.0844 0.3931   0.575069
 N 0.3931 0.9156 0.3931   0.575069
 N 0.6069 0.3931 0.0844   0.575069
 N 0.6069 0.6069 0.9156   0.575069
 N 0.3931 0.6069 0.0844   0.575069
 N 0.3931 0.3931 0.9156   0.575069
 N 0.0844 0.6069 0.3931   0.575069
 N 0.9156 0.6069 0.6069   0.575069
 N 0.0844 0.3931 0.6069   0.575069
 N 0.9156 0.3931 0.3931   0.575069
 O 0.858 0.615 0.0553   -0.384633
 O 0.142 0.385 0.0553   -0.384633
 O 0.142 0.615 0.9447   -0.384633
 O 0.858 0.385 0.9447   -0.384633
 O 0.0553 0.858 0.615   -0.384633
 O 0.0553 0.142 0.385   -0.384633
 O 0.9447 0.142 0.615   -0.384633
 O 0.9447 0.858 0.385   -0.384633
 O 0.615 0.0553 0.858   -0.384633
 O 0.385 0.0553 0.142   -0.384633
 O 0.615 0.9447 0.142   -0.384633
 O 0.385 0.9447 0.858   -0.384633
 O 0.615 0.858 0.0553   -0.384634
 O 0.385 0.142 0.0553   -0.384634
 O 0.615 0.142 0.9447   -0.384634
 O 0.385 0.858 0.9447   -0.384634
 O 0.858 0.0553 0.615   -0.384634
 O 0.142 0.0553 0.385   -0.384634
 O 0.142 0.9447 0.615   -0.384634
 O 0.858 0.9447 0.385   -0.384634
 O 0.0553 0.615 0.858   -0.384634
 O 0.0553 0.385 0.142   -0.384634
 O 0.9447 0.615 0.142   -0.384634
 O 0.9447 0.385 0.858   -0.384634
 O 0.358 0.115 0.5553   -0.384633
 O 0.642 0.885 0.5553   -0.384633
 O 0.642 0.115 0.4447   -0.384633
 O 0.358 0.885 0.4447   -0.384633
 O 0.5553 0.358 0.115   -0.384633
 O 0.5553 0.642 0.885   -0.384633
 O 0.4447 0.642 0.115   -0.384633
 O 0.4447 0.358 0.885   -0.384633
 O 0.115 0.5553 0.358   -0.384633
 O 0.885 0.5553 0.642   -0.384633
 O 0.115 0.4447 0.642   -0.384633
 O 0.885 0.4447 0.358   -0.384633
 O 0.115 0.358 0.5553   -0.384634
 O 0.885 0.642 0.5553   -0.384634
 O 0.115 0.642 0.4447   -0.384634
 O 0.885 0.358 0.4447   -0.384634
 O 0.358 0.5553 0.115   -0.384634
 O 0.642 0.5553 0.885   -0.384634
 O 0.642 0.4447 0.115   -0.384634
 O 0.358 0.4447 0.885   -0.384634
 O 0.5553 0.115 0.358   -0.384634
 O 0.5553 0.885 0.642   -0.384634
 O 0.4447 0.115 0.642   -0.384634
 O 0.4447 0.885 0.358   -0.384634
