{'_ref': 'TBD', '_srcid': 'CAKYAQ_clean', 'submitters': [{'name': 'Dalar Nazarian Jeff Camp and David Sholl', 'email': 'dalar@gatech.edu jcamp6@gatech.edu'}], '_method': 'VASP DFT with PBE;DDEC'}
data_ZnH6(C3N2)2
_symmetry_space_group_name_H-M   'P 1'
_cell_length_a   15.66200000
_cell_length_b   15.66210000
_cell_length_c   18.20730000
_cell_angle_alpha   90.00000000
_cell_angle_beta   90.00000000
_cell_angle_gamma   90.00000000
_symmetry_Int_Tables_number   1
_chemical_formula_structural   ZnH6(C3N2)2
_chemical_formula_sum   'Zn16 H96 C96 N64'
_cell_volume   4466.24723425
_cell_formula_units_Z   16
loop_
 _symmetry_equiv_pos_site_id
 _symmetry_equiv_pos_as_xyz
  1  'x, y, z'
loop_
 _atom_site_label
 _atom_site_fract_x
 _atom_site_fract_y
 _atom_site_fract_z
 _atom_site_charge
 Zn 0.69657 0.86079 0.40341   0.735684
 Zn 0.50257 0.83501 0.68329   0.733668
 Zn 0.80343 0.13921 0.90341   0.735684
 Zn 0.99743 0.16499 0.18329   0.733668
 Zn 0.30343 0.36079 0.09659   0.735684
 Zn 0.49743 0.33501 0.81671   0.733668
 Zn 0.19657 0.63921 0.59659   0.735684
 Zn 0.00257 0.66499 0.31671   0.733668
 Zn 0.30343 0.13921 0.59659   0.735684
 Zn 0.49743 0.16499 0.31671   0.733668
 Zn 0.19657 0.86079 0.09659   0.735684
 Zn 0.00257 0.83501 0.81671   0.733668
 Zn 0.69657 0.63921 0.90341   0.735684
 Zn 0.50257 0.66499 0.18329   0.733668
 Zn 0.80343 0.36079 0.40341   0.735684
 Zn 0.99743 0.33501 0.68329   0.733668
 H 0.8905 0.94 0.4209   0.094954
 H 0.0194 0.8585 0.3885   0.10269
 H 0.6372 0.6637 0.4319   0.093972
 H 0.7304 0.9613 0.252   0.090445
 H 0.7652 0.9389 0.5583   0.091301
 H 0.5566 0.8181 0.5178   0.047805
 H 0.6842 0.9271 0.6715   0.08526
 H 0.5898 0.8124 0.2681   0.044947
 H 0.5583 0.5832 0.3396   0.08257
 H 0.6395 0.0749 0.208   0.096326
 H 0.5675 0.0126 0.4043   0.053359
 H 0.8175 0.7191 0.3477   0.051539
 H 0.6095 0.06 0.9209   0.094954
 H 0.4806 0.1415 0.8885   0.10269
 H 0.8628 0.3363 0.9319   0.093972
 H 0.7696 0.0387 0.752   0.090445
 H 0.7348 0.0611 0.0583   0.091301
 H 0.9434 0.1819 0.0178   0.047805
 H 0.8158 0.0729 0.1715   0.08526
 H 0.9102 0.1876 0.7681   0.044947
 H 0.9417 0.4168 0.8396   0.08257
 H 0.8605 0.9251 0.708   0.096327
 H 0.9325 0.9874 0.9043   0.053359
 H 0.6825 0.2809 0.8477   0.051539
 H 0.1095 0.44 0.0791   0.094954
 H 0.9806 0.3585 0.1115   0.10269
 H 0.3628 0.1637 0.0681   0.093972
 H 0.2696 0.4613 0.248   0.090445
 H 0.2348 0.4389 0.9417   0.091301
 H 0.4434 0.3181 0.9822   0.047805
 H 0.3158 0.4271 0.8285   0.08526
 H 0.4102 0.3124 0.2319   0.044947
 H 0.4417 0.0832 0.1604   0.08257
 H 0.3605 0.5749 0.292   0.096326
 H 0.4325 0.5126 0.0957   0.053359
 H 0.1825 0.2191 0.1523   0.051539
 H 0.3905 0.56 0.5791   0.094954
 H 0.5194 0.6415 0.6115   0.10269
 H 0.1372 0.8363 0.5681   0.093972
 H 0.2304 0.5387 0.748   0.090445
 H 0.2652 0.5611 0.4417   0.091301
 H 0.0566 0.6819 0.4822   0.047805
 H 0.1842 0.5729 0.3285   0.08526
 H 0.0898 0.6876 0.7319   0.044947
 H 0.0583 0.9168 0.6604   0.08257
 H 0.1395 0.4251 0.792   0.096327
 H 0.0675 0.4874 0.5957   0.053359
 H 0.3175 0.7809 0.6523   0.051539
 H 0.1095 0.06 0.5791   0.094955
 H 0.9806 0.1415 0.6115   0.10269
 H 0.3628 0.3363 0.5681   0.093972
 H 0.2696 0.0387 0.748   0.090445
 H 0.2348 0.0611 0.4417   0.091301
 H 0.4434 0.1819 0.4822   0.047805
 H 0.3158 0.0729 0.3285   0.08526
 H 0.4102 0.1876 0.7319   0.044947
 H 0.4417 0.4168 0.6604   0.082571
 H 0.3605 0.9251 0.792   0.096326
 H 0.4325 0.9874 0.5957   0.053359
 H 0.1825 0.2809 0.6523   0.051539
 H 0.3905 0.94 0.0791   0.094955
 H 0.5194 0.8585 0.1115   0.10269
 H 0.1372 0.6637 0.0681   0.093972
 H 0.2304 0.9613 0.248   0.090445
 H 0.2652 0.9389 0.9417   0.091301
 H 0.0566 0.8181 0.9822   0.047805
 H 0.1842 0.9271 0.8285   0.08526
 H 0.0898 0.8124 0.2319   0.044947
 H 0.0583 0.5832 0.1604   0.082571
 H 0.1395 0.0749 0.292   0.096327
 H 0.0675 0.0126 0.0957   0.053359
 H 0.3175 0.7191 0.1523   0.051539
 H 0.8905 0.56 0.9209   0.094955
 H 0.0194 0.6415 0.8885   0.10269
 H 0.6372 0.8363 0.9319   0.093972
 H 0.7304 0.5387 0.752   0.090445
 H 0.7652 0.5611 0.0583   0.091301
 H 0.5566 0.6819 0.0178   0.047805
 H 0.6842 0.5729 0.1715   0.08526
 H 0.5898 0.6876 0.7681   0.044947
 H 0.5583 0.9168 0.8396   0.082571
 H 0.6395 0.4251 0.708   0.096327
 H 0.5675 0.4874 0.9043   0.053359
 H 0.8175 0.7809 0.8477   0.051539
 H 0.6095 0.44 0.4209   0.094955
 H 0.4806 0.3585 0.3885   0.10269
 H 0.8628 0.1637 0.4319   0.093972
 H 0.7696 0.4613 0.252   0.090445
 H 0.7348 0.4389 0.5583   0.091301
 H 0.9434 0.3181 0.5178   0.047805
 H 0.8158 0.4271 0.6715   0.08526
 H 0.9102 0.3124 0.2681   0.044947
 H 0.9417 0.0832 0.3396   0.082571
 H 0.8605 0.5749 0.208   0.096327
 H 0.9325 0.5126 0.4043   0.053359
 H 0.6825 0.2191 0.3477   0.051539
 C 0.8909 0.8851 0.4014   -0.034749
 C 0.9633 0.84 0.3828   -0.042362
 C 0.6184 0.6846 0.387   -0.03027
 C 0.6857 0.9857 0.2783   -0.013878
 C 0.712 0.913 0.563   -0.041978
 C 0.5993 0.8482 0.5422   0.233146
 C 0.6671 0.9063 0.626   -0.024307
 C 0.592 0.7642 0.2978   0.239998
 C 0.5743 0.6402 0.3359   -0.032015
 C 0.6363 0.0493 0.2539   -0.042208
 C 0.5978 0.0147 0.3604   0.233896
 C 0.8517 0.7652 0.3609   0.233413
 C 0.6091 0.1149 0.9014   -0.034749
 C 0.5367 0.16 0.8828   -0.042362
 C 0.8816 0.3154 0.887   -0.03027
 C 0.8143 0.0143 0.7783   -0.013878
 C 0.788 0.087 0.063   -0.041978
 C 0.9007 0.1518 0.0422   0.233146
 C 0.8329 0.0937 0.126   -0.024307
 C 0.908 0.2358 0.7978   0.239998
 C 0.9257 0.3598 0.8359   -0.032015
 C 0.8637 0.9507 0.7539   -0.042208
 C 0.9022 0.9853 0.8604   0.233896
 C 0.6483 0.2348 0.8609   0.233413
 C 0.1091 0.3851 0.0986   -0.034749
 C 0.0367 0.34 0.1172   -0.042362
 C 0.3816 0.1846 0.113   -0.03027
 C 0.3143 0.4857 0.2217   -0.013878
 C 0.288 0.413 0.937   -0.041978
 C 0.4007 0.3482 0.9578   0.233146
 C 0.3329 0.4063 0.874   -0.024307
 C 0.408 0.2642 0.2022   0.239998
 C 0.4257 0.1402 0.1641   -0.032015
 C 0.3637 0.5493 0.2461   -0.042208
 C 0.4022 0.5147 0.1396   0.233896
 C 0.1483 0.2652 0.1391   0.233413
 C 0.3909 0.6149 0.5986   -0.034749
 C 0.4633 0.66 0.6172   -0.042362
 C 0.1184 0.8154 0.613   -0.03027
 C 0.1857 0.5143 0.7217   -0.013878
 C 0.212 0.587 0.437   -0.041978
 C 0.0993 0.6518 0.4578   0.233146
 C 0.1671 0.5937 0.374   -0.024307
 C 0.092 0.7358 0.7022   0.239998
 C 0.0743 0.8598 0.6641   -0.032015
 C 0.1363 0.4507 0.7461   -0.042208
 C 0.0978 0.4853 0.6396   0.233896
 C 0.3517 0.7348 0.6391   0.233413
 C 0.1091 0.1149 0.5986   -0.03475
 C 0.0367 0.16 0.6172   -0.042361
 C 0.3816 0.3154 0.613   -0.03027
 C 0.3143 0.0143 0.7217   -0.013878
 C 0.288 0.087 0.437   -0.041978
 C 0.4007 0.1518 0.4578   0.233146
 C 0.3329 0.0937 0.374   -0.024307
 C 0.408 0.2358 0.7022   0.239998
 C 0.4257 0.3598 0.6641   -0.032015
 C 0.3637 0.9507 0.7461   -0.042208
 C 0.4022 0.9853 0.6396   0.233896
 C 0.1483 0.2348 0.6391   0.233413
 C 0.3909 0.8851 0.0986   -0.03475
 C 0.4633 0.84 0.1172   -0.042361
 C 0.1184 0.6846 0.113   -0.03027
 C 0.1857 0.9857 0.2217   -0.013878
 C 0.212 0.913 0.937   -0.041978
 C 0.0993 0.8482 0.9578   0.233146
 C 0.1671 0.9063 0.874   -0.024307
 C 0.092 0.7642 0.2022   0.239998
 C 0.0743 0.6402 0.1641   -0.032015
 C 0.1363 0.0493 0.2461   -0.042208
 C 0.0978 0.0147 0.1396   0.233896
 C 0.3517 0.7652 0.1391   0.233413
 C 0.8909 0.6149 0.9014   -0.034749
 C 0.9633 0.66 0.8828   -0.042362
 C 0.6184 0.8154 0.887   -0.03027
 C 0.6857 0.5143 0.7783   -0.013878
 C 0.712 0.587 0.063   -0.041978
 C 0.5993 0.6518 0.0422   0.233146
 C 0.6671 0.5937 0.126   -0.024307
 C 0.592 0.7358 0.7978   0.239998
 C 0.5743 0.8598 0.8359   -0.032015
 C 0.6363 0.4507 0.7539   -0.042208
 C 0.5978 0.4853 0.8604   0.233896
 C 0.8517 0.7348 0.8609   0.233413
 C 0.6091 0.3851 0.4014   -0.034749
 C 0.5367 0.34 0.3828   -0.042362
 C 0.8816 0.1846 0.387   -0.03027
 C 0.8143 0.4857 0.2783   -0.013878
 C 0.788 0.413 0.563   -0.041978
 C 0.9007 0.3482 0.5422   0.233146
 C 0.8329 0.4063 0.626   -0.024307
 C 0.908 0.2642 0.2978   0.239998
 C 0.9257 0.1402 0.3359   -0.032015
 C 0.8637 0.5493 0.2539   -0.042208
 C 0.9022 0.5147 0.3604   0.233896
 C 0.6483 0.2652 0.3609   0.233413
 N 0.8199 0.8373 0.387   -0.382129
 N 0.6302 0.7638 0.3618   -0.387194
 N 0.6615 0.962 0.3458   -0.396618
 N 0.6677 0.8762 0.5077   -0.382561
 N 0.5943 0.8648 0.6124   -0.381976
 N 0.5574 0.6921 0.2791   -0.377337
 N 0.5802 0.0701 0.3085   -0.383578
 N 0.9363 0.7636 0.3549   -0.391814
 N 0.6801 0.1627 0.887   -0.382129
 N 0.8698 0.2362 0.8618   -0.387194
 N 0.8385 0.038 0.8458   -0.396618
 N 0.8323 0.1238 0.0077   -0.382561
 N 0.9057 0.1352 0.1124   -0.381976
 N 0.9426 0.3079 0.7791   -0.377337
 N 0.9198 0.9299 0.8085   -0.383578
 N 0.5637 0.2364 0.8549   -0.391814
 N 0.1801 0.3373 0.113   -0.38213
 N 0.3698 0.2638 0.1382   -0.387194
 N 0.3385 0.462 0.1542   -0.396618
 N 0.3323 0.3762 0.9923   -0.382561
 N 0.4057 0.3648 0.8876   -0.381976
 N 0.4426 0.1921 0.2209   -0.377337
 N 0.4198 0.5701 0.1915   -0.383578
 N 0.0637 0.2636 0.1451   -0.391814
 N 0.3199 0.6627 0.613   -0.38213
 N 0.1302 0.7362 0.6382   -0.387194
 N 0.1615 0.538 0.6542   -0.396618
 N 0.1677 0.6238 0.4923   -0.382561
 N 0.0943 0.6352 0.3876   -0.381976
 N 0.0574 0.8079 0.7209   -0.377337
 N 0.0802 0.4299 0.6915   -0.383578
 N 0.4363 0.7364 0.6451   -0.391814
 N 0.1801 0.1627 0.613   -0.382129
 N 0.3698 0.2362 0.6382   -0.387194
 N 0.3385 0.038 0.6542   -0.396618
 N 0.3323 0.1238 0.4923   -0.382561
 N 0.4057 0.1352 0.3876   -0.381976
 N 0.4426 0.3079 0.7209   -0.377337
 N 0.4198 0.9299 0.6915   -0.383578
 N 0.0637 0.2364 0.6451   -0.391814
 N 0.3199 0.8373 0.113   -0.382129
 N 0.1302 0.7638 0.1382   -0.387194
 N 0.1615 0.962 0.1542   -0.396618
 N 0.1677 0.8762 0.9923   -0.382561
 N 0.0943 0.8648 0.8876   -0.381976
 N 0.0574 0.6921 0.2209   -0.377337
 N 0.0802 0.0701 0.1915   -0.383578
 N 0.4363 0.7636 0.1451   -0.391814
 N 0.8199 0.6627 0.887   -0.382129
 N 0.6302 0.7362 0.8618   -0.387194
 N 0.6615 0.538 0.8458   -0.396618
 N 0.6677 0.6238 0.0077   -0.382561
 N 0.5943 0.6352 0.1124   -0.381976
 N 0.5574 0.8079 0.7791   -0.377337
 N 0.5802 0.4299 0.8085   -0.383578
 N 0.9363 0.7364 0.8549   -0.391814
 N 0.6801 0.3373 0.387   -0.382129
 N 0.8698 0.2638 0.3618   -0.387194
 N 0.8385 0.462 0.3458   -0.396618
 N 0.8323 0.3762 0.5077   -0.382561
 N 0.9057 0.3648 0.6124   -0.381976
 N 0.9426 0.1921 0.2791   -0.377337
 N 0.9198 0.5701 0.3085   -0.383578
 N 0.5637 0.2636 0.3549   -0.391814
