{'_ref': 'TBD', '_srcid': 'CAKYAQ_clean', 'submitters': [{'name': 'Dalar Nazarian Jeff Camp and David Sholl', 'email': 'dalar@gatech.edu jcamp6@gatech.edu'}], '_method': 'VASP DFT with PBE;DDEC'}
data_CdH15C15SN9O4
_symmetry_space_group_name_H-M   'P 1'
_cell_length_a   9.24800052
_cell_length_b   11.21599990
_cell_length_c   11.87500000
_cell_angle_alpha   79.63900094
_cell_angle_beta   74.73599922
_cell_angle_gamma   88.30100198
_symmetry_Int_Tables_number   1
_chemical_formula_structural   CdH15C15SN9O4
_chemical_formula_sum   'Cd2 H30 C30 S2 N18 O8'
_cell_volume   1168.70964541
_cell_formula_units_Z   2
loop_
 _symmetry_equiv_pos_site_id
 _symmetry_equiv_pos_as_xyz
  1  'x, y, z'
loop_
 _atom_site_label
 _atom_site_fract_x
 _atom_site_fract_y
 _atom_site_fract_z
 _atom_site_charge
 Cd 0.0 0.0 0.0   1.165569
 Cd 0.0 0.0 0.5   1.025822
 H 0.6437 0.0581 0.6285   0.085874
 H 0.7894 0.1086 0.2888   0.112719
 H 0.5605 0.213 0.231   0.131577
 H 0.4111 0.1808 0.3307   0.13386
 H 0.2905 0.3641 0.2793   0.133337
 H 0.1341 0.5285 0.2708   0.122344
 H 0.2318 0.6412 0.1943   0.121939
 H 0.9872 0.7065 0.6078   0.089799
 H 0.1056 0.8296 0.2705   0.101681
 H 0.4347 0.68 0.3236   0.110926
 H 0.6775 0.3799 0.3684   0.106716
 H 0.756 0.5637 0.4187   0.104473
 H 0.6464 0.6733 0.428   0.090514
 H 0.0129 0.6969 0.0358   0.094937
 H 0.7511 0.8588 0.2677   0.106519
 H 0.3563 0.9419 0.3715   0.08587
 H 0.2106 0.8914 0.7112   0.11272
 H 0.4395 0.787 0.769   0.131588
 H 0.5889 0.8192 0.6693   0.13386
 H 0.7095 0.6359 0.7207   0.133335
 H 0.8659 0.4715 0.7292   0.122344
 H 0.7682 0.3588 0.8057   0.121946
 H 0.0128 0.2935 0.3922   0.089796
 H 0.8944 0.1704 0.7295   0.101681
 H 0.5653 0.32 0.6764   0.110924
 H 0.3225 0.6201 0.6316   0.106715
 H 0.244 0.4363 0.5813   0.104473
 H 0.3536 0.3267 0.572   0.090513
 H 0.9871 0.3031 0.9642   0.094943
 H 0.2489 0.1412 0.7323   0.106518
 C 0.648 0.0811 0.5484   0.287019
 C 0.729 0.1071 0.3653   0.15253
 C 0.509 0.2195 0.3121   -0.099092
 C 0.489 0.3514 0.321   0.082748
 C 0.3625 0.4083 0.297   -0.170409
 C 0.3434 0.5303 0.2993   0.083608
 C 0.2043 0.5905 0.2723   -0.096715
 C 0.0267 0.7103 0.5267   0.29057
 C 0.0893 0.779 0.344   0.149314
 C 0.4482 0.5975 0.3241   -0.190575
 C 0.5942 0.418 0.3495   -0.185398
 C 0.5755 0.5421 0.35   0.076049
 C 0.6951 0.6172 0.3772   -0.090165
 C 0.9425 0.7107 0.104   0.304702
 C 0.8023 0.7997 0.2278   0.172076
 C 0.352 0.9189 0.4516   0.287016
 C 0.271 0.8929 0.6347   0.152528
 C 0.491 0.7805 0.6879   -0.099096
 C 0.511 0.6486 0.679   0.082748
 C 0.6375 0.5917 0.703   -0.170405
 C 0.6566 0.4697 0.7007   0.083609
 C 0.7957 0.4095 0.7277   -0.096718
 C 0.9733 0.2897 0.4733   0.290567
 C 0.9107 0.221 0.656   0.149312
 C 0.5518 0.4025 0.6759   -0.190575
 C 0.4058 0.582 0.6505   -0.185397
 C 0.4245 0.4579 0.65   0.076049
 C 0.3049 0.3828 0.6228   -0.090165
 C 0.0575 0.2893 0.896   0.304701
 C 0.1977 0.2003 0.7722   0.172077
 S 0.8456 0.8811 0.8069   1.752519
 S 0.1544 0.1189 0.1931   1.752518
 N 0.5947 0.1546 0.3921   0.159483
 N 0.5391 0.139 0.5128   -0.39085
 N 0.765 0.0568 0.4644   -0.442972
 N 0.1308 0.665 0.3604   0.155194
 N 0.0916 0.6201 0.4806   -0.364712
 N 0.0221 0.8111 0.4453   -0.45481
 N 0.7886 0.6833 0.2687   0.190129
 N 0.8794 0.6225 0.1892   -0.365928
 N 0.8992 0.8222 0.1215   -0.476569
 N 0.4053 0.8454 0.6079   0.159484
 N 0.4609 0.861 0.4872   -0.39085
 N 0.235 0.9432 0.5356   -0.442972
 N 0.8692 0.335 0.6396   0.155195
 N 0.9084 0.3799 0.5194   -0.36471
 N 0.9779 0.1889 0.5547   -0.45481
 N 0.2114 0.3167 0.7313   0.190129
 N 0.1206 0.3775 0.8108   -0.365927
 N 0.1008 0.1778 0.8785   -0.476569
 O 0.8548 0.9084 0.682   -0.786099
 O 0.8519 0.7517 0.8401   -0.814488
 O 0.9681 0.9403 0.8319   -0.85274
 O 0.7013 0.9131 0.8751   -0.817335
 O 0.1452 0.0916 0.318   -0.786098
 O 0.1481 0.2483 0.1599   -0.814488
 O 0.0319 0.0597 0.1681   -0.85274
 O 0.2987 0.0869 0.1249   -0.817331
