{'_ref': 'TBD', '_srcid': 'CAKYAQ_clean', 'submitters': [{'name': 'Dalar Nazarian Jeff Camp and David Sholl', 'email': 'dalar@gatech.edu jcamp6@gatech.edu'}], '_method': 'VASP DFT with PBE;DDEC'}
data_Zn2H22C39N4(O4F3)2
_symmetry_space_group_name_H-M   'P 1'
_cell_length_a   12.60499985
_cell_length_b   13.27110019
_cell_length_c   13.27110000
_cell_angle_alpha   85.31260207
_cell_angle_beta   83.36809996
_cell_angle_gamma   83.36810198
_symmetry_Int_Tables_number   1
_chemical_formula_structural   Zn2H22C39N4(O4F3)2
_chemical_formula_sum   'Zn4 H44 C78 N8 O16 F12'
_cell_volume   2185.14153298
_cell_formula_units_Z   2
loop_
 _symmetry_equiv_pos_site_id
 _symmetry_equiv_pos_as_xyz
  1  'x, y, z'
loop_
 _atom_site_label
 _atom_site_fract_x
 _atom_site_fract_y
 _atom_site_fract_z
 _atom_site_charge
 Zn 0.17123 0.17273 0.27303   0.839716
 Zn 0.32877 0.72697 0.82727   0.839718
 Zn 0.82877 0.82727 0.72697   0.839716
 Zn 0.67123 0.27303 0.17273   0.839718
 H 0.4057 0.1866 0.2894   0.075464
 H 0.5417 0.1137 0.3765   0.123588
 H 0.3369 0.9523 0.5447   0.11803
 H 0.2045 0.0303 0.4541   0.087263
 H 0.9821 0.2319 0.4221   0.094924
 H 0.9147 0.3595 0.5201   0.125286
 H 0.148 0.521 0.394   0.126399
 H 0.2094 0.3892 0.2964   0.091997
 H 0.0579 0.8682 0.3   0.095781
 H 0.9578 0.7358 0.2984   0.083681
 H 0.7098 0.9276 0.221   0.121102
 H 0.0943 0.7106 0.8134   0.075464
 H 0.9583 0.6235 0.8863   0.123588
 H 0.1631 0.4553 0.0477   0.118031
 H 0.2955 0.5459 0.9697   0.087263
 H 0.5179 0.5779 0.7681   0.094922
 H 0.5853 0.4799 0.6405   0.125284
 H 0.352 0.606 0.479   0.1264
 H 0.2906 0.7036 0.6108   0.091998
 H 0.4421 0.7 0.1318   0.09578
 H 0.5422 0.7016 0.2642   0.083681
 H 0.7902 0.779 0.0724   0.121102
 H 0.5943 0.8134 0.7106   0.075464
 H 0.4583 0.8863 0.6235   0.123589
 H 0.6631 0.0477 0.4553   0.11803
 H 0.7955 0.9697 0.5459   0.087265
 H 0.0179 0.7681 0.5779   0.094927
 H 0.0853 0.6405 0.4799   0.12529
 H 0.852 0.479 0.606   0.126402
 H 0.7906 0.6108 0.7036   0.091998
 H 0.9421 0.1318 0.7   0.095782
 H 0.0422 0.2642 0.7016   0.083682
 H 0.2902 0.0724 0.779   0.121102
 H 0.9057 0.2894 0.1866   0.075464
 H 0.0417 0.3765 0.1137   0.123589
 H 0.8369 0.5447 0.9523   0.118031
 H 0.7045 0.4541 0.0303   0.087265
 H 0.4821 0.4221 0.2319   0.094925
 H 0.4147 0.5201 0.3595   0.125288
 H 0.648 0.394 0.521   0.126402
 H 0.7094 0.2964 0.3892   0.091999
 H 0.5579 0.3 0.8682   0.095782
 H 0.4578 0.2984 0.7358   0.083682
 H 0.2098 0.221 0.9276   0.121102
 C 0.3908 0.1371 0.3411   0.196916
 C 0.4732 0.0937 0.3939   -0.180213
 C 0.4571 0.0229 0.4705   0.104062
 C 0.3537 0.000100000000003 0.4917   -0.19473
 C 0.2743 0.0466 0.4362   0.165944
 C 0.0163 0.2909 0.4159   0.186925
 C 0.9753 0.3675 0.4743   -0.185732
 C 0.0209 0.457 0.4678   0.100673
 C 0.1121 0.463 0.4004   -0.193831
 C 0.149 0.383 0.343   0.176917
 C 0.0142 0.0675 0.2611   0.682512
 C 0.9446 0.9822 0.2668   -0.092571
 C 0.9869 0.8817 0.2857   -0.041152
 C 0.927 0.8017 0.2837   -0.163907
 C 0.8228 0.8171 0.2607   0.075348
 C 0.7796 0.9153 0.2389   -0.127846
 C 0.8396 0.9973 0.2435   -0.041357
 C 0.7834 0.1028 0.2316   0.701636
 C 0.813 0.6255 0.2653   0.696612
 C 0.1092 0.6589 0.8629   0.196916
 C 0.0268 0.6061 0.9063   -0.180213
 C 0.0429 0.5295 0.9771   0.104062
 C 0.1463 0.5083 0.9999   -0.19473
 C 0.2257 0.5638 0.9534   0.165944
 C 0.4837 0.5841 0.7091   0.186938
 C 0.5247 0.5257 0.6325   -0.185733
 C 0.4791 0.5322 0.543   0.100669
 C 0.3879 0.5996 0.537   -0.19383
 C 0.351 0.657 0.617   0.176918
 C 0.4858 0.7389 0.9325   0.682512
 C 0.5554 0.7332 0.0178   -0.092571
 C 0.5131 0.7143 0.1183   -0.041152
 C 0.573 0.7163 0.1983   -0.163907
 C 0.6772 0.7393 0.1829   0.075348
 C 0.7204 0.7611 0.0847   -0.127845
 C 0.6604 0.7565 0.0027   -0.041357
 C 0.7166 0.7684 0.8972   0.701636
 C 0.687 0.7347 0.3745   0.696612
 C 0.6092 0.8629 0.6589   0.196917
 C 0.5268 0.9063 0.6061   -0.180212
 C 0.5429 0.9771 0.5295   0.104061
 C 0.6463 0.9999 0.5083   -0.19473
 C 0.7257 0.9534 0.5638   0.165944
 C 0.9837 0.7091 0.5841   0.186925
 C 0.0247 0.6325 0.5257   -0.185732
 C 0.9791 0.543 0.5322   0.100674
 C 0.8879 0.537 0.5996   -0.193831
 C 0.851 0.617 0.657   0.176918
 C 0.9858 0.9325 0.7389   0.682512
 C 0.0554 0.0178 0.7332   -0.092571
 C 0.0131 0.1183 0.7143   -0.041152
 C 0.073 0.1983 0.7163   -0.163906
 C 0.1772 0.1829 0.7393   0.075348
 C 0.2204 0.0847 0.7611   -0.127846
 C 0.1604 0.0027 0.7565   -0.041358
 C 0.2166 0.8972 0.7684   0.701636
 C 0.187 0.3745 0.7347   0.696613
 C 0.8908 0.3411 0.1371   0.196916
 C 0.9732 0.3939 0.0937   -0.180212
 C 0.9571 0.4705 0.0229   0.104061
 C 0.8537 0.4917 0.000100000000003   -0.19473
 C 0.7743 0.4362 0.0466   0.165944
 C 0.5163 0.4159 0.2909   0.186938
 C 0.4753 0.4743 0.3675   -0.185733
 C 0.5209 0.4678 0.457   0.100669
 C 0.6121 0.4004 0.463   -0.19383
 C 0.649 0.343 0.383   0.176919
 C 0.5142 0.2611 0.0675   0.682512
 C 0.4446 0.2668 0.9822   -0.092571
 C 0.4869 0.2857 0.8817   -0.041153
 C 0.427 0.2837 0.8017   -0.163906
 C 0.3228 0.2607 0.8171   0.075348
 C 0.2796 0.2389 0.9153   -0.127845
 C 0.3396 0.2435 0.9973   -0.041358
 C 0.2834 0.2316 0.1028   0.701636
 C 0.313 0.2653 0.6255   0.696612
 C 0.75 0.7308 0.2692   -0.307874
 C 0.25 0.2692 0.7308   -0.307874
 N 0.2922 0.11335 0.35865   -0.322779
 N 0.1037 0.29595 0.34955   -0.321023
 N 0.2078 0.64135 0.88665   -0.322778
 N 0.3963 0.65045 0.70405   -0.321028
 N 0.7078 0.88665 0.64135   -0.322779
 N 0.8963 0.70405 0.65045   -0.321023
 N 0.7922 0.35865 0.11335   -0.322778
 N 0.6037 0.34955 0.29595   -0.321028
 O 0.9989 0.14286 0.19996   -0.60555
 O 0.0776 0.05861 0.32127   -0.590008
 O 0.7844 0.16156 0.29594   -0.659922
 O 0.7386 0.12768 0.15784   -0.569649
 O 0.5011 0.80004 0.85714   -0.60555
 O 0.4224 0.67873 0.94139   -0.590009
 O 0.7156 0.70406 0.83844   -0.659921
 O 0.7614 0.84216 0.87232   -0.569649
 O 0.0011 0.85714 0.80004   -0.60555
 O 0.9224 0.94139 0.67873   -0.590008
 O 0.2156 0.83844 0.70406   -0.659922
 O 0.2614 0.87232 0.84216   -0.569649
 O 0.4989 0.19996 0.14286   -0.60555
 O 0.5776 0.32127 0.05861   -0.590009
 O 0.2844 0.29594 0.16156   -0.659921
 O 0.2386 0.15784 0.12768   -0.569649
 F 0.89078 0.62421 0.18633   -0.204995
 F 0.8641 0.59699 0.34757   -0.223282
 F 0.75212 0.55441 0.25335   -0.198306
 F 0.60922 0.81367 0.37579   -0.204995
 F 0.6359 0.65243 0.40301   -0.223282
 F 0.74788 0.74665 0.44559   -0.198306
 F 0.10922 0.37579 0.81367   -0.204995
 F 0.1359 0.40301 0.65243   -0.223282
 F 0.24788 0.44559 0.74665   -0.198306
 F 0.39078 0.18633 0.62421   -0.204995
 F 0.3641 0.34757 0.59699   -0.223282
 F 0.25212 0.25335 0.55441   -0.198306
