{'_ref': 'TBD', '_srcid': 'CAKYAQ_clean', 'submitters': [{'name': 'Dalar Nazarian Jeff Camp and David Sholl', 'email': 'dalar@gatech.edu jcamp6@gatech.edu'}], '_method': 'VASP DFT with PBE;DDEC'}
data_CrH4C8O5
_symmetry_space_group_name_H-M   'P 1'
_cell_length_a   6.77800004
_cell_length_b   7.70050031
_cell_length_c   10.56700000
_cell_angle_alpha   111.36799925
_cell_angle_beta   103.48399872
_cell_angle_gamma   89.99999813
_symmetry_Int_Tables_number   1
_chemical_formula_structural   CrH4C8O5
_chemical_formula_sum   'Cr2 H8 C16 O10'
_cell_volume   497.260404501
_cell_formula_units_Z   2
loop_
 _symmetry_equiv_pos_site_id
 _symmetry_equiv_pos_as_xyz
  1  'x, y, z'
loop_
 _atom_site_label
 _atom_site_fract_x
 _atom_site_fract_y
 _atom_site_fract_z
 _atom_site_charge
 Cr 0.0 0.0 0.0   1.668781
 Cr 0.5 0.0 0.0   1.669043
 H 0.2006 0.8983 0.3374   0.125169
 H 0.6574 0.0491 0.425   0.107539
 H 0.2994 0.5609 0.6626   0.125522
 H 0.8426 0.6241 0.575   0.108168
 H 0.7994 0.1017 0.6626   0.125169
 H 0.3426 0.9509 0.575   0.107541
 H 0.7006 0.4391 0.3374   0.125522
 H 0.1574 0.3759 0.425   0.108169
 C 0.9173 0.9694 0.3616   -0.104819
 C 0.1169 0.9407 0.4052   -0.054523
 C 0.8004 0.0287 0.4564   -0.064718
 C 0.8286 0.9365 0.2132   0.718448
 C 0.5827 0.6078 0.6384   -0.105152
 C 0.3831 0.5355 0.5948   -0.055425
 C 0.6996 0.5723 0.5436   -0.064698
 C 0.6714 0.7233 0.7868   0.717962
 C 0.0827 0.0306 0.6384   -0.104822
 C 0.8831 0.0593 0.5948   -0.054515
 C 0.1996 0.9713 0.5436   -0.06471
 C 0.1714 0.0635 0.7868   0.718448
 C 0.4173 0.3922 0.3616   -0.105155
 C 0.6169 0.4645 0.4052   -0.055416
 C 0.3004 0.4277 0.4564   -0.06469
 C 0.3286 0.2767 0.2132   0.717962
 O 0.9376 0.8835 0.1256   -0.600148
 O 0.6429 0.9611 0.1724   -0.592317
 O 0.5624 0.7579 0.8744   -0.600225
 O 0.8571 0.7887 0.8276   -0.59156
 O 0.0624 0.1165 0.8744   -0.600148
 O 0.3571 0.0389 0.8276   -0.592317
 O 0.4376 0.2421 0.1256   -0.600225
 O 0.1429 0.2113 0.1724   -0.591561
 O 0.25 0.8808 0.0   -0.738149
 O 0.75 0.1192 0.0   -0.738149
