{'_ref': 'TBD', '_srcid': 'CAKYAQ_clean', 'submitters': [{'name': 'Dalar Nazarian Jeff Camp and David Sholl', 'email': 'dalar@gatech.edu jcamp6@gatech.edu'}], '_method': 'VASP DFT with PBE;DDEC'}
data_ZnH5C6(N2O)2
_symmetry_space_group_name_H-M   'P 1'
_cell_length_a   11.87390000
_cell_length_b   11.87389996
_cell_length_c   25.49400000
_cell_angle_alpha   90.00000000
_cell_angle_beta   90.00000000
_cell_angle_gamma   120.00000010
_symmetry_Int_Tables_number   1
_chemical_formula_structural   ZnH5C6(N2O)2
_chemical_formula_sum   'Zn12 H60 C72 N48 O24'
_cell_volume   3112.82987208
_cell_formula_units_Z   12
loop_
 _symmetry_equiv_pos_site_id
 _symmetry_equiv_pos_as_xyz
  1  'x, y, z'
loop_
 _atom_site_label
 _atom_site_fract_x
 _atom_site_fract_y
 _atom_site_fract_z
 _atom_site_charge
 Zn 0.41315 0.42694 0.06271   0.832026
 Zn 0.57306 0.98621 0.06271   0.832026
 Zn 0.01379 0.58685 0.06271   0.832027
 Zn 0.57306 0.58685 0.43729   0.832026
 Zn 0.41315 0.98621 0.43729   0.832026
 Zn 0.01379 0.42694 0.43729   0.832026
 Zn 0.58685 0.57306 0.93729   0.832026
 Zn 0.42694 0.01379 0.93729   0.832026
 Zn 0.98621 0.41315 0.93729   0.832027
 Zn 0.42694 0.41315 0.56271   0.832026
 Zn 0.58685 0.01379 0.56271   0.832026
 Zn 0.98621 0.57306 0.56271   0.832026
 H 0.3983 0.3906 0.2607   0.088678
 H 0.6094 0.0077 0.2607   0.088678
 H 0.9923 0.6017 0.2607   0.088678
 H 0.6094 0.6017 0.2393   0.088678
 H 0.3983 0.0077 0.2393   0.088678
 H 0.9923 0.3906 0.2393   0.088678
 H 0.6017 0.6094 0.7393   0.088678
 H 0.3906 0.9923 0.7393   0.088678
 H 0.0077 0.3983 0.7393   0.088678
 H 0.3906 0.3983 0.7607   0.088678
 H 0.6017 0.9923 0.7607   0.088678
 H 0.0077 0.6094 0.7607   0.088678
 H 0.2247 0.3935 0.9719   0.086891
 H 0.6065 0.8312 0.9719   0.086891
 H 0.1688 0.7753 0.9719   0.086891
 H 0.6065 0.7753 0.5281   0.086891
 H 0.2247 0.8312 0.5281   0.086891
 H 0.1688 0.3935 0.5281   0.086891
 H 0.7753 0.6065 0.0281   0.086891
 H 0.3935 0.1688 0.0281   0.086891
 H 0.8312 0.2247 0.0281   0.086891
 H 0.3935 0.2247 0.4719   0.086891
 H 0.7753 0.1688 0.4719   0.086891
 H 0.8312 0.6065 0.4719   0.086891
 H 0.3954 0.1225 0.1667   0.095331
 H 0.8775 0.2729 0.1667   0.095331
 H 0.7271 0.6046 0.1667   0.095331
 H 0.8775 0.6046 0.3333   0.095331
 H 0.3954 0.2729 0.3333   0.095331
 H 0.7271 0.1225 0.3333   0.095331
 H 0.6046 0.8775 0.8333   0.095331
 H 0.1225 0.7271 0.8333   0.095331
 H 0.2729 0.3954 0.8333   0.095331
 H 0.1225 0.3954 0.6667   0.095331
 H 0.6046 0.7271 0.6667   0.095331
 H 0.2729 0.8775 0.6667   0.095331
 H 0.244 0.466 0.146   0.345122
 H 0.534 0.778 0.146   0.345122
 H 0.222 0.756 0.146   0.345122
 H 0.534 0.756 0.354   0.345122
 H 0.244 0.778 0.354   0.345122
 H 0.222 0.466 0.354   0.345122
 H 0.756 0.534 0.854   0.345122
 H 0.466 0.222 0.854   0.345122
 H 0.778 0.244 0.854   0.345122
 H 0.466 0.244 0.646   0.345122
 H 0.756 0.222 0.646   0.345122
 H 0.778 0.534 0.646   0.345122
 H 0.131 0.497 0.154   0.358898
 H 0.503 0.634 0.154   0.358898
 H 0.366 0.869 0.154   0.358898
 H 0.503 0.869 0.346   0.358898
 H 0.131 0.634 0.346   0.358898
 H 0.366 0.497 0.346   0.358898
 H 0.869 0.503 0.846   0.358898
 H 0.497 0.366 0.846   0.358898
 H 0.634 0.131 0.846   0.358898
 H 0.497 0.131 0.654   0.358898
 H 0.869 0.366 0.654   0.358898
 H 0.634 0.503 0.654   0.358898
 C 0.4071 0.3489 0.1599   0.675249
 C 0.6511 0.0582 0.1599   0.675249
 C 0.9418 0.5929 0.1599   0.675249
 C 0.6511 0.5929 0.3401   0.675249
 C 0.4071 0.0582 0.3401   0.675249
 C 0.9418 0.3489 0.3401   0.675249
 C 0.5929 0.6511 0.8401   0.675249
 C 0.3489 0.9418 0.8401   0.675249
 C 0.0582 0.4071 0.8401   0.675249
 C 0.3489 0.4071 0.6599   0.675249
 C 0.5929 0.9418 0.6599   0.675249
 C 0.0582 0.6511 0.6599   0.675249
 C 0.4026 0.2696 0.206   -0.121773
 C 0.7304 0.133 0.206   -0.121773
 C 0.867 0.5974 0.206   -0.121773
 C 0.7304 0.5974 0.294   -0.121773
 C 0.4026 0.133 0.294   -0.121773
 C 0.867 0.2696 0.294   -0.121773
 C 0.5974 0.7304 0.794   -0.121773
 C 0.2696 0.867 0.794   -0.121773
 C 0.133 0.4026 0.794   -0.121773
 C 0.2696 0.4026 0.706   -0.121773
 C 0.5974 0.867 0.706   -0.121773
 C 0.133 0.7304 0.706   -0.121773
 C 0.3997 0.3135 0.2563   -0.054172
 C 0.6865 0.0862 0.2563   -0.054172
 C 0.9138 0.6003 0.2563   -0.054171
 C 0.6865 0.6003 0.2437   -0.054172
 C 0.3997 0.0862 0.2437   -0.054172
 C 0.9138 0.3135 0.2437   -0.054172
 C 0.6003 0.6865 0.7437   -0.054172
 C 0.3135 0.9138 0.7437   -0.054172
 C 0.0862 0.3997 0.7437   -0.054171
 C 0.3135 0.3997 0.7563   -0.054172
 C 0.6003 0.9138 0.7563   -0.054172
 C 0.0862 0.6865 0.7563   -0.054172
 C 0.1655 0.4476 0.0799   0.659691
 C 0.5524 0.7179 0.0799   0.659691
 C 0.2821 0.8345 0.0799   0.65969
 C 0.5524 0.8345 0.4201   0.659691
 C 0.1655 0.7179 0.4201   0.659691
 C 0.2821 0.4476 0.4201   0.659691
 C 0.8345 0.5524 0.9201   0.659691
 C 0.4476 0.2821 0.9201   0.659691
 C 0.7179 0.1655 0.9201   0.659691
 C 0.4476 0.1655 0.5799   0.659691
 C 0.8345 0.2821 0.5799   0.659691
 C 0.7179 0.5524 0.5799   0.659691
 C 0.1929 0.413 0.0018   0.281318
 C 0.587 0.7799 0.0018   0.281318
 C 0.2201 0.8071 0.0018   0.281317
 C 0.587 0.8071 0.4982   0.281318
 C 0.1929 0.7799 0.4982   0.281318
 C 0.2201 0.413 0.4982   0.281317
 C 0.8071 0.587 0.9982   0.281318
 C 0.413 0.2201 0.9982   0.281318
 C 0.7799 0.1929 0.9982   0.281318
 C 0.413 0.1929 0.5018   0.281318
 C 0.8071 0.2201 0.5018   0.281318
 C 0.7799 0.587 0.5018   0.281318
 C 0.3987 0.1553 0.2002   -0.048655
 C 0.8447 0.2434 0.2002   -0.048655
 C 0.7566 0.6013 0.2002   -0.048655
 C 0.8447 0.6013 0.2998   -0.048655
 C 0.3987 0.2434 0.2998   -0.048655
 C 0.7566 0.1553 0.2998   -0.048655
 C 0.6013 0.8447 0.7998   -0.048655
 C 0.1553 0.7566 0.7998   -0.048655
 C 0.2434 0.3987 0.7998   -0.048655
 C 0.1553 0.3987 0.7002   -0.048655
 C 0.6013 0.7566 0.7002   -0.048655
 C 0.2434 0.8447 0.7002   -0.048655
 N 0.0764 0.4601 0.0531   -0.426419
 N 0.5399 0.6163 0.0531   -0.426419
 N 0.3837 0.9236 0.0531   -0.426419
 N 0.5399 0.9236 0.4469   -0.426419
 N 0.0764 0.6163 0.4469   -0.426419
 N 0.3837 0.4601 0.4469   -0.426419
 N 0.9236 0.5399 0.9469   -0.426419
 N 0.4601 0.3837 0.9469   -0.426419
 N 0.6163 0.0764 0.9469   -0.426419
 N 0.4601 0.0764 0.5531   -0.426419
 N 0.9236 0.3837 0.5531   -0.426419
 N 0.6163 0.5399 0.5531   -0.426419
 N 0.2423 0.4195 0.0504   -0.545211
 N 0.5805 0.8228 0.0504   -0.545211
 N 0.1772 0.7577 0.0504   -0.545211
 N 0.5805 0.7577 0.4496   -0.545211
 N 0.2423 0.8228 0.4496   -0.545211
 N 0.1772 0.4195 0.4496   -0.545211
 N 0.7577 0.5805 0.9496   -0.545211
 N 0.4195 0.1772 0.9496   -0.545211
 N 0.8228 0.2423 0.9496   -0.545211
 N 0.4195 0.2423 0.5504   -0.545211
 N 0.7577 0.1772 0.5504   -0.545211
 N 0.8228 0.5805 0.5504   -0.545211
 N 0.1766 0.4605 0.1331   -0.748795
 N 0.5395 0.7161 0.1331   -0.748795
 N 0.2839 0.8234 0.1331   -0.748795
 N 0.5395 0.8234 0.3669   -0.748795
 N 0.1766 0.7161 0.3669   -0.748795
 N 0.2839 0.4605 0.3669   -0.748795
 N 0.8234 0.5395 0.8669   -0.748795
 N 0.4605 0.2839 0.8669   -0.748795
 N 0.7161 0.1766 0.8669   -0.748795
 N 0.4605 0.1766 0.6331   -0.748795
 N 0.8234 0.2839 0.6331   -0.748795
 N 0.7161 0.5395 0.6331   -0.748795
 N 0.0967 0.4366 0.000700000000002   -0.277823
 N 0.5634 0.6601 0.000700000000002   -0.277823
 N 0.3399 0.9033 0.000700000000002   -0.277823
 N 0.5634 0.9033 0.4993   -0.277823
 N 0.0967 0.6601 0.4993   -0.277823
 N 0.3399 0.4366 0.4993   -0.277823
 N 0.9033 0.5634 0.9993   -0.277823
 N 0.4366 0.3399 0.9993   -0.277823
 N 0.6601 0.0967 0.9993   -0.277823
 N 0.4366 0.0967 0.5007   -0.277823
 N 0.9033 0.3399 0.5007   -0.277823
 N 0.6601 0.5634 0.5007   -0.277823
 O 0.4127 0.3073 0.1144   -0.592981
 O 0.6927 0.1054 0.1144   -0.592981
 O 0.8946 0.5873 0.1144   -0.592982
 O 0.6927 0.5873 0.3856   -0.592981
 O 0.4127 0.1054 0.3856   -0.592981
 O 0.8946 0.3073 0.3856   -0.592981
 O 0.5873 0.6927 0.8856   -0.592981
 O 0.3073 0.8946 0.8856   -0.592981
 O 0.1054 0.4127 0.8856   -0.592982
 O 0.3073 0.4127 0.6144   -0.592981
 O 0.5873 0.8946 0.6144   -0.592981
 O 0.1054 0.6927 0.6144   -0.592981
 O 0.4031 0.4504 0.1658   -0.607374
 O 0.5496 0.9527 0.1658   -0.607374
 O 0.0473 0.5969 0.1658   -0.607375
 O 0.5496 0.5969 0.3342   -0.607375
 O 0.4031 0.9527 0.3342   -0.607374
 O 0.0473 0.4504 0.3342   -0.607374
 O 0.5969 0.5496 0.8342   -0.607374
 O 0.4504 0.0473 0.8342   -0.607374
 O 0.9527 0.4031 0.8342   -0.607375
 O 0.4504 0.4031 0.6658   -0.607375
 O 0.5969 0.0473 0.6658   -0.607374
 O 0.9527 0.5496 0.6658   -0.607374
