{'_ref': 'TBD', '_srcid': 'CAKYAQ_clean', 'submitters': [{'name': 'Dalar Nazarian Jeff Camp and David Sholl', 'email': 'dalar@gatech.edu jcamp6@gatech.edu'}], '_method': 'VASP DFT with PBE;DDEC'}
data_Zn5H4C4(N9O2)2
_symmetry_space_group_name_H-M   'P 1'
_cell_length_a   8.44109978
_cell_length_b   9.10659171
_cell_length_c   14.23269185
_cell_angle_alpha   71.70905718
_cell_angle_beta   72.75020530
_cell_angle_gamma   62.38939740
_symmetry_Int_Tables_number   1
_chemical_formula_structural   Zn5H4C4(N9O2)2
_chemical_formula_sum   'Zn10 H8 C8 N36 O8'
_cell_volume   905.522474882
_cell_formula_units_Z   2
loop_
 _symmetry_equiv_pos_site_id
 _symmetry_equiv_pos_as_xyz
  1  'x, y, z'
loop_
 _atom_site_label
 _atom_site_fract_x
 _atom_site_fract_y
 _atom_site_fract_z
 _atom_site_charge
 Zn 0.84455 0.07866 0.36668   0.902495
 Zn 0.22003 0.7199 0.47074   0.832614
 Zn 0.28989 0.42134 0.13332   0.903458
 Zn 0.41067 0.7801 0.02926   0.832765
 Zn 0.15545 0.92134 0.63332   0.902492
 Zn 0.77997 0.2801 0.52926   0.832614
 Zn 0.71011 0.57866 0.86668   0.903455
 Zn 0.58933 0.2199 0.97074   0.832765
 Zn 0.1222 0.75 0.25   0.707144
 Zn 0.8778 0.25 0.75   0.707144
 H 0.954 0.77 0.422   0.4073
 H 0.815 0.006 0.55   0.400292
 H 0.146 0.73 0.078   0.40655
 H 0.371 0.494 0.95   0.399881
 H 0.046 0.23 0.578   0.4073
 H 0.185 0.994 0.45   0.400292
 H 0.854 0.27 0.922   0.40655
 H 0.629 0.506 0.05   0.399881
 C 0.65871 0.18855 0.18043   0.5874
 C 0.50643 0.40045 0.27469   0.578488
 C 0.02769 0.31145 0.31957   0.585514
 C 0.18157 0.09955 0.22531   0.577925
 C 0.34129 0.81145 0.81957   0.5874
 C 0.49357 0.59955 0.72531   0.578488
 C 0.97231 0.68855 0.68043   0.585514
 C 0.81843 0.90045 0.77469   0.577925
 N 0.52263 0.34289 0.19285   -0.691777
 N 0.77636 0.07429 0.24139   -0.406858
 N 0.87898 0.94168 0.19496   0.017822
 N 0.82885 0.97206 0.11084   -0.12486
 N 0.69121 0.12663 0.09895   -0.343638
 N 0.61526 0.32314 0.34434   -0.352832
 N 0.54508 0.42136 0.41228   -0.045752
 N 0.40251 0.55292 0.38466   -0.05242
 N 0.37286 0.54691 0.29777   -0.34107
 N 0.05837 0.15711 0.30715   -0.691125
 N 0.09204 0.42571 0.25861   -0.40635
 N 0.01562 0.55832 0.30504   0.017225
 N 0.91175 0.52794 0.38916   -0.124015
 N 0.91679 0.37337 0.40105   -0.34246
 N 0.28274 0.17686 0.15566   -0.353328
 N 0.37872 0.07864 0.08772   -0.043523
 N 0.34009 0.94708 0.11534   -0.055016
 N 0.21754 0.95309 0.20223   -0.33996
 N 0.47737 0.65711 0.80715   -0.691777
 N 0.22364 0.92571 0.75861   -0.406858
 N 0.12102 0.05832 0.80504   0.017822
 N 0.17115 0.02794 0.88916   -0.124858
 N 0.30879 0.87337 0.90105   -0.343638
 N 0.38474 0.67686 0.65566   -0.352831
 N 0.45492 0.57864 0.58772   -0.045752
 N 0.59749 0.44708 0.61534   -0.05242
 N 0.62714 0.45309 0.70223   -0.34107
 N 0.94163 0.84289 0.69285   -0.691124
 N 0.90796 0.57429 0.74139   -0.40635
 N 0.98438 0.44168 0.69496   0.017225
 N 0.08825 0.47206 0.61084   -0.124013
 N 0.08321 0.62663 0.59895   -0.34246
 N 0.71726 0.82314 0.84434   -0.353328
 N 0.62128 0.92136 0.91228   -0.043522
 N 0.65991 0.05292 0.88466   -0.055016
 N 0.78246 0.04691 0.79777   -0.33996
 O 0.01755 0.82021 0.38769   -0.839344
 O 0.76178 0.08909 0.51115   -0.882237
 O 0.22545 0.67979 0.11231   -0.83851
 O 0.36202 0.41091 0.98885   -0.8818
 O 0.98245 0.17979 0.61231   -0.839344
 O 0.23822 0.91091 0.48885   -0.882237
 O 0.77455 0.32021 0.88769   -0.83851
 O 0.63798 0.58909 0.01115   -0.8818
