{'_ref': 'TBD', '_srcid': 'CAKYAQ_clean', 'submitters': [{'name': 'Dalar Nazarian Jeff Camp and David Sholl', 'email': 'dalar@gatech.edu jcamp6@gatech.edu'}], '_method': 'VASP DFT with PBE;DDEC'}
data_CoH3(C3O2)3
_symmetry_space_group_name_H-M   'P 1'
_cell_length_a   14.27800000
_cell_length_b   18.03089964
_cell_length_c   20.20470000
_cell_angle_alpha   91.40600071
_cell_angle_beta   90.00000000
_cell_angle_gamma   90.00000000
_symmetry_Int_Tables_number   1
_chemical_formula_structural   CoH3(C3O2)3
_chemical_formula_sum   'Co12 H36 C108 O72'
_cell_volume   5200.03666182
_cell_formula_units_Z   12
loop_
 _symmetry_equiv_pos_site_id
 _symmetry_equiv_pos_as_xyz
  1  'x, y, z'
loop_
 _atom_site_label
 _atom_site_fract_x
 _atom_site_fract_y
 _atom_site_fract_z
 _atom_site_charge
 Co 0.94673 0.75347 0.07512   1.267466
 Co 0.79759 0.7985 0.94236   1.162375
 Co 0.81951 0.29336 0.90811   1.205819
 Co 0.44673 0.74653 0.42488   1.267466
 Co 0.29759 0.7015 0.55764   1.162375
 Co 0.31951 0.20664 0.59189   1.205819
 Co 0.05327 0.24653 0.92488   1.267466
 Co 0.20241 0.2015 0.05764   1.162375
 Co 0.18049 0.70664 0.09189   1.205819
 Co 0.55327 0.25347 0.57512   1.267466
 Co 0.70241 0.2985 0.44236   1.162375
 Co 0.68049 0.79336 0.40811   1.205819
 H 0.8677 0.5294 0.9069   0.122549
 H 0.0193 0.8107 0.9295   0.113708
 H 0.0073 0.0254 0.8737   0.118208
 H 0.18 0.9688 0.0212   0.118592
 H 0.4245 0.7086 0.2128   0.117294
 H 0.5584 0.7131 0.0371   0.118798
 H 0.7047 0.7416 0.2068   0.118411
 H 0.1332 0.4629 0.9273   0.109249
 H 0.0717 0.6797 0.9508   0.106154
 H 0.3677 0.9706 0.5931   0.122549
 H 0.5193 0.6893 0.5705   0.113708
 H 0.5073 0.4746 0.6263   0.118208
 H 0.68 0.5312 0.4788   0.118592
 H 0.9245 0.7914 0.2872   0.117295
 H 0.0584 0.7869 0.4629   0.118798
 H 0.2047 0.7584 0.2932   0.118411
 H 0.6332 0.0371 0.5727   0.109249
 H 0.5717 0.8203 0.5492   0.106154
 H 0.1323 0.4706 0.0931   0.122549
 H 0.9807 0.1893 0.0705   0.113708
 H 0.9927 0.9746 0.1263   0.118208
 H 0.82 0.0312 0.9788   0.118592
 H 0.5755 0.2914 0.7872   0.117295
 H 0.4416 0.2869 0.9629   0.118798
 H 0.2953 0.2584 0.7932   0.118411
 H 0.8668 0.5371 0.0727   0.109249
 H 0.9283 0.3203 0.0492   0.106154
 H 0.6323 0.0294 0.4069   0.122549
 H 0.4807 0.3107 0.4295   0.113708
 H 0.4927 0.5254 0.3737   0.118208
 H 0.32 0.4688 0.5212   0.118592
 H 0.0755 0.2086 0.7128   0.117295
 H 0.9416 0.2131 0.5371   0.118798
 H 0.7953 0.2416 0.7068   0.118411
 H 0.3668 0.9629 0.4273   0.109249
 H 0.4283 0.1797 0.4508   0.106154
 C 0.7327 0.7435 0.0769   0.723242
 C 0.888 0.6768 0.9334   0.690249
 C 0.9591 0.615 0.929   -0.147058
 C 0.9309 0.5411 0.9149   0.022592
 C 0.9966 0.4848 0.9144   -0.169412
 C 0.967 0.4045 0.9089   0.701034
 C 0.1426 0.8236 0.027   0.678811
 C 0.1072 0.8815 0.981   -0.14354
 C 0.0387 0.8608 0.9337   0.009045
 C 0.0024 0.9142 0.8937   -0.149982
 C 0.031 0.9886 0.9016   0.025482
 C 0.0969 0.0086 0.9504   -0.168864
 C 0.1359 0.9554 0.9892   0.021242
 C 0.1191 0.0895 0.9637   0.71216
 C 0.9254 0.8917 0.8447   0.671963
 C 0.5646 0.737 0.2944   0.713396
 C 0.5637 0.7283 0.2215   -0.173534
 C 0.4792 0.7142 0.1883   0.040461
 C 0.4783 0.7092 0.1205   -0.149821
 C 0.5609 0.7171 0.0835   0.038179
 C 0.644 0.7315 0.116   -0.167773
 C 0.6468 0.7352 0.1852   0.036643
 C 0.3887 0.6918 0.083   0.646087
 C 0.09 0.5017 0.9264   0.031156
 C 0.1193 0.5741 0.939   -0.147477
 C 0.0524 0.6306 0.9411   0.012514
 C 0.2191 0.5892 0.9554   0.620188
 C 0.2327 0.7565 0.4231   0.723242
 C 0.388 0.8232 0.5666   0.690249
 C 0.4591 0.885 0.571   -0.147058
 C 0.4309 0.9589 0.5851   0.022592
 C 0.4966 0.0152 0.5856   -0.169412
 C 0.467 0.0955 0.5911   0.701034
 C 0.6426 0.6764 0.473   0.678811
 C 0.6072 0.6185 0.519   -0.14354
 C 0.5387 0.6392 0.5663   0.009045
 C 0.5024 0.5858 0.6063   -0.149982
 C 0.531 0.5114 0.5984   0.025482
 C 0.5969 0.4914 0.5496   -0.168864
 C 0.6359 0.5446 0.5108   0.021241
 C 0.6191 0.4105 0.5363   0.71216
 C 0.4254 0.6083 0.6553   0.671962
 C 0.0646 0.763 0.2056   0.713396
 C 0.0637 0.7717 0.2785   -0.173534
 C 0.9792 0.7858 0.3117   0.040461
 C 0.9783 0.7908 0.3795   -0.149821
 C 0.0609 0.7829 0.4165   0.038179
 C 0.144 0.7685 0.384   -0.167773
 C 0.1468 0.7648 0.3148   0.036643
 C 0.8887 0.8082 0.417   0.646087
 C 0.59 0.9983 0.5736   0.031156
 C 0.6193 0.9259 0.561   -0.147477
 C 0.5524 0.8694 0.5589   0.012514
 C 0.7191 0.9108 0.5446   0.620188
 C 0.2673 0.2565 0.9231   0.723242
 C 0.112 0.3232 0.0666   0.690249
 C 0.0409 0.385 0.071   -0.147058
 C 0.0691 0.4589 0.0851   0.022592
 C 0.0034 0.5152 0.0856   -0.169413
 C 0.033 0.5955 0.0911   0.701034
 C 0.8574 0.1764 0.973   0.678811
 C 0.8928 0.1185 0.019   -0.14354
 C 0.9613 0.1392 0.0663   0.009045
 C 0.9976 0.0858 0.1063   -0.149982
 C 0.969 0.0114 0.0984   0.025482
 C 0.9031 0.9914 0.0496   -0.168864
 C 0.8641 0.0446 0.0108   0.021241
 C 0.8809 0.9105 0.0363   0.71216
 C 0.0746 0.1083 0.1553   0.671963
 C 0.4354 0.263 0.7056   0.713396
 C 0.4363 0.2717 0.7785   -0.173535
 C 0.5208 0.2858 0.8117   0.040461
 C 0.5217 0.2908 0.8795   -0.149821
 C 0.4391 0.2829 0.9165   0.038179
 C 0.356 0.2685 0.884   -0.167773
 C 0.3532 0.2648 0.8148   0.036643
 C 0.6113 0.3082 0.917   0.646087
 C 0.91 0.4983 0.0736   0.031156
 C 0.8807 0.4259 0.061   -0.147477
 C 0.9476 0.3694 0.0589   0.012514
 C 0.7809 0.4108 0.0446   0.620188
 C 0.7673 0.2435 0.5769   0.723242
 C 0.612 0.1768 0.4334   0.690249
 C 0.5409 0.115 0.429   -0.147058
 C 0.5691 0.0411 0.4149   0.022591
 C 0.5034 0.9848 0.4144   -0.169413
 C 0.533 0.9045 0.4089   0.701034
 C 0.3574 0.3236 0.527   0.678811
 C 0.3928 0.3815 0.481   -0.14354
 C 0.4613 0.3608 0.4337   0.009045
 C 0.4976 0.4142 0.3937   -0.149982
 C 0.469 0.4886 0.4016   0.025482
 C 0.4031 0.5086 0.4504   -0.168864
 C 0.3641 0.4554 0.4892   0.021241
 C 0.3809 0.5895 0.4637   0.71216
 C 0.5746 0.3917 0.3447   0.671962
 C 0.9354 0.237 0.7944   0.713396
 C 0.9363 0.2283 0.7215   -0.173535
 C 0.0208 0.2142 0.6883   0.040461
 C 0.0217 0.2092 0.6205   -0.149821
 C 0.9391 0.2171 0.5835   0.038179
 C 0.856 0.2315 0.616   -0.167773
 C 0.8532 0.2352 0.6852   0.036643
 C 0.1113 0.1918 0.583   0.646087
 C 0.41 0.0017 0.4264   0.031156
 C 0.3807 0.0741 0.439   -0.147477
 C 0.4476 0.1306 0.4411   0.012514
 C 0.2809 0.0892 0.4554   0.620188
 O 0.8094 0.7384 0.1063   -0.549132
 O 0.719 0.7562 0.0165   -0.588449
 O 0.9092 0.7323 0.9721   -0.677978
 O 0.8174 0.6781 0.898   -0.495918
 O 0.0289 0.3579 0.9121   -0.575892
 O 0.8789 0.3928 0.9017   -0.578006
 O 0.0894 0.7661 0.0365   -0.6885
 O 0.2213 0.8265 0.0525   -0.488216
 O 0.1769 0.1034 0.0085   -0.585017
 O 0.0733 0.1367 0.9304   -0.602012
 O 0.8769 0.8328 0.8589   -0.589527
 O 0.9157 0.9274 0.7952   -0.425285
 O 0.6441 0.7512 0.3195   -0.569854
 O 0.4904 0.7289 0.3263   -0.558617
 O 0.3148 0.6911 0.1166   -0.536992
 O 0.3931 0.6823 0.0213   -0.327822
 O 0.2338 0.6576 0.9798   -0.403825
 O 0.2805 0.544 0.9444   -0.414563
 O 0.3094 0.7616 0.3937   -0.549132
 O 0.219 0.7438 0.4835   -0.588449
 O 0.4092 0.7677 0.5279   -0.677978
 O 0.3174 0.8219 0.602   -0.495918
 O 0.5289 0.1421 0.5879   -0.575892
 O 0.3789 0.1072 0.5983   -0.578006
 O 0.5894 0.7339 0.4635   -0.6885
 O 0.7213 0.6735 0.4475   -0.488216
 O 0.6769 0.3966 0.4915   -0.585017
 O 0.5733 0.3633 0.5696   -0.602012
 O 0.3769 0.6672 0.6411   -0.589527
 O 0.4157 0.5726 0.7048   -0.425285
 O 0.1441 0.7488 0.1805   -0.569854
 O 0.9904 0.7711 0.1737   -0.558617
 O 0.8148 0.8089 0.3834   -0.536992
 O 0.8931 0.8177 0.4787   -0.327823
 O 0.7338 0.8424 0.5202   -0.403825
 O 0.7805 0.956 0.5556   -0.414563
 O 0.1906 0.2616 0.8937   -0.549132
 O 0.281 0.2438 0.9835   -0.588449
 O 0.0908 0.2677 0.0279   -0.677978
 O 0.1826 0.3219 0.102   -0.495918
 O 0.9711 0.6421 0.0879   -0.575892
 O 0.1211 0.6072 0.0983   -0.578006
 O 0.9106 0.2339 0.9635   -0.6885
 O 0.7787 0.1735 0.9475   -0.488216
 O 0.8231 0.8966 0.9915   -0.585017
 O 0.9267 0.8633 0.0696   -0.602012
 O 0.1231 0.1672 0.1411   -0.589527
 O 0.0843 0.0726 0.2048   -0.425285
 O 0.3559 0.2488 0.6805   -0.569854
 O 0.5096 0.2711 0.6737   -0.558617
 O 0.6852 0.3089 0.8834   -0.536992
 O 0.6069 0.3177 0.9787   -0.327822
 O 0.7662 0.3424 0.0202   -0.403825
 O 0.7195 0.456 0.0556   -0.414563
 O 0.6906 0.2384 0.6063   -0.549132
 O 0.781 0.2562 0.5165   -0.588449
 O 0.5908 0.2323 0.4721   -0.677978
 O 0.6826 0.1781 0.398   -0.495918
 O 0.4711 0.8579 0.4121   -0.575892
 O 0.6211 0.8928 0.4017   -0.578006
 O 0.4106 0.2661 0.5365   -0.6885
 O 0.2787 0.3265 0.5525   -0.488216
 O 0.3231 0.6034 0.5085   -0.585017
 O 0.4267 0.6367 0.4304   -0.602012
 O 0.6231 0.3328 0.3589   -0.589527
 O 0.5843 0.4274 0.2952   -0.425285
 O 0.8559 0.2512 0.8195   -0.569854
 O 0.0096 0.2289 0.8263   -0.558617
 O 0.1852 0.1911 0.6166   -0.536992
 O 0.1069 0.1823 0.5213   -0.327823
 O 0.2662 0.1576 0.4798   -0.403825
 O 0.2195 0.044 0.4444   -0.414563
