{'_ref': 'TBD', '_srcid': 'CAKYAQ_clean', 'submitters': [{'name': 'Dalar Nazarian Jeff Camp and David Sholl', 'email': 'dalar@gatech.edu jcamp6@gatech.edu'}], '_method': 'VASP DFT with PBE;DDEC'}
data_K3Zn2H31C55O14
_symmetry_space_group_name_H-M   'P 1'
_cell_length_a   16.36560014
_cell_length_b   17.97900017
_cell_length_c   19.23200000
_cell_angle_alpha   65.45200051
_cell_angle_beta   66.27499833
_cell_angle_gamma   69.15399910
_symmetry_Int_Tables_number   1
_chemical_formula_structural   K3Zn2H31C55O14
_chemical_formula_sum   'K6 Zn4 H62 C110 O28'
_cell_volume   4589.70193185
_cell_formula_units_Z   2
loop_
 _symmetry_equiv_pos_site_id
 _symmetry_equiv_pos_as_xyz
  1  'x, y, z'
loop_
 _atom_site_label
 _atom_site_fract_x
 _atom_site_fract_y
 _atom_site_fract_z
 _atom_site_charge
 K 0.17879 0.94741 0.96686   0.849073
 K 0.39631 0.8057 0.83035   0.951982
 K 0.9981 0.9347 0.9539   0.85127
 K 0.82121 0.05259 0.03314   0.849074
 K 0.60369 0.1943 0.16965   0.951982
 K 0.0019 0.0653 0.0461   0.851271
 Zn 0.38465 0.79853 0.03474   1.042048
 Zn 0.35505 0.03579 0.77242   1.026258
 Zn 0.61535 0.20147 0.96526   1.042048
 Zn 0.64495 0.96421 0.22758   1.026258
 H 0.9527 0.512 0.8619   0.105231
 H 0.1901 0.4939 0.8893   0.105651
 H 0.9764 0.6867 0.9259   0.093421
 H 0.8402 0.6326 0.8095   0.112888
 H 0.683 0.6833 0.8355   0.102196
 H 0.6677 0.7146 0.0349   0.105649
 H 0.8242 0.6705 0.0068   0.084825
 H 0.247 0.4232 0.7921   0.121417
 H 0.3076 0.2919 0.7763   0.113755
 H 0.0649 0.2315 0.9027   0.028751
 H 0.0016 0.3647 0.9137   0.096559
 H 0.0981 0.7492 0.8925   0.08448
 H 0.1815 0.7936 0.933   0.018136
 H 0.2881 0.5546 0.0419   0.113608
 H 0.2117 0.5102 0.9945   0.103931
 H 0.9424 0.9166 0.6698   0.098362
 H 0.1758 0.8694 0.4988   0.104664
 H 0.9383 0.8674 0.487   0.106857
 H 0.8031 0.0067 0.6502   0.090912
 H 0.6457 0.0371 0.6927   0.10331
 H 0.6492 0.841 0.6415   0.10245
 H 0.8071 0.8142 0.5938   0.109862
 H 0.0431 0.8681 0.7445   0.103243
 H 0.1157 0.9022 0.8035   0.019153
 H 0.2769 0.0085 0.5869   0.118881
 H 0.2064 0.9707 0.5279   0.102702
 H 0.2311 0.7805 0.4171   0.113468
 H 0.3051 0.7724 0.2896   0.115176
 H 0.0889 0.9346 0.2191   0.03693
 H 0.0118 0.9351 0.3484   0.087708
 H 0.4547 0.9932 0.8826   0.013255
 H 0.0473 0.488 0.1381   0.105231
 H 0.8099 0.5061 0.1107   0.10565
 H 0.0236 0.3133 0.0741   0.093421
 H 0.1598 0.3674 0.1905   0.112888
 H 0.317 0.3167 0.1645   0.102196
 H 0.3323 0.2854 0.9651   0.105649
 H 0.1758 0.3295 0.9932   0.084825
 H 0.753 0.5768 0.2079   0.121417
 H 0.6924 0.7081 0.2237   0.113756
 H 0.9351 0.7685 0.0973   0.028751
 H 0.9984 0.6353 0.0863   0.096559
 H 0.9019 0.2508 0.1075   0.08448
 H 0.8185 0.2064 0.067   0.018136
 H 0.7119 0.4454 0.9581   0.113608
 H 0.7883 0.4898 0.0055   0.103931
 H 0.0576 0.0834 0.3302   0.098362
 H 0.8242 0.1306 0.5012   0.104664
 H 0.0617 0.1326 0.513   0.106857
 H 0.1969 0.9933 0.3498   0.090912
 H 0.3543 0.9629 0.3073   0.10331
 H 0.3508 0.159 0.3585   0.10245
 H 0.1929 0.1858 0.4062   0.109862
 H 0.9569 0.1319 0.2555   0.103243
 H 0.8843 0.0978 0.1965   0.019153
 H 0.7231 0.9915 0.4131   0.118881
 H 0.7936 0.0293 0.4721   0.102702
 H 0.7689 0.2195 0.5829   0.113468
 H 0.6949 0.2276 0.7104   0.115177
 H 0.9111 0.0654 0.7809   0.03693
 H 0.9882 0.0649 0.6516   0.087708
 H 0.5453 0.0068 0.1174   0.013255
 C 0.9498 0.6055 0.8951   0.063129
 C 0.988 0.5325 0.8744   -0.15056
 C 0.07856 0.489 0.87176   0.050053
 C 0.12974 0.5219 0.8908   -0.153508
 C 0.09313 0.59528 0.91178   0.037807
 C 0.0019 0.6372 0.9129   -0.156819
 C 0.8496 0.6447 0.9062   0.032065
 C 0.806 0.6493 0.8547   -0.149744
 C 0.7112 0.679 0.871   -0.028319
 C 0.6588 0.7018 0.9385   -0.122795
 C 0.7024 0.6984 0.9895   -0.035557
 C 0.7961 0.6712 0.973   -0.14803
 C 0.1171 0.408 0.8566   0.06319
 C 0.2099 0.3852 0.8142   -0.134575
 C 0.2463 0.3059 0.8052   -0.009533
 C 0.1933 0.2475 0.8383   -0.155016
 C 0.1016 0.2702 0.8798   -0.038682
 C 0.0637 0.35 0.8875   -0.138435
 C 0.1462 0.6248 0.93791   0.070985
 C 0.1376 0.7097 0.9214   -0.146921
 C 0.1864 0.7364 0.9469   -0.099092
 C 0.2433 0.6785 0.9936   -0.146814
 C 0.2509 0.5942 0.0109   -0.006774
 C 0.2042 0.5674 0.983   -0.116219
 C 0.2337 0.161 0.8313   0.735559
 C 0.5566 0.7311 0.957   0.688037
 C 0.296 0.7058 0.0234   0.651366
 C 0.9242 0.8929 0.5849   0.056455
 C 0.9733 0.9041 0.6221   -0.150554
 C 0.0677 0.8973 0.5907   0.03886
 C 0.1124 0.8771 0.5193   -0.15476
 C 0.065 0.8682 0.4783   0.055111
 C 0.9709 0.875 0.5126   -0.157507
 C 0.8226 0.9075 0.6167   0.04771
 C 0.7723 0.9739 0.6473   -0.145271
 C 0.6779 0.992 0.6732   -0.027482
 C 0.6306 0.9433 0.6705   -0.13465
 C 0.68 0.8753 0.642   -0.02955
 C 0.7749 0.8587 0.6143   -0.150986
 C 0.118 0.9139 0.6297   0.067207
 C 0.0909 0.8953 0.7126   -0.13518
 C 0.1337 0.9165 0.748   -0.049725
 C 0.2035 0.959 0.7018   -0.147448
 C 0.2304 0.9796 0.6187   -0.020995
 C 0.1879 0.9569 0.5833   -0.11616
 C 0.1131 0.859 0.3977   0.05379
 C 0.2017 0.8108 0.3778   -0.137514
 C 0.2469 0.8069 0.3009   -0.013822
 C 0.2061 0.8537 0.2405   -0.14874
 C 0.1172 0.9027 0.259   -0.036242
 C 0.0717 0.9038 0.3364   -0.137778
 C 0.5277 0.9608 0.7004   0.692182
 C 0.2504 0.9792 0.7414   0.67962
 C 0.254 0.8527 0.1556   0.720994
 C 0.4198 0.9529 0.9115   0.678917
 C 0.0502 0.3945 0.1049   0.063129
 C 0.012 0.4675 0.1256   -0.15056
 C 0.92144 0.511 0.12824   0.050053
 C 0.87026 0.4781 0.1092   -0.153508
 C 0.90687 0.40472 0.08822   0.037807
 C 0.9981 0.3628 0.0871   -0.156819
 C 0.1504 0.3553 0.0938   0.032065
 C 0.194 0.3507 0.1453   -0.149744
 C 0.2888 0.321 0.129   -0.028319
 C 0.3412 0.2982 0.0615   -0.122795
 C 0.2976 0.3016 0.0105   -0.035557
 C 0.2039 0.3288 0.027   -0.14803
 C 0.8829 0.592 0.1434   0.06319
 C 0.7901 0.6148 0.1858   -0.134575
 C 0.7537 0.6941 0.1948   -0.009533
 C 0.8067 0.7525 0.1617   -0.155016
 C 0.8984 0.7298 0.1202   -0.038682
 C 0.9363 0.65 0.1125   -0.138435
 C 0.8538 0.3752 0.06209   0.070985
 C 0.8624 0.2903 0.0786   -0.146921
 C 0.8136 0.2636 0.0531   -0.099092
 C 0.7567 0.3215 0.0064   -0.146814
 C 0.7491 0.4058 0.9891   -0.006774
 C 0.7958 0.4326 0.017   -0.116219
 C 0.7663 0.839 0.1687   0.735559
 C 0.4434 0.2689 0.043   0.688037
 C 0.704 0.2942 0.9766   0.651366
 C 0.0758 0.1071 0.4151   0.056455
 C 0.0267 0.0959 0.3779   -0.150553
 C 0.9323 0.1027 0.4093   0.03886
 C 0.8876 0.1229 0.4807   -0.15476
 C 0.935 0.1318 0.5217   0.055112
 C 0.0291 0.125 0.4874   -0.157507
 C 0.1774 0.0925 0.3833   0.04771
 C 0.2277 0.0261 0.3527   -0.145271
 C 0.3221 0.008 0.3268   -0.027482
 C 0.3694 0.0567 0.3295   -0.13465
 C 0.32 0.1247 0.358   -0.029551
 C 0.2251 0.1413 0.3857   -0.150986
 C 0.882 0.0861 0.3703   0.067207
 C 0.9091 0.1047 0.2874   -0.13518
 C 0.8663 0.0835 0.252   -0.049725
 C 0.7965 0.041 0.2982   -0.147448
 C 0.7696 0.0204 0.3813   -0.020995
 C 0.8121 0.0431 0.4167   -0.11616
 C 0.8869 0.141 0.6023   0.05379
 C 0.7983 0.1892 0.6222   -0.137514
 C 0.7531 0.1931 0.6991   -0.013822
 C 0.7939 0.1463 0.7595   -0.148739
 C 0.8828 0.0973 0.741   -0.036242
 C 0.9283 0.0962 0.6636   -0.137778
 C 0.4723 0.0392 0.2996   0.692182
 C 0.7496 0.0208 0.2586   0.67962
 C 0.746 0.1473 0.8444   0.720994
 C 0.5802 0.0471 0.0885   0.678917
 O 0.52126 0.75233 0.90323   -0.6869
 O 0.51141 0.73303 0.02809   -0.58623
 O 0.18904 0.10597 0.87067   -0.786616
 O 0.31478 0.1488 0.78274   -0.577575
 O 0.30297 0.78357 0.99095   -0.771076
 O 0.33262 0.65472 0.07475   -0.528571
 O 0.48739 0.03038 0.71707   -0.623116
 O 0.48705 0.91012 0.70845   -0.687887
 O 0.24695 0.93801 0.81314   -0.772699
 O 0.29329 0.0375 0.70043   -0.55639
 O 0.22276 0.90345 0.1006   -0.753082
 O 0.3293 0.79582 0.14675   -0.583392
 O 0.36637 0.95145 0.88045   -0.710526
 O 0.43011 0.90519 0.97761   -0.565285
 O 0.47874 0.24767 0.09677   -0.6869
 O 0.48859 0.26697 0.97191   -0.58623
 O 0.81096 0.89403 0.12933   -0.786616
 O 0.68522 0.8512 0.21726   -0.577575
 O 0.69703 0.21643 0.00905   -0.771076
 O 0.66738 0.34528 0.92525   -0.528571
 O 0.51261 0.96962 0.28293   -0.623116
 O 0.51295 0.08988 0.29155   -0.687887
 O 0.75305 0.06199 0.18686   -0.772699
 O 0.70671 0.9625 0.29957   -0.55639
 O 0.77724 0.09655 0.8994   -0.753082
 O 0.6707 0.20418 0.85325   -0.583392
 O 0.63363 0.04855 0.11955   -0.710526
 O 0.56989 0.09481 0.02239   -0.565285
