{'_ref': 'TBD', '_srcid': 'CAKYAQ_clean', 'submitters': [{'name': 'Dalar Nazarian Jeff Camp and David Sholl', 'email': 'dalar@gatech.edu jcamp6@gatech.edu'}], '_method': 'VASP DFT with PBE;DDEC'}
data_La2Cu3H30C24(NO4)6
_symmetry_space_group_name_H-M   'P 1'
_cell_length_a   13.49460000
_cell_length_b   13.49459964
_cell_length_c   14.91200000
_cell_angle_alpha   90.00000000
_cell_angle_beta   90.00000000
_cell_angle_gamma   120.00000088
_symmetry_Int_Tables_number   1
_chemical_formula_structural   La2Cu3H30C24(NO4)6
_chemical_formula_sum   'La4 Cu6 H60 C48 N12 O48'
_cell_volume   2351.72503935
_cell_formula_units_Z   2
loop_
 _symmetry_equiv_pos_site_id
 _symmetry_equiv_pos_as_xyz
  1  'x, y, z'
loop_
 _atom_site_label
 _atom_site_fract_x
 _atom_site_fract_y
 _atom_site_fract_z
 _atom_site_charge
 La 0.33333 0.66666 0.66912   2.148134
 La 0.66667 0.33334 0.83088   2.148135
 La 0.66667 0.33334 0.33088   2.148134
 La 0.33333 0.66666 0.16912   2.148135
 Cu 0.5 0.0 0.5   0.8173
 Cu 0.5 0.5 0.5   0.817284
 Cu 0.0 0.5 0.5   0.817292
 Cu 0.5 0.0 0.0   0.8173
 Cu 0.0 0.5 0.0   0.817283
 Cu 0.5 0.5 0.0   0.817292
 H 0.3528 0.0256 0.4233   0.257389
 H 0.1833 0.8638 0.4779   0.108256
 H 0.2553 0.9618 0.5469   0.127503
 H 0.3164 0.9196 0.3115   0.133254
 H 0.2696 0.8117 0.3736   0.13226
 H 0.6728 0.6472 0.4233   0.25739
 H 0.6805 0.8167 0.4779   0.108259
 H 0.7065 0.7447 0.5469   0.127502
 H 0.6032 0.6836 0.3115   0.133256
 H 0.5421 0.7304 0.3736   0.132267
 H 0.9744 0.3272 0.4233   0.25739
 H 0.1362 0.3195 0.4779   0.10826
 H 0.0382 0.2935 0.5469   0.127507
 H 0.0804 0.3968 0.3115   0.133255
 H 0.1883 0.4579 0.3736   0.132263
 H 0.3272 0.9744 0.0767   0.257389
 H 0.3195 0.1362 0.0221   0.108256
 H 0.2935 0.0382 0.9531   0.127504
 H 0.3968 0.0804 0.1885   0.133256
 H 0.4579 0.1883 0.1264   0.13226
 H 0.0256 0.3528 0.0767   0.25739
 H 0.8638 0.1833 0.0221   0.10826
 H 0.9618 0.2553 0.9531   0.127503
 H 0.9196 0.3164 0.1885   0.133258
 H 0.8117 0.2696 0.1264   0.132267
 H 0.6472 0.6728 0.0767   0.25739
 H 0.8167 0.6805 0.0221   0.10826
 H 0.7447 0.7065 0.9531   0.127507
 H 0.6836 0.6032 0.1885   0.133257
 H 0.7304 0.5421 0.1264   0.132263
 H 0.6472 0.9744 0.5767   0.257389
 H 0.8167 0.1362 0.5221   0.108257
 H 0.7447 0.0382 0.4531   0.127505
 H 0.6836 0.0804 0.6885   0.133254
 H 0.7304 0.1883 0.6264   0.13226
 H 0.3272 0.3528 0.5767   0.25739
 H 0.3195 0.1833 0.5221   0.108261
 H 0.2935 0.2553 0.4531   0.127504
 H 0.3968 0.3164 0.6885   0.133256
 H 0.4579 0.2696 0.6264   0.132267
 H 0.0256 0.6728 0.5767   0.25739
 H 0.8638 0.6805 0.5221   0.108262
 H 0.9618 0.7065 0.4531   0.127509
 H 0.9196 0.6032 0.6885   0.133255
 H 0.8117 0.5421 0.6264   0.132263
 H 0.6728 0.0256 0.9233   0.257389
 H 0.6805 0.8638 0.9779   0.108257
 H 0.7065 0.9618 0.0469   0.127505
 H 0.6032 0.9196 0.8115   0.133256
 H 0.5421 0.8117 0.8736   0.13226
 H 0.9744 0.6472 0.9233   0.25739
 H 0.1362 0.8167 0.9779   0.108261
 H 0.0382 0.7447 0.0469   0.127504
 H 0.0804 0.6836 0.8115   0.133258
 H 0.1883 0.7304 0.8736   0.132267
 H 0.3528 0.3272 0.9233   0.25739
 H 0.1833 0.3195 0.9779   0.108262
 H 0.2553 0.2935 0.0469   0.127509
 H 0.3164 0.3968 0.8115   0.133257
 H 0.2696 0.4579 0.8736   0.132263
 C 0.2729 0.8199 0.5659   0.69313
 C 0.2563 0.9041 0.5087   -0.186404
 C 0.3341 0.8877 0.3632   -0.222518
 C 0.4393 0.8784 0.3429   0.744003
 C 0.547 0.7271 0.5659   0.693118
 C 0.6478 0.7437 0.5087   -0.186402
 C 0.5536 0.6659 0.3632   -0.222521
 C 0.4391 0.5607 0.3429   0.744007
 C 0.1801 0.453 0.5659   0.693119
 C 0.0959 0.3522 0.5087   -0.186402
 C 0.1123 0.4464 0.3632   -0.222524
 C 0.1216 0.5609 0.3429   0.744005
 C 0.453 0.1801 0.9341   0.69313
 C 0.3522 0.0959 0.9913   -0.186404
 C 0.4464 0.1123 0.1368   -0.222518
 C 0.5609 0.1216 0.1571   0.744004
 C 0.8199 0.2729 0.9341   0.693119
 C 0.9041 0.2563 0.9913   -0.186402
 C 0.8877 0.3341 0.1368   -0.222523
 C 0.8784 0.4393 0.1571   0.744007
 C 0.7271 0.547 0.9341   0.693118
 C 0.7437 0.6478 0.9913   -0.186402
 C 0.6659 0.5536 0.1368   -0.222524
 C 0.5607 0.4391 0.1571   0.744006
 C 0.7271 0.1801 0.4341   0.69313
 C 0.7437 0.0959 0.4913   -0.186405
 C 0.6659 0.1123 0.6368   -0.222518
 C 0.5607 0.1216 0.6571   0.744003
 C 0.453 0.2729 0.4341   0.693119
 C 0.3522 0.2563 0.4913   -0.186403
 C 0.4464 0.3341 0.6368   -0.222522
 C 0.5609 0.4393 0.6571   0.744007
 C 0.8199 0.547 0.4341   0.693119
 C 0.9041 0.6478 0.4913   -0.186403
 C 0.8877 0.5536 0.6368   -0.222524
 C 0.8784 0.4391 0.6571   0.744005
 C 0.547 0.8199 0.0659   0.69313
 C 0.6478 0.9041 0.0087   -0.186405
 C 0.5536 0.8877 0.8632   -0.222518
 C 0.4391 0.8784 0.8429   0.744004
 C 0.1801 0.7271 0.0659   0.693119
 C 0.0959 0.7437 0.0087   -0.186404
 C 0.1123 0.6659 0.8632   -0.222523
 C 0.1216 0.5607 0.8429   0.744007
 C 0.2729 0.453 0.0659   0.693119
 C 0.2563 0.3522 0.0087   -0.186403
 C 0.3341 0.4464 0.8632   -0.222525
 C 0.4393 0.5609 0.8429   0.744006
 N 0.3495 0.9599 0.4422   -0.279516
 N 0.6104 0.6505 0.4422   -0.279517
 N 0.0401 0.3896 0.4422   -0.279516
 N 0.3896 0.0401 0.0578   -0.279516
 N 0.9599 0.3495 0.0578   -0.279517
 N 0.6505 0.6104 0.0578   -0.279516
 N 0.6505 0.0401 0.5578   -0.279516
 N 0.3896 0.3495 0.5578   -0.279517
 N 0.9599 0.6104 0.5578   -0.279516
 N 0.6104 0.9599 0.9422   -0.279516
 N 0.0401 0.6505 0.9422   -0.279516
 N 0.3495 0.3896 0.9422   -0.279515
 O 0.3643 0.817 0.556   -0.701574
 O 0.1987 0.7597 0.6225   -0.656511
 O 0.5237 0.927 0.39521   -0.575384
 O 0.4362 0.8234 0.2759   -0.698595
 O 0.4527 0.6357 0.556   -0.701569
 O 0.561 0.8013 0.6225   -0.656494
 O 0.4033 0.4763 0.39521   -0.575376
 O 0.3872 0.5638 0.2759   -0.698605
 O 0.183 0.5473 0.556   -0.701568
 O 0.2403 0.439 0.6225   -0.656503
 O 0.073 0.5967 0.39521   -0.575377
 O 0.1766 0.6128 0.2759   -0.698596
 O 0.5473 0.183 0.944   -0.701574
 O 0.439 0.2403 0.8775   -0.656511
 O 0.5967 0.073 0.10479   -0.575384
 O 0.6128 0.1766 0.2241   -0.698595
 O 0.817 0.3643 0.944   -0.701569
 O 0.7597 0.1987 0.8775   -0.656495
 O 0.927 0.5237 0.10479   -0.575376
 O 0.8234 0.4362 0.2241   -0.698605
 O 0.6357 0.4527 0.944   -0.701568
 O 0.8013 0.561 0.8775   -0.656503
 O 0.4763 0.4033 0.10479   -0.575377
 O 0.5638 0.3872 0.2241   -0.698596
 O 0.6357 0.183 0.444   -0.701574
 O 0.8013 0.2403 0.3775   -0.656511
 O 0.4763 0.073 0.60479   -0.575384
 O 0.5638 0.1766 0.7241   -0.698595
 O 0.5473 0.3643 0.444   -0.701569
 O 0.439 0.1987 0.3775   -0.656494
 O 0.5967 0.5237 0.60479   -0.575376
 O 0.6128 0.4362 0.7241   -0.698605
 O 0.817 0.4527 0.444   -0.701568
 O 0.7597 0.561 0.3775   -0.656503
 O 0.927 0.4033 0.60479   -0.575377
 O 0.8234 0.3872 0.7241   -0.698596
 O 0.4527 0.817 0.056   -0.701574
 O 0.561 0.7597 0.1225   -0.656511
 O 0.4033 0.927 0.89521   -0.575384
 O 0.3872 0.8234 0.7759   -0.698595
 O 0.183 0.6357 0.056   -0.701569
 O 0.2403 0.8013 0.1225   -0.656495
 O 0.073 0.4763 0.89521   -0.575376
 O 0.1766 0.5638 0.7759   -0.698605
 O 0.3643 0.5473 0.056   -0.701568
 O 0.1987 0.439 0.1225   -0.656503
 O 0.5237 0.5967 0.89521   -0.575377
 O 0.4362 0.6128 0.7759   -0.698596
