{'_ref': 'TBD', '_srcid': 'CAKYAQ_clean', 'submitters': [{'name': 'Dalar Nazarian Jeff Camp and David Sholl', 'email': 'dalar@gatech.edu jcamp6@gatech.edu'}], '_method': 'VASP DFT with PBE;DDEC'}
data_Zn2H23C37N7O8
_symmetry_space_group_name_H-M   'P 1'
_cell_length_a   7.73000000
_cell_length_b   17.79700036
_cell_length_c   26.67500000
_cell_angle_alpha   93.46599860
_cell_angle_beta   90.00000000
_cell_angle_gamma   90.00000000
_symmetry_Int_Tables_number   1
_chemical_formula_structural   Zn2H23C37N7O8
_chemical_formula_sum   'Zn8 H92 C148 N28 O32'
_cell_volume   3662.98900139
_cell_formula_units_Z   4
loop_
 _symmetry_equiv_pos_site_id
 _symmetry_equiv_pos_as_xyz
  1  'x, y, z'
loop_
 _atom_site_label
 _atom_site_fract_x
 _atom_site_fract_y
 _atom_site_fract_z
 _atom_site_charge
 Zn 0.432 0.19657 0.024   0.999206
 Zn 0.97647 0.30341 0.96333   0.913578
 Zn 0.932 0.80343 0.476   0.999206
 Zn 0.47647 0.69659 0.53667   0.913578
 Zn 0.568 0.80343 0.976   0.999206
 Zn 0.02353 0.69659 0.03667   0.913578
 Zn 0.068 0.19657 0.524   0.999206
 Zn 0.52353 0.30341 0.46333   0.913578
 H 0.2774 0.0426 0.9898   0.091396
 H 0.6442 0.4528 0.0664   0.083579
 H 0.3287 0.768 0.0934   0.105748
 H 0.1454 0.5664 0.1112   0.114461
 H 0.3999 0.5818 0.1639   0.144568
 H 0.642 0.7764 0.0997   0.122192
 H 0.8873 0.8302 0.1347   0.114809
 H 0.7972 0.7268 0.2611   0.108783
 H 0.5499 0.6737 0.2257   0.100532
 H 0.1295 0.6842 0.2312   0.111757
 H 0.2644 0.6309 0.298   0.124028
 H 0.2532 0.8301 0.3753   0.122598
 H 0.1142 0.8824 0.3089   0.11282
 H 0.2893 0.7639 0.4444   0.080798
 H 0.4687 0.595 0.3563   0.140701
 H 0.561 0.5779 0.442   0.11464
 H 0.8473 0.9456 0.2162   0.1136
 H 0.934 0.0555 0.1823   0.108607
 H 0.4092 0.9728 0.1627   0.124724
 H 0.3211 0.8601 0.1943   0.110286
 H 0.1015 0.1763 0.1851   0.126333
 H 0.3777 0.0531 0.0866   0.10019
 H 0.2182 0.2585 0.1234   0.106067
 H 0.7774 0.9574 0.5102   0.091396
 H 0.1442 0.5472 0.4336   0.083579
 H 0.8287 0.232 0.4066   0.105748
 H 0.6454 0.4336 0.3888   0.114461
 H 0.8999 0.4182 0.3361   0.144567
 H 0.142 0.2236 0.4003   0.122192
 H 0.3873 0.1698 0.3653   0.114809
 H 0.2972 0.2732 0.2389   0.108783
 H 0.0499 0.3263 0.2743   0.100531
 H 0.6295 0.3158 0.2688   0.111757
 H 0.7644 0.3691 0.202   0.124028
 H 0.7532 0.1699 0.1247   0.122598
 H 0.6142 0.1176 0.1911   0.112821
 H 0.7893 0.2361 0.0556   0.080798
 H 0.9687 0.405 0.1437   0.140701
 H 0.061 0.4221 0.058   0.11464
 H 0.3473 0.0544 0.2838   0.1136
 H 0.434 0.9445 0.3177   0.108607
 H 0.9092 0.0272 0.3373   0.124724
 H 0.8211 0.1399 0.3057   0.110286
 H 0.6015 0.8237 0.3149   0.126333
 H 0.8777 0.9469 0.4134   0.10019
 H 0.7182 0.7415 0.3766   0.106067
 H 0.7226 0.9574 0.0102   0.091396
 H 0.3558 0.5472 0.9336   0.083579
 H 0.6713 0.232 0.9066   0.105748
 H 0.8546 0.4336 0.8888   0.114461
 H 0.6001 0.4182 0.8361   0.144568
 H 0.358 0.2236 0.9003   0.122192
 H 0.1127 0.1698 0.8653   0.114809
 H 0.2028 0.2732 0.7389   0.108783
 H 0.4501 0.3263 0.7743   0.100532
 H 0.8705 0.3158 0.7688   0.111757
 H 0.7356 0.3691 0.702   0.124028
 H 0.7468 0.1699 0.6247   0.122598
 H 0.8858 0.1176 0.6911   0.11282
 H 0.7107 0.2361 0.5556   0.080798
 H 0.5313 0.405 0.6437   0.140701
 H 0.439 0.4221 0.558   0.11464
 H 0.1527 0.0544 0.7838   0.1136
 H 0.066 0.9445 0.8177   0.108607
 H 0.5908 0.0272 0.8373   0.124724
 H 0.6789 0.1399 0.8057   0.110286
 H 0.8985 0.8237 0.8149   0.126333
 H 0.6223 0.9469 0.9134   0.100189
 H 0.7818 0.7415 0.8766   0.106067
 H 0.2226 0.0426 0.4898   0.091396
 H 0.8558 0.4528 0.5664   0.083579
 H 0.1713 0.768 0.5934   0.105748
 H 0.3546 0.5664 0.6112   0.114461
 H 0.1001 0.5818 0.6639   0.144567
 H 0.858 0.7764 0.5997   0.122192
 H 0.6127 0.8302 0.6347   0.114809
 H 0.7028 0.7268 0.7611   0.108783
 H 0.9501 0.6737 0.7257   0.100531
 H 0.3705 0.6842 0.7312   0.111757
 H 0.2356 0.6309 0.798   0.124028
 H 0.2468 0.8301 0.8753   0.122598
 H 0.3858 0.8824 0.8089   0.112821
 H 0.2107 0.7639 0.9444   0.080798
 H 0.0313 0.595 0.8563   0.140701
 H 0.939 0.5779 0.942   0.11464
 H 0.6527 0.9456 0.7162   0.1136
 H 0.566 0.0555 0.6823   0.108607
 H 0.0908 0.9728 0.6627   0.124724
 H 0.1789 0.8601 0.6943   0.110286
 H 0.3985 0.1763 0.6851   0.126333
 H 0.1223 0.0531 0.5866   0.100189
 H 0.2818 0.2585 0.6234   0.106067
 C 0.0288 0.07431 0.98808   -0.135168
 C 0.1653 0.02515 0.99415   -0.06301
 C 0.8576 0.0488 0.99364   -0.060551
 C 0.0701 0.15339 0.97607   0.682046
 C 0.6924 0.09406 0.98686   0.688182
 C 0.4585 0.34411 0.02638   0.672463
 C 0.4763 0.42454 0.01138   -0.068796
 C 0.2511 0.40934 0.94217   0.688291
 C 0.3883 0.45367 0.97101   -0.12416
 C 0.5857 0.47169 0.03946   -0.060634
 C 0.3143 0.7198 0.10431   0.175584
 C 0.2147 0.6092 0.11426   0.052689
 C 0.3546 0.6173 0.14338   -0.144734
 C 0.5711 0.72069 0.15951   0.087331
 C 0.6727 0.7669 0.13241   -0.092061
 C 0.8195 0.799 0.15336   -0.163889
 C 0.8676 0.7854 0.20223   0.152423
 C 0.7657 0.7375 0.22862   -0.171689
 C 0.6177 0.7055 0.20747   -0.118671
 C 0.1065 0.7874 0.26346   0.142111
 C 0.1527 0.7137 0.26042   -0.139973
 C 0.234 0.6815 0.30026   -0.132304
 C 0.269 0.7256 0.34323   0.116659
 C 0.2267 0.8004 0.34646   -0.129515
 C 0.1443 0.8317 0.30671   -0.155093
 C 0.3449 0.7196 0.43335   0.171536
 C 0.4439 0.6268 0.38435   -0.146526
 C 0.4936 0.6174 0.43173   0.082976
 C 0.073 0.8902 0.20714   0.1444
 C 0.9599 0.95 0.20448   -0.149091
 C 0.0119 0.0161 0.18464   -0.121431
 C 0.1793 0.0234 0.16837   0.100364
 C 0.2949 0.9667 0.17259   -0.118842
 C 0.2423 0.8992 0.19178   -0.130102
 C 0.1714 0.1617 0.15786   -0.163481
 C 0.324 0.0942 0.10327   0.160295
 C 0.2359 0.2068 0.12362   0.063501
 C 0.5288 0.92569 0.51192   -0.135168
 C 0.6653 0.97485 0.50585   -0.06301
 C 0.3576 0.9512 0.50636   -0.060551
 C 0.5701 0.84661 0.52393   0.682046
 C 0.1924 0.90594 0.51314   0.688182
 C 0.9585 0.65589 0.47362   0.672463
 C 0.9763 0.57546 0.48862   -0.068796
 C 0.7511 0.59066 0.55783   0.688291
 C 0.8883 0.54633 0.52899   -0.12416
 C 0.0857 0.52831 0.46054   -0.060634
 C 0.8143 0.2802 0.39569   0.175584
 C 0.7147 0.3908 0.38574   0.052689
 C 0.8546 0.3827 0.35662   -0.144733
 C 0.0711 0.27931 0.34049   0.087331
 C 0.1727 0.2331 0.36759   -0.092061
 C 0.3195 0.201 0.34664   -0.163889
 C 0.3676 0.2146 0.29777   0.152423
 C 0.2657 0.2625 0.27138   -0.171689
 C 0.1177 0.2945 0.29253   -0.118671
 C 0.6065 0.2126 0.23654   0.142111
 C 0.6527 0.2863 0.23958   -0.139973
 C 0.734 0.3185 0.19974   -0.132304
 C 0.769 0.2744 0.15677   0.116659
 C 0.7267 0.1996 0.15354   -0.129515
 C 0.6443 0.1683 0.19329   -0.155093
 C 0.8449 0.2804 0.06665   0.171536
 C 0.9439 0.3732 0.11565   -0.146526
 C 0.9936 0.3826 0.06827   0.082976
 C 0.573 0.1098 0.29286   0.1444
 C 0.4599 0.05 0.29552   -0.149091
 C 0.5119 0.9839 0.31536   -0.121431
 C 0.6793 0.9766 0.33163   0.100364
 C 0.7949 0.0333 0.32741   -0.118842
 C 0.7423 0.1008 0.30822   -0.130102
 C 0.6714 0.8383 0.34214   -0.163481
 C 0.824 0.9058 0.39673   0.160295
 C 0.7359 0.7932 0.37638   0.0635
 C 0.9712 0.92569 0.01192   -0.135168
 C 0.8347 0.97485 0.00585   -0.063011
 C 0.1424 0.9512 0.00636   -0.060552
 C 0.9299 0.84661 0.02393   0.682046
 C 0.3076 0.90594 0.01314   0.688182
 C 0.5415 0.65589 0.97362   0.672463
 C 0.5237 0.57546 0.98862   -0.068796
 C 0.7489 0.59066 0.05783   0.688291
 C 0.6117 0.54633 0.02899   -0.124159
 C 0.4143 0.52831 0.96054   -0.060633
 C 0.6857 0.2802 0.89569   0.175584
 C 0.7853 0.3908 0.88574   0.052689
 C 0.6454 0.3827 0.85662   -0.144734
 C 0.4289 0.27931 0.84049   0.087331
 C 0.3273 0.2331 0.86759   -0.092061
 C 0.1805 0.201 0.84664   -0.163889
 C 0.1324 0.2146 0.79777   0.152423
 C 0.2343 0.2625 0.77138   -0.171689
 C 0.3823 0.2945 0.79253   -0.118671
 C 0.8935 0.2126 0.73654   0.142111
 C 0.8473 0.2863 0.73958   -0.139973
 C 0.766 0.3185 0.69974   -0.132304
 C 0.731 0.2744 0.65677   0.116659
 C 0.7733 0.1996 0.65354   -0.129515
 C 0.8557 0.1683 0.69329   -0.155093
 C 0.6551 0.2804 0.56665   0.171536
 C 0.5561 0.3732 0.61565   -0.146526
 C 0.5064 0.3826 0.56827   0.082976
 C 0.927 0.1098 0.79286   0.1444
 C 0.0401 0.05 0.79552   -0.149091
 C 0.9881 0.9839 0.81536   -0.121431
 C 0.8207 0.9766 0.83163   0.100364
 C 0.7051 0.0333 0.82741   -0.118842
 C 0.7577 0.1008 0.80822   -0.130102
 C 0.8286 0.8383 0.84214   -0.163481
 C 0.676 0.9058 0.89673   0.160295
 C 0.7641 0.7932 0.87638   0.063501
 C 0.4712 0.07431 0.48808   -0.135168
 C 0.3347 0.02515 0.49415   -0.063011
 C 0.6424 0.0488 0.49364   -0.060552
 C 0.4299 0.15339 0.47607   0.682046
 C 0.8076 0.09406 0.48686   0.688182
 C 0.0415 0.34411 0.52638   0.672463
 C 0.0237 0.42454 0.51138   -0.068796
 C 0.2489 0.40934 0.44217   0.688291
 C 0.1117 0.45367 0.47101   -0.124159
 C 0.9143 0.47169 0.53946   -0.060633
 C 0.1857 0.7198 0.60431   0.175584
 C 0.2853 0.6092 0.61426   0.052689
 C 0.1454 0.6173 0.64338   -0.144734
 C 0.9289 0.72069 0.65951   0.087331
 C 0.8273 0.7669 0.63241   -0.092061
 C 0.6805 0.799 0.65336   -0.163889
 C 0.6324 0.7854 0.70223   0.152423
 C 0.7343 0.7375 0.72862   -0.171689
 C 0.8823 0.7055 0.70747   -0.118671
 C 0.3935 0.7874 0.76346   0.142111
 C 0.3473 0.7137 0.76042   -0.139973
 C 0.266 0.6815 0.80026   -0.132304
 C 0.231 0.7256 0.84323   0.116659
 C 0.2733 0.8004 0.84646   -0.129515
 C 0.3557 0.8317 0.80671   -0.155093
 C 0.1551 0.7196 0.93335   0.171536
 C 0.0561 0.6268 0.88435   -0.146526
 C 0.0064 0.6174 0.93173   0.082976
 C 0.427 0.8902 0.70714   0.1444
 C 0.5401 0.95 0.70448   -0.149091
 C 0.4881 0.0161 0.68464   -0.121431
 C 0.3207 0.0234 0.66837   0.100364
 C 0.2051 0.9667 0.67259   -0.118842
 C 0.2577 0.8992 0.69178   -0.130102
 C 0.3286 0.1617 0.65786   -0.163481
 C 0.176 0.0942 0.60327   0.160295
 C 0.2641 0.2068 0.62362   0.0635
 N 0.0152 0.82064 0.22384   -0.145065
 N 0.1888 0.67376 0.08954   -0.39389
 N 0.4191 0.68787 0.13725   0.050896
 N 0.3499 0.69207 0.38508   0.031404
 N 0.4294 0.67529 0.46263   -0.381261
 N 0.2279 0.09078 0.14493   0.052941
 N 0.332 0.16448 0.08901   -0.406344
 N 0.5152 0.17936 0.27616   -0.145065
 N 0.6888 0.32624 0.41046   -0.39389
 N 0.9191 0.31213 0.36275   0.050896
 N 0.8499 0.30793 0.11492   0.031404
 N 0.9294 0.32471 0.03737   -0.381261
 N 0.7279 0.90922 0.35507   0.052941
 N 0.832 0.83552 0.41099   -0.406344
 N 0.9848 0.17936 0.77616   -0.145065
 N 0.8112 0.32624 0.91046   -0.39389
 N 0.5809 0.31213 0.86275   0.050896
 N 0.6501 0.30793 0.61492   0.031404
 N 0.5706 0.32471 0.53737   -0.381261
 N 0.7721 0.90922 0.85507   0.052941
 N 0.668 0.83552 0.91099   -0.406344
 N 0.4848 0.82064 0.72384   -0.145065
 N 0.3112 0.67376 0.58954   -0.39389
 N 0.0809 0.68787 0.63725   0.050896
 N 0.1501 0.69207 0.88508   0.031404
 N 0.0706 0.67529 0.96263   -0.381261
 N 0.2721 0.09078 0.64493   0.052941
 N 0.168 0.16448 0.58901   -0.406344
 O 0.2206 0.17766 0.98041   -0.608442
 O 0.9461 0.1927 0.96102   -0.564951
 O 0.6118 0.08465 0.94794   -0.584853
 O 0.644 0.13469 0.02509   -0.639337
 O 0.5011 0.2909 0.99501   -0.616564
 O 0.4127 0.3329 0.06924   -0.624888
 O 0.1873 0.35719 0.96564   -0.622972
 O 0.2058 0.42652 0.90054   -0.633805
 O 0.7206 0.82234 0.51959   -0.608442
 O 0.4461 0.8073 0.53898   -0.564951
 O 0.1118 0.91535 0.55206   -0.584853
 O 0.144 0.86531 0.47491   -0.639337
 O 0.0011 0.7091 0.50499   -0.616564
 O 0.9127 0.6671 0.43076   -0.624888
 O 0.6873 0.64281 0.53436   -0.622972
 O 0.7058 0.57348 0.59946   -0.633805
 O 0.7794 0.82234 0.01959   -0.608442
 O 0.0539 0.8073 0.03898   -0.564951
 O 0.3882 0.91535 0.05206   -0.584853
 O 0.356 0.86531 0.97491   -0.639337
 O 0.4989 0.7091 0.00499   -0.616564
 O 0.5873 0.6671 0.93076   -0.624888
 O 0.8127 0.64281 0.03436   -0.622972
 O 0.7942 0.57348 0.09946   -0.633805
 O 0.2794 0.17766 0.48041   -0.608442
 O 0.5539 0.1927 0.46102   -0.564951
 O 0.8882 0.08465 0.44794   -0.584853
 O 0.856 0.13469 0.52509   -0.639337
 O 0.9989 0.2909 0.49501   -0.616564
 O 0.0873 0.3329 0.56924   -0.624888
 O 0.3127 0.35719 0.46564   -0.622972
 O 0.2942 0.42652 0.40054   -0.633805
