{'_ref': 'TBD', '_srcid': 'CAKYAQ_clean', 'submitters': [{'name': 'Dalar Nazarian Jeff Camp and David Sholl', 'email': 'dalar@gatech.edu jcamp6@gatech.edu'}], '_method': 'VASP DFT with PBE;DDEC'}
data_Ba3Cr2H4(C6O13)2
_symmetry_space_group_name_H-M   'P 1'
_cell_length_a   10.94129956
_cell_length_b   17.59540044
_cell_length_c   18.57730000
_cell_angle_alpha   88.84999873
_cell_angle_beta   85.81300104
_cell_angle_gamma   76.54600064
_symmetry_Int_Tables_number   1
_chemical_formula_structural   Ba3Cr2H4(C6O13)2
_chemical_formula_sum   'Ba12 Cr8 H16 C48 O104'
_cell_volume   3468.98875511
_cell_formula_units_Z   4
loop_
 _symmetry_equiv_pos_site_id
 _symmetry_equiv_pos_as_xyz
  1  'x, y, z'
loop_
 _atom_site_label
 _atom_site_fract_x
 _atom_site_fract_y
 _atom_site_fract_z
 _atom_site_charge
 Ba 0.59845 0.60756 0.50772   1.573507
 Ba 0.44245 0.46567 0.24334   1.68244
 Ba 0.14272 0.64815 0.03239   1.638905
 Ba 0.20284 0.90452 0.01435   1.588845
 Ba 0.887 0.04048 0.73735   1.701124
 Ba 0.79778 0.82288 0.54188   1.61378
 Ba 0.40155 0.39244 0.49228   1.573507
 Ba 0.55755 0.53433 0.75666   1.682444
 Ba 0.85728 0.35185 0.96761   1.638911
 Ba 0.79716 0.09548 0.98565   1.588845
 Ba 0.113 0.95952 0.26265   1.701127
 Ba 0.20222 0.17712 0.45812   1.613785
 Cr 0.88931 0.36475 0.63339   1.487729
 Cr 0.6051 0.67782 0.17455   1.486438
 Cr 0.74052 0.85518 0.87411   1.478731
 Cr 0.25501 0.85378 0.67656   1.491601
 Cr 0.11069 0.63525 0.36661   1.487729
 Cr 0.3949 0.32218 0.82545   1.486439
 Cr 0.25948 0.14482 0.12589   1.478731
 Cr 0.74499 0.14622 0.32344   1.491601
 H 0.2107 0.4242 0.3556   0.46898
 H 0.2975 0.3427 0.3382   0.437366
 H 0.6377 0.4046 0.3695   0.473271
 H 0.599 0.3297 0.3473   0.442213
 H 0.3794 0.8806 0.1585   0.455184
 H 0.3581 0.9694 0.142   0.444205
 H 0.0519 0.8298 0.1543   0.435459
 H 0.956 0.9063 0.1359   0.47624
 H 0.7893 0.5758 0.6444   0.46898
 H 0.7025 0.6573 0.6618   0.437366
 H 0.3623 0.5954 0.6305   0.473271
 H 0.401 0.6703 0.6527   0.442213
 H 0.6206 0.1194 0.8415   0.455184
 H 0.6419 0.0306 0.858   0.444205
 H 0.9481 0.1702 0.8457   0.435459
 H 0.044 0.0937 0.8641   0.47624
 C 0.7028 0.4085 0.53955   0.549598
 C 0.7007 0.32366 0.56243   0.527517
 C 0.8978 0.64948 0.45774   0.550327
 C 0.9039 0.57695 0.41079   0.546345
 C 0.1988 0.61866 0.22286   0.580584
 C 0.083 0.6884 0.22646   0.529766
 C 0.549 0.61416 0.30729   0.562785
 C 0.6122 0.68169 0.32262   0.548402
 C 0.3785 0.73256 0.11158   0.553372
 C 0.4521 0.66123 0.0674   0.578045
 C 0.8518 0.61827 0.1246   0.561092
 C 0.8143 0.70336 0.09559   0.528262
 C 0.9621 0.8215 0.94421   0.575733
 C 0.8894 0.90345 0.96914   0.541183
 C 0.5333 0.84736 0.96431   0.53252
 C 0.4935 0.92157 0.91673   0.546975
 C 0.7522 0.79695 0.73511   0.553703
 C 0.815 0.86738 0.72915   0.581401
 C 0.2625 0.84599 0.82491   0.556324
 C 0.1487 0.91354 0.81026   0.565812
 C 0.4821 0.88622 0.62372   0.551467
 C 0.4846 0.8024 0.59895   0.555931
 C 0.0841 0.78276 0.6213   0.515768
 C 0.091 0.85322 0.57132   0.564442
 C 0.2972 0.5915 0.46045   0.549598
 C 0.2993 0.67634 0.43757   0.527517
 C 0.1022 0.35052 0.54226   0.550327
 C 0.0961 0.42305 0.58921   0.546344
 C 0.8012 0.38134 0.77714   0.580584
 C 0.917 0.3116 0.77354   0.529766
 C 0.451 0.38584 0.69271   0.562785
 C 0.3878 0.31831 0.67738   0.548402
 C 0.6215 0.26744 0.88842   0.553372
 C 0.5479 0.33877 0.9326   0.578045
 C 0.1482 0.38173 0.8754   0.561092
 C 0.1857 0.29664 0.90441   0.528262
 C 0.0379 0.1785 0.05579   0.575733
 C 0.1106 0.09655 0.03086   0.541183
 C 0.4667 0.15264 0.03569   0.53252
 C 0.5065 0.07843 0.08327   0.546975
 C 0.2478 0.20305 0.26489   0.553703
 C 0.185 0.13262 0.27085   0.581401
 C 0.7375 0.15401 0.17509   0.556324
 C 0.8513 0.08646 0.18974   0.565812
 C 0.5179 0.11378 0.37628   0.551468
 C 0.5154 0.1976 0.40105   0.555931
 C 0.9159 0.21724 0.3787   0.515768
 C 0.909 0.14678 0.42868   0.564442
 O 0.7893 0.43577 0.56534   -0.600495
 O 0.6226 0.44515 0.50088   -0.617105
 O 0.7779 0.29645 0.61098   -0.615805
 O 0.6292 0.29 0.5359   -0.529941
 O 0.9836 0.68639 0.44187   -0.598968
 O 0.8127 0.66846 0.50565   -0.618967
 O 0.9952 0.56373 0.36194   -0.598497
 O 0.8234 0.53888 0.42198   -0.555086
 O 0.2244 0.58572 0.2847   -0.692963
 O 0.2609 0.59876 0.16607   -0.637588
 O 0.0316 0.70482 0.2906   -0.57392
 O 0.0495 0.72211 0.17053   -0.551248
 O 0.5267 0.60905 0.24078   -0.70615
 O 0.5238 0.57077 0.35635   -0.599129
 O 0.6356 0.72101 0.26699   -0.573102
 O 0.6356 0.69297 0.38471   -0.574722
 O 0.4379 0.75092 0.16395   -0.612787
 O 0.2731 0.76627 0.0954   -0.624003
 O 0.5623 0.63112 0.08827   -0.614139
 O 0.4027 0.6378 0.01821   -0.643156
 O 0.7677 0.5991 0.16859   -0.600955
 O 0.9546 0.57588 0.10474   -0.644382
 O 0.7032 0.74097 0.11871   -0.548685
 O 0.8882 0.7285 0.0544   -0.560805
 O 0.9067 0.78986 0.89864   -0.579316
 O 0.0651 0.79382 0.96783   -0.6609
 O 0.78375 0.92904 0.9407   -0.617177
 O 0.9334 0.94067 0.01112   -0.588935
 O 0.6471 0.80825 0.94921   -0.552566
 O 0.4588 0.83109 0.01082   -0.541855
 O 0.5772 0.92966 0.86665   -0.6164
 O 0.3894 0.9656 0.92914   -0.555124
 O 0.8202 0.90058 0.78973   -0.685722
 O 0.8551 0.88886 0.67061   -0.643834
 O 0.7132 0.78277 0.80009   -0.586093
 O 0.7416 0.76213 0.68067   -0.566831
 O 0.3228 0.8127 0.76771   -0.616553
 O 0.289 0.82664 0.88644   -0.566474
 O 0.1342 0.92758 0.74209   -0.721311
 O 0.0815 0.94784 0.85997   -0.555273
 O 0.3788 0.91954 0.66013   -0.586375
 O 0.5734 0.91435 0.60989   -0.610706
 O 0.3867 0.77798 0.62146   -0.595698
 O 0.5748 0.76425 0.56205   -0.605455
 O 0.1472 0.77839 0.67744   -0.602607
 O 0.0224 0.73668 0.60508   -0.55211
 O 0.1687 0.89299 0.58955   -0.62414
 O 0.0248 0.86672 0.52003   -0.627932
 O 0.2964 0.39491 0.35219   -0.905229
 O 0.5673 0.38341 0.36036   -0.92
 O 0.3178 0.92668 0.14727   -0.920903
 O 0.0425 0.88426 0.14401   -0.935263
 O 0.2107 0.56423 0.43466   -0.600495
 O 0.3774 0.55485 0.49912   -0.617104
 O 0.2221 0.70355 0.38902   -0.615805
 O 0.3708 0.71 0.4641   -0.529941
 O 0.0164 0.31361 0.55813   -0.598968
 O 0.1873 0.33154 0.49435   -0.618967
 O 0.0048 0.43627 0.63806   -0.598497
 O 0.1766 0.46112 0.57802   -0.555087
 O 0.7756 0.41428 0.7153   -0.692963
 O 0.7391 0.40124 0.83393   -0.637588
 O 0.9684 0.29518 0.7094   -0.57392
 O 0.9505 0.27789 0.82947   -0.551248
 O 0.4733 0.39095 0.75922   -0.70615
 O 0.4762 0.42923 0.64365   -0.599129
 O 0.3644 0.27899 0.73301   -0.573102
 O 0.3644 0.30703 0.61529   -0.574722
 O 0.5621 0.24908 0.83605   -0.612787
 O 0.7269 0.23373 0.9046   -0.624003
 O 0.4377 0.36888 0.91173   -0.614139
 O 0.5973 0.3622 0.98179   -0.643156
 O 0.2323 0.4009 0.83141   -0.600955
 O 0.0454 0.42412 0.89526   -0.644383
 O 0.2968 0.25903 0.88129   -0.548685
 O 0.1118 0.2715 0.9456   -0.560805
 O 0.0933 0.21014 0.10136   -0.579316
 O 0.9349 0.20618 0.03217   -0.6609
 O 0.21625 0.07096 0.0593   -0.617177
 O 0.0666 0.05933 0.98888   -0.588935
 O 0.3529 0.19175 0.05079   -0.552566
 O 0.5412 0.16891 0.98918   -0.541855
 O 0.4228 0.07034 0.13335   -0.6164
 O 0.6106 0.0344 0.07086   -0.555124
 O 0.1798 0.09942 0.21027   -0.685723
 O 0.1449 0.11114 0.32939   -0.643835
 O 0.2868 0.21723 0.19991   -0.586093
 O 0.2584 0.23787 0.31933   -0.566831
 O 0.6772 0.1873 0.23229   -0.616553
 O 0.711 0.17336 0.11356   -0.566474
 O 0.8658 0.07242 0.25791   -0.721311
 O 0.9185 0.05216 0.14003   -0.555273
 O 0.6212 0.08046 0.33987   -0.586375
 O 0.4266 0.08565 0.39011   -0.610706
 O 0.6133 0.22202 0.37854   -0.595698
 O 0.4252 0.23575 0.43795   -0.605455
 O 0.8528 0.22161 0.32256   -0.602607
 O 0.9776 0.26332 0.39492   -0.552111
 O 0.8313 0.10701 0.41045   -0.62414
 O 0.9752 0.13328 0.47997   -0.627932
 O 0.7036 0.60509 0.64781   -0.905229
 O 0.4327 0.61659 0.63964   -0.92
 O 0.6822 0.07332 0.85273   -0.920902
 O 0.9575 0.11574 0.85599   -0.935263
