{'_ref': 'TBD', '_srcid': 'CAKYAQ_clean', 'submitters': [{'name': 'Dalar Nazarian Jeff Camp and David Sholl', 'email': 'dalar@gatech.edu jcamp6@gatech.edu'}], '_method': 'VASP DFT with PBE;DDEC'}
data_Zn4H18C36O13
_symmetry_space_group_name_H-M   'P 1'
_cell_length_a   12.91440000
_cell_length_b   12.91440000
_cell_length_c   12.91440000
_cell_angle_alpha   90.00000000
_cell_angle_beta   90.00000000
_cell_angle_gamma   90.00000000
_symmetry_Int_Tables_number   1
_chemical_formula_structural   Zn4H18C36O13
_chemical_formula_sum   'Zn4 H18 C36 O13'
_cell_volume   2153.88593982
_cell_formula_units_Z   1
loop_
 _symmetry_equiv_pos_site_id
 _symmetry_equiv_pos_as_xyz
  1  'x, y, z'
loop_
 _atom_site_label
 _atom_site_fract_x
 _atom_site_fract_y
 _atom_site_fract_z
 _atom_site_charge
 Zn 0.58662 0.58662 0.58662   1.154313
 Zn 0.41338 0.41338 0.58662   1.171155
 Zn 0.41338 0.58662 0.41338   1.154314
 Zn 0.58662 0.41338 0.41338   1.154315
 H 0.82414 0.68492 0.5   0.107453
 H 0.90842 0.8448 0.5   0.111625
 H 0.17586 0.68492 0.5   0.107804
 H 0.09158 0.8448 0.5   0.111469
 H 0.5 0.17586 0.31508   0.107798
 H 0.5 0.09158 0.1552   0.111473
 H 0.5 0.82414 0.31508   0.107459
 H 0.5 0.90842 0.1552   0.111621
 H 0.68492 0.5 0.82414   0.107798
 H 0.8448 0.5 0.90842   0.111473
 H 0.68492 0.5 0.17586   0.10746
 H 0.8448 0.5 0.09158   0.111621
 H 0.5 0.08504 0.65808   0.111644
 H 0.5 0.91496 0.65808   0.111122
 H 0.34192 0.5 0.91496   0.111644
 H 0.34192 0.5 0.08504   0.111122
 H 0.91496 0.34192 0.5   0.111094
 H 0.08504 0.34192 0.5   0.111673
 C 0.78588 0.5 0.5   0.75224
 C 0.89906 0.5 0.5   -0.152548
 C 0.95242 0.59478 0.5   0.083336
 C 0.89612 0.68736 0.5   -0.135494
 C 0.94584 0.78328 0.5   -0.089485
 C 0.21412 0.5 0.5   0.752955
 C 0.10094 0.5 0.5   -0.148354
 C 0.04758 0.40522 0.5   -0.050476
 C 0.04758 0.59478 0.5   0.082825
 C 0.10388 0.68736 0.5   -0.134231
 C 0.05416 0.78328 0.5   -0.090934
 C 0.95242 0.40522 0.5   -0.049474
 C 0.5 0.78588 0.5   0.752242
 C 0.5 0.89906 0.5   -0.152527
 C 0.5 0.95242 0.59478   -0.049768
 C 0.5 0.21412 0.5   0.752954
 C 0.5 0.10094 0.5   -0.148375
 C 0.5 0.04758 0.40522   0.082593
 C 0.5 0.10388 0.31264   -0.134192
 C 0.5 0.05416 0.21672   -0.090952
 C 0.5 0.04758 0.59478   -0.050182
 C 0.5 0.95242 0.40522   0.083568
 C 0.5 0.89612 0.31264   -0.135532
 C 0.5 0.94584 0.21672   -0.089467
 C 0.5 0.5 0.78588   0.752954
 C 0.5 0.5 0.89906   -0.148375
 C 0.59478 0.5 0.95242   0.082593
 C 0.68736 0.5 0.89612   -0.134193
 C 0.78328 0.5 0.94584   -0.090951
 C 0.5 0.5 0.21412   0.752242
 C 0.5 0.5 0.10094   -0.152527
 C 0.40522 0.5 0.04758   -0.049768
 C 0.59478 0.5 0.04758   0.083568
 C 0.68736 0.5 0.10388   -0.135532
 C 0.78328 0.5 0.05416   -0.089467
 C 0.40522 0.5 0.95242   -0.050182
 O 0.5 0.5 0.5   -1.290917
 O 0.73678 0.55904 0.55904   -0.639098
 O 0.26322 0.44096 0.55904   -0.659188
 O 0.26322 0.55904 0.44096   -0.642706
 O 0.73678 0.44096 0.44096   -0.65488
 O 0.55904 0.73678 0.55904   -0.654877
 O 0.55904 0.26322 0.44096   -0.642704
 O 0.44096 0.26322 0.55904   -0.659191
 O 0.44096 0.73678 0.44096   -0.6391
 O 0.55904 0.55904 0.73678   -0.642703
 O 0.44096 0.55904 0.26322   -0.654877
 O 0.55904 0.44096 0.26322   -0.6391
 O 0.44096 0.44096 0.73678   -0.659191
