{'_ref': 'TBD', '_srcid': 'CAKYAQ_clean', 'submitters': [{'name': 'Dalar Nazarian Jeff Camp and David Sholl', 'email': 'dalar@gatech.edu jcamp6@gatech.edu'}], '_method': 'VASP DFT with PBE;DDEC'}
data_CoH19C19N4O5
_symmetry_space_group_name_H-M   'P 1'
_cell_length_a   7.27650030
_cell_length_b   16.97910000
_cell_length_c   17.06680000
_cell_angle_alpha   90.00000000
_cell_angle_beta   96.53800021
_cell_angle_gamma   90.00000000
_symmetry_Int_Tables_number   1
_chemical_formula_structural   CoH19C19N4O5
_chemical_formula_sum   'Co4 H76 C76 N16 O20'
_cell_volume   2094.86327679
_cell_formula_units_Z   4
loop_
 _symmetry_equiv_pos_site_id
 _symmetry_equiv_pos_as_xyz
  1  'x, y, z'
loop_
 _atom_site_label
 _atom_site_fract_x
 _atom_site_fract_y
 _atom_site_fract_z
 _atom_site_charge
 Co 0.4347 0.7987 0.80662   0.915484
 Co 0.0653 0.2987 0.69338   0.915485
 Co 0.5653 0.2013 0.19338   0.915484
 Co 0.9347 0.7013 0.30662   0.915484
 H 0.8223 0.4805 0.4617   0.04871
 H 0.9277 0.5589 0.4461   0.054005
 H 0.715 0.6323 0.6526   0.121658
 H 0.2355 0.7021 0.5363   0.097434
 H 0.5913 0.5737 0.4269   0.11312
 H 0.6049 0.0327 0.6317   0.068369
 H 0.6417 0.0425 0.5435   0.073445
 H 0.8459 0.000100000000003 0.732   0.101901
 H 0.9394 0.0821 0.7224   0.087859
 H 0.3729 0.1512 0.4881   0.14242
 H 0.5306 0.9869 0.7986   0.095049
 H 0.1031 0.2203 0.5246   0.109298
 H 0.9709 0.0544 0.5911   0.068586
 H 0.8892 0.9697 0.6001   0.083622
 H 0.7439 0.1681 0.5653   0.09131
 H 0.7446 0.1587 0.6566   0.094412
 H 0.2989 0.0864 0.7549   0.134105
 H 0.4754 0.2228 0.7073   0.109867
 H 0.0701 0.8771 0.735   0.10383
 H 0.6777 0.9805 0.0383   0.04871
 H 0.5723 0.0589 0.0539   0.054005
 H 0.785 0.1323 0.8474   0.121662
 H 0.2645 0.2021 0.9637   0.097434
 H 0.9087 0.0737 0.0731   0.11312
 H 0.8951 0.5327 0.8683   0.068369
 H 0.8583 0.5425 0.9565   0.073445
 H 0.6541 0.5001 0.768   0.101901
 H 0.5606 0.5821 0.7776   0.087859
 H 0.1271 0.6512 0.0119   0.14242
 H 0.9694 0.4869 0.7014   0.09505
 H 0.3969 0.7203 0.9754   0.109298
 H 0.5291 0.5544 0.9089   0.068586
 H 0.6108 0.4697 0.8999   0.083622
 H 0.7561 0.6681 0.9347   0.09131
 H 0.7554 0.6587 0.8434   0.094412
 H 0.2011 0.5864 0.7451   0.134106
 H 0.0246 0.7228 0.7927   0.10987
 H 0.4299 0.3771 0.765   0.103831
 H 0.1777 0.5195 0.5383   0.04871
 H 0.0723 0.4411 0.5539   0.054005
 H 0.285 0.3677 0.3474   0.121657
 H 0.7645 0.2979 0.4637   0.097435
 H 0.4087 0.4263 0.5731   0.11312
 H 0.3951 0.9673 0.3683   0.068368
 H 0.3583 0.9575 0.4565   0.073442
 H 0.1541 0.9999 0.268   0.101901
 H 0.0606 0.9179 0.2776   0.087859
 H 0.6271 0.8488 0.5119   0.142417
 H 0.4694 0.0131 0.2014   0.095049
 H 0.8969 0.7797 0.4754   0.109298
 H 0.0291 0.9456 0.4089   0.068585
 H 0.1108 0.0303 0.3999   0.083618
 H 0.2561 0.8319 0.4347   0.09131
 H 0.2554 0.8413 0.3434   0.094412
 H 0.7011 0.9136 0.2451   0.134105
 H 0.5246 0.7772 0.2927   0.109867
 H 0.9299 0.1229 0.265   0.10383
 H 0.3223 0.0195 0.9617   0.04871
 H 0.4277 0.9411 0.9461   0.054005
 H 0.215 0.8677 0.1526   0.121662
 H 0.7355 0.7979 0.0363   0.097435
 H 0.0913 0.9263 0.9269   0.11312
 H 0.1049 0.4673 0.1317   0.068368
 H 0.1417 0.4575 0.0435   0.073442
 H 0.3459 0.4999 0.232   0.101901
 H 0.4394 0.4179 0.2224   0.087859
 H 0.8729 0.3488 0.9881   0.142417
 H 0.0306 0.5131 0.2986   0.09505
 H 0.6031 0.2797 0.0246   0.109298
 H 0.4709 0.4456 0.0911   0.068585
 H 0.3892 0.5303 0.1001   0.083618
 H 0.2439 0.3319 0.0653   0.09131
 H 0.2446 0.3413 0.1566   0.094412
 H 0.7989 0.4136 0.2549   0.134106
 H 0.9754 0.2772 0.2073   0.10987
 H 0.5701 0.6229 0.235   0.103831
 C 0.678 0.5941 0.5408   0.264506
 C 0.9095 0.5193 0.4854   0.081609
 C 0.6332 0.6333 0.6065   -0.170287
 C 0.3481 0.67608 0.5371   -0.076289
 C 0.3942 0.6392 0.4694   -0.097989
 C 0.2648 0.644 0.3942   0.654489
 C 0.5598 0.5984 0.4721   -0.186774
 C 0.4684 0.6743 0.6053   -0.105796
 C 0.4239 0.718 0.6777   0.630992
 C 0.6864 0.0567 0.5974   -0.138695
 C 0.9385 0.0275 0.7057   -0.032942
 C 0.3614 0.1743 0.5367   -0.172585
 C 0.4083 0.9768 0.7791   0.047043
 C 0.2125 0.2122 0.5574   0.043263
 C 0.8844 0.0238 0.6179   -0.143629
 C 0.6794 0.1441 0.606   -0.03638
 C 0.2813 0.0322 0.755   -0.163552
 C 0.4153 0.2139 0.6571   0.152903
 C 0.1584 0.9167 0.7439   0.16961
 C 0.822 0.0941 0.9592   0.264507
 C 0.5905 0.0193 0.0146   0.081609
 C 0.8668 0.1333 0.8935   -0.170288
 C 0.1519 0.17608 0.9629   -0.07629
 C 0.1058 0.1392 0.0306   -0.097988
 C 0.2352 0.144 0.1058   0.654489
 C 0.9402 0.0984 0.0279   -0.186774
 C 0.0316 0.1743 0.8947   -0.105795
 C 0.0761 0.218 0.8223   0.630992
 C 0.8136 0.5567 0.9026   -0.138695
 C 0.5615 0.5275 0.7943   -0.032942
 C 0.1386 0.6743 0.9633   -0.172585
 C 0.0917 0.4768 0.7209   0.047042
 C 0.2875 0.7122 0.9426   0.043263
 C 0.6156 0.5238 0.8821   -0.143629
 C 0.8206 0.6441 0.894   -0.03638
 C 0.2187 0.5322 0.745   -0.163552
 C 0.0847 0.7139 0.8429   0.152902
 C 0.3416 0.4167 0.7561   0.169609
 C 0.322 0.4059 0.4592   0.264506
 C 0.0905 0.4807 0.5146   0.081608
 C 0.3668 0.3667 0.3935   -0.170287
 C 0.6519 0.32392 0.4629   -0.07629
 C 0.6058 0.3608 0.5306   -0.097989
 C 0.7352 0.356 0.6058   0.654489
 C 0.4402 0.4016 0.5279   -0.186776
 C 0.5316 0.3257 0.3947   -0.105796
 C 0.5761 0.282 0.3223   0.630992
 C 0.3136 0.9433 0.4026   -0.138693
 C 0.0615 0.9725 0.2943   -0.032943
 C 0.6386 0.8257 0.4633   -0.172585
 C 0.5917 0.0232 0.2209   0.047043
 C 0.7875 0.7878 0.4426   0.043262
 C 0.1156 0.9762 0.3821   -0.143627
 C 0.3206 0.8559 0.394   -0.03638
 C 0.7187 0.9678 0.245   -0.163552
 C 0.5847 0.7861 0.3429   0.152903
 C 0.8416 0.0833 0.2561   0.16961
 C 0.178 0.9059 0.0408   0.264506
 C 0.4095 0.9807 0.9854   0.081608
 C 0.1332 0.8667 0.1065   -0.170288
 C 0.8481 0.82392 0.0371   -0.07629
 C 0.8942 0.8608 0.9694   -0.097989
 C 0.7648 0.856 0.8942   0.654489
 C 0.0598 0.9016 0.9721   -0.186776
 C 0.9684 0.8257 0.1053   -0.105795
 C 0.9239 0.782 0.1777   0.630992
 C 0.1864 0.4433 0.0974   -0.138693
 C 0.4385 0.4725 0.2057   -0.032943
 C 0.8614 0.3257 0.0367   -0.172585
 C 0.9083 0.5232 0.2791   0.047042
 C 0.7125 0.2878 0.0574   0.043262
 C 0.3844 0.4762 0.1179   -0.143627
 C 0.1794 0.3559 0.106   -0.03638
 C 0.7813 0.4678 0.255   -0.163552
 C 0.9153 0.2861 0.1571   0.152902
 C 0.6584 0.5833 0.2439   0.169609
 N 0.2459 0.23725 0.6342   -0.417071
 N 0.3301 0.90351 0.77029   -0.427115
 N 0.1218 0.99248 0.731   0.046048
 N 0.4924 0.17589 0.6004   0.05158
 N 0.2541 0.73725 0.8658   -0.417071
 N 0.1699 0.40351 0.72971   -0.427115
 N 0.3782 0.49248 0.769   0.046048
 N 0.0076 0.67589 0.8996   0.05158
 N 0.7541 0.76275 0.3658   -0.417071
 N 0.6699 0.09649 0.22971   -0.427115
 N 0.8782 0.00752 0.269   0.046048
 N 0.5076 0.82411 0.3996   0.05158
 N 0.7459 0.26275 0.1342   -0.417071
 N 0.8301 0.59649 0.27029   -0.427115
 N 0.6218 0.50752 0.231   0.046048
 N 0.9924 0.32411 0.1004   0.05158
 O 0.8425 0.55409 0.55117   -0.269168
 O 0.1158 0.68298 0.39872   -0.617582
 O 0.2669 0.74398 0.68253   -0.584186
 O 0.305 0.6132 0.3333   -0.601688
 O 0.556 0.72906 0.73314   -0.614796
 O 0.6575 0.05409 0.94883   -0.269168
 O 0.3842 0.18298 0.10128   -0.617582
 O 0.2331 0.24398 0.81747   -0.584186
 O 0.195 0.1132 0.1667   -0.601688
 O 0.944 0.22906 0.76686   -0.614796
 O 0.1575 0.44591 0.44883   -0.269168
 O 0.8842 0.31702 0.60128   -0.617582
 O 0.7331 0.25602 0.31747   -0.584186
 O 0.695 0.3868 0.6667   -0.601688
 O 0.444 0.27094 0.26686   -0.614796
 O 0.3425 0.94591 0.05117   -0.269168
 O 0.6158 0.81702 0.89872   -0.617582
 O 0.7669 0.75602 0.18253   -0.584186
 O 0.805 0.8868 0.8333   -0.601688
 O 0.056 0.77094 0.23314   -0.614796
