{'_ref': 'TBD', '_srcid': 'CAKYAQ_clean', 'submitters': [{'name': 'Dalar Nazarian Jeff Camp and David Sholl', 'email': 'dalar@gatech.edu jcamp6@gatech.edu'}], '_method': 'VASP DFT with PBE;DDEC'}
data_CoH20C30(N2O3)2
_symmetry_space_group_name_H-M   'P 1'
_cell_length_a   15.10560037
_cell_length_b   15.10560044
_cell_length_c   16.13640000
_cell_angle_alpha   85.64839956
_cell_angle_beta   85.64839955
_cell_angle_gamma   85.62720036
_symmetry_Int_Tables_number   1
_chemical_formula_structural   CoH20C30(N2O3)2
_chemical_formula_sum   'Co4 H80 C120 N16 O24'
_cell_volume   3651.5802446
_cell_formula_units_Z   4
loop_
 _symmetry_equiv_pos_site_id
 _symmetry_equiv_pos_as_xyz
  1  'x, y, z'
loop_
 _atom_site_label
 _atom_site_fract_x
 _atom_site_fract_y
 _atom_site_fract_z
 _atom_site_charge
 Co 0.8012 0.77234 0.75473   0.608634
 Co 0.22766 0.1988 0.74527   0.608634
 Co 0.1988 0.22766 0.24527   0.608634
 Co 0.77234 0.8012 0.25473   0.608634
 H 0.5269 0.0755 0.5755   0.29994
 H 0.6146 0.4178 0.4046   0.312044
 H 0.8927 0.9287 0.1178   0.117803
 H 0.8346 0.8562 0.0172   0.086278
 H 0.0055 0.9613 0.8414   0.111672
 H 0.0429 0.4005 0.6333   0.097347
 H 0.9697 0.5045 0.7124   0.086168
 H 0.9022 0.6516 0.5073   0.111709
 H 0.5846 0.3312 0.5051   0.096111
 H 0.3418 0.3776 0.4268   0.100452
 H 0.298 0.2504 0.5067   0.112933
 H 0.4023 0.1587 0.5755   0.107441
 H 0.7848 0.981 0.7554   0.085434
 H 0.6986 0.0988 0.7014   0.155753
 H 0.5835 0.9305 0.576   0.124885
 H 0.6697 0.8185 0.6343   0.054504
 H 0.8039 0.6231 0.3391   0.064787
 H 0.7381 0.4989 0.3905   0.153544
 H 0.5149 0.6003 0.2955   0.158473
 H 0.5887 0.7227 0.245   0.086282
 H 0.9245 0.4731 0.9245   0.29994
 H 0.5822 0.3854 0.0954   0.312045
 H 0.0713 0.1073 0.3822   0.117803
 H 0.1438 0.1654 0.4828   0.086279
 H 0.0387 0.9945 0.6586   0.111671
 H 0.5995 0.9571 0.8667   0.097346
 H 0.4955 0.0303 0.7876   0.086168
 H 0.3484 0.0978 0.9927   0.111709
 H 0.6688 0.4154 0.9949   0.096111
 H 0.6224 0.6582 0.0732   0.100452
 H 0.7496 0.702 0.9933   0.112934
 H 0.8413 0.5977 0.9245   0.107441
 H 0.019 0.2152 0.7446   0.085432
 H 0.9012 0.3014 0.7986   0.15575
 H 0.0695 0.4165 0.924   0.124885
 H 0.1815 0.3303 0.8657   0.054504
 H 0.3769 0.1961 0.1609   0.064787
 H 0.5011 0.2619 0.1095   0.153544
 H 0.3997 0.4851 0.2045   0.158473
 H 0.2773 0.4113 0.255   0.086282
 H 0.4731 0.9245 0.4245   0.299941
 H 0.3854 0.5822 0.5954   0.312044
 H 0.1073 0.0713 0.8822   0.117804
 H 0.1654 0.1438 0.9828   0.086278
 H 0.9945 0.0387 0.1586   0.111672
 H 0.9571 0.5995 0.3667   0.097349
 H 0.0303 0.4955 0.2876   0.086168
 H 0.0978 0.3484 0.4927   0.11171
 H 0.4154 0.6688 0.4949   0.096111
 H 0.6582 0.6224 0.5732   0.100452
 H 0.702 0.7496 0.4933   0.112933
 H 0.5977 0.8413 0.4245   0.107442
 H 0.2152 0.019 0.2446   0.085434
 H 0.3014 0.9012 0.2986   0.155753
 H 0.4165 0.0695 0.424   0.124887
 H 0.3303 0.1815 0.3657   0.054504
 H 0.1961 0.3769 0.6609   0.064787
 H 0.2619 0.5011 0.6095   0.153544
 H 0.4851 0.3997 0.7045   0.158473
 H 0.4113 0.2773 0.755   0.086282
 H 0.0755 0.5269 0.0755   0.299941
 H 0.4178 0.6146 0.9046   0.312045
 H 0.9287 0.8927 0.6178   0.117804
 H 0.8562 0.8346 0.5172   0.086278
 H 0.9613 0.0055 0.3414   0.111671
 H 0.4005 0.0429 0.1333   0.097349
 H 0.5045 0.9697 0.2124   0.086167
 H 0.6516 0.9022 0.0073   0.11171
 H 0.3312 0.5846 0.0051   0.096111
 H 0.3776 0.3418 0.9268   0.100453
 H 0.2504 0.298 0.0067   0.112934
 H 0.1587 0.4023 0.0755   0.107442
 H 0.981 0.7848 0.2554   0.085432
 H 0.0988 0.6986 0.2014   0.15575
 H 0.9305 0.5835 0.076   0.124887
 H 0.8185 0.6697 0.1343   0.054504
 H 0.6231 0.8039 0.8391   0.064787
 H 0.4989 0.7381 0.8905   0.153544
 H 0.6003 0.5149 0.7955   0.158473
 H 0.7227 0.5887 0.745   0.086282
 C 0.8783 0.8533 0.8538   0.621084
 C 0.9146 0.9368 0.0625   -0.132301
 C 0.8809 0.8929 0.0029   -0.048204
 C 0.9164 0.9028 0.9187   -0.148931
 C 0.9825 0.9561 0.8965   -0.082161
 C 0.0183 0.0063 0.9593   0.0416
 C 0.8807 0.6569 0.6694   0.616552
 C 0.0157 0.4513 0.6072   -0.132727
 C 0.9717 0.5129 0.6546   -0.054469
 C 0.929 0.5894 0.6163   -0.115324
 C 0.9316 0.6012 0.5322   -0.083488
 C 0.9783 0.5379 0.4814   0.040386
 C 0.5726 0.1836 0.5966   0.528423
 C 0.4913 0.4491 0.4067   0.528197
 C 0.5019 0.2359 0.5479   -0.132947
 C 0.5271 0.3139 0.5029   -0.034033
 C 0.4687 0.3649 0.4562   -0.147856
 C 0.3828 0.3422 0.4572   -0.031601
 C 0.3568 0.2652 0.5044   -0.064302
 C 0.4185 0.2115 0.5472   -0.064458
 C 0.7419 0.9701 0.7198   0.182869
 C 0.6906 0.0416 0.6871   -0.259516
 C 0.6277 0.0281 0.6334   0.313729
 C 0.6232 0.943 0.6142   -0.286551
 C 0.6752 0.876 0.6493   0.184663
 C 0.7444 0.619 0.33   0.177463
 C 0.7051 0.5445 0.3622   -0.295745
 C 0.6166 0.5374 0.3524   0.304718
 C 0.574 0.6038 0.3063   -0.257179
 C 0.6194 0.6772 0.2754   0.181121
 C 0.1467 0.1217 0.6462   0.621084
 C 0.0632 0.0854 0.4375   -0.132301
 C 0.1071 0.1191 0.4971   -0.048205
 C 0.0972 0.0836 0.5813   -0.148931
 C 0.0439 0.0175 0.6035   -0.082161
 C 0.9937 0.9817 0.5407   0.0416
 C 0.3431 0.1193 0.8306   0.616552
 C 0.5487 0.9843 0.8928   -0.132729
 C 0.4871 0.0283 0.8454   -0.054464
 C 0.4106 0.071 0.8837   -0.115328
 C 0.3988 0.0684 0.9678   -0.083487
 C 0.4621 0.0217 0.0186   0.040386
 C 0.8164 0.4274 0.9034   0.528423
 C 0.5509 0.5087 0.0933   0.528198
 C 0.7641 0.4981 0.9521   -0.132947
 C 0.6861 0.4729 0.9971   -0.034033
 C 0.6351 0.5313 0.0438   -0.147855
 C 0.6578 0.6172 0.0428   -0.0316
 C 0.7348 0.6432 0.9956   -0.064302
 C 0.7885 0.5815 0.9528   -0.064458
 C 0.0299 0.2581 0.7802   0.182869
 C 0.9584 0.3094 0.8129   -0.259516
 C 0.9719 0.3723 0.8666   0.313729
 C 0.057 0.3768 0.8858   -0.286551
 C 0.124 0.3248 0.8507   0.184663
 C 0.381 0.2556 0.17   0.177463
 C 0.4555 0.2949 0.1378   -0.295744
 C 0.4626 0.3834 0.1476   0.304719
 C 0.3962 0.426 0.1937   -0.257178
 C 0.3228 0.3806 0.2246   0.181121
 C 0.1217 0.1467 0.1462   0.621084
 C 0.0854 0.0632 0.9375   -0.132309
 C 0.1191 0.1071 0.9971   -0.048203
 C 0.0836 0.0972 0.0813   -0.148931
 C 0.0175 0.0439 0.1035   -0.082162
 C 0.9817 0.9937 0.0407   0.041596
 C 0.1193 0.3431 0.3306   0.616551
 C 0.9843 0.5487 0.3928   -0.132741
 C 0.0283 0.4871 0.3454   -0.054466
 C 0.071 0.4106 0.3837   -0.115324
 C 0.0684 0.3988 0.4678   -0.083492
 C 0.0217 0.4621 0.5186   0.040372
 C 0.4274 0.8164 0.4034   0.528423
 C 0.5087 0.5509 0.5933   0.528197
 C 0.4981 0.7641 0.4521   -0.132947
 C 0.4729 0.6861 0.4971   -0.034032
 C 0.5313 0.6351 0.5438   -0.147855
 C 0.6172 0.6578 0.5428   -0.0316
 C 0.6432 0.7348 0.4956   -0.064301
 C 0.5815 0.7885 0.4528   -0.064457
 C 0.2581 0.0299 0.2802   0.18287
 C 0.3094 0.9584 0.3129   -0.259516
 C 0.3723 0.9719 0.3666   0.313729
 C 0.3768 0.057 0.3858   -0.286551
 C 0.3248 0.124 0.3507   0.184665
 C 0.2556 0.381 0.67   0.177465
 C 0.2949 0.4555 0.6378   -0.295745
 C 0.3834 0.4626 0.6476   0.304719
 C 0.426 0.3962 0.6937   -0.257178
 C 0.3806 0.3228 0.7246   0.181122
 C 0.8533 0.8783 0.3538   0.621084
 C 0.9368 0.9146 0.5625   -0.132309
 C 0.8929 0.8809 0.5029   -0.048204
 C 0.9028 0.9164 0.4187   -0.148931
 C 0.9561 0.9825 0.3965   -0.082163
 C 0.0063 0.0183 0.4593   0.041595
 C 0.6569 0.8807 0.1694   0.616552
 C 0.4513 0.0157 0.1072   -0.132743
 C 0.5129 0.9717 0.1546   -0.054461
 C 0.5894 0.929 0.1163   -0.115328
 C 0.6012 0.9316 0.0322   -0.083491
 C 0.5379 0.9783 0.9814   0.040372
 C 0.1836 0.5726 0.0966   0.528423
 C 0.4491 0.4913 0.9067   0.528199
 C 0.2359 0.5019 0.0479   -0.132947
 C 0.3139 0.5271 0.0029   -0.034032
 C 0.3649 0.4687 0.9562   -0.147855
 C 0.3422 0.3828 0.9572   -0.0316
 C 0.2652 0.3568 0.0044   -0.064301
 C 0.2115 0.4185 0.0472   -0.064456
 C 0.9701 0.7419 0.2198   0.18287
 C 0.0416 0.6906 0.1871   -0.259516
 C 0.0281 0.6277 0.1334   0.313729
 C 0.943 0.6232 0.1142   -0.286551
 C 0.876 0.6752 0.1493   0.184665
 C 0.619 0.7444 0.83   0.177465
 C 0.5445 0.7051 0.8622   -0.295744
 C 0.5374 0.6166 0.8524   0.30472
 C 0.6038 0.574 0.8063   -0.257177
 C 0.6772 0.6194 0.7754   0.181123
 N 0.7339 0.8875 0.7039   -0.300059
 N 0.5704 0.0942 0.599   -0.411946
 N 0.7036 0.686 0.2867   -0.320385
 N 0.5781 0.4619 0.3901   -0.423113
 N 0.1125 0.2661 0.7961   -0.30006
 N 0.9058 0.4296 0.901   -0.411946
 N 0.314 0.2964 0.2133   -0.320385
 N 0.5381 0.4219 0.1099   -0.423113
 N 0.2661 0.1125 0.2961   -0.30006
 N 0.4296 0.9058 0.401   -0.411947
 N 0.2964 0.314 0.7133   -0.320386
 N 0.4219 0.5381 0.6099   -0.423113
 N 0.8875 0.7339 0.2039   -0.30006
 N 0.0942 0.5704 0.099   -0.411947
 N 0.686 0.7036 0.7867   -0.320386
 N 0.4619 0.5781 0.8901   -0.423113
 O 0.9135 0.8493 0.782   -0.520192
 O 0.8066 0.8164 0.8738   -0.518377
 O 0.8867 0.6505 0.7474   -0.543442
 O 0.833 0.7192 0.6377   -0.489662
 O 0.6276 0.2208 0.6326   -0.473523
 O 0.4333 0.5037 0.3826   -0.480495
 O 0.1507 0.0865 0.718   -0.520192
 O 0.1836 0.1934 0.6262   -0.518377
 O 0.3495 0.1133 0.7526   -0.543442
 O 0.2808 0.167 0.8623   -0.489662
 O 0.7792 0.3724 0.8674   -0.473523
 O 0.4963 0.5667 0.1174   -0.480496
 O 0.0865 0.1507 0.218   -0.520192
 O 0.1934 0.1836 0.1262   -0.518378
 O 0.1133 0.3495 0.2526   -0.543442
 O 0.167 0.2808 0.3623   -0.489662
 O 0.3724 0.7792 0.3674   -0.473523
 O 0.5667 0.4963 0.6174   -0.480496
 O 0.8493 0.9135 0.282   -0.520192
 O 0.8164 0.8066 0.3738   -0.518378
 O 0.6505 0.8867 0.2474   -0.543442
 O 0.7192 0.833 0.1377   -0.489662
 O 0.2208 0.6276 0.1326   -0.473523
 O 0.5037 0.4333 0.8826   -0.480496
