{'_ref': 'TBD', '_srcid': 'CAKYAQ_clean', 'submitters': [{'name': 'Dalar Nazarian Jeff Camp and David Sholl', 'email': 'dalar@gatech.edu jcamp6@gatech.edu'}], '_method': 'VASP DFT with PBE;DDEC'}
data_Nd2HC4NO12
_symmetry_space_group_name_H-M   'P 1'
_cell_length_a   6.26719996
_cell_length_b   8.62039968
_cell_length_c   12.93600000
_cell_angle_alpha   105.31400142
_cell_angle_beta   90.43900194
_cell_angle_gamma   105.08099707
_symmetry_Int_Tables_number   1
_chemical_formula_structural   Nd2HC4NO12
_chemical_formula_sum   'Nd4 H2 C8 N2 O24'
_cell_volume   648.654182445
_cell_formula_units_Z   2
loop_
 _symmetry_equiv_pos_site_id
 _symmetry_equiv_pos_as_xyz
  1  'x, y, z'
loop_
 _atom_site_label
 _atom_site_fract_x
 _atom_site_fract_y
 _atom_site_fract_z
 _atom_site_charge
 Nd 0.80913 0.66646 0.0749   2.249714
 Nd 0.55756 0.0278 0.25762   2.175442
 Nd 0.19087 0.33354 0.9251   2.249713
 Nd 0.44244 0.9722 0.74238   2.175427
 H 0.9803 0.9695 0.2953   0.37444
 H 0.0197 0.0305 0.7047   0.37444
 C 0.9447 0.0519 0.0456   0.609324
 C 0.5426 0.3021 0.1284   0.624907
 C 0.7312 0.3947 0.2183   0.537023
 C 0.4054 0.9184 0.4787   0.57917
 C 0.0553 0.9481 0.9544   0.609325
 C 0.4574 0.6979 0.8716   0.624907
 C 0.2688 0.6053 0.7817   0.537023
 C 0.5946 0.0816 0.5213   0.579173
 N 0.2843 0.7075 0.1314   0.834537
 N 0.7157 0.2925 0.8686   0.834537
 O 0.8274 0.9712 0.1035   -0.779994
 O 0.9791 0.2039 0.0554   -0.623358
 O 0.4417 0.1563 0.1255   -0.646191
 O 0.5046 0.3841 0.0658   -0.79576
 O 0.7653 0.3142 0.2821   -0.613641
 O 0.8359 0.5402 0.2221   -0.570314
 O 0.3584 0.8697 0.3795   -0.628363
 O 0.3163 0.8493 0.5478   -0.608648
 O 0.2006 0.8318 0.1623   -0.551293
 O 0.1604 0.5669 0.0753   -0.609915
 O 0.49 0.7322 0.1605   -0.580214
 O 0.8587 0.8979 0.2948   -0.97686
 O 0.1726 0.0288 0.8965   -0.779993
 O 0.0209 0.7961 0.9446   -0.623359
 O 0.5583 0.8437 0.8745   -0.646191
 O 0.4954 0.6159 0.9342   -0.79576
 O 0.2347 0.6858 0.7179   -0.61364
 O 0.1641 0.4598 0.7779   -0.570314
 O 0.6416 0.1303 0.6205   -0.628363
 O 0.6837 0.1507 0.4522   -0.608648
 O 0.7994 0.1682 0.8377   -0.551293
 O 0.8396 0.4331 0.9247   -0.609916
 O 0.51 0.2678 0.8395   -0.580214
 O 0.1413 0.1021 0.7052   -0.97686
