{'_ref': 'TBD', '_srcid': 'CAKYAQ_clean', 'submitters': [{'name': 'Dalar Nazarian Jeff Camp and David Sholl', 'email': 'dalar@gatech.edu jcamp6@gatech.edu'}], '_method': 'VASP DFT with PBE;DDEC'}
data_CdC4
_symmetry_space_group_name_H-M   'P 1'
_cell_length_a   8.93639964
_cell_length_b   8.93639983
_cell_length_c   8.93640000
_cell_angle_alpha   59.99999936
_cell_angle_beta   59.99999866
_cell_angle_gamma   60.00000194
_symmetry_Int_Tables_number   1
_chemical_formula_structural   CdC4
_chemical_formula_sum   'Cd2 C8'
_cell_volume   504.629663149
_cell_formula_units_Z   2
loop_
 _symmetry_equiv_pos_site_id
 _symmetry_equiv_pos_as_xyz
  1  'x, y, z'
loop_
 _atom_site_label
 _atom_site_fract_x
 _atom_site_fract_y
 _atom_site_fract_z
 _atom_site_charge
 Cd 0.875 0.375 0.375   0.719934
 Cd 0.125 0.625 0.625   0.719811
 C 0.581 0.473 0.473   -0.18006
 C 0.973 0.081 0.473   -0.180065
 C 0.973 0.473 0.081   -0.180068
 C 0.973 0.473 0.473   -0.18007
 C 0.027 0.919 0.527   -0.179865
 C 0.419 0.527 0.527   -0.179871
 C 0.027 0.527 0.919   -0.179873
 C 0.027 0.527 0.527   -0.179873
