{'_ref': 'TBD', '_srcid': 'CAKYAQ_clean', 'submitters': [{'name': 'Dalar Nazarian Jeff Camp and David Sholl', 'email': 'dalar@gatech.edu jcamp6@gatech.edu'}], '_method': 'VASP DFT with PBE;DDEC'}
data_DyHC5(NO2)2
_symmetry_space_group_name_H-M   'P 1'
_cell_length_a   15.99190034
_cell_length_b   16.36130045
_cell_length_c   16.36130000
_cell_angle_alpha   76.18189923
_cell_angle_beta   60.74400121
_cell_angle_gamma   60.74399961
_symmetry_Int_Tables_number   1
_chemical_formula_structural   DyHC5(NO2)2
_chemical_formula_sum   'Dy16 H16 C80 N32 O64'
_cell_volume   3258.45446685
_cell_formula_units_Z   16
loop_
 _symmetry_equiv_pos_site_id
 _symmetry_equiv_pos_as_xyz
  1  'x, y, z'
loop_
 _atom_site_label
 _atom_site_fract_x
 _atom_site_fract_y
 _atom_site_fract_z
 _atom_site_charge
 Dy 0.58236 0.62015 0.03358   2.254314
 Dy 0.1248 0.88703 0.02495   2.266303
 Dy 0.73609 0.87985 0.46642   2.25463
 Dy 0.53678 0.61297 0.47505   2.266795
 Dy 0.61594 0.96642 0.12015   2.254549
 Dy 0.14975 0.97505 0.38703   2.266107
 Dy 0.20251 0.53358 0.37985   2.255592
 Dy 0.01183 0.52495 0.11297   2.267252
 Dy 0.41764 0.37985 0.96642   2.254312
 Dy 0.8752 0.11297 0.97505   2.266303
 Dy 0.26391 0.12015 0.53358   2.254628
 Dy 0.46322 0.38703 0.52495   2.266795
 Dy 0.38406 0.03358 0.87985   2.254547
 Dy 0.85025 0.02495 0.61297   2.266107
 Dy 0.79749 0.46642 0.62015   2.25559
 Dy 0.98817 0.47505 0.88703   2.267252
 H 0.0527 0.7526 0.2536   0.035109
 H 0.4806 0.5981 0.2835   0.034205
 H 0.5589 0.7474 0.2464   0.032792
 H 0.8622 0.9019 0.2165   0.035375
 H 0.3063 0.7464 0.2526   0.033105
 H 0.7641 0.7165 0.0981   0.034979
 H 0.8053 0.7536 0.2474   0.033175
 H 0.0787 0.7835 0.4019   0.035125
 H 0.9473 0.2474 0.7464   0.035109
 H 0.5194 0.4019 0.7165   0.034205
 H 0.4411 0.2526 0.7536   0.032792
 H 0.1378 0.0981 0.7835   0.035375
 H 0.6937 0.2536 0.7474   0.033105
 H 0.2359 0.2835 0.9019   0.034979
 H 0.1947 0.2464 0.7526   0.033175
 H 0.9213 0.2165 0.5981   0.035125
 C 0.1263 0.7258 0.2178   0.405018
 C 0.292 0.6325 0.1717   -0.021425
 C 0.2808 0.7034 0.1064   0.009695
 C 0.3537 0.7245 0.0159   0.785879
 C 0.3842 0.5526 0.18   0.753318
 C 0.5521 0.5843 0.2599   0.439378
 C 0.7141 0.5566 0.1632   0.031659
 C 0.702 0.5479 0.2541   0.036716
 C 0.7739 0.5317 0.2941   0.755539
 C 0.802 0.5457 0.0681   0.736352
 C 0.5699 0.7742 0.2822   0.409129
 C 0.5962 0.8675 0.3283   -0.021701
 C 0.5906 0.7966 0.3936   0.00944
 C 0.5941 0.7755 0.4841   0.783937
 C 0.6168 0.9474 0.32   0.754012
 C 0.8963 0.9157 0.2401   0.437545
 C 0.9339 0.9434 0.3368   0.031447
 C 0.004 0.9521 0.2459   0.037456
 C 0.0997 0.9683 0.2059   0.755694
 C 0.9158 0.9543 0.4319   0.73486
 C 0.3441 0.7822 0.2258   0.408279
 C 0.4637 0.8283 0.1325   -0.024027
 C 0.3872 0.8936 0.2034   0.011565
 C 0.3696 0.9841 0.2245   0.782752
 C 0.5642 0.82 0.0526   0.754073
 C 0.812 0.7401 0.0843   0.440431
 C 0.8773 0.8368 0.0566   0.031056
 C 0.9561 0.7459 0.0479   0.039728
 C 0.068 0.7059 0.0317   0.755708
 C 0.8701 0.9319 0.0457   0.737956
 C 0.8521 0.7178 0.2742   0.407212
 C 0.9245 0.6717 0.3675   -0.022721
 C 0.9842 0.6064 0.2966   0.010009
 C 0.0782 0.5159 0.2755   0.785616
 C 0.9368 0.68 0.4474   0.754458
 C 0.1364 0.7599 0.4157   0.441341
 C 0.2707 0.6632 0.4434   0.031174
 C 0.2499 0.7541 0.4521   0.038955
 C 0.3056 0.7941 0.4683   0.755547
 C 0.3477 0.5681 0.4543   0.735018
 C 0.8737 0.2742 0.7822   0.405018
 C 0.708 0.3675 0.8283   -0.021425
 C 0.7192 0.2966 0.8936   0.009695
 C 0.6463 0.2755 0.9841   0.785879
 C 0.6158 0.4474 0.82   0.753318
 C 0.4479 0.4157 0.7401   0.439378
 C 0.2859 0.4434 0.8368   0.03166
 C 0.298 0.4521 0.7459   0.036716
 C 0.2261 0.4683 0.7059   0.755539
 C 0.198 0.4543 0.9319   0.736352
 C 0.4301 0.2258 0.7178   0.409129
 C 0.4038 0.1325 0.6717   -0.021701
 C 0.4094 0.2034 0.6064   0.00944
 C 0.4059 0.2245 0.5159   0.783937
 C 0.3832 0.0526 0.68   0.754012
 C 0.1037 0.0843 0.7599   0.437544
 C 0.0661 0.0566 0.6632   0.031447
 C 0.996 0.0479 0.7541   0.037456
 C 0.9003 0.0317 0.7941   0.755694
 C 0.0842 0.0457 0.5681   0.73486
 C 0.6559 0.2178 0.7742   0.408279
 C 0.5363 0.1717 0.8675   -0.024027
 C 0.6128 0.1064 0.7966   0.011565
 C 0.6304 0.0159 0.7755   0.782752
 C 0.4358 0.18 0.9474   0.754073
 C 0.188 0.2599 0.9157   0.440431
 C 0.1227 0.1632 0.9434   0.031056
 C 0.0439 0.2541 0.9521   0.039728
 C 0.932 0.2941 0.9683   0.755708
 C 0.1299 0.0681 0.9543   0.737956
 C 0.1479 0.2822 0.7258   0.407212
 C 0.0755 0.3283 0.6325   -0.022721
 C 0.0158 0.3936 0.7034   0.010009
 C 0.9218 0.4841 0.7245   0.785616
 C 0.0632 0.32 0.5526   0.754458
 C 0.8636 0.2401 0.5843   0.441341
 C 0.7293 0.3368 0.5566   0.031174
 C 0.7501 0.2459 0.5479   0.038955
 C 0.6944 0.2059 0.5317   0.755547
 C 0.6523 0.4319 0.5457   0.735018
 N 0.1739 0.7629 0.1371   -0.578933
 N 0.1926 0.6466 0.2434   -0.622475
 N 0.6158 0.5809 0.1681   -0.665466
 N 0.5985 0.5667 0.3151   -0.619704
 N 0.5739 0.7371 0.3629   -0.580424
 N 0.5826 0.8534 0.2566   -0.623212
 N 0.8648 0.9191 0.3319   -0.665007
 N 0.9803 0.9333 0.1849   -0.619724
 N 0.311 0.8629 0.2629   -0.579682
 N 0.436 0.7566 0.1466   -0.621634
 N 0.7839 0.8319 0.0809   -0.666397
 N 0.9136 0.6849 0.0667   -0.6222
 N 0.9368 0.6371 0.2371   -0.580114
 N 0.8392 0.7434 0.3534   -0.621443
 N 0.1967 0.6681 0.4191   -0.666342
 N 0.1652 0.8151 0.4333   -0.622552
 N 0.8261 0.2371 0.8629   -0.578933
 N 0.8074 0.3534 0.7566   -0.622475
 N 0.3842 0.4191 0.8319   -0.665466
 N 0.4015 0.4333 0.6849   -0.619704
 N 0.4261 0.2629 0.6371   -0.580424
 N 0.4174 0.1466 0.7434   -0.623212
 N 0.1352 0.0809 0.6681   -0.665007
 N 0.0197 0.0667 0.8151   -0.619724
 N 0.689 0.1371 0.7371   -0.579682
 N 0.564 0.2434 0.8534   -0.621634
 N 0.2161 0.1681 0.9191   -0.666397
 N 0.0864 0.3151 0.9333   -0.6222
 N 0.0632 0.3629 0.7629   -0.580114
 N 0.1608 0.2566 0.6466   -0.621443
 N 0.8033 0.3319 0.5809   -0.666342
 N 0.8348 0.1849 0.5667   -0.622552
 O 0.30967 0.79396 0.9711   -0.72824
 O 0.45336 0.67912 0.98276   -0.786871
 O 0.4768 0.5446 0.1286   -0.757135
 O 0.3652 0.4921 0.2425   -0.714494
 O 0.72903 0.5434 0.38194   -0.688474
 O 0.87172 0.50588 0.24348   -0.756771
 O 0.89886 0.51329 0.05419   -0.850609
 O 0.77851 0.56806 0.000520000000002   -0.753301
 O 0.57473 0.70604 0.5289   -0.72752
 O 0.61524 0.82088 0.51724   -0.785646
 O 0.65 0.9554 0.3714   -0.757822
 O 0.5998 0.0079 0.2575   -0.71426
 O 0.15437 0.9566 0.11806   -0.688808
 O 0.12108 0.99412 0.25652   -0.756822
 O 0.96634 0.98671 0.44581   -0.849575
 O 0.84709 0.93194 0.49948   -0.752007
 O 0.28077 0.0289 0.29396   -0.726669
 O 0.43612 0.01724 0.17912   -0.786463
 O 0.6054 0.8714 0.0446   -0.75791
 O 0.6077 0.7575 0.9921   -0.71381
 O 0.11097 0.61806 0.0434   -0.688595
 O 0.1152 0.75652 0.00588   -0.758223
 O 0.95305 0.94581 0.01329   -0.851944
 O 0.77903 0.99948 0.06806   -0.753506
 O 0.10363 0.4711 0.20604   -0.728185
 O 0.13248 0.48276 0.32088   -0.787602
 O 0.0214 0.6286 0.4554   -0.758672
 O 0.8573 0.7425 0.5079   -0.713379
 O 0.27243 0.88194 0.4566   -0.688699
 O 0.3776 0.74348 0.49412   -0.757511
 O 0.41215 0.55419 0.48671   -0.850224
 O 0.34657 0.50052 0.43194   -0.752425
 O 0.69033 0.20604 0.0289   -0.72824
 O 0.54664 0.32088 0.01724   -0.786871
 O 0.5232 0.4554 0.8714   -0.757135
 O 0.6348 0.5079 0.7575   -0.714494
 O 0.27097 0.4566 0.61806   -0.688474
 O 0.12828 0.49412 0.75652   -0.756771
 O 0.10114 0.48671 0.94581   -0.850609
 O 0.22149 0.43194 0.99948   -0.753301
 O 0.42527 0.29396 0.4711   -0.72752
 O 0.38476 0.17912 0.48276   -0.785646
 O 0.35 0.0446 0.6286   -0.757821
 O 0.4002 0.9921 0.7425   -0.71426
 O 0.84563 0.0434 0.88194   -0.688808
 O 0.87892 0.00588 0.74348   -0.756822
 O 0.03366 0.01329 0.55419   -0.849575
 O 0.15291 0.06806 0.50052   -0.752007
 O 0.71923 0.9711 0.70604   -0.726669
 O 0.56388 0.98276 0.82088   -0.786463
 O 0.3946 0.1286 0.9554   -0.75791
 O 0.3923 0.2425 0.0079   -0.71381
 O 0.88903 0.38194 0.9566   -0.688595
 O 0.8848 0.24348 0.99412   -0.758223
 O 0.04695 0.05419 0.98671   -0.851944
 O 0.22097 0.000520000000002 0.93194   -0.753506
 O 0.89637 0.5289 0.79396   -0.728185
 O 0.86752 0.51724 0.67912   -0.787602
 O 0.9786 0.3714 0.5446   -0.758671
 O 0.1427 0.2575 0.4921   -0.713379
 O 0.72757 0.11806 0.5434   -0.688699
 O 0.6224 0.25652 0.50588   -0.757511
 O 0.58785 0.44581 0.51329   -0.850224
 O 0.65343 0.49948 0.56806   -0.752425
