{'_ref': 'TBD', '_srcid': 'CAKYAQ_clean', 'submitters': [{'name': 'Dalar Nazarian Jeff Camp and David Sholl', 'email': 'dalar@gatech.edu jcamp6@gatech.edu'}], '_method': 'VASP DFT with PBE;DDEC'}
data_ZnH2(CO2)2
_symmetry_space_group_name_H-M   'P 1'
_cell_length_a   9.86800000
_cell_length_b   18.14000000
_cell_length_c   18.24760000
_cell_angle_alpha   90.00000000
_cell_angle_beta   90.00000000
_cell_angle_gamma   90.00000000
_symmetry_Int_Tables_number   1
_chemical_formula_structural   ZnH2(CO2)2
_chemical_formula_sum   'Zn24 H48 C48 O96'
_cell_volume   3266.42112675
_cell_formula_units_Z   24
loop_
 _symmetry_equiv_pos_site_id
 _symmetry_equiv_pos_as_xyz
  1  'x, y, z'
loop_
 _atom_site_label
 _atom_site_fract_x
 _atom_site_fract_y
 _atom_site_fract_z
 _atom_site_charge
 Zn 0.92253 0.93778 0.6787   1.085681
 Zn 0.10991 0.03585 0.78477   1.063536
 Zn 0.57747 0.43778 0.82129   1.085645
 Zn 0.39009 0.53585 0.71522   1.063629
 Zn 0.07747 0.56222 0.6787   1.085681
 Zn 0.89009 0.46415 0.78477   1.063536
 Zn 0.42253 0.06222 0.82129   1.085645
 Zn 0.60991 0.96415 0.71522   1.063629
 Zn 0.07747 0.06222 0.32129   1.085645
 Zn 0.89009 0.96415 0.21522   1.063629
 Zn 0.42253 0.56222 0.1787   1.085681
 Zn 0.60991 0.46415 0.28477   1.063536
 Zn 0.92253 0.43778 0.32129   1.085645
 Zn 0.10991 0.53585 0.21522   1.063629
 Zn 0.57747 0.93778 0.1787   1.085681
 Zn 0.39009 0.03585 0.28477   1.063536
 Zn 0.0 0.75 0.68882   1.10282
 Zn 0.5 0.25 0.81118   1.102823
 Zn 0.0 0.25 0.31118   1.102823
 Zn 0.5 0.75 0.18882   1.10282
 Zn 0.0 0.0 0.5   1.085463
 Zn 0.5 0.5 0.0   1.085463
 Zn 0.0 0.5 0.5   1.085463
 Zn 0.5 0.0 0.0   1.085463
 H 0.151 0.8666 0.5338   -0.017174
 H 0.2 0.8776 0.8204   0.001355
 H 0.76 0.0061 0.8629   -0.007334
 H 0.038 0.1424 0.656   0.006428
 H 0.698 0.7609 0.6883   0.015947
 H 0.619 0.9872 0.5511   0.009034
 H 0.349 0.3666 0.9662   -0.017182
 H 0.3 0.3776 0.6796   0.00135
 H 0.74 0.5061 0.6371   -0.007328
 H 0.462 0.6424 0.844   0.006426
 H 0.802 0.2609 0.8117   0.015949
 H 0.881 0.4872 0.9489   0.009028
 H 0.849 0.6334 0.5338   -0.017174
 H 0.8 0.6224 0.8204   0.001355
 H 0.24 0.4939 0.8629   -0.007334
 H 0.962 0.3576 0.656   0.00643
 H 0.302 0.7391 0.6883   0.015947
 H 0.381 0.5128 0.5511   0.009034
 H 0.651 0.1334 0.9662   -0.017182
 H 0.7 0.1224 0.6796   0.00135
 H 0.26 0.9939 0.6371   -0.007328
 H 0.538 0.8576 0.844   0.006428
 H 0.198 0.2391 0.8117   0.015949
 H 0.119 0.0128 0.9489   0.009028
 H 0.849 0.1334 0.4662   -0.017182
 H 0.8 0.1224 0.1796   0.001349
 H 0.24 0.9939 0.1371   -0.007328
 H 0.962 0.8576 0.344   0.006426
 H 0.302 0.2391 0.3117   0.015949
 H 0.381 0.0128 0.4489   0.009028
 H 0.651 0.6334 0.0338   -0.017174
 H 0.7 0.6224 0.3204   0.001355
 H 0.26 0.4939 0.3629   -0.007334
 H 0.538 0.3576 0.156   0.006429
 H 0.198 0.7391 0.1883   0.015947
 H 0.119 0.5128 0.0511   0.009034
 H 0.151 0.3666 0.4662   -0.017182
 H 0.2 0.3776 0.1796   0.00135
 H 0.76 0.5061 0.1371   -0.007328
 H 0.038 0.6424 0.344   0.006428
 H 0.698 0.2609 0.3117   0.015949
 H 0.619 0.4872 0.4489   0.009028
 H 0.349 0.8666 0.0338   -0.017174
 H 0.3 0.8776 0.3204   0.001355
 H 0.74 0.0061 0.3629   -0.007334
 H 0.462 0.1424 0.156   0.00643
 H 0.802 0.7609 0.1883   0.015947
 H 0.881 0.9872 0.0511   0.009034
 C 0.1011 0.86286 0.57191   0.743921
 C 0.136 0.86714 0.78323   0.684033
 C 0.0172 0.0961 0.63852   0.68826
 C 0.8296 0.00047 0.82982   0.698875
 C 0.7222 0.81179 0.69382   0.679361
 C 0.7124 0.98734 0.56032   0.680999
 C 0.3989 0.36286 0.92809   0.743908
 C 0.364 0.36714 0.71677   0.684051
 C 0.4828 0.5961 0.86148   0.688259
 C 0.6704 0.50047 0.67018   0.698861
 C 0.7778 0.31179 0.80618   0.679347
 C 0.7876 0.48734 0.93968   0.681001
 C 0.8989 0.63714 0.57191   0.743921
 C 0.864 0.63286 0.78323   0.684032
 C 0.9828 0.4039 0.63852   0.68826
 C 0.1704 0.49953 0.82982   0.698875
 C 0.2778 0.68821 0.69382   0.679361
 C 0.2876 0.51266 0.56032   0.680999
 C 0.6011 0.13714 0.92809   0.743908
 C 0.636 0.13286 0.71677   0.684051
 C 0.5172 0.9039 0.86148   0.688258
 C 0.3296 0.99953 0.67018   0.698861
 C 0.2222 0.18821 0.80618   0.679347
 C 0.2124 0.01266 0.93968   0.681001
 C 0.8989 0.13714 0.42809   0.743908
 C 0.864 0.13286 0.21677   0.684051
 C 0.9828 0.9039 0.36148   0.688259
 C 0.1704 0.99953 0.17018   0.698861
 C 0.2778 0.18821 0.30618   0.679347
 C 0.2876 0.01266 0.43968   0.681001
 C 0.6011 0.63714 0.07191   0.743921
 C 0.636 0.63286 0.28323   0.684032
 C 0.5172 0.4039 0.13852   0.68826
 C 0.3296 0.49953 0.32982   0.698875
 C 0.2222 0.68821 0.19382   0.679361
 C 0.2124 0.51266 0.06032   0.680999
 C 0.1011 0.36286 0.42809   0.743908
 C 0.136 0.36714 0.21677   0.684051
 C 0.0172 0.5961 0.36148   0.688258
 C 0.8296 0.50047 0.17018   0.698861
 C 0.7222 0.31179 0.30618   0.679347
 C 0.7124 0.48734 0.43968   0.681001
 C 0.3989 0.86286 0.07191   0.743921
 C 0.364 0.86714 0.28323   0.684032
 C 0.4828 0.0961 0.13852   0.688259
 C 0.6704 0.00047 0.32982   0.698875
 C 0.7778 0.81179 0.19382   0.679361
 C 0.7876 0.98734 0.06032   0.680999
 O 0.02649 0.91903 0.58413   -0.667019
 O 0.10819 0.8068 0.60908   -0.600854
 O 0.08387 0.92298 0.75236   -0.651395
 O 0.1102 0.80204 0.76983   -0.584516
 O 0.00741 0.04476 0.68532   -0.651829
 O 0.0022 0.08994 0.57163   -0.590106
 O 0.80172 0.96856 0.76975   -0.64909
 O 0.94081 0.02663 0.84778   -0.586893
 O 0.84543 0.83169 0.68684   -0.638181
 O 0.79119 0.99127 0.50763   -0.572884
 O 0.62298 0.85248 0.70408   -0.582761
 O 0.74513 0.97877 0.62732   -0.65158
 O 0.47351 0.41903 0.91587   -0.666984
 O 0.39181 0.3068 0.89092   -0.60086
 O 0.41613 0.42298 0.74764   -0.651441
 O 0.3898 0.30204 0.73017   -0.584516
 O 0.49259 0.54476 0.81468   -0.651837
 O 0.4978 0.58994 0.92837   -0.590115
 O 0.69828 0.46856 0.73025   -0.649018
 O 0.55919 0.52663 0.65222   -0.586893
 O 0.65457 0.33169 0.81316   -0.638178
 O 0.70881 0.49127 0.99237   -0.572907
 O 0.87702 0.35248 0.79592   -0.582729
 O 0.75487 0.47877 0.87268   -0.651566
 O 0.97351 0.58097 0.58413   -0.667019
 O 0.89181 0.6932 0.60908   -0.600854
 O 0.91613 0.57702 0.75236   -0.651395
 O 0.8898 0.69796 0.76983   -0.584516
 O 0.99259 0.45524 0.68532   -0.651829
 O 0.9978 0.41006 0.57163   -0.590106
 O 0.19828 0.53144 0.76975   -0.64909
 O 0.05919 0.47337 0.84778   -0.586893
 O 0.15457 0.66831 0.68684   -0.638181
 O 0.20881 0.50873 0.50763   -0.572884
 O 0.37702 0.64752 0.70408   -0.582761
 O 0.25487 0.52123 0.62732   -0.65158
 O 0.52649 0.08097 0.91587   -0.666984
 O 0.60819 0.1932 0.89092   -0.60086
 O 0.58387 0.07702 0.74764   -0.651441
 O 0.6102 0.19796 0.73017   -0.584517
 O 0.50741 0.95524 0.81468   -0.651837
 O 0.5022 0.91006 0.92837   -0.590115
 O 0.30172 0.03144 0.73025   -0.649018
 O 0.44081 0.97337 0.65222   -0.586893
 O 0.34543 0.16831 0.81316   -0.638178
 O 0.29119 0.00873 0.99237   -0.572907
 O 0.12298 0.14752 0.79592   -0.582729
 O 0.24513 0.02123 0.87268   -0.651566
 O 0.97351 0.08097 0.41587   -0.666984
 O 0.89181 0.1932 0.39092   -0.60086
 O 0.91613 0.07702 0.24764   -0.651441
 O 0.8898 0.19796 0.23017   -0.584516
 O 0.99259 0.95524 0.31468   -0.651837
 O 0.9978 0.91006 0.42837   -0.590115
 O 0.19828 0.03144 0.23025   -0.649018
 O 0.05919 0.97337 0.15222   -0.586893
 O 0.15457 0.16831 0.31316   -0.638178
 O 0.20881 0.00873 0.49237   -0.572907
 O 0.37702 0.14752 0.29592   -0.582729
 O 0.25487 0.02123 0.37268   -0.651566
 O 0.52649 0.58097 0.08413   -0.667019
 O 0.60819 0.6932 0.10908   -0.600854
 O 0.58387 0.57702 0.25236   -0.651395
 O 0.6102 0.69796 0.26983   -0.584516
 O 0.50741 0.45524 0.18532   -0.651829
 O 0.5022 0.41006 0.07163   -0.590106
 O 0.30172 0.53144 0.26975   -0.64909
 O 0.44081 0.47337 0.34778   -0.586893
 O 0.34543 0.66831 0.18684   -0.638181
 O 0.29119 0.50873 0.00763   -0.572884
 O 0.12298 0.64752 0.20408   -0.582761
 O 0.24513 0.52123 0.12732   -0.65158
 O 0.02649 0.41903 0.41587   -0.666984
 O 0.10819 0.3068 0.39092   -0.60086
 O 0.08387 0.42298 0.24764   -0.651441
 O 0.1102 0.30204 0.23017   -0.584517
 O 0.00741 0.54476 0.31468   -0.651837
 O 0.0022 0.58994 0.42837   -0.590115
 O 0.80172 0.46856 0.23025   -0.649018
 O 0.94081 0.52663 0.15222   -0.586893
 O 0.84543 0.33169 0.31316   -0.638178
 O 0.79119 0.49127 0.49237   -0.572907
 O 0.62298 0.35248 0.29592   -0.582729
 O 0.74513 0.47877 0.37268   -0.651566
 O 0.47351 0.91903 0.08413   -0.667019
 O 0.39181 0.8068 0.10908   -0.600854
 O 0.41613 0.92298 0.25236   -0.651395
 O 0.3898 0.80204 0.26983   -0.584516
 O 0.49259 0.04476 0.18532   -0.651829
 O 0.4978 0.08994 0.07163   -0.590106
 O 0.69828 0.96856 0.26975   -0.64909
 O 0.55919 0.02663 0.34778   -0.586893
 O 0.65457 0.83169 0.18684   -0.638181
 O 0.70881 0.99127 0.00763   -0.572884
 O 0.87702 0.85248 0.20408   -0.582761
 O 0.75487 0.97877 0.12732   -0.65158
