{'_ref': 'TBD', '_srcid': 'CAKYAQ_clean', 'submitters': [{'name': 'Dalar Nazarian Jeff Camp and David Sholl', 'email': 'dalar@gatech.edu jcamp6@gatech.edu'}], '_method': 'VASP DFT with PBE;DDEC'}
data_MgH4(C2O)4
_symmetry_space_group_name_H-M   'P 1'
_cell_length_a   9.82100000
_cell_length_b   15.07600006
_cell_length_c   16.55500000
_cell_angle_alpha   111.20999942
_cell_angle_beta   90.00000000
_cell_angle_gamma   90.00000000
_symmetry_Int_Tables_number   1
_chemical_formula_structural   MgH4(C2O)4
_chemical_formula_sum   'Mg6 H24 C48 O24'
_cell_volume   2285.1167404
_cell_formula_units_Z   6
loop_
 _symmetry_equiv_pos_site_id
 _symmetry_equiv_pos_as_xyz
  1  'x, y, z'
loop_
 _atom_site_label
 _atom_site_fract_x
 _atom_site_fract_y
 _atom_site_fract_z
 _atom_site_charge
 Mg 0.08092 0.34513 0.11278   1.589981
 Mg 0.58092 0.15487 0.38722   1.589983
 Mg 0.91908 0.65487 0.88722   1.589981
 Mg 0.41908 0.84513 0.61278   1.589983
 Mg 0.0 0.5 0.0   1.572718
 Mg 0.5 0.0 0.5   1.572718
 H 0.7349 0.3264 0.8502   0.101971
 H 0.6212 0.217 0.7316   0.112309
 H 0.688 0.0123 0.8297   0.098767
 H 0.8084 0.1213 0.9453   0.101889
 H 0.5048 0.5106 0.1443   0.113128
 H 0.3065 0.4391 0.9138   0.111611
 H 0.2349 0.1736 0.6498   0.101971
 H 0.1212 0.283 0.7684   0.112309
 H 0.188 0.4877 0.6703   0.098767
 H 0.3084 0.3787 0.5547   0.101889
 H 0.0048 0.9894 0.3557   0.113128
 H 0.8065 0.0609 0.5862   0.111611
 H 0.2651 0.6736 0.1498   0.101971
 H 0.3788 0.783 0.2684   0.112309
 H 0.312 0.9877 0.1703   0.098767
 H 0.1916 0.8787 0.0547   0.101889
 H 0.4952 0.4894 0.8557   0.113129
 H 0.6935 0.5609 0.0862   0.111611
 H 0.7651 0.8264 0.3502   0.101971
 H 0.8788 0.717 0.2316   0.112309
 H 0.812 0.5123 0.3297   0.098767
 H 0.6916 0.6213 0.4453   0.101889
 H 0.9952 0.0106 0.6443   0.113129
 H 0.1935 0.9391 0.4138   0.111611
 C 0.8661 0.3059 0.9807   0.798289
 C 0.7833 0.2338 0.9082   -0.136565
 C 0.7268 0.262 0.8458   -0.050296
 C 0.6572 0.1969 0.7754   -0.069738
 C 0.6407 0.1038 0.7692   -0.124317
 C 0.6976 0.0763 0.833   -0.076847
 C 0.7693 0.1414 0.9023   -0.069816
 C 0.567 0.0334 0.6909   0.78654
 C 0.264 0.4393 0.0738   0.733458
 C 0.386 0.4723 0.0365   -0.113248
 C 0.5025 0.5068 0.0858   -0.061444
 C 0.3842 0.4641 0.9488   -0.040948
 C 0.3661 0.1941 0.5193   0.798289
 C 0.2833 0.2662 0.5918   -0.136565
 C 0.2268 0.238 0.6542   -0.050296
 C 0.1572 0.3031 0.7246   -0.069738
 C 0.1407 0.3962 0.7308   -0.124317
 C 0.1976 0.4237 0.667   -0.076847
 C 0.2693 0.3586 0.5977   -0.069816
 C 0.067 0.4666 0.8091   0.78654
 C 0.764 0.0607 0.4262   0.733458
 C 0.886 0.0277 0.4635   -0.113248
 C 0.0025 0.9932 0.4142   -0.061444
 C 0.8842 0.0359 0.5512   -0.040948
 C 0.1339 0.6941 0.0193   0.798289
 C 0.2167 0.7662 0.0918   -0.136565
 C 0.2732 0.738 0.1542   -0.050296
 C 0.3428 0.8031 0.2246   -0.069738
 C 0.3593 0.8962 0.2308   -0.124317
 C 0.3024 0.9237 0.167   -0.076847
 C 0.2307 0.8586 0.0977   -0.069816
 C 0.433 0.9666 0.3091   0.78654
 C 0.736 0.5607 0.9262   0.733458
 C 0.614 0.5277 0.9635   -0.113248
 C 0.4975 0.4932 0.9142   -0.061445
 C 0.6158 0.5359 0.0512   -0.040948
 C 0.6339 0.8059 0.4807   0.798289
 C 0.7167 0.7338 0.4082   -0.136565
 C 0.7732 0.762 0.3458   -0.050296
 C 0.8428 0.6969 0.2754   -0.069738
 C 0.8593 0.6038 0.2692   -0.124317
 C 0.8024 0.5763 0.333   -0.076847
 C 0.7307 0.6414 0.4023   -0.069816
 C 0.933 0.5334 0.1909   0.78654
 C 0.236 0.9393 0.5738   0.733458
 C 0.114 0.9723 0.5365   -0.113248
 C 0.9975 0.0068 0.5858   -0.061445
 C 0.1158 0.9641 0.4488   -0.040948
 O 0.9268 0.2749 0.03316   -0.830204
 O 0.87 0.38833 0.98198   -0.700775
 O 0.5487 0.06071 0.6282   -0.713742
 O 0.5327 0.95466 0.69461   -0.807282
 O 0.2755 0.4238 0.14383   -0.712293
 O 0.1539 0.41998 0.03166   -0.826788
 O 0.4268 0.2251 0.46684   -0.830204
 O 0.37 0.11167 0.51802   -0.700775
 O 0.0487 0.43929 0.8718   -0.713742
 O 0.0327 0.54534 0.80539   -0.807282
 O 0.7755 0.0762 0.35617   -0.712294
 O 0.6539 0.08002 0.46834   -0.826789
 O 0.0732 0.7251 0.96684   -0.830204
 O 0.13 0.61167 0.01802   -0.700775
 O 0.4513 0.93929 0.3718   -0.713742
 O 0.4673 0.04534 0.30539   -0.807282
 O 0.7245 0.5762 0.85617   -0.712293
 O 0.8461 0.58002 0.96834   -0.826788
 O 0.5732 0.7749 0.53316   -0.830204
 O 0.63 0.88833 0.48198   -0.700775
 O 0.9513 0.56071 0.1282   -0.713742
 O 0.9673 0.45466 0.19461   -0.807282
 O 0.2245 0.9238 0.64383   -0.712293
 O 0.3461 0.91998 0.53166   -0.826789
