{'_ref': 'TBD', '_srcid': 'CAKYAQ_clean', 'submitters': [{'name': 'Dalar Nazarian Jeff Camp and David Sholl', 'email': 'dalar@gatech.edu jcamp6@gatech.edu'}], '_method': 'VASP DFT with PBE;DDEC'}
data_TmH6(C2O)6
_symmetry_space_group_name_H-M   'P 1'
_cell_length_a   10.97090019
_cell_length_b   10.97090031
_cell_length_c   18.84200000
_cell_angle_alpha   73.36960271
_cell_angle_beta   73.36960252
_cell_angle_gamma   74.30800015
_symmetry_Int_Tables_number   1
_chemical_formula_structural   TmH6(C2O)6
_chemical_formula_sum   'Tm4 H24 C48 O24'
_cell_volume   2037.69516611
_cell_formula_units_Z   4
loop_
 _symmetry_equiv_pos_site_id
 _symmetry_equiv_pos_as_xyz
  1  'x, y, z'
loop_
 _atom_site_label
 _atom_site_fract_x
 _atom_site_fract_y
 _atom_site_fract_z
 _atom_site_charge
 Tm 0.43845 0.55497 0.60537   2.210332
 Tm 0.44503 0.56155 0.89463   2.210331
 Tm 0.56155 0.44503 0.39463   2.210332
 Tm 0.55497 0.43845 0.10537   2.21033
 H 0.5848 0.8414 0.5645   0.099949
 H 0.5877 0.0483 0.5123   0.083124
 H 0.4893 0.1263 0.722   0.11654
 H 0.49 0.8998 0.7716   0.099375
 H 0.972 0.422 0.4051   0.105227
 H 0.8216 0.5498 0.595   0.113936
 H 0.1586 0.4152 0.9355   0.099949
 H 0.9517 0.4123 0.9877   0.083124
 H 0.8737 0.5107 0.778   0.116541
 H 0.1002 0.51 0.7284   0.099374
 H 0.578 0.028 0.0949   0.105227
 H 0.4502 0.1784 0.905   0.113937
 H 0.4152 0.1586 0.4355   0.099948
 H 0.4123 0.9517 0.4877   0.083124
 H 0.5107 0.8737 0.278   0.116541
 H 0.51 0.1002 0.2284   0.099376
 H 0.028 0.578 0.5949   0.105228
 H 0.1784 0.4502 0.405   0.113936
 H 0.8414 0.5848 0.0645   0.099948
 H 0.0483 0.5877 0.0123   0.083124
 H 0.1263 0.4893 0.222   0.116542
 H 0.8998 0.49 0.2716   0.099376
 H 0.422 0.972 0.9051   0.105228
 H 0.5498 0.8216 0.095   0.113937
 C 0.5354 0.706 0.7097   0.83204
 C 0.5472 0.8516 0.6711   -0.131255
 C 0.5697 0.8977 0.5959   -0.058141
 C 0.5694 0.022 0.565   -0.022793
 C 0.5436 0.1174 0.6075   -0.183396
 C 0.5273 0.2575 0.572   0.843817
 C 0.5108 0.07 0.6896   -0.038418
 C 0.5126 0.9326 0.7194   -0.086634
 C 0.7409 0.4919 0.4945   0.830734
 C 0.8763 0.4933 0.4976   -0.138438
 C 0.9817 0.4557 0.4427   -0.073401
 C 0.8921 0.5321 0.5557   -0.055611
 C 0.294 0.4646 0.7903   0.83204
 C 0.1484 0.4528 0.8289   -0.131255
 C 0.1023 0.4303 0.9041   -0.058141
 C 0.978 0.4306 0.935   -0.022794
 C 0.8826 0.4564 0.8925   -0.183395
 C 0.7425 0.4727 0.928   0.843814
 C 0.93 0.4892 0.8104   -0.038418
 C 0.0674 0.4874 0.7806   -0.086632
 C 0.5081 0.2591 0.0055   0.830735
 C 0.5067 0.1237 0.0024   -0.138438
 C 0.5443 0.0183 0.0573   -0.073401
 C 0.4679 0.1079 0.9443   -0.055612
 C 0.4646 0.294 0.2903   0.83204
 C 0.4528 0.1484 0.3289   -0.131255
 C 0.4303 0.1023 0.4041   -0.058141
 C 0.4306 0.978 0.435   -0.022793
 C 0.4564 0.8826 0.3925   -0.183396
 C 0.4727 0.7425 0.428   0.843817
 C 0.4892 0.93 0.3104   -0.038418
 C 0.4874 0.0674 0.2806   -0.086633
 C 0.2591 0.5081 0.5055   0.830735
 C 0.1237 0.5067 0.5024   -0.138442
 C 0.0183 0.5443 0.5573   -0.073386
 C 0.1079 0.4679 0.4443   -0.055597
 C 0.706 0.5354 0.2097   0.83204
 C 0.8516 0.5472 0.1711   -0.131255
 C 0.8977 0.5697 0.0959   -0.05814
 C 0.022 0.5694 0.065   -0.022793
 C 0.1174 0.5436 0.1075   -0.183395
 C 0.2575 0.5273 0.072   0.843814
 C 0.07 0.5108 0.1896   -0.038418
 C 0.9326 0.5126 0.2194   -0.086632
 C 0.4919 0.7409 0.9945   0.830736
 C 0.4933 0.8763 0.9976   -0.138442
 C 0.4557 0.9817 0.9427   -0.073386
 C 0.5321 0.8921 0.0557   -0.055598
 O 0.5305 0.6489 0.6631   -0.796755
 O 0.5319 0.6691 0.7757   -0.723263
 O 0.5482 0.2952 0.5032   -0.810873
 O 0.4923 0.3327 0.6172   -0.724521
 O 0.6594 0.5082 0.5535   -0.731883
 O 0.723 0.4744 0.4388   -0.759707
 O 0.3511 0.4695 0.8369   -0.796756
 O 0.3309 0.4681 0.7243   -0.723263
 O 0.7048 0.4518 0.9968   -0.810866
 O 0.6673 0.5077 0.8828   -0.724521
 O 0.4918 0.3406 0.9465   -0.731884
 O 0.5256 0.277 0.0612   -0.759708
 O 0.4695 0.3511 0.3369   -0.796755
 O 0.4681 0.3309 0.2243   -0.723263
 O 0.4518 0.7048 0.4968   -0.810873
 O 0.5077 0.6673 0.3828   -0.724521
 O 0.3406 0.4918 0.4465   -0.731883
 O 0.277 0.5256 0.5612   -0.759708
 O 0.6489 0.5305 0.1631   -0.796756
 O 0.6691 0.5319 0.2757   -0.723263
 O 0.2952 0.5482 0.0032   -0.810866
 O 0.3327 0.4923 0.1172   -0.724521
 O 0.5082 0.6594 0.0535   -0.731884
 O 0.4744 0.723 0.9388   -0.759708
