{'_ref': 'TBD', '_srcid': 'CAKYAQ_clean', 'submitters': [{'name': 'Dalar Nazarian Jeff Camp and David Sholl', 'email': 'dalar@gatech.edu jcamp6@gatech.edu'}], '_method': 'VASP DFT with PBE;DDEC'}
data_ZnAg3H27C51(NO)6
_symmetry_space_group_name_H-M   'P 1'
_cell_length_a   15.73300000
_cell_length_b   15.73300028
_cell_length_c   16.48600000
_cell_angle_alpha   90.00000000
_cell_angle_beta   90.00000000
_cell_angle_gamma   119.99999941
_symmetry_Int_Tables_number   1
_chemical_formula_structural   ZnAg3H27C51(NO)6
_chemical_formula_sum   'Zn2 Ag6 H54 C102 N12 O12'
_cell_volume   3534.02016136
_cell_formula_units_Z   2
loop_
 _symmetry_equiv_pos_site_id
 _symmetry_equiv_pos_as_xyz
  1  'x, y, z'
loop_
 _atom_site_label
 _atom_site_fract_x
 _atom_site_fract_y
 _atom_site_fract_z
 _atom_site_charge
 Zn 0.33333 0.66666 0.8233   1.046717
 Zn 0.66667 0.33334 0.1767   1.046717
 Ag 0.8598 0.26817 0.26808   0.54301
 Ag 0.40837 0.1402 0.26808   0.543007
 Ag 0.73183 0.59163 0.26808   0.543002
 Ag 0.1402 0.73183 0.73192   0.54301
 Ag 0.59163 0.8598 0.73192   0.543007
 Ag 0.26817 0.40837 0.73192   0.543002
 H 0.0342 0.5666 0.7819   0.129341
 H 0.1684 0.6681 0.024   0.102908
 H 0.9397 0.5694 0.8747   0.099751
 H 0.0744 0.6744 0.127   0.101831
 H 0.8489 0.5849 0.9758   0.095484
 H 0.2079 0.5305 0.5978   0.111576
 H 0.9479 0.4204 0.7116   0.108733
 H 0.1286 0.4497 0.4804   0.103489
 H 0.8701 0.3345 0.594   0.103327
 H 0.5324 0.9658 0.7819   0.129338
 H 0.4997 0.8316 0.024   0.102906
 H 0.6297 0.0603 0.8747   0.099752
 H 0.6 0.9256 0.127   0.101831
 H 0.736 0.1511 0.9758   0.095485
 H 0.3226 0.7921 0.5978   0.111576
 H 0.4725 0.0521 0.7116   0.108734
 H 0.3211 0.8714 0.4804   0.103489
 H 0.4644 0.1299 0.594   0.103327
 H 0.4334 0.4676 0.7819   0.129341
 H 0.3319 0.5003 0.024   0.102908
 H 0.4306 0.3703 0.8747   0.099751
 H 0.3256 0.4 0.127   0.101831
 H 0.4151 0.264 0.9758   0.095484
 H 0.4695 0.6774 0.5978   0.111575
 H 0.5796 0.5275 0.7116   0.108733
 H 0.5503 0.6789 0.4804   0.103489
 H 0.6655 0.5356 0.594   0.103327
 H 0.9658 0.4334 0.2181   0.129341
 H 0.8316 0.3319 0.976   0.102908
 H 0.0603 0.4306 0.1253   0.099751
 H 0.9256 0.3256 0.873   0.101831
 H 0.1511 0.4151 0.0242   0.095484
 H 0.7921 0.4695 0.4022   0.111576
 H 0.0521 0.5796 0.2884   0.108734
 H 0.8714 0.5503 0.5196   0.103489
 H 0.1299 0.6655 0.406   0.103327
 H 0.4676 0.0342 0.2181   0.129338
 H 0.5003 0.1684 0.976   0.102906
 H 0.3703 0.9397 0.1253   0.099752
 H 0.4 0.0744 0.873   0.101831
 H 0.264 0.8489 0.0242   0.095485
 H 0.6774 0.2079 0.4022   0.111576
 H 0.5275 0.9479 0.2884   0.108734
 H 0.6789 0.1286 0.5196   0.10349
 H 0.5356 0.8701 0.406   0.103327
 H 0.5666 0.5324 0.2181   0.129341
 H 0.6681 0.4997 0.976   0.102908
 H 0.5694 0.6297 0.1253   0.099751
 H 0.6744 0.6 0.873   0.101831
 H 0.5849 0.736 0.0242   0.095484
 H 0.5305 0.3226 0.4022   0.111575
 H 0.4204 0.4725 0.2884   0.108733
 H 0.4497 0.3211 0.5196   0.103489
 H 0.3345 0.4644 0.406   0.103327
 C 0.141 0.5427 0.7415   0.415027
 C 0.094 0.5728 0.797   -0.569819
 C 0.1317 0.6123 0.8749   0.425711
 C 0.0663 0.6191 0.9373   -0.058096
 C 0.1035 0.6504 0.0137   -0.06928
 C 0.9684 0.5932 0.9251   -0.098111
 C 0.0483 0.6563 0.0751   -0.085459
 C 0.9137 0.602 0.9857   -0.05386
 C 0.953 0.635 0.0592   -0.057822
 C 0.8952 0.6404 0.1228   0.365755
 C 0.0864 0.4846 0.6665   -0.052615
 C 0.1398 0.4921 0.597   -0.075505
 C 0.9845 0.4258 0.6656   -0.098099
 C 0.0929 0.4434 0.5272   -0.085184
 C 0.938 0.3751 0.5949   -0.090733
 C 0.991 0.3845 0.5276   -0.072099
 C 0.9408 0.3334 0.4539   0.366287
 C 0.4017 0.859 0.7415   0.415048
 C 0.4788 0.906 0.797   -0.569818
 C 0.4806 0.8683 0.8749   0.425708
 C 0.5528 0.9337 0.9373   -0.058094
 C 0.5469 0.8965 0.0137   -0.069281
 C 0.6248 0.0316 0.9251   -0.09811
 C 0.608 0.9517 0.0751   -0.085458
 C 0.6883 0.0863 0.9857   -0.05386
 C 0.682 0.047 0.0592   -0.057819
 C 0.7452 0.1048 0.1228   0.365756
 C 0.3982 0.9136 0.6665   -0.052616
 C 0.3523 0.8602 0.597   -0.075502
 C 0.4413 0.0155 0.6656   -0.098098
 C 0.3505 0.9071 0.5272   -0.085186
 C 0.4371 0.062 0.5949   -0.090733
 C 0.3935 0.009 0.5276   -0.072096
 C 0.3926 0.0592 0.4539   0.366286
 C 0.4573 0.5983 0.7415   0.415033
 C 0.4272 0.5212 0.797   -0.569817
 C 0.3877 0.5194 0.8749   0.42572
 C 0.3809 0.4472 0.9373   -0.058101
 C 0.3496 0.4531 0.0137   -0.069281
 C 0.4068 0.3752 0.9251   -0.098109
 C 0.3437 0.392 0.0751   -0.085459
 C 0.398 0.3117 0.9857   -0.053861
 C 0.365 0.318 0.0592   -0.057822
 C 0.3596 0.2548 0.1228   0.365754
 C 0.5154 0.6018 0.6665   -0.052615
 C 0.5079 0.6477 0.597   -0.075504
 C 0.5742 0.5587 0.6656   -0.0981
 C 0.5566 0.6495 0.5272   -0.085185
 C 0.6249 0.5629 0.5949   -0.090733
 C 0.6155 0.6065 0.5276   -0.072098
 C 0.6666 0.6074 0.4539   0.366287
 C 0.859 0.4573 0.2585   0.415027
 C 0.906 0.4272 0.203   -0.569819
 C 0.8683 0.3877 0.1251   0.425711
 C 0.9337 0.3809 0.0627   -0.058096
 C 0.8965 0.3496 0.9863   -0.06928
 C 0.0316 0.4068 0.0749   -0.098111
 C 0.9517 0.3437 0.9249   -0.085459
 C 0.0863 0.398 0.0143   -0.05386
 C 0.047 0.365 0.9408   -0.057822
 C 0.1048 0.3596 0.8772   0.365755
 C 0.9136 0.5154 0.3335   -0.052615
 C 0.8602 0.5079 0.403   -0.075505
 C 0.0155 0.5742 0.3344   -0.098099
 C 0.9071 0.5566 0.4728   -0.085184
 C 0.062 0.6249 0.4051   -0.090733
 C 0.009 0.6155 0.4724   -0.072099
 C 0.0592 0.6666 0.5461   0.366287
 C 0.5983 0.141 0.2585   0.415048
 C 0.5212 0.094 0.203   -0.569818
 C 0.5194 0.1317 0.1251   0.425708
 C 0.4472 0.0663 0.0627   -0.058094
 C 0.4531 0.1035 0.9863   -0.069281
 C 0.3752 0.9684 0.0749   -0.09811
 C 0.392 0.0483 0.9249   -0.085458
 C 0.3117 0.9137 0.0143   -0.05386
 C 0.318 0.953 0.9408   -0.057819
 C 0.2548 0.8952 0.8772   0.365756
 C 0.6018 0.0864 0.3335   -0.052616
 C 0.6477 0.1398 0.403   -0.075501
 C 0.5587 0.9845 0.3344   -0.098098
 C 0.6495 0.0929 0.4728   -0.085186
 C 0.5629 0.938 0.4051   -0.090733
 C 0.6065 0.991 0.4724   -0.072096
 C 0.6074 0.9408 0.5461   0.366286
 C 0.5427 0.4017 0.2585   0.415033
 C 0.5728 0.4788 0.203   -0.569817
 C 0.6123 0.4806 0.1251   0.42572
 C 0.6191 0.5528 0.0627   -0.058101
 C 0.6504 0.5469 0.9863   -0.069281
 C 0.5932 0.6248 0.0749   -0.098109
 C 0.6563 0.608 0.9249   -0.085459
 C 0.602 0.6883 0.0143   -0.053861
 C 0.635 0.682 0.9408   -0.057822
 C 0.6404 0.7452 0.8772   0.365754
 C 0.4846 0.3982 0.3335   -0.052615
 C 0.4921 0.3523 0.403   -0.075503
 C 0.4258 0.4413 0.3344   -0.0981
 C 0.4434 0.3505 0.4728   -0.085185
 C 0.3751 0.4371 0.4051   -0.090733
 C 0.3845 0.3935 0.4724   -0.072098
 C 0.3334 0.3926 0.5461   0.366287
 N 0.9014 0.2947 0.3963   -0.456887
 N 0.8475 0.6464 0.1755   -0.459432
 N 0.3933 0.0986 0.3963   -0.456883
 N 0.7989 0.1525 0.1755   -0.45943
 N 0.7053 0.6067 0.3963   -0.456885
 N 0.3536 0.2011 0.1755   -0.459432
 N 0.0986 0.7053 0.6037   -0.456887
 N 0.1525 0.3536 0.8245   -0.459432
 N 0.6067 0.9014 0.6037   -0.456883
 N 0.2011 0.8475 0.8245   -0.45943
 N 0.2947 0.3933 0.6037   -0.456885
 N 0.6464 0.7989 0.8245   -0.459432
 O 0.2291 0.56 0.74681   -0.538007
 O 0.2174 0.6412 0.8967   -0.500132
 O 0.3309 0.7709 0.74681   -0.538041
 O 0.4238 0.7826 0.8967   -0.500097
 O 0.44 0.6691 0.74681   -0.538021
 O 0.3588 0.5762 0.8967   -0.500143
 O 0.7709 0.44 0.25319   -0.538007
 O 0.7826 0.3588 0.1033   -0.500132
 O 0.6691 0.2291 0.25319   -0.538041
 O 0.5762 0.2174 0.1033   -0.500097
 O 0.56 0.3309 0.25319   -0.538021
 O 0.6412 0.4238 0.1033   -0.500143
