{'_ref': 'TBD', '_srcid': 'CAKYAQ_clean', 'submitters': [{'name': 'Dalar Nazarian Jeff Camp and David Sholl', 'email': 'dalar@gatech.edu jcamp6@gatech.edu'}], '_method': 'VASP DFT with PBE;DDEC'}
data_YbH6(C2O)6
_symmetry_space_group_name_H-M   'P 1'
_cell_length_a   8.56789975
_cell_length_b   10.18679983
_cell_length_c   10.87240000
_cell_angle_alpha   66.79100045
_cell_angle_beta   69.31599825
_cell_angle_gamma   78.24599807
_symmetry_Int_Tables_number   1
_chemical_formula_structural   YbH6(C2O)6
_chemical_formula_sum   'Yb2 H12 C24 O12'
_cell_volume   813.62729213
_cell_formula_units_Z   2
loop_
 _symmetry_equiv_pos_site_id
 _symmetry_equiv_pos_as_xyz
  1  'x, y, z'
loop_
 _atom_site_label
 _atom_site_fract_x
 _atom_site_fract_y
 _atom_site_fract_z
 _atom_site_charge
 Yb 0.34563 0.56698 0.84361   1.48421
 Yb 0.65437 0.43302 0.15639   1.484211
 H 0.7948 0.3731 0.5146   0.1041
 H 0.9333 0.6594 0.6169   0.08371
 H 0.2859 0.1765 0.0165   0.101925
 H 0.7592 0.0311 0.9986   0.115099
 H 0.8535 0.8772 0.7286   0.094329
 H 0.2864 0.9538 0.4183   0.116231
 H 0.2052 0.6269 0.4854   0.104098
 H 0.0667 0.3406 0.3831   0.083709
 H 0.7141 0.8235 0.9835   0.101926
 H 0.2408 0.9689 0.0014   0.11511
 H 0.1465 0.1228 0.2714   0.094328
 H 0.7136 0.0462 0.5817   0.116229
 C 0.6608 0.5396 0.6673   0.62769
 C 0.8361 0.5182 0.5818   -0.096503
 C 0.8772 0.4238 0.5093   -0.061753
 C 0.9602 0.5947 0.5702   -0.0425
 C 0.5558 0.26 0.0181   0.731303
 C 0.5273 0.1265 0.0074   -0.088094
 C 0.3729 0.1058 0.0095   -0.061317
 C 0.6544 0.0191 0.9988   -0.048309
 C 0.1718 0.7793 0.6857   0.642959
 C 0.0832 0.896 0.589   -0.112798
 C 0.9128 0.9264 0.6362   -0.052596
 C 0.1712 0.9718 0.4512   -0.033701
 C 0.3392 0.4604 0.3327   0.62769
 C 0.1639 0.4818 0.4182   -0.096506
 C 0.1228 0.5762 0.4907   -0.061743
 C 0.0398 0.4053 0.4298   -0.042492
 C 0.4442 0.74 0.9819   0.731303
 C 0.4727 0.8735 0.9926   -0.088096
 C 0.6271 0.8942 0.9905   -0.061309
 C 0.3456 0.9809 0.0012   -0.048304
 C 0.8282 0.2207 0.3143   0.642959
 C 0.9168 0.104 0.411   -0.112798
 C 0.0872 0.0736 0.3638   -0.0526
 C 0.8288 0.0282 0.5488   -0.033706
 O 0.6298 0.6179 0.7417   -0.530931
 O 0.5456 0.4815 0.6672   -0.524383
 O 0.4703 0.3729 0.9719   -0.67129
 O 0.6585 0.2525 0.0785   -0.606049
 O 0.3265 0.7514 0.6357   -0.563466
 O 0.0927 0.7138 0.8092   -0.607878
 O 0.3702 0.3821 0.2583   -0.530931
 O 0.4544 0.5185 0.3328   -0.524383
 O 0.5297 0.6271 0.0281   -0.67129
 O 0.3415 0.7475 0.9215   -0.606049
 O 0.6735 0.2486 0.3643   -0.563466
 O 0.9073 0.2862 0.1908   -0.607878
