{'_ref': 'TBD', '_srcid': 'CAKYAQ_clean', 'submitters': [{'name': 'Dalar Nazarian Jeff Camp and David Sholl', 'email': 'dalar@gatech.edu jcamp6@gatech.edu'}], '_method': 'VASP DFT with PBE;DDEC'}
data_Cd5H58C74(N2O11)2
_symmetry_space_group_name_H-M   'P 1'
_cell_length_a   9.94899966
_cell_length_b   16.15000000
_cell_length_c   24.55000000
_cell_angle_alpha   90.00000000
_cell_angle_beta   95.83000264
_cell_angle_gamma   90.00000000
_symmetry_Int_Tables_number   1
_chemical_formula_structural   Cd5H58C74(N2O11)2
_chemical_formula_sum   'Cd10 H116 C148 N8 O44'
_cell_volume   3924.20140305
_cell_formula_units_Z   2
loop_
 _symmetry_equiv_pos_site_id
 _symmetry_equiv_pos_as_xyz
  1  'x, y, z'
loop_
 _atom_site_label
 _atom_site_fract_x
 _atom_site_fract_y
 _atom_site_fract_z
 _atom_site_charge
 Cd 0.16054 0.58657 0.53658   1.186418
 Cd 0.2486 0.85548 0.98422   1.091937
 Cd 0.33946 0.08657 0.96342   1.186418
 Cd 0.2514 0.35548 0.51578   1.091936
 Cd 0.83946 0.41343 0.46342   1.186418
 Cd 0.7514 0.14452 0.01578   1.091937
 Cd 0.66054 0.91343 0.03658   1.186418
 Cd 0.7486 0.64452 0.48422   1.091936
 Cd 0.0 0.0 0.0   1.139968
 Cd 0.5 0.5 0.5   1.139968
 H 0.2733 0.6287 0.3938   0.398615
 H 0.2624 0.7792 0.1191   0.390517
 H 0.8625 0.5389 0.3433   0.092734
 H 0.7132 0.5397 0.2559   0.096423
 H 0.6787 0.5771 0.1657   0.089713
 H 0.8531 0.641 0.1243   0.096191
 H 0.0508 0.677 0.1723   0.100391
 H 0.3247 0.7048 0.2823   0.086443
 H 0.2747 0.6737 0.2234   0.090813
 H 0.1046 0.0039 0.1903   0.101475
 H 0.0796 0.0476 0.2864   0.110719
 H 0.1032 0.0163 0.3777   0.102027
 H 0.1745 0.8833 0.4077   0.098542
 H 0.2251 0.787 0.3485   0.089386
 H 0.9853 0.6291 0.6375   0.073554
 H 0.9953 0.673 0.7265   0.126545
 H 0.4009 0.677 0.7275   0.117482
 H 0.3766 0.6343 0.6382   0.075484
 H 0.0331 0.7771 0.7889   0.119954
 H 0.0568 0.8369 0.8741   0.079003
 H 0.409 0.7358 0.906   0.075958
 H 0.398 0.6752 0.8216   0.11869
 H 0.8904 0.681 0.9879   0.150148
 H 0.0304 0.7103 0.9709   0.151001
 H 0.014 0.6907 0.0324   0.170126
 H 0.0637 0.8536 0.5347   0.157474
 H 0.1421 0.7755 0.5589   0.14223
 H 0.0373 0.8198 0.5925   0.154772
 H 0.8599 0.0236 0.0713   0.4192
 H 0.2267 0.1287 0.1062   0.398615
 H 0.2376 0.2792 0.3809   0.390517
 H 0.6375 0.0389 0.1567   0.092734
 H 0.7868 0.0397 0.2441   0.096423
 H 0.8213 0.0771 0.3343   0.089713
 H 0.6469 0.141 0.3757   0.096191
 H 0.4492 0.177 0.3277   0.10039
 H 0.1753 0.2048 0.2177   0.086443
 H 0.2253 0.1737 0.2766   0.090813
 H 0.3954 0.5039 0.3097   0.101475
 H 0.4204 0.5476 0.2136   0.110719
 H 0.3968 0.5163 0.1223   0.102027
 H 0.3255 0.3833 0.0923   0.098542
 H 0.2749 0.287 0.1515   0.089386
 H 0.5147 0.1291 0.8625   0.073554
 H 0.5047 0.173 0.7735   0.126545
 H 0.0991 0.177 0.7725   0.117482
 H 0.1234 0.1343 0.8618   0.075484
 H 0.4669 0.2771 0.7111   0.119954
 H 0.4432 0.3369 0.6259   0.079003
 H 0.091 0.2358 0.594   0.075958
 H 0.102 0.1752 0.6784   0.11869
 H 0.6096 0.181 0.5121   0.150148
 H 0.4696 0.2103 0.5291   0.151001
 H 0.486 0.1907 0.4676   0.170126
 H 0.4363 0.3536 0.9653   0.157474
 H 0.3579 0.2755 0.9411   0.14223
 H 0.4627 0.3198 0.9075   0.154772
 H 0.6401 0.5236 0.4287   0.419199
 H 0.7267 0.3713 0.6062   0.398615
 H 0.7376 0.2208 0.8809   0.390517
 H 0.1375 0.4611 0.6567   0.092734
 H 0.2868 0.4603 0.7441   0.096423
 H 0.3213 0.4229 0.8343   0.089713
 H 0.1469 0.359 0.8757   0.096191
 H 0.9492 0.323 0.8277   0.10039
 H 0.6753 0.2952 0.7177   0.086443
 H 0.7253 0.3263 0.7766   0.090813
 H 0.8954 0.9961 0.8097   0.101475
 H 0.9204 0.9524 0.7136   0.110719
 H 0.8968 0.9837 0.6223   0.102028
 H 0.8255 0.1167 0.5923   0.098541
 H 0.7749 0.213 0.6515   0.089385
 H 0.0147 0.3709 0.3625   0.073554
 H 0.0047 0.327 0.2735   0.126545
 H 0.5991 0.323 0.2725   0.117482
 H 0.6234 0.3657 0.3618   0.075484
 H 0.9669 0.2229 0.2111   0.119954
 H 0.9432 0.1631 0.1259   0.079003
 H 0.591 0.2642 0.094   0.075958
 H 0.602 0.3248 0.1784   0.11869
 H 0.1096 0.319 0.0121   0.150146
 H 0.9696 0.2897 0.0291   0.151
 H 0.986 0.3093 0.9676   0.170126
 H 0.9363 0.1464 0.4653   0.157475
 H 0.8579 0.2245 0.4411   0.14223
 H 0.9627 0.1802 0.4075   0.154772
 H 0.1401 0.9764 0.9287   0.419199
 H 0.7733 0.8713 0.8938   0.398615
 H 0.7624 0.7208 0.6191   0.390517
 H 0.3625 0.9611 0.8433   0.092734
 H 0.2132 0.9603 0.7559   0.096423
 H 0.1787 0.9229 0.6657   0.089713
 H 0.3531 0.859 0.6243   0.096191
 H 0.5508 0.823 0.6723   0.10039
 H 0.8247 0.7952 0.7823   0.086443
 H 0.7747 0.8263 0.7234   0.090813
 H 0.6046 0.4961 0.6903   0.101475
 H 0.5796 0.4524 0.7864   0.110719
 H 0.6032 0.4837 0.8777   0.102028
 H 0.6745 0.6167 0.9077   0.098541
 H 0.7251 0.713 0.8485   0.089385
 H 0.4853 0.8709 0.1375   0.073554
 H 0.4953 0.827 0.2265   0.126545
 H 0.9009 0.823 0.2275   0.117482
 H 0.8766 0.8657 0.1382   0.075484
 H 0.5331 0.7229 0.2889   0.119954
 H 0.5568 0.6631 0.3741   0.079003
 H 0.909 0.7642 0.406   0.075958
 H 0.898 0.8248 0.3216   0.11869
 H 0.3904 0.819 0.4879   0.150146
 H 0.5304 0.7897 0.4709   0.151
 H 0.514 0.8093 0.5324   0.170126
 H 0.5637 0.6464 0.0347   0.157475
 H 0.6421 0.7245 0.0589   0.14223
 H 0.5373 0.6802 0.0925   0.154772
 H 0.3599 0.4764 0.5713   0.419199
 C 0.0681 0.56161 0.41813   0.713143
 C 0.05048 0.58335 0.35806   -0.283774
 C 0.93032 0.56609 0.32693   -0.03982
 C 0.90682 0.58809 0.2716   -0.001739
 C 0.7805 0.56747 0.2396   -0.117755
 C 0.7606 0.5886 0.18612   -0.111179
 C 0.8662 0.62868 0.16143   -0.071089
 C 0.9854 0.64966 0.18996   -0.126727
 C 0.0115 0.62998 0.24722   0.047669
 C 0.13505 0.65218 0.27834   -0.12935
 C 0.15435 0.62593 0.33284   0.29279
 C 0.24715 0.70291 0.25493   -0.090302
 C 0.21073 0.79029 0.23796   -0.122583
 C 0.2106 0.81406 0.18401   0.295493
 C 0.16867 0.89366 0.16534   -0.265617
 C 0.13392 0.95186 0.20258   -0.04215
 C 0.14221 0.93349 0.25908   -0.004756
 C 0.1094 0.99539 0.29825   -0.108184
 C 0.1226 0.97654 0.35228   -0.109538
 C 0.1663 0.89562 0.37046   -0.073218
 C 0.19519 0.83839 0.33506   -0.113527
 C 0.18275 0.85135 0.27734   0.031519
 C 0.15757 0.9175 0.10548   0.703469
 C 0.06983 0.63914 0.65614   0.183363
 C 0.07437 0.66609 0.70979   -0.188426
 C 0.20055 0.68284 0.73839   0.094001
 C 0.31476 0.66844 0.70993   -0.193141
 C 0.29967 0.64181 0.65619   0.190839
 C 0.21202 0.71961 0.79447   0.108943
 C 0.1118 0.768 0.81202   -0.188992
 C 0.1259 0.8035 0.86363   0.188587
 C 0.33205 0.74433 0.88181   0.188058
 C 0.32667 0.7075 0.83118   -0.17981
 C 0.9316 0.80046 0.00757   0.817803
 C 0.97 0.71287 0.9989   -0.541395
 C 0.94713 0.74954 0.53019   0.749861
 C 0.0576 0.80462 0.55645   -0.516743
 C 0.4319 0.06161 0.08187   0.713143
 C 0.44952 0.08335 0.14194   -0.283774
 C 0.56968 0.06609 0.17307   -0.03982
 C 0.59318 0.08809 0.2284   -0.001739
 C 0.7195 0.06747 0.2604   -0.117755
 C 0.7394 0.0886 0.31388   -0.111179
 C 0.6338 0.12868 0.33857   -0.071088
 C 0.5146 0.14966 0.31004   -0.126726
 C 0.4885 0.12998 0.25278   0.047669
 C 0.36495 0.15218 0.22166   -0.12935
 C 0.34565 0.12593 0.16716   0.29279
 C 0.25285 0.20291 0.24507   -0.090302
 C 0.28927 0.29029 0.26204   -0.122583
 C 0.2894 0.31406 0.31599   0.295493
 C 0.33133 0.39366 0.33466   -0.265617
 C 0.36608 0.45186 0.29742   -0.04215
 C 0.35779 0.43349 0.24092   -0.004756
 C 0.3906 0.49539 0.20175   -0.108184
 C 0.3774 0.47654 0.14772   -0.109538
 C 0.3337 0.39562 0.12954   -0.073217
 C 0.30481 0.33839 0.16494   -0.113527
 C 0.31725 0.35135 0.22266   0.031519
 C 0.34243 0.4175 0.39452   0.703468
 C 0.43017 0.13914 0.84386   0.183363
 C 0.42563 0.16609 0.79021   -0.188426
 C 0.29945 0.18284 0.76161   0.094001
 C 0.18524 0.16844 0.79007   -0.193141
 C 0.20033 0.14181 0.84381   0.190839
 C 0.28798 0.21961 0.70553   0.108943
 C 0.3882 0.268 0.68798   -0.188992
 C 0.3741 0.3035 0.63637   0.188587
 C 0.16795 0.24433 0.61819   0.188058
 C 0.17333 0.2075 0.66882   -0.17981
 C 0.5684 0.30046 0.49243   0.817803
 C 0.53 0.21287 0.5011   -0.541395
 C 0.55287 0.24954 0.96981   0.749861
 C 0.4424 0.30462 0.94355   -0.516743
 C 0.9319 0.43839 0.58187   0.713143
 C 0.94952 0.41665 0.64194   -0.283774
 C 0.06968 0.43391 0.67307   -0.03982
 C 0.09318 0.41191 0.7284   -0.001739
 C 0.2195 0.43253 0.7604   -0.117754
 C 0.2394 0.4114 0.81388   -0.111178
 C 0.1338 0.37132 0.83857   -0.071089
 C 0.0146 0.35034 0.81004   -0.126727
 C 0.9885 0.37002 0.75278   0.047669
 C 0.86495 0.34782 0.72166   -0.12935
 C 0.84565 0.37407 0.66716   0.29279
 C 0.75285 0.29709 0.74507   -0.090302
 C 0.78927 0.20971 0.76204   -0.122583
 C 0.7894 0.18594 0.81599   0.295493
 C 0.83133 0.10634 0.83466   -0.265617
 C 0.86608 0.04814 0.79742   -0.04215
 C 0.85779 0.06651 0.74092   -0.004756
 C 0.8906 0.00461 0.70175   -0.108183
 C 0.8774 0.02346 0.64772   -0.109538
 C 0.8337 0.10438 0.62954   -0.073217
 C 0.80481 0.16161 0.66494   -0.113527
 C 0.81725 0.14865 0.72266   0.031519
 C 0.84243 0.0825 0.89452   0.703469
 C 0.93017 0.36086 0.34386   0.183363
 C 0.92563 0.33391 0.29021   -0.188426
 C 0.79945 0.31716 0.26161   0.094001
 C 0.68524 0.33156 0.29007   -0.193141
 C 0.70033 0.35819 0.34381   0.190839
 C 0.78798 0.28039 0.20553   0.108943
 C 0.8882 0.232 0.18798   -0.188991
 C 0.8741 0.1965 0.13637   0.188587
 C 0.66795 0.25567 0.11819   0.188058
 C 0.67333 0.2925 0.16882   -0.179809
 C 0.0684 0.19954 0.99243   0.817803
 C 0.03 0.28713 0.0011   -0.541395
 C 0.05287 0.25046 0.46981   0.749861
 C 0.9424 0.19538 0.44355   -0.516743
 C 0.5681 0.93839 0.91813   0.713143
 C 0.55048 0.91665 0.85806   -0.283774
 C 0.43032 0.93391 0.82693   -0.03982
 C 0.40682 0.91191 0.7716   -0.001739
 C 0.2805 0.93253 0.7396   -0.117754
 C 0.2606 0.9114 0.68612   -0.111178
 C 0.3662 0.87132 0.66143   -0.071088
 C 0.4854 0.85034 0.68996   -0.126726
 C 0.5115 0.87002 0.74722   0.047669
 C 0.63505 0.84782 0.77834   -0.12935
 C 0.65435 0.87407 0.83284   0.29279
 C 0.74715 0.79709 0.75493   -0.090302
 C 0.71073 0.70971 0.73796   -0.122583
 C 0.7106 0.68594 0.68401   0.295493
 C 0.66867 0.60634 0.66534   -0.265618
 C 0.63392 0.54814 0.70258   -0.04215
 C 0.64221 0.56651 0.75908   -0.004756
 C 0.6094 0.50461 0.79825   -0.108183
 C 0.6226 0.52346 0.85228   -0.109538
 C 0.6663 0.60438 0.87046   -0.073217
 C 0.69519 0.66161 0.83506   -0.113527
 C 0.68275 0.64865 0.77734   0.031519
 C 0.65757 0.5825 0.60548   0.703468
 C 0.56983 0.86086 0.15614   0.183363
 C 0.57437 0.83391 0.20979   -0.188426
 C 0.70055 0.81716 0.23839   0.094001
 C 0.81476 0.83156 0.20993   -0.193141
 C 0.79967 0.85819 0.15619   0.190839
 C 0.71202 0.78039 0.29447   0.108943
 C 0.6118 0.732 0.31202   -0.188991
 C 0.6259 0.6965 0.36363   0.188587
 C 0.83205 0.75567 0.38181   0.188058
 C 0.82667 0.7925 0.33118   -0.179809
 C 0.4316 0.69954 0.50757   0.817803
 C 0.47 0.78713 0.4989   -0.541394
 C 0.44713 0.75046 0.03019   0.749861
 C 0.5576 0.69538 0.05645   -0.516743
 N 0.17874 0.62645 0.62898   -0.378401
 N 0.23398 0.79149 0.8985   -0.381494
 N 0.32126 0.12645 0.87102   -0.378401
 N 0.26602 0.29149 0.6015   -0.381494
 N 0.82126 0.37355 0.37102   -0.378401
 N 0.76602 0.20851 0.1015   -0.381494
 N 0.67874 0.87355 0.12898   -0.378401
 N 0.73398 0.70851 0.3985   -0.381494
 O 0.17462 0.58724 0.44589   -0.615516
 O 0.97594 0.52346 0.43816   -0.66778
 O 0.27612 0.642 0.36168   -0.493654
 O 0.08392 0.97705 0.08909   -0.602027
 O 0.22859 0.8728 0.07565   -0.635913
 O 0.24798 0.75631 0.14772   -0.506
 O 0.83773 0.81857 0.03517   -0.665605
 O 0.00247 0.85416 0.98453   -0.704741
 O 0.97583 0.67437 0.51821   -0.678031
 O 0.83015 0.77694 0.5194   -0.615936
 O 0.81093 0.01712 0.04331   -0.964572
 O 0.32538 0.08724 0.05411   -0.615516
 O 0.52406 0.02346 0.06184   -0.66778
 O 0.22388 0.142 0.13832   -0.493654
 O 0.41608 0.47705 0.41091   -0.602027
 O 0.27141 0.3728 0.42435   -0.635913
 O 0.25202 0.25631 0.35228   -0.506
 O 0.66227 0.31857 0.46483   -0.665605
 O 0.49753 0.35416 0.51547   -0.704741
 O 0.52417 0.17437 0.98179   -0.678031
 O 0.66985 0.27694 0.9806   -0.615936
 O 0.68907 0.51712 0.45669   -0.964572
 O 0.82538 0.41276 0.55411   -0.615516
 O 0.02406 0.47654 0.56184   -0.66778
 O 0.72388 0.358 0.63832   -0.493654
 O 0.91608 0.02295 0.91091   -0.602027
 O 0.77141 0.1272 0.92435   -0.635913
 O 0.75202 0.24369 0.85228   -0.506
 O 0.16227 0.18143 0.96483   -0.665605
 O 0.99753 0.14584 0.01547   -0.704741
 O 0.02417 0.32563 0.48179   -0.678031
 O 0.16985 0.22306 0.4806   -0.615936
 O 0.18907 0.98288 0.95669   -0.964572
 O 0.67462 0.91276 0.94589   -0.615516
 O 0.47594 0.97654 0.93816   -0.66778
 O 0.77612 0.858 0.86168   -0.493654
 O 0.58392 0.52295 0.58909   -0.602027
 O 0.72859 0.6272 0.57565   -0.635913
 O 0.74798 0.74369 0.64772   -0.506
 O 0.33773 0.68143 0.53517   -0.665605
 O 0.50247 0.64584 0.48453   -0.704741
 O 0.47583 0.82563 0.01821   -0.678031
 O 0.33015 0.72306 0.0194   -0.615936
 O 0.31093 0.48288 0.54331   -0.964572
