{'_ref': 'TBD', '_srcid': 'CAKYAQ_clean', 'submitters': [{'name': 'Dalar Nazarian Jeff Camp and David Sholl', 'email': 'dalar@gatech.edu jcamp6@gatech.edu'}], '_method': 'VASP DFT with PBE;DDEC'}
data_InH5C8O5
_symmetry_space_group_name_H-M   'P 1'
_cell_length_a   7.23300000
_cell_length_b   21.75819961
_cell_length_c   21.75820000
_cell_angle_alpha   119.95220063
_cell_angle_beta   90.00000000
_cell_angle_gamma   90.00000000
_symmetry_Int_Tables_number   1
_chemical_formula_structural   InH5C8O5
_chemical_formula_sum   'In6 H30 C48 O30'
_cell_volume   2966.90744152
_cell_formula_units_Z   6
loop_
 _symmetry_equiv_pos_site_id
 _symmetry_equiv_pos_as_xyz
  1  'x, y, z'
loop_
 _atom_site_label
 _atom_site_fract_x
 _atom_site_fract_y
 _atom_site_fract_z
 _atom_site_charge
 In 0.0 0.0 0.5   1.734638
 In 0.5 0.0 0.5   1.734711
 In 0.5 0.5 0.0   1.733576
 In 0.0 0.5 0.0   1.733382
 In 0.0 0.0 0.0   1.829252
 In 0.5 0.0 0.0   1.829197
 H 0.44921 0.79512 0.3205   0.098092
 H 0.05024 0.96868 0.67744   0.106942
 H 0.05082 0.96904 0.79202   0.110668
 H 0.94921 0.20488 0.6795   0.100933
 H 0.55024 0.03132 0.32256   0.109579
 H 0.55082 0.03096 0.20798   0.096374
 H 0.05079 0.6795 0.20488   0.11384
 H 0.44976 0.32256 0.03132   0.094885
 H 0.44918 0.20798 0.03096   0.099094
 H 0.55079 0.3205 0.79512   0.100433
 H 0.94976 0.67744 0.96868   0.106108
 H 0.94918 0.79202 0.96904   0.110652
 H 0.55079 0.20488 0.6795   0.100935
 H 0.94976 0.03132 0.32256   0.109578
 H 0.94918 0.03096 0.20798   0.096382
 H 0.05079 0.79512 0.3205   0.098089
 H 0.44976 0.96868 0.67744   0.106942
 H 0.44918 0.96904 0.79202   0.110668
 H 0.94921 0.3205 0.79512   0.100417
 H 0.55024 0.67744 0.96868   0.106108
 H 0.55082 0.79202 0.96904   0.110652
 H 0.44921 0.6795 0.20488   0.113839
 H 0.05024 0.32256 0.03132   0.094883
 H 0.05082 0.20798 0.03096   0.099095
 H 0.75017 0.4565 0.90519   0.40679
 H 0.24997 0.9052 0.4565   0.410754
 H 0.75003 0.09481 0.54349   0.407389
 H 0.24999 0.45304 0.04799   0.405469
 H 0.25 0.07641 0.99752   0.408483
 H 0.74995 0.99789 0.07644   0.410483
 C 0.5856 0.76793 0.29533   -0.06885
 C 0.9139 0.96959 0.70417   -0.074339
 C 0.9142 0.9691 0.76592   -0.079678
 C 0.0856 0.23207 0.70467   -0.070327
 C 0.4139 0.03041 0.29583   -0.076716
 C 0.4142 0.0309 0.23408   -0.064837
 C 0.9144 0.70467 0.23207   -0.080329
 C 0.5861 0.29583 0.03041   -0.064835
 C 0.5858 0.23408 0.0309   -0.067709
 C 0.4144 0.29533 0.76793   -0.071592
 C 0.0861 0.70417 0.96959   -0.072596
 C 0.0858 0.76592 0.9691   -0.078725
 C 0.4144 0.23207 0.70467   -0.070318
 C 0.0861 0.03041 0.29583   -0.076717
 C 0.0858 0.0309 0.23408   -0.064839
 C 0.9144 0.76793 0.29533   -0.068841
 C 0.5861 0.96959 0.70417   -0.074338
 C 0.5858 0.9691 0.76592   -0.079678
 C 0.0856 0.29533 0.76793   -0.071584
 C 0.4139 0.70417 0.96959   -0.072597
 C 0.4142 0.76592 0.9691   -0.078726
 C 0.5856 0.70467 0.23207   -0.080321
 C 0.9139 0.29583 0.03041   -0.064837
 C 0.9142 0.23408 0.0309   -0.067709
 C 0.75 0.8707 0.39404   0.751735
 C 0.75 0.79786 0.3277   -0.096678
 C 0.75 0.97748 0.60614   0.735142
 C 0.75 0.97119 0.67245   -0.091003
 C 0.75 0.96867 0.79751   -0.082551
 C 0.75 0.97075 0.86875   0.727715
 C 0.25 0.1293 0.60596   0.749052
 C 0.25 0.20214 0.6723   -0.087263
 C 0.25 0.02252 0.39386   0.733781
 C 0.25 0.02881 0.32755   -0.080685
 C 0.25 0.03133 0.20249   -0.096055
 C 0.25 0.02925 0.13125   0.754946
 C 0.75 0.60596 0.1293   0.7267
 C 0.75 0.6723 0.20214   -0.076243
 C 0.75 0.39386 0.02252   0.755986
 C 0.75 0.32755 0.02881   -0.095903
 C 0.75 0.20249 0.03133   -0.085715
 C 0.75 0.13125 0.02925   0.75172
 C 0.25 0.39404 0.8707   0.746028
 C 0.25 0.3277 0.79786   -0.08639
 C 0.25 0.60614 0.97748   0.740558
 C 0.25 0.67245 0.97119   -0.095241
 C 0.25 0.79751 0.96867   -0.082698
 C 0.25 0.86875 0.97075   0.728766
 O 0.90435 0.89714 0.41928   -0.663048
 O 0.90194 0.97733 0.57995   -0.6581
 O 0.90353 0.97182 0.89584   -0.656817
 O 0.40435 0.10286 0.58072   -0.660757
 O 0.40194 0.02267 0.42005   -0.656708
 O 0.40353 0.02818 0.10416   -0.692293
 O 0.59565 0.58072 0.10286   -0.641447
 O 0.59806 0.42005 0.02267   -0.675653
 O 0.59647 0.10416 0.02818   -0.689256
 O 0.09565 0.41928 0.89714   -0.674129
 O 0.09806 0.57995 0.97733   -0.647248
 O 0.09647 0.89584 0.97182   -0.657187
 O 0.09565 0.10286 0.58072   -0.660768
 O 0.09806 0.02267 0.42005   -0.656702
 O 0.09647 0.02818 0.10416   -0.692269
 O 0.59565 0.89714 0.41928   -0.663035
 O 0.59806 0.97733 0.57995   -0.658105
 O 0.59647 0.97182 0.89584   -0.656812
 O 0.40435 0.41928 0.89714   -0.674051
 O 0.40194 0.57995 0.97733   -0.647249
 O 0.40353 0.89584 0.97182   -0.657185
 O 0.90435 0.58072 0.10286   -0.64143
 O 0.90194 0.42005 0.02267   -0.675638
 O 0.90353 0.10416 0.02818   -0.68926
 O 0.75 0.04861 0.49883   -0.938407
 O 0.25 0.95139 0.50117   -0.936675
 O 0.75 0.50117 0.95139   -0.932033
 O 0.25 0.49883 0.04861   -0.934735
 O 0.75 0.97584 0.02416   -0.977622
 O 0.25 0.02416 0.97584   -0.979361
