{'_ref': 'TBD', '_srcid': 'CAKYAQ_clean', 'submitters': [{'name': 'Dalar Nazarian Jeff Camp and David Sholl', 'email': 'dalar@gatech.edu jcamp6@gatech.edu'}], '_method': 'VASP DFT with PBE;DDEC'}
data_Cu3MoH20C25S3IN5
_symmetry_space_group_name_H-M   'P 1'
_cell_length_a   15.03730031
_cell_length_b   15.03730025
_cell_length_c   18.10260000
_cell_angle_alpha   94.47229856
_cell_angle_beta   94.47229854
_cell_angle_gamma   90.08590077
_symmetry_Int_Tables_number   1
_chemical_formula_structural   Cu3MoH20C25S3IN5
_chemical_formula_sum   'Cu12 Mo4 H80 C100 S12 I4 N20'
_cell_volume   4068.35941967
_cell_formula_units_Z   4
loop_
 _symmetry_equiv_pos_site_id
 _symmetry_equiv_pos_as_xyz
  1  'x, y, z'
loop_
 _atom_site_label
 _atom_site_fract_x
 _atom_site_fract_y
 _atom_site_fract_z
 _atom_site_charge
 Cu 0.40623 0.23047 0.47426   0.353895
 Cu 0.19631 0.37457 0.51048   0.32034
 Cu 0.281 0.1951 0.64125   0.363012
 Cu 0.76953 0.59377 0.02574   0.353895
 Cu 0.62543 0.80369 0.98952   0.32034
 Cu 0.8049 0.719 0.85875   0.363012
 Cu 0.59377 0.76953 0.52574   0.353895
 Cu 0.80369 0.62543 0.48952   0.32034
 Cu 0.719 0.8049 0.35875   0.363012
 Cu 0.23047 0.40623 0.97426   0.353895
 Cu 0.37457 0.19631 0.01048   0.32034
 Cu 0.1951 0.281 0.14125   0.363012
 Mo 0.23281 0.19769 0.4959   0.49066
 Mo 0.80231 0.76719 0.0041   0.49066
 Mo 0.76719 0.80231 0.5041   0.49066
 Mo 0.19769 0.23281 0.9959   0.49066
 H 0.5664 0.1118 0.4323   0.076165
 H 0.6155 0.0335 0.3301   0.121174
 H 0.4207 0.1453 0.2063   0.123325
 H 0.3751 0.2165 0.3123   0.059161
 H 0.7167 0.9459 0.1053   0.039062
 H 0.6836 0.034 0.2081   0.121518
 H 0.4263 0.0045 0.1395   0.131424
 H 0.4654 0.9138 0.0411   0.065
 H 0.62 0.67 0.8074   0.065236
 H 0.5393 0.5727 0.7253   0.130883
 H 0.7678 0.4784 0.6538   0.118351
 H 0.8418 0.5818 0.7355   0.05965
 H 0.4053 0.4155 0.5325   0.045284
 H 0.4829 0.5203 0.6087   0.125616
 H 0.6841 0.3505 0.6217   0.12708
 H 0.6023 0.2527 0.542   0.074038
 H 0.8427 0.8017 0.7114   0.04935
 H 0.9371 0.8999 0.669   0.099641
 H 0.0801 0.9045 0.8648   0.132822
 H 0.9844 0.8012 0.8998   0.057843
 H 0.8882 0.4336 0.0677   0.076165
 H 0.9665 0.3845 0.1699   0.121174
 H 0.8547 0.5793 0.2937   0.123325
 H 0.7835 0.6249 0.1877   0.059161
 H 0.0541 0.2833 0.3947   0.039062
 H 0.966 0.3164 0.2919   0.121518
 H 0.9955 0.5737 0.3605   0.131424
 H 0.0862 0.5346 0.4589   0.065
 H 0.33 0.38 0.6926   0.065236
 H 0.4273 0.4607 0.7747   0.130883
 H 0.5216 0.2322 0.8462   0.118351
 H 0.4182 0.1582 0.7645   0.05965
 H 0.5845 0.5947 0.9675   0.045284
 H 0.4797 0.5171 0.8913   0.125616
 H 0.6495 0.3159 0.8783   0.127079
 H 0.7473 0.3977 0.958   0.074038
 H 0.1983 0.1573 0.7886   0.04935
 H 0.1001 0.0629 0.831   0.099641
 H 0.0955 0.9199 0.6352   0.132822
 H 0.1988 0.0156 0.6002   0.057843
 H 0.4336 0.8882 0.5677   0.076165
 H 0.3845 0.9665 0.6699   0.121174
 H 0.5793 0.8547 0.7937   0.123325
 H 0.6249 0.7835 0.6877   0.059161
 H 0.2833 0.0541 0.8947   0.039062
 H 0.3164 0.966 0.7919   0.121518
 H 0.5737 0.9955 0.8605   0.131423
 H 0.5346 0.0862 0.9589   0.065
 H 0.38 0.33 0.1926   0.065236
 H 0.4607 0.4273 0.2747   0.130883
 H 0.2322 0.5216 0.3462   0.11835
 H 0.1582 0.4182 0.2645   0.05965
 H 0.5947 0.5845 0.4675   0.045284
 H 0.5171 0.4797 0.3913   0.125616
 H 0.3159 0.6495 0.3783   0.12708
 H 0.3977 0.7473 0.458   0.074038
 H 0.1573 0.1983 0.2886   0.04935
 H 0.0629 0.1001 0.331   0.099641
 H 0.9199 0.0955 0.1352   0.132822
 H 0.0156 0.1988 0.1002   0.057843
 H 0.1118 0.5664 0.9323   0.076165
 H 0.0335 0.6155 0.8301   0.121174
 H 0.1453 0.4207 0.7063   0.123325
 H 0.2165 0.3751 0.8123   0.059161
 H 0.9459 0.7167 0.6053   0.039062
 H 0.034 0.6836 0.7081   0.121518
 H 0.0045 0.4263 0.6395   0.131423
 H 0.9138 0.4654 0.5411   0.065
 H 0.67 0.62 0.3074   0.065236
 H 0.5727 0.5393 0.2253   0.130883
 H 0.4784 0.7678 0.1538   0.11835
 H 0.5818 0.8418 0.2355   0.05965
 H 0.4155 0.4053 0.0325   0.045284
 H 0.5203 0.4829 0.1087   0.125616
 H 0.3505 0.6841 0.1217   0.127079
 H 0.2527 0.6023 0.042   0.074038
 H 0.8017 0.8427 0.2114   0.04935
 H 0.8999 0.9371 0.169   0.099641
 H 0.9045 0.0801 0.3648   0.132822
 H 0.8012 0.9844 0.3998   0.057843
 C 0.5361 0.1177 0.3862   0.153579
 C 0.5667 0.0709 0.3247   -0.194242
 C 0.5245 0.0797 0.255   0.096781
 C 0.4513 0.1365 0.2518   -0.180384
 C 0.4245 0.1795 0.3158   0.152211
 C 0.6571 0.9563 0.1132   0.165275
 C 0.6377 0.0099 0.1751   -0.201967
 C 0.5509 0.0275 0.1878   0.103963
 C 0.4861 0.9917 0.1346   -0.185932
 C 0.5101 0.9379 0.0753   0.162944
 C 0.6506 0.6312 0.7759   0.158577
 C 0.6012 0.5722 0.7269   -0.19344
 C 0.6439 0.5119 0.6801   0.096421
 C 0.7358 0.5168 0.6844   -0.181684
 C 0.7799 0.5793 0.7342   0.151636
 C 0.4625 0.4013 0.5513   0.17305
 C 0.5085 0.4651 0.5976   -0.191829
 C 0.593 0.4466 0.6276   0.097094
 C 0.6265 0.3657 0.6047   -0.198949
 C 0.5763 0.3065 0.5571   0.149347
 C 0.8917 0.8221 0.7426   0.166857
 C 0.9476 0.8816 0.7168   -0.199393
 C 0.021 0.915 0.7628   0.094003
 C 0.0325 0.8839 0.832   -0.205842
 C 0.974 0.8224 0.8531   0.150597
 C 0.8823 0.4639 0.1138   0.153579
 C 0.9291 0.4333 0.1753   -0.194242
 C 0.9203 0.4755 0.245   0.096781
 C 0.8635 0.5487 0.2482   -0.180384
 C 0.8205 0.5755 0.1842   0.152211
 C 0.0437 0.3429 0.3868   0.165275
 C 0.9901 0.3623 0.3249   -0.201967
 C 0.9725 0.4491 0.3122   0.103963
 C 0.0083 0.5139 0.3654   -0.185932
 C 0.0621 0.4899 0.4247   0.162944
 C 0.3688 0.3494 0.7241   0.158577
 C 0.4278 0.3988 0.7731   -0.19344
 C 0.4881 0.3561 0.8199   0.096421
 C 0.4832 0.2642 0.8156   -0.181685
 C 0.4207 0.2201 0.7658   0.151636
 C 0.5987 0.5375 0.9487   0.17305
 C 0.5349 0.4915 0.9024   -0.191829
 C 0.5534 0.407 0.8724   0.097094
 C 0.6343 0.3735 0.8953   -0.198949
 C 0.6935 0.4237 0.9429   0.149346
 C 0.1779 0.1083 0.7574   0.166857
 C 0.1184 0.0524 0.7832   -0.199394
 C 0.085 0.979 0.7372   0.094003
 C 0.1161 0.9675 0.668   -0.205842
 C 0.1776 0.026 0.6469   0.150597
 C 0.4639 0.8823 0.6138   0.153579
 C 0.4333 0.9291 0.6753   -0.194241
 C 0.4755 0.9203 0.745   0.096781
 C 0.5487 0.8635 0.7482   -0.180384
 C 0.5755 0.8205 0.6842   0.152211
 C 0.3429 0.0437 0.8868   0.165275
 C 0.3623 0.9901 0.8249   -0.201967
 C 0.4491 0.9725 0.8122   0.103963
 C 0.5139 0.0083 0.8654   -0.185932
 C 0.4899 0.0621 0.9247   0.162944
 C 0.3494 0.3688 0.2241   0.158577
 C 0.3988 0.4278 0.2731   -0.19344
 C 0.3561 0.4881 0.3199   0.096421
 C 0.2642 0.4832 0.3156   -0.181684
 C 0.2201 0.4207 0.2658   0.151636
 C 0.5375 0.5987 0.4487   0.17305
 C 0.4915 0.5349 0.4024   -0.191829
 C 0.407 0.5534 0.3724   0.097094
 C 0.3735 0.6343 0.3953   -0.198949
 C 0.4237 0.6935 0.4429   0.149347
 C 0.1083 0.1779 0.2574   0.166857
 C 0.0524 0.1184 0.2832   -0.199393
 C 0.979 0.085 0.2372   0.094003
 C 0.9675 0.1161 0.168   -0.205841
 C 0.026 0.1776 0.1469   0.150597
 C 0.1177 0.5361 0.8862   0.153579
 C 0.0709 0.5667 0.8247   -0.194242
 C 0.0797 0.5245 0.755   0.096781
 C 0.1365 0.4513 0.7518   -0.180384
 C 0.1795 0.4245 0.8158   0.152211
 C 0.9563 0.6571 0.6132   0.165275
 C 0.0099 0.6377 0.6751   -0.201967
 C 0.0275 0.5509 0.6878   0.103963
 C 0.9917 0.4861 0.6346   -0.185932
 C 0.9379 0.5101 0.5753   0.162944
 C 0.6312 0.6506 0.2759   0.158577
 C 0.5722 0.6012 0.2269   -0.19344
 C 0.5119 0.6439 0.1801   0.096421
 C 0.5168 0.7358 0.1844   -0.181685
 C 0.5793 0.7799 0.2342   0.151636
 C 0.4013 0.4625 0.0513   0.17305
 C 0.4651 0.5085 0.0976   -0.191829
 C 0.4466 0.593 0.1276   0.097094
 C 0.3657 0.6265 0.1047   -0.198949
 C 0.3065 0.5763 0.0571   0.149346
 C 0.8221 0.8917 0.2426   0.166857
 C 0.8816 0.9476 0.2168   -0.199394
 C 0.915 0.021 0.2628   0.094003
 C 0.8839 0.0325 0.332   -0.205841
 C 0.8224 0.974 0.3531   0.150597
 S 0.28191 0.30125 0.42505   -0.477255
 S 0.35375 0.12719 0.54642   -0.550357
 S 0.16283 0.27039 0.58904   -0.508469
 S 0.69875 0.71809 0.07495   -0.477255
 S 0.87281 0.64625 0.95358   -0.550357
 S 0.72961 0.83717 0.91096   -0.508469
 S 0.71809 0.69875 0.57495   -0.477255
 S 0.64625 0.87281 0.45358   -0.550357
 S 0.83717 0.72961 0.41096   -0.508469
 S 0.30125 0.28191 0.92505   -0.477255
 S 0.12719 0.35375 0.04642   -0.550357
 S 0.27039 0.16283 0.08904   -0.508469
 I 0.24669 0.52759 0.57014   -0.535629
 I 0.47241 0.75331 0.92986   -0.535629
 I 0.75331 0.47241 0.42986   -0.535629
 I 0.52759 0.24669 0.07014   -0.535629
 N 0.4656 0.1708 0.383   -0.284572
 N 0.5952 0.9184 0.064   -0.283955
 N 0.739 0.6362 0.7808   -0.270353
 N 0.4929 0.3211 0.5313   -0.277975
 N 0.9024 0.7912 0.8097   -0.300634
 N 0.8292 0.5344 0.117   -0.284572
 N 0.0816 0.4048 0.436   -0.283955
 N 0.3638 0.261 0.7192   -0.270353
 N 0.6789 0.5071 0.9687   -0.277975
 N 0.2088 0.0976 0.6903   -0.300634
 N 0.5344 0.8292 0.617   -0.284572
 N 0.4048 0.0816 0.936   -0.283955
 N 0.261 0.3638 0.2192   -0.270353
 N 0.5071 0.6789 0.4687   -0.277975
 N 0.0976 0.2088 0.1903   -0.300634
 N 0.1708 0.4656 0.883   -0.284572
 N 0.9184 0.5952 0.564   -0.283955
 N 0.6362 0.739 0.2808   -0.270353
 N 0.3211 0.4929 0.0313   -0.277975
 N 0.7912 0.9024 0.3097   -0.300634
