{'_ref': 'TBD', '_srcid': 'CAKYAQ_clean', 'submitters': [{'name': 'Dalar Nazarian Jeff Camp and David Sholl', 'email': 'dalar@gatech.edu jcamp6@gatech.edu'}], '_method': 'VASP DFT with PBE;DDEC'}
data_Gd2H12(C4O5)3
_symmetry_space_group_name_H-M   'P 1'
_cell_length_a   9.01640000
_cell_length_b   9.01639972
_cell_length_c   17.07800000
_cell_angle_alpha   90.00000000
_cell_angle_beta   90.00000000
_cell_angle_gamma   117.03100108
_symmetry_Int_Tables_number   1
_chemical_formula_structural   Gd2H12(C4O5)3
_chemical_formula_sum   'Gd4 H24 C24 O30'
_cell_volume   1236.7001399
_cell_formula_units_Z   2
loop_
 _symmetry_equiv_pos_site_id
 _symmetry_equiv_pos_as_xyz
  1  'x, y, z'
loop_
 _atom_site_label
 _atom_site_fract_x
 _atom_site_fract_y
 _atom_site_fract_z
 _atom_site_charge
 Gd 0.0 0.0 0.0   2.093172
 Gd 0.0 0.0 0.5   2.093173
 Gd 0.34991 0.65509 0.25   2.276217
 Gd 0.65509 0.34991 0.75   2.276217
 H 0.562 0.9652 0.0843   0.115049
 H 0.5023 0.8193 0.0233   0.09539
 H 0.5834 0.9812 0.91   0.121682
 H 0.6246 0.1394 0.9618   0.096698
 H 0.3939 0.4017 0.0865   0.104179
 H 0.316 0.4888 0.0325   0.083418
 H 0.9652 0.562 0.9157   0.115049
 H 0.8193 0.5023 0.9767   0.095391
 H 0.9812 0.5834 0.09   0.121683
 H 0.1394 0.6246 0.0382   0.096698
 H 0.4017 0.3939 0.9135   0.104179
 H 0.4888 0.316 0.9675   0.083418
 H 0.9652 0.562 0.5843   0.115049
 H 0.8193 0.5023 0.5233   0.09539
 H 0.9812 0.5834 0.41   0.121682
 H 0.1394 0.6246 0.4618   0.096698
 H 0.4017 0.3939 0.5865   0.104179
 H 0.4888 0.316 0.5325   0.083418
 H 0.562 0.9652 0.4157   0.115049
 H 0.5023 0.8193 0.4767   0.095391
 H 0.5834 0.9812 0.59   0.121683
 H 0.6246 0.1394 0.5382   0.096698
 H 0.3939 0.4017 0.4135   0.104179
 H 0.316 0.4888 0.4675   0.083418
 C 0.6535 0.8025 0.1059   0.787073
 C 0.5972 0.8968 0.0532   -0.100956
 C 0.6694 0.0686 0.9402   -0.09015
 C 0.815 0.169 0.8894   0.779981
 C 0.1515 0.3365 0.1142   0.770459
 C 0.295 0.385 0.0577   -0.093188
 C 0.8025 0.6535 0.8941   0.787073
 C 0.8968 0.5972 0.9468   -0.100956
 C 0.0686 0.6694 0.0598   -0.09015
 C 0.169 0.815 0.1106   0.779981
 C 0.3365 0.1515 0.8858   0.770459
 C 0.385 0.295 0.9423   -0.093189
 C 0.8025 0.6535 0.6059   0.787073
 C 0.8968 0.5972 0.5532   -0.100956
 C 0.0686 0.6694 0.4402   -0.09015
 C 0.169 0.815 0.3894   0.779981
 C 0.3365 0.1515 0.6142   0.770459
 C 0.385 0.295 0.5577   -0.093188
 C 0.6535 0.8025 0.3941   0.787073
 C 0.5972 0.8968 0.4468   -0.100956
 C 0.6694 0.0686 0.5598   -0.09015
 C 0.815 0.169 0.6106   0.779981
 C 0.1515 0.3365 0.3858   0.770459
 C 0.295 0.385 0.4423   -0.093189
 O 0.8008 0.827 0.0962   -0.663207
 O 0.5558 0.7074 0.1564   -0.801127
 O 0.7239 0.9991 0.0015   -0.341124
 O 0.7937 0.2483 0.8351   -0.767757
 O 0.9571 0.1769 0.9042   -0.685162
 O 0.0244 0.2032 0.0979   -0.681312
 O 0.171 0.437 0.1674   -0.746585
 O 0.827 0.8008 0.9038   -0.663207
 O 0.7074 0.5558 0.8436   -0.801127
 O 0.9991 0.7239 0.9985   -0.341123
 O 0.2483 0.7937 0.1649   -0.767757
 O 0.1769 0.9571 0.0958   -0.685162
 O 0.2032 0.0244 0.9021   -0.681312
 O 0.437 0.171 0.8326   -0.746585
 O 0.827 0.8008 0.5962   -0.663207
 O 0.7074 0.5558 0.6564   -0.801127
 O 0.9991 0.7239 0.5015   -0.341124
 O 0.2483 0.7937 0.3351   -0.767757
 O 0.1769 0.9571 0.4042   -0.685162
 O 0.2032 0.0244 0.5979   -0.681312
 O 0.437 0.171 0.6674   -0.746585
 O 0.8008 0.827 0.4038   -0.663207
 O 0.5558 0.7074 0.3436   -0.801127
 O 0.7239 0.9991 0.4985   -0.341124
 O 0.7937 0.2483 0.6649   -0.767757
 O 0.9571 0.1769 0.5958   -0.685162
 O 0.0244 0.2032 0.4021   -0.681312
 O 0.171 0.437 0.3326   -0.746585
 O 0.262 0.262 0.0   -0.336115
 O 0.262 0.262 0.5   -0.336115
