{'_ref': 'TBD', '_srcid': 'CAKYAQ_clean', 'submitters': [{'name': 'Dalar Nazarian Jeff Camp and David Sholl', 'email': 'dalar@gatech.edu jcamp6@gatech.edu'}], '_method': 'VASP DFT with PBE;DDEC'}
data_MgHC4O3
_symmetry_space_group_name_H-M   'P 1'
_cell_length_a   6.78560000
_cell_length_b   15.11005579
_cell_length_c   15.11005597
_cell_angle_alpha   117.80009324
_cell_angle_beta   98.60912588
_cell_angle_gamma   98.60912599
_symmetry_Int_Tables_number   1
_chemical_formula_structural   MgHC4O3
_chemical_formula_sum   'Mg6 H6 C24 O18'
_cell_volume   1311.62200307
_cell_formula_units_Z   6
loop_
 _symmetry_equiv_pos_site_id
 _symmetry_equiv_pos_as_xyz
  1  'x, y, z'
loop_
 _atom_site_label
 _atom_site_fract_x
 _atom_site_fract_y
 _atom_site_fract_z
 _atom_site_charge
 Mg 0.88652 0.67327 0.40196   1.596127
 Mg 0.21325 0.72869 0.32673   1.597724
 Mg 0.48456 0.59804 0.27131   1.596431
 Mg 0.11348 0.32673 0.59804   1.596127
 Mg 0.78675 0.27131 0.67327   1.597724
 Mg 0.51544 0.40196 0.72869   1.596431
 H 0.35553 0.97668 0.52745   0.147228
 H 0.37885 0.55077 0.02332   0.147646
 H 0.82808 0.47255 0.44923   0.147965
 H 0.64447 0.02332 0.47255   0.147228
 H 0.62115 0.44923 0.97668   0.147646
 H 0.17192 0.52745 0.55077   0.147965
 C 0.6463 0.82753 0.39246   0.802929
 C 0.81877 0.56493 0.17247   0.803264
 C 0.25384 0.60754 0.43507   0.803293
 C 0.3537 0.17247 0.60754   0.802929
 C 0.18123 0.43507 0.82753   0.803264
 C 0.74616 0.39246 0.56493   0.803293
 C 0.82999 0.91371 0.44875   -0.264326
 C 0.91628 0.53504 0.08629   -0.261667
 C 0.38124 0.55125 0.46496   -0.260268
 C 0.17001 0.08629 0.55125   -0.264326
 C 0.08372 0.46496 0.91371   -0.261667
 C 0.61876 0.44875 0.53504   -0.260268
 C 0.03256 0.8982 0.46418   0.425239
 C 0.13436 0.56598 0.1018   0.421884
 C 0.56838 0.53582 0.43402   0.423235
 C 0.96744 0.1018 0.53582   0.425239
 C 0.86564 0.43402 0.8982   0.421884
 C 0.43162 0.46418 0.56598   0.423235
 C 0.19812 0.98611 0.51499   -0.178729
 C 0.21201 0.52888 0.01389   -0.178413
 C 0.68313 0.48501 0.47112   -0.181559
 C 0.80188 0.01389 0.48501   -0.178729
 C 0.78799 0.47112 0.98611   -0.178413
 C 0.31687 0.51499 0.52888   -0.181559
 O 0.67019 0.73281 0.3589   -0.885609
 O 0.93738 0.62609 0.26719   -0.886028
 O 0.31129 0.6411 0.37391   -0.886471
 O 0.32981 0.26719 0.6411   -0.885609
 O 0.06262 0.37391 0.73281   -0.886028
 O 0.68871 0.3589 0.62609   -0.886471
 O 0.46217 0.84189 0.37522   -0.721711
 O 0.62028 0.53333 0.15811   -0.722493
 O 0.08695 0.62478 0.46667   -0.721677
 O 0.53783 0.15811 0.62478   -0.721711
 O 0.37972 0.46667 0.84189   -0.722493
 O 0.91305 0.37522 0.53333   -0.721677
 O 0.07123 0.80301 0.43217   -0.922044
 O 0.26822 0.62916 0.19699   -0.921218
 O 0.63906 0.56783 0.37084   -0.920751
 O 0.92877 0.19699 0.56783   -0.922044
 O 0.73178 0.37084 0.80301   -0.921218
 O 0.36094 0.43217 0.62916   -0.920751
