{'_ref': 'TBD', '_srcid': 'CAKYAQ_clean', 'submitters': [{'name': 'Dalar Nazarian Jeff Camp and David Sholl', 'email': 'dalar@gatech.edu jcamp6@gatech.edu'}], '_method': 'VASP DFT with PBE;DDEC'}
data_Fe3H6(C3O4)4
_symmetry_space_group_name_H-M   'P 1'
_cell_length_a   9.77980000
_cell_length_b   9.77979979
_cell_length_c   14.82650000
_cell_angle_alpha   90.00000000
_cell_angle_beta   90.00000000
_cell_angle_gamma   120.00000071
_symmetry_Int_Tables_number   1
_chemical_formula_structural   Fe3H6(C3O4)4
_chemical_formula_sum   'Fe6 H12 C24 O32'
_cell_volume   1228.08720872
_cell_formula_units_Z   2
loop_
 _symmetry_equiv_pos_site_id
 _symmetry_equiv_pos_as_xyz
  1  'x, y, z'
loop_
 _atom_site_label
 _atom_site_fract_x
 _atom_site_fract_y
 _atom_site_fract_z
 _atom_site_charge
 Fe 0.7852 0.2148 0.25   1.112851
 Fe 0.7852 0.5704 0.25   1.112065
 Fe 0.4296 0.2148 0.25   1.112098
 Fe 0.2148 0.7852 0.75   1.112853
 Fe 0.5704 0.7852 0.75   1.112067
 Fe 0.2148 0.4296 0.75   1.1121
 H 0.5878 0.1756 0.9771   0.138993
 H 0.8244 0.4122 0.9771   0.138992
 H 0.5878 0.4122 0.9771   0.139004
 H 0.5878 0.1756 0.5229   0.138993
 H 0.8244 0.4122 0.5229   0.138992
 H 0.5878 0.4122 0.5229   0.139004
 H 0.1756 0.5878 0.0229   0.138989
 H 0.4122 0.8244 0.0229   0.138989
 H 0.4122 0.5878 0.0229   0.139
 H 0.1756 0.5878 0.4771   0.138989
 H 0.4122 0.8244 0.4771   0.138989
 H 0.4122 0.5878 0.4771   0.139
 C 0.5429 0.0859 0.1157   0.673927
 C 0.9141 0.457 0.1157   0.673927
 C 0.543 0.4571 0.1157   0.673887
 C 0.5429 0.0859 0.3843   0.673927
 C 0.9141 0.457 0.3843   0.673927
 C 0.543 0.4571 0.3843   0.673887
 C 0.0859 0.5429 0.8843   0.673923
 C 0.457 0.9141 0.8843   0.673923
 C 0.4571 0.543 0.8843   0.673884
 C 0.0859 0.5429 0.6157   0.673923
 C 0.457 0.9141 0.6157   0.673923
 C 0.4571 0.543 0.6157   0.673884
 C 0.5354 0.0708 0.0186   -0.174906
 C 0.9292 0.4646 0.0186   -0.174899
 C 0.5354 0.4646 0.0186   -0.174878
 C 0.5354 0.0708 0.4814   -0.174906
 C 0.9292 0.4646 0.4814   -0.174899
 C 0.5354 0.4646 0.4814   -0.174878
 C 0.0708 0.5354 0.9814   -0.174869
 C 0.4646 0.9292 0.9814   -0.174862
 C 0.4646 0.5354 0.9814   -0.174844
 C 0.0708 0.5354 0.5186   -0.174869
 C 0.4646 0.9292 0.5186   -0.174862
 C 0.4646 0.5354 0.5186   -0.174844
 O 0.44 0.11 0.15   -0.442522
 O 0.89 0.33 0.15   -0.442623
 O 0.67 0.56 0.15   -0.442527
 O 0.44 0.11 0.35   -0.442522
 O 0.89 0.33 0.35   -0.442623
 O 0.67 0.56 0.35   -0.442527
 O 0.11 0.44 0.85   -0.442522
 O 0.33 0.89 0.85   -0.442623
 O 0.56 0.67 0.85   -0.442528
 O 0.11 0.44 0.65   -0.442522
 O 0.33 0.89 0.65   -0.442623
 O 0.56 0.67 0.65   -0.442528
 O 0.6568 0.0773 0.1597   -0.478887
 O 0.9227 0.5795 0.1597   -0.4788
 O 0.4205 0.3432 0.1597   -0.478809
 O 0.6568 0.0773 0.3403   -0.478887
 O 0.9227 0.5795 0.3403   -0.4788
 O 0.4205 0.3432 0.3403   -0.478809
 O 0.0773 0.6568 0.8403   -0.478887
 O 0.5795 0.9227 0.8403   -0.4788
 O 0.3432 0.4205 0.8403   -0.478809
 O 0.0773 0.6568 0.6597   -0.478887
 O 0.5795 0.9227 0.6597   -0.4788
 O 0.3432 0.4205 0.6597   -0.478809
 O 0.6667 0.3333 0.25   -0.851869
 O 0.3333 0.6667 0.75   -0.851869
 O 0.8977 0.1023 0.25   -0.261814
 O 0.8977 0.7954 0.25   -0.26157
 O 0.2046 0.1023 0.25   -0.261607
 O 0.1023 0.8977 0.75   -0.261814
 O 0.7954 0.8977 0.75   -0.26157
 O 0.1023 0.2046 0.75   -0.261607
