{'_ref': 'TBD', '_srcid': 'CAKYAQ_clean', 'submitters': [{'name': 'Dalar Nazarian Jeff Camp and David Sholl', 'email': 'dalar@gatech.edu jcamp6@gatech.edu'}], '_method': 'VASP DFT with PBE;DDEC'}
data_VC14O5
_symmetry_space_group_name_H-M   'P 1'
_cell_length_a   6.95700041
_cell_length_b   15.25880015
_cell_length_c   15.25880000
_cell_angle_alpha   84.75869874
_cell_angle_beta   76.82260276
_cell_angle_gamma   76.82260079
_symmetry_Int_Tables_number   1
_chemical_formula_structural   VC14O5
_chemical_formula_sum   'V2 C28 O10'
_cell_volume   1534.30027511
_cell_formula_units_Z   2
loop_
 _symmetry_equiv_pos_site_id
 _symmetry_equiv_pos_as_xyz
  1  'x, y, z'
loop_
 _atom_site_label
 _atom_site_fract_x
 _atom_site_fract_y
 _atom_site_fract_z
 _atom_site_charge
 V 0.5 0.0 0.0   2.095422
 V 0.0 0.0 0.0   2.095414
 C 0.5846 0.694 0.004   0.047942
 C 0.637 0.595 0.003   -0.118965
 C 0.9154 0.996 0.306   0.047942
 C 0.863 0.997 0.405   -0.118965
 C 0.7826 0.306 0.996   0.048451
 C 0.735 0.405 0.997   -0.119596
 C 0.7174 0.004 0.694   0.04845
 C 0.765 0.003 0.595   -0.119596
 C 0.4154 0.306 0.996   0.047944
 C 0.363 0.405 0.997   -0.118963
 C 0.0846 0.004 0.694   0.047943
 C 0.137 0.003 0.595   -0.118963
 C 0.2174 0.694 0.004   0.048453
 C 0.265 0.595 0.003   -0.119596
 C 0.2826 0.996 0.306   0.048452
 C 0.235 0.997 0.405   -0.119596
 C 0.332 0.844 0.992   0.651065
 C 0.379 0.741 0.000999999999998   -0.120989
 C 0.474 0.55 0.002   0.13742
 C 0.168 0.008 0.156   0.651064
 C 0.121 0.999 0.259   -0.120986
 C 0.026 0.998 0.45   0.13742
 C 0.668 0.156 0.008   0.651065
 C 0.621 0.259 0.999   -0.120989
 C 0.526 0.45 0.998   0.137416
 C 0.832 0.992 0.844   0.651064
 C 0.879 0.000999999999998 0.741   -0.120986
 C 0.974 0.002 0.55   0.137416
 O 0.4875 0.8845 0.9865   -0.576584
 O 0.0125 0.0135 0.1155   -0.576583
 O 0.8585 0.1155 0.0135   -0.576778
 O 0.6415 0.9865 0.8845   -0.576779
 O 0.5125 0.1155 0.0135   -0.576584
 O 0.9875 0.9865 0.8845   -0.576583
 O 0.1415 0.8845 0.9865   -0.576778
 O 0.3585 0.0135 0.1155   -0.576779
 O 0.75 0.962 0.038   -0.839351
 O 0.25 0.038 0.962   -0.839351
