{'_ref': 'TBD', '_srcid': 'CAKYAQ_clean', 'submitters': [{'name': 'Dalar Nazarian Jeff Camp and David Sholl', 'email': 'dalar@gatech.edu jcamp6@gatech.edu'}], '_method': 'VASP DFT with PBE;DDEC'}
data_Er2Cu3(C4O5)6
_symmetry_space_group_name_H-M   'P 1'
_cell_length_a   14.51600000
_cell_length_b   14.51600021
_cell_length_c   15.27900000
_cell_angle_alpha   90.00000000
_cell_angle_beta   90.00000000
_cell_angle_gamma   119.99999953
_symmetry_Int_Tables_number   1
_chemical_formula_structural   Er2Cu3(C4O5)6
_chemical_formula_sum   'Er4 Cu6 C48 O60'
_cell_volume   2788.17154019
_cell_formula_units_Z   2
loop_
 _symmetry_equiv_pos_site_id
 _symmetry_equiv_pos_as_xyz
  1  'x, y, z'
loop_
 _atom_site_label
 _atom_site_fract_x
 _atom_site_fract_y
 _atom_site_fract_z
 _atom_site_charge
 Er 0.66667 0.33334 0.75   1.192357
 Er 0.33333 0.66666 0.75   1.192357
 Er 0.33333 0.66666 0.25   1.192356
 Er 0.66667 0.33334 0.25   1.192356
 Cu 0.5 0.5 0.5   1.019836
 Cu 0.0 0.5 0.5   1.033914
 Cu 0.5 0.0 0.5   1.020966
 Cu 0.0 0.5 0.0   1.019831
 Cu 0.5 0.5 0.0   1.033914
 Cu 0.5 0.0 0.0   1.020968
 C 0.7371 0.5887 0.6943   -0.054076
 C 0.6459 0.5137 0.6381   0.660432
 C 0.8516 0.2629 0.6943   -0.036042
 C 0.8678 0.3541 0.6381   0.654127
 C 0.4113 0.1484 0.6943   -0.0617
 C 0.4863 0.1322 0.6381   0.662941
 C 0.2629 0.4113 0.6943   -0.054076
 C 0.3541 0.4863 0.6381   0.660432
 C 0.1484 0.7371 0.6943   -0.036042
 C 0.1322 0.6459 0.6381   0.654127
 C 0.5887 0.8516 0.6943   -0.061699
 C 0.5137 0.8678 0.6381   0.662941
 C 0.1484 0.4113 0.8057   -0.05407
 C 0.1322 0.4863 0.8619   0.660432
 C 0.5887 0.7371 0.8057   -0.036031
 C 0.5137 0.6459 0.8619   0.654126
 C 0.2629 0.8516 0.8057   -0.061688
 C 0.3541 0.8678 0.8619   0.662939
 C 0.8516 0.5887 0.8057   -0.05407
 C 0.8678 0.5137 0.8619   0.660432
 C 0.4113 0.2629 0.8057   -0.036032
 C 0.4863 0.3541 0.8619   0.654126
 C 0.7371 0.1484 0.8057   -0.061687
 C 0.6459 0.1322 0.8619   0.662939
 C 0.2629 0.4113 0.3057   -0.054077
 C 0.3541 0.4863 0.3619   0.660431
 C 0.1484 0.7371 0.3057   -0.036044
 C 0.1322 0.6459 0.3619   0.654126
 C 0.5887 0.8516 0.3057   -0.0617
 C 0.5137 0.8678 0.3619   0.662941
 C 0.7371 0.5887 0.3057   -0.054077
 C 0.6459 0.5137 0.3619   0.660431
 C 0.8516 0.2629 0.3057   -0.036044
 C 0.8678 0.3541 0.3619   0.654126
 C 0.4113 0.1484 0.3057   -0.0617
 C 0.4863 0.1322 0.3619   0.662941
 C 0.8516 0.5887 0.1943   -0.054071
 C 0.8678 0.5137 0.1381   0.660431
 C 0.4113 0.2629 0.1943   -0.036033
 C 0.4863 0.3541 0.1381   0.654125
 C 0.7371 0.1484 0.1943   -0.061688
 C 0.6459 0.1322 0.1381   0.662939
 C 0.1484 0.4113 0.1943   -0.054071
 C 0.1322 0.4863 0.1381   0.660431
 C 0.5887 0.7371 0.1943   -0.036033
 C 0.5137 0.6459 0.1381   0.654125
 C 0.2629 0.8516 0.1943   -0.061687
 C 0.3541 0.8678 0.1381   0.662939
 O 0.6125 0.4156 0.6447   -0.533415
 O 0.6109 0.5569 0.5886   -0.520822
 O 0.8031 0.3875 0.6447   -0.5319
 O 0.946 0.3891 0.5886   -0.532778
 O 0.5844 0.1969 0.6447   -0.534732
 O 0.4431 0.054 0.5886   -0.520989
 O 0.3875 0.5844 0.6447   -0.533415
 O 0.3891 0.4431 0.5886   -0.520822
 O 0.1969 0.6125 0.6447   -0.5319
 O 0.054 0.6109 0.5886   -0.532778
 O 0.4156 0.8031 0.6447   -0.534732
 O 0.5569 0.946 0.5886   -0.520989
 O 0.1969 0.5844 0.8553   -0.533415
 O 0.054 0.4431 0.9114   -0.520823
 O 0.4156 0.6125 0.8553   -0.5319
 O 0.5569 0.6109 0.9114   -0.532778
 O 0.3875 0.8031 0.8553   -0.534731
 O 0.3891 0.946 0.9114   -0.520989
 O 0.8031 0.4156 0.8553   -0.533415
 O 0.946 0.5569 0.9114   -0.520822
 O 0.5844 0.3875 0.8553   -0.5319
 O 0.4431 0.3891 0.9114   -0.532778
 O 0.6125 0.1969 0.8553   -0.534731
 O 0.6109 0.054 0.9114   -0.520989
 O 0.3875 0.5844 0.3553   -0.533415
 O 0.3891 0.4431 0.4114   -0.520821
 O 0.1969 0.6125 0.3553   -0.5319
 O 0.054 0.6109 0.4114   -0.532778
 O 0.4156 0.8031 0.3553   -0.534732
 O 0.5569 0.946 0.4114   -0.520989
 O 0.6125 0.4156 0.3553   -0.533415
 O 0.6109 0.5569 0.4114   -0.52082
 O 0.8031 0.3875 0.3553   -0.5319
 O 0.946 0.3891 0.4114   -0.532778
 O 0.5844 0.1969 0.3553   -0.534732
 O 0.4431 0.054 0.4114   -0.520989
 O 0.8031 0.4156 0.1447   -0.533415
 O 0.946 0.5569 0.0886   -0.520821
 O 0.5844 0.3875 0.1447   -0.5319
 O 0.4431 0.3891 0.0886   -0.532779
 O 0.6125 0.1969 0.1447   -0.534731
 O 0.6109 0.054 0.0886   -0.520989
 O 0.1969 0.5844 0.1447   -0.533415
 O 0.054 0.4431 0.0886   -0.52082
 O 0.4156 0.6125 0.1447   -0.5319
 O 0.5569 0.6109 0.0886   -0.532779
 O 0.3875 0.8031 0.1447   -0.534731
 O 0.3891 0.946 0.0886   -0.520989
 O 0.7628 0.5256 0.75   -0.009201
 O 0.7628 0.2372 0.75   -0.011314
 O 0.4744 0.2372 0.75   -0.011313
 O 0.2372 0.4744 0.75   -0.009201
 O 0.2372 0.7628 0.75   -0.011313
 O 0.5256 0.7628 0.75   -0.011313
 O 0.2372 0.4744 0.25   -0.0092
 O 0.2372 0.7628 0.25   -0.011313
 O 0.5256 0.7628 0.25   -0.011313
 O 0.7628 0.5256 0.25   -0.0092
 O 0.7628 0.2372 0.25   -0.011313
 O 0.4744 0.2372 0.25   -0.011313
