{'_ref': 'TBD', '_srcid': 'CAKYAQ_clean', 'submitters': [{'name': 'Dalar Nazarian Jeff Camp and David Sholl', 'email': 'dalar@gatech.edu jcamp6@gatech.edu'}], '_method': 'VASP DFT with PBE;DDEC'}
data_NdH3(C3O2)3
_symmetry_space_group_name_H-M   'P 1'
_cell_length_a   10.38000026
_cell_length_b   10.75200000
_cell_length_c   16.02500000
_cell_angle_alpha   90.00000000
_cell_angle_beta   106.41899812
_cell_angle_gamma   90.00000000
_symmetry_Int_Tables_number   1
_chemical_formula_structural   NdH3(C3O2)3
_chemical_formula_sum   'Nd4 H12 C36 O24'
_cell_volume   1715.54858147
_cell_formula_units_Z   4
loop_
 _symmetry_equiv_pos_site_id
 _symmetry_equiv_pos_as_xyz
  1  'x, y, z'
loop_
 _atom_site_label
 _atom_site_fract_x
 _atom_site_fract_y
 _atom_site_fract_z
 _atom_site_charge
 Nd 0.63446 0.87069 0.97227   2.254892
 Nd 0.86554 0.37069 0.52773   2.254892
 Nd 0.36554 0.12931 0.02773   2.254892
 Nd 0.13446 0.62931 0.47227   2.254892
 H 0.0916 0.9013 0.9281   0.10901
 H 0.2228 0.7265 0.746   0.097254
 H 0.8421 0.6877 0.7506   0.113997
 H 0.4084 0.4013 0.5719   0.10901
 H 0.2772 0.2265 0.754   0.097254
 H 0.6579 0.1877 0.7494   0.113997
 H 0.9084 0.0987 0.0719   0.10901
 H 0.7772 0.2735 0.254   0.097254
 H 0.1579 0.3123 0.2494   0.113997
 H 0.5916 0.5987 0.4281   0.10901
 H 0.7228 0.7735 0.246   0.097254
 H 0.3421 0.8123 0.2506   0.113997
 C 0.8338 0.8361 0.8809   0.674524
 C 0.9486 0.8017 0.8438   -0.143179
 C 0.076 0.8483 0.8805   0.022834
 C 0.1821 0.8163 0.8465   -0.197295
 C 0.1545 0.744 0.7714   0.022372
 C 0.0262 0.6976 0.7339   -0.172579
 C 0.9263 0.7236 0.7728   0.023345
 C 0.3236 0.8564 0.891   0.802069
 C 0.9957 0.6278 0.6483   0.821923
 C 0.6662 0.3361 0.6191   0.674524
 C 0.5514 0.3017 0.6562   -0.143179
 C 0.424 0.3483 0.6195   0.022834
 C 0.3179 0.3163 0.6535   -0.197295
 C 0.3455 0.244 0.7286   0.022372
 C 0.4738 0.1976 0.7661   -0.172579
 C 0.5737 0.2236 0.7272   0.023345
 C 0.1764 0.3564 0.609   0.802069
 C 0.5043 0.1278 0.8517   0.821923
 C 0.1662 0.1639 0.1191   0.674524
 C 0.0514 0.1983 0.1562   -0.143179
 C 0.924 0.1517 0.1195   0.022834
 C 0.8179 0.1837 0.1535   -0.197295
 C 0.8455 0.256 0.2286   0.022372
 C 0.9738 0.3024 0.2661   -0.172579
 C 0.0737 0.2764 0.2272   0.023345
 C 0.6764 0.1436 0.109   0.802069
 C 0.0043 0.3722 0.3517   0.821923
 C 0.3338 0.6639 0.3809   0.674524
 C 0.4486 0.6983 0.3438   -0.143179
 C 0.576 0.6517 0.3805   0.022834
 C 0.6821 0.6837 0.3465   -0.197295
 C 0.6545 0.756 0.2714   0.022372
 C 0.5262 0.8024 0.2339   -0.172579
 C 0.4263 0.7764 0.2728   0.023345
 C 0.8236 0.6436 0.391   0.802069
 C 0.4957 0.8722 0.1483   0.821923
 O 0.8554 0.9124 0.9429   -0.697738
 O 0.7216 0.7861 0.8492   -0.690669
 O 0.343 0.9414 0.9468   -0.844431
 O 0.4178 0.8019 0.8721   -0.694968
 O 0.9199 0.535 0.6381   -0.679366
 O 0.0472 0.6729 0.593   -0.821995
 O 0.6446 0.4124 0.5571   -0.697738
 O 0.7784 0.2861 0.6508   -0.690669
 O 0.157 0.4414 0.5532   -0.844431
 O 0.0822 0.3019 0.6279   -0.694968
 O 0.5801 0.035 0.8619   -0.679366
 O 0.4528 0.1729 0.907   -0.821995
 O 0.1446 0.0876 0.0571   -0.697738
 O 0.2784 0.2139 0.1508   -0.690669
 O 0.657 0.0586 0.0532   -0.844431
 O 0.5822 0.1981 0.1279   -0.694968
 O 0.0801 0.465 0.3619   -0.679366
 O 0.9528 0.3271 0.407   -0.821995
 O 0.3554 0.5876 0.4429   -0.697738
 O 0.2216 0.7139 0.3492   -0.690669
 O 0.843 0.5586 0.4468   -0.844431
 O 0.9178 0.6981 0.3721   -0.694968
 O 0.4199 0.965 0.1381   -0.679366
 O 0.5472 0.8271 0.093   -0.821995
