{'_ref': 'TBD', '_srcid': 'CAKYAQ_clean', 'submitters': [{'name': 'Dalar Nazarian Jeff Camp and David Sholl', 'email': 'dalar@gatech.edu jcamp6@gatech.edu'}], '_method': 'VASP DFT with PBE;DDEC'}
data_ZnH22C32N4O5
_symmetry_space_group_name_H-M   'P 1'
_cell_length_a   12.45300000
_cell_length_b   18.16700000
_cell_length_c   26.66800000
_cell_angle_alpha   90.00000000
_cell_angle_beta   90.00000000
_cell_angle_gamma   90.00000000
_symmetry_Int_Tables_number   1
_chemical_formula_structural   ZnH22C32N4O5
_chemical_formula_sum   'Zn8 H176 C256 N32 O40'
_cell_volume   6033.19900487
_cell_formula_units_Z   8
loop_
 _symmetry_equiv_pos_site_id
 _symmetry_equiv_pos_as_xyz
  1  'x, y, z'
loop_
 _atom_site_label
 _atom_site_fract_x
 _atom_site_fract_y
 _atom_site_fract_z
 _atom_site_charge
 Zn 0.41939 0.54009 0.2696   0.887427
 Zn 0.41939 0.45991 0.7304   0.887427
 Zn 0.58061 0.95991 0.7696   0.887427
 Zn 0.58061 0.04009 0.2304   0.887427
 Zn 0.11658 0.25649 0.53572   0.876591
 Zn 0.11658 0.74351 0.46428   0.876591
 Zn 0.88342 0.24351 0.03572   0.876591
 Zn 0.88342 0.75649 0.96428   0.876591
 H 0.9391 0.3102 0.4512   0.109319
 H 0.9391 0.6898 0.5488   0.109319
 H 0.0609 0.1898 0.9512   0.109319
 H 0.0609 0.8102 0.0488   0.109319
 H 0.8605 0.2251 0.3885   0.140999
 H 0.8605 0.7749 0.6115   0.140999
 H 0.1395 0.2749 0.8885   0.140999
 H 0.1395 0.7251 0.1115   0.140999
 H 0.0536 0.114 0.4808   0.100492
 H 0.0536 0.886 0.5192   0.100492
 H 0.9464 0.386 0.9808   0.100492
 H 0.9464 0.614 0.0192   0.100492
 H 0.8622 0.1138 0.3387   0.110114
 H 0.8622 0.8862 0.6613   0.110114
 H 0.1378 0.3862 0.8387   0.110114
 H 0.1378 0.6138 0.1613   0.110114
 H 0.8189 0.0002 0.3057   0.102491
 H 0.8189 0.9998 0.6943   0.102491
 H 0.1811 0.4998 0.8057   0.102491
 H 0.1811 0.5002 0.1943   0.102491
 H 0.9419 0.9014 0.4253   0.090683
 H 0.9419 0.0986 0.5747   0.090683
 H 0.0581 0.5986 0.9253   0.090683
 H 0.0581 0.4014 0.0747   0.090683
 H 0.9908 0.014 0.4566   0.104099
 H 0.9908 0.986 0.5434   0.104099
 H 0.0092 0.486 0.9566   0.104099
 H 0.0092 0.514 0.0434   0.104099
 H 0.7382 0.8999 0.289   0.105759
 H 0.7382 0.1001 0.711   0.105759
 H 0.2618 0.6001 0.789   0.105759
 H 0.2618 0.3999 0.211   0.105759
 H 0.6587 0.7854 0.2726   0.101411
 H 0.6587 0.2146 0.7274   0.101411
 H 0.3413 0.7146 0.7726   0.101411
 H 0.3413 0.2854 0.2274   0.101411
 H 0.8461 0.691 0.374   0.114923
 H 0.8461 0.309 0.626   0.114923
 H 0.1539 0.809 0.874   0.114923
 H 0.1539 0.191 0.126   0.114923
 H 0.9182 0.8034 0.393   0.098967
 H 0.9182 0.1966 0.607   0.098967
 H 0.0818 0.6966 0.893   0.098967
 H 0.0818 0.3034 0.107   0.098967
 H 0.543 0.6911 0.2863   0.094308
 H 0.543 0.3089 0.7137   0.094308
 H 0.457 0.8089 0.7863   0.094308
 H 0.457 0.1911 0.2137   0.094308
 H 0.6429 0.4906 0.3205   0.111905
 H 0.6429 0.5094 0.6795   0.111905
 H 0.3571 0.0094 0.8205   0.111905
 H 0.3571 0.9906 0.1795   0.111905
 H 0.7857 0.5771 0.3452   0.124267
 H 0.7857 0.4229 0.6548   0.124267
 H 0.2143 0.9229 0.8452   0.124267
 H 0.2143 0.0771 0.1548   0.124267
 H 0.192 0.3806 0.3308   0.090917
 H 0.192 0.6194 0.6692   0.090917
 H 0.808 0.1194 0.8308   0.090917
 H 0.808 0.8806 0.1692   0.090917
 H 0.0961 0.2704 0.336   0.11161
 H 0.0961 0.7296 0.664   0.11161
 H 0.9039 0.2296 0.836   0.11161
 H 0.9039 0.7704 0.164   0.11161
 H 0.371 0.1541 0.3266   0.135902
 H 0.371 0.8459 0.6734   0.135902
 H 0.629 0.3459 0.8266   0.135902
 H 0.629 0.6541 0.1734   0.135902
 H 0.4687 0.2644 0.3274   0.094358
 H 0.4687 0.7356 0.6726   0.094358
 H 0.5313 0.2356 0.8274   0.094358
 H 0.5313 0.7644 0.1726   0.094358
 H 0.1296 0.0098 0.2948   0.122131
 H 0.1296 0.9902 0.7052   0.122131
 H 0.8704 0.4902 0.7948   0.122131
 H 0.8704 0.5098 0.2052   0.122131
 H 0.1436 0.9011 0.3399   0.093175
 H 0.1436 0.0989 0.6601   0.093175
 H 0.8564 0.5989 0.8399   0.093175
 H 0.8564 0.4011 0.1601   0.093175
 H 0.2673 0.0122 0.4573   0.090445
 H 0.2673 0.9878 0.5427   0.090446
 H 0.7327 0.4878 0.9573   0.090445
 H 0.7327 0.5122 0.0427   0.090446
 H 0.2583 0.1216 0.4129   0.134683
 H 0.2583 0.8784 0.5871   0.134683
 H 0.7417 0.3784 0.9129   0.134683
 H 0.7417 0.6216 0.0871   0.134683
 H 0.9549 0.1205 0.1669   0.091503
 H 0.9549 0.8795 0.8331   0.091503
 H 0.0451 0.3795 0.6669   0.091503
 H 0.0451 0.6205 0.3331   0.091503
 H 0.9726 0.0326 0.2304   0.135531
 H 0.9726 0.9674 0.7696   0.135531
 H 0.0274 0.4674 0.7304   0.135531
 H 0.0274 0.5326 0.2696   0.135531
 H 0.0791 0.8861 0.1271   0.124457
 H 0.0791 0.1139 0.8729   0.124457
 H 0.9209 0.6139 0.6271   0.124457
 H 0.9209 0.3861 0.3729   0.124457
 H 0.0499 0.9738 0.0642   0.104906
 H 0.0499 0.0262 0.9358   0.104906
 H 0.9501 0.5262 0.5642   0.104906
 H 0.9501 0.4738 0.4358   0.104906
 H 0.2284 0.8977 0.1937   0.131405
 H 0.2284 0.1023 0.8063   0.131405
 H 0.7716 0.6023 0.6937   0.131405
 H 0.7716 0.3977 0.3063   0.131405
 H 0.3475 0.7999 0.1973   0.096235
 H 0.3475 0.2001 0.8027   0.096235
 H 0.6525 0.7001 0.6973   0.096235
 H 0.6525 0.2999 0.3027   0.096235
 H 0.1208 0.6738 0.2605   0.094448
 H 0.1208 0.3262 0.7395   0.094448
 H 0.8792 0.8262 0.7605   0.094448
 H 0.8792 0.1738 0.2395   0.094448
 H 0.9976 0.7712 0.2568   0.14098
 H 0.9976 0.2288 0.7432   0.14098
 H 0.0024 0.7288 0.7568   0.14098
 H 0.0024 0.2712 0.2432   0.14098
 H 0.6429 0.7281 0.0127   0.120986
 H 0.6429 0.2719 0.9873   0.120986
 H 0.3571 0.7719 0.5127   0.120986
 H 0.3571 0.2281 0.4873   0.120986
 H 0.5443 0.8261 0.0565   0.146565
 H 0.5443 0.1739 0.9435   0.146565
 H 0.4557 0.6739 0.5565   0.146565
 H 0.4557 0.3261 0.4435   0.146565
 H 0.8296 0.9058 0.0142   0.105631
 H 0.8296 0.0942 0.9858   0.105631
 H 0.1704 0.5942 0.5142   0.105631
 H 0.1704 0.4058 0.4858   0.105631
 H 0.8057 0.9849 0.0858   0.11053
 H 0.8057 0.0151 0.9142   0.11053
 H 0.1943 0.5151 0.5858   0.11053
 H 0.1943 0.4849 0.4142   0.11053
 H 0.7717 0.1059 0.1116   0.099255
 H 0.7717 0.8941 0.8884   0.099255
 H 0.2283 0.3941 0.6116   0.099255
 H 0.2283 0.6059 0.3884   0.099255
 H 0.46 0.0782 0.0743   0.094737
 H 0.46 0.9218 0.9257   0.094737
 H 0.54 0.4218 0.5743   0.094737
 H 0.54 0.5782 0.4257   0.094737
 H 0.4937 0.9599 0.0498   0.120105
 H 0.4937 0.0401 0.9502   0.120105
 H 0.5063 0.5401 0.5498   0.120105
 H 0.5063 0.4599 0.4502   0.120105
 H 0.7174 0.1957 0.1571   0.110067
 H 0.7174 0.8043 0.8429   0.110067
 H 0.2826 0.3043 0.6571   0.110067
 H 0.2826 0.6957 0.3429   0.110067
 H 0.6811 0.3174 0.1814   0.117408
 H 0.6811 0.6826 0.8186   0.117408
 H 0.3189 0.1826 0.6814   0.117408
 H 0.3189 0.8174 0.3186   0.117408
 H 0.4227 0.3192 0.0906   0.120575
 H 0.4227 0.6808 0.9094   0.120575
 H 0.5773 0.1808 0.5906   0.120575
 H 0.5773 0.8192 0.4094   0.120575
 H 0.4599 0.1988 0.0659   0.102555
 H 0.4599 0.8012 0.9341   0.102555
 H 0.5401 0.3012 0.5659   0.102555
 H 0.5401 0.6988 0.4341   0.102555
 H 0.4873 0.4603 0.0907   0.145419
 H 0.4873 0.5397 0.9093   0.145419
 H 0.5127 0.0397 0.5907   0.145419
 H 0.5127 0.9603 0.4093   0.145419
 H 0.4435 0.5615 0.1462   0.113766
 H 0.4435 0.4385 0.8538   0.113766
 H 0.5565 0.9385 0.6462   0.113766
 H 0.5565 0.0615 0.3538   0.113766
 H 0.5236 0.3926 0.2304   0.09707
 H 0.5236 0.6074 0.7696   0.09707
 H 0.4764 0.1074 0.7304   0.09707
 H 0.4764 0.8926 0.2696   0.09707
 C 0.952 0.2588 0.4496   0.045958
 C 0.952 0.7412 0.5504   0.045958
 C 0.048 0.2412 0.9496   0.045958
 C 0.048 0.7588 0.0504   0.045958
 C 0.9086 0.2125 0.4147   -0.163726
 C 0.9086 0.7875 0.5853   -0.163726
 C 0.0914 0.2875 0.9147   -0.163726
 C 0.0914 0.7125 0.0853   -0.163726
 C 0.0138 0.1526 0.4656   0.135394
 C 0.0138 0.8474 0.5344   0.135394
 C 0.9862 0.3474 0.9656   0.135394
 C 0.9862 0.6526 0.0344   0.135394
 C 0.9236 0.0749 0.4017   0.125974
 C 0.9236 0.9251 0.5983   0.125974
 C 0.0764 0.4251 0.9017   0.125974
 C 0.0764 0.5749 0.0983   0.125974
 C 0.8772 0.0704 0.3573   -0.142822
 C 0.8772 0.9296 0.6427   -0.142822
 C 0.1228 0.4296 0.8573   -0.142822
 C 0.1228 0.5704 0.1427   -0.142822
 C 0.8505 0.0022 0.3381   -0.08103
 C 0.8505 0.9978 0.6619   -0.08103
 C 0.1495 0.4978 0.8381   -0.08103
 C 0.1495 0.5022 0.1619   -0.08103
 C 0.8669 0.9381 0.3627   0.026206
 C 0.8669 0.0619 0.6373   0.026206
 C 0.1331 0.5619 0.8627   0.026206
 C 0.1331 0.4381 0.1373   0.026206
 C 0.9229 0.9446 0.4073   -0.067047
 C 0.9229 0.0554 0.5927   -0.067047
 C 0.0771 0.5554 0.9073   -0.067047
 C 0.0771 0.4446 0.0927   -0.067047
 C 0.9513 0.0114 0.4261   -0.169694
 C 0.9513 0.9886 0.5739   -0.169695
 C 0.0487 0.4886 0.9261   -0.169694
 C 0.0487 0.5114 0.0739   -0.169695
 C 0.8319 0.8639 0.346   0.024107
 C 0.8319 0.1361 0.654   0.024107
 C 0.1681 0.6361 0.846   0.024107
 C 0.1681 0.3639 0.154   0.024107
 C 0.7582 0.8579 0.3081   -0.078637
 C 0.7582 0.1421 0.6919   -0.078637
 C 0.2418 0.6421 0.8081   -0.078637
 C 0.2418 0.3579 0.1919   -0.078637
 C 0.7124 0.7889 0.2978   -0.170272
 C 0.7124 0.2111 0.7022   -0.170272
 C 0.2876 0.7111 0.7978   -0.170272
 C 0.2876 0.2889 0.2022   -0.170272
 C 0.7422 0.728 0.3223   0.127562
 C 0.7422 0.272 0.6777   0.127562
 C 0.2578 0.772 0.8223   0.127562
 C 0.2578 0.228 0.1777   0.127562
 C 0.8207 0.7337 0.3572   -0.154418
 C 0.8207 0.2663 0.6428   -0.154418
 C 0.1793 0.7663 0.8572   -0.154418
 C 0.1793 0.2337 0.1428   -0.154418
 C 0.8634 0.8009 0.3683   -0.064401
 C 0.8634 0.1991 0.6317   -0.064401
 C 0.1366 0.6991 0.8683   -0.064401
 C 0.1366 0.3009 0.1317   -0.064401
 C 0.5866 0.6512 0.2971   0.165242
 C 0.5866 0.3488 0.7029   0.165242
 C 0.4134 0.8488 0.7971   0.165242
 C 0.4134 0.1512 0.2029   0.165242
 C 0.6408 0.5425 0.3167   0.041378
 C 0.6408 0.4575 0.6833   0.041378
 C 0.3592 0.9575 0.8167   0.041378
 C 0.3592 0.0425 0.1833   0.041378
 C 0.72 0.5894 0.3291   -0.143611
 C 0.72 0.4106 0.6709   -0.143611
 C 0.28 0.9106 0.8291   -0.143611
 C 0.28 0.0894 0.1709   -0.143611
 C 0.4038 0.4022 0.318   0.637022
 C 0.4038 0.5978 0.682   0.637022
 C 0.5962 0.0978 0.818   0.637022
 C 0.5962 0.9022 0.182   0.637022
 C 0.3398 0.3326 0.3276   -0.197404
 C 0.3398 0.6674 0.6724   -0.197404
 C 0.6602 0.1674 0.8276   -0.197404
 C 0.6602 0.8326 0.1724   -0.197404
 C 0.2287 0.3348 0.3304   0.00697
 C 0.2287 0.6652 0.6696   0.00697
 C 0.7713 0.1652 0.8304   0.00697
 C 0.7713 0.8348 0.1696   0.00697
 C 0.1719 0.2697 0.3324   -0.231554
 C 0.1719 0.7303 0.6676   -0.231554
 C 0.8281 0.2303 0.8324   -0.231554
 C 0.8281 0.7697 0.1676   -0.231554
 C 0.2259 0.2032 0.3293   0.289238
 C 0.2259 0.7968 0.6707   0.289238
 C 0.7741 0.2968 0.8293   0.289238
 C 0.7741 0.7032 0.1707   0.289238
 C 0.3349 0.2001 0.3277   -0.247834
 C 0.3349 0.7999 0.6723   -0.247834
 C 0.6651 0.2999 0.8277   -0.247834
 C 0.6651 0.7001 0.1723   -0.247834
 C 0.3924 0.2656 0.3275   0.010639
 C 0.3924 0.7344 0.6725   0.010639
 C 0.6076 0.2344 0.8275   0.010639
 C 0.6076 0.7656 0.1725   0.010639
 C 0.1867 0.0769 0.3507   0.281097
 C 0.1867 0.9231 0.6493   0.281097
 C 0.8133 0.4231 0.8507   0.281097
 C 0.8133 0.5769 0.1493   0.281097
 C 0.1563 0.0104 0.3282   -0.237411
 C 0.1563 0.9896 0.6718   -0.237411
 C 0.8437 0.4896 0.8282   -0.237411
 C 0.8437 0.5104 0.1718   -0.237411
 C 0.1655 0.9462 0.3548   0.008004
 C 0.1655 0.0538 0.6452   0.008004
 C 0.8345 0.5538 0.8548   0.008004
 C 0.8345 0.4462 0.1452   0.008004
 C 0.2066 0.946 0.4037   -0.213564
 C 0.2066 0.054 0.5963   -0.213564
 C 0.7934 0.554 0.9037   -0.213564
 C 0.7934 0.446 0.0963   -0.213564
 C 0.2392 0.0119 0.4242   0.016003
 C 0.2392 0.9881 0.5758   0.016003
 C 0.7608 0.4881 0.9242   0.016003
 C 0.7608 0.5119 0.0758   0.016003
 C 0.2324 0.0772 0.3985   -0.26277
 C 0.2324 0.9228 0.6015   -0.26277
 C 0.7676 0.4228 0.8985   -0.26277
 C 0.7676 0.5772 0.1015   -0.26277
 C 0.2031 0.8772 0.4357   0.662189
 C 0.2031 0.1228 0.5643   0.662189
 C 0.7969 0.6228 0.9357   0.662189
 C 0.7969 0.3772 0.0643   0.662189
 C 0.9859 0.1118 0.0683   0.651465
 C 0.9859 0.8882 0.9317   0.651465
 C 0.0141 0.3882 0.5683   0.651465
 C 0.0141 0.6118 0.4317   0.651465
 C 0.0022 0.0558 0.1097   -0.194709
 C 0.0022 0.9442 0.8903   -0.194709
 C 0.9978 0.4442 0.6097   -0.194709
 C 0.9978 0.5558 0.3903   -0.194709
 C 0.9791 0.0724 0.1587   0.010113
 C 0.9791 0.9276 0.8413   0.010113
 C 0.0209 0.4276 0.6587   0.010113
 C 0.0209 0.5724 0.3413   0.010113
 C 0.9902 0.0205 0.1967   -0.233122
 C 0.9902 0.9795 0.8033   -0.233122
 C 0.0098 0.4795 0.6967   -0.233122
 C 0.0098 0.5205 0.3033   -0.233122
 C 0.0276 0.9505 0.1845   0.283339
 C 0.0276 0.0495 0.8155   0.283339
 C 0.9724 0.5495 0.6845   0.283339
 C 0.9724 0.4505 0.3155   0.283339
 C 0.052 0.9334 0.1355   -0.260267
 C 0.052 0.0666 0.8645   -0.260267
 C 0.948 0.5666 0.6355   -0.260267
 C 0.948 0.4334 0.3645   -0.260267
 C 0.0364 0.9863 0.0982   0.010199
 C 0.0364 0.0137 0.9018   0.010199
 C 0.9636 0.5137 0.5982   0.010199
 C 0.9636 0.4863 0.4018   0.010199
 C 0.103 0.8435 0.2232   0.27998
 C 0.103 0.1565 0.7768   0.27998
 C 0.897 0.6565 0.7232   0.27998
 C 0.897 0.3435 0.2768   0.27998
 C 0.2055 0.8517 0.2069   -0.250626
 C 0.2055 0.1483 0.7931   -0.250626
 C 0.7945 0.6483 0.7069   -0.250626
 C 0.7945 0.3517 0.2931   -0.250626
 C 0.2764 0.7938 0.2095   0.010968
 C 0.2764 0.2062 0.7905   0.010968
 C 0.7236 0.7062 0.7095   0.010968
 C 0.7236 0.2938 0.2905   0.010968
 C 0.2455 0.7258 0.2298   -0.197165
 C 0.2455 0.2742 0.7702   -0.197165
 C 0.7545 0.7742 0.7298   -0.197165
 C 0.7545 0.2258 0.2702   -0.197165
 C 0.143 0.7195 0.2466   0.006034
 C 0.143 0.2805 0.7534   0.006034
 C 0.857 0.7805 0.7466   0.006034
 C 0.857 0.2195 0.2534   0.006034
 C 0.0687 0.777 0.2444   -0.233811
 C 0.0687 0.223 0.7556   -0.233811
 C 0.9313 0.723 0.7444   -0.233811
 C 0.9313 0.277 0.2556   -0.233811
 C 0.3255 0.6635 0.234   0.642998
 C 0.3255 0.3365 0.766   0.642998
 C 0.6745 0.8365 0.734   0.642998
 C 0.6745 0.1635 0.266   0.642998
 C 0.6675 0.7769 0.0184   0.037607
 C 0.6675 0.2231 0.9816   0.037607
 C 0.3325 0.7231 0.5184   0.037607
 C 0.3325 0.2769 0.4816   0.037607
 C 0.6143 0.8301 0.0426   -0.136265
 C 0.6143 0.1699 0.9574   -0.136265
 C 0.3857 0.6699 0.5426   -0.136265
 C 0.3857 0.3301 0.4574   -0.136265
 C 0.7704 0.8736 0.0191   0.146574
 C 0.7704 0.1264 0.9809   0.146574
 C 0.2296 0.6264 0.5191   0.146574
 C 0.2296 0.3736 0.4809   0.146574
 C 0.6552 0.9626 0.0636   0.115696
 C 0.6552 0.0374 0.9364   0.115696
 C 0.3448 0.5374 0.5636   0.115696
 C 0.3448 0.4626 0.4364   0.115696
 C 0.7353 0.0047 0.0829   -0.14531
 C 0.7353 0.9953 0.9171   -0.14531
 C 0.2647 0.4953 0.5829   -0.14531
 C 0.2647 0.5047 0.4171   -0.14531
 C 0.7149 0.0767 0.0985   -0.060861
 C 0.7149 0.9233 0.9015   -0.060861
 C 0.2851 0.4233 0.5985   -0.060861
 C 0.2851 0.5767 0.4015   -0.060861
 C 0.6121 0.1061 0.0951   0.010346
 C 0.6121 0.8939 0.9049   0.010346
 C 0.3879 0.3939 0.5951   0.010346
 C 0.3879 0.6061 0.4049   0.010346
 C 0.5312 0.0598 0.0765   -0.080083
 C 0.5312 0.9402 0.9235   -0.080083
 C 0.4688 0.4402 0.5765   -0.080083
 C 0.4688 0.5598 0.4235   -0.080083
 C 0.5507 0.9901 0.0616   -0.148679
 C 0.5507 0.0099 0.9384   -0.148679
 C 0.4493 0.5099 0.5616   -0.148679
 C 0.4493 0.4901 0.4384   -0.148679
 C 0.5908 0.1833 0.1101   0.024154
 C 0.5908 0.8167 0.8899   0.024154
 C 0.4092 0.3167 0.6101   0.024154
 C 0.4092 0.6833 0.3899   0.024154
 C 0.6565 0.2202 0.1437   -0.064687
 C 0.6565 0.7798 0.8563   -0.064687
 C 0.3435 0.2798 0.6437   -0.064687
 C 0.3435 0.7202 0.3563   -0.064687
 C 0.6352 0.2928 0.1584   -0.145385
 C 0.6352 0.7072 0.8416   -0.145385
 C 0.3648 0.2072 0.6584   -0.145385
 C 0.3648 0.7928 0.3416   -0.145385
 C 0.5455 0.3282 0.1386   0.110673
 C 0.5455 0.6718 0.8614   0.110673
 C 0.4545 0.1718 0.6386   0.110673
 C 0.4545 0.8282 0.3614   0.110673
 C 0.4824 0.294 0.1046   -0.156398
 C 0.4824 0.706 0.8954   -0.156398
 C 0.5176 0.206 0.6046   -0.156398
 C 0.5176 0.794 0.3954   -0.156398
 C 0.5046 0.222 0.0901   -0.102115
 C 0.5046 0.778 0.9099   -0.102115
 C 0.4954 0.278 0.5901   -0.102115
 C 0.4954 0.722 0.4099   -0.102115
 C 0.4891 0.459 0.1263   -0.147576
 C 0.4891 0.541 0.8737   -0.147576
 C 0.5109 0.041 0.6263   -0.147576
 C 0.5109 0.959 0.3737   -0.147576
 C 0.4635 0.5134 0.1566   0.036905
 C 0.4635 0.4866 0.8434   0.036905
 C 0.5365 0.9866 0.6566   0.036905
 C 0.5365 0.0134 0.3434   0.036905
 C 0.507 0.4225 0.2023   0.149864
 C 0.507 0.5775 0.7977   0.149864
 C 0.493 0.0775 0.7023   0.149864
 C 0.493 0.9225 0.2977   0.149864
 N 0.0149 0.2217 0.4809   -0.362443
 N 0.0149 0.7783 0.5191   -0.362443
 N 0.9851 0.2783 0.9809   -0.362443
 N 0.9851 0.7217 0.0191   -0.362443
 N 0.9488 0.1442 0.4255   0.058076
 N 0.9488 0.8558 0.5745   0.058076
 N 0.0512 0.3558 0.9255   0.058076
 N 0.0512 0.6442 0.0745   0.058076
 N 0.6878 0.6587 0.3141   0.040161
 N 0.6878 0.3413 0.6859   0.040161
 N 0.3122 0.8413 0.8141   0.040161
 N 0.3122 0.1587 0.1859   0.040161
 N 0.5557 0.5825 0.2974   -0.38817
 N 0.5557 0.4175 0.7026   -0.38817
 N 0.4443 0.9175 0.7974   -0.38817
 N 0.4443 0.0825 0.2026   -0.38817
 N 0.765 0.8059 0.00306   -0.385185
 N 0.765 0.1941 0.99694   -0.385185
 N 0.235 0.6941 0.50306   -0.385185
 N 0.235 0.3059 0.49694   -0.385185
 N 0.6785 0.8911 0.04391   0.045283
 N 0.6785 0.1089 0.95609   0.045283
 N 0.3215 0.6089 0.54391   0.045283
 N 0.3215 0.3911 0.45609   0.045283
 N 0.5183 0.4012 0.15488   0.056816
 N 0.5183 0.5988 0.84512   0.056816
 N 0.4817 0.0988 0.65488   0.056816
 N 0.4817 0.9012 0.34512   0.056816
 N 0.4701 0.4901 0.2054   -0.381629
 N 0.4701 0.5099 0.7946   -0.381629
 N 0.5299 0.0099 0.7054   -0.381629
 N 0.5299 0.9901 0.2946   -0.381629
 O 0.3504 0.4582 0.30398   -0.593736
 O 0.3504 0.5418 0.69602   -0.593736
 O 0.6496 0.0418 0.80398   -0.593736
 O 0.6496 0.9582 0.19602   -0.593736
 O 0.5051 0.3995 0.322   -0.607052
 O 0.5051 0.6005 0.678   -0.607052
 O 0.4949 0.1005 0.822   -0.607052
 O 0.4949 0.8995 0.178   -0.607052
 O 0.1606 0.1409 0.3249   -0.271982
 O 0.1606 0.8591 0.6751   -0.271982
 O 0.8394 0.3591 0.8249   -0.271982
 O 0.8394 0.6409 0.1751   -0.271982
 O 0.1422 0.8254 0.41943   -0.61748
 O 0.1422 0.1746 0.58057   -0.61748
 O 0.8578 0.6746 0.91943   -0.61748
 O 0.8578 0.3254 0.08057   -0.61748
 O 0.2451 0.8773 0.47619   -0.587502
 O 0.2451 0.1227 0.52381   -0.587502
 O 0.7549 0.6227 0.97619   -0.587502
 O 0.7549 0.3773 0.02381   -0.587502
 O 0.9455 0.1732 0.08307   -0.613927
 O 0.9455 0.8268 0.91693   -0.613927
 O 0.0545 0.3268 0.58307   -0.613927
 O 0.0545 0.6732 0.41693   -0.613927
 O 0.0073 0.0972 0.02463   -0.588902
 O 0.0073 0.9028 0.97537   -0.588902
 O 0.9927 0.4028 0.52463   -0.588902
 O 0.9927 0.5972 0.47537   -0.588902
 O 0.0294 0.9011 0.22365   -0.245048
 O 0.0294 0.0989 0.77635   -0.245048
 O 0.9706 0.5989 0.72365   -0.245048
 O 0.9706 0.4011 0.27635   -0.245048
 O 0.2976 0.6077 0.26011   -0.598764
 O 0.2976 0.3923 0.73989   -0.598764
 O 0.7024 0.8923 0.76011   -0.598764
 O 0.7024 0.1077 0.23989   -0.598764
 O 0.412 0.6695 0.213   -0.576273
 O 0.412 0.3305 0.787   -0.576273
 O 0.588 0.8305 0.713   -0.576273
 O 0.588 0.1695 0.287   -0.576273
