{'_ref': 'TBD', '_srcid': 'CAKYAQ_clean', 'submitters': [{'name': 'Dalar Nazarian Jeff Camp and David Sholl', 'email': 'dalar@gatech.edu jcamp6@gatech.edu'}], '_method': 'VASP DFT with PBE;DDEC'}
data_NbFe2(CN)8
_symmetry_space_group_name_H-M   'P 1'
_cell_length_a   10.75498910
_cell_length_b   10.75510000
_cell_length_c   10.75509996
_cell_angle_alpha   104.04099956
_cell_angle_beta   112.25260573
_cell_angle_gamma   112.25260314
_symmetry_Int_Tables_number   1
_chemical_formula_structural   NbFe2(CN)8
_chemical_formula_sum   'Nb2 Fe4 C16 N16'
_cell_volume   951.304951699
_cell_formula_units_Z   2
loop_
 _symmetry_equiv_pos_site_id
 _symmetry_equiv_pos_as_xyz
  1  'x, y, z'
loop_
 _atom_site_label
 _atom_site_fract_x
 _atom_site_fract_y
 _atom_site_fract_z
 _atom_site_charge
 Nb 0.0 0.75036 0.75036   0.401481
 Nb 0.0 0.24964 0.24964   0.401481
 Fe 0.49202 0.80115 0.69087   0.907562
 Fe 0.50798 0.19885 0.30913   0.907564
 Fe 0.88972 0.69087 0.19885   0.985012
 Fe 0.11028 0.30913 0.80115   0.985014
 C 0.7808 0.75699 0.70439   0.092566
 C 0.80001 0.50778 0.60959   0.090324
 C 0.2192 0.92359 0.97619   0.092557
 C 0.19999 0.80958 0.70777   0.09031
 C 0.9474 0.70439 0.92359   0.099713
 C 0.10181 0.60959 0.80958   0.096189
 C 0.0526 0.97619 0.75699   0.099738
 C 0.89819 0.70777 0.50778   0.096158
 C 0.2192 0.24301 0.29561   0.092566
 C 0.19999 0.49222 0.39041   0.090324
 C 0.7808 0.07641 0.02381   0.092556
 C 0.80001 0.19042 0.29223   0.09031
 C 0.0526 0.29561 0.07641   0.099713
 C 0.89819 0.39041 0.19042   0.096189
 C 0.9474 0.02381 0.24301   0.099738
 C 0.10181 0.29223 0.49222   0.096158
 N 0.66807 0.75631 0.68458   -0.365853
 N 0.69393 0.3875 0.52915   -0.375268
 N 0.33193 0.01651 0.08824   -0.365845
 N 0.30607 0.83522 0.69357   -0.375275
 N 0.92827 0.68458 0.01651   -0.388095
 N 0.14165 0.52915 0.83522   -0.396592
 N 0.07173 0.08824 0.75631   -0.388147
 N 0.85835 0.69357 0.3875   -0.396536
 N 0.33193 0.24369 0.31542   -0.365853
 N 0.30607 0.6125 0.47085   -0.375268
 N 0.66807 0.98349 0.91176   -0.365845
 N 0.69393 0.16478 0.30643   -0.375275
 N 0.07173 0.31542 0.98349   -0.388096
 N 0.85835 0.47085 0.16478   -0.396592
 N 0.92827 0.91176 0.24369   -0.388147
 N 0.14165 0.30643 0.6125   -0.396535
