{'_ref': 'TBD', '_srcid': 'CAKYAQ_clean', 'submitters': [{'name': 'Dalar Nazarian Jeff Camp and David Sholl', 'email': 'dalar@gatech.edu jcamp6@gatech.edu'}], '_method': 'VASP DFT with PBE;DDEC'}
data_MnFe(CN)6
_symmetry_space_group_name_H-M   'P 1'
_cell_length_a   8.53100000
_cell_length_b   13.37600000
_cell_length_c   13.63100000
_cell_angle_alpha   90.00000000
_cell_angle_beta   90.00000000
_cell_angle_gamma   90.00000000
_symmetry_Int_Tables_number   1
_chemical_formula_structural   MnFe(CN)6
_chemical_formula_sum   'Mn4 Fe4 C24 N24'
_cell_volume   1555.44235194
_cell_formula_units_Z   4
loop_
 _symmetry_equiv_pos_site_id
 _symmetry_equiv_pos_as_xyz
  1  'x, y, z'
loop_
 _atom_site_label
 _atom_site_fract_x
 _atom_site_fract_y
 _atom_site_fract_z
 _atom_site_charge
 Mn 0.81501 0.75 0.7754   1.327754
 Mn 0.31501 0.25 0.7246   1.327753
 Mn 0.18499 0.25 0.2246   1.327753
 Mn 0.68499 0.75 0.2754   1.327752
 Fe 0.5 0.0 0.0   -0.294443
 Fe 0.0 0.0 0.5   -0.294443
 Fe 0.5 0.5 0.0   -0.294443
 Fe 0.0 0.5 0.5   -0.294443
 C 0.6267 0.91553 0.91546   0.311987
 C 0.6864 0.07543 0.03067   0.173142
 C 0.5509 0.91459 0.11044   0.30828
 C 0.1267 0.08447 0.58454   0.311987
 C 0.1864 0.92457 0.46933   0.173142
 C 0.0509 0.08541 0.38956   0.30828
 C 0.3733 0.41553 0.08454   0.311987
 C 0.3136 0.57543 0.96933   0.173142
 C 0.4491 0.41459 0.88956   0.30828
 C 0.8733 0.58447 0.41546   0.311987
 C 0.8136 0.42457 0.53067   0.173142
 C 0.9491 0.58541 0.61044   0.30828
 C 0.3733 0.08447 0.08454   0.311986
 C 0.3136 0.92457 0.96933   0.173142
 C 0.4491 0.08541 0.88956   0.308279
 C 0.8733 0.91553 0.41546   0.311986
 C 0.8136 0.07543 0.53067   0.173142
 C 0.9491 0.91459 0.61044   0.308279
 C 0.6267 0.58447 0.91546   0.311986
 C 0.6864 0.42457 0.03067   0.173142
 C 0.5509 0.58541 0.11044   0.308279
 C 0.1267 0.41553 0.58454   0.311986
 C 0.1864 0.57543 0.46933   0.173142
 C 0.0509 0.41459 0.38956   0.308279
 N 0.7016 0.86591 0.86551   -0.493174
 N 0.5854 0.86409 0.17437   -0.488545
 N 0.7973 0.11793 0.04923   -0.328343
 N 0.2016 0.13409 0.63449   -0.493174
 N 0.0854 0.13591 0.32563   -0.488546
 N 0.2973 0.88207 0.45077   -0.328343
 N 0.2984 0.36591 0.13449   -0.493174
 N 0.4146 0.36409 0.82563   -0.488546
 N 0.2027 0.61793 0.95077   -0.328343
 N 0.7984 0.63409 0.36551   -0.493174
 N 0.9146 0.63591 0.67437   -0.488546
 N 0.7027 0.38207 0.54923   -0.328343
 N 0.2984 0.13409 0.13449   -0.493174
 N 0.4146 0.13591 0.82563   -0.488545
 N 0.2027 0.88207 0.95077   -0.328343
 N 0.7984 0.86591 0.36551   -0.493174
 N 0.9146 0.86409 0.67437   -0.488545
 N 0.7027 0.11793 0.54923   -0.328343
 N 0.7016 0.63409 0.86551   -0.493174
 N 0.5854 0.63591 0.17437   -0.488545
 N 0.7973 0.38207 0.04923   -0.328343
 N 0.2016 0.36591 0.63449   -0.493174
 N 0.0854 0.36409 0.32563   -0.488545
 N 0.2973 0.61793 0.45077   -0.328343
