{'_ref': 'TBD', '_srcid': 'CAKYAQ_clean', 'submitters': [{'name': 'Dalar Nazarian Jeff Camp and David Sholl', 'email': 'dalar@gatech.edu jcamp6@gatech.edu'}], '_method': 'VASP DFT with PBE;DDEC'}
data_CuH40C34(N2O)4
_symmetry_space_group_name_H-M   'P 1'
_cell_length_a   12.92920000
_cell_length_b   12.92920030
_cell_length_c   20.10390000
_cell_angle_alpha   90.00000000
_cell_angle_beta   90.00000000
_cell_angle_gamma   119.99999923
_symmetry_Int_Tables_number   1
_chemical_formula_structural   CuH40C34(N2O)4
_chemical_formula_sum   'Cu3 H120 C102 N24 O12'
_cell_volume   2910.41062826
_cell_formula_units_Z   3
loop_
 _symmetry_equiv_pos_site_id
 _symmetry_equiv_pos_as_xyz
  1  'x, y, z'
loop_
 _atom_site_label
 _atom_site_fract_x
 _atom_site_fract_y
 _atom_site_fract_z
 _atom_site_charge
 Cu 0.62047 0.0 0.0   0.352064
 Cu 0.37953 0.37953 0.33333   0.352196
 Cu 0.0 0.62047 0.66667   0.352194
 H 0.8714 0.1001 0.9465   0.067756
 H 0.9591 0.088 0.8493   0.111073
 H 0.8466 0.9451 0.7702   0.113219
 H 0.5687 0.8217 0.8944   0.080947
 H 0.5423 0.7375 0.7927   0.315615
 H 0.4725 0.6405 0.6916   0.088824
 H 0.4785 0.5261 0.7805   0.080612
 H 0.5655 0.4981 0.7405   0.093469
 H 0.4063 0.3944 0.6605   0.033513
 H 0.213 0.3306 0.6982   0.111309
 H 0.2855 0.4695 0.6887   0.108001
 H 0.2659 0.4144 0.7602   0.100032
 H 0.3759 0.2966 0.7889   0.100603
 H 0.447 0.2803 0.7306   0.108119
 H 0.3076 0.2197 0.7266   0.111954
 H 0.6384 0.6075 0.6234   0.294795
 H 0.7289 0.6497 0.5325   0.064921
 H 0.7855 0.6057 0.4316   0.115445
 H 0.6422 0.4959 0.3542   0.055884
 H 0.3936 0.4892 0.4669   0.064464
 H 0.2287 0.1286 0.27983   0.067784
 H 0.1289 0.0409 0.18263   0.1111
 H 0.0985 0.1534 0.10353   0.113219
 H 0.253 0.4313 0.22773   0.080988
 H 0.1952 0.4577 0.12603   0.315677
 H 0.168 0.5275 0.02493   0.088851
 H 0.0476 0.5215 0.11383   0.080571
 H 0.9326 0.4345 0.07383   0.093477
 H 0.9881 0.5937 0.99383   0.033602
 H 0.1176 0.787 0.03153   0.11131
 H 0.184 0.7145 0.02203   0.10807
 H 0.1485 0.7341 0.09353   0.100051
 H 0.9207 0.6241 0.12223   0.100621
 H 0.8333 0.553 0.06393   0.108124
 H 0.9121 0.6924 0.05993   0.11197
 H 0.9691 0.3616 0.95673   0.294733
 H 0.9208 0.2711 0.86583   0.064959
 H 0.8202 0.2145 0.76493   0.115435
 H 0.8537 0.3578 0.68753   0.055884
 H 0.0956 0.6064 0.80023   0.064488
 H 0.8999 0.7713 0.61317   0.067774
 H 0.912 0.8711 0.51597   0.111087
 H 0.0549 0.9015 0.43687   0.11316
 H 0.1783 0.747 0.56107   0.080858
 H 0.2625 0.8048 0.45937   0.315608
 H 0.3595 0.832 0.35827   0.088897
 H 0.4739 0.9524 0.44717   0.080557
 H 0.5019 0.0674 0.40717   0.09342
 H 0.6056 0.0119 0.32717   0.033568
 H 0.6694 0.8824 0.36487   0.11137
 H 0.5305 0.816 0.35537   0.107995
 H 0.5856 0.8515 0.42687   0.100125
 H 0.7034 0.0793 0.45557   0.100622
 H 0.7197 0.1667 0.39727   0.108152
 H 0.7803 0.0879 0.39327   0.112004
 H 0.3925 0.0309 0.29007   0.294814
 H 0.3503 0.0792 0.19917   0.064884
 H 0.3943 0.1798 0.09827   0.115549
 H 0.5041 0.1463 0.02087   0.055855
 H 0.5108 0.9044 0.13357   0.064516
 H 0.7713 0.8999 0.0535   0.067756
 H 0.8711 0.912 0.1507   0.111074
 H 0.9015 0.0549 0.2298   0.113221
 H 0.747 0.1783 0.1056   0.080947
 H 0.8048 0.2625 0.2073   0.315614
 H 0.832 0.3595 0.3084   0.088825
 H 0.9524 0.4739 0.2195   0.080612
 H 0.0674 0.5019 0.2595   0.093469
 H 0.0119 0.6056 0.3395   0.033513
 H 0.8824 0.6694 0.3018   0.111311
 H 0.816 0.5305 0.3113   0.108003
 H 0.8515 0.5856 0.2398   0.100033
 H 0.0793 0.7034 0.2111   0.100605
 H 0.1667 0.7197 0.2694   0.10812
 H 0.0879 0.7803 0.2734   0.111954
 H 0.0309 0.3925 0.3766   0.294795
 H 0.0792 0.3503 0.4675   0.064921
 H 0.1798 0.3943 0.5684   0.115445
 H 0.1463 0.5041 0.6458   0.055886
 H 0.9044 0.5108 0.5331   0.064464
 H 0.1001 0.8714 0.72017   0.067784
 H 0.088 0.9591 0.81737   0.111102
 H 0.9451 0.8466 0.89647   0.11322
 H 0.8217 0.5687 0.77227   0.080988
 H 0.7375 0.5423 0.87397   0.315677
 H 0.6405 0.4725 0.97507   0.088852
 H 0.5261 0.4785 0.88617   0.080571
 H 0.4981 0.5655 0.92617   0.093477
 H 0.3944 0.4063 0.00617   0.033601
 H 0.3306 0.213 0.96847   0.111312
 H 0.4695 0.2855 0.97797   0.108072
 H 0.4144 0.2659 0.90647   0.100052
 H 0.2966 0.3759 0.87777   0.100623
 H 0.2803 0.447 0.93607   0.108125
 H 0.2197 0.3076 0.94007   0.11197
 H 0.6075 0.6384 0.04327   0.294734
 H 0.6497 0.7289 0.13417   0.064959
 H 0.6057 0.7855 0.23507   0.115434
 H 0.4959 0.6422 0.31247   0.055886
 H 0.4892 0.3936 0.19977   0.064488
 H 0.1286 0.2287 0.38683   0.067774
 H 0.0409 0.1289 0.48403   0.111088
 H 0.1534 0.0985 0.56313   0.113161
 H 0.4313 0.253 0.43893   0.080858
 H 0.4577 0.1952 0.54063   0.315608
 H 0.5275 0.168 0.64173   0.088898
 H 0.5215 0.0476 0.55283   0.080557
 H 0.4345 0.9326 0.59283   0.09342
 H 0.5937 0.9881 0.67283   0.033568
 H 0.787 0.1176 0.63513   0.111372
 H 0.7145 0.184 0.64463   0.107997
 H 0.7341 0.1485 0.57313   0.100126
 H 0.6241 0.9207 0.54443   0.100624
 H 0.553 0.8333 0.60273   0.108153
 H 0.6924 0.9121 0.60673   0.112004
 H 0.3616 0.9691 0.70993   0.294815
 H 0.2711 0.9208 0.80083   0.064884
 H 0.2145 0.8202 0.90173   0.115549
 H 0.3578 0.8537 0.97913   0.055857
 H 0.6064 0.0956 0.86643   0.064516
 C 0.8258 0.0416 0.91544   0.097601
 C 0.8787 0.0345 0.85704   -0.125595
 C 0.8124 0.9482 0.81029   -0.143358
 C 0.6949 0.8667 0.82412   0.165142
 C 0.6474 0.8778 0.88414   -0.00191
 C 0.646 0.7324 0.72703   0.491748
 C 0.5388 0.6244 0.69501   0.045629
 C 0.4988 0.5122 0.73625   -0.240303
 C 0.3916 0.3991 0.70788   0.135631
 C 0.2789 0.4038 0.7143   -0.360186
 C 0.3794 0.2888 0.7416   -0.365023
 C 0.507 0.5954 0.57425   0.537012
 C 0.5537 0.5727 0.51081   -0.214803
 C 0.6721 0.6079 0.49983   -0.04716
 C 0.7057 0.5807 0.44013   -0.144032
 C 0.6197 0.5164 0.39375   0.10167
 C 0.4732 0.5112 0.46051   0.150452
 C 0.2158 0.1742 0.24877   0.097546
 C 0.1558 0.1213 0.19037   -0.125638
 C 0.1358 0.1876 0.14362   -0.143343
 C 0.1718 0.3051 0.15745   0.16514
 C 0.2304 0.3526 0.21747   -0.001841
 C 0.0864 0.354 0.06036   0.491878
 C 0.0856 0.4612 0.02834   0.045531
 C 0.0134 0.5012 0.06958   -0.240298
 C 0.0075 0.6084 0.04121   0.135605
 C 0.1249 0.7211 0.04763   -0.360315
 C 0.9094 0.6206 0.07493   -0.365063
 C 0.0884 0.493 0.90758   0.5371
 C 0.019 0.4463 0.84414   -0.214656
 C 0.9358 0.3279 0.83316   -0.047269
 C 0.875 0.2943 0.77346   -0.144018
 C 0.8967 0.3803 0.72708   0.101706
 C 0.038 0.5268 0.79384   0.150344
 C 0.9584 0.7842 0.58211   0.097609
 C 0.9655 0.8442 0.52371   -0.125681
 C 0.0518 0.8642 0.47696   -0.143204
 C 0.1333 0.8282 0.49079   0.164958
 C 0.1222 0.7696 0.55081   -0.001811
 C 0.2676 0.9136 0.3937   0.49172
 C 0.3756 0.9144 0.36168   0.045469
 C 0.4878 0.9866 0.40292   -0.24019
 C 0.6009 0.9925 0.37455   0.13559
 C 0.5962 0.8751 0.38097   -0.360346
 C 0.7112 0.0906 0.40827   -0.365129
 C 0.4046 0.9116 0.24092   0.537024
 C 0.4273 0.981 0.17748   -0.214708
 C 0.3921 0.0642 0.1665   -0.047046
 C 0.4193 0.125 0.1068   -0.144268
 C 0.4836 0.1033 0.06042   0.101706
 C 0.4888 0.962 0.12718   0.150247
 C 0.7842 0.9584 0.08456   0.097601
 C 0.8442 0.9655 0.14296   -0.125596
 C 0.8642 0.0518 0.18971   -0.143358
 C 0.8282 0.1333 0.17588   0.165141
 C 0.7696 0.1222 0.11586   -0.001909
 C 0.9136 0.2676 0.27297   0.491748
 C 0.9144 0.3756 0.30499   0.045628
 C 0.9866 0.4878 0.26375   -0.240302
 C 0.9925 0.6009 0.29212   0.135631
 C 0.8751 0.5962 0.2857   -0.360188
 C 0.0906 0.7112 0.2584   -0.365025
 C 0.9116 0.4046 0.42575   0.537012
 C 0.981 0.4273 0.48919   -0.214803
 C 0.0642 0.3921 0.50017   -0.047159
 C 0.125 0.4193 0.55987   -0.144032
 C 0.1033 0.4836 0.60625   0.10167
 C 0.962 0.4888 0.53949   0.150452
 C 0.0416 0.8258 0.75123   0.097546
 C 0.0345 0.8787 0.80963   -0.125638
 C 0.9482 0.8124 0.85638   -0.143344
 C 0.8667 0.6949 0.84255   0.16514
 C 0.8778 0.6474 0.78253   -0.001842
 C 0.7324 0.646 0.93964   0.491878
 C 0.6244 0.5388 0.97166   0.04553
 C 0.5122 0.4988 0.93042   -0.240298
 C 0.3991 0.3916 0.95879   0.135606
 C 0.4038 0.2789 0.95237   -0.360317
 C 0.2888 0.3794 0.92507   -0.365065
 C 0.5954 0.507 0.09242   0.5371
 C 0.5727 0.5537 0.15586   -0.214656
 C 0.6079 0.6721 0.16684   -0.047269
 C 0.5807 0.7057 0.22654   -0.144017
 C 0.5164 0.6197 0.27292   0.101705
 C 0.5112 0.4732 0.20616   0.150344
 C 0.1742 0.2158 0.41789   0.097609
 C 0.1213 0.1558 0.47629   -0.125681
 C 0.1876 0.1358 0.52304   -0.143204
 C 0.3051 0.1718 0.50921   0.164958
 C 0.3526 0.2304 0.44919   -0.001811
 C 0.354 0.0864 0.6063   0.491719
 C 0.4612 0.0856 0.63832   0.045468
 C 0.5012 0.0134 0.59708   -0.24019
 C 0.6084 0.0075 0.62545   0.135591
 C 0.7211 0.1249 0.61903   -0.360348
 C 0.6206 0.9094 0.59173   -0.36513
 C 0.493 0.0884 0.75908   0.537024
 C 0.4463 0.019 0.82252   -0.214709
 C 0.3279 0.9358 0.8335   -0.047047
 C 0.2943 0.875 0.8932   -0.144268
 C 0.3803 0.8967 0.93958   0.101705
 C 0.5268 0.038 0.87282   0.150247
 N 0.7104 0.966 0.92799   -0.273288
 N 0.6168 0.7731 0.78228   -0.425568
 N 0.5728 0.6085 0.62824   -0.440243
 N 0.5042 0.4818 0.40315   -0.303677
 N 0.2556 0.2896 0.26132   -0.273331
 N 0.1563 0.3832 0.11561   -0.425714
 N 0.0357 0.4272 0.96157   -0.440165
 N 0.9776 0.4958 0.73648   -0.303682
 N 0.034 0.7444 0.59466   -0.273221
 N 0.2269 0.8437 0.44895   -0.425448
 N 0.3915 0.9643 0.29491   -0.440242
 N 0.5182 0.0224 0.06982   -0.303519
 N 0.7444 0.034 0.07201   -0.273289
 N 0.8437 0.2269 0.21772   -0.425567
 N 0.9643 0.3915 0.37176   -0.440243
 N 0.0224 0.5182 0.59685   -0.303677
 N 0.966 0.7104 0.73868   -0.27333
 N 0.7731 0.6168 0.88439   -0.425714
 N 0.6085 0.5728 0.03843   -0.440165
 N 0.4818 0.5042 0.26352   -0.303682
 N 0.2896 0.2556 0.40534   -0.273221
 N 0.3832 0.1563 0.55105   -0.425449
 N 0.4272 0.0357 0.70509   -0.440242
 N 0.4958 0.9776 0.93018   -0.303519
 O 0.7462 0.7741 0.70578   -0.475961
 O 0.4149 0.6003 0.57535   -0.560436
 O 0.0279 0.2538 0.03911   -0.47601
 O 0.1854 0.5851 0.90868   -0.560493
 O 0.2259 0.9721 0.37245   -0.475962
 O 0.3997 0.8146 0.24202   -0.560426
 O 0.9721 0.2259 0.29422   -0.475961
 O 0.8146 0.3997 0.42465   -0.560436
 O 0.7741 0.7462 0.96089   -0.47601
 O 0.6003 0.4149 0.09132   -0.560493
 O 0.2538 0.0279 0.62755   -0.475962
 O 0.5851 0.1854 0.75798   -0.560426
