{'_ref': 'TBD', '_srcid': 'CAKYAQ_clean', 'submitters': [{'name': 'Dalar Nazarian Jeff Camp and David Sholl', 'email': 'dalar@gatech.edu jcamp6@gatech.edu'}], '_method': 'VASP DFT with PBE;DDEC'}
data_Cu2H12C16S(N2O)4
_symmetry_space_group_name_H-M   'P 1'
_cell_length_a   8.86800000
_cell_length_b   9.84799985
_cell_length_c   13.75200000
_cell_angle_alpha   90.00000000
_cell_angle_beta   90.00000000
_cell_angle_gamma   116.35000153
_symmetry_Int_Tables_number   1
_chemical_formula_structural   Cu2H12C16S(N2O)4
_chemical_formula_sum   'Cu4 H24 C32 S2 N16 O8'
_cell_volume   1076.20691927
_cell_formula_units_Z   2
loop_
 _symmetry_equiv_pos_site_id
 _symmetry_equiv_pos_as_xyz
  1  'x, y, z'
loop_
 _atom_site_label
 _atom_site_fract_x
 _atom_site_fract_y
 _atom_site_fract_z
 _atom_site_charge
 Cu 0.91802 0.47113 0.64837   0.122183
 Cu 0.0 0.0 0.84897   0.817164
 Cu 0.41802 0.97113 0.35163   0.122185
 Cu 0.5 0.5 0.15103   0.817164
 H 0.3266 0.9871 0.9139   0.080911
 H 0.439 0.8137 0.8919   0.151449
 H 0.2885 0.5977 0.7987   0.09522
 H 0.6523 0.8917 0.7276   0.07001
 H 0.492 0.6829 0.6296   0.130525
 H 0.5872 0.4949 0.6077   0.062992
 H 0.7286 0.0462 0.9648   0.11352
 H 0.5853 0.2001 0.955   0.158049
 H 0.672 0.3852 0.8119   0.094695
 H 0.2768 0.1199 0.6378   0.069753
 H 0.3425 0.3085 0.519   0.133493
 H 0.1702 0.4561 0.5258   0.073671
 H 0.8266 0.4871 0.0861   0.080911
 H 0.939 0.3137 0.1081   0.151449
 H 0.7885 0.0977 0.2013   0.09522
 H 0.1523 0.3917 0.2724   0.07001
 H 0.992 0.1829 0.3704   0.130525
 H 0.0872 0.9949 0.3923   0.062992
 H 0.2286 0.5462 0.0352   0.11352
 H 0.0853 0.7001 0.045   0.158049
 H 0.172 0.8852 0.1881   0.094695
 H 0.7768 0.6199 0.3622   0.069753
 H 0.8425 0.8085 0.481   0.133493
 H 0.6702 0.9561 0.4742   0.073671
 C 0.0443 0.7484 0.7822   0.307414
 C 0.6684 0.209 0.9074   -0.235645
 C 0.8826 0.7255 0.7387   0.320699
 C 0.7081 0.3108 0.8316   0.221817
 C 0.6519 0.5838 0.6456   0.172735
 C 0.2448 0.6701 0.8081   0.208889
 C 0.8981 0.2299 0.7742   0.268887
 C 0.0253 0.248 0.6996   0.304313
 C 0.6898 0.8153 0.7163   0.232201
 C 0.2184 0.1819 0.6371   0.208194
 C 0.7519 0.1166 0.912   0.210345
 C 0.2566 0.2925 0.5663   -0.288051
 C 0.5948 0.6937 0.6592   -0.265306
 C 0.1699 0.3757 0.5654   0.165464
 C 0.334 0.7971 0.8625   -0.255369
 C 0.2676 0.8978 0.8752   0.228116
 C 0.5443 0.2484 0.2178   0.307414
 C 0.1684 0.709 0.0926   -0.235646
 C 0.3826 0.2255 0.2613   0.320699
 C 0.2081 0.8108 0.1684   0.221817
 C 0.1519 0.0838 0.3544   0.172734
 C 0.7448 0.1701 0.1919   0.208889
 C 0.3981 0.7299 0.2258   0.268887
 C 0.5253 0.748 0.3004   0.304313
 C 0.1898 0.3153 0.2837   0.232202
 C 0.7184 0.6819 0.3629   0.208194
 C 0.2519 0.6166 0.088   0.210345
 C 0.7566 0.7925 0.4337   -0.288054
 C 0.0948 0.1937 0.3408   -0.265308
 C 0.6699 0.8757 0.4346   0.165464
 C 0.834 0.2971 0.1375   -0.255369
 C 0.7676 0.3978 0.1248   0.228115
 S 0.228 0.2015 0.0208   1.632963
 S 0.728 0.7015 0.9792   1.632963
 N 0.1213 0.8753 0.8335   -0.349244
 N 0.0976 0.6439 0.7668   -0.325935
 N 0.8339 0.8316 0.7569   -0.392288
 N 0.7986 0.6031 0.6844   -0.266881
 N 0.8661 0.127 0.8444   -0.336332
 N 0.8231 0.3204 0.7651   -0.313059
 N 0.0997 0.1571 0.7035   -0.375494
 N 0.0538 0.3553 0.6332   -0.295305
 N 0.6213 0.3753 0.1665   -0.349244
 N 0.5976 0.1439 0.2332   -0.325935
 N 0.3339 0.3316 0.2431   -0.392288
 N 0.2986 0.1031 0.3156   -0.266881
 N 0.3661 0.627 0.1556   -0.336332
 N 0.3231 0.8204 0.2349   -0.313059
 N 0.5997 0.6571 0.2965   -0.375494
 N 0.5538 0.8553 0.3668   -0.295305
 O 0.1872 0.1644 0.9148   -0.741483
 O 0.3459 0.362 0.0237   -0.735361
 O 0.3054 0.1086 0.0584   -0.73905
 O 0.0743 0.1728 0.0725   -0.740862
 O 0.6872 0.6644 0.0852   -0.741483
 O 0.8459 0.862 0.9763   -0.735362
 O 0.8054 0.6086 0.9416   -0.73905
 O 0.5743 0.6728 0.9275   -0.740863
