{'_ref': 'TBD', '_srcid': 'CAKYAQ_clean', 'submitters': [{'name': 'Dalar Nazarian Jeff Camp and David Sholl', 'email': 'dalar@gatech.edu jcamp6@gatech.edu'}], '_method': 'VASP DFT with PBE;DDEC'}
data_GdH9C18(NO2)3
_symmetry_space_group_name_H-M   'P 1'
_cell_length_a   15.18750000
_cell_length_b   17.03780000
_cell_length_c   25.64869961
_cell_angle_alpha   97.91000028
_cell_angle_beta   90.00000000
_cell_angle_gamma   90.00000000
_symmetry_Int_Tables_number   1
_chemical_formula_structural   GdH9C18(NO2)3
_chemical_formula_sum   'Gd8 H72 C144 N24 O48'
_cell_volume   6573.75118654
_cell_formula_units_Z   8
loop_
 _symmetry_equiv_pos_site_id
 _symmetry_equiv_pos_as_xyz
  1  'x, y, z'
loop_
 _atom_site_label
 _atom_site_fract_x
 _atom_site_fract_y
 _atom_site_fract_z
 _atom_site_charge
 Gd 0.67076 0.31498 0.75029   2.230823
 Gd 0.20429 0.46322 0.25038   2.233501
 Gd 0.17076 0.18502 0.24971   2.230822
 Gd 0.70429 0.03678 0.74962   2.2335
 Gd 0.32924 0.68502 0.24971   2.230823
 Gd 0.79571 0.53678 0.74962   2.233501
 Gd 0.82924 0.81498 0.75029   2.230822
 Gd 0.29571 0.96322 0.25038   2.2335
 H 0.5012 0.383 0.6158   0.086838
 H 0.6598 0.5712 0.6131   0.107882
 H 0.6034 0.5893 0.5315   0.119607
 H 0.5645 0.3915 0.8671   0.06117
 H 0.6389 0.6171 0.9118   0.102306
 H 0.5665 0.6168 0.9914   0.110956
 H 0.9153 0.4549 0.6395   0.065401
 H 0.8426 0.2287 0.5952   0.103148
 H 0.9301 0.2239 0.5206   0.115584
 H 0.1453 0.4502 0.4274   0.083573
 H 0.0396 0.2393 0.371   0.089769
 H 0.9746 0.2325 0.4521   0.115525
 H 0.0335 0.2098 0.0936   0.071809
 H 0.1422 0.4264 0.1042   0.101298
 H 0.0875 0.4404 0.0215   0.12051
 H 0.9767 0.4656 0.8756   0.085349
 H 0.8356 0.2665 0.8774   0.105541
 H 0.9079 0.2431 0.9534   0.119539
 H 0.0012 0.117 0.3842   0.086838
 H 0.1598 0.9288 0.3869   0.107882
 H 0.1034 0.9107 0.4685   0.119607
 H 0.0645 0.1085 0.1329   0.06117
 H 0.1389 0.8829 0.0882   0.102306
 H 0.0665 0.8832 0.0086   0.110956
 H 0.4153 0.0451 0.3605   0.065401
 H 0.3426 0.2713 0.4048   0.103148
 H 0.4301 0.2761 0.4794   0.115584
 H 0.6453 0.0498 0.5726   0.083573
 H 0.5396 0.2607 0.629   0.089768
 H 0.4746 0.2675 0.5479   0.115525
 H 0.5335 0.2902 0.9064   0.071809
 H 0.6422 0.0736 0.8958   0.101298
 H 0.5875 0.0596 0.9785   0.12051
 H 0.4767 0.0344 0.1244   0.085349
 H 0.3356 0.2335 0.1226   0.105541
 H 0.4079 0.2569 0.0466   0.119539
 H 0.4988 0.617 0.3842   0.086838
 H 0.3402 0.4288 0.3869   0.107882
 H 0.3966 0.4107 0.4685   0.119607
 H 0.4355 0.6085 0.1329   0.06117
 H 0.3611 0.3829 0.0882   0.102306
 H 0.4335 0.3832 0.0086   0.110956
 H 0.0847 0.5451 0.3605   0.065401
 H 0.1574 0.7713 0.4048   0.103148
 H 0.0699 0.7761 0.4794   0.115584
 H 0.8547 0.5498 0.5726   0.083573
 H 0.9604 0.7607 0.629   0.089769
 H 0.0254 0.7675 0.5479   0.115525
 H 0.9665 0.7902 0.9064   0.071809
 H 0.8578 0.5736 0.8958   0.101298
 H 0.9125 0.5596 0.9785   0.12051
 H 0.0233 0.5344 0.1244   0.085349
 H 0.1644 0.7335 0.1226   0.105541
 H 0.0921 0.7569 0.0466   0.119539
 H 0.9988 0.883 0.6158   0.086838
 H 0.8402 0.0712 0.6131   0.107882
 H 0.8966 0.0893 0.5315   0.119607
 H 0.9355 0.8915 0.8671   0.061169
 H 0.8611 0.1171 0.9118   0.102306
 H 0.9335 0.1168 0.9914   0.110956
 H 0.5847 0.9549 0.6395   0.065401
 H 0.6574 0.7287 0.5952   0.103148
 H 0.5699 0.7239 0.5206   0.115584
 H 0.3547 0.9502 0.4274   0.083573
 H 0.4604 0.7393 0.371   0.089768
 H 0.5254 0.7325 0.4521   0.115525
 H 0.4665 0.7098 0.0936   0.071809
 H 0.3578 0.9264 0.1042   0.101298
 H 0.4125 0.9404 0.0215   0.12051
 H 0.5233 0.9656 0.8756   0.085349
 H 0.6644 0.7665 0.8774   0.105541
 H 0.5921 0.7431 0.9534   0.119539
 C 0.5185 0.497 0.5248   0.224033
 C 0.5217 0.4244 0.5989   0.203145
 C 0.5861 0.4753 0.6225   -0.231344
 C 0.6167 0.5371 0.5973   0.030501
 C 0.5829 0.548 0.5484   -0.167057
 C 0.6275 0.461 0.6735   0.822573
 C 0.5222 0.5039 0.977   0.219422
 C 0.5649 0.4366 0.892   0.202698
 C 0.6089 0.5043 0.8815   -0.24069
 C 0.6095 0.5718 0.9188   0.023584
 C 0.5661 0.5716 0.9665   -0.140317
 C 0.6605 0.5038 0.8317   0.818463
 C 0.9751 0.3365 0.5354   0.230703
 C 0.9183 0.4086 0.6157   0.208434
 C 0.8703 0.3423 0.6248   -0.245735
 C 0.8747 0.2731 0.5891   0.037577
 C 0.9271 0.2702 0.5445   -0.182837
 C 0.8155 0.3436 0.6715   0.81797
 C 0.021 0.3372 0.4884   0.229746
 C 0.111 0.4066 0.4324   0.221715
 C 0.0989 0.3454 0.3912   -0.250135
 C 0.0477 0.2802 0.3986   0.044463
 C 0.0088 0.2761 0.4472   -0.187541
 C 0.132 0.3487 0.3367   0.827883
 C 0.0277 0.3335 0.008   0.218403
 C 0.0443 0.256 0.0791   0.202674
 C 0.0933 0.3167 0.1071   -0.256587
 C 0.1095 0.3858 0.0855   0.037544
 C 0.0767 0.3942 0.036   -0.153684
 C 0.1243 0.3055 0.1606   0.879189
 C 0.9856 0.3403 0.9601   0.228321
 C 0.9629 0.421 0.8912   0.203825
 C 0.899 0.3684 0.869   -0.243059
 C 0.8784 0.3017 0.8923   0.028812
 C 0.9217 0.2877 0.9378   -0.171117
 C 0.8469 0.3832 0.8207   0.829424
 C 0.0185 0.003 0.4752   0.224033
 C 0.0217 0.0756 0.4011   0.203145
 C 0.0861 0.0247 0.3775   -0.231344
 C 0.1167 0.9629 0.4027   0.030501
 C 0.0829 0.952 0.4516   -0.167057
 C 0.1275 0.039 0.3265   0.822573
 C 0.0222 0.9961 0.023   0.219422
 C 0.0649 0.0634 0.108   0.202698
 C 0.1089 0.9957 0.1185   -0.24069
 C 0.1095 0.9282 0.0812   0.023584
 C 0.0661 0.9284 0.0335   -0.140317
 C 0.1605 0.9962 0.1683   0.818463
 C 0.4751 0.1635 0.4646   0.230704
 C 0.4183 0.0914 0.3843   0.208434
 C 0.3703 0.1577 0.3752   -0.245735
 C 0.3747 0.2269 0.4109   0.037576
 C 0.4271 0.2298 0.4555   -0.182837
 C 0.3155 0.1564 0.3285   0.81797
 C 0.521 0.1628 0.5116   0.229746
 C 0.611 0.0934 0.5676   0.221715
 C 0.5989 0.1546 0.6088   -0.250135
 C 0.5477 0.2198 0.6014   0.044463
 C 0.5088 0.2239 0.5528   -0.18754
 C 0.632 0.1513 0.6633   0.827883
 C 0.5277 0.1665 0.992   0.218403
 C 0.5443 0.244 0.9209   0.202675
 C 0.5933 0.1833 0.8929   -0.256587
 C 0.6095 0.1142 0.9145   0.037544
 C 0.5767 0.1058 0.964   -0.153685
 C 0.6243 0.1945 0.8394   0.879189
 C 0.4856 0.1597 0.0399   0.228321
 C 0.4629 0.079 0.1088   0.203825
 C 0.399 0.1316 0.131   -0.243059
 C 0.3784 0.1983 0.1077   0.028812
 C 0.4217 0.2123 0.0622   -0.171117
 C 0.3469 0.1168 0.1793   0.829424
 C 0.4815 0.503 0.4752   0.224037
 C 0.4783 0.5756 0.4011   0.203145
 C 0.4139 0.5247 0.3775   -0.231345
 C 0.3833 0.4629 0.4027   0.030501
 C 0.4171 0.452 0.4516   -0.167057
 C 0.3725 0.539 0.3265   0.822573
 C 0.4778 0.4961 0.023   0.219429
 C 0.4351 0.5634 0.108   0.202698
 C 0.3911 0.4957 0.1185   -0.24069
 C 0.3905 0.4282 0.0812   0.023584
 C 0.4339 0.4284 0.0335   -0.140318
 C 0.3395 0.4962 0.1683   0.818463
 C 0.0249 0.6635 0.4646   0.230703
 C 0.0817 0.5914 0.3843   0.208434
 C 0.1297 0.6577 0.3752   -0.245735
 C 0.1253 0.7269 0.4109   0.037577
 C 0.0729 0.7298 0.4555   -0.182836
 C 0.1845 0.6564 0.3285   0.81797
 C 0.979 0.6628 0.5116   0.229746
 C 0.889 0.5934 0.5676   0.221715
 C 0.9011 0.6546 0.6088   -0.250135
 C 0.9523 0.7198 0.6014   0.044463
 C 0.9912 0.7239 0.5528   -0.18754
 C 0.868 0.6513 0.6633   0.827883
 C 0.9723 0.6665 0.992   0.218403
 C 0.9557 0.744 0.9209   0.202674
 C 0.9067 0.6833 0.8929   -0.256587
 C 0.8905 0.6142 0.9145   0.037544
 C 0.9233 0.6058 0.964   -0.153684
 C 0.8757 0.6945 0.8394   0.879189
 C 0.0144 0.6597 0.0399   0.228321
 C 0.0371 0.579 0.1088   0.203825
 C 0.101 0.6316 0.131   -0.243059
 C 0.1216 0.6983 0.1077   0.028812
 C 0.0783 0.7123 0.0622   -0.171117
 C 0.1531 0.6168 0.1793   0.829424
 C 0.9815 0.997 0.5248   0.224037
 C 0.9783 0.9244 0.5989   0.203145
 C 0.9139 0.9753 0.6225   -0.231345
 C 0.8833 0.0371 0.5973   0.030501
 C 0.9171 0.048 0.5484   -0.167057
 C 0.8725 0.961 0.6735   0.822573
 C 0.9778 0.0039 0.977   0.219429
 C 0.9351 0.9366 0.892   0.202698
 C 0.8911 0.0043 0.8815   -0.24069
 C 0.8905 0.0718 0.9188   0.023584
 C 0.9339 0.0716 0.9665   -0.140318
 C 0.8395 0.0038 0.8317   0.818463
 C 0.5249 0.8365 0.5354   0.230703
 C 0.5817 0.9086 0.6157   0.208434
 C 0.6297 0.8423 0.6248   -0.245735
 C 0.6253 0.7731 0.5891   0.037576
 C 0.5729 0.7702 0.5445   -0.182836
 C 0.6845 0.8436 0.6715   0.81797
 C 0.479 0.8372 0.4884   0.229746
 C 0.389 0.9066 0.4324   0.221715
 C 0.4011 0.8454 0.3912   -0.250135
 C 0.4523 0.7802 0.3986   0.044463
 C 0.4912 0.7761 0.4472   -0.18754
 C 0.368 0.8487 0.3367   0.827883
 C 0.4723 0.8335 0.008   0.218403
 C 0.4557 0.756 0.0791   0.202675
 C 0.4067 0.8167 0.1071   -0.256587
 C 0.3905 0.8858 0.0855   0.037544
 C 0.4233 0.8942 0.036   -0.153685
 C 0.3757 0.8055 0.1606   0.879189
 C 0.5144 0.8403 0.9601   0.228321
 C 0.5371 0.921 0.8912   0.203825
 C 0.601 0.8684 0.869   -0.243059
 C 0.6216 0.8017 0.8923   0.028812
 C 0.5783 0.7877 0.9378   -0.171117
 C 0.6531 0.8832 0.8207   0.829424
 N 0.4879 0.4352 0.5501   -0.426936
 N 0.5216 0.4365 0.9397   -0.394249
 N 0.9706 0.4057 0.571   -0.38047
 N 0.0721 0.4025 0.481   -0.38333
 N 0.0115 0.2644 0.0296   -0.400962
 N 0.0062 0.407 0.9368   -0.421239
 N 0.9879 0.0648 0.4499   -0.426936
 N 0.0216 0.0635 0.0603   -0.394249
 N 0.4706 0.0943 0.429   -0.38047
 N 0.5721 0.0975 0.519   -0.38333
 N 0.5115 0.2356 0.9704   -0.400962
 N 0.5062 0.093 0.0632   -0.421239
 N 0.5121 0.5648 0.4499   -0.426937
 N 0.4784 0.5635 0.0603   -0.39425
 N 0.0294 0.5943 0.429   -0.380469
 N 0.9279 0.5975 0.519   -0.38333
 N 0.9885 0.7356 0.9704   -0.400962
 N 0.9938 0.593 0.0632   -0.421239
 N 0.0121 0.9352 0.5501   -0.426937
 N 0.9784 0.9365 0.9397   -0.39425
 N 0.5294 0.9057 0.571   -0.380469
 N 0.4279 0.9025 0.481   -0.38333
 N 0.4885 0.7644 0.0296   -0.400962
 N 0.4938 0.907 0.9368   -0.421239
 O 0.6602 0.4409 0.8018   -0.832521
 O 0.7755 0.2823 0.6793   -0.689642
 O 0.8025 0.3291 0.7993   -0.715898
 O 0.6135 0.3915 0.6851   -0.775192
 O 0.1148 0.2951 0.3013   -0.79278
 O 0.1382 0.241 0.1724   -0.742833
 O 0.1762 0.4104 0.3312   -0.760153
 O 0.8061 0.4081 0.7013   -0.855476
 O 0.6627 0.5153 0.7008   -0.702282
 O 0.697 0.5652 0.822   -0.684666
 O 0.8512 0.4529 0.8108   -0.759366
 O 0.1377 0.367 0.1916   -0.833129
 O 0.1602 0.0591 0.1982   -0.832521
 O 0.2755 0.2177 0.3207   -0.689642
 O 0.3025 0.1709 0.2007   -0.715898
 O 0.1135 0.1085 0.3149   -0.775192
 O 0.6148 0.2049 0.6987   -0.79278
 O 0.6382 0.259 0.8276   -0.742833
 O 0.6762 0.0896 0.6688   -0.760153
 O 0.3061 0.0919 0.2987   -0.855476
 O 0.1627 0.9847 0.2992   -0.702282
 O 0.197 0.9348 0.178   -0.684666
 O 0.3512 0.0471 0.1892   -0.759366
 O 0.6377 0.133 0.8084   -0.833129
 O 0.3398 0.5591 0.1982   -0.832521
 O 0.2245 0.7177 0.3207   -0.689642
 O 0.1975 0.6709 0.2007   -0.715898
 O 0.3865 0.6085 0.3149   -0.775192
 O 0.8852 0.7049 0.6987   -0.79278
 O 0.8618 0.759 0.8276   -0.742833
 O 0.8238 0.5896 0.6688   -0.760153
 O 0.1939 0.5919 0.2987   -0.855476
 O 0.3373 0.4847 0.2992   -0.702282
 O 0.303 0.4348 0.178   -0.684666
 O 0.1488 0.5471 0.1892   -0.759366
 O 0.8623 0.633 0.8084   -0.833129
 O 0.8398 0.9409 0.8018   -0.832521
 O 0.7245 0.7823 0.6793   -0.689642
 O 0.6975 0.8291 0.7993   -0.715898
 O 0.8865 0.8915 0.6851   -0.775192
 O 0.3852 0.7951 0.3013   -0.79278
 O 0.3618 0.741 0.1724   -0.742833
 O 0.3238 0.9104 0.3312   -0.760153
 O 0.6939 0.9081 0.7013   -0.855476
 O 0.8373 0.0153 0.7008   -0.702282
 O 0.803 0.0652 0.822   -0.684666
 O 0.6488 0.9529 0.8108   -0.759366
 O 0.3623 0.867 0.1916   -0.833129
