{'_ref': 'TBD', '_srcid': 'CAKYAQ_clean', 'submitters': [{'name': 'Dalar Nazarian Jeff Camp and David Sholl', 'email': 'dalar@gatech.edu jcamp6@gatech.edu'}], '_method': 'VASP DFT with PBE;DDEC'}
data_Co2H37C51(NO2)6
_symmetry_space_group_name_H-M   'P 1'
_cell_length_a   9.03840019
_cell_length_b   16.34070032
_cell_length_c   18.50500000
_cell_angle_alpha   73.39399944
_cell_angle_beta   76.39400306
_cell_angle_gamma   86.29799995
_symmetry_Int_Tables_number   1
_chemical_formula_structural   Co2H37C51(NO2)6
_chemical_formula_sum   'Co4 H74 C102 N12 O24'
_cell_volume   2545.57292586
_cell_formula_units_Z   2
loop_
 _symmetry_equiv_pos_site_id
 _symmetry_equiv_pos_as_xyz
  1  'x, y, z'
loop_
 _atom_site_label
 _atom_site_fract_x
 _atom_site_fract_y
 _atom_site_fract_z
 _atom_site_charge
 Co 0.74533 0.03266 0.17712   0.820837
 Co 0.84788 0.27939 0.60876   0.7312
 Co 0.25467 0.96734 0.82288   0.820836
 Co 0.15212 0.72061 0.39124   0.731188
 H 0.8696 0.461 0.0255   0.060484
 H 0.6926 0.4758 0.0442   0.062653
 H 0.843 0.2825 0.1529   0.065103
 H 0.878 0.3208 0.2161   0.068053
 H 0.9189 0.5038 0.1306   0.053003
 H 0.8199 0.4692 0.2153   0.078458
 H 0.5832 0.3271 0.1743   0.056101
 H 0.5366 0.4215 0.1746   0.062844
 H 0.9191 0.601 0.202   0.115673
 H 0.7477 0.2424 0.9728   0.122432
 H 0.7605 0.2456 0.8483   0.095997
 H 0.7711 0.5014 0.7883   0.09135
 H 0.7591 0.4994 0.9124   0.114291
 H 0.0179 0.2131 0.2251   0.104316
 H 0.2173 0.1187 0.2459   0.098807
 H 0.4976 0.2717 0.0645   0.081388
 H 0.2982 0.3637 0.0421   0.126952
 H 0.9371 0.1864 0.0475   0.113716
 H 0.0881 0.9539 0.12   0.11085
 H 0.2058 0.1856 0.9838   0.122472
 H 0.2959 0.9098 0.0257   0.117025
 H 0.4584 0.1369 0.0118   0.10779
 H 0.9164 0.7289 0.2338   0.096021
 H 0.5487 0.8022 0.149   0.08887
 H 0.5398 0.6724 0.1255   0.112803
 H 0.1257 0.2934 0.3591   0.092854
 H 0.6644 0.1751 0.2741   0.097021
 H 0.7709 0.1759 0.3819   0.137905
 H 0.9121 0.9688 0.317   0.104255
 H 0.6201 0.9659 0.6026   0.132017
 H 0.3415 0.3185 0.2535   0.121174
 H 0.5805 0.3658 0.3975   0.136153
 H 0.3641 0.3487 0.4986   0.100574
 H 0.7564 0.1267 0.5615   0.055916
 H 0.4672 0.2717 0.6474   0.107914
 H 0.3228 0.1727 0.6133   0.15062
 H 0.4043 0.1371 0.4606   0.116954
 H 0.1304 0.539 0.9745   0.060472
 H 0.3074 0.5242 0.9558   0.062621
 H 0.157 0.7175 0.8471   0.065103
 H 0.122 0.6792 0.7839   0.068051
 H 0.0811 0.4962 0.8694   0.052994
 H 0.1801 0.5308 0.7847   0.078451
 H 0.4168 0.6729 0.8257   0.056101
 H 0.4634 0.5785 0.8254   0.062839
 H 0.0809 0.399 0.798   0.115673
 H 0.2523 0.7576 0.0272   0.122417
 H 0.2395 0.7544 0.1517   0.09594
 H 0.2289 0.4986 0.2117   0.091334
 H 0.2409 0.5006 0.0876   0.114269
 H 0.9821 0.7869 0.7749   0.104315
 H 0.7827 0.8813 0.7541   0.098784
 H 0.5024 0.7283 0.9355   0.081388
 H 0.7018 0.6363 0.9579   0.126918
 H 0.0629 0.8136 0.9525   0.113717
 H 0.9119 0.0461 0.88   0.110822
 H 0.7942 0.8144 0.0162   0.122473
 H 0.7041 0.0902 0.9743   0.117004
 H 0.5416 0.8631 0.9882   0.107791
 H 0.0836 0.2711 0.7662   0.096015
 H 0.4513 0.1978 0.851   0.088853
 H 0.4602 0.3276 0.8745   0.1128
 H 0.8743 0.7066 0.6409   0.092856
 H 0.3356 0.8249 0.7259   0.09702
 H 0.2291 0.8241 0.6181   0.137901
 H 0.0879 0.0312 0.683   0.104246
 H 0.3799 0.0341 0.3974   0.131974
 H 0.6585 0.6815 0.7465   0.121172
 H 0.4195 0.6342 0.6025   0.136146
 H 0.6359 0.6513 0.5014   0.100564
 H 0.2436 0.8733 0.4385   0.055928
 H 0.5328 0.7283 0.3526   0.107914
 H 0.6772 0.8273 0.3867   0.150614
 H 0.5957 0.8629 0.5394   0.116934
 C 0.7693 0.4077 0.1397   -0.051064
 C 0.7725 0.4345 0.0546   0.080229
 C 0.8773 0.3332 0.1616   0.064501
 C 0.818 0.4847 0.1609   0.073072
 C 0.6106 0.377 0.1869   0.077258
 C 0.4812 0.3446 0.3181   0.302952
 C 0.7238 0.6235 0.1637   0.300928
 C 0.8422 0.6407 0.1932   -0.263277
 C 0.7552 0.3687 0.9554   0.289862
 C 0.7539 0.2946 0.9351   -0.254199
 C 0.7613 0.2964 0.8613   0.018546
 C 0.7701 0.3737 0.8043   -0.18545
 C 0.7835 0.3768 0.722   0.658935
 C 0.7677 0.4493 0.8259   0.037953
 C 0.7605 0.4487 0.899   -0.280598
 C 0.1377 0.2979 0.1317   0.298432
 C 0.1139 0.2249 0.1923   -0.253243
 C 0.2341 0.1681 0.2047   0.030985
 C 0.378 0.1847 0.1563   -0.215063
 C 0.4011 0.2588 0.0965   0.00966
 C 0.2816 0.3146 0.0835   -0.244143
 C 0.5043 0.1238 0.1734   0.615049
 C 0.000599999999999 0.1391 0.0541   0.023902
 C 0.0823 0.0114 0.0941   0.144767
 C 0.1494 0.1393 0.0186   -0.107151
 C 0.3538 0.029 0.0206   0.117299
 C 0.378 0.9462 0.015   -0.118578
 C 0.475 0.0818 0.0067   -0.095882
 C 0.7569 0.8685 0.1975   0.62512
 C 0.7402 0.7802 0.1904   -0.213488
 C 0.8433 0.7188 0.2094   0.032439
 C 0.6232 0.7616 0.1601   0.011514
 C 0.6173 0.6839 0.1466   -0.235455
 C 0.0895 0.2988 0.5062   0.642433
 C 0.2324 0.3178 0.4396   -0.180677
 C 0.2187 0.3087 0.3649   0.023991
 C 0.5151 0.0602 0.5372   0.107144
 C 0.9471 0.9424 0.4696   -0.274568
 C 0.0078 0.9123 0.5339   -0.108319
 C 0.9381 0.029 0.4371   0.113074
 C 0.7288 0.1337 0.2961   0.027747
 C 0.7852 0.1341 0.3558   -0.128041
 C 0.8633 0.0202 0.3192   0.154964
 C 0.572 0.9797 0.5615   -0.109492
 C 0.3461 0.323 0.3019   -0.278959
 C 0.4879 0.3524 0.3899   -0.254309
 C 0.3596 0.3406 0.4514   0.027097
 C 0.6635 0.1514 0.5777   0.198005
 C 0.5101 0.2297 0.624   0.070852
 C 0.428 0.1749 0.6061   -0.17319
 C 0.4427 0.0823 0.4764   -0.124157
 C 0.2307 0.5923 0.8603   -0.05107
 C 0.2275 0.5655 0.9454   0.080242
 C 0.1227 0.6668 0.8384   0.064502
 C 0.182 0.5153 0.8391   0.073078
 C 0.3894 0.623 0.8131   0.077261
 C 0.5188 0.6554 0.6819   0.30295
 C 0.2762 0.3765 0.8363   0.30092
 C 0.1578 0.3593 0.8068   -0.263289
 C 0.2448 0.6313 0.0446   0.289853
 C 0.2461 0.7054 0.0649   -0.254207
 C 0.2387 0.7036 0.1387   0.018552
 C 0.2299 0.6263 0.1957   -0.185457
 C 0.2165 0.6232 0.278   0.658921
 C 0.2323 0.5507 0.1741   0.037956
 C 0.2395 0.5513 0.101   -0.280591
 C 0.8623 0.7021 0.8683   0.298429
 C 0.8861 0.7751 0.8077   -0.253245
 C 0.7659 0.8319 0.7953   0.030992
 C 0.622 0.8153 0.8437   -0.215065
 C 0.5989 0.7412 0.9035   0.009657
 C 0.7184 0.6854 0.9165   -0.244132
 C 0.4957 0.8762 0.8266   0.61505
 C 0.9994 0.8609 0.9459   0.023899
 C 0.9177 0.9886 0.9059   0.144774
 C 0.8506 0.8607 0.9814   -0.107162
 C 0.6462 0.971 0.9794   0.117304
 C 0.622 0.0538 0.985   -0.118596
 C 0.525 0.9182 0.9933   -0.095906
 C 0.2431 0.1315 0.8025   0.625105
 C 0.2598 0.2198 0.8096   -0.213493
 C 0.1567 0.2812 0.7906   0.032427
 C 0.3768 0.2384 0.8399   0.011514
 C 0.3827 0.3161 0.8534   -0.235463
 C 0.9105 0.7012 0.4938   0.642459
 C 0.7676 0.6822 0.5604   -0.180682
 C 0.7813 0.6913 0.6351   0.024
 C 0.4849 0.9398 0.4628   0.107114
 C 0.0529 0.0576 0.5304   -0.27468
 C 0.9922 0.0877 0.4661   -0.107531
 C 0.0619 0.971 0.5629   0.113794
 C 0.2712 0.8663 0.7039   0.027723
 C 0.2148 0.8659 0.6442   -0.127956
 C 0.1367 0.9798 0.6808   0.15497
 C 0.428 0.0203 0.4385   -0.109448
 C 0.6539 0.677 0.6981   -0.278961
 C 0.5121 0.6476 0.6101   -0.254309
 C 0.6404 0.6594 0.5486   0.0271
 C 0.3365 0.8486 0.4223   0.197999
 C 0.4899 0.7703 0.376   0.070842
 C 0.572 0.8251 0.3939   -0.173195
 C 0.5573 0.9177 0.5236   -0.124056
 N 0.956 0.0585 0.1017   -0.365722
 N 0.2003 0.0583 0.0437   0.045425
 N 0.8679 0.0618 0.3714   0.057081
 N 0.7795 0.0628 0.2714   -0.382633
 N 0.5392 0.1215 0.5735   0.05518
 N 0.6577 0.2167 0.6047   -0.352009
 N 0.044 0.9415 0.8983   -0.365724
 N 0.7997 0.9417 0.9563   0.045424
 N 0.1321 0.9382 0.6286   0.057018
 N 0.2205 0.9372 0.7286   -0.382632
 N 0.4608 0.8785 0.4265   0.055183
 N 0.3423 0.7833 0.3953   -0.352007
 O 0.028 0.3559 0.1151   -0.265691
 O 0.7501 0.3608 0.0316   -0.26966
 O 0.7104 0.5499 0.1446   -0.271571
 O 0.6102 0.3566 0.2653   -0.262487
 O 0.7967 0.4482 0.6731   -0.569458
 O 0.6371 0.1409 0.1273   -0.535082
 O 0.4802 0.058 0.2281   -0.496205
 O 0.6688 0.9259 0.1676   -0.543603
 O 0.8553 0.8845 0.2285   -0.543369
 O 0.0859 0.3189 0.5642   -0.485039
 O 0.9725 0.2694 0.4972   -0.52368
 O 0.7844 0.3056 0.7075   -0.554248
 O 0.972 0.6441 0.8849   -0.265691
 O 0.2499 0.6392 0.9684   -0.269662
 O 0.2896 0.4501 0.8554   -0.271571
 O 0.3898 0.6434 0.7347   -0.262487
 O 0.2033 0.5518 0.3269   -0.569456
 O 0.3629 0.8591 0.8727   -0.535082
 O 0.5198 0.942 0.7719   -0.496206
 O 0.3312 0.0741 0.8324   -0.543602
 O 0.1447 0.1155 0.7715   -0.543367
 O 0.9141 0.6811 0.4358   -0.485041
 O 0.0275 0.7306 0.5028   -0.523663
 O 0.2156 0.6944 0.2925   -0.554244
