{'_ref': 'TBD', '_srcid': 'CAKYAQ_clean', 'submitters': [{'name': 'Dalar Nazarian Jeff Camp and David Sholl', 'email': 'dalar@gatech.edu jcamp6@gatech.edu'}], '_method': 'VASP DFT with PBE;DDEC'}
data_CdH17C17N5O4
_symmetry_space_group_name_H-M   'P 1'
_cell_length_a   12.26240036
_cell_length_b   12.26239993
_cell_length_c   16.37500000
_cell_angle_alpha   102.37329922
_cell_angle_beta   109.47290175
_cell_angle_gamma   105.58599796
_symmetry_Int_Tables_number   1
_chemical_formula_structural   CdH17C17N5O4
_chemical_formula_sum   'Cd4 H68 C68 N20 O16'
_cell_volume   2107.17089889
_cell_formula_units_Z   4
loop_
 _symmetry_equiv_pos_site_id
 _symmetry_equiv_pos_as_xyz
  1  'x, y, z'
loop_
 _atom_site_label
 _atom_site_fract_x
 _atom_site_fract_y
 _atom_site_fract_z
 _atom_site_charge
 Cd 0.83095 0.45691 0.63144   0.887576
 Cd 0.32547 0.19951 0.86856   0.88697
 Cd 0.16905 0.54309 0.36856   0.887576
 Cd 0.67453 0.80049 0.13144   0.88697
 H 0.1453 0.6881 0.5836   0.108872
 H 0.2971 0.8458 0.5739   0.1435
 H 0.3618 0.0403 0.6795   0.101954
 H 0.5529 0.2866 0.4901   0.110125
 H 0.7555 0.5855 0.4828   0.099561
 H 0.5583 0.5157 0.3586   0.127121
 H 0.3587 0.2355 0.3728   0.108523
 H 0.3336 0.3342 0.3302   0.090975
 H 0.4116 0.2718 0.219   0.061337
 H 0.3015 0.1626 0.2091   0.098599
 H 0.0527 0.944 0.5537   0.073365
 H 0.1234 0.0556 0.5352   0.081193
 H 0.1269 0.1216 0.6825   0.06428
 H 0.9826 0.0604 0.6442   0.094713
 H 0.8672 0.1961 0.6241   0.106644
 H 0.1116 0.4746 0.6252   0.093722
 H 0.2003 0.3204 0.6295   0.146942
 H 0.6045 0.5617 0.9164   0.108738
 H 0.7719 0.7232 0.9261   0.143297
 H 0.8608 0.6823 0.8205   0.102952
 H 0.2965 0.0628 0.0099   0.110468
 H 0.6027 0.2727 0.0172   0.099293
 H 0.6571 0.1997 0.1414   0.126139
 H 0.3627 0.9859 0.1272   0.108411
 H 0.504 0.0034 0.1698   0.09116
 H 0.5528 0.1926 0.281   0.060067
 H 0.4535 0.0924 0.2909   0.099412
 H 0.8903 0.499 0.9463   0.073452
 H 0.0204 0.5882 0.9648   0.081182
 H 0.9391 0.4444 0.8175   0.064283
 H 0.9162 0.3384 0.8558   0.094128
 H 0.072 0.2431 0.8759   0.107476
 H 0.3494 0.4864 0.8748   0.094269
 H 0.1909 0.5708 0.8705   0.145483
 H 0.8547 0.3119 0.4164   0.108872
 H 0.7029 0.1542 0.4261   0.143498
 H 0.6382 0.9597 0.3205   0.101954
 H 0.4471 0.7134 0.5099   0.110125
 H 0.2445 0.4145 0.5172   0.099563
 H 0.4417 0.4843 0.6414   0.127122
 H 0.6413 0.7645 0.6272   0.108522
 H 0.6664 0.6658 0.6698   0.090974
 H 0.5884 0.7282 0.781   0.061337
 H 0.6985 0.8374 0.7909   0.098598
 H 0.9473 0.056 0.4463   0.073363
 H 0.8766 0.9444 0.4648   0.08119
 H 0.8731 0.8784 0.3175   0.06428
 H 0.0174 0.9396 0.3558   0.094712
 H 0.1328 0.8039 0.3759   0.106641
 H 0.8884 0.5254 0.3748   0.093723
 H 0.7997 0.6796 0.3705   0.146943
 H 0.3955 0.4383 0.0836   0.108738
 H 0.2281 0.2768 0.0739   0.143295
 H 0.1392 0.3177 0.1795   0.102952
 H 0.7035 0.9372 0.9901   0.110468
 H 0.3973 0.7273 0.9828   0.099295
 H 0.3429 0.8003 0.8586   0.12614
 H 0.6373 0.0141 0.8728   0.10841
 H 0.496 0.9966 0.8302   0.09116
 H 0.4472 0.8074 0.719   0.060067
 H 0.5465 0.9076 0.7091   0.099411
 H 0.1097 0.501 0.0537   0.07345
 H 0.9796 0.4118 0.0352   0.081179
 H 0.0609 0.5556 0.1825   0.064283
 H 0.0838 0.6616 0.1442   0.094127
 H 0.928 0.7569 0.1241   0.107474
 H 0.6506 0.5136 0.1252   0.09427
 H 0.8091 0.4292 0.1295   0.145485
 C 0.0268 0.6896 0.6932   0.736164
 C 0.1226 0.7972 0.6894   -0.139107
 C 0.1728 0.7669 0.6219   -0.034495
 C 0.2631 0.8594 0.6163   -0.160748
 C 0.3002 0.9782 0.681   0.126326
 C 0.1591 0.9218 0.7521   0.106868
 C 0.1038 0.9668 0.8176   0.560236
 C 0.5773 0.3522 0.4715   0.131884
 C 0.6888 0.5155 0.4677   0.085899
 C 0.5832 0.4787 0.4017   -0.177965
 C 0.3889 0.2906 0.3437   -0.049127
 C 0.3871 0.215 0.2487   -0.163821
 C 0.0476 0.0168 0.5412   -0.145352
 C 0.0493 0.1045 0.631   -0.031078
 C 0.9392 0.247 0.6248   0.109813
 C 0.0723 0.3983 0.6252   0.037802
 C 0.1224 0.3143 0.6279   -0.145171
 C 0.4964 0.3336 0.8068   0.733473
 C 0.6078 0.4332 0.8106   -0.140409
 C 0.645 0.5509 0.8781   -0.033629
 C 0.7431 0.6468 0.8837   -0.160112
 C 0.7972 0.6192 0.819   0.12509
 C 0.6697 0.407 0.7479   0.10725
 C 0.6492 0.2862 0.6824   0.558953
 C 0.3807 0.1058 0.0285   0.131964
 C 0.5478 0.2211 0.0323   0.08236
 C 0.577 0.1815 0.0983   -0.174573
 C 0.4469 0.0452 0.1563   -0.047585
 C 0.4663 0.1384 0.2513   -0.163238
 C 0.9756 0.5064 0.9588   -0.145503
 C 0.9735 0.4183 0.869   -0.030498
 C 0.1222 0.3144 0.8752   0.108042
 C 0.2731 0.4471 0.8748   0.036721
 C 0.1864 0.4945 0.8721   -0.144589
 C 0.9732 0.3104 0.3068   0.736164
 C 0.8774 0.2028 0.3106   -0.139107
 C 0.8272 0.2331 0.3781   -0.034495
 C 0.7369 0.1406 0.3837   -0.160747
 C 0.6998 0.0218 0.319   0.126326
 C 0.8409 0.0782 0.2479   0.106868
 C 0.8962 0.0332 0.1824   0.560236
 C 0.4227 0.6478 0.5285   0.131884
 C 0.3112 0.4845 0.5323   0.085898
 C 0.4168 0.5213 0.5983   -0.177966
 C 0.6111 0.7094 0.6563   -0.049127
 C 0.6129 0.785 0.7513   -0.163821
 C 0.9524 0.9832 0.4588   -0.145318
 C 0.9507 0.8955 0.369   -0.031082
 C 0.0608 0.753 0.3752   0.109814
 C 0.9277 0.6017 0.3748   0.037802
 C 0.8776 0.6857 0.3721   -0.145171
 C 0.5036 0.6664 0.1932   0.733473
 C 0.3922 0.5668 0.1894   -0.140409
 C 0.355 0.4491 0.1219   -0.033629
 C 0.2569 0.3532 0.1163   -0.160112
 C 0.2028 0.3808 0.181   0.12509
 C 0.3303 0.593 0.2521   0.10725
 C 0.3508 0.7138 0.3176   0.558953
 C 0.6193 0.8942 0.9715   0.131964
 C 0.4522 0.7789 0.9677   0.082359
 C 0.423 0.8185 0.9017   -0.174573
 C 0.5531 0.9548 0.8437   -0.047585
 C 0.5337 0.8616 0.7487   -0.163238
 C 0.0244 0.4936 0.0412   -0.145477
 C 0.0265 0.5817 0.131   -0.030501
 C 0.8778 0.6856 0.1248   0.108042
 C 0.7269 0.5529 0.1252   0.036721
 C 0.8136 0.5055 0.1279   -0.144589
 N 0.6877 0.439 0.5105   -0.408238
 N 0.5118 0.3737 0.4055   0.090975
 N 0.0371 0.2194 0.6279   0.070106
 N 0.9584 0.3577 0.6225   -0.387748
 N 0.2511 0.0087 0.7468   -0.370833
 N 0.4285 0.1772 0.9895   -0.407669
 N 0.4682 0.1063 0.0945   0.090319
 N 0.0915 0.4092 0.8721   0.072257
 N 0.2352 0.3359 0.8775   -0.387106
 N 0.7619 0.5043 0.7532   -0.370474
 N 0.3123 0.561 0.4895   -0.408238
 N 0.4882 0.6263 0.5945   0.090975
 N 0.9629 0.7806 0.3721   0.070107
 N 0.0416 0.6423 0.3775   -0.387748
 N 0.7489 0.9913 0.2532   -0.370833
 N 0.5715 0.8228 0.0105   -0.407669
 N 0.5318 0.8937 0.9055   0.090319
 N 0.9085 0.5908 0.1279   0.072258
 N 0.7648 0.6641 0.1225   -0.387106
 N 0.2381 0.4957 0.2468   -0.370474
 O 0.9329 0.6377 0.6306   -0.618201
 O 0.0531 0.6603 0.7584   -0.641602
 O 0.1535 0.0733 0.8816   -0.614529
 O 0.003 0.8953 0.8099   -0.567484
 O 0.5071 0.3023 0.8694   -0.617358
 O 0.4019 0.2947 0.7416   -0.639674
 O 0.6917 0.2719 0.6184   -0.613952
 O 0.5854 0.1931 0.6901   -0.566832
 O 0.0671 0.3623 0.3694   -0.618201
 O 0.9469 0.3397 0.2416   -0.641603
 O 0.8465 0.9267 0.1184   -0.614529
 O 0.997 0.1047 0.1901   -0.567484
 O 0.4929 0.6977 0.1306   -0.617358
 O 0.5981 0.7053 0.2584   -0.639674
 O 0.3083 0.7281 0.3816   -0.613952
 O 0.4146 0.8069 0.3099   -0.566832
