{'_ref': 'TBD', '_srcid': 'CAKYAQ_clean', 'submitters': [{'name': 'Dalar Nazarian Jeff Camp and David Sholl', 'email': 'dalar@gatech.edu jcamp6@gatech.edu'}], '_method': 'VASP DFT with PBE;DDEC'}
data_CdH8C12(NO3)2
_symmetry_space_group_name_H-M   'P 1'
_cell_length_a   6.72100018
_cell_length_b   10.15690041
_cell_length_c   10.15690000
_cell_angle_alpha   89.59310061
_cell_angle_beta   86.92880227
_cell_angle_gamma   86.92879832
_symmetry_Int_Tables_number   1
_chemical_formula_structural   CdH8C12(NO3)2
_chemical_formula_sum   'Cd2 H16 C24 N4 O12'
_cell_volume   691.359508444
_cell_formula_units_Z   2
loop_
 _symmetry_equiv_pos_site_id
 _symmetry_equiv_pos_as_xyz
  1  'x, y, z'
loop_
 _atom_site_label
 _atom_site_fract_x
 _atom_site_fract_y
 _atom_site_fract_z
 _atom_site_charge
 Cd 0.75 0.57175 0.42825   1.157099
 Cd 0.25 0.42825 0.57175   1.157099
 H 0.8746 0.3571 0.7933   0.141886
 H 0.7867 0.7381 0.7159   0.131698
 H 0.7798 0.3963 0.0111   0.126659
 H 0.6667 0.7797 0.9313   0.135675
 H 0.6254 0.2067 0.6429   0.141886
 H 0.7133 0.2841 0.2619   0.13169
 H 0.7202 0.9889 0.6037   0.126652
 H 0.8333 0.0687 0.2203   0.135688
 H 0.1254 0.6429 0.2067   0.141886
 H 0.2133 0.2619 0.2841   0.131698
 H 0.2202 0.6037 0.9889   0.126659
 H 0.3333 0.2203 0.0687   0.13569
 H 0.3746 0.7933 0.3571   0.141886
 H 0.2867 0.7159 0.7381   0.13169
 H 0.2798 0.0111 0.3963   0.126652
 H 0.1667 0.9313 0.7797   0.135702
 C 0.713 0.591 0.9978   -0.073424
 C 0.8394 0.4423 0.8225   0.013902
 C 0.7833 0.6697 0.7771   -0.049461
 C 0.6537 0.6195 0.1403   0.645883
 C 0.7779 0.4664 0.9518   -0.087021
 C 0.713 0.6951 0.9061   -0.083108
 C 0.787 0.0022 0.409   -0.073423
 C 0.6606 0.1775 0.5577   0.013902
 C 0.7167 0.2229 0.3303   -0.049456
 C 0.8463 0.8597 0.3805   0.645882
 C 0.7221 0.0482 0.5336   -0.087019
 C 0.787 0.0939 0.3049   -0.083114
 C 0.287 0.409 0.0022   -0.073426
 C 0.1606 0.5577 0.1775   0.013901
 C 0.2167 0.3303 0.2229   -0.049465
 C 0.3463 0.3805 0.8597   0.645881
 C 0.2221 0.5336 0.0482   -0.087026
 C 0.287 0.3049 0.0939   -0.083113
 C 0.213 0.9978 0.591   -0.073425
 C 0.3394 0.8225 0.4423   0.013901
 C 0.2833 0.7771 0.6697   -0.04946
 C 0.1537 0.1403 0.6195   0.64588
 C 0.2779 0.9518 0.4664   -0.087024
 C 0.213 0.9061 0.6951   -0.083118
 N 0.847 0.5457 0.7397   0.343625
 N 0.653 0.2603 0.4543   0.343624
 N 0.153 0.4543 0.2603   0.343626
 N 0.347 0.7397 0.5457   0.343625
 O 0.559 0.721 0.1732   -0.5758
 O 0.9234 0.5238 0.6154   -0.579519
 O 0.7138 0.52849 0.21883   -0.669545
 O 0.941 0.8268 0.279   -0.575794
 O 0.5766 0.3846 0.4762   -0.579519
 O 0.7862 0.78117 0.47151   -0.669545
 O 0.441 0.279 0.8268   -0.5758
 O 0.0766 0.4762 0.3846   -0.57952
 O 0.2862 0.47151 0.78117   -0.669544
 O 0.059 0.1732 0.721   -0.575794
 O 0.4234 0.6154 0.5238   -0.579519
 O 0.2138 0.21883 0.52849   -0.669544
