{'_ref': 'TBD', '_srcid': 'CAKYAQ_clean', 'submitters': [{'name': 'Dalar Nazarian Jeff Camp and David Sholl', 'email': 'dalar@gatech.edu jcamp6@gatech.edu'}], '_method': 'VASP DFT with PBE;DDEC'}
data_Dy2H6C18(SO4)3
_symmetry_space_group_name_H-M   'P 1'
_cell_length_a   10.15370000
_cell_length_b   17.43560000
_cell_length_c   17.65940000
_cell_angle_alpha   90.00000000
_cell_angle_beta   90.00000000
_cell_angle_gamma   90.00000000
_symmetry_Int_Tables_number   1
_chemical_formula_structural   Dy2H6C18(SO4)3
_chemical_formula_sum   'Dy8 H24 C72 S12 O48'
_cell_volume   3126.34691986
_cell_formula_units_Z   4
loop_
 _symmetry_equiv_pos_site_id
 _symmetry_equiv_pos_as_xyz
  1  'x, y, z'
loop_
 _atom_site_label
 _atom_site_fract_x
 _atom_site_fract_y
 _atom_site_fract_z
 _atom_site_charge
 Dy 0.66104 0.9791 0.22044   2.336673
 Dy 0.88199 0.17886 0.20625   2.331713
 Dy 0.33896 0.0209 0.72044   2.336673
 Dy 0.11801 0.82114 0.70625   2.331713
 Dy 0.83896 0.4791 0.22044   2.336672
 Dy 0.61801 0.67886 0.20625   2.331712
 Dy 0.16104 0.5209 0.72044   2.336672
 Dy 0.38199 0.32114 0.70625   2.331712
 H 0.6331 0.2869 0.4015   0.126085
 H 0.98 0.8575 0.9027   0.097704
 H 0.6228 0.95 0.4176   0.101153
 H 0.8803 0.8762 0.0255   0.11637
 H 0.5366 0.2927 0.5284   0.08791
 H 0.5204 0.9672 0.5412   0.100086
 H 0.3669 0.7131 0.9015   0.126085
 H 0.02 0.1425 0.4027   0.097704
 H 0.3772 0.05 0.9176   0.101153
 H 0.1197 0.1238 0.5255   0.11637
 H 0.4634 0.7073 0.0284   0.08791
 H 0.4796 0.0328 0.0412   0.100086
 H 0.8669 0.7869 0.4015   0.126085
 H 0.52 0.3575 0.9027   0.097704
 H 0.8772 0.45 0.4176   0.101153
 H 0.6197 0.3762 0.0255   0.11637
 H 0.9634 0.7927 0.5284   0.08791
 H 0.9796 0.4672 0.5412   0.100086
 H 0.1331 0.2131 0.9015   0.126085
 H 0.48 0.6425 0.4027   0.097704
 H 0.1228 0.55 0.9176   0.101153
 H 0.3803 0.6238 0.5255   0.11637
 H 0.0366 0.2073 0.0284   0.08791
 H 0.0204 0.5328 0.0412   0.100086
 C 0.1095 0.9771 0.8288   0.825556
 C 0.951 0.9836 0.0297   -0.212273
 C 0.5976 0.2448 0.4266   -0.046375
 C 0.5628 0.8206 0.3275   0.852781
 C 0.9842 0.9033 0.9295   -0.04395
 C 0.6369 0.1436 0.3223   0.830364
 C 0.0459 0.9679 0.9034   -0.226026
 C 0.4233 0.8662 0.5294   -0.219913
 C 0.5638 0.9154 0.4388   -0.060435
 C 0.5242 0.8489 0.4039   -0.232521
 C 0.5019 0.1786 0.5255   -0.249252
 C 0.5914 0.1731 0.3971   -0.2206
 C 0.9285 0.9139 0.000599999999999   -0.047953
 C 0.3477 0.8581 0.5993   0.831828
 C 0.5433 0.2478 0.5002   -0.037481
 C 0.505 0.925 0.5102   -0.034923
 C 0.9048 0.0157 0.1041   0.827423
 C 0.4411 0.1621 0.6002   0.875872
 C 0.8905 0.0229 0.3288   0.825556
 C 0.049 0.0164 0.5297   -0.212273
 C 0.4024 0.7552 0.9266   -0.046375
 C 0.4372 0.1794 0.8275   0.852781
 C 0.0158 0.0967 0.4295   -0.04395
 C 0.3631 0.8564 0.8223   0.830364
 C 0.9541 0.0321 0.4034   -0.226026
 C 0.5767 0.1338 0.0294   -0.219913
 C 0.4362 0.0846 0.9388   -0.060435
 C 0.4758 0.1511 0.9039   -0.232521
 C 0.4981 0.8214 0.0255   -0.249252
 C 0.4086 0.8269 0.8971   -0.2206
 C 0.0715 0.0861 0.5006   -0.047953
 C 0.6523 0.1419 0.0993   0.831828
 C 0.4567 0.7522 0.0002   -0.037481
 C 0.495 0.075 0.0102   -0.034923
 C 0.0952 0.9843 0.6041   0.827423
 C 0.5589 0.8379 0.1002   0.875871
 C 0.3905 0.4771 0.8288   0.825556
 C 0.549 0.4836 0.0297   -0.212273
 C 0.9024 0.7448 0.4266   -0.046376
 C 0.9372 0.3206 0.3275   0.852781
 C 0.5158 0.4033 0.9295   -0.04395
 C 0.8631 0.6436 0.3223   0.830364
 C 0.4541 0.4679 0.9034   -0.226026
 C 0.0767 0.3662 0.5294   -0.219913
 C 0.9362 0.4154 0.4388   -0.060435
 C 0.9758 0.3489 0.4039   -0.232521
 C 0.9981 0.6786 0.5255   -0.249252
 C 0.9086 0.6731 0.3971   -0.2206
 C 0.5715 0.4139 0.000599999999999   -0.047953
 C 0.1523 0.3581 0.5993   0.831828
 C 0.9567 0.7478 0.5002   -0.03748
 C 0.995 0.425 0.5102   -0.034923
 C 0.5952 0.5157 0.1041   0.827423
 C 0.0589 0.6621 0.6002   0.875872
 C 0.6095 0.5229 0.3288   0.825556
 C 0.451 0.5164 0.5297   -0.212273
 C 0.0976 0.2552 0.9266   -0.046376
 C 0.0628 0.6794 0.8275   0.852781
 C 0.4842 0.5967 0.4295   -0.04395
 C 0.1369 0.3564 0.8223   0.830364
 C 0.5459 0.5321 0.4034   -0.226026
 C 0.9233 0.6338 0.0294   -0.219913
 C 0.0638 0.5846 0.9388   -0.060435
 C 0.0242 0.6511 0.9039   -0.232521
 C 0.0019 0.3214 0.0255   -0.249252
 C 0.0914 0.3269 0.8971   -0.2206
 C 0.4285 0.5861 0.5006   -0.047953
 C 0.8477 0.6419 0.0993   0.831828
 C 0.0433 0.2522 0.0002   -0.03748
 C 0.005 0.575 0.0102   -0.034923
 C 0.4048 0.4843 0.6041   0.827423
 C 0.9411 0.3379 0.1002   0.875871
 S 0.038 0.04052 0.9677   0.187973
 S 0.4188 0.79763 0.46022   0.192236
 S 0.5175 0.10983 0.45747   0.199641
 S 0.962 0.95948 0.4677   0.187974
 S 0.5812 0.20237 0.96022   0.192237
 S 0.4825 0.89017 0.95747   0.199641
 S 0.462 0.54052 0.9677   0.187973
 S 0.0812 0.29763 0.46022   0.192237
 S 0.9825 0.60983 0.45747   0.199641
 S 0.538 0.45948 0.4677   0.187974
 S 0.9188 0.70237 0.96022   0.192237
 S 0.0175 0.39017 0.95747   0.199641
 O 0.175 0.0381 0.8169   -0.692537
 O 0.3492 0.9154 0.6453   -0.895107
 O 0.8475 0.9701 0.1473   -0.711735
 O 0.1054 0.9236 0.7837   -0.855482
 O 0.618 0.8693 0.2854   -0.810251
 O 0.5463 0.752 0.3116   -0.74712
 O 0.4105 0.093 0.6142   -0.78163
 O 0.2782 0.8017 0.6107   -0.679004
 O 0.9321 0.0857 0.1158   -0.799254
 O 0.6914 0.1923 0.2784   -0.725213
 O 0.4424 0.214 0.6472   -0.800807
 O 0.618 0.0753 0.3084   -0.791527
 O 0.825 0.9619 0.3169   -0.692537
 O 0.6508 0.0846 0.1453   -0.895107
 O 0.1525 0.0299 0.6473   -0.711735
 O 0.8946 0.0764 0.2837   -0.855482
 O 0.382 0.1307 0.7854   -0.810252
 O 0.4537 0.248 0.8116   -0.74712
 O 0.5895 0.907 0.1142   -0.78163
 O 0.7218 0.1983 0.1107   -0.679004
 O 0.0679 0.9143 0.6158   -0.799254
 O 0.3086 0.8077 0.7784   -0.725213
 O 0.5576 0.786 0.1472   -0.800807
 O 0.382 0.9247 0.8084   -0.791527
 O 0.325 0.5381 0.8169   -0.692537
 O 0.1508 0.4154 0.6453   -0.895107
 O 0.6525 0.4701 0.1473   -0.711735
 O 0.3946 0.4236 0.7837   -0.855482
 O 0.882 0.3693 0.2854   -0.810251
 O 0.9537 0.252 0.3116   -0.74712
 O 0.0895 0.593 0.6142   -0.78163
 O 0.2218 0.3017 0.6107   -0.679004
 O 0.5679 0.5857 0.1158   -0.799254
 O 0.8086 0.6923 0.2784   -0.725213
 O 0.0576 0.714 0.6472   -0.800807
 O 0.882 0.5753 0.3084   -0.791527
 O 0.675 0.4619 0.3169   -0.692537
 O 0.8492 0.5846 0.1453   -0.895107
 O 0.3475 0.5299 0.6473   -0.711735
 O 0.6054 0.5764 0.2837   -0.855482
 O 0.118 0.6307 0.7854   -0.810251
 O 0.0463 0.748 0.8116   -0.74712
 O 0.9105 0.407 0.1142   -0.78163
 O 0.7782 0.6983 0.1107   -0.679004
 O 0.4321 0.4143 0.6158   -0.799254
 O 0.1914 0.3077 0.7784   -0.725213
 O 0.9424 0.286 0.1472   -0.800807
 O 0.118 0.4247 0.8084   -0.791527
