{'_ref': 'TBD', '_srcid': 'CAKYAQ_clean', 'submitters': [{'name': 'Dalar Nazarian Jeff Camp and David Sholl', 'email': 'dalar@gatech.edu jcamp6@gatech.edu'}], '_method': 'VASP DFT with PBE;DDEC'}
data_KInH3(C5O4)3
_symmetry_space_group_name_H-M   'P 1'
_cell_length_a   7.36279951
_cell_length_b   18.11100035
_cell_length_c   18.11100000
_cell_angle_alpha   80.86160161
_cell_angle_beta   85.11600069
_cell_angle_gamma   85.11599942
_symmetry_Int_Tables_number   1
_chemical_formula_structural   KInH3(C5O4)3
_chemical_formula_sum   'K4 In4 H12 C60 O48'
_cell_volume   2369.44485513
_cell_formula_units_Z   4
loop_
 _symmetry_equiv_pos_site_id
 _symmetry_equiv_pos_as_xyz
  1  'x, y, z'
loop_
 _atom_site_label
 _atom_site_fract_x
 _atom_site_fract_y
 _atom_site_fract_z
 _atom_site_charge
 K 0.78291 0.00916 0.57616   0.957568
 K 0.71709 0.42384 0.99084   0.957568
 K 0.21709 0.99084 0.42384   0.95757
 K 0.28291 0.57616 0.00916   0.95757
 In 0.70259 0.86188 0.44771   1.492859
 In 0.79741 0.55229 0.13812   1.492859
 In 0.29741 0.13812 0.55229   1.492859
 In 0.20259 0.44771 0.86188   1.492859
 H 0.5435 0.2574 0.3148   0.125913
 H 0.9447 0.6889 0.2885   0.12304
 H 0.8419 0.0449 0.2445   0.129044
 H 0.9565 0.6852 0.7426   0.125913
 H 0.5553 0.7115 0.3111   0.123043
 H 0.6581 0.7555 0.9551   0.129044
 H 0.4565 0.7426 0.6852   0.125914
 H 0.0553 0.3111 0.7115   0.12304
 H 0.1581 0.9551 0.7555   0.129044
 H 0.0435 0.3148 0.2574   0.125914
 H 0.4447 0.2885 0.6889   0.123043
 H 0.3419 0.2445 0.0449   0.129044
 C 0.6013 0.21411 0.29951   0.016362
 C 0.6962 0.08365 0.32965   -0.025283
 C 0.7094 0.01064 0.38004   0.74217
 C 0.1177 0.74 0.34   0.006128
 C 0.6024 0.14848 0.35028   -0.103377
 C 0.0681 0.69341 0.29281   -0.026823
 C 0.3024 0.74833 0.34673   -0.100146
 C 0.365 0.7984 0.3966   0.698678
 C 0.9659 0.78062 0.38162   0.61424
 C 0.498 0.148 0.4246   0.633927
 C 0.7788 0.08787 0.25827   -0.039067
 C 0.6815 0.2189 0.2273   -0.118478
 C 0.7734 0.15251 0.20571   -0.060603
 C 0.6568 0.2964 0.1816   0.595859
 C 0.8676 0.1427 0.1299   0.545098
 C 0.8987 0.70049 0.78589   0.016361
 C 0.8038 0.67035 0.91635   -0.025283
 C 0.7906 0.61996 0.98936   0.74217
 C 0.3823 0.66 0.26   0.006133
 C 0.8976 0.64972 0.85152   -0.103377
 C 0.4319 0.70719 0.30659   -0.026848
 C 0.1976 0.65327 0.25167   -0.100168
 C 0.135 0.6034 0.2016   0.698681
 C 0.5341 0.61838 0.21938   0.614239
 C 0.002 0.5754 0.852   0.633927
 C 0.7212 0.74173 0.91213   -0.039067
 C 0.8185 0.7727 0.7811   -0.118478
 C 0.7266 0.79429 0.84749   -0.060603
 C 0.8432 0.8184 0.7036   0.595859
 C 0.6324 0.8701 0.8573   0.545098
 C 0.3987 0.78589 0.70049   0.01636
 C 0.3038 0.91635 0.67035   -0.025284
 C 0.2906 0.98936 0.61996   0.74217
 C 0.8823 0.26 0.66   0.006127
 C 0.3976 0.85152 0.64972   -0.103376
 C 0.9319 0.30659 0.70719   -0.026827
 C 0.6976 0.25167 0.65327   -0.100145
 C 0.635 0.2016 0.6034   0.698678
 C 0.0341 0.21938 0.61838   0.61424
 C 0.502 0.852 0.5754   0.633927
 C 0.2212 0.91213 0.74173   -0.039067
 C 0.3185 0.7811 0.7727   -0.118479
 C 0.2266 0.84749 0.79429   -0.060604
 C 0.3432 0.7036 0.8184   0.595857
 C 0.1324 0.8573 0.8701   0.545097
 C 0.1013 0.29951 0.21411   0.01636
 C 0.1962 0.32965 0.08365   -0.025284
 C 0.2094 0.38004 0.01064   0.74217
 C 0.6177 0.34 0.74   0.006133
 C 0.1024 0.35028 0.14848   -0.103376
 C 0.5681 0.29281 0.69341   -0.026851
 C 0.8024 0.34673 0.74833   -0.100167
 C 0.865 0.3966 0.7984   0.69868
 C 0.4659 0.38162 0.78062   0.614239
 C 0.998 0.4246 0.148   0.633927
 C 0.2788 0.25827 0.08787   -0.039067
 C 0.1815 0.2273 0.2189   -0.118479
 C 0.2734 0.20571 0.15251   -0.060604
 C 0.1568 0.1816 0.2964   0.595857
 C 0.3676 0.1299 0.1427   0.545097
 O 0.5999 0.96251 0.37149   -0.616456
 O 0.7109 0.3077 0.11306   -0.456448
 O 0.8844 0.74603 0.43803   -0.482237
 O 0.426 0.20716 0.4447   -0.50224
 O 0.9195 0.84775 0.35747   -0.537376
 O 0.8316 0.99567 0.42289   -0.73135
 O 0.255 0.8306 0.4372   -0.56938
 O 0.4748 0.08545 0.46609   -0.684964
 O 0.5351 0.8047 0.38892   -0.5996
 O 0.5794 0.34679 0.21319   -0.414013
 O 0.8654 0.19724 0.07564   -0.285032
 O 0.9499 0.08305 0.12285   -0.327988
 O 0.9001 0.62851 0.03749   -0.616456
 O 0.7891 0.88694 0.6923   -0.456449
 O 0.6156 0.56197 0.25397   -0.482236
 O 0.074 0.5553 0.79284   -0.50224
 O 0.5805 0.64253 0.15225   -0.537375
 O 0.6684 0.57711 0.00433   -0.73135
 O 0.245 0.5628 0.1694   -0.569379
 O 0.0252 0.53391 0.91455   -0.684964
 O 0.9649 0.61108 0.1953   -0.599601
 O 0.9206 0.78681 0.65321   -0.414012
 O 0.6346 0.92436 0.80276   -0.285032
 O 0.5501 0.87715 0.91695   -0.327988
 O 0.4001 0.03749 0.62851   -0.616456
 O 0.2891 0.6923 0.88694   -0.456448
 O 0.1156 0.25397 0.56197   -0.482237
 O 0.574 0.79284 0.5553   -0.50224
 O 0.0805 0.15225 0.64253   -0.537376
 O 0.1684 0.00433 0.57711   -0.73135
 O 0.745 0.1694 0.5628   -0.56938
 O 0.5252 0.91455 0.53391   -0.684964
 O 0.4649 0.1953 0.61108   -0.5996
 O 0.4206 0.65321 0.78681   -0.414013
 O 0.1346 0.80276 0.92436   -0.285032
 O 0.0501 0.91695 0.87715   -0.327993
 O 0.0999 0.37149 0.96251   -0.616455
 O 0.2109 0.11306 0.3077   -0.456449
 O 0.3844 0.43803 0.74603   -0.482237
 O 0.926 0.4447 0.20716   -0.50224
 O 0.4195 0.35747 0.84775   -0.537375
 O 0.3316 0.42289 0.99567   -0.73135
 O 0.755 0.4372 0.8306   -0.569379
 O 0.9748 0.46609 0.08545   -0.684964
 O 0.0351 0.38892 0.8047   -0.599601
 O 0.0794 0.21319 0.34679   -0.414012
 O 0.3654 0.07564 0.19724   -0.285032
 O 0.4499 0.12285 0.08305   -0.327993
