{'_ref': 'TBD', '_srcid': 'CAKYAQ_clean', 'submitters': [{'name': 'Dalar Nazarian Jeff Camp and David Sholl', 'email': 'dalar@gatech.edu jcamp6@gatech.edu'}], '_method': 'VASP DFT with PBE;DDEC'}
data_ErC12(OF)6
_symmetry_space_group_name_H-M   'P 1'
_cell_length_a   11.67100024
_cell_length_b   11.89159999
_cell_length_c   14.30500000
_cell_angle_alpha   110.63300213
_cell_angle_beta   99.92000134
_cell_angle_gamma   101.35099774
_symmetry_Int_Tables_number   1
_chemical_formula_structural   ErC12(OF)6
_chemical_formula_sum   'Er4 C48 O24 F24'
_cell_volume   1757.35780058
_cell_formula_units_Z   4
loop_
 _symmetry_equiv_pos_site_id
 _symmetry_equiv_pos_as_xyz
  1  'x, y, z'
loop_
 _atom_site_label
 _atom_site_fract_x
 _atom_site_fract_y
 _atom_site_fract_z
 _atom_site_charge
 Er 0.90152 0.0278 0.89531   1.530111
 Er 0.5843 0.9184 0.56925   1.544336
 Er 0.09848 0.9722 0.10469   1.530111
 Er 0.4157 0.0816 0.43075   1.544338
 C 0.8949 0.7502 0.9015   0.732808
 C 0.8298 0.6121 0.8453   -0.221678
 C 0.7107 0.5667 0.8429   0.216879
 C 0.6468 0.443 0.7865   0.214025
 C 0.7018 0.3585 0.7298   -0.23042
 C 0.8218 0.4036 0.7338   0.212148
 C 0.8848 0.5285 0.7901   0.212247
 C 0.6281 0.2282 0.6569   0.711287
 C 0.1438 0.0327 0.8911   0.72222
 C 0.2661 0.0201 0.8797   -0.267096
 C 0.299 0.9117 0.8695   0.229446
 C 0.4115 0.9002 0.8555   0.211316
 C 0.4944 0.9958 0.8501   -0.253695
 C 0.4622 0.1039 0.8601   0.200747
 C 0.3509 0.1161 0.8746   0.219802
 C 0.6144 0.9832 0.8279   0.755492
 C 0.8688 0.9342 0.641   0.746287
 C 0.9859 0.9269 0.6125   -0.24485
 C 0.017 0.8164 0.5828   0.2091
 C 0.1305 0.8107 0.5705   0.228723
 C 0.2203 0.9182 0.5872   -0.271377
 C 0.1877 0.0296 0.616   0.224409
 C 0.0735 0.0332 0.6262   0.20795
 C 0.3433 0.9125 0.577   0.708018
 C 0.1051 0.2498 0.0985   0.732808
 C 0.1702 0.3879 0.1547   -0.221678
 C 0.2893 0.4333 0.1571   0.216878
 C 0.3532 0.557 0.2135   0.214025
 C 0.2982 0.6415 0.2702   -0.23042
 C 0.1782 0.5964 0.2662   0.212148
 C 0.1152 0.4715 0.2099   0.212245
 C 0.3719 0.7718 0.3431   0.711287
 C 0.8562 0.9673 0.1089   0.72222
 C 0.7339 0.9799 0.1203   -0.267096
 C 0.701 0.0883 0.1305   0.229446
 C 0.5885 0.0998 0.1445   0.211317
 C 0.5056 0.0042 0.1499   -0.253694
 C 0.5378 0.8961 0.1399   0.200747
 C 0.6491 0.8839 0.1254   0.219802
 C 0.3856 0.0168 0.1721   0.755492
 C 0.1312 0.0658 0.359   0.746287
 C 0.0141 0.0731 0.3875   -0.244849
 C 0.983 0.1836 0.4172   0.2091
 C 0.8695 0.1893 0.4295   0.228723
 C 0.7797 0.0818 0.4128   -0.271377
 C 0.8123 0.9704 0.384   0.224409
 C 0.9265 0.9668 0.3738   0.20795
 C 0.6567 0.0875 0.423   0.708017
 O 0.8491 0.8187 0.8665   -0.558707
 O 0.9841 0.7823 0.9771   -0.601391
 O 0.6654 0.1386 0.667   -0.571812
 O 0.5388 0.2222 0.5909   -0.582058
 O 0.0918 0.0887 0.8468   -0.561246
 O 0.0917 0.9815 0.9432   -0.699835
 O 0.702 0.0065 0.9029   -0.613075
 O 0.6182 0.9536 0.7369   -0.61164
 O 0.8623 0.9197 0.7218   -0.605516
 O 0.7883 0.9509 0.581   -0.622848
 O 0.4062 0.9927 0.5514   -0.710081
 O 0.3875 0.8335 0.5958   -0.55199
 O 0.1509 0.1813 0.1335   -0.558707
 O 0.0159 0.2177 0.0229   -0.601391
 O 0.3346 0.8614 0.333   -0.571812
 O 0.4612 0.7778 0.4091   -0.582058
 O 0.9082 0.9113 0.1532   -0.561245
 O 0.9083 0.0185 0.0568   -0.699835
 O 0.298 0.9935 0.0971   -0.613076
 O 0.3818 0.0464 0.2631   -0.61164
 O 0.1377 0.0803 0.2782   -0.605516
 O 0.2117 0.0491 0.419   -0.622849
 O 0.5938 0.0073 0.4486   -0.710081
 O 0.6125 0.1665 0.4042   -0.55199
 F 0.653 0.6438 0.8954   -0.113261
 F 0.5304 0.4048 0.7852   -0.107636
 F 0.8769 0.3276 0.6775   -0.103795
 F 0.9985 0.5685 0.786   -0.110335
 F 0.2211 0.8131 0.8691   -0.097182
 F 0.4384 0.793 0.845   -0.109161
 F 0.5402 0.1993 0.8547   -0.107437
 F 0.3269 0.224 0.8848   -0.099826
 F 0.9352 0.7104 0.5666   -0.1145
 F 0.1527 0.6996 0.5405   -0.099133
 F 0.2701 0.1378 0.6397   -0.095781
 F 0.0478 0.1431 0.6551   -0.099989
 F 0.347 0.3562 0.1046   -0.11326
 F 0.4696 0.5952 0.2148   -0.107636
 F 0.1231 0.6724 0.3225   -0.103795
 F 0.0015 0.4315 0.214   -0.110336
 F 0.7789 0.1869 0.1309   -0.097183
 F 0.5616 0.207 0.155   -0.109161
 F 0.4598 0.8007 0.1453   -0.107437
 F 0.6731 0.776 0.1152   -0.099825
 F 0.0648 0.2896 0.4334   -0.1145
 F 0.8473 0.3004 0.4595   -0.099133
 F 0.7299 0.8622 0.3603   -0.095781
 F 0.9522 0.8569 0.3449   -0.099989
