{'_ref': 'TBD', '_srcid': 'CAKYAQ_clean', 'submitters': [{'name': 'Dalar Nazarian Jeff Camp and David Sholl', 'email': 'dalar@gatech.edu jcamp6@gatech.edu'}], '_method': 'VASP DFT with PBE;DDEC'}
data_ErH6(C2O)6
_symmetry_space_group_name_H-M   'P 1'
_cell_length_a   8.51389976
_cell_length_b   10.21650015
_cell_length_c   11.07210000
_cell_angle_alpha   64.20800156
_cell_angle_beta   71.56299755
_cell_angle_gamma   80.75199974
_symmetry_Int_Tables_number   1
_chemical_formula_structural   ErH6(C2O)6
_chemical_formula_sum   'Er2 H12 C24 O12'
_cell_volume   822.324966914
_cell_formula_units_Z   2
loop_
 _symmetry_equiv_pos_site_id
 _symmetry_equiv_pos_as_xyz
  1  'x, y, z'
loop_
 _atom_site_label
 _atom_site_fract_x
 _atom_site_fract_y
 _atom_site_fract_z
 _atom_site_charge
 Er 0.86651 0.06379 0.83768   1.488274
 Er 0.13349 0.93621 0.16231   1.488319
 H 0.994 0.4735 0.2215   0.118607
 H 0.0516 0.7264 0.8104   0.109043
 H 0.4617 0.1496 0.6174   0.083577
 H 0.2741 0.8843 0.5149   0.108482
 H 0.7791 0.452 0.4152   0.102439
 H 0.3607 0.3658 0.7335   0.106375
 H 0.006 0.5265 0.7785   0.1186
 H 0.9484 0.2736 0.1896   0.109022
 H 0.5383 0.8504 0.3826   0.083579
 H 0.7259 0.1157 0.4851   0.108474
 H 0.2209 0.548 0.5848   0.102451
 H 0.6393 0.6342 0.2665   0.106384
 C 0.056 0.7464 0.0428   0.702197
 C 0.0276 0.6192 0.0195   -0.088807
 C 0.9965 0.4843 0.1312   -0.05184
 C 0.0307 0.6344 0.8875   -0.068403
 C 0.1736 0.0465 0.6614   0.626657
 C 0.3427 0.0211 0.5778   -0.096667
 C 0.4776 0.0889 0.5693   -0.044046
 C 0.3656 0.9314 0.5087   -0.062067
 C 0.6773 0.2725 0.6787   0.641217
 C 0.5845 0.3919 0.5873   -0.109948
 C 0.6648 0.4715 0.4501   -0.04037
 C 0.4178 0.4201 0.6387   -0.040928
 C 0.944 0.2536 0.9572   0.702237
 C 0.9724 0.3808 0.9805   -0.088814
 C 0.0035 0.5157 0.8688   -0.051806
 C 0.9693 0.3656 0.1125   -0.068381
 C 0.8264 0.9535 0.3386   0.626518
 C 0.6573 0.9789 0.4222   -0.096707
 C 0.5224 0.9111 0.4307   -0.044022
 C 0.6344 0.0686 0.4913   -0.062043
 C 0.3227 0.7275 0.3213   0.641234
 C 0.4155 0.6081 0.4127   -0.109929
 C 0.3352 0.5285 0.5499   -0.040379
 C 0.5822 0.5799 0.3613   -0.040947
 O 0.0159 0.8728 0.967   -0.680735
 O 0.1218 0.7235 0.1365   -0.581474
 O 0.0515 0.9892 0.6634   -0.546213
 O 0.155 0.1224 0.7302   -0.533183
 O 0.8266 0.2462 0.6268   -0.546015
 O 0.605 0.1965 0.8059   -0.596277
 O 0.9841 0.1272 0.033   -0.680791
 O 0.8782 0.2765 0.8635   -0.581472
 O 0.9485 0.0108 0.3366   -0.546005
 O 0.845 0.8776 0.2698   -0.532972
 O 0.1734 0.7538 0.3732   -0.546073
 O 0.395 0.8035 0.1941   -0.596368
