{'_ref': 'TBD', '_srcid': 'CAKYAQ_clean', 'submitters': [{'name': 'Dalar Nazarian Jeff Camp and David Sholl', 'email': 'dalar@gatech.edu jcamp6@gatech.edu'}], '_method': 'VASP DFT with PBE;DDEC'}
data_Zn3H30C46(NO2)6
_symmetry_space_group_name_H-M   'P 1'
_cell_length_a   11.25300000
_cell_length_b   18.17200000
_cell_length_c   25.16100000
_cell_angle_alpha   90.00000000
_cell_angle_beta   90.00000000
_cell_angle_gamma   90.00000000
_symmetry_Int_Tables_number   1
_chemical_formula_structural   Zn3H30C46(NO2)6
_chemical_formula_sum   'Zn12 H120 C184 N24 O48'
_cell_volume   5145.16071208
_cell_formula_units_Z   4
loop_
 _symmetry_equiv_pos_site_id
 _symmetry_equiv_pos_as_xyz
  1  'x, y, z'
loop_
 _atom_site_label
 _atom_site_fract_x
 _atom_site_fract_y
 _atom_site_fract_z
 _atom_site_charge
 Zn 0.62027 0.92641 0.02537   1.025306
 Zn 0.37973 0.92641 0.47463   1.025306
 Zn 0.62027 0.57359 0.97463   1.025306
 Zn 0.37973 0.57359 0.52537   1.025306
 Zn 0.37973 0.07359 0.97463   1.025306
 Zn 0.62027 0.07359 0.52537   1.025306
 Zn 0.37973 0.42641 0.02537   1.025306
 Zn 0.62027 0.42641 0.47463   1.025306
 Zn 0.0 0.70985 0.75   1.018634
 Zn 0.0 0.79015 0.25   1.018634
 Zn 0.0 0.29015 0.25   1.018634
 Zn 0.0 0.20985 0.75   1.018634
 H 0.5101 0.7928 0.9487   0.089185
 H 0.2951 0.6871 0.848   0.09671
 H 0.2748 0.906 0.8608   0.100171
 H 0.7355 0.9851 0.9219   0.142831
 H 0.8731 0.0171 0.857   0.11497
 H 0.0727 0.9889 0.8675   0.109406
 H 0.1406 0.928 0.9411   0.106844
 H 0.9526 0.8694 0.1402   0.06746
 H 0.7345 0.7502 0.0492   0.106511
 H 0.7092 0.6711 0.1198   0.138973
 H 0.8103 0.6914 0.1975   0.087821
 H 0.1635 0.8655 0.0243   0.109179
 H 0.1015 0.849 0.0788   0.075573
 H 0.0356 0.7347 0.0458   0.066838
 H 0.1746 0.7392 0.0451   0.093504
 H 0.4899 0.7928 0.5513   0.089185
 H 0.7049 0.6871 0.652   0.09671
 H 0.7252 0.906 0.6392   0.100172
 H 0.2645 0.9851 0.5781   0.142831
 H 0.1269 0.0171 0.643   0.11497
 H 0.9273 0.9889 0.6325   0.109406
 H 0.8594 0.928 0.5589   0.106844
 H 0.0474 0.8694 0.3598   0.06746
 H 0.2655 0.7502 0.4508   0.106511
 H 0.2908 0.6711 0.3802   0.138973
 H 0.1897 0.6914 0.3025   0.087821
 H 0.8365 0.8655 0.4757   0.109179
 H 0.8985 0.849 0.4212   0.075573
 H 0.9644 0.7347 0.4542   0.066838
 H 0.8254 0.7392 0.4549   0.093504
 H 0.5101 0.7072 0.0513   0.089185
 H 0.2951 0.8129 0.152   0.09671
 H 0.2748 0.594 0.1392   0.100171
 H 0.7355 0.5149 0.0781   0.14283
 H 0.8731 0.4829 0.143   0.11497
 H 0.0727 0.5111 0.1325   0.109406
 H 0.1406 0.572 0.0589   0.106844
 H 0.9526 0.6306 0.8598   0.06746
 H 0.7345 0.7498 0.9508   0.106512
 H 0.7092 0.8289 0.8802   0.138973
 H 0.8103 0.8086 0.8025   0.087821
 H 0.1635 0.6345 0.9757   0.109179
 H 0.1015 0.651 0.9212   0.075573
 H 0.0356 0.7653 0.9542   0.066838
 H 0.1746 0.7608 0.9549   0.093504
 H 0.4899 0.7072 0.4487   0.089185
 H 0.7049 0.8129 0.348   0.09671
 H 0.7252 0.594 0.3608   0.100172
 H 0.2645 0.5149 0.4219   0.14283
 H 0.1269 0.4829 0.357   0.11497
 H 0.9273 0.5111 0.3675   0.109406
 H 0.8594 0.572 0.4411   0.106844
 H 0.0474 0.6306 0.6402   0.06746
 H 0.2655 0.7498 0.5492   0.106512
 H 0.2908 0.8289 0.6198   0.138973
 H 0.1897 0.8086 0.6975   0.087821
 H 0.8365 0.6345 0.5243   0.109179
 H 0.8985 0.651 0.5788   0.075573
 H 0.9644 0.7653 0.5458   0.066838
 H 0.8254 0.7608 0.5451   0.093504
 H 0.4899 0.2072 0.0513   0.089185
 H 0.7049 0.3129 0.152   0.09671
 H 0.7252 0.094 0.1392   0.100171
 H 0.2645 0.0149 0.0781   0.142831
 H 0.1269 0.9829 0.143   0.11497
 H 0.9273 0.0111 0.1325   0.109406
 H 0.8594 0.072 0.0589   0.106844
 H 0.0474 0.1306 0.8598   0.06746
 H 0.2655 0.2498 0.9508   0.106511
 H 0.2908 0.3289 0.8802   0.138973
 H 0.1897 0.3086 0.8025   0.087821
 H 0.8365 0.1345 0.9757   0.109179
 H 0.8985 0.151 0.9212   0.075573
 H 0.9644 0.2653 0.9542   0.066838
 H 0.8254 0.2608 0.9549   0.093504
 H 0.5101 0.2072 0.4487   0.089185
 H 0.2951 0.3129 0.348   0.09671
 H 0.2748 0.094 0.3608   0.100172
 H 0.7355 0.0149 0.4219   0.142831
 H 0.8731 0.9829 0.357   0.11497
 H 0.0727 0.0111 0.3675   0.109406
 H 0.1406 0.072 0.4411   0.106844
 H 0.9526 0.1306 0.6402   0.06746
 H 0.7345 0.2498 0.5492   0.106511
 H 0.7092 0.3289 0.6198   0.138973
 H 0.8103 0.3086 0.6975   0.087821
 H 0.1635 0.1345 0.5243   0.109179
 H 0.1015 0.151 0.5788   0.075573
 H 0.0356 0.2653 0.5458   0.066838
 H 0.1746 0.2608 0.5451   0.093504
 H 0.4899 0.2928 0.9487   0.089185
 H 0.7049 0.1871 0.848   0.09671
 H 0.7252 0.406 0.8608   0.100171
 H 0.2645 0.4851 0.9219   0.14283
 H 0.1269 0.5171 0.857   0.11497
 H 0.9273 0.4889 0.8675   0.109406
 H 0.8594 0.428 0.9411   0.106844
 H 0.0474 0.3694 0.1402   0.06746
 H 0.2655 0.2502 0.0492   0.106512
 H 0.2908 0.1711 0.1198   0.138973
 H 0.1897 0.1914 0.1975   0.087821
 H 0.8365 0.3655 0.0243   0.109179
 H 0.8985 0.349 0.0788   0.075573
 H 0.9644 0.2347 0.0458   0.066838
 H 0.8254 0.2392 0.0451   0.093504
 H 0.5101 0.2928 0.5513   0.089185
 H 0.2951 0.1871 0.652   0.09671
 H 0.2748 0.406 0.6392   0.100172
 H 0.7355 0.4851 0.5781   0.14283
 H 0.8731 0.5171 0.643   0.11497
 H 0.0727 0.4889 0.6325   0.109406
 H 0.1406 0.428 0.5589   0.106844
 H 0.9526 0.3694 0.3598   0.06746
 H 0.7345 0.2502 0.4508   0.106512
 H 0.7092 0.1711 0.3802   0.138973
 H 0.8103 0.1914 0.3025   0.087821
 H 0.1635 0.3655 0.4757   0.109179
 H 0.1015 0.349 0.4212   0.075573
 H 0.0356 0.2347 0.4542   0.066838
 H 0.1746 0.2392 0.4549   0.093504
 C 0.4364 0.9292 0.9364   0.744247
 C 0.3977 0.8607 0.9089   -0.195055
 C 0.4494 0.7937 0.9236   0.007467
 C 0.4106 0.7294 0.9011   -0.168027
 C 0.3214 0.7309 0.8631   0.015542
 C 0.2712 0.7969 0.8473   -0.164899
 C 0.3091 0.8615 0.8707   0.01929
 C 0.1727 0.7963 0.8067   0.68222
 C 0.4638 0.6577 0.918   0.682275
 C 0.8558 0.9323 0.9687   0.16135
 C 0.8151 0.9722 0.9253   -0.159507
 C 0.8978 0.992 0.8872   -0.088004
 C 0.0191 0.9746 0.8937   -0.071553
 C 0.0601 0.9378 0.9368   -0.135092
 C 0.9761 0.915 0.9744   0.034251
 C 0.8741 0.8666 0.04081   0.310364
 C 0.8492 0.8191 0.0871   -0.135886
 C 0.9037 0.8287 0.1355   0.16212
 C 0.7739 0.7584 0.0811   0.036241
 C 0.7594 0.7115 0.1228   -0.162483
 C 0.8195 0.7245 0.1696   0.217244
 C 0.0962 0.8412 0.0407   -0.01425
 C 0.1028 0.7589 0.0292   -0.16182
 C 0.5636 0.9292 0.5636   0.744247
 C 0.6023 0.8607 0.5911   -0.195055
 C 0.5506 0.7937 0.5764   0.007467
 C 0.5894 0.7294 0.5989   -0.168027
 C 0.6786 0.7309 0.6369   0.015541
 C 0.7288 0.7969 0.6527   -0.164899
 C 0.6909 0.8615 0.6293   0.01929
 C 0.8273 0.7963 0.6933   0.68222
 C 0.5362 0.6577 0.582   0.682275
 C 0.1442 0.9323 0.5313   0.16135
 C 0.1849 0.9722 0.5747   -0.159507
 C 0.1022 0.992 0.6128   -0.088004
 C 0.9809 0.9746 0.6063   -0.071553
 C 0.9399 0.9378 0.5632   -0.135092
 C 0.0239 0.915 0.5256   0.034251
 C 0.1259 0.8666 0.45919   0.310364
 C 0.1508 0.8191 0.4129   -0.135886
 C 0.0963 0.8287 0.3645   0.16212
 C 0.2261 0.7584 0.4189   0.036241
 C 0.2406 0.7115 0.3772   -0.162483
 C 0.1805 0.7245 0.3304   0.217244
 C 0.9038 0.8412 0.4593   -0.01425
 C 0.8972 0.7589 0.4708   -0.16182
 C 0.4364 0.5708 0.0636   0.744247
 C 0.3977 0.6393 0.0911   -0.195055
 C 0.4494 0.7063 0.0764   0.007467
 C 0.4106 0.7706 0.0989   -0.168027
 C 0.3214 0.7691 0.1369   0.015541
 C 0.2712 0.7031 0.1527   -0.164899
 C 0.3091 0.6385 0.1293   0.01929
 C 0.1727 0.7037 0.1933   0.68222
 C 0.4638 0.8423 0.082   0.682275
 C 0.8558 0.5677 0.0313   0.16135
 C 0.8151 0.5278 0.0747   -0.159507
 C 0.8978 0.508 0.1128   -0.088004
 C 0.0191 0.5254 0.1063   -0.071553
 C 0.0601 0.5622 0.0632   -0.135092
 C 0.9761 0.585 0.0256   0.034251
 C 0.8741 0.6334 0.95919   0.310364
 C 0.8492 0.6809 0.9129   -0.135886
 C 0.9037 0.6713 0.8645   0.16212
 C 0.7739 0.7416 0.9189   0.036241
 C 0.7594 0.7885 0.8772   -0.162483
 C 0.8195 0.7755 0.8304   0.217243
 C 0.0962 0.6588 0.9593   -0.01425
 C 0.1028 0.7411 0.9708   -0.161821
 C 0.5636 0.5708 0.4364   0.744247
 C 0.6023 0.6393 0.4089   -0.195055
 C 0.5506 0.7063 0.4236   0.007467
 C 0.5894 0.7706 0.4011   -0.168027
 C 0.6786 0.7691 0.3631   0.015541
 C 0.7288 0.7031 0.3473   -0.164899
 C 0.6909 0.6385 0.3707   0.01929
 C 0.8273 0.7037 0.3067   0.68222
 C 0.5362 0.8423 0.418   0.682275
 C 0.1442 0.5677 0.4687   0.16135
 C 0.1849 0.5278 0.4253   -0.159507
 C 0.1022 0.508 0.3872   -0.088004
 C 0.9809 0.5254 0.3937   -0.071553
 C 0.9399 0.5622 0.4368   -0.135092
 C 0.0239 0.585 0.4744   0.034251
 C 0.1259 0.6334 0.54081   0.310364
 C 0.1508 0.6809 0.5871   -0.135886
 C 0.0963 0.6713 0.6355   0.16212
 C 0.2261 0.7416 0.5811   0.036241
 C 0.2406 0.7885 0.6228   -0.162483
 C 0.1805 0.7755 0.6696   0.217243
 C 0.9038 0.6588 0.5407   -0.01425
 C 0.8972 0.7411 0.5292   -0.161821
 C 0.5636 0.0708 0.0636   0.744247
 C 0.6023 0.1393 0.0911   -0.195055
 C 0.5506 0.2063 0.0764   0.007467
 C 0.5894 0.2706 0.0989   -0.168027
 C 0.6786 0.2691 0.1369   0.015541
 C 0.7288 0.2031 0.1527   -0.164899
 C 0.6909 0.1385 0.1293   0.01929
 C 0.8273 0.2037 0.1933   0.68222
 C 0.5362 0.3423 0.082   0.682275
 C 0.1442 0.0677 0.0313   0.16135
 C 0.1849 0.0278 0.0747   -0.159507
 C 0.1022 0.008 0.1128   -0.088004
 C 0.9809 0.0254 0.1063   -0.071552
 C 0.9399 0.0622 0.0632   -0.135092
 C 0.0239 0.085 0.0256   0.034251
 C 0.1259 0.1334 0.95919   0.310364
 C 0.1508 0.1809 0.9129   -0.135886
 C 0.0963 0.1713 0.8645   0.16212
 C 0.2261 0.2416 0.9189   0.036241
 C 0.2406 0.2885 0.8772   -0.162483
 C 0.1805 0.2755 0.8304   0.217244
 C 0.9038 0.1588 0.9593   -0.01425
 C 0.8972 0.2411 0.9708   -0.16182
 C 0.4364 0.0708 0.4364   0.744247
 C 0.3977 0.1393 0.4089   -0.195055
 C 0.4494 0.2063 0.4236   0.007467
 C 0.4106 0.2706 0.4011   -0.168027
 C 0.3214 0.2691 0.3631   0.015541
 C 0.2712 0.2031 0.3473   -0.164899
 C 0.3091 0.1385 0.3707   0.01929
 C 0.1727 0.2037 0.3067   0.68222
 C 0.4638 0.3423 0.418   0.682275
 C 0.8558 0.0677 0.4687   0.16135
 C 0.8151 0.0278 0.4253   -0.159507
 C 0.8978 0.008 0.3872   -0.088004
 C 0.0191 0.0254 0.3937   -0.071552
 C 0.0601 0.0622 0.4368   -0.135092
 C 0.9761 0.085 0.4744   0.034251
 C 0.8741 0.1334 0.54081   0.310364
 C 0.8492 0.1809 0.5871   -0.135886
 C 0.9037 0.1713 0.6355   0.16212
 C 0.7739 0.2416 0.5811   0.036241
 C 0.7594 0.2885 0.6228   -0.162483
 C 0.8195 0.2755 0.6696   0.217244
 C 0.0962 0.1588 0.5407   -0.01425
 C 0.1028 0.2411 0.5292   -0.16182
 C 0.5636 0.4292 0.9364   0.744247
 C 0.6023 0.3607 0.9089   -0.195055
 C 0.5506 0.2937 0.9236   0.007467
 C 0.5894 0.2294 0.9011   -0.168027
 C 0.6786 0.2309 0.8631   0.015541
 C 0.7288 0.2969 0.8473   -0.164899
 C 0.6909 0.3615 0.8707   0.01929
 C 0.8273 0.2963 0.8067   0.68222
 C 0.5362 0.1577 0.918   0.682275
 C 0.1442 0.4323 0.9687   0.16135
 C 0.1849 0.4722 0.9253   -0.159507
 C 0.1022 0.492 0.8872   -0.088004
 C 0.9809 0.4746 0.8937   -0.071552
 C 0.9399 0.4378 0.9368   -0.135092
 C 0.0239 0.415 0.9744   0.034251
 C 0.1259 0.3666 0.04081   0.310364
 C 0.1508 0.3191 0.0871   -0.135886
 C 0.0963 0.3287 0.1355   0.16212
 C 0.2261 0.2584 0.0811   0.036241
 C 0.2406 0.2115 0.1228   -0.162483
 C 0.1805 0.2245 0.1696   0.217243
 C 0.9038 0.3412 0.0407   -0.014249
 C 0.8972 0.2589 0.0292   -0.161821
 C 0.4364 0.4292 0.5636   0.744247
 C 0.3977 0.3607 0.5911   -0.195055
 C 0.4494 0.2937 0.5764   0.007467
 C 0.4106 0.2294 0.5989   -0.168027
 C 0.3214 0.2309 0.6369   0.015541
 C 0.2712 0.2969 0.6527   -0.164899
 C 0.3091 0.3615 0.6293   0.01929
 C 0.1727 0.2963 0.6933   0.68222
 C 0.4638 0.1577 0.582   0.682275
 C 0.8558 0.4323 0.5313   0.16135
 C 0.8151 0.4722 0.5747   -0.159507
 C 0.8978 0.492 0.6128   -0.088004
 C 0.0191 0.4746 0.6063   -0.071552
 C 0.0601 0.4378 0.5632   -0.135092
 C 0.9761 0.415 0.5256   0.034251
 C 0.8741 0.3666 0.45919   0.310364
 C 0.8492 0.3191 0.4129   -0.135886
 C 0.9037 0.3287 0.3645   0.16212
 C 0.7739 0.2584 0.4189   0.036241
 C 0.7594 0.2115 0.3772   -0.162483
 C 0.8195 0.2245 0.3304   0.217243
 C 0.0962 0.3412 0.4593   -0.014249
 C 0.1028 0.2589 0.4708   -0.161821
 N 0.7938 0.90098 0.01081   -0.477563
 N 0.9856 0.8746 0.02083   -0.05223
 N 0.8896 0.7818 0.17639   -0.36699
 N 0.2062 0.90098 0.48919   -0.477563
 N 0.0144 0.8746 0.47917   -0.05223
 N 0.1104 0.7818 0.32361   -0.36699
 N 0.7938 0.59902 0.98919   -0.477563
 N 0.9856 0.6254 0.97917   -0.05223
 N 0.8896 0.7182 0.82361   -0.36699
 N 0.2062 0.59902 0.51081   -0.477563
 N 0.0144 0.6254 0.52083   -0.05223
 N 0.1104 0.7182 0.67639   -0.36699
 N 0.2062 0.09902 0.98919   -0.477563
 N 0.0144 0.1254 0.97917   -0.05223
 N 0.1104 0.2182 0.82361   -0.36699
 N 0.7938 0.09902 0.51081   -0.477563
 N 0.9856 0.1254 0.52083   -0.05223
 N 0.8896 0.2182 0.67639   -0.36699
 N 0.2062 0.40098 0.01081   -0.477563
 N 0.0144 0.3746 0.02083   -0.05223
 N 0.1104 0.2818 0.17639   -0.36699
 N 0.7938 0.40098 0.48919   -0.477563
 N 0.9856 0.3746 0.47917   -0.05223
 N 0.8896 0.2818 0.32361   -0.36699
 O 0.5388 0.93325 0.95591   -0.643715
 O 0.3606 0.98033 0.93875   -0.608576
 O 0.1371 0.733 0.79379   -0.663486
 O 0.1351 0.855 0.78827   -0.598279
 O 0.4204 0.5992 0.9038   -0.60111
 O 0.5524 0.66196 0.94777   -0.644685
 O 0.4612 0.93325 0.54409   -0.643715
 O 0.6394 0.98033 0.56125   -0.608576
 O 0.8629 0.733 0.70621   -0.663486
 O 0.8649 0.855 0.71173   -0.598279
 O 0.5796 0.5992 0.5962   -0.60111
 O 0.4476 0.66196 0.55223   -0.644685
 O 0.5388 0.56675 0.04409   -0.643715
 O 0.3606 0.51967 0.06125   -0.608576
 O 0.1371 0.767 0.20621   -0.663486
 O 0.1351 0.645 0.21173   -0.598279
 O 0.4204 0.9008 0.0962   -0.60111
 O 0.5524 0.83804 0.05223   -0.644685
 O 0.4612 0.56675 0.45591   -0.643715
 O 0.6394 0.51967 0.43875   -0.608576
 O 0.8629 0.767 0.29379   -0.663486
 O 0.8649 0.645 0.28827   -0.598279
 O 0.5796 0.9008 0.4038   -0.60111
 O 0.4476 0.83804 0.44777   -0.644685
 O 0.4612 0.06675 0.04409   -0.643715
 O 0.6394 0.01967 0.06125   -0.608576
 O 0.8629 0.267 0.20621   -0.663486
 O 0.8649 0.145 0.21173   -0.598279
 O 0.5796 0.4008 0.0962   -0.60111
 O 0.4476 0.33804 0.05223   -0.644685
 O 0.5388 0.06675 0.45591   -0.643715
 O 0.3606 0.01967 0.43875   -0.608576
 O 0.1371 0.267 0.29379   -0.663486
 O 0.1351 0.145 0.28827   -0.598279
 O 0.4204 0.4008 0.4038   -0.60111
 O 0.5524 0.33804 0.44777   -0.644685
 O 0.4612 0.43325 0.95591   -0.643715
 O 0.6394 0.48033 0.93875   -0.608576
 O 0.8629 0.233 0.79379   -0.663486
 O 0.8649 0.355 0.78827   -0.598279
 O 0.5796 0.0992 0.9038   -0.60111
 O 0.4476 0.16196 0.94777   -0.644685
 O 0.5388 0.43325 0.54409   -0.643715
 O 0.3606 0.48033 0.56125   -0.608576
 O 0.1371 0.233 0.70621   -0.663486
 O 0.1351 0.355 0.71173   -0.598279
 O 0.4204 0.0992 0.5962   -0.60111
 O 0.5524 0.16196 0.55223   -0.644685
