{'_ref': 'TBD', '_srcid': 'CAKYAQ_clean', 'submitters': [{'name': 'Dalar Nazarian Jeff Camp and David Sholl', 'email': 'dalar@gatech.edu jcamp6@gatech.edu'}], '_method': 'VASP DFT with PBE;DDEC'}
data_ZnH7C5N5O2
_symmetry_space_group_name_H-M   'P 1'
_cell_length_a   6.97410000
_cell_length_b   21.79000000
_cell_length_c   21.79000000
_cell_angle_alpha   90.00000000
_cell_angle_beta   90.00000000
_cell_angle_gamma   90.00000000
_symmetry_Int_Tables_number   1
_chemical_formula_structural   ZnH7C5N5O2
_chemical_formula_sum   'Zn16 H112 C80 N80 O32'
_cell_volume   3311.33127381
_cell_formula_units_Z   16
loop_
 _symmetry_equiv_pos_site_id
 _symmetry_equiv_pos_as_xyz
  1  'x, y, z'
loop_
 _atom_site_label
 _atom_site_fract_x
 _atom_site_fract_y
 _atom_site_fract_z
 _atom_site_charge
 Zn 0.06422 0.11863 0.139204   0.786258
 Zn 0.56422 0.38137 0.860796   0.786258
 Zn 0.31422 0.610796 0.36863   0.786258
 Zn 0.81422 0.889204 0.63137   0.786258
 Zn 0.56422 0.61863 0.639204   0.786258
 Zn 0.06422 0.88137 0.360796   0.786258
 Zn 0.81422 0.110796 0.86863   0.786258
 Zn 0.31422 0.389204 0.13137   0.786258
 Zn 0.93578 0.88137 0.860796   0.786258
 Zn 0.43578 0.61863 0.139204   0.786258
 Zn 0.68578 0.389204 0.63137   0.786258
 Zn 0.18578 0.110796 0.36863   0.786258
 Zn 0.43578 0.38137 0.360796   0.786258
 Zn 0.93578 0.11863 0.639204   0.786258
 Zn 0.18578 0.889204 0.13137   0.786258
 Zn 0.68578 0.610796 0.86863   0.786258
 H 0.4182 0.1223 0.1101   0.253455
 H 0.9182 0.3777 0.8899   0.253455
 H 0.6682 0.6399 0.3723   0.253455
 H 0.1682 0.8601 0.6277   0.253455
 H 0.9182 0.6223 0.6101   0.253455
 H 0.4182 0.8777 0.3899   0.253455
 H 0.1682 0.1399 0.8723   0.253455
 H 0.6682 0.3601 0.1277   0.253455
 H 0.5818 0.8777 0.8899   0.253455
 H 0.0818 0.6223 0.1101   0.253455
 H 0.3318 0.3601 0.6277   0.253455
 H 0.8318 0.1399 0.3723   0.253455
 H 0.0818 0.3777 0.3899   0.253455
 H 0.5818 0.1223 0.6101   0.253455
 H 0.8318 0.8601 0.1277   0.253455
 H 0.3318 0.6399 0.8723   0.253455
 H 0.4175 0.0621 0.2197   0.130374
 H 0.9175 0.4379 0.7803   0.130374
 H 0.6675 0.5303 0.3121   0.130374
 H 0.1675 0.9697 0.6879   0.130374
 H 0.9175 0.5621 0.7197   0.130374
 H 0.4175 0.9379 0.2803   0.130374
 H 0.1675 0.0303 0.8121   0.130374
 H 0.6675 0.4697 0.1879   0.130374
 H 0.5825 0.9379 0.7803   0.130374
 H 0.0825 0.5621 0.2197   0.130374
 H 0.3325 0.4697 0.6879   0.130374
 H 0.8325 0.0303 0.3121   0.130374
 H 0.0825 0.4379 0.2803   0.130374
 H 0.5825 0.0621 0.7197   0.130374
 H 0.8325 0.9697 0.1879   0.130374
 H 0.3325 0.5303 0.8121   0.130374
 H 0.5617 0.0527 0.1652   0.105806
 H 0.0617 0.4473 0.8348   0.105806
 H 0.8117 0.5848 0.3027   0.105806
 H 0.3117 0.9152 0.6973   0.105806
 H 0.0617 0.5527 0.6652   0.105806
 H 0.5617 0.9473 0.3348   0.105806
 H 0.3117 0.0848 0.8027   0.105806
 H 0.8117 0.4152 0.1973   0.105806
 H 0.4383 0.9473 0.8348   0.105806
 H 0.9383 0.5527 0.1652   0.105806
 H 0.1883 0.4152 0.6973   0.105806
 H 0.6883 0.0848 0.3027   0.105806
 H 0.9383 0.4473 0.3348   0.105806
 H 0.4383 0.0527 0.6652   0.105806
 H 0.6883 0.9152 0.1973   0.105806
 H 0.1883 0.5848 0.8027   0.105806
 H 0.4898 0.2649 0.1732   0.13136
 H 0.9898 0.2351 0.8268   0.13136
 H 0.7398 0.5768 0.5149   0.13136
 H 0.2398 0.9232 0.4851   0.13136
 H 0.9898 0.7649 0.6732   0.13136
 H 0.4898 0.7351 0.3268   0.13136
 H 0.2398 0.0768 0.0149   0.13136
 H 0.7398 0.4232 0.9851   0.13136
 H 0.5102 0.7351 0.8268   0.13136
 H 0.0102 0.7649 0.1732   0.13136
 H 0.2602 0.4232 0.4851   0.13136
 H 0.7602 0.0768 0.5149   0.13136
 H 0.0102 0.2351 0.3268   0.13136
 H 0.5102 0.2649 0.6732   0.13136
 H 0.7602 0.9232 0.9851   0.13136
 H 0.2602 0.5768 0.0149   0.13136
 H 0.4777 0.23 0.1105   0.12347
 H 0.9777 0.27 0.8895   0.12347
 H 0.7277 0.6395 0.48   0.12347
 H 0.2277 0.8605 0.52   0.12347
 H 0.9777 0.73 0.6105   0.12347
 H 0.4777 0.77 0.3895   0.12347
 H 0.2277 0.1395 0.98   0.12347
 H 0.7277 0.3605 0.02   0.12347
 H 0.5223 0.77 0.8895   0.12347
 H 0.0223 0.73 0.1105   0.12347
 H 0.2723 0.3605 0.52   0.12347
 H 0.7723 0.1395 0.48   0.12347
 H 0.0223 0.27 0.3895   0.12347
 H 0.5223 0.23 0.6105   0.12347
 H 0.7723 0.8605 0.02   0.12347
 H 0.2723 0.6395 0.98   0.12347
 H 0.5874 0.1654 0.1903   0.066188
 H 0.0874 0.3346 0.8097   0.066188
 H 0.8374 0.5597 0.4154   0.066188
 H 0.3374 0.9403 0.5846   0.066188
 H 0.0874 0.6654 0.6903   0.066188
 H 0.5874 0.8346 0.3097   0.066188
 H 0.3374 0.0597 0.9154   0.066188
 H 0.8374 0.4403 0.0846   0.066188
 H 0.4126 0.8346 0.8097   0.066188
 H 0.9126 0.6654 0.1903   0.066188
 H 0.1626 0.4403 0.5846   0.066188
 H 0.6626 0.0597 0.4154   0.066188
 H 0.9126 0.3346 0.3097   0.066188
 H 0.4126 0.1654 0.6903   0.066188
 H 0.6626 0.9403 0.0846   0.066188
 H 0.1626 0.5597 0.9154   0.066188
 H 0.391 0.1742 0.2244   0.073975
 H 0.891 0.3258 0.7756   0.073975
 H 0.641 0.5256 0.4242   0.073975
 H 0.141 0.9744 0.5758   0.073975
 H 0.891 0.6742 0.7244   0.073975
 H 0.391 0.8258 0.2756   0.073975
 H 0.141 0.0256 0.9242   0.073975
 H 0.641 0.4744 0.0758   0.073975
 H 0.609 0.8258 0.7756   0.073975
 H 0.109 0.6742 0.2244   0.073975
 H 0.359 0.4744 0.5758   0.073975
 H 0.859 0.0256 0.4242   0.073975
 H 0.109 0.3258 0.2756   0.073975
 H 0.609 0.1742 0.7244   0.073975
 H 0.859 0.9744 0.0758   0.073975
 H 0.359 0.5256 0.9242   0.073975
 C 0.3042 0.00917 0.1506   0.663381
 C 0.8042 0.49083 0.8494   0.663381
 C 0.5542 0.5994 0.25917   0.663381
 C 0.0542 0.9006 0.74083   0.663381
 C 0.8042 0.50917 0.6506   0.663382
 C 0.3042 0.99083 0.3494   0.663382
 C 0.0542 0.0994 0.75917   0.663382
 C 0.5542 0.4006 0.24083   0.663382
 C 0.6958 0.99083 0.8494   0.663382
 C 0.1958 0.50917 0.1506   0.663382
 C 0.4458 0.4006 0.74083   0.663382
 C 0.9458 0.0994 0.25917   0.663382
 C 0.1958 0.49083 0.3494   0.663382
 C 0.6958 0.00917 0.6506   0.663382
 C 0.9458 0.9006 0.24083   0.663382
 C 0.4458 0.5994 0.75917   0.663382
 C 0.2154 0.25208 0.14457   0.368118
 C 0.7154 0.24792 0.85543   0.368118
 C 0.4654 0.60543 0.50208   0.368118
 C 0.9654 0.89457 0.49792   0.368118
 C 0.7154 0.75208 0.64457   0.368118
 C 0.2154 0.74792 0.35543   0.368118
 C 0.9654 0.10543 0.00208   0.368118
 C 0.4654 0.39457 0.99792   0.368118
 C 0.7846 0.74792 0.85543   0.368118
 C 0.2846 0.75208 0.14457   0.368118
 C 0.5346 0.39457 0.49792   0.368118
 C 0.0346 0.10543 0.50208   0.368118
 C 0.2846 0.24792 0.35543   0.368118
 C 0.7846 0.25208 0.64457   0.368118
 C 0.0346 0.89457 0.99792   0.368118
 C 0.5346 0.60543 0.00208   0.368118
 C 0.4286 0.06051 0.17538   -0.177545
 C 0.9286 0.43949 0.82462   -0.177545
 C 0.6786 0.57462 0.31051   -0.177545
 C 0.1786 0.92538 0.68949   -0.177545
 C 0.9286 0.56051 0.67538   -0.177545
 C 0.4286 0.93949 0.32462   -0.177545
 C 0.1786 0.07462 0.81051   -0.177545
 C 0.6786 0.42538 0.18949   -0.177545
 C 0.5714 0.93949 0.82462   -0.177545
 C 0.0714 0.56051 0.17538   -0.177545
 C 0.3214 0.42538 0.68949   -0.177545
 C 0.8214 0.07462 0.31051   -0.177545
 C 0.0714 0.43949 0.32462   -0.177545
 C 0.5714 0.06051 0.67538   -0.177545
 C 0.8214 0.92538 0.18949   -0.177545
 C 0.3214 0.57462 0.81051   -0.177545
 C 0.4214 0.23301 0.1511   -0.307698
 C 0.9214 0.26699 0.8489   -0.307698
 C 0.6714 0.5989 0.48301   -0.307698
 C 0.1714 0.9011 0.51699   -0.307698
 C 0.9214 0.73301 0.6511   -0.307698
 C 0.4214 0.76699 0.3489   -0.307698
 C 0.1714 0.0989 0.98301   -0.307698
 C 0.6714 0.4011 0.01699   -0.307698
 C 0.5786 0.76699 0.8489   -0.307698
 C 0.0786 0.73301 0.1511   -0.307698
 C 0.3286 0.4011 0.51699   -0.307698
 C 0.8286 0.0989 0.48301   -0.307698
 C 0.0786 0.26699 0.3489   -0.307698
 C 0.5786 0.23301 0.6511   -0.307698
 C 0.8286 0.9011 0.01699   -0.307698
 C 0.3286 0.5989 0.98301   -0.307698
 C 0.4513 0.17231 0.18436   0.07994
 C 0.9513 0.32769 0.81564   0.07994
 C 0.7013 0.56564 0.42231   0.07994
 C 0.2013 0.93436 0.57769   0.07994
 C 0.9513 0.67231 0.68436   0.07994
 C 0.4513 0.82769 0.31564   0.07994
 C 0.2013 0.06564 0.92231   0.07994
 C 0.7013 0.43436 0.07769   0.07994
 C 0.5487 0.82769 0.81564   0.07994
 C 0.0487 0.67231 0.18436   0.07994
 C 0.2987 0.43436 0.57769   0.07994
 C 0.7987 0.06564 0.42231   0.07994
 C 0.0487 0.32769 0.31564   0.07994
 C 0.5487 0.17231 0.68436   0.07994
 C 0.7987 0.93436 0.07769   0.07994
 C 0.2987 0.56564 0.92231   0.07994
 N 0.1576 0.30983 0.13867   -0.288119
 N 0.6576 0.19017 0.86133   -0.288119
 N 0.4076 0.61133 0.55983   -0.288119
 N 0.9076 0.88867 0.44017   -0.288119
 N 0.6576 0.80983 0.63867   -0.288119
 N 0.1576 0.69017 0.36133   -0.288119
 N 0.9076 0.11133 0.05983   -0.288119
 N 0.4076 0.38867 0.94017   -0.288119
 N 0.8424 0.69017 0.86133   -0.288119
 N 0.3424 0.80983 0.13867   -0.288119
 N 0.5924 0.38867 0.44017   -0.288119
 N 0.0924 0.11133 0.55983   -0.288119
 N 0.3424 0.19017 0.36133   -0.288119
 N 0.8424 0.30983 0.63867   -0.288119
 N 0.0924 0.88867 0.94017   -0.288119
 N 0.5924 0.61133 0.05983   -0.288119
 N 0.368 0.12027 0.14864   -0.393875
 N 0.868 0.37973 0.85136   -0.393875
 N 0.618 0.60136 0.37027   -0.393875
 N 0.118 0.89864 0.62973   -0.393875
 N 0.868 0.62027 0.64864   -0.393875
 N 0.368 0.87973 0.35136   -0.393875
 N 0.118 0.10136 0.87027   -0.393875
 N 0.618 0.39864 0.12973   -0.393875
 N 0.632 0.87973 0.85136   -0.393875
 N 0.132 0.62027 0.14864   -0.393875
 N 0.382 0.39864 0.62973   -0.393875
 N 0.882 0.10136 0.37027   -0.393875
 N 0.132 0.37973 0.35136   -0.393875
 N 0.632 0.12027 0.64864   -0.393875
 N 0.882 0.89864 0.12973   -0.393875
 N 0.382 0.60136 0.87027   -0.393875
 N 0.0653 0.21429 0.14388   -0.303966
 N 0.5653 0.28571 0.85612   -0.303966
 N 0.3153 0.60612 0.46429   -0.303966
 N 0.8153 0.89388 0.53571   -0.303966
 N 0.5653 0.71429 0.64388   -0.303966
 N 0.0653 0.78571 0.35612   -0.303966
 N 0.8153 0.10612 0.96429   -0.303966
 N 0.3153 0.39388 0.03571   -0.303966
 N 0.9347 0.78571 0.85612   -0.303966
 N 0.4347 0.71429 0.14388   -0.303966
 N 0.6847 0.39388 0.53571   -0.303966
 N 0.1847 0.10612 0.46429   -0.303966
 N 0.4347 0.28571 0.35612   -0.303966
 N 0.9347 0.21429 0.64388   -0.303966
 N 0.1847 0.89388 0.03571   -0.303966
 N 0.6847 0.60612 0.96429   -0.303966
 N 0.9085 0.25042 0.13787   -0.104524
 N 0.4085 0.24958 0.86213   -0.104524
 N 0.1585 0.61213 0.50042   -0.104524
 N 0.6585 0.88787 0.49958   -0.104524
 N 0.4085 0.75042 0.63787   -0.104524
 N 0.9085 0.74958 0.36213   -0.104524
 N 0.6585 0.11213 0.000419999999998   -0.104524
 N 0.1585 0.38787 0.99958   -0.104524
 N 0.0915 0.74958 0.86213   -0.104524
 N 0.5915 0.75042 0.13787   -0.104524
 N 0.8415 0.38787 0.49958   -0.104524
 N 0.3415 0.11213 0.50042   -0.104524
 N 0.5915 0.24958 0.36213   -0.104524
 N 0.0915 0.25042 0.63787   -0.104524
 N 0.3415 0.88787 0.99958   -0.104524
 N 0.8415 0.61213 0.000419999999998   -0.104524
 N 0.9625 0.30753 0.13449   -0.077392
 N 0.4625 0.19247 0.86551   -0.077392
 N 0.2125 0.61551 0.55753   -0.077392
 N 0.7125 0.88449 0.44247   -0.077392
 N 0.4625 0.80753 0.63449   -0.077392
 N 0.9625 0.69247 0.36551   -0.077392
 N 0.7125 0.11551 0.05753   -0.077392
 N 0.2125 0.38449 0.94247   -0.077392
 N 0.0375 0.69247 0.86551   -0.077392
 N 0.5375 0.80753 0.13449   -0.077392
 N 0.7875 0.38449 0.44247   -0.077392
 N 0.2875 0.11551 0.55753   -0.077392
 N 0.5375 0.19247 0.36551   -0.077392
 N 0.0375 0.30753 0.63449   -0.077392
 N 0.2875 0.88449 0.94247   -0.077392
 N 0.7875 0.61551 0.05753   -0.077392
 O 0.3649 0.95559 0.15729   -0.550045
 O 0.8649 0.54441 0.84271   -0.550045
 O 0.6149 0.59271 0.20559   -0.550045
 O 0.1149 0.90729 0.79441   -0.550045
 O 0.8649 0.45559 0.65729   -0.550045
 O 0.3649 0.04441 0.34271   -0.550045
 O 0.1149 0.09271 0.70559   -0.550045
 O 0.6149 0.40729 0.29441   -0.550045
 O 0.6351 0.04441 0.84271   -0.550045
 O 0.1351 0.45559 0.15729   -0.550045
 O 0.3851 0.40729 0.79441   -0.550045
 O 0.8851 0.09271 0.20559   -0.550045
 O 0.1351 0.54441 0.34271   -0.550045
 O 0.6351 0.95559 0.65729   -0.550045
 O 0.8851 0.90729 0.29441   -0.550045
 O 0.3851 0.59271 0.70559   -0.550045
 O 0.147 0.02236 0.12694   -0.579162
 O 0.647 0.47764 0.87306   -0.579162
 O 0.397 0.62306 0.27236   -0.579162
 O 0.897 0.87694 0.72764   -0.579162
 O 0.647 0.52236 0.62694   -0.579162
 O 0.147 0.97764 0.37306   -0.579162
 O 0.897 0.12306 0.77236   -0.579162
 O 0.397 0.37694 0.22764   -0.579162
 O 0.853 0.97764 0.87306   -0.579162
 O 0.353 0.52236 0.12694   -0.579162
 O 0.603 0.37694 0.72764   -0.579162
 O 0.103 0.12306 0.27236   -0.579162
 O 0.353 0.47764 0.37306   -0.579162
 O 0.853 0.02236 0.62694   -0.579162
 O 0.103 0.87694 0.22764   -0.579162
 O 0.603 0.62306 0.77236   -0.579162
