{'_ref': 'TBD', '_srcid': 'CAKYAQ_clean', 'submitters': [{'name': 'Dalar Nazarian Jeff Camp and David Sholl', 'email': 'dalar@gatech.edu jcamp6@gatech.edu'}], '_method': 'VASP DFT with PBE;DDEC'}
data_ZnH8C14(NO2)2
_symmetry_space_group_name_H-M   'P 1'
_cell_length_a   7.61450000
_cell_length_b   11.13300000
_cell_length_c   16.86880000
_cell_angle_alpha   90.00000000
_cell_angle_beta   90.00000000
_cell_angle_gamma   90.00000000
_symmetry_Int_Tables_number   1
_chemical_formula_structural   ZnH8C14(NO2)2
_chemical_formula_sum   'Zn4 H32 C56 N8 O16'
_cell_volume   1430.00576812
_cell_formula_units_Z   4
loop_
 _symmetry_equiv_pos_site_id
 _symmetry_equiv_pos_as_xyz
  1  'x, y, z'
loop_
 _atom_site_label
 _atom_site_fract_x
 _atom_site_fract_y
 _atom_site_fract_z
 _atom_site_charge
 Zn 0.89771 0.85908 0.03842   0.894638
 Zn 0.60229 0.14092 0.53842   0.894638
 Zn 0.10229 0.35908 0.46158   0.894639
 Zn 0.39771 0.64092 0.96158   0.894639
 H 0.7834 0.7948 0.7841   0.093317
 H 0.7551 0.6074 0.3679   0.13983
 H 0.9842 0.4008 0.1549   0.114147
 H 0.7407 0.827 0.6495   0.134295
 H 0.9874 0.3146 0.28   0.106178
 H 0.7546 0.6944 0.2427   0.092837
 H 0.987 0.124 0.8056   0.103591
 H 0.939 0.174 0.669   0.139776
 H 0.7166 0.2052 0.2841   0.093316
 H 0.7449 0.3926 0.8679   0.13983
 H 0.5158 0.5992 0.6549   0.114146
 H 0.7593 0.173 0.1495   0.134294
 H 0.5126 0.6854 0.78   0.106178
 H 0.7454 0.3056 0.7427   0.092837
 H 0.513 0.876 0.3056   0.103592
 H 0.561 0.826 0.169   0.139776
 H 0.2166 0.2948 0.7159   0.093317
 H 0.2449 0.1074 0.1321   0.139829
 H 0.0158 0.9008 0.3451   0.114146
 H 0.2593 0.327 0.8505   0.134295
 H 0.0126 0.8146 0.22   0.106178
 H 0.2454 0.1944 0.2573   0.092838
 H 0.013 0.624 0.6944   0.103592
 H 0.061 0.674 0.831   0.139776
 H 0.2834 0.7052 0.2159   0.093316
 H 0.2551 0.8926 0.6321   0.13983
 H 0.4842 0.0992 0.8451   0.114146
 H 0.2407 0.673 0.3505   0.134295
 H 0.4874 0.1854 0.72   0.106178
 H 0.2546 0.8056 0.7573   0.092838
 H 0.487 0.376 0.1944   0.103593
 H 0.439 0.326 0.331   0.139775
 C 0.9144 0.085 0.6935   -0.166658
 C 0.8157 0.8677 0.7616   -0.033292
 C 0.8893 0.955 0.8082   -0.090341
 C 0.7996 0.5649 0.3248   -0.127337
 C 0.8689 0.5563 0.1855   -0.097281
 C 0.9374 0.4429 0.1976   -0.024111
 C 0.7889 0.887 0.681   -0.13795
 C 0.8646 0.4502 0.3358   0.163682
 C 0.9128 0.9339 0.8935   0.617925
 C 0.9378 0.3901 0.2727   -0.1488
 C 0.8004 0.6177 0.2496   -0.048882
 C 0.8352 0.9977 0.6483   0.181481
 C 0.938 0.0643 0.774   -0.020343
 C 0.8727 0.6161 0.1055   0.64814
 C 0.5856 0.915 0.1935   -0.166657
 C 0.6843 0.1323 0.2616   -0.033292
 C 0.6107 0.045 0.3082   -0.090341
 C 0.7004 0.4351 0.8248   -0.127337
 C 0.6311 0.4437 0.6855   -0.097281
 C 0.5626 0.5571 0.6976   -0.02411
 C 0.7111 0.113 0.181   -0.13795
 C 0.6354 0.5498 0.8358   0.163682
 C 0.5872 0.0661 0.3935   0.617925
 C 0.5622 0.6099 0.7727   -0.1488
 C 0.6996 0.3823 0.7496   -0.048882
 C 0.6648 0.0023 0.1483   0.181481
 C 0.562 0.9357 0.274   -0.020343
 C 0.6273 0.3839 0.6055   0.64814
 C 0.0856 0.585 0.8065   -0.166658
 C 0.1843 0.3677 0.7384   -0.033292
 C 0.1107 0.455 0.6918   -0.090341
 C 0.2004 0.0649 0.1752   -0.127336
 C 0.1311 0.0563 0.3145   -0.097282
 C 0.0626 0.9429 0.3024   -0.024111
 C 0.2111 0.387 0.819   -0.137951
 C 0.1354 0.9502 0.1642   0.163682
 C 0.0872 0.4339 0.6065   0.617925
 C 0.0622 0.8901 0.2273   -0.1488
 C 0.1996 0.1177 0.2504   -0.048882
 C 0.1648 0.4977 0.8517   0.181481
 C 0.062 0.5643 0.726   -0.020343
 C 0.1273 0.1161 0.3945   0.64814
 C 0.4144 0.415 0.3065   -0.166657
 C 0.3157 0.6323 0.2384   -0.033292
 C 0.3893 0.545 0.1918   -0.090341
 C 0.2996 0.9351 0.6752   -0.127336
 C 0.3689 0.9437 0.8145   -0.097282
 C 0.4374 0.0571 0.8024   -0.02411
 C 0.2889 0.613 0.319   -0.13795
 C 0.3646 0.0498 0.6642   0.163682
 C 0.4128 0.5661 0.1065   0.617925
 C 0.4378 0.1099 0.7273   -0.1488
 C 0.3004 0.8823 0.7504   -0.048882
 C 0.3352 0.5023 0.3517   0.181481
 C 0.438 0.4357 0.226   -0.020344
 C 0.3727 0.8839 0.8945   0.64814
 N 0.8012 0.0194 0.5644   -0.170927
 N 0.8564 0.3917 0.4126   -0.188281
 N 0.6988 0.9806 0.0644   -0.170927
 N 0.6436 0.6083 0.9126   -0.188281
 N 0.1988 0.5194 0.9356   -0.170927
 N 0.1436 0.8917 0.0874   -0.188281
 N 0.3012 0.4806 0.4356   -0.170927
 N 0.3564 0.1083 0.5874   -0.188281
 O 0.8664 0.8322 0.9233   -0.562788
 O 0.9772 0.0135 0.9381   -0.534301
 O 0.8227 0.7231 0.1021   -0.582778
 O 0.9175 0.5554 0.0464   -0.495766
 O 0.6336 0.1678 0.4233   -0.562788
 O 0.5228 0.9865 0.4381   -0.534301
 O 0.6773 0.2769 0.6021   -0.582778
 O 0.5825 0.4446 0.5464   -0.495766
 O 0.1336 0.3322 0.5767   -0.562788
 O 0.0228 0.5135 0.5619   -0.534301
 O 0.1773 0.2231 0.3979   -0.582778
 O 0.0825 0.0554 0.4536   -0.495766
 O 0.3664 0.6678 0.0767   -0.562788
 O 0.4772 0.4865 0.0619   -0.534301
 O 0.3227 0.7769 0.8979   -0.582778
 O 0.4175 0.9446 0.9536   -0.495766
