{'_ref': 'TBD', '_srcid': 'CAKYAQ_clean', 'submitters': [{'name': 'Dalar Nazarian Jeff Camp and David Sholl', 'email': 'dalar@gatech.edu jcamp6@gatech.edu'}], '_method': 'VASP DFT with PBE;DDEC'}
data_YH12(C7O2)3
_symmetry_space_group_name_H-M   'P 1'
_cell_length_a   15.22649975
_cell_length_b   15.22649950
_cell_length_c   18.57990000
_cell_angle_alpha   76.17650070
_cell_angle_beta   76.17650093
_cell_angle_gamma   68.37770107
_symmetry_Int_Tables_number   1
_chemical_formula_structural   YH12(C7O2)3
_chemical_formula_sum   'Y4 H48 C84 O24'
_cell_volume   3833.86894329
_cell_formula_units_Z   4
loop_
 _symmetry_equiv_pos_site_id
 _symmetry_equiv_pos_as_xyz
  1  'x, y, z'
loop_
 _atom_site_label
 _atom_site_fract_x
 _atom_site_fract_y
 _atom_site_fract_z
 _atom_site_charge
 Y 0.46193 0.54357 0.1046   2.093401
 Y 0.45643 0.53807 0.3954   2.093391
 Y 0.53807 0.45643 0.8954   2.093417
 Y 0.54357 0.46193 0.6046   2.093414
 H 0.47886 0.94753 0.74584   0.093052
 H 0.55448 0.04565 0.72872   0.103767
 H 0.55041 0.21782 0.69434   0.091147
 H 0.38789 0.27219 0.91546   0.102826
 H 0.37964 0.10607 0.94676   0.10534
 H 0.88424 0.54688 0.10772   0.092369
 H 0.72751 0.53031 0.1059   0.112777
 H 0.8484 0.4102 0.90031   0.097442
 H 0.00258 0.43414 0.89807   0.081777
 H 0.46118 0.95801 0.98123   0.090018
 H 0.46572 0.78839 0.01656   0.082765
 H 0.487 0.77522 0.77961   0.117818
 H 0.05247 0.52114 0.75416   0.092995
 H 0.95435 0.44552 0.77128   0.104132
 H 0.78218 0.44959 0.80566   0.091116
 H 0.72781 0.61211 0.58454   0.102751
 H 0.89174 0.62092 0.5528   0.106268
 H 0.45312 0.11576 0.39228   0.092364
 H 0.46969 0.27249 0.3941   0.112776
 H 0.5898 0.1516 0.59969   0.097461
 H 0.56586 0.99742 0.60193   0.081795
 H 0.04199 0.53882 0.51877   0.089907
 H 0.21161 0.53428 0.48344   0.082968
 H 0.22403 0.51303 0.72088   0.117937
 H 0.52114 0.05247 0.25416   0.092975
 H 0.44552 0.95435 0.27128   0.103139
 H 0.44959 0.78218 0.30566   0.091133
 H 0.61211 0.72781 0.08454   0.102921
 H 0.62036 0.89393 0.05324   0.105403
 H 0.11576 0.45312 0.89228   0.093829
 H 0.27249 0.46969 0.8941   0.112784
 H 0.1516 0.5898 0.09969   0.097486
 H 0.99969 0.567 0.10315   0.083171
 H 0.53882 0.04199 0.01877   0.090037
 H 0.53428 0.21161 0.98344   0.082961
 H 0.51303 0.22403 0.22088   0.118071
 H 0.94753 0.47886 0.24584   0.092904
 H 0.04565 0.55448 0.22872   0.103515
 H 0.21782 0.55041 0.19434   0.091103
 H 0.27219 0.38789 0.41546   0.102845
 H 0.10826 0.37908 0.4472   0.106341
 H 0.54688 0.88424 0.60772   0.093886
 H 0.53031 0.72751 0.6059   0.112798
 H 0.4102 0.8484 0.40031   0.0975
 H 0.433 0.000309999999999 0.39685   0.083169
 H 0.95801 0.46118 0.48123   0.089923
 H 0.78839 0.46572 0.51656   0.083002
 H 0.77597 0.48697 0.27912   0.118046
 C 0.4766 0.9122 0.8074   -0.145761
 C 0.4689 0.9639 0.8611   0.086613
 C 0.465 0.0662 0.8417   0.081354
 C 0.5152 0.0976 0.7702   -0.159811
 C 0.5153 0.1905 0.7525   -0.024854
 C 0.4736 0.2532 0.8036   -0.160852
 C 0.425 0.2218 0.8726   -0.03985
 C 0.4208 0.1302 0.8903   -0.149021
 C 0.48251 0.35111 0.785   0.803354
 C 0.9543 0.4955 0.000300000000003   0.075852
 C 0.8768 0.519 0.0585   -0.140459
 C 0.7899 0.5093 0.0582   -0.059492
 C 0.7758 0.475 0.0021   -0.111811
 C 0.8547 0.4449 0.946   -0.052955
 C 0.9398 0.4566 0.9452   -0.138255
 C 0.6805 0.4687 0.0002   0.779054
 C 0.4666 0.9178 0.935   -0.151985
 C 0.4707 0.8235 0.9549   -0.028454
 C 0.4809 0.7697 0.9007   -0.139547
 C 0.4819 0.8161 0.8253   -0.049818
 C 0.5089 0.3323 0.0796   0.796805
 C 0.0878 0.5234 0.6926   -0.146112
 C 0.0361 0.5311 0.6389   0.086427
 C 0.9338 0.535 0.6583   0.082593
 C 0.9024 0.4848 0.7298   -0.160086
 C 0.8095 0.4847 0.7475   -0.024693
 C 0.7468 0.5264 0.6964   -0.160843
 C 0.7782 0.575 0.6274   -0.04052
 C 0.8698 0.5792 0.6097   -0.150016
 C 0.64889 0.51749 0.715   0.80326
 C 0.5045 0.0457 0.4997   0.075857
 C 0.481 0.1232 0.4415   -0.14052
 C 0.4907 0.2101 0.4418   -0.059541
 C 0.525 0.2242 0.4979   -0.11182
 C 0.5551 0.1453 0.554   -0.052938
 C 0.5434 0.0602 0.5548   -0.138261
 C 0.5313 0.3195 0.4998   0.77905
 C 0.0822 0.5334 0.565   -0.151586
 C 0.1765 0.5293 0.5451   -0.028963
 C 0.2303 0.5191 0.5993   -0.138848
 C 0.1839 0.5181 0.6747   -0.050093
 C 0.6677 0.4911 0.4204   0.796795
 C 0.5234 0.0878 0.1926   -0.146059
 C 0.5311 0.0361 0.1389   0.086557
 C 0.535 0.9338 0.1583   0.081311
 C 0.4848 0.9024 0.2298   -0.159477
 C 0.4847 0.8095 0.2475   -0.025052
 C 0.5264 0.7468 0.1964   -0.160753
 C 0.575 0.7782 0.1274   -0.039736
 C 0.5792 0.8698 0.1097   -0.148994
 C 0.51749 0.64889 0.215   0.803337
 C 0.0457 0.5045 0.9997   0.078333
 C 0.1232 0.481 0.9415   -0.141638
 C 0.2101 0.4907 0.9418   -0.058962
 C 0.2242 0.525 0.9979   -0.111956
 C 0.1453 0.5551 0.054   -0.053804
 C 0.0602 0.5434 0.0548   -0.138853
 C 0.3195 0.5313 0.9998   0.778951
 C 0.5334 0.0822 0.065   -0.1519
 C 0.5293 0.1765 0.0451   -0.028644
 C 0.5191 0.2303 0.0993   -0.138912
 C 0.5181 0.1839 0.1747   -0.049979
 C 0.4911 0.6677 0.9204   0.79691
 C 0.9122 0.4766 0.3074   -0.14606
 C 0.9639 0.4689 0.3611   0.086328
 C 0.0662 0.465 0.3417   0.082588
 C 0.0976 0.5152 0.2702   -0.159764
 C 0.1905 0.5153 0.2525   -0.024879
 C 0.2532 0.4736 0.3036   -0.160731
 C 0.2218 0.425 0.3726   -0.040437
 C 0.1302 0.4208 0.3903   -0.149991
 C 0.35111 0.48251 0.285   0.803262
 C 0.4955 0.9543 0.5003   0.078296
 C 0.519 0.8768 0.5585   -0.141664
 C 0.5093 0.7899 0.5582   -0.058969
 C 0.475 0.7758 0.5021   -0.111979
 C 0.4449 0.8547 0.446   -0.053798
 C 0.4566 0.9398 0.4452   -0.138861
 C 0.4687 0.6805 0.5002   0.778944
 C 0.9178 0.4666 0.435   -0.151577
 C 0.8235 0.4707 0.4549   -0.028958
 C 0.7697 0.4809 0.4007   -0.138855
 C 0.8161 0.4819 0.3253   -0.050051
 C 0.3323 0.5089 0.5796   0.7968
 O 0.49107 0.37927 0.1307   -0.659738
 O 0.51761 0.37761 0.7193   -0.729864
 O 0.62145 0.47645 0.0588   -0.682918
 O 0.46034 0.39754 0.8376   -0.726778
 O 0.48455 0.63015 0.9887   -0.800615
 O 0.66828 0.45568 0.9391   -0.736402
 O 0.62073 0.50893 0.3693   -0.659767
 O 0.62239 0.48239 0.7807   -0.730009
 O 0.52355 0.37855 0.4412   -0.682915
 O 0.60246 0.53966 0.6624   -0.726757
 O 0.36985 0.51545 0.5113   -0.8007
 O 0.54432 0.33172 0.5609   -0.736383
 O 0.50893 0.62073 0.8693   -0.659694
 O 0.48239 0.62239 0.2807   -0.729874
 O 0.37855 0.52355 0.9412   -0.683043
 O 0.53966 0.60246 0.1624   -0.726697
 O 0.51545 0.36985 0.0113   -0.800678
 O 0.33172 0.54432 0.0609   -0.736366
 O 0.37927 0.49107 0.6307   -0.65978
 O 0.37761 0.51761 0.2193   -0.729984
 O 0.47645 0.62145 0.5588   -0.683005
 O 0.39754 0.46034 0.3376   -0.726686
 O 0.63015 0.48455 0.4887   -0.800684
 O 0.45568 0.66828 0.4391   -0.736369
