{'_ref': 'TBD', '_srcid': 'CAKYAQ_clean', 'submitters': [{'name': 'Dalar Nazarian Jeff Camp and David Sholl', 'email': 'dalar@gatech.edu jcamp6@gatech.edu'}], '_method': 'VASP DFT with PBE;DDEC'}
data_ErPH7C5NO7
_symmetry_space_group_name_H-M   'P 1'
_cell_length_a   9.00850000
_cell_length_b   9.00850000
_cell_length_c   15.79900000
_cell_angle_alpha   90.00000000
_cell_angle_beta   90.00000000
_cell_angle_gamma   90.00000000
_symmetry_Int_Tables_number   1
_chemical_formula_structural   ErPH7C5NO7
_chemical_formula_sum   'Er4 P4 H28 C20 N4 O28'
_cell_volume   1282.13738848
_cell_formula_units_Z   4
loop_
 _symmetry_equiv_pos_site_id
 _symmetry_equiv_pos_as_xyz
  1  'x, y, z'
loop_
 _atom_site_label
 _atom_site_fract_x
 _atom_site_fract_y
 _atom_site_fract_z
 _atom_site_charge
 Er 0.03212 0.38941 0.39568   1.517666
 Er 0.46788 0.61059 0.89568   1.517666
 Er 0.96788 0.88941 0.10432   1.517665
 Er 0.53212 0.11059 0.60432   1.517665
 P 0.12667 0.06673 0.29404   1.492709
 P 0.37333 0.93327 0.79404   1.492709
 P 0.87333 0.56673 0.20596   1.492709
 P 0.62667 0.43327 0.70596   1.492709
 H 0.1429 0.2503 0.1897   0.194797
 H 0.2994 0.1768 0.203   0.164965
 H 0.4406 0.2202 0.3134   0.129096
 H 0.4602 0.3888 0.3344   0.148407
 H 0.3777 0.4802 0.2172   0.132275
 H 0.207 0.4874 0.197   0.165782
 H 0.2691 0.9039 0.323   0.4073
 H 0.3571 0.7497 0.6897   0.194797
 H 0.2006 0.8232 0.703   0.164965
 H 0.0594 0.7798 0.8134   0.129096
 H 0.0398 0.6112 0.8344   0.148407
 H 0.1223 0.5198 0.7172   0.132275
 H 0.293 0.5126 0.697   0.165782
 H 0.2309 0.0961 0.823   0.4073
 H 0.8571 0.7503 0.3103   0.194797
 H 0.7006 0.6768 0.297   0.164965
 H 0.5594 0.7202 0.1866   0.129096
 H 0.5398 0.8888 0.1656   0.148407
 H 0.6223 0.9802 0.2828   0.132275
 H 0.793 0.9874 0.303   0.165782
 H 0.7309 0.4039 0.177   0.4073
 H 0.6429 0.2497 0.8103   0.194797
 H 0.7994 0.3232 0.797   0.164965
 H 0.9406 0.2798 0.6866   0.129096
 H 0.9602 0.1112 0.6656   0.148407
 H 0.8777 0.0198 0.7828   0.132275
 H 0.707 0.0126 0.803   0.165782
 H 0.7691 0.5961 0.677   0.4073
 C 0.2124 0.2147 0.232   -0.496415
 C 0.3925 0.3054 0.3391   -0.266253
 C 0.368 0.273 0.4312   0.712474
 C 0.2794 0.48 0.2422   -0.254845
 C 0.2631 0.613 0.3024   0.665221
 C 0.2876 0.7853 0.732   -0.496415
 C 0.1075 0.6946 0.8391   -0.266253
 C 0.132 0.727 0.9312   0.712474
 C 0.2206 0.52 0.7422   -0.254845
 C 0.2369 0.387 0.8024   0.665221
 C 0.7876 0.7147 0.268   -0.496415
 C 0.6075 0.8054 0.1609   -0.266253
 C 0.632 0.773 0.0688   0.712474
 C 0.7206 0.98 0.2578   -0.254845
 C 0.7369 0.113 0.1976   0.665221
 C 0.7124 0.2853 0.768   -0.496415
 C 0.8925 0.1946 0.6609   -0.266253
 C 0.868 0.227 0.5688   0.712474
 C 0.7794 0.02 0.7578   -0.254845
 C 0.7631 0.887 0.6976   0.665221
 N 0.2562 0.3401 0.2898   0.013676
 N 0.2438 0.6599 0.7898   0.013676
 N 0.7438 0.8401 0.2102   0.013676
 N 0.7562 0.1599 0.7102   0.013676
 O 0.245 0.3136 0.4653   -0.589569
 O 0.4692 0.2075 0.4711   -0.568237
 O 0.3161 0.7374 0.2762   -0.489955
 O 0.1893 0.5966 0.3701   -0.620311
 O 0.2488 0.9825 0.3465   -0.698053
 O 0.0507 0.9628 0.2333   -0.906234
 O 0.0257 0.1437 0.3554   -0.854493
 O 0.255 0.6864 0.9653   -0.589569
 O 0.0308 0.7925 0.9711   -0.568237
 O 0.1839 0.2626 0.7762   -0.489955
 O 0.3107 0.4034 0.8701   -0.620311
 O 0.2512 0.0175 0.8465   -0.698053
 O 0.4493 0.0372 0.7333   -0.906234
 O 0.4743 0.8563 0.8554   -0.854493
 O 0.755 0.8136 0.0347   -0.589569
 O 0.5308 0.7075 0.0289   -0.568237
 O 0.6839 0.2374 0.2238   -0.489955
 O 0.8107 0.0966 0.1299   -0.620311
 O 0.7512 0.4825 0.1535   -0.698053
 O 0.9493 0.4628 0.2667   -0.906234
 O 0.9743 0.6437 0.1446   -0.854493
 O 0.745 0.1864 0.5347   -0.589569
 O 0.9692 0.2925 0.5289   -0.568237
 O 0.8161 0.7626 0.7238   -0.489955
 O 0.6893 0.9034 0.6299   -0.620311
 O 0.7488 0.5175 0.6535   -0.698053
 O 0.5507 0.5372 0.7667   -0.906234
 O 0.5257 0.3563 0.6446   -0.854493
