{'_ref': 'TBD', '_srcid': 'CAKYAQ_clean', 'submitters': [{'name': 'Dalar Nazarian Jeff Camp and David Sholl', 'email': 'dalar@gatech.edu jcamp6@gatech.edu'}], '_method': 'VASP DFT with PBE;DDEC'}
data_ZnH6(C3O4)2
_symmetry_space_group_name_H-M   'P 1'
_cell_length_a   5.82650000
_cell_length_b   19.05130000
_cell_length_c   19.05130000
_cell_angle_alpha   90.00000000
_cell_angle_beta   90.00000000
_cell_angle_gamma   90.00000000
_symmetry_Int_Tables_number   1
_chemical_formula_structural   ZnH6(C3O4)2
_chemical_formula_sum   'Zn8 H48 C48 O64'
_cell_volume   2114.74001264
_cell_formula_units_Z   8
loop_
 _symmetry_equiv_pos_site_id
 _symmetry_equiv_pos_as_xyz
  1  'x, y, z'
loop_
 _atom_site_label
 _atom_site_fract_x
 _atom_site_fract_y
 _atom_site_fract_z
 _atom_site_charge
 Zn 0.25 0.72761 0.27239   1.005771
 Zn 0.75 0.27239 0.72761   1.005771
 Zn 0.0 0.22761 0.22761   1.005771
 Zn 0.5 0.77239 0.77239   1.005771
 Zn 0.75 0.77565 0.22435   1.020486
 Zn 0.25 0.22435 0.77565   1.020486
 Zn 0.5 0.27565 0.27565   1.020486
 Zn 0.0 0.72435 0.72435   1.020486
 H 0.406 0.624 0.239   0.386421
 H 0.978 0.493 0.3035   0.112269
 H 0.4052 0.46 0.2164   0.109302
 H 0.686 0.39 0.25   0.398139
 H 0.1742 0.5496 0.2069   0.107438
 H 0.4542 0.5033 0.3294   0.13528
 H 0.906 0.376 0.761   0.386421
 H 0.478 0.507 0.6965   0.112269
 H 0.9052 0.54 0.7836   0.109302
 H 0.186 0.61 0.75   0.398139
 H 0.6742 0.4504 0.7931   0.107438
 H 0.9542 0.4967 0.6706   0.13528
 H 0.156 0.261 0.124   0.386421
 H 0.728 0.1965 0.993   0.112269
 H 0.1552 0.2836 0.96   0.109302
 H 0.436 0.25 0.89   0.398139
 H 0.9242 0.2931 0.0496   0.107437
 H 0.2042 0.1706 0.0033   0.13528
 H 0.656 0.739 0.876   0.386421
 H 0.228 0.8035 0.007   0.112269
 H 0.6552 0.7164 0.04   0.109302
 H 0.936 0.75 0.11   0.398139
 H 0.4242 0.7069 0.9504   0.107437
 H 0.7042 0.8294 0.9967   0.13528
 H 0.344 0.876 0.739   0.386421
 H 0.772 0.007 0.8035   0.112269
 H 0.3448 0.04 0.7164   0.109302
 H 0.064 0.11 0.75   0.398139
 H 0.5758 0.9504 0.7069   0.107438
 H 0.2958 0.9967 0.8294   0.13528
 H 0.844 0.124 0.261   0.386421
 H 0.272 0.993 0.1965   0.112269
 H 0.8448 0.96 0.2836   0.109302
 H 0.564 0.89 0.25   0.398139
 H 0.0758 0.0496 0.2931   0.107438
 H 0.7958 0.0033 0.1706   0.13528
 H 0.594 0.239 0.624   0.386422
 H 0.022 0.3035 0.493   0.112269
 H 0.5948 0.2164 0.46   0.109302
 H 0.314 0.25 0.39   0.398139
 H 0.8258 0.2069 0.5496   0.107437
 H 0.5458 0.3294 0.5033   0.13528
 H 0.094 0.761 0.376   0.386422
 H 0.522 0.6965 0.507   0.112269
 H 0.0948 0.7836 0.54   0.109302
 H 0.814 0.75 0.61   0.398139
 H 0.3258 0.7931 0.4504   0.107437
 H 0.0458 0.6706 0.4967   0.13528
 C 0.9185 0.6175 0.2419   0.654931
 C 0.1136 0.5221 0.3125   0.08021
 C 0.3697 0.4294 0.2563   0.051308
 C 0.1692 0.3825 0.2376   0.642823
 C 0.1402 0.575 0.2504   0.033864
 C 0.3192 0.474 0.3202   0.081392
 C 0.4185 0.3825 0.7581   0.654931
 C 0.6136 0.4779 0.6875   0.08021
 C 0.8697 0.5706 0.7437   0.051308
 C 0.6692 0.6175 0.7624   0.642823
 C 0.6402 0.425 0.7496   0.033864
 C 0.8192 0.526 0.6798   0.081392
 C 0.6685 0.2581 0.1175   0.654931
 C 0.8636 0.1875 0.0221   0.08021
 C 0.1197 0.2437 0.9294   0.051308
 C 0.9192 0.2624 0.8825   0.642823
 C 0.8902 0.2496 0.075   0.033864
 C 0.0692 0.1798 0.974   0.081392
 C 0.1685 0.7419 0.8825   0.654931
 C 0.3636 0.8125 0.9779   0.08021
 C 0.6197 0.7563 0.0706   0.051308
 C 0.4192 0.7376 0.1175   0.642823
 C 0.3902 0.7504 0.925   0.033864
 C 0.5692 0.8202 0.026   0.081392
 C 0.8315 0.8825 0.7419   0.654931
 C 0.6364 0.9779 0.8125   0.08021
 C 0.3803 0.0706 0.7563   0.051308
 C 0.5808 0.1175 0.7376   0.642823
 C 0.6098 0.925 0.7504   0.033864
 C 0.4308 0.026 0.8202   0.081392
 C 0.3315 0.1175 0.2581   0.654931
 C 0.1364 0.0221 0.1875   0.08021
 C 0.8803 0.9294 0.2437   0.051308
 C 0.0808 0.8825 0.2624   0.642823
 C 0.1098 0.075 0.2496   0.033864
 C 0.9308 0.974 0.1798   0.081392
 C 0.0815 0.2419 0.6175   0.654931
 C 0.8864 0.3125 0.5221   0.08021
 C 0.6303 0.2563 0.4294   0.051308
 C 0.8308 0.2376 0.3825   0.642823
 C 0.8598 0.2504 0.575   0.033864
 C 0.6808 0.3202 0.474   0.081392
 C 0.5815 0.7581 0.3825   0.654931
 C 0.3864 0.6875 0.4779   0.08021
 C 0.1303 0.7437 0.5706   0.051308
 C 0.3308 0.7624 0.6175   0.642823
 C 0.3598 0.7496 0.425   0.033864
 C 0.1808 0.6798 0.526   0.081392
 O 0.9393 0.6838 0.243   -0.633972
 O 0.7386 0.5846 0.2318   -0.556185
 O 0.3244 0.6221 0.2668   -0.508908
 O 0.0754 0.5601 0.3746   -0.194936
 O 0.2877 0.4292 0.3791   -0.202488
 O 0.5668 0.3852 0.2715   -0.539285
 O 0.1942 0.3158 0.2469   -0.623567
 O 0.9911 0.4086 0.2136   -0.547165
 O 0.4393 0.3162 0.757   -0.633972
 O 0.2386 0.4154 0.7682   -0.556185
 O 0.8244 0.3779 0.7332   -0.508908
 O 0.5754 0.4399 0.6254   -0.194936
 O 0.7877 0.5708 0.6209   -0.202488
 O 0.0668 0.6148 0.7285   -0.539285
 O 0.6942 0.6842 0.7531   -0.623567
 O 0.4911 0.5914 0.7864   -0.547165
 O 0.6893 0.257 0.1838   -0.633972
 O 0.4886 0.2682 0.0846   -0.556185
 O 0.0744 0.2332 0.1221   -0.508908
 O 0.8254 0.1254 0.0601   -0.194936
 O 0.0377 0.1209 0.9292   -0.202488
 O 0.3168 0.2285 0.8852   -0.539285
 O 0.9442 0.2531 0.8158   -0.623567
 O 0.7411 0.2864 0.9086   -0.547165
 O 0.1893 0.743 0.8162   -0.633972
 O 0.9886 0.7318 0.9154   -0.556185
 O 0.5744 0.7668 0.8779   -0.508908
 O 0.3254 0.8746 0.9399   -0.194936
 O 0.5377 0.8791 0.0708   -0.202488
 O 0.8168 0.7715 0.1148   -0.539285
 O 0.4442 0.7469 0.1842   -0.623567
 O 0.2411 0.7136 0.0914   -0.547165
 O 0.8107 0.8162 0.743   -0.633972
 O 0.0114 0.9154 0.7318   -0.556185
 O 0.4256 0.8779 0.7668   -0.508908
 O 0.6746 0.9399 0.8746   -0.194935
 O 0.4623 0.0708 0.8791   -0.202488
 O 0.1832 0.1148 0.7715   -0.539285
 O 0.5558 0.1842 0.7469   -0.623567
 O 0.7589 0.0914 0.7136   -0.547165
 O 0.3107 0.1838 0.257   -0.633972
 O 0.5114 0.0846 0.2682   -0.556185
 O 0.9256 0.1221 0.2332   -0.508908
 O 0.1746 0.0601 0.1254   -0.194934
 O 0.9623 0.9292 0.1209   -0.202487
 O 0.6832 0.8852 0.2285   -0.539285
 O 0.0558 0.8158 0.2531   -0.623567
 O 0.2589 0.9086 0.2864   -0.547165
 O 0.0607 0.243 0.6838   -0.633972
 O 0.2614 0.2318 0.5846   -0.556185
 O 0.6756 0.2668 0.6221   -0.508909
 O 0.9246 0.3746 0.5601   -0.194935
 O 0.7123 0.3791 0.4292   -0.202488
 O 0.4332 0.2715 0.3852   -0.539285
 O 0.8058 0.2469 0.3158   -0.623567
 O 0.0089 0.2136 0.4086   -0.547165
 O 0.5607 0.757 0.3162   -0.633972
 O 0.7614 0.7682 0.4154   -0.556185
 O 0.1756 0.7332 0.3779   -0.508909
 O 0.4246 0.6254 0.4399   -0.194934
 O 0.2123 0.6209 0.5708   -0.202487
 O 0.9332 0.7285 0.6148   -0.539285
 O 0.3058 0.7531 0.6842   -0.623567
 O 0.5089 0.7864 0.5914   -0.547165
