{'_ref': 'TBD', '_srcid': 'CAKYAQ_clean', 'submitters': [{'name': 'Dalar Nazarian Jeff Camp and David Sholl', 'email': 'dalar@gatech.edu jcamp6@gatech.edu'}], '_method': 'VASP DFT with PBE;DDEC'}
data_Zn4H18C30S6O13
_symmetry_space_group_name_H-M   'P 1'
_cell_length_a   14.48900000
_cell_length_b   18.11500000
_cell_length_c   22.11300000
_cell_angle_alpha   90.00000000
_cell_angle_beta   90.00000000
_cell_angle_gamma   90.00000000
_symmetry_Int_Tables_number   1
_chemical_formula_structural   Zn4H18C30S6O13
_chemical_formula_sum   'Zn16 H72 C120 S24 O52'
_cell_volume   5803.96008055
_cell_formula_units_Z   4
loop_
 _symmetry_equiv_pos_site_id
 _symmetry_equiv_pos_as_xyz
  1  'x, y, z'
loop_
 _atom_site_label
 _atom_site_fract_x
 _atom_site_fract_y
 _atom_site_fract_z
 _atom_site_charge
 Zn 0.49217 0.32999 0.75068   1.083286
 Zn 0.65568 0.25283 0.82918   1.139414
 Zn 0.64066 0.2371 0.68419   1.076983
 Zn 0.49512 0.15543 0.77457   1.125147
 Zn 0.50783 0.67001 0.25068   1.083286
 Zn 0.34432 0.74717 0.32918   1.139414
 Zn 0.35934 0.7629 0.18419   1.076983
 Zn 0.50488 0.84457 0.27457   1.125147
 Zn 0.00783 0.82999 0.75068   1.083286
 Zn 0.84432 0.75283 0.82918   1.139415
 Zn 0.85934 0.7371 0.68419   1.076983
 Zn 0.00488 0.65543 0.77457   1.125147
 Zn 0.99217 0.17001 0.25068   1.083286
 Zn 0.15568 0.24717 0.32918   1.139415
 Zn 0.14066 0.2629 0.18419   1.076983
 Zn 0.99512 0.34457 0.27457   1.125147
 H 0.1279 0.1516 0.8434   0.111341
 H 0.2148 0.2019 0.8527   0.143019
 H 0.2231 0.1284 0.8156   0.134168
 H 0.5813 0.3212 0.9792   0.133593
 H 0.528 0.328 0.0407   0.112813
 H 0.6164 0.3759 0.0292   0.13103
 H 0.5304 0.4061 0.1158   0.112122
 H 0.4583 0.4391 0.1612   0.136844
 H 0.5544 0.4775 0.1527   0.138172
 H 0.3281 0.0454 0.9654   0.113796
 H 0.3771 0.0594 0.9033   0.128156
 H 0.3418 0.1263 0.9418   0.143892
 H 0.0221 0.1549 0.8392   0.108778
 H 0.93 0.1227 0.8129   0.143963
 H 0.9295 0.1985 0.8472   0.138189
 H 0.3007 0.9254 0.0695   0.14786
 H 0.3197 0.9449 0.0016   0.131877
 H 0.2848 0.0061 0.0461   0.116049
 H 0.8721 0.8484 0.3434   0.111341
 H 0.7852 0.7981 0.3527   0.143019
 H 0.7769 0.8716 0.3156   0.134168
 H 0.4187 0.6788 0.4792   0.133593
 H 0.472 0.672 0.5407   0.112813
 H 0.3836 0.6241 0.5292   0.13103
 H 0.4696 0.5939 0.6158   0.112122
 H 0.5417 0.5609 0.6612   0.136844
 H 0.4456 0.5225 0.6527   0.138172
 H 0.6719 0.9546 0.4654   0.113796
 H 0.6229 0.9406 0.4033   0.128156
 H 0.6582 0.8737 0.4418   0.143892
 H 0.9779 0.8451 0.3392   0.108778
 H 0.07 0.8773 0.3129   0.143963
 H 0.0705 0.8015 0.3472   0.138189
 H 0.6993 0.0746 0.5695   0.14786
 H 0.6803 0.0551 0.5016   0.131877
 H 0.7152 0.9939 0.5461   0.116049
 H 0.3721 0.6516 0.8434   0.111341
 H 0.2852 0.7019 0.8527   0.143019
 H 0.2769 0.6284 0.8156   0.134169
 H 0.9187 0.8212 0.9792   0.133593
 H 0.972 0.828 0.0407   0.112813
 H 0.8836 0.8759 0.0292   0.13103
 H 0.9696 0.9061 0.1158   0.112122
 H 0.0417 0.9391 0.1612   0.136844
 H 0.9456 0.9775 0.1527   0.138172
 H 0.1719 0.5454 0.9654   0.113796
 H 0.1229 0.5594 0.9033   0.128156
 H 0.1582 0.6263 0.9418   0.143892
 H 0.4779 0.6549 0.8392   0.108778
 H 0.57 0.6227 0.8129   0.143963
 H 0.5705 0.6985 0.8472   0.138189
 H 0.1993 0.4254 0.0695   0.14786
 H 0.1803 0.4449 0.0016   0.131877
 H 0.2152 0.5061 0.0461   0.116049
 H 0.6279 0.3484 0.3434   0.111341
 H 0.7148 0.2981 0.3527   0.143019
 H 0.7231 0.3716 0.3156   0.134169
 H 0.0813 0.1788 0.4792   0.133593
 H 0.028 0.172 0.5407   0.112813
 H 0.1164 0.1241 0.5292   0.13103
 H 0.0304 0.0939 0.6158   0.112122
 H 0.9583 0.0609 0.6612   0.136844
 H 0.0544 0.0225 0.6527   0.138172
 H 0.8281 0.4546 0.4654   0.113796
 H 0.8771 0.4406 0.4033   0.128156
 H 0.8418 0.3737 0.4418   0.143892
 H 0.5221 0.3451 0.3392   0.108778
 H 0.43 0.3773 0.3129   0.143963
 H 0.4295 0.3015 0.3472   0.138189
 H 0.8007 0.5746 0.5695   0.14786
 H 0.8197 0.5551 0.5016   0.131877
 H 0.7848 0.4939 0.5461   0.116049
 C 0.3312 0.2543 0.743   0.713764
 C 0.2274 0.2475 0.7339   -0.299085
 C 0.1619 0.2084 0.7712   0.186533
 C 0.1837 0.1694 0.8251   -0.35922
 C 0.513 0.3778 0.8694   0.771738
 C 0.4826 0.4216 0.9228   -0.300721
 C 0.5044 0.414 0.9846   0.171008
 C 0.4664 0.473 0.0202   -0.109018
 C 0.4192 0.5231 0.9848   -0.05924
 C 0.4659 0.4984 0.0821   0.189936
 C 0.4257 0.5643 0.089   -0.272235
 C 0.5627 0.3545 0.0107   -0.355654
 C 0.506 0.4509 0.1326   -0.351954
 C 0.5579 0.1646 0.9059   0.715169
 C 0.5354 0.1204 0.9617   -0.292047
 C 0.4585 0.0816 0.9746   0.209389
 C 0.3685 0.0779 0.9436   -0.359628
 C 0.8141 0.2228 0.7308   0.743353
 C 0.9134 0.23 0.7256   -0.31902
 C 0.9804 0.2041 0.7659   0.204529
 C 0.072 0.2223 0.7468   -0.112592
 C 0.0697 0.2629 0.6969   -0.04489
 C 0.9642 0.1671 0.8206   -0.371855
 C 0.466 0.8864 0.1438   0.699169
 C 0.4803 0.9494 0.1023   -0.2933
 C 0.4243 0.9826 0.0584   0.181866
 C 0.4758 0.0377 0.0278   -0.110403
 C 0.5622 0.0465 0.0532   -0.04703
 C 0.3226 0.9629 0.0424   -0.346012
 C 0.4267 0.6163 0.1361   0.726512
 C 0.6688 0.7457 0.243   0.713764
 C 0.7726 0.7525 0.2339   -0.299085
 C 0.8381 0.7916 0.2712   0.186533
 C 0.8163 0.8306 0.3251   -0.35922
 C 0.487 0.6222 0.3694   0.771738
 C 0.5174 0.5784 0.4228   -0.300721
 C 0.4956 0.586 0.4846   0.171008
 C 0.5336 0.527 0.5202   -0.109018
 C 0.5808 0.4769 0.4848   -0.05924
 C 0.5341 0.5016 0.5821   0.189936
 C 0.5743 0.4357 0.589   -0.272235
 C 0.4373 0.6455 0.5107   -0.355654
 C 0.494 0.5491 0.6326   -0.351954
 C 0.4421 0.8354 0.4059   0.715169
 C 0.4646 0.8796 0.4617   -0.292047
 C 0.5415 0.9184 0.4746   0.209389
 C 0.6315 0.9221 0.4436   -0.359628
 C 0.1859 0.7772 0.2308   0.743353
 C 0.0866 0.77 0.2256   -0.31902
 C 0.0196 0.7959 0.2659   0.204529
 C 0.928 0.7777 0.2468   -0.112592
 C 0.9303 0.7371 0.1969   -0.04489
 C 0.0358 0.8329 0.3206   -0.371855
 C 0.534 0.1136 0.6438   0.699169
 C 0.5197 0.0506 0.6023   -0.2933
 C 0.5757 0.0174 0.5584   0.181866
 C 0.5242 0.9623 0.5278   -0.110403
 C 0.4378 0.9535 0.5532   -0.04703
 C 0.6774 0.0371 0.5424   -0.346012
 C 0.5733 0.3837 0.6361   0.726512
 C 0.1688 0.7543 0.743   0.713764
 C 0.2726 0.7475 0.7339   -0.299085
 C 0.3381 0.7084 0.7712   0.186533
 C 0.3163 0.6694 0.8251   -0.35922
 C 0.987 0.8778 0.8694   0.771738
 C 0.0174 0.9216 0.9228   -0.300721
 C 0.9956 0.914 0.9846   0.171008
 C 0.0336 0.973 0.0202   -0.109018
 C 0.0808 0.0231 0.9848   -0.05924
 C 0.0341 0.9984 0.0821   0.189936
 C 0.0743 0.0643 0.089   -0.272235
 C 0.9373 0.8545 0.0107   -0.355654
 C 0.994 0.9509 0.1326   -0.351954
 C 0.9421 0.6646 0.9059   0.71517
 C 0.9646 0.6204 0.9617   -0.292047
 C 0.0415 0.5816 0.9746   0.209389
 C 0.1315 0.5779 0.9436   -0.359628
 C 0.6859 0.7228 0.7308   0.743353
 C 0.5866 0.73 0.7256   -0.31902
 C 0.5196 0.7041 0.7659   0.204529
 C 0.428 0.7223 0.7468   -0.112592
 C 0.4303 0.7629 0.6969   -0.04489
 C 0.5358 0.6671 0.8206   -0.371855
 C 0.034 0.3864 0.1438   0.699169
 C 0.0197 0.4494 0.1023   -0.2933
 C 0.0757 0.4826 0.0584   0.181866
 C 0.0242 0.5377 0.0278   -0.110403
 C 0.9378 0.5465 0.0532   -0.04703
 C 0.1774 0.4629 0.0424   -0.346012
 C 0.0733 0.1163 0.1361   0.726512
 C 0.8312 0.2457 0.243   0.713764
 C 0.7274 0.2525 0.2339   -0.299085
 C 0.6619 0.2916 0.2712   0.186533
 C 0.6837 0.3306 0.3251   -0.35922
 C 0.013 0.1222 0.3694   0.771738
 C 0.9826 0.0784 0.4228   -0.300721
 C 0.0044 0.086 0.4846   0.171008
 C 0.9664 0.027 0.5202   -0.109018
 C 0.9192 0.9769 0.4848   -0.05924
 C 0.9659 0.0016 0.5821   0.189936
 C 0.9257 0.9357 0.589   -0.272235
 C 0.0627 0.1455 0.5107   -0.355654
 C 0.006 0.0491 0.6326   -0.351954
 C 0.0579 0.3354 0.4059   0.71517
 C 0.0354 0.3796 0.4617   -0.292047
 C 0.9585 0.4184 0.4746   0.209389
 C 0.8685 0.4221 0.4436   -0.359628
 C 0.3141 0.2772 0.2308   0.743353
 C 0.4134 0.27 0.2256   -0.31902
 C 0.4804 0.2959 0.2659   0.204529
 C 0.572 0.2777 0.2468   -0.112592
 C 0.5697 0.2371 0.1969   -0.04489
 C 0.4642 0.3329 0.3206   -0.371855
 C 0.966 0.6136 0.6438   0.699169
 C 0.9803 0.5506 0.6023   -0.2933
 C 0.9243 0.5174 0.5584   0.181866
 C 0.9758 0.4623 0.5278   -0.110403
 C 0.0622 0.4535 0.5532   -0.04703
 C 0.8226 0.5371 0.5424   -0.346012
 C 0.9267 0.8837 0.6361   0.726512
 S 0.1797 0.2939 0.6715   0.095013
 S 0.4189 0.501 0.9082   0.105515
 S 0.3823 0.6006 0.0211   0.104225
 S 0.6285 0.1082 0.0123   0.12365
 S 0.9634 0.2779 0.6646   0.118862
 S 0.5865 0.9888 0.1105   0.14774
 S 0.8203 0.7061 0.1715   0.095013
 S 0.5811 0.499 0.4082   0.105515
 S 0.6177 0.3994 0.5211   0.104225
 S 0.3715 0.8918 0.5123   0.12365
 S 0.0366 0.7221 0.1646   0.118862
 S 0.4135 0.0112 0.6105   0.14774
 S 0.3203 0.7939 0.6715   0.095013
 S 0.0811 0.000999999999998 0.9082   0.105515
 S 0.1177 0.1006 0.0211   0.104225
 S 0.8715 0.6082 0.0123   0.12365
 S 0.5366 0.7779 0.6646   0.118862
 S 0.9135 0.4888 0.1105   0.14774
 S 0.6797 0.2061 0.1715   0.095013
 S 0.9189 0.999 0.4082   0.105515
 S 0.8823 0.8994 0.5211   0.104225
 S 0.1285 0.3918 0.5123   0.12365
 S 0.4634 0.2221 0.1646   0.118862
 S 0.0865 0.5112 0.6105   0.14774
 O 0.5755 0.2475 0.7578   -1.218183
 O 0.3698 0.2112 0.7773   -0.5992
 O 0.3691 0.3102 0.7148   -0.598676
 O 0.4716 0.3903 0.8217   -0.602077
 O 0.5765 0.3365 0.8789   -0.62521
 O 0.6397 0.1892 0.8985   -0.591986
 O 0.4947 0.1726 0.8668   -0.606105
 O 0.7765 0.1994 0.7747   -0.628614
 O 0.7735 0.2505 0.6838   -0.622717
 O 0.3826 0.8494 0.1364   -0.631546
 O 0.5229 0.8674 0.1807   -0.579986
 O 0.4618 0.5971 0.1898   -0.652959
 O 0.3902 0.6777 0.1278   -0.597301
 O 0.4245 0.7525 0.2578   -1.218183
 O 0.6302 0.7888 0.2773   -0.5992
 O 0.6309 0.6898 0.2148   -0.598676
 O 0.5284 0.6097 0.3217   -0.602077
 O 0.4235 0.6635 0.3789   -0.62521
 O 0.3603 0.8108 0.3985   -0.591986
 O 0.5053 0.8274 0.3668   -0.606105
 O 0.2235 0.8006 0.2747   -0.628614
 O 0.2265 0.7495 0.1838   -0.622717
 O 0.6174 0.1506 0.6364   -0.631546
 O 0.4771 0.1326 0.6807   -0.579986
 O 0.5382 0.4029 0.6898   -0.652959
 O 0.6098 0.3223 0.6278   -0.597301
 O 0.9245 0.7475 0.7578   -1.218183
 O 0.1302 0.7112 0.7773   -0.5992
 O 0.1309 0.8102 0.7148   -0.598676
 O 0.0284 0.8903 0.8217   -0.602077
 O 0.9235 0.8365 0.8789   -0.62521
 O 0.8603 0.6892 0.8985   -0.591986
 O 0.0053 0.6726 0.8668   -0.606105
 O 0.7235 0.6994 0.7747   -0.628614
 O 0.7265 0.7505 0.6838   -0.622717
 O 0.1174 0.3494 0.1364   -0.631546
 O 0.9771 0.3674 0.1807   -0.579986
 O 0.0382 0.0971 0.1898   -0.652959
 O 0.1098 0.1777 0.1278   -0.597301
 O 0.0755 0.2525 0.2578   -1.218183
 O 0.8698 0.2888 0.2773   -0.5992
 O 0.8691 0.1898 0.2148   -0.598676
 O 0.9716 0.1097 0.3217   -0.602077
 O 0.0765 0.1635 0.3789   -0.62521
 O 0.1397 0.3108 0.3985   -0.591986
 O 0.9947 0.3274 0.3668   -0.606105
 O 0.2765 0.3006 0.2747   -0.628614
 O 0.2735 0.2495 0.1838   -0.622717
 O 0.8826 0.6506 0.6364   -0.631546
 O 0.0229 0.6326 0.6807   -0.579986
 O 0.9618 0.9029 0.6898   -0.652959
 O 0.8902 0.8223 0.6278   -0.597301
