{'_ref': 'TBD', '_srcid': 'CAKYAQ_clean', 'submitters': [{'name': 'Dalar Nazarian Jeff Camp and David Sholl', 'email': 'dalar@gatech.edu jcamp6@gatech.edu'}], '_method': 'VASP DFT with PBE;DDEC'}
data_MgZnH12(C9O4)2
_symmetry_space_group_name_H-M   'P 1'
_cell_length_a   13.79090000
_cell_length_b   16.28790000
_cell_length_c   22.01700000
_cell_angle_alpha   90.00000000
_cell_angle_beta   90.00000000
_cell_angle_gamma   90.00000000
_symmetry_Int_Tables_number   1
_chemical_formula_structural   MgZnH12(C9O4)2
_chemical_formula_sum   'Mg8 Zn8 H96 C144 O64'
_cell_volume   4945.56422402
_cell_formula_units_Z   8
loop_
 _symmetry_equiv_pos_site_id
 _symmetry_equiv_pos_as_xyz
  1  'x, y, z'
loop_
 _atom_site_label
 _atom_site_fract_x
 _atom_site_fract_y
 _atom_site_fract_z
 _atom_site_charge
 Mg 0.2221 0.55091 0.75915   1.714912
 Mg 0.7221 0.44909 0.74085   1.7144
 Mg 0.7779 0.05091 0.24085   1.714862
 Mg 0.2779 0.94909 0.25915   1.714449
 Mg 0.7779 0.44909 0.24085   1.714399
 Mg 0.2779 0.55091 0.25915   1.714911
 Mg 0.2221 0.94909 0.75915   1.714448
 Mg 0.7221 0.05091 0.74085   1.714861
 Zn 0.97979 0.49791 0.66883   1.068179
 Zn 0.47979 0.50209 0.83117   1.068358
 Zn 0.02021 0.99791 0.33117   1.068258
 Zn 0.52021 0.00209 0.16883   1.068335
 Zn 0.02021 0.50209 0.33117   1.068358
 Zn 0.52021 0.49791 0.16883   1.068179
 Zn 0.97979 0.00209 0.66883   1.068335
 Zn 0.47979 0.99791 0.83117   1.068258
 H 0.35922 0.5826 0.61746   0.111467
 H 0.49485 0.66489 0.56438   0.115821
 H 0.52094 0.63673 0.48408   0.118816
 H 0.53433 0.55869 0.54528   0.118983
 H 0.39295 0.58444 0.42097   0.11216
 H 0.11382 0.51897 0.50132   0.12881
 H 0.75801 0.61662 0.84483   0.108638
 H 0.66695 0.68407 0.91755   0.125907
 H 0.17861 0.38409 0.85997   0.123384
 H 0.31499 0.28393 0.91498   0.13631
 H 0.85922 0.4174 0.88254   0.107858
 H 0.01247 0.39652 0.92159   0.119734
 H 0.03856 0.42468 0.00189   0.117529
 H 0.99909 0.31848 0.98279   0.118507
 H 0.89295 0.41556 0.07903   0.115448
 H 0.61382 0.48103 0.99868   0.128942
 H 0.25801 0.38338 0.65517   0.113881
 H 0.1618 0.18407 0.58511   0.126921
 H 0.67861 0.61591 0.64003   0.118632
 H 0.75835 0.68402 0.56131   0.124227
 H 0.64078 0.0826 0.38254   0.107932
 H 0.46038 0.05932 0.4812   0.118515
 H 0.49782 0.1345 0.42199   0.116024
 H 0.49168 0.1665 0.50308   0.112807
 H 0.60705 0.08444 0.57903   0.113354
 H 0.88618 0.01897 0.49868   0.128498
 H 0.24199 0.11662 0.15517   0.108618
 H 0.2823 0.28052 0.05625   0.119095
 H 0.82139 0.88409 0.14003   0.121954
 H 0.79616 0.78393 0.03848   0.117778
 H 0.14078 0.9174 0.11746   0.111416
 H 0.96877 0.89429 0.98448   0.119098
 H 0.97491 0.92628 0.06556   0.123703
 H 0.0062 0.81911 0.04369   0.123685
 H 0.10705 0.91556 0.92097   0.11427
 H 0.38618 0.98103 0.00132   0.129222
 H 0.74199 0.88338 0.34483   0.114195
 H 0.83305 0.68407 0.41755   0.125909
 H 0.32139 0.11591 0.35997   0.119672
 H 0.23953 0.18402 0.4378   0.124835
 H 0.64078 0.4174 0.38254   0.107858
 H 0.50091 0.31848 0.48279   0.118507
 H 0.48753 0.39652 0.42159   0.119734
 H 0.46144 0.42468 0.50189   0.11753
 H 0.60705 0.41556 0.57903   0.115449
 H 0.88618 0.48103 0.49868   0.128941
 H 0.24199 0.38338 0.15517   0.113881
 H 0.3382 0.18407 0.08511   0.126921
 H 0.82139 0.61591 0.14003   0.118632
 H 0.74165 0.68402 0.06131   0.124229
 H 0.14078 0.5826 0.11746   0.111468
 H 0.97906 0.63673 0.98408   0.118819
 H 0.00515 0.66489 0.06438   0.115821
 H 0.96567 0.55869 0.04528   0.118982
 H 0.10705 0.58444 0.92097   0.11216
 H 0.38618 0.51897 0.00132   0.12881
 H 0.74199 0.61662 0.34483   0.108638
 H 0.88895 0.78052 0.38869   0.139624
 H 0.32139 0.38409 0.35997   0.123384
 H 0.18501 0.28393 0.41498   0.136312
 H 0.35922 0.9174 0.61746   0.111416
 H 0.52509 0.92628 0.56556   0.123703
 H 0.53123 0.89429 0.48448   0.119098
 H 0.4938 0.81911 0.54369   0.123685
 H 0.39295 0.91556 0.42097   0.11427
 H 0.11382 0.98103 0.50132   0.129222
 H 0.75801 0.88338 0.84483   0.114195
 H 0.61105 0.78052 0.88869   0.139624
 H 0.17861 0.11591 0.85997   0.119672
 H 0.26047 0.18402 0.9378   0.124837
 H 0.85922 0.0826 0.88254   0.107932
 H 0.00218 0.1345 0.92199   0.116024
 H 0.00832 0.1665 0.00308   0.112808
 H 0.03962 0.05932 0.9812   0.118516
 H 0.89295 0.08444 0.07903   0.113354
 H 0.61382 0.01897 0.99868   0.128497
 H 0.25801 0.11662 0.65517   0.108618
 H 0.2177 0.28052 0.55625   0.119096
 H 0.67861 0.88409 0.64003   0.121953
 H 0.70384 0.78393 0.53848   0.11778
 H 0.93136 0.7496 0.711   0.123069
 H 0.43136 0.2504 0.789   0.123334
 H 0.06864 0.2504 0.289   0.123334
 H 0.56864 0.7496 0.211   0.123069
 H 0.01763 0.24972 0.72112   0.116243
 H 0.51763 0.75028 0.77888   0.115409
 H 0.98237 0.75028 0.27888   0.115409
 H 0.48237 0.24972 0.22112   0.116243
 H 0.71513 0.78541 0.94242   0.119018
 H 0.11363 0.28541 0.60998   0.138705
 H 0.38637 0.28541 0.10998   0.138705
 H 0.78487 0.78541 0.44242   0.119018
 H 0.20277 0.28205 0.96196   0.116742
 H 0.81605 0.78205 0.58546   0.136615
 H 0.68395 0.78205 0.08546   0.136615
 H 0.29723 0.28205 0.46196   0.116742
 C 0.1679 0.5398 0.6194   0.792317
 C 0.2307 0.5509 0.56415   -0.133735
 C 0.3265 0.5744 0.5703   -0.108492
 C 0.3836 0.5882 0.5204   0.130882
 C 0.4904 0.6138 0.5291   -0.378831
 C 0.3454 0.5754 0.4628   -0.119303
 C 0.2485 0.5514 0.4561   -0.131725
 C 0.2066 0.5425 0.3939   0.8002
 C 0.1925 0.5391 0.50681   -0.037831
 C 0.8747 0.5975 0.74555   0.777278
 C 0.8452 0.6761 0.77506   -0.11487
 C 0.7839 0.6769 0.8241   -0.123335
 C 0.0723 0.4027 0.7564   0.770738
 C 0.0967 0.3232 0.78742   -0.121536
 C 0.1542 0.3234 0.8392   -0.125861
 C 0.6679 0.4602 0.8806   0.790774
 C 0.7307 0.4491 0.93585   -0.131893
 C 0.8265 0.4256 0.9297   -0.106896
 C 0.8836 0.4118 0.9796   0.140278
 C 0.9904 0.3862 0.9709   -0.383617
 C 0.8454 0.4246 0.0372   -0.126487
 C 0.7485 0.4486 0.0439   -0.130573
 C 0.7066 0.4575 0.1061   0.798795
 C 0.6925 0.4609 0.99319   -0.041029
 C 0.3747 0.4025 0.75445   0.777508
 C 0.3452 0.3239 0.72494   -0.117032
 C 0.2839 0.3231 0.6759   -0.121343
 C 0.5723 0.5973 0.7436   0.772024
 C 0.5967 0.6768 0.71258   -0.119558
 C 0.6542 0.6766 0.6608   -0.124894
 C 0.8321 0.0398 0.3806   0.791927
 C 0.7693 0.0509 0.43585   -0.132767
 C 0.6735 0.0744 0.4297   -0.110688
 C 0.6164 0.0882 0.4796   0.136028
 C 0.5096 0.1138 0.4709   -0.37435
 C 0.6546 0.0754 0.5372   -0.121843
 C 0.7515 0.0514 0.5439   -0.131989
 C 0.7934 0.0425 0.6061   0.800512
 C 0.8075 0.0391 0.49319   -0.038654
 C 0.1253 0.0975 0.25445   0.777201
 C 0.1548 0.1761 0.22494   -0.114493
 C 0.2161 0.1769 0.1759   -0.122684
 C 0.9277 0.9027 0.2436   0.771947
 C 0.9033 0.8232 0.21258   -0.121742
 C 0.8458 0.8234 0.1608   -0.123122
 C 0.3321 0.9602 0.1194   0.791175
 C 0.2693 0.9491 0.06415   -0.132905
 C 0.1735 0.9256 0.0703   -0.10485
 C 0.1164 0.9118 0.0204   0.135605
 C 0.0096 0.8862 0.0291   -0.392635
 C 0.1546 0.9246 0.9628   -0.123664
 C 0.2515 0.9486 0.9561   -0.130599
 C 0.2934 0.9575 0.8939   0.798559
 C 0.3075 0.9609 0.00681   -0.040034
 C 0.6253 0.9025 0.24555   0.777416
 C 0.6548 0.8239 0.27506   -0.116306
 C 0.7161 0.8231 0.3241   -0.122246
 C 0.4277 0.0973 0.2564   0.770975
 C 0.4033 0.1768 0.28742   -0.120032
 C 0.3458 0.1766 0.3392   -0.127612
 C 0.8321 0.4602 0.3806   0.790773
 C 0.7693 0.4491 0.43585   -0.131894
 C 0.6735 0.4256 0.4297   -0.106897
 C 0.6164 0.4118 0.4796   0.140277
 C 0.5096 0.3862 0.4709   -0.383617
 C 0.6546 0.4246 0.5372   -0.12649
 C 0.7515 0.4486 0.5439   -0.130575
 C 0.7934 0.4575 0.6061   0.798794
 C 0.8075 0.4609 0.49319   -0.041029
 C 0.1253 0.4025 0.25445   0.777508
 C 0.1548 0.3239 0.22494   -0.117032
 C 0.2161 0.3231 0.1759   -0.121343
 C 0.9277 0.5973 0.2436   0.772025
 C 0.9033 0.6768 0.21258   -0.119558
 C 0.8458 0.6766 0.1608   -0.124894
 C 0.3321 0.5398 0.1194   0.792317
 C 0.2693 0.5509 0.06415   -0.133737
 C 0.1735 0.5744 0.0703   -0.108493
 C 0.1164 0.5882 0.0204   0.130881
 C 0.0096 0.6138 0.0291   -0.378832
 C 0.1546 0.5754 0.9628   -0.119306
 C 0.2515 0.5514 0.9561   -0.131726
 C 0.2934 0.5425 0.8939   0.800199
 C 0.3075 0.5391 0.00681   -0.037832
 C 0.6253 0.5975 0.24555   0.777277
 C 0.6548 0.6761 0.27506   -0.114869
 C 0.7161 0.6769 0.3241   -0.123335
 C 0.4277 0.4027 0.2564   0.770738
 C 0.4033 0.3232 0.28742   -0.121535
 C 0.3458 0.3234 0.3392   -0.125861
 C 0.1679 0.9602 0.6194   0.791174
 C 0.2307 0.9491 0.56415   -0.132907
 C 0.3265 0.9256 0.5703   -0.104851
 C 0.3836 0.9118 0.5204   0.135604
 C 0.4904 0.8862 0.5291   -0.392635
 C 0.3454 0.9246 0.4628   -0.123667
 C 0.2485 0.9486 0.4561   -0.1306
 C 0.2066 0.9575 0.3939   0.798558
 C 0.1925 0.9609 0.50681   -0.040034
 C 0.8747 0.9025 0.74555   0.777416
 C 0.8452 0.8239 0.77506   -0.116306
 C 0.7839 0.8231 0.8241   -0.122246
 C 0.0723 0.0973 0.7564   0.770975
 C 0.0967 0.1768 0.78742   -0.120032
 C 0.1542 0.1766 0.8392   -0.127612
 C 0.6679 0.0398 0.8806   0.791926
 C 0.7307 0.0509 0.93585   -0.132768
 C 0.8265 0.0744 0.9297   -0.11069
 C 0.8836 0.0882 0.9796   0.136028
 C 0.9904 0.1138 0.9709   -0.37435
 C 0.8454 0.0754 0.0372   -0.121846
 C 0.7485 0.0514 0.0439   -0.131991
 C 0.7066 0.0425 0.1061   0.800511
 C 0.6925 0.0391 0.99319   -0.038654
 C 0.3747 0.0975 0.75445   0.7772
 C 0.3452 0.1761 0.72494   -0.114492
 C 0.2839 0.1769 0.6759   -0.122683
 C 0.5723 0.9027 0.7436   0.771947
 C 0.5967 0.8232 0.71258   -0.121742
 C 0.6542 0.8234 0.6608   -0.123122
 C 0.8781 0.75 0.7506   -0.065497
 C 0.7515 0.75 0.85   0.148532
 C 0.6819 0.75 0.9029   -0.388648
 C 0.3781 0.25 0.7494   -0.065885
 C 0.2515 0.25 0.65   0.14856
 C 0.1819 0.25 0.5971   -0.389062
 C 0.1219 0.25 0.2494   -0.065885
 C 0.2485 0.25 0.15   0.14856
 C 0.3181 0.25 0.0971   -0.389062
 C 0.6219 0.75 0.2506   -0.065497
 C 0.7485 0.75 0.35   0.148532
 C 0.8181 0.75 0.4029   -0.388648
 C 0.182 0.25 0.8657   0.149298
 C 0.2441 0.25 0.9239   -0.394019
 C 0.0671 0.25 0.7626   -0.049268
 C 0.682 0.75 0.6343   0.14316
 C 0.7441 0.75 0.5761   -0.393457
 C 0.5671 0.75 0.7374   -0.050355
 C 0.818 0.75 0.1343   0.14316
 C 0.7559 0.75 0.0761   -0.393457
 C 0.9329 0.75 0.2374   -0.050355
 C 0.318 0.25 0.3657   0.149298
 C 0.2559 0.25 0.4239   -0.39402
 C 0.4329 0.25 0.2626   -0.049268
 O 0.0823 0.5145 0.61041   -0.607131
 O 0.2006 0.5573 0.67012   -0.844534
 O 0.1169 0.5258 0.39226   -0.629145
 O 0.258 0.5525 0.34946   -0.82677
 O 0.95 0.59998 0.71173   -0.646423
 O 0.828 0.5337 0.75437   -0.802407
 O 0.0041 0.4001 0.71678   -0.65934
 O 0.1147 0.4666 0.76944   -0.783345
 O 0.5823 0.4855 0.88959   -0.608015
 O 0.7006 0.4427 0.82988   -0.842551
 O 0.6169 0.4742 0.10774   -0.628172
 O 0.758 0.4475 0.15054   -0.826168
 O 0.45 0.40002 0.78827   -0.648382
 O 0.328 0.4663 0.74563   -0.803279
 O 0.5041 0.5999 0.78322   -0.656406
 O 0.6147 0.5334 0.73056   -0.783148
 O 0.9177 0.0145 0.38959   -0.60736
 O 0.7994 0.0573 0.32988   -0.84394
 O 0.8831 0.0258 0.60774   -0.628852
 O 0.742 0.0525 0.65054   -0.827666
 O 0.05 0.09998 0.28827   -0.646392
 O 0.172 0.0337 0.24563   -0.803054
 O 0.9959 0.9001 0.28322   -0.659533
 O 0.8853 0.9666 0.23056   -0.783821
 O 0.4177 0.9855 0.11041   -0.607709
 O 0.2994 0.9427 0.17012   -0.843111
 O 0.3831 0.9742 0.89226   -0.628487
 O 0.242 0.9475 0.84946   -0.825285
 O 0.55 0.90002 0.21173   -0.648572
 O 0.672 0.9663 0.25437   -0.802811
 O 0.4959 0.0999 0.21678   -0.65621
 O 0.3853 0.0334 0.26944   -0.782572
 O 0.9177 0.4855 0.38959   -0.608015
 O 0.7994 0.4427 0.32988   -0.842551
 O 0.8831 0.4742 0.60774   -0.628172
 O 0.742 0.4475 0.65054   -0.826168
 O 0.05 0.40002 0.28827   -0.648382
 O 0.172 0.4663 0.24563   -0.803279
 O 0.9959 0.5999 0.28322   -0.656406
 O 0.8853 0.5334 0.23056   -0.783148
 O 0.4177 0.5145 0.11041   -0.607131
 O 0.2994 0.5573 0.17012   -0.844534
 O 0.3831 0.5258 0.89226   -0.629145
 O 0.242 0.5525 0.84946   -0.82677
 O 0.55 0.59998 0.21173   -0.646423
 O 0.672 0.5337 0.25437   -0.802407
 O 0.4959 0.4001 0.21678   -0.65934
 O 0.3853 0.4666 0.26944   -0.783345
 O 0.0823 0.9855 0.61041   -0.607709
 O 0.2006 0.9427 0.67012   -0.843111
 O 0.1169 0.9742 0.39226   -0.628487
 O 0.258 0.9475 0.34946   -0.825285
 O 0.95 0.90002 0.71173   -0.648572
 O 0.828 0.9663 0.75437   -0.802811
 O 0.0041 0.0999 0.71678   -0.65621
 O 0.1147 0.0334 0.76944   -0.782572
 O 0.5823 0.0145 0.88959   -0.60736
 O 0.7006 0.0573 0.82988   -0.843939
 O 0.6169 0.0258 0.10774   -0.628852
 O 0.758 0.0525 0.15054   -0.827666
 O 0.45 0.09998 0.78827   -0.646392
 O 0.328 0.0337 0.74563   -0.803054
 O 0.5041 0.9001 0.78322   -0.659533
 O 0.6147 0.9666 0.73056   -0.783821
