{'_ref': 'TBD', '_srcid': 'CAKYAQ_clean', 'submitters': [{'name': 'Dalar Nazarian Jeff Camp and David Sholl', 'email': 'dalar@gatech.edu jcamp6@gatech.edu'}], '_method': 'VASP DFT with PBE;DDEC'}
data_CoH10C17NO4
_symmetry_space_group_name_H-M   'P 1'
_cell_length_a   12.93900025
_cell_length_b   13.09199976
_cell_length_c   13.75400000
_cell_angle_alpha   85.44899804
_cell_angle_beta   70.30200192
_cell_angle_gamma   83.73099813
_symmetry_Int_Tables_number   1
_chemical_formula_structural   CoH10C17NO4
_chemical_formula_sum   'Co4 H40 C68 N4 O16'
_cell_volume   2178.18091843
_cell_formula_units_Z   4
loop_
 _symmetry_equiv_pos_site_id
 _symmetry_equiv_pos_as_xyz
  1  'x, y, z'
loop_
 _atom_site_label
 _atom_site_fract_x
 _atom_site_fract_y
 _atom_site_fract_z
 _atom_site_charge
 Co 0.19486 0.81682 0.17002   0.931184
 Co 0.12776 0.82552 0.38169   0.891481
 Co 0.80514 0.18318 0.82998   0.931184
 Co 0.87224 0.17448 0.61831   0.891481
 H 0.8723 0.8034 0.1689   0.10292
 H 0.7438 0.7816 0.0765   0.109507
 H 0.5663 0.7828 0.0776   0.10057
 H 0.4499 0.8324 0.3814   0.101666
 H 0.5806 0.8512 0.4758   0.113657
 H 0.7587 0.8578 0.4724   0.108028
 H 0.1267 0.1553 0.4006   0.101971
 H 0.1057 0.3252 0.4798   0.110933
 H 0.117 0.4995 0.4614   0.103721
 H 0.2074 0.4862 0.1501   0.108834
 H 0.2179 0.3195 0.0726   0.108759
 H 0.2074 0.1449 0.0927   0.090198
 H 0.0791 0.9457 0.0411   0.077099
 H 0.0421 0.9389 0.8882   0.133769
 H 0.211 0.6708 0.8391   0.132201
 H 0.2251 0.6733 0.000599999999999   0.081923
 H 0.1149 0.9703 0.71   0.112801
 H 0.1041 0.971 0.5467   0.080735
 H 0.2043 0.6848 0.5239   0.089329
 H 0.2323 0.6791 0.6822   0.129442
 H 0.1277 0.1966 0.8311   0.10292
 H 0.2562 0.2184 0.9235   0.109506
 H 0.4337 0.2172 0.9224   0.100569
 H 0.5501 0.1676 0.6186   0.101666
 H 0.4194 0.1488 0.5242   0.113656
 H 0.2413 0.1422 0.5276   0.108028
 H 0.8733 0.8447 0.5994   0.101972
 H 0.8943 0.6748 0.5202   0.110933
 H 0.883 0.5005 0.5386   0.103721
 H 0.7926 0.5138 0.8499   0.108834
 H 0.7821 0.6805 0.9274   0.108757
 H 0.7926 0.8551 0.9073   0.090197
 H 0.9209 0.0543 0.9589   0.0771
 H 0.9579 0.0611 0.1118   0.13377
 H 0.789 0.3292 0.1609   0.132201
 H 0.7749 0.3267 0.9994   0.081923
 H 0.8851 0.0297 0.29   0.112801
 H 0.8959 0.029 0.4533   0.080735
 H 0.7957 0.3152 0.4761   0.089329
 H 0.7677 0.3209 0.3178   0.129443
 C 0.9481 0.8308 0.3172   0.654807
 C 0.8336 0.8288 0.3188   -0.129451
 C 0.8121 0.8134 0.2311   -0.08484
 C 0.7038 0.8117 0.2287   0.049019
 C 0.684 0.7936 0.1386   -0.152172
 C 0.5791 0.7934 0.1399   -0.039688
 C 0.4878 0.8084 0.2314   -0.117712
 C 0.5101 0.8237 0.319   -0.078573
 C 0.6157 0.8273 0.322   0.044164
 C 0.6395 0.8425 0.4124   -0.139355
 C 0.745 0.8451 0.411   -0.063625
 C 0.3733 0.8093 0.2327   0.67866
 C 0.1599 0.0186 0.2616   0.652099
 C 0.1653 0.1329 0.2502   -0.133582
 C 0.1445 0.1893 0.3342   -0.070166
 C 0.1484 0.2956 0.3259   0.04175
 C 0.1258 0.3574 0.4124   -0.121922
 C 0.1318 0.4605 0.402   -0.060342
 C 0.1603 0.51 0.3024   -0.124095
 C 0.1848 0.453 0.217   -0.093952
 C 0.177 0.3452 0.2268   0.047793
 C 0.1989 0.2869 0.1398   -0.151173
 C 0.1927 0.1839 0.152   -0.045227
 C 0.1637 0.6234 0.2913   0.664173
 C 0.1147 0.8917 0.9959   0.140857
 C 0.0959 0.8911 0.9033   -0.209033
 C 0.1587 0.8172 0.8307   0.117405
 C 0.1929 0.7333 0.8742   -0.210697
 C 0.2024 0.7361 0.9711   0.172859
 C 0.1489 0.8195 0.7266   0.092392
 C 0.1264 0.907 0.677   -0.183114
 C 0.1196 0.907 0.579   0.174999
 C 0.1792 0.7431 0.5653   0.152804
 C 0.1933 0.7375 0.6612   -0.202902
 C 0.0519 0.1692 0.6828   0.654807
 C 0.1664 0.1712 0.6812   -0.129451
 C 0.1879 0.1866 0.7689   -0.084839
 C 0.2962 0.1883 0.7713   0.049018
 C 0.316 0.2064 0.8614   -0.152172
 C 0.4209 0.2066 0.8601   -0.039688
 C 0.5122 0.1916 0.7686   -0.117712
 C 0.4899 0.1763 0.681   -0.078573
 C 0.3843 0.1727 0.678   0.044163
 C 0.3605 0.1575 0.5876   -0.139352
 C 0.255 0.1549 0.589   -0.063626
 C 0.6267 0.1907 0.7673   0.67866
 C 0.8401 0.9814 0.7384   0.6521
 C 0.8347 0.8671 0.7498   -0.133582
 C 0.8555 0.8107 0.6658   -0.070166
 C 0.8516 0.7044 0.6741   0.041751
 C 0.8742 0.6426 0.5876   -0.121922
 C 0.8682 0.5395 0.598   -0.06034
 C 0.8397 0.49 0.6976   -0.124095
 C 0.8152 0.547 0.783   -0.093952
 C 0.823 0.6548 0.7732   0.047792
 C 0.8011 0.7131 0.8602   -0.151173
 C 0.8073 0.8161 0.848   -0.045227
 C 0.8363 0.3766 0.7087   0.664173
 C 0.8853 0.1083 0.0041   0.140857
 C 0.9041 0.1089 0.0967   -0.209033
 C 0.8413 0.1828 0.1693   0.117404
 C 0.8071 0.2667 0.1258   -0.210697
 C 0.7976 0.2639 0.0289   0.172859
 C 0.8511 0.1805 0.2734   0.092393
 C 0.8736 0.093 0.323   -0.183114
 C 0.8804 0.093 0.421   0.174999
 C 0.8208 0.2569 0.4347   0.152805
 C 0.8067 0.2625 0.3388   -0.202903
 N 0.1829 0.8175 0.0255   -0.292088
 N 0.1334 0.824 0.5286   -0.293412
 N 0.8171 0.1825 0.9745   -0.292088
 N 0.8666 0.176 0.4714   -0.293412
 O 0.0234 0.82539 0.22994   -0.623075
 O 0.9646 0.83744 0.40143   -0.547482
 O 0.2981 0.81093 0.3179   -0.608652
 O 0.3575 0.8085 0.1464   -0.569655
 O 0.1822 0.9714 0.17849   -0.5744
 O 0.1345 0.97822 0.35051   -0.547485
 O 0.1364 0.67197 0.37354   -0.56496
 O 0.1921 0.66542 0.20123   -0.571678
 O 0.9766 0.17461 0.77006   -0.623075
 O 0.0354 0.16256 0.59857   -0.547482
 O 0.7019 0.18907 0.6821   -0.608652
 O 0.6425 0.1915 0.8536   -0.569655
 O 0.8178 0.0286 0.82151   -0.5744
 O 0.8655 0.02178 0.64949   -0.547485
 O 0.8636 0.32803 0.62646   -0.564961
 O 0.8079 0.33458 0.79877   -0.571678
