{'_ref': 'TBD', '_srcid': 'CAKYAQ_clean', 'submitters': [{'name': 'Dalar Nazarian Jeff Camp and David Sholl', 'email': 'dalar@gatech.edu jcamp6@gatech.edu'}], '_method': 'VASP DFT with PBE;DDEC'}
data_ErH12C12(NO3)3
_symmetry_space_group_name_H-M   'P 1'
_cell_length_a   7.85289946
_cell_length_b   12.18600031
_cell_length_c   13.22170000
_cell_angle_alpha   112.15599935
_cell_angle_beta   105.45699759
_cell_angle_gamma   91.54100281
_symmetry_Int_Tables_number   1
_chemical_formula_structural   ErH12C12(NO3)3
_chemical_formula_sum   'Er2 H24 C24 N6 O18'
_cell_volume   1117.88373614
_cell_formula_units_Z   2
loop_
 _symmetry_equiv_pos_site_id
 _symmetry_equiv_pos_as_xyz
  1  'x, y, z'
loop_
 _atom_site_label
 _atom_site_fract_x
 _atom_site_fract_y
 _atom_site_fract_z
 _atom_site_charge
 Er 0.7497 0.98145 0.01074   1.486722
 Er 0.2503 0.01855 0.98926   1.486731
 H 0.0768 0.1537 0.4153   0.086239
 H 0.068 0.275 0.4   0.084564
 H 0.2619 0.2287 0.2925   0.133451
 H 0.2977 0.1142 0.3182   0.147669
 H 0.5939 0.1155 0.6819   0.088326
 H 0.6948 0.2322 0.788   0.090449
 H 0.4481 0.2421 0.8584   0.144668
 H 0.3512 0.1234 0.7535   0.149838
 H 0.6199 0.6051 0.7784   0.090656
 H 0.5113 0.6125 0.6633   0.07766
 H 0.3464 0.5959 0.8232   0.147889
 H 0.2509 0.6185 0.7141   0.143817
 H 0.9232 0.8463 0.5847   0.086238
 H 0.932 0.725 0.6   0.084558
 H 0.7381 0.7713 0.7075   0.133446
 H 0.7023 0.8858 0.6818   0.147663
 H 0.4061 0.8845 0.3181   0.088324
 H 0.3052 0.7678 0.212   0.09045
 H 0.5519 0.7579 0.1416   0.144669
 H 0.6488 0.8766 0.2465   0.149835
 H 0.3801 0.3949 0.2216   0.090655
 H 0.4887 0.3875 0.3367   0.077655
 H 0.6536 0.4041 0.1768   0.14789
 H 0.7491 0.3815 0.2859   0.143812
 C 0.3396 0.3987 0.5587   0.617947
 C 0.3662 0.2052 0.5725   0.617445
 C 0.537 0.3871 0.73   0.611946
 C 0.1461 0.217 0.4096   0.084151
 C 0.2081 0.1648 0.3059   -0.372377
 C 0.0535 0.0924 0.2031   0.740288
 C 0.5778 0.1909 0.737   0.080594
 C 0.467 0.1666 0.8049   -0.385409
 C 0.554 0.0947 0.8701   0.747866
 C 0.5047 0.5819 0.7202   0.082253
 C 0.3629 0.635 0.7741   -0.380734
 C 0.4061 0.7684 0.8436   0.742806
 C 0.6604 0.6013 0.4413   0.617947
 C 0.6338 0.7948 0.4275   0.617445
 C 0.463 0.6129 0.27   0.611946
 C 0.8539 0.783 0.5904   0.084153
 C 0.7919 0.8352 0.6941   -0.372373
 C 0.9465 0.9076 0.7969   0.740287
 C 0.4222 0.8091 0.263   0.080594
 C 0.533 0.8334 0.1951   -0.385408
 C 0.446 0.9053 0.1299   0.747865
 C 0.4953 0.4181 0.2798   0.082255
 C 0.6371 0.365 0.2259   -0.380733
 C 0.5939 0.2316 0.1564   0.742805
 N 0.4631 0.4503 0.6659   -0.303722
 N 0.2918 0.2758 0.5168   -0.315158
 N 0.4939 0.2641 0.6759   -0.308699
 N 0.5369 0.5497 0.3341   -0.303722
 N 0.7082 0.7242 0.4832   -0.315158
 N 0.5061 0.7359 0.3241   -0.308699
 O 0.9237 0.0425 0.2143   -0.560645
 O 0.0554 0.0864 0.104   -0.671854
 O 0.5577 0.819 0.8607   -0.601778
 O 0.2824 0.8186 0.8804   -0.550492
 O 0.4645 0.05 0.9148   -0.681463
 O 0.7141 0.0809 0.8811   -0.57278
 O 0.6375 0.4364 0.8265   -0.498072
 O 0.2752 0.4572 0.5057   -0.503913
 O 0.3228 0.0978 0.531   -0.490144
 O 0.0763 0.9575 0.7857   -0.560645
 O 0.9446 0.9136 0.896   -0.671853
 O 0.4423 0.181 0.1393   -0.601778
 O 0.7176 0.1814 0.1196   -0.550491
 O 0.5355 0.95 0.0852   -0.681463
 O 0.2859 0.9191 0.1189   -0.57278
 O 0.3625 0.5636 0.1735   -0.498066
 O 0.7248 0.5428 0.4943   -0.503913
 O 0.6772 0.9022 0.469   -0.490144
