{'_ref': 'TBD', '_srcid': 'CAKYAQ_clean', 'submitters': [{'name': 'Dalar Nazarian Jeff Camp and David Sholl', 'email': 'dalar@gatech.edu jcamp6@gatech.edu'}], '_method': 'VASP DFT with PBE;DDEC'}
data_NdZnH5C13(NO4)2
_symmetry_space_group_name_H-M   'P 1'
_cell_length_a   9.59030000
_cell_length_b   10.18059959
_cell_length_c   20.28050000
_cell_angle_alpha   102.76500176
_cell_angle_beta   90.00000000
_cell_angle_gamma   90.00000000
_symmetry_Int_Tables_number   1
_chemical_formula_structural   NdZnH5C13(NO4)2
_chemical_formula_sum   'Nd4 Zn4 H20 C52 N8 O32'
_cell_volume   1931.14787445
_cell_formula_units_Z   4
loop_
 _symmetry_equiv_pos_site_id
 _symmetry_equiv_pos_as_xyz
  1  'x, y, z'
loop_
 _atom_site_label
 _atom_site_fract_x
 _atom_site_fract_y
 _atom_site_fract_z
 _atom_site_charge
 Nd 0.43038 0.76885 0.79799   2.310208
 Nd 0.93038 0.73115 0.70201   2.310208
 Nd 0.56962 0.23115 0.20201   2.310208
 Nd 0.06962 0.26885 0.29799   2.310208
 Zn 0.86146 0.30099 0.66342   1.029565
 Zn 0.36146 0.19901 0.83658   1.029565
 Zn 0.13854 0.69901 0.33658   1.029565
 Zn 0.63854 0.80099 0.16342   1.029565
 H 0.0062 0.9408 0.1526   0.059961
 H 0.9002 0.8208 0.0559   0.097062
 H 0.0197 0.7786 0.9545   0.100093
 H 0.3497 0.982 0.0468   0.11416
 H 0.6242 0.1042 0.721   0.086776
 H 0.5062 0.5592 0.3474   0.059961
 H 0.4002 0.6792 0.4441   0.097062
 H 0.5197 0.7214 0.5455   0.100093
 H 0.8497 0.518 0.4532   0.11416
 H 0.1242 0.3958 0.779   0.086776
 H 0.9938 0.0592 0.8474   0.059961
 H 0.0998 0.1792 0.9441   0.097063
 H 0.9803 0.2214 0.0455   0.100093
 H 0.6503 0.018 0.9532   0.11416
 H 0.3758 0.8958 0.279   0.086776
 H 0.4938 0.4408 0.6526   0.059961
 H 0.5998 0.3208 0.5559   0.097063
 H 0.4803 0.2786 0.4545   0.100093
 H 0.1503 0.482 0.5468   0.11416
 H 0.8758 0.6042 0.221   0.086776
 C 0.1882 0.9729 0.1101   -0.21679
 C 0.0544 0.9245 0.1118   0.009715
 C 0.9908 0.8524 0.054   -0.131769
 C 0.062 0.8275 0.9935   0.006207
 C 0.196 0.87508 0.99078   -0.149288
 C 0.2598 0.94889 0.04889   0.021738
 C 0.2745 0.84546 0.92526   0.678235
 C 0.2565 0.05092 0.17412   0.812359
 C 0.7065 0.53293 0.73893   0.726965
 C 0.6412 0.41176 0.75316   -0.008542
 C 0.5389 0.38684 0.79624   0.025929
 C 0.4519 0.47305 0.84855   0.691447
 C 0.6137 0.1963 0.7378   0.348464
 C 0.6882 0.5271 0.3899   -0.21679
 C 0.5544 0.5755 0.3882   0.009715
 C 0.4908 0.6476 0.446   -0.131769
 C 0.562 0.6725 0.5065   0.006207
 C 0.696 0.62492 0.50922   -0.149288
 C 0.7598 0.55111 0.45111   0.021738
 C 0.7745 0.65454 0.57474   0.678235
 C 0.7565 0.44908 0.32588   0.812359
 C 0.2065 0.96707 0.76107   0.726965
 C 0.1412 0.08824 0.74684   -0.008542
 C 0.0389 0.11316 0.70376   0.025928
 C 0.9519 0.02695 0.65145   0.691447
 C 0.1137 0.3037 0.7622   0.348464
 C 0.8118 0.0271 0.8899   -0.21679
 C 0.9456 0.0755 0.8882   0.009715
 C 0.0092 0.1476 0.946   -0.13177
 C 0.938 0.1725 0.0065   0.006206
 C 0.804 0.12492 0.00922   -0.149288
 C 0.7402 0.05111 0.95111   0.021738
 C 0.7255 0.15454 0.07474   0.678235
 C 0.7435 0.94908 0.82588   0.812359
 C 0.2935 0.46707 0.26107   0.726965
 C 0.3588 0.58824 0.24684   -0.008542
 C 0.4611 0.61316 0.20376   0.025929
 C 0.5481 0.52695 0.15145   0.691446
 C 0.3863 0.8037 0.2622   0.348464
 C 0.3118 0.4729 0.6101   -0.21679
 C 0.4456 0.4245 0.6118   0.009715
 C 0.5092 0.3524 0.554   -0.13177
 C 0.438 0.3275 0.4935   0.006206
 C 0.304 0.37508 0.49078   -0.149288
 C 0.2402 0.44889 0.54889   0.021738
 C 0.2255 0.34546 0.42526   0.678235
 C 0.2435 0.55092 0.67412   0.812359
 C 0.7935 0.03293 0.23893   0.726965
 C 0.8588 0.91176 0.25316   -0.008542
 C 0.9611 0.88684 0.29624   0.025928
 C 0.0481 0.97305 0.34855   0.691446
 C 0.8863 0.6963 0.2378   0.348464
 N 0.6878 0.28944 0.71624   -0.458996
 N 0.523 0.24954 0.78604   -0.472664
 N 0.1878 0.21056 0.78376   -0.458996
 N 0.023 0.25046 0.71396   -0.472664
 N 0.3122 0.71056 0.28376   -0.458996
 N 0.477 0.75046 0.21396   -0.472664
 N 0.8122 0.78944 0.21624   -0.458996
 N 0.977 0.74954 0.28604   -0.472664
 O 0.2189 0.77228 0.87328   -0.713857
 O 0.3963 0.89212 0.92202   -0.672458
 O 0.3827 0.07811 0.17111   -0.752752
 O 0.1819 0.08249 0.22669   -0.807735
 O 0.6596 0.64842 0.75942   -0.735693
 O 0.8175 0.51053 0.70283   -0.73882
 O 0.4716 0.59926 0.86296   -0.684843
 O 0.3635 0.41436 0.87776   -0.574677
 O 0.7189 0.72772 0.62672   -0.713857
 O 0.8963 0.60788 0.57798   -0.672458
 O 0.8827 0.42189 0.32889   -0.752752
 O 0.6819 0.41751 0.27331   -0.807734
 O 0.1596 0.85158 0.74058   -0.735693
 O 0.3175 0.98947 0.79717   -0.73882
 O 0.9716 0.90074 0.63704   -0.684843
 O 0.8635 0.08564 0.62224   -0.574677
 O 0.7811 0.22772 0.12672   -0.713856
 O 0.6037 0.10788 0.07798   -0.672458
 O 0.6173 0.92189 0.82889   -0.752752
 O 0.8181 0.91751 0.77331   -0.807734
 O 0.3404 0.35158 0.24058   -0.735693
 O 0.1825 0.48947 0.29717   -0.73882
 O 0.5284 0.40074 0.13704   -0.684843
 O 0.6365 0.58564 0.12224   -0.574677
 O 0.2811 0.27228 0.37328   -0.713857
 O 0.1037 0.39212 0.42202   -0.672458
 O 0.1173 0.57811 0.67111   -0.752752
 O 0.3181 0.58249 0.72669   -0.807734
 O 0.8404 0.14842 0.25942   -0.735693
 O 0.6825 0.01053 0.20283   -0.73882
 O 0.0284 0.09926 0.36296   -0.684843
 O 0.1365 0.91436 0.37776   -0.574677
