{'_ref': 'TBD', '_srcid': 'CAKYAQ_clean', 'submitters': [{'name': 'Dalar Nazarian Jeff Camp and David Sholl', 'email': 'dalar@gatech.edu jcamp6@gatech.edu'}], '_method': 'VASP DFT with PBE;DDEC'}
data_AgH11C9S
_symmetry_space_group_name_H-M   'P 1'
_cell_length_a   8.80840026
_cell_length_b   13.09119960
_cell_length_c   13.09120000
_cell_angle_alpha   86.11129926
_cell_angle_beta   70.56599943
_cell_angle_gamma   70.56570077
_symmetry_Int_Tables_number   1
_chemical_formula_structural   AgH11C9S
_chemical_formula_sum   'Ag4 H44 C36 S4'
_cell_volume   1340.89975396
_cell_formula_units_Z   4
loop_
 _symmetry_equiv_pos_site_id
 _symmetry_equiv_pos_as_xyz
  1  'x, y, z'
loop_
 _atom_site_label
 _atom_site_fract_x
 _atom_site_fract_y
 _atom_site_fract_z
 _atom_site_charge
 Ag 0.82906 0.42054 0.3632   -0.280408
 Ag 0.67094 0.6368 0.57946   -0.280406
 Ag 0.17094 0.57946 0.6368   -0.280408
 Ag 0.32906 0.3632 0.42054   -0.280407
 H 0.3165 0.1585 0.3553   0.097973
 H 0.4095 0.982 0.2794   0.090905
 H 0.3831 0.953 0.1142   0.096232
 H 0.2663 0.1008 0.0212   0.088531
 H 0.1674 0.2779 0.0971   0.101427
 H 0.1418 0.4475 0.1355   0.093426
 H 0.1453 0.5309 0.2175   0.100489
 H 0.4402 0.3574 0.0988   0.075086
 H 0.4415 0.4456 0.1774   0.083662
 H 0.3456 0.4999 0.9855   0.066331
 H 0.354 0.5862 0.0628   0.068505
 H 0.1835 0.6447 0.8415   0.097966
 H 0.0905 0.7206 0.018   0.090896
 H 0.1169 0.8858 0.047   0.096223
 H 0.2337 0.9788 0.8992   0.088529
 H 0.3326 0.9029 0.7221   0.101398
 H 0.3582 0.8645 0.5525   0.093421
 H 0.3547 0.7825 0.4691   0.100484
 H 0.0598 0.9012 0.6426   0.075082
 H 0.0585 0.8226 0.5544   0.08366
 H 0.1544 0.0145 0.5001   0.066333
 H 0.146 0.9372 0.4138   0.068505
 H 0.6835 0.8415 0.6447   0.097973
 H 0.5905 0.018 0.7206   0.090903
 H 0.6169 0.047 0.8858   0.096232
 H 0.7337 0.8992 0.9788   0.088531
 H 0.8326 0.7221 0.9029   0.101427
 H 0.8582 0.5525 0.8645   0.093426
 H 0.8547 0.4691 0.7825   0.100489
 H 0.5598 0.6426 0.9012   0.075087
 H 0.5585 0.5544 0.8226   0.083661
 H 0.6544 0.5001 0.0145   0.066329
 H 0.646 0.4138 0.9372   0.068505
 H 0.8165 0.3553 0.1585   0.097966
 H 0.9095 0.2794 0.982   0.090895
 H 0.8831 0.1142 0.953   0.096224
 H 0.7663 0.0212 0.1008   0.088528
 H 0.6674 0.0971 0.2779   0.101397
 H 0.6418 0.1355 0.4475   0.093422
 H 0.6453 0.2175 0.5309   0.100483
 H 0.9402 0.0988 0.3574   0.075084
 H 0.9415 0.1774 0.4456   0.08366
 H 0.8456 0.9855 0.4999   0.066331
 H 0.854 0.0628 0.5862   0.068505
 C 0.2323 0.234 0.2334   0.000814
 C 0.3049 0.1469 0.2879   -0.120053
 C 0.3606 0.042 0.2422   -0.068077
 C 0.3455 0.0248 0.1444   -0.124955
 C 0.275 0.1127 0.0895   -0.06047
 C 0.2169 0.2179 0.1341   -0.1323
 C 0.1972 0.455 0.1878   -0.168654
 C 0.3853 0.4337 0.1273   -0.131823
 C 0.4066 0.5101 0.0333   -0.10794
 C 0.2677 0.7666 0.766   0.00079
 C 0.1951 0.7121 0.8531   -0.120036
 C 0.1394 0.7578 0.958   -0.068079
 C 0.1545 0.8556 0.9752   -0.124946
 C 0.225 0.9105 0.8873   -0.060455
 C 0.2831 0.8659 0.7821   -0.132258
 C 0.3028 0.8122 0.545   -0.168648
 C 0.1147 0.8727 0.5663   -0.131825
 C 0.0934 0.9667 0.4899   -0.107945
 C 0.7677 0.766 0.7666   0.000815
 C 0.6951 0.8531 0.7121   -0.120054
 C 0.6394 0.958 0.7578   -0.068077
 C 0.6545 0.9752 0.8556   -0.124956
 C 0.725 0.8873 0.9105   -0.060469
 C 0.7831 0.7821 0.8659   -0.1323
 C 0.8028 0.545 0.8122   -0.168654
 C 0.6147 0.5663 0.8727   -0.131824
 C 0.5934 0.4899 0.9667   -0.107937
 C 0.7323 0.2334 0.234   0.00079
 C 0.8049 0.2879 0.1469   -0.120036
 C 0.8606 0.2422 0.042   -0.068078
 C 0.8455 0.1444 0.0248   -0.124947
 C 0.775 0.0895 0.1127   -0.060454
 C 0.7169 0.1341 0.2179   -0.132258
 C 0.6972 0.1878 0.455   -0.168648
 C 0.8853 0.1273 0.4337   -0.131825
 C 0.9066 0.0333 0.5101   -0.107941
 S 0.15148 0.36574 0.2983   0.2313
 S 0.34852 0.7017 0.63426   0.231311
 S 0.84852 0.63426 0.7017   0.2313
 S 0.65148 0.2983 0.36574   0.231311
