{'_ref': 'TBD', '_srcid': 'CAKYAQ_clean', 'submitters': [{'name': 'Dalar Nazarian Jeff Camp and David Sholl', 'email': 'dalar@gatech.edu jcamp6@gatech.edu'}], '_method': 'VASP DFT with PBE;DDEC'}
data_BaCoH4(C3O4)2
_symmetry_space_group_name_H-M   'P 1'
_cell_length_a   6.78300000
_cell_length_b   9.39400000
_cell_length_c   18.97400000
_cell_angle_alpha   90.00000000
_cell_angle_beta   90.00000000
_cell_angle_gamma   90.00000000
_symmetry_Int_Tables_number   1
_chemical_formula_structural   BaCoH4(C3O4)2
_chemical_formula_sum   'Ba4 Co4 H16 C24 O32'
_cell_volume   1209.01383095
_cell_formula_units_Z   4
loop_
 _symmetry_equiv_pos_site_id
 _symmetry_equiv_pos_as_xyz
  1  'x, y, z'
loop_
 _atom_site_label
 _atom_site_fract_x
 _atom_site_fract_y
 _atom_site_fract_z
 _atom_site_charge
 Ba 0.75 0.97294 0.75   1.720514
 Ba 0.25 0.52706 0.25   1.720514
 Ba 0.25 0.02706 0.25   1.720496
 Ba 0.75 0.47294 0.75   1.720496
 Co 0.5 0.0 0.5   1.177995
 Co 0.0 0.0 0.0   1.177995
 Co 0.0 0.5 0.5   1.177995
 Co 0.5 0.5 0.0   1.177995
 H 0.6454 0.4001 0.5845   0.147141
 H 0.4362 0.338 0.5697   0.202856
 H 0.8546 0.4001 0.9155   0.147141
 H 0.0638 0.338 0.9303   0.202856
 H 0.1454 0.0999 0.4155   0.147141
 H 0.9362 0.162 0.4303   0.202856
 H 0.3546 0.0999 0.0845   0.147141
 H 0.5638 0.162 0.0697   0.202856
 H 0.3546 0.5999 0.4155   0.14714
 H 0.5638 0.662 0.4303   0.202856
 H 0.1454 0.5999 0.0845   0.14714
 H 0.9362 0.662 0.0697   0.202856
 H 0.8546 0.9001 0.5845   0.147141
 H 0.0638 0.838 0.5697   0.202856
 H 0.6454 0.9001 0.9155   0.147141
 H 0.4362 0.838 0.9303   0.202856
 C 0.6187 0.1945 0.6157   0.866092
 C 0.576 0.3174 0.5665   -0.609204
 C 0.6267 0.3032 0.4897   0.813909
 C 0.8813 0.1945 0.8843   0.866092
 C 0.924 0.3174 0.9335   -0.609204
 C 0.8733 0.3032 0.0103   0.813909
 C 0.1187 0.3055 0.3843   0.866093
 C 0.076 0.1826 0.4335   -0.609205
 C 0.1267 0.1968 0.5103   0.813911
 C 0.3813 0.3055 0.1157   0.866093
 C 0.424 0.1826 0.0665   -0.609205
 C 0.3733 0.1968 0.9897   0.813911
 C 0.3813 0.8055 0.3843   0.866092
 C 0.424 0.6826 0.4335   -0.609204
 C 0.3733 0.6968 0.5103   0.813909
 C 0.1187 0.8055 0.1157   0.866092
 C 0.076 0.6826 0.0665   -0.609204
 C 0.1267 0.6968 0.9897   0.813909
 C 0.8813 0.6945 0.6157   0.866093
 C 0.924 0.8174 0.5665   -0.609205
 C 0.8733 0.8032 0.4897   0.813911
 C 0.6187 0.6945 0.8843   0.866093
 C 0.576 0.8174 0.9335   -0.609205
 C 0.6267 0.8032 0.0103   0.813911
 O 0.6157 0.0662 0.59368   -0.70239
 O 0.6508 0.2233 0.67884   -0.846167
 O 0.5714 0.1938 0.45585   -0.67161
 O 0.7197 0.4022 0.46084   -0.649878
 O 0.8843 0.0662 0.90632   -0.70239
 O 0.8492 0.2233 0.82116   -0.846167
 O 0.9286 0.1938 0.04415   -0.67161
 O 0.7803 0.4022 0.03916   -0.649878
 O 0.1157 0.4338 0.40632   -0.70239
 O 0.1508 0.2767 0.32116   -0.846167
 O 0.0714 0.3062 0.54415   -0.67161
 O 0.2197 0.0978 0.53916   -0.649878
 O 0.3843 0.4338 0.09368   -0.70239
 O 0.3492 0.2767 0.17884   -0.846167
 O 0.4286 0.3062 0.95585   -0.67161
 O 0.2803 0.0978 0.96084   -0.649878
 O 0.3843 0.9338 0.40632   -0.70239
 O 0.3492 0.7767 0.32116   -0.846167
 O 0.4286 0.8062 0.54415   -0.671609
 O 0.2803 0.5978 0.53916   -0.649878
 O 0.1157 0.9338 0.09368   -0.70239
 O 0.1508 0.7767 0.17884   -0.846167
 O 0.0714 0.8062 0.95585   -0.671609
 O 0.2197 0.5978 0.96084   -0.649878
 O 0.8843 0.5662 0.59368   -0.702389
 O 0.8492 0.7233 0.67884   -0.846167
 O 0.9286 0.6938 0.45585   -0.67161
 O 0.7803 0.9022 0.46084   -0.649878
 O 0.6157 0.5662 0.90632   -0.702389
 O 0.6508 0.7233 0.82116   -0.846167
 O 0.5714 0.6938 0.04415   -0.67161
 O 0.7197 0.9022 0.03916   -0.649878
