{'_ref': 'TBD', '_srcid': 'CAKYAQ_clean', 'submitters': [{'name': 'Dalar Nazarian Jeff Camp and David Sholl', 'email': 'dalar@gatech.edu jcamp6@gatech.edu'}], '_method': 'VASP DFT with PBE;DDEC'}
data_Er(CO2)4
_symmetry_space_group_name_H-M   'P 1'
_cell_length_a   9.61030022
_cell_length_b   11.53100000
_cell_length_c   12.20000000
_cell_angle_alpha   90.00000000
_cell_angle_beta   99.03000026
_cell_angle_gamma   90.00000000
_symmetry_Int_Tables_number   1
_chemical_formula_structural   Er(CO2)4
_chemical_formula_sum   'Er4 C16 O32'
_cell_volume   1335.20394709
_cell_formula_units_Z   4
loop_
 _symmetry_equiv_pos_site_id
 _symmetry_equiv_pos_as_xyz
  1  'x, y, z'
loop_
 _atom_site_label
 _atom_site_fract_x
 _atom_site_fract_y
 _atom_site_fract_z
 _atom_site_charge
 Er 0.78491 0.98848 0.66702   1.319384
 Er 0.71509 0.48848 0.83298   1.319384
 Er 0.21509 0.01152 0.33298   1.319383
 Er 0.28491 0.51152 0.16702   1.319383
 C 0.7998 0.2585 0.7163   0.535141
 C 0.6957 0.2141 0.7922   0.519995
 C 0.496 0.9339 0.5012   0.535939
 C 0.063 0.000700000000002 0.547   0.536465
 C 0.7002 0.7585 0.7837   0.53514
 C 0.8043 0.7141 0.7078   0.519995
 C 0.004 0.4339 0.9988   0.535938
 C 0.437 0.5007 0.953   0.536464
 C 0.2002 0.7415 0.2837   0.535141
 C 0.3043 0.7859 0.2078   0.519995
 C 0.504 0.0661 0.4988   0.535931
 C 0.937 0.9993 0.453   0.536466
 C 0.2998 0.2415 0.2163   0.53514
 C 0.1957 0.2859 0.2922   0.519995
 C 0.996 0.5661 0.0012   0.535931
 C 0.563 0.4993 0.047   0.536465
 O 0.8638 0.1829 0.6702   -0.441657
 O 0.8114 0.3656 0.7079   -0.421583
 O 0.6772 0.107 0.7948   -0.410079
 O 0.6377 0.2908 0.8433   -0.431918
 O 0.5882 0.8823 0.568   -0.446931
 O 0.3972 0.8877 0.4375   -0.437139
 O 0.0334 0.9922 0.6442   -0.411358
 O 0.1822 0.0108 0.5216   -0.446257
 O 0.6362 0.6829 0.8298   -0.441657
 O 0.6886 0.8656 0.7921   -0.421581
 O 0.8228 0.607 0.7052   -0.410077
 O 0.8623 0.7908 0.6567   -0.431918
 O 0.9118 0.3823 0.932   -0.446931
 O 0.1028 0.3877 0.0625   -0.437139
 O 0.4666 0.4922 0.8558   -0.411358
 O 0.3178 0.5108 0.9784   -0.446257
 O 0.1362 0.8171 0.3298   -0.441657
 O 0.1886 0.6344 0.2921   -0.421583
 O 0.3228 0.893 0.2052   -0.410078
 O 0.3623 0.7092 0.1567   -0.431918
 O 0.4118 0.1177 0.432   -0.44693
 O 0.6028 0.1123 0.5625   -0.437139
 O 0.9666 0.0078 0.3558   -0.411358
 O 0.8178 0.9892 0.4784   -0.446257
 O 0.3638 0.3171 0.1702   -0.441657
 O 0.3114 0.1344 0.2079   -0.421581
 O 0.1772 0.393 0.2948   -0.410077
 O 0.1377 0.2092 0.3433   -0.431918
 O 0.0882 0.6177 0.068   -0.44693
 O 0.8972 0.6123 0.9375   -0.437139
 O 0.5334 0.5078 0.1442   -0.411358
 O 0.6822 0.4892 0.0216   -0.446257
