{'_ref': 'TBD', '_srcid': 'CAKYAQ_clean', 'submitters': [{'name': 'Dalar Nazarian Jeff Camp and David Sholl', 'email': 'dalar@gatech.edu jcamp6@gatech.edu'}], '_method': 'VASP DFT with PBE;DDEC'}
data_Cu12H32C58N32Cl
_symmetry_space_group_name_H-M   'P 1'
_cell_length_a   15.50059950
_cell_length_b   15.50059960
_cell_length_c   18.33673808
_cell_angle_alpha   115.00283483
_cell_angle_beta   115.00283809
_cell_angle_gamma   90.00000050
_symmetry_Int_Tables_number   1
_chemical_formula_structural   Cu12H32C58N32Cl
_chemical_formula_sum   'Cu12 H32 C58 N32 Cl1'
_cell_volume   3532.05288007
_cell_formula_units_Z   1
loop_
 _symmetry_equiv_pos_site_id
 _symmetry_equiv_pos_as_xyz
  1  'x, y, z'
loop_
 _atom_site_label
 _atom_site_fract_x
 _atom_site_fract_y
 _atom_site_fract_z
 _atom_site_charge
 Cu 0.88418 0.88418 0.0   0.214653
 Cu 0.11582 0.11582 0.0   0.214653
 Cu 0.88418 0.11582 0.0   0.214496
 Cu 0.11582 0.88418 0.0   0.214496
 Cu 0.69364 0.69364 0.81048   0.09625
 Cu 0.11684 0.11684 0.81048   0.096188
 Cu 0.69364 0.11684 0.81048   0.095744
 Cu 0.11684 0.69364 0.81048   0.095743
 Cu 0.88316 0.30636 0.18952   0.095744
 Cu 0.30636 0.88316 0.18952   0.095744
 Cu 0.88316 0.88316 0.18952   0.096189
 Cu 0.30636 0.30636 0.18952   0.096251
 H 0.7199 0.5342 0.697   0.05619
 H 0.6607 0.3792 0.5782   0.105097
 H 0.9771 0.1628 0.697   0.056104
 H 0.9175 0.199 0.5782   0.105363
 H 0.5342 0.9771 0.697   0.055934
 H 0.3792 0.9175 0.5782   0.105124
 H 0.1628 0.7199 0.697   0.055807
 H 0.199 0.6607 0.5782   0.105383
 H 0.0229 0.4658 0.303   0.055934
 H 0.0825 0.6208 0.4218   0.105124
 H 0.2801 0.8372 0.303   0.055807
 H 0.3393 0.801 0.4218   0.105383
 H 0.8372 0.0229 0.303   0.056103
 H 0.801 0.0825 0.4218   0.105363
 H 0.4658 0.2801 0.303   0.05619
 H 0.6208 0.3393 0.4218   0.105098
 H 0.2801 0.4658 0.303   0.05619
 H 0.3393 0.6208 0.4218   0.105096
 H 0.0229 0.8372 0.303   0.056104
 H 0.0825 0.801 0.4218   0.105363
 H 0.4658 0.0229 0.303   0.055934
 H 0.6208 0.0825 0.4218   0.105123
 H 0.8372 0.2801 0.303   0.055807
 H 0.801 0.3393 0.4218   0.105383
 H 0.9771 0.5342 0.697   0.055934
 H 0.9175 0.3792 0.5782   0.105123
 H 0.7199 0.1628 0.697   0.055807
 H 0.6607 0.199 0.5782   0.105383
 H 0.1628 0.9771 0.697   0.056103
 H 0.199 0.9175 0.5782   0.105363
 H 0.5342 0.7199 0.697   0.05619
 H 0.3792 0.6607 0.5782   0.105097
 C 0.76057 0.50287 0.67394   -0.039116
 C 0.72516 0.40956 0.60252   -0.130314
 C 0.91337 0.17107 0.67394   -0.038723
 C 0.87736 0.19296 0.60252   -0.130976
 C 0.50287 0.91337 0.67394   -0.039055
 C 0.40956 0.87736 0.60252   -0.129962
 C 0.17107 0.76057 0.67394   -0.038066
 C 0.19296 0.72516 0.60252   -0.13131
 C 0.08663 0.49713 0.32606   -0.039054
 C 0.12264 0.59044 0.39748   -0.129961
 C 0.23943 0.82893 0.32606   -0.038066
 C 0.27484 0.80704 0.39748   -0.13131
 C 0.82893 0.08663 0.32606   -0.038721
 C 0.80704 0.12264 0.39748   -0.130977
 C 0.49713 0.23943 0.32606   -0.039112
 C 0.59044 0.27484 0.39748   -0.130322
 C 0.23943 0.49713 0.32606   -0.039116
 C 0.27484 0.59044 0.39748   -0.130314
 C 0.08663 0.82893 0.32606   -0.038723
 C 0.12264 0.80704 0.39748   -0.130976
 C 0.49713 0.08663 0.32606   -0.039055
 C 0.59044 0.12264 0.39748   -0.129962
 C 0.82893 0.23943 0.32606   -0.038067
 C 0.80704 0.27484 0.39748   -0.13131
 C 0.91337 0.50287 0.67394   -0.039054
 C 0.87736 0.40956 0.60252   -0.129961
 C 0.76057 0.17107 0.67394   -0.038066
 C 0.72516 0.19296 0.60252   -0.13131
 C 0.17107 0.91337 0.67394   -0.038721
 C 0.19296 0.87736 0.60252   -0.130977
 C 0.50287 0.76057 0.67394   -0.039112
 C 0.40956 0.72516 0.60252   -0.130322
 C 0.89608 0.64688 0.79216   0.296266
 C 0.85573 0.55023 0.71146   -0.063645
 C 0.78314 0.36014 0.56628   0.037185
 C 0.89608 0.14528 0.79216   0.294811
 C 0.85573 0.16123 0.71146   -0.063703
 C 0.78314 0.20614 0.56628   0.038141
 C 0.64688 0.89608 0.79216   0.296261
 C 0.55023 0.85573 0.71146   -0.063642
 C 0.36014 0.78314 0.56628   0.037188
 C 0.14528 0.89608 0.79216   0.29481
 C 0.16123 0.85573 0.71146   -0.063704
 C 0.20614 0.78314 0.56628   0.038141
 C 0.10392 0.35312 0.20784   0.296266
 C 0.14427 0.44977 0.28854   -0.063645
 C 0.21686 0.63986 0.43372   0.037186
 C 0.10392 0.85472 0.20784   0.294811
 C 0.14427 0.83877 0.28854   -0.063703
 C 0.21686 0.79386 0.43372   0.038141
 C 0.85472 0.10392 0.20784   0.29481
 C 0.83877 0.14427 0.28854   -0.063703
 C 0.79386 0.21686 0.43372   0.038141
 C 0.35312 0.10392 0.20784   0.296261
 C 0.44977 0.14427 0.28854   -0.063643
 C 0.63986 0.21686 0.43372   0.037188
 C 0.75 0.25 0.5   0.03907
 C 0.25 0.75 0.5   0.03907
 N 0.90945 0.7756 0.90432   0.024152
 N 0.84506 0.69506 0.83398   -0.226973
 N 0.99487 0.12872 0.90432   0.02368
 N 0.98892 0.13892 0.83398   -0.226016
 N 0.7756 0.99487 0.90432   0.022484
 N 0.69506 0.98892 0.83398   -0.225256
 N 0.12872 0.90945 0.90432   0.023464
 N 0.13892 0.84506 0.83398   -0.225439
 N 0.00513 0.2244 0.09568   0.022488
 N 0.01108 0.30494 0.16602   -0.225262
 N 0.09055 0.87128 0.09568   0.023461
 N 0.15494 0.86108 0.16602   -0.225437
 N 0.87128 0.00513 0.09568   0.023679
 N 0.86108 0.01108 0.16602   -0.226015
 N 0.2244 0.09055 0.09568   0.024152
 N 0.30494 0.15494 0.16602   -0.226973
 N 0.09055 0.2244 0.09568   0.024179
 N 0.15494 0.30494 0.16602   -0.226975
 N 0.00513 0.87128 0.09568   0.023709
 N 0.01108 0.86108 0.16602   -0.226018
 N 0.2244 0.00513 0.09568   0.022511
 N 0.30494 0.01108 0.16602   -0.225258
 N 0.87128 0.09055 0.09568   0.023494
 N 0.86108 0.15494 0.16602   -0.225441
 N 0.99487 0.7756 0.90432   0.022515
 N 0.98892 0.69506 0.83398   -0.225264
 N 0.90945 0.12872 0.90432   0.023491
 N 0.84506 0.13892 0.83398   -0.225439
 N 0.12872 0.99487 0.90432   0.023709
 N 0.13892 0.98892 0.83398   -0.226017
 N 0.7756 0.90945 0.90432   0.02418
 N 0.69506 0.84506 0.83398   -0.226975
 Cl 0.0 0.0 0.0   -0.491014
