{'_ref': 'TBD', '_srcid': 'CAKYAQ_clean', 'submitters': [{'name': 'Dalar Nazarian Jeff Camp and David Sholl', 'email': 'dalar@gatech.edu jcamp6@gatech.edu'}], '_method': 'VASP DFT with PBE;DDEC'}
data_Nd2Cu3H30C24(NO4)6
_symmetry_space_group_name_H-M   'P 1'
_cell_length_a   13.40270000
_cell_length_b   13.40270028
_cell_length_c   14.66900000
_cell_angle_alpha   90.00000000
_cell_angle_beta   90.00000000
_cell_angle_gamma   119.99999931
_symmetry_Int_Tables_number   1
_chemical_formula_structural   Nd2Cu3H30C24(NO4)6
_chemical_formula_sum   'Nd4 Cu6 H60 C48 N12 O48'
_cell_volume   2282.00055426
_cell_formula_units_Z   2
loop_
 _symmetry_equiv_pos_site_id
 _symmetry_equiv_pos_as_xyz
  1  'x, y, z'
loop_
 _atom_site_label
 _atom_site_fract_x
 _atom_site_fract_y
 _atom_site_fract_z
 _atom_site_charge
 Nd 0.33333 0.66666 0.83111   2.292877
 Nd 0.66667 0.33334 0.66889   2.292877
 Nd 0.66667 0.33334 0.16889   2.292877
 Nd 0.33333 0.66666 0.33111   2.292877
 Cu 0.0 0.5 0.0   0.817487
 Cu 0.5 0.0 0.0   0.817486
 Cu 0.5 0.5 0.0   0.817488
 Cu 0.5 0.5 0.5   0.817487
 Cu 0.5 0.0 0.5   0.817486
 Cu 0.0 0.5 0.5   0.817489
 H 0.0404 0.2925 0.9519   0.12629
 H 0.1395 0.32 0.0217   0.109152
 H 0.9752 0.3263 0.0773   0.258356
 H 0.1908 0.4589 0.1268   0.137138
 H 0.0826 0.3973 0.1902   0.137188
 H 0.2521 0.9596 0.9519   0.126285
 H 0.1805 0.8605 0.0217   0.109146
 H 0.3511 0.0248 0.0773   0.258354
 H 0.2681 0.8092 0.1268   0.137136
 H 0.3147 0.9174 0.1902   0.137187
 H 0.7075 0.7479 0.9519   0.126285
 H 0.68 0.8195 0.0217   0.109152
 H 0.6737 0.6489 0.0773   0.258351
 H 0.5411 0.7319 0.1268   0.137143
 H 0.6027 0.6853 0.1902   0.13719
 H 0.7479 0.7075 0.5481   0.12629
 H 0.8195 0.68 0.4783   0.109152
 H 0.6489 0.6737 0.4227   0.258356
 H 0.7319 0.5411 0.3732   0.137138
 H 0.6853 0.6027 0.3098   0.137189
 H 0.2925 0.0404 0.5481   0.126285
 H 0.32 0.1395 0.4783   0.109146
 H 0.3263 0.9752 0.4227   0.258354
 H 0.4589 0.1908 0.3732   0.137136
 H 0.3973 0.0826 0.3098   0.137187
 H 0.9596 0.2521 0.5481   0.126285
 H 0.8605 0.1805 0.4783   0.109152
 H 0.0248 0.3511 0.4227   0.258351
 H 0.8092 0.2681 0.3732   0.137143
 H 0.9174 0.3147 0.3098   0.13719
 H 0.9596 0.7075 0.0481   0.126289
 H 0.8605 0.68 0.9783   0.10915
 H 0.0248 0.6737 0.9227   0.258356
 H 0.8092 0.5411 0.8732   0.137138
 H 0.9174 0.6027 0.8098   0.137188
 H 0.7479 0.0404 0.0481   0.126284
 H 0.8195 0.1395 0.9783   0.109144
 H 0.6489 0.9752 0.9227   0.258354
 H 0.7319 0.1908 0.8732   0.137136
 H 0.6853 0.0826 0.8098   0.137187
 H 0.2925 0.2521 0.0481   0.126284
 H 0.32 0.1805 0.9783   0.10915
 H 0.3263 0.3511 0.9227   0.258351
 H 0.4589 0.2681 0.8732   0.137143
 H 0.3973 0.3147 0.8098   0.137189
 H 0.2521 0.2925 0.4519   0.126289
 H 0.1805 0.32 0.5217   0.10915
 H 0.3511 0.3263 0.5773   0.258356
 H 0.2681 0.4589 0.6268   0.137138
 H 0.3147 0.3973 0.6902   0.137189
 H 0.7075 0.9596 0.4519   0.126284
 H 0.68 0.8605 0.5217   0.109144
 H 0.6737 0.0248 0.5773   0.258354
 H 0.5411 0.8092 0.6268   0.137136
 H 0.6027 0.9174 0.6902   0.137187
 H 0.0404 0.7479 0.4519   0.126284
 H 0.1395 0.8195 0.5217   0.109151
 H 0.9752 0.6489 0.5773   0.258351
 H 0.1908 0.7319 0.6268   0.137143
 H 0.0826 0.6853 0.6902   0.13719
 C 0.1818 0.4531 0.9322   0.707553
 C 0.0982 0.3521 0.9904   -0.188193
 C 0.1142 0.447 0.1376   -0.225909
 C 0.1226 0.5605 0.1572   0.755855
 C 0.2713 0.8182 0.9322   0.707557
 C 0.2539 0.9018 0.9904   -0.188192
 C 0.3328 0.8858 0.1376   -0.225903
 C 0.4379 0.8774 0.1572   0.755859
 C 0.5469 0.7287 0.9322   0.707558
 C 0.6479 0.7461 0.9904   -0.188195
 C 0.553 0.6672 0.1376   -0.225908
 C 0.4395 0.5621 0.1572   0.755854
 C 0.7287 0.5469 0.5678   0.707553
 C 0.7461 0.6479 0.5096   -0.188193
 C 0.6672 0.553 0.3624   -0.225908
 C 0.5621 0.4395 0.3428   0.755855
 C 0.4531 0.1818 0.5678   0.707557
 C 0.3521 0.0982 0.5096   -0.188192
 C 0.447 0.1142 0.3624   -0.225903
 C 0.5605 0.1226 0.3428   0.755859
 C 0.8182 0.2713 0.5678   0.707558
 C 0.9018 0.2539 0.5096   -0.188196
 C 0.8858 0.3328 0.3624   -0.225908
 C 0.8774 0.4379 0.3428   0.755855
 C 0.8182 0.5469 0.0678   0.707553
 C 0.9018 0.6479 0.0096   -0.188192
 C 0.8858 0.553 0.8624   -0.225908
 C 0.8774 0.4395 0.8428   0.755855
 C 0.7287 0.1818 0.0678   0.707557
 C 0.7461 0.0982 0.0096   -0.188191
 C 0.6672 0.1142 0.8624   -0.225903
 C 0.5621 0.1226 0.8428   0.755859
 C 0.4531 0.2713 0.0678   0.707558
 C 0.3521 0.2539 0.0096   -0.188194
 C 0.447 0.3328 0.8624   -0.225908
 C 0.5605 0.4379 0.8428   0.755854
 C 0.2713 0.4531 0.4322   0.707553
 C 0.2539 0.3521 0.4904   -0.188192
 C 0.3328 0.447 0.6376   -0.225908
 C 0.4379 0.5605 0.6572   0.755855
 C 0.5469 0.8182 0.4322   0.707557
 C 0.6479 0.9018 0.4904   -0.188191
 C 0.553 0.8858 0.6376   -0.225903
 C 0.4395 0.8774 0.6572   0.755859
 C 0.1818 0.7287 0.4322   0.707558
 C 0.0982 0.7461 0.4904   -0.188195
 C 0.1142 0.6672 0.6376   -0.225908
 C 0.1226 0.5621 0.6572   0.755855
 N 0.0411 0.3894 0.05801   -0.282264
 N 0.3483 0.9589 0.05801   -0.282266
 N 0.6106 0.6517 0.05801   -0.282261
 N 0.6517 0.6106 0.44199   -0.282264
 N 0.3894 0.0411 0.44199   -0.282266
 N 0.9589 0.3483 0.44199   -0.282261
 N 0.9589 0.6106 0.94199   -0.282264
 N 0.6517 0.0411 0.94199   -0.282266
 N 0.3894 0.3483 0.94199   -0.282261
 N 0.3483 0.3894 0.55801   -0.282264
 N 0.6106 0.9589 0.55801   -0.282266
 N 0.0411 0.6517 0.55801   -0.282261
 O 0.24234 0.43902 0.87592   -0.66508
 O 0.1848 0.5478 0.94309   -0.73584
 O 0.0741 0.598 0.10552   -0.565049
 O 0.1783 0.615 0.22561   -0.742218
 O 0.19668 0.75766 0.87592   -0.665099
 O 0.363 0.8152 0.94309   -0.73583
 O 0.5239 0.9259 0.10552   -0.565056
 O 0.4367 0.8217 0.22561   -0.742225
 O 0.56098 0.80332 0.87592   -0.665083
 O 0.4522 0.637 0.94309   -0.735854
 O 0.402 0.4761 0.10552   -0.56505
 O 0.385 0.5633 0.22561   -0.742218
 O 0.80332 0.56098 0.62408   -0.66508
 O 0.637 0.4522 0.55691   -0.735839
 O 0.4761 0.402 0.39448   -0.565049
 O 0.5633 0.385 0.27439   -0.742218
 O 0.43902 0.24234 0.62408   -0.665099
 O 0.5478 0.1848 0.55691   -0.73583
 O 0.598 0.0741 0.39448   -0.565056
 O 0.615 0.1783 0.27439   -0.742225
 O 0.75766 0.19668 0.62408   -0.665083
 O 0.8152 0.363 0.55691   -0.735855
 O 0.9259 0.5239 0.39448   -0.56505
 O 0.8217 0.4367 0.27439   -0.742218
 O 0.75766 0.56098 0.12408   -0.66508
 O 0.8152 0.4522 0.05691   -0.73584
 O 0.9259 0.402 0.89448   -0.565049
 O 0.8217 0.385 0.77439   -0.742218
 O 0.80332 0.24234 0.12408   -0.665099
 O 0.637 0.1848 0.05691   -0.73583
 O 0.4761 0.0741 0.89448   -0.565056
 O 0.5633 0.1783 0.77439   -0.742225
 O 0.43902 0.19668 0.12408   -0.665083
 O 0.5478 0.363 0.05691   -0.735854
 O 0.598 0.5239 0.89448   -0.56505
 O 0.615 0.4367 0.77439   -0.742218
 O 0.19668 0.43902 0.37592   -0.66508
 O 0.363 0.5478 0.44309   -0.735839
 O 0.5239 0.598 0.60552   -0.565049
 O 0.4367 0.615 0.72561   -0.742218
 O 0.56098 0.75766 0.37592   -0.665099
 O 0.4522 0.8152 0.44309   -0.73583
 O 0.402 0.9259 0.60552   -0.565056
 O 0.385 0.8217 0.72561   -0.742225
 O 0.24234 0.80332 0.37592   -0.665083
 O 0.1848 0.637 0.44309   -0.735855
 O 0.0741 0.4761 0.60552   -0.56505
 O 0.1783 0.5633 0.72561   -0.742218
