{'_ref': 'TBD', '_srcid': 'CAKYAQ_clean', 'submitters': [{'name': 'Dalar Nazarian Jeff Camp and David Sholl', 'email': 'dalar@gatech.edu jcamp6@gatech.edu'}], '_method': 'VASP DFT with PBE;DDEC'}
data_ZnH14C24(NO2)2
_symmetry_space_group_name_H-M   'P 1'
_cell_length_a   10.98380006
_cell_length_b   14.43360000
_cell_length_c   16.12290000
_cell_angle_alpha   90.00000000
_cell_angle_beta   92.86710167
_cell_angle_gamma   90.00000000
_symmetry_Int_Tables_number   1
_chemical_formula_structural   ZnH14C24(NO2)2
_chemical_formula_sum   'Zn4 H56 C96 N8 O16'
_cell_volume   2552.85690744
_cell_formula_units_Z   4
loop_
 _symmetry_equiv_pos_site_id
 _symmetry_equiv_pos_as_xyz
  1  'x, y, z'
loop_
 _atom_site_label
 _atom_site_fract_x
 _atom_site_fract_y
 _atom_site_fract_z
 _atom_site_charge
 Zn 0.96689 0.62474 0.96584   0.847589
 Zn 0.47637 0.1476 0.58883   0.814038
 Zn 0.03311 0.12474 0.03416   0.847589
 Zn 0.52363 0.6476 0.41117   0.814038
 H 0.6955 0.8992 0.9194   0.104135
 H 0.5874 0.000300000000003 0.8326   0.107418
 H 0.7227 0.935 0.5725   0.098507
 H 0.8519 0.8278 0.5163   0.102885
 H 0.9529 0.7182 0.6058   0.090871
 H 0.9336 0.7252 0.7434   0.108439
 H 0.3764 0.264 0.8366   0.108562
 H 0.2738 0.3562 0.9292   0.101825
 H 0.1102 0.5968 0.7641   0.117826
 H 0.1224 0.6324 0.6255   0.077579
 H 0.2166 0.5358 0.5365   0.095597
 H 0.3049 0.4018 0.5826   0.09952
 H 0.5094 0.9845 0.4773   0.071189
 H 0.4174 0.9072 0.3673   0.132518
 H 0.1097 0.0362 0.4132   0.128403
 H 0.2123 0.1173 0.5178   0.092259
 H 0.2811 0.679 0.2044   0.145114
 H 0.1891 0.6032 0.0942   0.072855
 H 0.9711 0.8092 0.0457   0.071682
 H 0.0571 0.8974 0.1516   0.129109
 H 0.416 0.2481 0.4236   0.078956
 H 0.5133 0.3236 0.3199   0.123345
 H 0.828 0.2939 0.4533   0.128263
 H 0.7304 0.2178 0.5516   0.090884
 H 0.6253 0.5337 0.1402   0.134242
 H 0.7256 0.6185 0.0434   0.103324
 H 0.0141 0.4568 0.0765   0.085734
 H 0.9262 0.386 0.188   0.121915
 H 0.3045 0.3992 0.0806   0.104135
 H 0.4126 0.5003 0.1674   0.107418
 H 0.2773 0.435 0.4275   0.098507
 H 0.1481 0.3278 0.4837   0.102885
 H 0.0471 0.2182 0.3942   0.090871
 H 0.0664 0.2252 0.2566   0.108439
 H 0.6236 0.764 0.1634   0.108562
 H 0.7262 0.8562 0.0708   0.101824
 H 0.8898 0.0968 0.2359   0.117826
 H 0.8776 0.1324 0.3745   0.077579
 H 0.7834 0.0358 0.4635   0.095597
 H 0.6951 0.9018 0.4174   0.099519
 H 0.4906 0.4845 0.5227   0.071189
 H 0.5826 0.4072 0.6327   0.132518
 H 0.8903 0.5362 0.5868   0.128403
 H 0.7877 0.6173 0.4822   0.092259
 H 0.7189 0.179 0.7956   0.145114
 H 0.8109 0.1032 0.9058   0.072855
 H 0.0289 0.3092 0.9543   0.071682
 H 0.9429 0.3974 0.8484   0.129109
 H 0.584 0.7481 0.5764   0.078956
 H 0.4867 0.8236 0.6801   0.123345
 H 0.172 0.7939 0.5467   0.128264
 H 0.2696 0.7178 0.4484   0.090884
 H 0.3747 0.0337 0.8598   0.134243
 H 0.2744 0.1185 0.9566   0.103324
 H 0.9859 0.9568 0.9235   0.085734
 H 0.0738 0.886 0.812   0.121915
 C 0.8415 0.7614 0.8905   0.640258
 C 0.7821 0.8317 0.8337   -0.138572
 C 0.7061 0.8964 0.8626   -0.02191
 C 0.6425 0.9593 0.8106   -0.071375
 C 0.6615 0.9604 0.7264   -0.160549
 C 0.7635 0.8922 0.6069   -0.122452
 C 0.8404 0.8284 0.5731   -0.103512
 C 0.9025 0.7628 0.6277   -0.098794
 C 0.8885 0.7655 0.709   -0.109545
 C 0.8054 0.8289 0.7453   0.03747
 C 0.7461 0.8933 0.6922   0.053845
 C 0.5885 0.0306 0.6732   0.638587
 C 0.3884 0.2687 0.6763   0.658074
 C 0.3272 0.3342 0.7345   -0.111533
 C 0.3322 0.3151 0.8168   -0.090151
 C 0.2709 0.3717 0.8731   -0.03847
 C 0.207 0.4496 0.8465   -0.182358
 C 0.1505 0.557 0.7293   -0.118883
 C 0.1574 0.5778 0.6459   -0.094181
 C 0.2145 0.52 0.5924   -0.09206
 C 0.2677 0.4404 0.62   -0.126938
 C 0.2673 0.4149 0.7045   0.039692
 C 0.2052 0.4751 0.7615   0.068397
 C 0.1429 0.501 0.9127   0.679189
 C 0.4286 0.9985 0.4624   0.165196
 C 0.3727 0.9492 0.3973   -0.186866
 C 0.2565 0.9619 0.378   0.166024
 C 0.1926 0.0264 0.4243   -0.205626
 C 0.2554 0.0751 0.487   0.156331
 C 0.1843 0.9161 0.3086   -0.096939
 C 0.2342 0.8427 0.269   0.022981
 C 0.1751 0.7967 0.1958   0.122132
 C 0.217 0.7067 0.1739   -0.190351
 C 0.1617 0.6621 0.1077   0.159574
 C 0.0341 0.7832 0.0786   0.183903
 C 0.0835 0.8371 0.1433   -0.176745
 C 0.4997 0.2575 0.4293   0.149624
 C 0.5583 0.3022 0.3664   -0.173145
 C 0.6867 0.3154 0.3727   0.162635
 C 0.7445 0.2841 0.4453   -0.208846
 C 0.6857 0.2399 0.5052   0.178494
 C 0.7555 0.3536 0.3064   -0.079784
 C 0.6982 0.4038 0.245   0.015137
 C 0.7685 0.4511 0.1785   0.132984
 C 0.7064 0.5207 0.1309   -0.176076
 C 0.7654 0.5696 0.0708   0.156206
 C 0.9378 0.4758 0.0923   0.168713
 C 0.8826 0.431 0.1579   -0.155774
 C 0.1585 0.2614 0.1095   0.640258
 C 0.2179 0.3317 0.1663   -0.138572
 C 0.2939 0.3964 0.1374   -0.02191
 C 0.3575 0.4593 0.1894   -0.071375
 C 0.3385 0.4604 0.2736   -0.160549
 C 0.2365 0.3922 0.3931   -0.122452
 C 0.1596 0.3284 0.4269   -0.103512
 C 0.0975 0.2628 0.3723   -0.098794
 C 0.1115 0.2655 0.291   -0.109544
 C 0.1946 0.3289 0.2547   0.03747
 C 0.2539 0.3933 0.3078   0.053845
 C 0.4115 0.5306 0.3268   0.638587
 C 0.6116 0.7687 0.3237   0.658074
 C 0.6728 0.8342 0.2655   -0.111533
 C 0.6678 0.8151 0.1832   -0.090151
 C 0.7291 0.8717 0.1269   -0.03847
 C 0.793 0.9496 0.1535   -0.182358
 C 0.8495 0.057 0.2707   -0.118883
 C 0.8426 0.0778 0.3541   -0.094181
 C 0.7855 0.02 0.4076   -0.09206
 C 0.7323 0.9404 0.38   -0.126938
 C 0.7327 0.9149 0.2955   0.039692
 C 0.7948 0.9751 0.2385   0.068397
 C 0.8571 0.000999999999998 0.0873   0.679189
 C 0.5714 0.4985 0.5376   0.165196
 C 0.6273 0.4492 0.6027   -0.186866
 C 0.7435 0.4619 0.622   0.166024
 C 0.8074 0.5264 0.5757   -0.205626
 C 0.7446 0.5751 0.513   0.156331
 C 0.8157 0.4161 0.6914   -0.096939
 C 0.7658 0.3427 0.731   0.02298
 C 0.8249 0.2967 0.8042   0.122132
 C 0.783 0.2067 0.8261   -0.190351
 C 0.8383 0.1621 0.8923   0.159574
 C 0.9659 0.2832 0.9214   0.183903
 C 0.9165 0.3371 0.8567   -0.176745
 C 0.5003 0.7575 0.5707   0.149624
 C 0.4417 0.8022 0.6336   -0.173145
 C 0.3133 0.8154 0.6273   0.162635
 C 0.2555 0.7841 0.5547   -0.208846
 C 0.3143 0.7399 0.4948   0.178494
 C 0.2445 0.8536 0.6936   -0.079783
 C 0.3018 0.9038 0.755   0.015136
 C 0.2315 0.9511 0.8215   0.132984
 C 0.2936 0.0207 0.8691   -0.176076
 C 0.2346 0.0696 0.9292   0.156206
 C 0.0622 0.9758 0.9077   0.168713
 C 0.1174 0.931 0.8421   -0.155774
 N 0.3746 0.0647 0.5053   -0.321488
 N 0.0677 0.7003 0.0601   -0.336866
 N 0.562 0.2267 0.4997   -0.345682
 N 0.8797 0.5473 0.0515   -0.351889
 N 0.6254 0.5647 0.4947   -0.321488
 N 0.9323 0.2003 0.9399   -0.336866
 N 0.438 0.7267 0.5003   -0.345682
 N 0.1203 0.0473 0.9485   -0.351889
 O 0.9517 0.7395 0.8834   -0.561138
 O 0.782 0.7365 0.9515   -0.613135
 O 0.636 0.0691 0.6137   -0.56701
 O 0.4833 0.0489 0.6934   -0.565391
 O 0.5033 0.2559 0.6886   -0.600051
 O 0.3286 0.2314 0.6196   -0.564163
 O 0.1732 0.491 0.9846   -0.574691
 O 0.0542 0.5522 0.887   -0.60709
 O 0.0483 0.2395 0.1166   -0.561138
 O 0.218 0.2365 0.0485   -0.613135
 O 0.364 0.5691 0.3863   -0.56701
 O 0.5167 0.5489 0.3066   -0.565391
 O 0.4967 0.7559 0.3114   -0.600051
 O 0.6714 0.7314 0.3804   -0.564163
 O 0.8268 0.991 0.0154   -0.574691
 O 0.9458 0.0522 0.113   -0.60709
