{'_ref': 'TBD', '_srcid': 'CAKYAQ_clean', 'submitters': [{'name': 'Dalar Nazarian Jeff Camp and David Sholl', 'email': 'dalar@gatech.edu jcamp6@gatech.edu'}], '_method': 'VASP DFT with PBE;DDEC'}
data_InH10C8O5
_symmetry_space_group_name_H-M   'P 1'
_cell_length_a   7.16220017
_cell_length_b   9.09399969
_cell_length_c   9.74900000
_cell_angle_alpha   105.66299798
_cell_angle_beta   103.18099814
_cell_angle_gamma   98.24800096
_symmetry_Int_Tables_number   1
_chemical_formula_structural   InH10C8O5
_chemical_formula_sum   'In2 H20 C16 O10'
_cell_volume   580.885814642
_cell_formula_units_Z   2
loop_
 _symmetry_equiv_pos_site_id
 _symmetry_equiv_pos_as_xyz
  1  'x, y, z'
loop_
 _atom_site_label
 _atom_site_fract_x
 _atom_site_fract_y
 _atom_site_fract_z
 _atom_site_charge
 In 0.0 0.5 0.0   1.615515
 In 0.5 0.5 0.0   1.628861
 H 0.508 0.013 0.709   0.108805
 H 0.7671 0.1141 0.5487   0.080198
 H 0.8129 0.0079 0.6496   0.089082
 H 0.0792 0.2825 0.3503   0.089361
 H 0.0565 0.3032 0.5102   0.069842
 H 0.2065 0.5477 0.4118   0.080882
 H 0.3307 0.4831 0.5277   0.077187
 H 0.2916 0.1451 0.6037   0.086402
 H 0.4356 0.2001 0.5188   0.083319
 H 0.759 0.277 0.346   0.103225
 H 0.492 0.987 0.291   0.1088
 H 0.2329 0.8859 0.4513   0.080193
 H 0.1871 0.9921 0.3504   0.089082
 H 0.9208 0.7175 0.6497   0.089363
 H 0.9435 0.6968 0.4898   0.06984
 H 0.7935 0.4523 0.5882   0.080875
 H 0.6693 0.5169 0.4723   0.077175
 H 0.7084 0.8549 0.3963   0.086399
 H 0.5644 0.7999 0.4812   0.083312
 H 0.241 0.723 0.654   0.103222
 C 0.7088 0.0313 0.5813   -0.121277
 C 0.0498 0.3526 0.4331   -0.117338
 C 0.8418 0.377 0.3824   -0.162675
 C 0.2025 0.504 0.4918   -0.121274
 C 0.801 0.4197 0.2404   0.71979
 C 0.6463 0.2315 0.7927   0.731849
 C 0.5592 0.0868 0.6605   -0.170099
 C 0.3884 0.1147 0.5527   -0.123832
 C 0.2912 0.9687 0.4187   -0.121275
 C 0.9502 0.6474 0.5669   -0.117341
 C 0.1582 0.623 0.6176   -0.162679
 C 0.7975 0.496 0.5082   -0.121274
 C 0.199 0.5803 0.7596   0.71979
 C 0.3537 0.7685 0.2073   0.731849
 C 0.4408 0.9132 0.3395   -0.170099
 C 0.6116 0.8853 0.4473   -0.123828
 O 0.7664 0.6146 0.9855   -0.634626
 O 0.5327 0.2762 0.8699   -0.641272
 O 0.6436 0.4644 0.2036   -0.619233
 O 0.8213 0.2988 0.8188   -0.610685
 O 0.9221 0.4041 0.1644   -0.619797
 O 0.2336 0.3854 0.0145   -0.634626
 O 0.4673 0.7238 0.1301   -0.641272
 O 0.3564 0.5356 0.7964   -0.619233
 O 0.1787 0.7012 0.1812   -0.610685
 O 0.0779 0.5959 0.8356   -0.619797
