{'_ref': 'TBD', '_srcid': 'CAKYAQ_clean', 'submitters': [{'name': 'Dalar Nazarian Jeff Camp and David Sholl', 'email': 'dalar@gatech.edu jcamp6@gatech.edu'}], '_method': 'VASP DFT with PBE;DDEC'}
data_CoH8C9NO5
_symmetry_space_group_name_H-M   'P 1'
_cell_length_a   6.74600000
_cell_length_b   7.59700000
_cell_length_c   22.33400000
_cell_angle_alpha   90.00000000
_cell_angle_beta   90.00000000
_cell_angle_gamma   90.00000000
_symmetry_Int_Tables_number   1
_chemical_formula_structural   CoH8C9NO5
_chemical_formula_sum   'Co4 H32 C36 N4 O20'
_cell_volume   1144.60325091
_cell_formula_units_Z   4
loop_
 _symmetry_equiv_pos_site_id
 _symmetry_equiv_pos_as_xyz
  1  'x, y, z'
loop_
 _atom_site_label
 _atom_site_fract_x
 _atom_site_fract_y
 _atom_site_fract_z
 _atom_site_charge
 Co 0.46466 0.24849 0.2891   1.042182
 Co 0.53534 0.24849 0.7109   1.042182
 Co 0.96466 0.75151 0.2109   1.042182
 Co 0.03534 0.75151 0.7891   1.042182
 H 0.3725 0.3687 0.1148   0.134284
 H 0.18 0.2487 0.1215   0.140844
 H 0.477 0.0843 0.1286   0.059704
 H 0.7142 0.2438 0.1852   0.445491
 H 0.0457 0.3363 0.3332   0.093672
 H 0.8474 0.319 0.4182   0.137927
 H 0.3048 0.0907 0.5044   0.127145
 H 0.4788 0.0889 0.4151   0.067275
 H 0.6275 0.3687 0.8852   0.134284
 H 0.82 0.2487 0.8785   0.140843
 H 0.523 0.0843 0.8714   0.059704
 H 0.2858 0.2438 0.8148   0.445491
 H 0.9543 0.3363 0.6668   0.093672
 H 0.1526 0.319 0.5818   0.137927
 H 0.6952 0.0907 0.4956   0.127145
 H 0.5212 0.0889 0.5849   0.067276
 H 0.8725 0.6313 0.3852   0.134283
 H 0.68 0.7513 0.3785   0.140843
 H 0.977 0.9157 0.3714   0.059704
 H 0.2142 0.7562 0.3148   0.445491
 H 0.5457 0.6637 0.1668   0.093672
 H 0.3474 0.681 0.0818   0.137926
 H 0.8048 0.9093 0.9956   0.127144
 H 0.9788 0.9111 0.0849   0.067275
 H 0.1275 0.6313 0.6148   0.134283
 H 0.32 0.7513 0.6215   0.140843
 H 0.023 0.9157 0.6286   0.059704
 H 0.7858 0.7562 0.6852   0.445491
 H 0.4543 0.6637 0.8332   0.093672
 H 0.6526 0.681 0.9182   0.137926
 H 0.1952 0.9093 0.0044   0.127145
 H 0.0212 0.9111 0.9151   0.067276
 C 0.2141 0.4227 0.19139   0.755732
 C 0.2943 0.2982 0.14362   -0.418001
 C 0.4223 0.1463 0.16448   0.170008
 C 0.3004 0.0154 0.20122   0.613448
 C 0.0991 0.2859 0.3686   0.169276
 C 0.9803 0.2778 0.4195   -0.216238
 C 0.0585 0.2088 0.4722   0.104693
 C 0.2469 0.1409 0.4696   -0.233775
 C 0.3532 0.1453 0.4165   0.172119
 C 0.7859 0.4227 0.80861   0.755731
 C 0.7057 0.2982 0.85638   -0.418
 C 0.5777 0.1463 0.83552   0.170008
 C 0.6996 0.0154 0.79878   0.613448
 C 0.9009 0.2859 0.6314   0.169276
 C 0.0197 0.2778 0.5805   -0.216238
 C 0.9415 0.2088 0.5278   0.104693
 C 0.7531 0.1409 0.5304   -0.233775
 C 0.6468 0.1453 0.5835   0.172119
 C 0.7141 0.5773 0.30861   0.755731
 C 0.7943 0.7018 0.35638   -0.418
 C 0.9223 0.8537 0.33552   0.170008
 C 0.8004 0.9846 0.29878   0.613448
 C 0.5991 0.7141 0.1314   0.169275
 C 0.4803 0.7222 0.0805   -0.216238
 C 0.5585 0.7912 0.0278   0.104693
 C 0.7469 0.8591 0.0304   -0.233775
 C 0.8532 0.8547 0.0835   0.172119
 C 0.2859 0.5773 0.69139   0.755731
 C 0.2057 0.7018 0.64362   -0.418
 C 0.0777 0.8537 0.66448   0.170008
 C 0.1996 0.9846 0.70122   0.613448
 C 0.4009 0.7141 0.8686   0.169275
 C 0.5197 0.7222 0.9195   -0.216238
 C 0.4415 0.7912 0.9722   0.104693
 C 0.2531 0.8591 0.9696   -0.233775
 C 0.1468 0.8547 0.9165   0.172119
 N 0.287 0.225 0.36748   -0.331654
 N 0.713 0.225 0.63252   -0.331654
 N 0.787 0.775 0.13252   -0.331654
 N 0.213 0.775 0.86748   -0.331654
 O 0.2533 0.4002 0.24597   -0.625225
 O 0.1078 0.5446 0.17148   -0.635219
 O 0.5842 0.2169 0.19879   -0.612091
 O 0.3245 0.0185 0.25767   -0.574807
 O 0.1824 0.9184 0.17374   -0.58679
 O 0.7467 0.4002 0.75403   -0.625225
 O 0.8922 0.5446 0.82852   -0.635219
 O 0.4158 0.2169 0.80121   -0.612091
 O 0.6755 0.0185 0.74233   -0.574807
 O 0.8176 0.9184 0.82626   -0.58679
 O 0.7533 0.5998 0.25403   -0.625225
 O 0.6078 0.4554 0.32852   -0.635219
 O 0.0842 0.7831 0.30121   -0.612091
 O 0.8245 0.9815 0.24233   -0.574807
 O 0.6824 0.0816 0.32626   -0.58679
 O 0.2467 0.5998 0.74597   -0.625225
 O 0.3922 0.4554 0.67148   -0.635219
 O 0.9158 0.7831 0.69879   -0.612091
 O 0.1755 0.9815 0.75767   -0.574807
 O 0.3176 0.0816 0.67374   -0.58679
