{'_ref': 'TBD', '_srcid': 'CAKYAQ_clean', 'submitters': [{'name': 'Dalar Nazarian Jeff Camp and David Sholl', 'email': 'dalar@gatech.edu jcamp6@gatech.edu'}], '_method': 'VASP DFT with PBE;DDEC'}
data_ZnH27C38N5O4
_symmetry_space_group_name_H-M   'P 1'
_cell_length_a   11.97200003
_cell_length_b   12.04300000
_cell_length_c   27.79200000
_cell_angle_alpha   90.00000000
_cell_angle_beta   99.95900183
_cell_angle_gamma   90.00000000
_symmetry_Int_Tables_number   1
_chemical_formula_structural   ZnH27C38N5O4
_chemical_formula_sum   'Zn4 H108 C152 N20 O16'
_cell_volume   3946.63839283
_cell_formula_units_Z   4
loop_
 _symmetry_equiv_pos_site_id
 _symmetry_equiv_pos_as_xyz
  1  'x, y, z'
loop_
 _atom_site_label
 _atom_site_fract_x
 _atom_site_fract_y
 _atom_site_fract_z
 _atom_site_charge
 Zn 0.76598 0.45787 0.45122   0.891231
 Zn 0.26598 0.04213 0.95122   0.891231
 Zn 0.73402 0.95787 0.04878   0.891231
 Zn 0.23402 0.54213 0.54878   0.891231
 H 0.9452 0.5848 0.3934   0.097447
 H 0.3487 0.0921 0.759   0.108079
 H 0.4127 0.0234 0.692   0.093236
 H 0.5896 0.0736 0.6756   0.106587
 H 0.6383 0.2637 0.7954   0.108591
 H 0.4625 0.2116 0.8123   0.09261
 H 0.9266 0.318 0.7508   0.11145
 H 0.0752 0.2968 0.8157   0.088417
 H 0.9335 0.0258 0.8564   0.079648
 H 0.7729 0.0509 0.796   0.117104
 H 0.9058 0.1519 0.6805   0.122479
 H 0.9285 0.1989 0.6027   0.089317
 H 0.6463 0.3828 0.5873   0.093099
 H 0.6201 0.3315 0.6647   0.121734
 H 0.5879 0.6453 0.4409   0.108734
 H 0.825 0.8769 0.4673   0.146554
 H 0.9161 0.6956 0.4714   0.104599
 H 0.467 0.785 0.4716   0.124967
 H 0.3281 0.9181 0.4587   0.102865
 H 0.5347 0.1224 0.4021   0.09779
 H 0.6774 0.9896 0.4147   0.127489
 H 0.1925 0.014 0.403   0.096035
 H 0.0506 0.147 0.3938   0.128345
 H 0.2825 0.3877 0.4265   0.130274
 H 0.4263 0.2551 0.4338   0.113251
 H 0.9503 0.2804 0.4417   0.106562
 H 0.118 0.4984 0.3749   0.138093
 H 0.4452 0.9152 0.8934   0.097447
 H 0.8487 0.4079 0.259   0.108078
 H 0.9127 0.4766 0.192   0.093236
 H 0.0896 0.4264 0.1756   0.106587
 H 0.1383 0.2363 0.2954   0.108591
 H 0.9625 0.2884 0.3123   0.09261
 H 0.4266 0.182 0.2508   0.11145
 H 0.5752 0.2032 0.3157   0.088417
 H 0.4335 0.4742 0.3564   0.079648
 H 0.2729 0.4491 0.296   0.117103
 H 0.4058 0.3481 0.1805   0.122479
 H 0.4285 0.3011 0.1027   0.089317
 H 0.1463 0.1172 0.0873   0.093099
 H 0.1201 0.1685 0.1647   0.121734
 H 0.0879 0.8547 0.9409   0.108734
 H 0.325 0.6231 0.9673   0.146554
 H 0.4161 0.8044 0.9714   0.104599
 H 0.967 0.715 0.9716   0.124967
 H 0.8281 0.5819 0.9587   0.102865
 H 0.0347 0.3776 0.9021   0.09779
 H 0.1774 0.5104 0.9147   0.127489
 H 0.6925 0.486 0.903   0.096035
 H 0.5506 0.353 0.8938   0.128344
 H 0.7825 0.1123 0.9265   0.130273
 H 0.9263 0.2449 0.9338   0.113251
 H 0.4503 0.2196 0.9417   0.106562
 H 0.618 0.0016 0.8749   0.138093
 H 0.5548 0.0848 0.1066   0.097447
 H 0.1513 0.5921 0.741   0.108078
 H 0.0873 0.5234 0.808   0.093235
 H 0.9104 0.5736 0.8244   0.106587
 H 0.8617 0.7637 0.7046   0.108591
 H 0.0375 0.7116 0.6877   0.09261
 H 0.5734 0.818 0.7492   0.11145
 H 0.4248 0.7968 0.6843   0.088415
 H 0.5665 0.5258 0.6436   0.079647
 H 0.7271 0.5509 0.704   0.117104
 H 0.5942 0.6519 0.8195   0.122479
 H 0.5715 0.6989 0.8973   0.089319
 H 0.8537 0.8828 0.9127   0.093099
 H 0.8799 0.8315 0.8353   0.121734
 H 0.9121 0.1453 0.0591   0.108734
 H 0.675 0.3769 0.0327   0.146557
 H 0.5839 0.1956 0.0286   0.104599
 H 0.033 0.285 0.0284   0.124967
 H 0.1719 0.4181 0.0413   0.102865
 H 0.9653 0.6224 0.0979   0.09779
 H 0.8226 0.4896 0.0853   0.127488
 H 0.3075 0.514 0.097   0.096036
 H 0.4494 0.647 0.1062   0.128345
 H 0.2175 0.8877 0.0735   0.130273
 H 0.0737 0.7551 0.0662   0.113251
 H 0.5497 0.7804 0.0583   0.106562
 H 0.382 0.9984 0.1251   0.138093
 H 0.0548 0.4152 0.6066   0.097447
 H 0.6513 0.9079 0.241   0.108078
 H 0.5873 0.9766 0.308   0.093235
 H 0.4104 0.9264 0.3244   0.106587
 H 0.3617 0.7363 0.2046   0.108591
 H 0.5375 0.7884 0.1877   0.09261
 H 0.0734 0.682 0.2492   0.11145
 H 0.9248 0.7032 0.1843   0.088415
 H 0.0665 0.9742 0.1436   0.079647
 H 0.2271 0.9491 0.204   0.117103
 H 0.0942 0.8481 0.3195   0.122479
 H 0.0715 0.8011 0.3973   0.089319
 H 0.3537 0.6172 0.4127   0.093099
 H 0.3799 0.6685 0.3353   0.121734
 H 0.4121 0.3547 0.5591   0.108734
 H 0.175 0.1231 0.5327   0.146557
 H 0.0839 0.3044 0.5286   0.104599
 H 0.533 0.215 0.5284   0.124967
 H 0.6719 0.0819 0.5413   0.102865
 H 0.4653 0.8776 0.5979   0.09779
 H 0.3226 0.0104 0.5853   0.127488
 H 0.8075 0.986 0.597   0.096036
 H 0.9494 0.853 0.6062   0.128345
 H 0.7175 0.6123 0.5735   0.130273
 H 0.5737 0.7449 0.5662   0.113251
 H 0.0497 0.7196 0.5583   0.106562
 H 0.882 0.5016 0.6251   0.138092
 C 0.9682 0.5123 0.40112   0.049023
 C 0.4199 0.1124 0.753   -0.125537
 C 0.4582 0.0718 0.7129   -0.052636
 C 0.5639 0.1014 0.7029   -0.180993
 C 0.6314 0.1745 0.7353   0.1664
 C 0.5932 0.2147 0.7746   -0.183768
 C 0.4875 0.1843 0.7847   -0.062745
 C 0.8346 0.1861 0.76582   0.182793
 C 0.9257 0.2594 0.7725   -0.214266
 C 0.0155 0.2463 0.8113   -0.011002
 C 0.0158 0.1586 0.8431   -0.177898
 C 0.9303 0.0872 0.8359   -0.002292
 C 0.8341 0.0994 0.79845   -0.224515
 C 0.1202 0.1442 0.8844   0.664858
 C 0.7591 0.2336 0.68006   0.188051
 C 0.8522 0.1968 0.66148   -0.210809
 C 0.8663 0.2261 0.61492   -0.009225
 C 0.7902 0.2952 0.58588   -0.189697
 C 0.6979 0.335 0.60572   -0.017165
 C 0.682 0.3045 0.6522   -0.209367
 C 0.8069 0.3267 0.53522   0.661736
 C 0.6583 0.6798 0.4479   0.162518
 C 0.7886 0.8086 0.46244   -0.142501
 C 0.8383 0.7085 0.46474   0.027786
 C 0.5866 0.8739 0.44397   0.09967
 C 0.4807 0.8525 0.45749   -0.163545
 C 0.398 0.9321 0.4496   -0.064578
 C 0.4159 0.0338 0.42828   0.008953
 C 0.5212 0.0543 0.4158   -0.058964
 C 0.6072 0.975 0.4234   -0.15222
 C 0.3254 0.1195 0.42023   0.022702
 C 0.2114 0.0885 0.40781   -0.080614
 C 0.1261 0.168 0.40263   -0.163836
 C 0.1543 0.2786 0.4107   0.110538
 C 0.2649 0.3128 0.42194   -0.1447
 C 0.3509 0.2328 0.42647   -0.085076
 C 0.9708 0.3459 0.42781   0.165457
 C 0.0641 0.4656 0.39078   -0.143005
 C 0.4682 0.9877 0.90112   0.049023
 C 0.9199 0.3876 0.253   -0.125537
 C 0.9582 0.4282 0.2129   -0.052636
 C 0.0639 0.3986 0.2029   -0.180993
 C 0.1314 0.3255 0.2353   0.1664
 C 0.0932 0.2853 0.2746   -0.183768
 C 0.9875 0.3157 0.2847   -0.062745
 C 0.3346 0.3139 0.26582   0.182792
 C 0.4257 0.2406 0.2725   -0.214266
 C 0.5155 0.2537 0.3113   -0.011002
 C 0.5158 0.3414 0.3431   -0.177898
 C 0.4303 0.4128 0.3359   -0.002292
 C 0.3341 0.4006 0.29845   -0.224515
 C 0.6202 0.3558 0.3844   0.664858
 C 0.2591 0.2664 0.18006   0.188051
 C 0.3522 0.3032 0.16148   -0.210809
 C 0.3663 0.2739 0.11492   -0.009225
 C 0.2902 0.2048 0.08588   -0.189697
 C 0.1979 0.165 0.10572   -0.017165
 C 0.182 0.1955 0.1522   -0.209367
 C 0.3069 0.1733 0.03522   0.661736
 C 0.1583 0.8202 0.9479   0.162519
 C 0.2886 0.6914 0.96244   -0.142501
 C 0.3383 0.7915 0.96474   0.027786
 C 0.0866 0.6261 0.94397   0.09967
 C 0.9807 0.6475 0.95749   -0.163545
 C 0.898 0.5679 0.9496   -0.064578
 C 0.9159 0.4662 0.92828   0.008953
 C 0.0212 0.4457 0.9158   -0.058964
 C 0.1072 0.525 0.9234   -0.15222
 C 0.8254 0.3805 0.92023   0.022702
 C 0.7114 0.4115 0.90781   -0.080614
 C 0.6261 0.332 0.90263   -0.163836
 C 0.6543 0.2214 0.9107   0.110537
 C 0.7649 0.1872 0.92194   -0.1447
 C 0.8509 0.2672 0.92647   -0.085076
 C 0.4708 0.1541 0.92781   0.165457
 C 0.5641 0.0344 0.89078   -0.143005
 C 0.5318 0.0123 0.09888   0.049023
 C 0.0801 0.6124 0.747   -0.125537
 C 0.0418 0.5718 0.7871   -0.052636
 C 0.9361 0.6014 0.7971   -0.180994
 C 0.8686 0.6745 0.7647   0.1664
 C 0.9068 0.7147 0.7254   -0.183768
 C 0.0125 0.6843 0.7153   -0.062745
 C 0.6654 0.6861 0.73418   0.182792
 C 0.5743 0.7594 0.7275   -0.214266
 C 0.4845 0.7463 0.6887   -0.011002
 C 0.4842 0.6586 0.6569   -0.177898
 C 0.5697 0.5872 0.6641   -0.002292
 C 0.6659 0.5994 0.70155   -0.224515
 C 0.3798 0.6442 0.6156   0.664858
 C 0.7409 0.7336 0.81994   0.188051
 C 0.6478 0.6968 0.83852   -0.210808
 C 0.6337 0.7261 0.88508   -0.009225
 C 0.7098 0.7952 0.91412   -0.189696
 C 0.8021 0.835 0.89428   -0.017165
 C 0.818 0.8045 0.8478   -0.209367
 C 0.6931 0.8267 0.96478   0.661736
 C 0.8417 0.1798 0.0521   0.162518
 C 0.7114 0.3086 0.03756   -0.142502
 C 0.6617 0.2085 0.03526   0.027786
 C 0.9134 0.3739 0.05603   0.09967
 C 0.0193 0.3525 0.04251   -0.163545
 C 0.102 0.4321 0.0504   -0.064578
 C 0.0841 0.5338 0.07172   0.008953
 C 0.9788 0.5543 0.0842   -0.058964
 C 0.8928 0.475 0.0766   -0.15222
 C 0.1746 0.6195 0.07977   0.022702
 C 0.2886 0.5885 0.09219   -0.080614
 C 0.3739 0.668 0.09737   -0.163836
 C 0.3457 0.7786 0.0893   0.110538
 C 0.2351 0.8128 0.07806   -0.1447
 C 0.1491 0.7328 0.07353   -0.085076
 C 0.5292 0.8459 0.07219   0.165457
 C 0.4359 0.9656 0.10922   -0.143005
 C 0.0318 0.4877 0.59888   0.049023
 C 0.5801 0.8876 0.247   -0.125537
 C 0.5418 0.9282 0.2871   -0.052635
 C 0.4361 0.8986 0.2971   -0.180994
 C 0.3686 0.8255 0.2647   0.1664
 C 0.4068 0.7853 0.2254   -0.183769
 C 0.5125 0.8157 0.2153   -0.062745
 C 0.1654 0.8139 0.23418   0.182792
 C 0.0743 0.7406 0.2275   -0.214267
 C 0.9845 0.7537 0.1887   -0.011002
 C 0.9842 0.8414 0.1569   -0.177898
 C 0.0697 0.9128 0.1641   -0.002292
 C 0.1659 0.9006 0.20155   -0.224515
 C 0.8798 0.8558 0.1156   0.664858
 C 0.2409 0.7664 0.31994   0.188051
 C 0.1478 0.8032 0.33852   -0.210808
 C 0.1337 0.7739 0.38508   -0.009225
 C 0.2098 0.7048 0.41412   -0.189696
 C 0.3021 0.665 0.39428   -0.017165
 C 0.318 0.6955 0.3478   -0.209367
 C 0.1931 0.6733 0.46478   0.661736
 C 0.3417 0.3202 0.5521   0.162518
 C 0.2114 0.1914 0.53756   -0.142502
 C 0.1617 0.2915 0.53526   0.027786
 C 0.4134 0.1261 0.55603   0.09967
 C 0.5193 0.1475 0.54251   -0.163545
 C 0.602 0.0679 0.5504   -0.064578
 C 0.5841 0.9662 0.57172   0.008953
 C 0.4788 0.9457 0.5842   -0.058964
 C 0.3928 0.025 0.5766   -0.15222
 C 0.6746 0.8805 0.57977   0.022702
 C 0.7886 0.9115 0.59219   -0.080614
 C 0.8739 0.832 0.59737   -0.163836
 C 0.8457 0.7214 0.5893   0.110537
 C 0.7351 0.6872 0.57806   -0.1447
 C 0.6491 0.7672 0.57353   -0.085076
 C 0.0292 0.6541 0.57219   0.165457
 C 0.9359 0.5344 0.60922   -0.143005
 N 0.9104 0.4381 0.42438   -0.383306
 N 0.7432 0.2023 0.72712   -0.149681
 N 0.755 0.6272 0.45549   -0.37354
 N 0.6735 0.791 0.45157   0.033797
 N 0.0646 0.3587 0.40887   0.041237
 N 0.4104 0.0619 0.92438   -0.383306
 N 0.2432 0.2977 0.22712   -0.149681
 N 0.255 0.8728 0.95549   -0.37354
 N 0.1735 0.709 0.95157   0.033797
 N 0.5646 0.1413 0.90887   0.041237
 N 0.5896 0.9381 0.07562   -0.383306
 N 0.7568 0.7023 0.77288   -0.149681
 N 0.745 0.1272 0.04451   -0.37354
 N 0.8265 0.291 0.04843   0.033797
 N 0.4354 0.8587 0.09113   0.041237
 N 0.0896 0.5619 0.57562   -0.383306
 N 0.2568 0.7977 0.27288   -0.149681
 N 0.245 0.3728 0.54451   -0.37354
 N 0.3265 0.209 0.54843   0.033797
 N 0.9354 0.6413 0.59113   0.041237
 O 0.7455 0.4073 0.5155   -0.629493
 O 0.8754 0.2757 0.51551   -0.605768
 O 0.189 0.2185 0.8943   -0.607373
 O 0.121 0.0554 0.90696   -0.611992
 O 0.2455 0.0927 0.0155   -0.629493
 O 0.3754 0.2243 0.01551   -0.605768
 O 0.689 0.2815 0.3943   -0.607373
 O 0.621 0.4446 0.40696   -0.611992
 O 0.7545 0.9073 0.9845   -0.629493
 O 0.6246 0.7757 0.98449   -0.605768
 O 0.311 0.7185 0.6057   -0.607373
 O 0.379 0.5554 0.59304   -0.611992
 O 0.2545 0.5927 0.4845   -0.629493
 O 0.1246 0.7243 0.48449   -0.605768
 O 0.811 0.7815 0.1057   -0.607373
 O 0.879 0.9446 0.09304   -0.611992
