{'_ref': 'TBD', '_srcid': 'CAKYAQ_clean', 'submitters': [{'name': 'Dalar Nazarian Jeff Camp and David Sholl', 'email': 'dalar@gatech.edu jcamp6@gatech.edu'}], '_method': 'VASP DFT with PBE;DDEC'}
data_Mn5H14C28(N2O11)2
_symmetry_space_group_name_H-M   'P 1'
_cell_length_a   11.13999964
_cell_length_b   11.24899958
_cell_length_c   16.81500000
_cell_angle_alpha   98.14100102
_cell_angle_beta   108.84199921
_cell_angle_gamma   91.33300155
_symmetry_Int_Tables_number   1
_chemical_formula_structural   Mn5H14C28(N2O11)2
_chemical_formula_sum   'Mn10 H28 C56 N8 O44'
_cell_volume   1968.77828318
_cell_formula_units_Z   2
loop_
 _symmetry_equiv_pos_site_id
 _symmetry_equiv_pos_as_xyz
  1  'x, y, z'
loop_
 _atom_site_label
 _atom_site_fract_x
 _atom_site_fract_y
 _atom_site_fract_z
 _atom_site_charge
 Mn 0.58206 0.72938 0.96245   1.201156
 Mn 0.67274 0.30154 0.45803   1.157706
 Mn 0.74618 0.58399 0.4565   1.198988
 Mn 0.68038 0.36585 0.25045   1.251611
 Mn 0.29226 0.78996 0.95156   1.162436
 Mn 0.41794 0.27062 0.03755   1.201155
 Mn 0.32726 0.69846 0.54197   1.157706
 Mn 0.25382 0.41601 0.5435   1.198988
 Mn 0.31962 0.63415 0.74955   1.25161
 Mn 0.70774 0.21004 0.04844   1.162436
 H 0.8745 0.9987 0.1458   0.115982
 H 0.924 0.0242 0.2902   0.120199
 H 0.8744 0.8679 0.3546   0.131717
 H 0.5629 0.9045 0.3611   0.127938
 H 0.5005 0.7118 0.2872   0.136635
 H 0.4683 0.6757 0.141   0.151464
 H 0.8676 0.5335 0.8654   0.136532
 H 0.0024 0.4735 0.7918   0.137021
 H 0.9285 0.4409 0.6439   0.151614
 H 0.6036 0.8396 0.6275   0.109099
 H 0.6917 0.8845 0.7762   0.137846
 H 0.8764 0.7994 0.8318   0.100678
 H 0.8341 0.3946 0.4061   0.435153
 H 0.377 0.5978 0.9072   0.438016
 H 0.1255 0.0013 0.8542   0.115982
 H 0.076 0.9758 0.7098   0.120199
 H 0.1256 0.1321 0.6454   0.131717
 H 0.4371 0.0955 0.6389   0.127938
 H 0.4995 0.2882 0.7128   0.136635
 H 0.5317 0.3243 0.859   0.151464
 H 0.1324 0.4665 0.1346   0.136533
 H 0.9976 0.5265 0.2082   0.137021
 H 0.0715 0.5591 0.3561   0.151614
 H 0.3964 0.1604 0.3725   0.109099
 H 0.3083 0.1155 0.2238   0.137846
 H 0.1236 0.2006 0.1682   0.100678
 H 0.1659 0.6054 0.5939   0.435153
 H 0.623 0.4022 0.0928   0.438016
 C 0.8597 0.9354 0.1724   -0.011344
 C 0.8875 0.9506 0.2574   -0.124918
 C 0.8616 0.856 0.2965   -0.021452
 C 0.8169 0.7452 0.2479   -0.193144
 C 0.7801 0.6447 0.288   0.698127
 C 0.7913 0.7285 0.1613   -0.016641
 C 0.7466 0.6139 0.0968   0.64895
 C 0.5389 0.9596 0.1729   0.013548
 C 0.5407 0.0531 0.118   0.690206
 C 0.6005 0.1101 0.3054   0.744583
 C 0.5594 0.985 0.2589   -0.178856
 C 0.5469 0.8895 0.3026   0.012554
 C 0.5112 0.7745 0.259   -0.110699
 C 0.4912 0.7531 0.1715   -0.035807
 C 0.5322 0.5237 0.6188   0.685727
 C 0.6673 0.5113 0.6739   0.005605
 C 0.6202 0.584 0.8073   0.68851
 C 0.7102 0.5354 0.7628   -0.172646
 C 0.8375 0.5198 0.8063   0.010304
 C 0.9181 0.4846 0.7624   -0.101337
 C 0.8746 0.4654 0.6743   -0.030441
 C 0.6872 0.8248 0.6559   0.010905
 C 0.7354 0.8464 0.7424   -0.14118
 C 0.8524 0.8075 0.7746   0.003213
 C 0.9378 0.7792 0.7377   -0.192196
 C 0.0712 0.749 0.7818   0.732038
 C 0.8883 0.7607 0.6491   -0.002055
 C 0.9586 0.7265 0.5879   0.630416
 C 0.1403 0.0646 0.8276   -0.011343
 C 0.1125 0.0494 0.7426   -0.124917
 C 0.1384 0.144 0.7035   -0.021452
 C 0.1831 0.2548 0.7521   -0.193144
 C 0.2199 0.3553 0.712   0.698127
 C 0.2087 0.2715 0.8387   -0.01664
 C 0.2534 0.3861 0.9032   0.64895
 C 0.4611 0.0404 0.8271   0.013548
 C 0.4593 0.9469 0.882   0.690206
 C 0.3995 0.8899 0.6946   0.744583
 C 0.4406 0.015 0.7411   -0.178856
 C 0.4531 0.1105 0.6974   0.012554
 C 0.4888 0.2255 0.741   -0.110698
 C 0.5088 0.2469 0.8285   -0.035807
 C 0.4678 0.4763 0.3812   0.685727
 C 0.3327 0.4887 0.3261   0.005605
 C 0.3798 0.416 0.1927   0.68851
 C 0.2898 0.4646 0.2372   -0.172646
 C 0.1625 0.4802 0.1937   0.010304
 C 0.0819 0.5154 0.2376   -0.101336
 C 0.1254 0.5346 0.3257   -0.030441
 C 0.3128 0.1752 0.3441   0.010905
 C 0.2646 0.1536 0.2576   -0.141179
 C 0.1476 0.1925 0.2254   0.003213
 C 0.0622 0.2208 0.2623   -0.192196
 C 0.9288 0.251 0.2182   0.732038
 C 0.1117 0.2393 0.3509   -0.002055
 C 0.0414 0.2735 0.4121   0.630417
 N 0.8094 0.8255 0.12568   0.312961
 N 0.5054 0.8451 0.1324   0.33958
 N 0.7511 0.4831 0.6334   0.324162
 N 0.7651 0.7803 0.6114   0.303396
 N 0.1906 0.1745 0.87432   0.312961
 N 0.4946 0.1549 0.8676   0.33958
 N 0.2489 0.5169 0.3666   0.324162
 N 0.2349 0.2197 0.3886   0.303396
 O 0.7783 0.813 0.04107   -0.538276
 O 0.6302 0.5992 0.05513   -0.645057
 O 0.8306 0.5475 0.08979   -0.573614
 O 0.748 0.5451 0.2424   -0.595205
 O 0.788 0.6728 0.36426   -0.612839
 O 0.4817 0.8243 0.0489   -0.617701
 O 0.6381 0.0693 0.1008   -0.573403
 O 0.4409 0.1068 0.09264   -0.60117
 O 0.6185 0.1875 0.26402   -0.61619
 O 0.6135 0.1297 0.38237   -0.626905
 O 0.7094 0.4704 0.54754   -0.627456
 O 0.4612 0.4277 0.59629   -0.584952
 O 0.5054 0.6263 0.60114   -0.581136
 O 0.5046 0.5697 0.76473   -0.607855
 O 0.6718 0.6375 0.88243   -0.580313
 O 0.7175 0.7619 0.52573   -0.541831
 O 0.1124 0.7841 0.86035   -0.63539
 O 0.1284 0.6918 0.73774   -0.591904
 O 0.0258 0.813 0.5804   -0.560823
 O 0.9408 0.6214 0.54858   -0.629529
 O 0.7559 0.4082 0.39155   -0.991046
 O 0.3886 0.6651 0.8923   -0.991265
 O 0.2217 0.187 0.95893   -0.538277
 O 0.3698 0.4008 0.94487   -0.645058
 O 0.1694 0.4525 0.91021   -0.573614
 O 0.252 0.4549 0.7576   -0.595205
 O 0.212 0.3272 0.63574   -0.612839
 O 0.5183 0.1757 0.9511   -0.617701
 O 0.3619 0.9307 0.8992   -0.573404
 O 0.5591 0.8932 0.90736   -0.60117
 O 0.3815 0.8125 0.73598   -0.61619
 O 0.3865 0.8703 0.61763   -0.626905
 O 0.2906 0.5296 0.45246   -0.627456
 O 0.5388 0.5723 0.40371   -0.584952
 O 0.4946 0.3737 0.39886   -0.581136
 O 0.4954 0.4303 0.23527   -0.607855
 O 0.3282 0.3625 0.11757   -0.580313
 O 0.2825 0.2381 0.47427   -0.541831
 O 0.8876 0.2159 0.13965   -0.63539
 O 0.8716 0.3082 0.26226   -0.591904
 O 0.9742 0.187 0.4196   -0.560823
 O 0.0592 0.3786 0.45142   -0.629529
 O 0.2441 0.5918 0.60845   -0.991046
 O 0.6114 0.3349 0.1077   -0.991265
