{'_ref': 'TBD', '_srcid': 'CAKYAQ_clean', 'submitters': [{'name': 'Dalar Nazarian Jeff Camp and David Sholl', 'email': 'dalar@gatech.edu jcamp6@gatech.edu'}], '_method': 'VASP DFT with PBE;DDEC'}
data_LiH4C6NO2
_symmetry_space_group_name_H-M   'P 1'
_cell_length_a   5.39679970
_cell_length_b   11.48859970
_cell_length_c   13.42330000
_cell_angle_alpha   90.66999878
_cell_angle_beta   94.89999973
_cell_angle_gamma   91.23799774
_symmetry_Int_Tables_number   1
_chemical_formula_structural   LiH4C6NO2
_chemical_formula_sum   'Li4 H16 C24 N4 O8'
_cell_volume   828.955206081
_cell_formula_units_Z   4
loop_
 _symmetry_equiv_pos_site_id
 _symmetry_equiv_pos_as_xyz
  1  'x, y, z'
loop_
 _atom_site_label
 _atom_site_fract_x
 _atom_site_fract_y
 _atom_site_fract_z
 _atom_site_charge
 Li 0.6873 0.9879 0.935   0.865511
 Li 0.3057 0.4861 0.5597   0.864847
 Li 0.3127 0.0121 0.065   0.865514
 Li 0.6943 0.5139 0.4403   0.864849
 H 0.0679 0.1845 0.655   0.123991
 H 0.995 0.0452 0.7688   0.062548
 H 0.4131 0.2043 0.8464   0.069667
 H 0.4598 0.3458 0.7297   0.11706
 H 0.5573 0.7334 0.8678   0.129379
 H 0.5955 0.5929 0.7486   0.060693
 H 0.9504 0.6645 0.6142   0.071526
 H 0.884 0.8002 0.7341   0.117703
 H 0.9321 0.8155 0.345   0.123991
 H 0.005 0.9548 0.2312   0.062548
 H 0.5869 0.7957 0.1536   0.069667
 H 0.5402 0.6542 0.2703   0.11706
 H 0.4427 0.2666 0.1322   0.129379
 H 0.4045 0.4071 0.2514   0.060693
 H 0.0496 0.3355 0.3858   0.071526
 H 0.116 0.1998 0.2659   0.117703
 C 0.8246 0.3739 0.6025   0.748489
 C 0.7728 0.2824 0.6792   -0.026462
 C 0.9319 0.1903 0.6927   -0.163957
 C 0.8879 0.1075 0.7622   0.191142
 C 0.5463 0.1999 0.807   0.198633
 C 0.5737 0.2862 0.7373   -0.162564
 C 0.1658 0.8706 0.897   0.753509
 C 0.2127 0.7826 0.8158   -0.030367
 C 0.4293 0.7195 0.8179   -0.16762
 C 0.4515 0.6362 0.7451   0.197893
 C 0.0721 0.6771 0.6668   0.198853
 C 0.0319 0.7597 0.738   -0.168709
 C 0.1754 0.6261 0.3975   0.74849
 C 0.2272 0.7176 0.3208   -0.026462
 C 0.0681 0.8097 0.3073   -0.163958
 C 0.1121 0.8925 0.2378   0.191142
 C 0.4537 0.8001 0.193   0.198634
 C 0.4263 0.7138 0.2627   -0.162564
 C 0.8342 0.1294 0.103   0.75351
 C 0.7873 0.2174 0.1842   -0.030367
 C 0.5707 0.2805 0.1821   -0.16762
 C 0.5485 0.3638 0.2549   0.197893
 C 0.9279 0.3229 0.3332   0.198853
 C 0.9681 0.2403 0.262   -0.168709
 N 0.6999 0.1109 0.8211   -0.489709
 N 0.2785 0.6134 0.6692   -0.497296
 N 0.3001 0.8891 0.1789   -0.48971
 N 0.7215 0.3866 0.3308   -0.497296
 O 0.0382 0.3798 0.5753   -0.721888
 O 0.6463 0.4375 0.5711   -0.809481
 O 0.946 0.8876 0.9115   -0.726527
 O 0.3533 0.9203 0.9429   -0.806866
 O 0.9618 0.6202 0.4247   -0.721888
 O 0.3537 0.5625 0.4289   -0.809481
 O 0.054 0.1124 0.0885   -0.726527
 O 0.6467 0.0797 0.0571   -0.806867
