{'_ref': 'TBD', '_srcid': 'CAKYAQ_clean', 'submitters': [{'name': 'Dalar Nazarian Jeff Camp and David Sholl', 'email': 'dalar@gatech.edu jcamp6@gatech.edu'}], '_method': 'VASP DFT with PBE;DDEC'}
data_Dy2CoH32C56(N2O5)4
_symmetry_space_group_name_H-M   'P 1'
_cell_length_a   10.11080043
_cell_length_b   10.81100006
_cell_length_c   13.74090000
_cell_angle_alpha   79.13900173
_cell_angle_beta   78.74499818
_cell_angle_gamma   86.21900105
_symmetry_Int_Tables_number   1
_chemical_formula_structural   Dy2CoH32C56(N2O5)4
_chemical_formula_sum   'Dy2 Co1 H32 C56 N8 O20'
_cell_volume   1446.05174747
_cell_formula_units_Z   1
loop_
 _symmetry_equiv_pos_site_id
 _symmetry_equiv_pos_as_xyz
  1  'x, y, z'
loop_
 _atom_site_label
 _atom_site_fract_x
 _atom_site_fract_y
 _atom_site_fract_z
 _atom_site_charge
 Dy 0.18189 0.07745 0.20323   2.206142
 Dy 0.81811 0.92255 0.79677   2.206126
 Co 0.5 0.5 0.0   0.803217
 H 0.1725 0.3297 0.3466   0.128173
 H 0.1534 0.6717 0.424   0.125417
 H 0.2179 0.6406 0.1318   0.109903
 H 0.1443 0.5455 0.758   0.126019
 H 0.1345 0.4277 0.9157   0.076464
 H 0.145 0.1183 0.8112   0.070757
 H 0.1548 0.2252 0.6498   0.123775
 H 0.8061 0.1469 0.4625   0.137886
 H 0.4109 0.16 0.4597   0.121592
 H 0.6763 0.0865 0.2177   0.113178
 H 0.4912 0.5227 0.6299   0.130989
 H 0.4877 0.5929 0.7775   0.081179
 H 0.4666 0.2509 0.9293   0.089007
 H 0.4808 0.1696 0.7845   0.134976
 H 0.1209 0.3536 0.5184   0.320776
 H 0.6188 0.1571 0.6184   0.29691
 H 0.8275 0.6703 0.6534   0.128173
 H 0.8466 0.3283 0.576   0.125408
 H 0.7821 0.3594 0.8682   0.109901
 H 0.8557 0.4545 0.242   0.126019
 H 0.8655 0.5723 0.0843   0.076444
 H 0.855 0.8817 0.1888   0.070754
 H 0.8452 0.7748 0.3502   0.123774
 H 0.1939 0.8531 0.5375   0.137883
 H 0.5891 0.84 0.5403   0.121591
 H 0.3237 0.9135 0.7823   0.113174
 H 0.5088 0.4773 0.3701   0.130989
 H 0.5123 0.4071 0.2225   0.081179
 H 0.5334 0.7491 0.0707   0.089007
 H 0.5192 0.8304 0.2155   0.134976
 H 0.8791 0.6464 0.4816   0.320771
 H 0.3812 0.8429 0.3816   0.29691
 C 0.2008 0.4727 0.227   -0.173919
 C 0.178 0.4168 0.3285   -0.107847
 C 0.1635 0.4901 0.403   0.209778
 C 0.165 0.6213 0.3749   -0.145723
 C 0.1837 0.6753 0.2745   -0.112769
 C 0.2033 0.6027 0.1995   -0.028063
 C 0.1872 0.8146 0.2472   0.663468
 C 0.2324 0.3929 0.1466   0.79586
 C 0.1652 0.4827 0.5819   0.507703
 C 0.1517 0.3997 0.6844   -0.033686
 C 0.145 0.4581 0.7667   -0.16433
 C 0.1392 0.3865 0.8615   0.194559
 C 0.1453 0.2059 0.7999   0.209472
 C 0.1512 0.2691 0.7024   -0.188605
 C 0.7634 0.1136 0.3316   -0.123422
 C 0.7356 0.1416 0.429   -0.071181
 C 0.6047 0.1613 0.4755   0.18727
 C 0.4996 0.1489 0.4276   -0.109451
 C 0.5266 0.1197 0.331   -0.140566
 C 0.6584 0.1038 0.2828   -0.022806
 C 0.9086 0.0983 0.2835   0.682813
 C 0.4088 0.1087 0.2827   0.665971
 C 0.4958 0.2945 0.5913   0.502838
 C 0.4902 0.3382 0.6904   0.009305
 C 0.4893 0.4653 0.6898   -0.11053
 C 0.4856 0.5067 0.7791   0.155674
 C 0.4747 0.3061 0.8679   0.17642
 C 0.4817 0.2562 0.7814   -0.157147
 C 0.7992 0.5273 0.773   -0.173918
 C 0.822 0.5832 0.6715   -0.107846
 C 0.8365 0.5099 0.597   0.209778
 C 0.835 0.3787 0.6251   -0.145717
 C 0.8163 0.3247 0.7255   -0.112767
 C 0.7967 0.3973 0.8005   -0.02806
 C 0.8128 0.1854 0.7528   0.663471
 C 0.7676 0.6071 0.8534   0.795857
 C 0.8348 0.5173 0.4181   0.507703
 C 0.8483 0.6003 0.3156   -0.033684
 C 0.855 0.5419 0.2333   -0.164334
 C 0.8608 0.6135 0.1385   0.194562
 C 0.8547 0.7941 0.2001   0.209473
 C 0.8488 0.7309 0.2976   -0.188606
 C 0.2366 0.8864 0.6684   -0.123423
 C 0.2644 0.8584 0.571   -0.07118
 C 0.3953 0.8387 0.5245   0.187273
 C 0.5004 0.8511 0.5724   -0.109444
 C 0.4734 0.8803 0.669   -0.140566
 C 0.3416 0.8962 0.7172   -0.022803
 C 0.0914 0.9017 0.7165   0.682814
 C 0.5912 0.8913 0.7173   0.665971
 C 0.5042 0.7055 0.4087   0.502839
 C 0.5098 0.6618 0.3096   0.009308
 C 0.5107 0.5347 0.3102   -0.110527
 C 0.5144 0.4933 0.2209   0.155677
 C 0.5253 0.6939 0.1321   0.176422
 C 0.5183 0.7438 0.2186   -0.157142
 N 0.1461 0.4304 0.5045   -0.401114
 N 0.14 0.2617 0.8791   -0.441264
 N 0.5792 0.1982 0.5716   -0.383428
 N 0.479 0.4291 0.8679   -0.350765
 N 0.8539 0.5696 0.4955   -0.401111
 N 0.86 0.7383 0.1209   -0.441266
 N 0.4208 0.8018 0.4284   -0.383429
 N 0.521 0.5709 0.1321   -0.350766
 O 0.3069 0.4351 0.0651   -0.586637
 O 0.1801 0.2865 0.1654   -0.775646
 O 0.1708 0.8717 0.1618   -0.714669
 O 0.2072 0.8782 0.3107   -0.680144
 O 0.1921 0.5918 0.5744   -0.468396
 O 0.9427 0.0988 0.1906   -0.709193
 O 0.9976 0.0842 0.3364   -0.670436
 O 0.4265 0.0933 0.1908   -0.752067
 O 0.2917 0.1151 0.3322   -0.646117
 O 0.424 0.3511 0.5331   -0.485951
 O 0.6931 0.5649 0.9349   -0.586637
 O 0.8199 0.7135 0.8346   -0.775645
 O 0.8292 0.1283 0.8382   -0.714669
 O 0.7928 0.1218 0.6893   -0.680144
 O 0.8079 0.4082 0.4256   -0.468396
 O 0.0573 0.9012 0.8094   -0.709193
 O 0.0024 0.9158 0.6636   -0.67044
 O 0.5735 0.9067 0.8092   -0.752066
 O 0.7083 0.8849 0.6678   -0.646116
 O 0.576 0.6489 0.4669   -0.485952
