{'_ref': 'TBD', '_srcid': 'CAKYAQ_clean', 'submitters': [{'name': 'Dalar Nazarian Jeff Camp and David Sholl', 'email': 'dalar@gatech.edu jcamp6@gatech.edu'}], '_method': 'VASP DFT with PBE;DDEC'}
data_CoH2(CO)4
_symmetry_space_group_name_H-M   'P 1'
_cell_length_a   7.02000019
_cell_length_b   8.22699987
_cell_length_c   8.52918092
_cell_angle_alpha   113.30805774
_cell_angle_beta   114.30071123
_cell_angle_gamma   89.99999895
_symmetry_Int_Tables_number   1
_chemical_formula_structural   CoH2(CO)4
_chemical_formula_sum   'Co2 H4 C8 O8'
_cell_volume   404.430871824
_cell_formula_units_Z   2
loop_
 _symmetry_equiv_pos_site_id
 _symmetry_equiv_pos_as_xyz
  1  'x, y, z'
loop_
 _atom_site_label
 _atom_site_fract_x
 _atom_site_fract_y
 _atom_site_fract_z
 _atom_site_charge
 Co 0.5 0.5 0.5   1.09544
 Co 0.0 0.0 0.5   1.095626
 H 0.3167 0.059 0.9154   0.12804
 H 0.4013 0.441 0.0846   0.128751
 H 0.6833 0.941 0.0846   0.128037
 H 0.5987 0.559 0.9154   0.128748
 C 0.38504 0.84867 0.7277   0.726661
 C 0.41834 0.99018 0.91868   -0.177061
 C 0.65734 0.65133 0.2723   0.729172
 C 0.49966 0.50982 0.08132   -0.178524
 C 0.61496 0.15133 0.2723   0.726657
 C 0.58166 0.00982 0.08132   -0.177029
 C 0.34266 0.34867 0.7277   0.729167
 C 0.50034 0.49018 0.91868   -0.178487
 O 0.5147 0.7436 0.72126   -0.585133
 O 0.22442 0.84046 0.58022   -0.640133
 O 0.79344 0.7564 0.27874   -0.586499
 O 0.6442 0.65954 0.41978   -0.640836
 O 0.4853 0.2564 0.27874   -0.585131
 O 0.77558 0.15954 0.41978   -0.640133
 O 0.20656 0.2436 0.72126   -0.586498
 O 0.3558 0.34046 0.58022   -0.640836
