{'_ref': 'TBD', '_srcid': 'CAKYAQ_clean', 'submitters': [{'name': 'Dalar Nazarian Jeff Camp and David Sholl', 'email': 'dalar@gatech.edu jcamp6@gatech.edu'}], '_method': 'VASP DFT with PBE;DDEC'}
data_Al2P3H9(CO3)3
_symmetry_space_group_name_H-M   'P 1'
_cell_length_a   8.53110000
_cell_length_b   13.99490007
_cell_length_c   13.99490000
_cell_angle_alpha   119.99999984
_cell_angle_beta   90.00000000
_cell_angle_gamma   90.00000000
_symmetry_Int_Tables_number   1
_chemical_formula_structural   Al2P3H9(CO3)3
_chemical_formula_sum   'Al8 P12 H36 C12 O36'
_cell_volume   1447.02244074
_cell_formula_units_Z   4
loop_
 _symmetry_equiv_pos_site_id
 _symmetry_equiv_pos_as_xyz
  1  'x, y, z'
loop_
 _atom_site_label
 _atom_site_fract_x
 _atom_site_fract_y
 _atom_site_fract_z
 _atom_site_charge
 Al 0.4412 0.4946 0.0973   2.011578
 Al 0.4412 0.6027 0.5054   2.01158
 Al 0.4412 0.9027 0.3973   2.011582
 Al 0.9412 0.3973 0.9027   2.011579
 Al 0.9412 0.0973 0.4946   2.011582
 Al 0.9412 0.5054 0.6027   2.011583
 Al 0.5102 0.33333 0.66666   2.053728
 Al 0.0102 0.66667 0.33334   2.053728
 P 0.3003 0.34799 0.86571   1.844524
 P 0.7686 0.18972 0.71929   1.837857
 P 0.3003 0.51772 0.65201   1.844531
 P 0.7686 0.52957 0.81028   1.837848
 P 0.3003 0.13429 0.48228   1.84452
 P 0.7686 0.28071 0.47043   1.837887
 P 0.8003 0.48228 0.13429   1.844524
 P 0.2686 0.47043 0.28071   1.837858
 P 0.8003 0.86571 0.34799   1.844532
 P 0.2686 0.71929 0.18972   1.837849
 P 0.8003 0.65201 0.51772   1.84452
 P 0.2686 0.81028 0.52957   1.837887
 H 0.2168 0.189 0.8573   0.196866
 H 0.3687 0.1664 0.7861   0.21528
 H 0.2064 0.1779 0.7403   0.226923
 H 0.7878 0.0659 0.7797   0.199985
 H 0.6338 0.0448 0.7108   0.213385
 H 0.6415 0.1422 0.833   0.197986
 H 0.2168 0.6683 0.811   0.196868
 H 0.3687 0.6197 0.8336   0.215284
 H 0.2064 0.5624 0.8221   0.226929
 H 0.7878 0.7138 0.9341   0.199987
 H 0.6338 0.666 0.9552   0.213389
 H 0.6415 0.6908 0.8578   0.197984
 H 0.2168 0.1427 0.3317   0.196871
 H 0.3687 0.2139 0.3803   0.215282
 H 0.2064 0.2597 0.4376   0.226928
 H 0.7878 0.2203 0.2862   0.199994
 H 0.6338 0.2892 0.334   0.213391
 H 0.6415 0.167 0.3092   0.197988
 H 0.7168 0.3317 0.1427   0.196868
 H 0.8687 0.3803 0.2139   0.215279
 H 0.7064 0.4376 0.2597   0.226924
 H 0.2878 0.2862 0.2203   0.199989
 H 0.1338 0.334 0.2892   0.213385
 H 0.1415 0.3092 0.167   0.197989
 H 0.7168 0.8573 0.189   0.19687
 H 0.8687 0.7861 0.1664   0.215284
 H 0.7064 0.7403 0.1779   0.226929
 H 0.2878 0.7797 0.0659   0.19999
 H 0.1338 0.7108 0.0448   0.213388
 H 0.1415 0.833 0.1422   0.197987
 H 0.7168 0.811 0.6683   0.196874
 H 0.8687 0.8336 0.6197   0.215282
 H 0.7064 0.8221 0.5624   0.226928
 H 0.2878 0.9341 0.7138   0.199998
 H 0.1338 0.9552 0.666   0.213391
 H 0.1415 0.8578 0.6908   0.197991
 C 0.2695 0.2037 0.8053   -0.845469
 C 0.7001 0.1004 0.766   -0.807133
 C 0.2695 0.6016 0.7963   -0.845471
 C 0.7001 0.6656 0.8996   -0.807132
 C 0.2695 0.1947 0.3984   -0.845471
 C 0.7001 0.234 0.3344   -0.807143
 C 0.7695 0.3984 0.1947   -0.84547
 C 0.2001 0.3344 0.234   -0.807135
 C 0.7695 0.8053 0.2037   -0.845472
 C 0.2001 0.766 0.1004   -0.807134
 C 0.7695 0.7963 0.6016   -0.845472
 C 0.2001 0.8996 0.6656   -0.807145
 O 0.3828 0.3754 0.7907   -0.934874
 O 0.3922 0.3851 0.9707   -1.011267
 O 0.1393 0.4059 0.8964   -1.025986
 O 0.6312 0.2461 0.7051   -0.974279
 O 0.8563 0.1122 0.6127   -1.003685
 O 0.8859 0.2675 0.8013   -1.026284
 O 0.3828 0.4153 0.6246   -0.934881
 O 0.3922 0.5856 0.6149   -1.011267
 O 0.1393 0.4905 0.5941   -1.025984
 O 0.6312 0.459 0.7539   -0.97427
 O 0.8563 0.5005 0.8878   -1.003677
 O 0.8859 0.5338 0.7325   -1.026288
 O 0.3828 0.2093 0.5847   -0.934869
 O 0.3922 0.0293 0.4144   -1.011263
 O 0.1393 0.1036 0.5095   -1.025977
 O 0.6312 0.2949 0.541   -0.974322
 O 0.8563 0.3873 0.4995   -1.003683
 O 0.8859 0.1987 0.4662   -1.026289
 O 0.8828 0.5847 0.2093   -0.934874
 O 0.8922 0.4144 0.0293   -1.011267
 O 0.6393 0.5095 0.1036   -1.025986
 O 0.1312 0.541 0.2949   -0.974279
 O 0.3563 0.4995 0.3873   -1.003685
 O 0.3859 0.4662 0.1987   -1.026285
 O 0.8828 0.7907 0.3754   -0.934881
 O 0.8922 0.9707 0.3851   -1.011268
 O 0.6393 0.8964 0.4059   -1.025985
 O 0.1312 0.7051 0.2461   -0.974271
 O 0.3563 0.6127 0.1122   -1.003677
 O 0.3859 0.8013 0.2675   -1.026288
 O 0.8828 0.6246 0.4153   -0.934869
 O 0.8922 0.6149 0.5856   -1.011264
 O 0.6393 0.5941 0.4905   -1.025977
 O 0.1312 0.7539 0.459   -0.974322
 O 0.3563 0.8878 0.5005   -1.003683
 O 0.3859 0.7325 0.5338   -1.026288
