data_GULPIN_clean_PM
_symmetry_space_group_name_H-M	'P1'
_cell_length_a	12.605000
_cell_length_b	13.271100
_cell_length_c	13.271100
_cell_angle_alpha	94.687400
_cell_angle_beta	96.631900
_cell_angle_gamma	83.368100
_symmetry_Int_Tables_number 1

loop_
_symmetry_equiv_pos_as_xyz
'x,y,z'

loop_
_atom_site_label
_atom_site_type_symbol
_atom_site_fract_x
_atom_site_fract_y
_atom_site_fract_z
Zn11	Zn1	0.171230	0.172730	0.726970
Zn21	Zn2	0.328770	0.726970	0.172730
Zn31	Zn3	0.828770	0.827270	0.273030
Zn41	Zn4	0.671230	0.273030	0.827270
H11	H1	0.405700	0.186600	0.710600
H21	H2	0.541700	0.113700	0.623500
H31	H3	0.336900	0.952300	0.455300
H41	H4	0.204500	0.030300	0.545900
H51	H5	0.982100	0.231900	0.577900
H61	H6	0.914700	0.359500	0.479900
H71	H7	0.148000	0.521000	0.606000
H81	H8	0.209400	0.389200	0.703600
H91	H9	0.057900	0.868200	0.700000
H101	H10	0.957800	0.735800	0.701600
H111	H11	0.709800	0.927600	0.779000
H121	H12	0.094300	0.710600	0.186600
H131	H13	0.958300	0.623500	0.113700
H141	H14	0.163100	0.455300	0.952300
H151	H15	0.295500	0.545900	0.030300
H161	H16	0.517900	0.577900	0.231900
H171	H17	0.585300	0.479900	0.359500
H181	H18	0.352000	0.606000	0.521000
H191	H19	0.290600	0.703600	0.389200
H201	H20	0.442100	0.700000	0.868200
H211	H21	0.542200	0.701600	0.735800
H221	H22	0.790200	0.779000	0.927600
H231	H23	0.594300	0.813400	0.289400
H241	H24	0.458300	0.886300	0.376500
H251	H25	0.663100	0.047700	0.544700
H261	H26	0.795500	0.969700	0.454100
H271	H27	0.017900	0.768100	0.422100
H281	H28	0.085300	0.640500	0.520100
H291	H29	0.852000	0.479000	0.394000
H301	H30	0.790600	0.610800	0.296400
H311	H31	0.942100	0.131800	0.300000
H321	H32	0.042200	0.264200	0.298400
H331	H33	0.290200	0.072400	0.221000
H341	H34	0.905700	0.289400	0.813400
H351	H35	0.041700	0.376500	0.886300
H361	H36	0.836900	0.544700	0.047700
H371	H37	0.704500	0.454100	0.969700
H381	H38	0.482100	0.422100	0.768100
H391	H39	0.414700	0.520100	0.640500
H401	H40	0.648000	0.394000	0.479000
H411	H41	0.709400	0.296400	0.610800
H421	H42	0.557900	0.300000	0.131800
H431	H43	0.457800	0.298400	0.264200
H441	H44	0.209800	0.221000	0.072400
C11	C1	0.390800	0.137100	0.658900
C21	C2	0.473200	0.093700	0.606100
C31	C3	0.457100	0.022900	0.529500
C41	C4	0.353700	0.000100	0.508300
C51	C5	0.274300	0.046600	0.563800
C61	C6	0.016300	0.290900	0.584100
C71	C7	0.975300	0.367500	0.525700
C81	C8	0.020900	0.457000	0.532200
C91	C9	0.112100	0.463000	0.599600
C101	C10	0.149000	0.383000	0.657000
C111	C11	0.014200	0.067500	0.738900
C121	C12	0.944600	0.982200	0.733200
C131	C13	0.986900	0.881700	0.714300
C141	C14	0.927000	0.801700	0.716300
C151	C15	0.822800	0.817100	0.739300
C161	C16	0.779600	0.915300	0.761100
C171	C17	0.839600	0.997300	0.756500
C181	C18	0.783400	0.102800	0.768400
C191	C19	0.813000	0.625500	0.734700
C201	C20	0.109200	0.658900	0.137100
C211	C21	0.026800	0.606100	0.093700
C221	C22	0.042900	0.529500	0.022900
C231	C23	0.146300	0.508300	0.000100
C241	C24	0.225700	0.563800	0.046600
C251	C25	0.483700	0.584100	0.290900
C261	C26	0.524700	0.525700	0.367500
C271	C27	0.479100	0.532200	0.457000
C281	C28	0.387900	0.599600	0.463000
C291	C29	0.351000	0.657000	0.383000
C301	C30	0.485800	0.738900	0.067500
C311	C31	0.555400	0.733200	0.982200
C321	C32	0.513100	0.714300	0.881700
C331	C33	0.573000	0.716300	0.801700
C341	C34	0.677200	0.739300	0.817100
C351	C35	0.720400	0.761100	0.915300
C361	C36	0.660400	0.756500	0.997300
C371	C37	0.716600	0.768400	0.102800
C381	C38	0.687000	0.734700	0.625500
C391	C39	0.609200	0.862900	0.341100
C401	C40	0.526800	0.906300	0.393900
C411	C41	0.542900	0.977100	0.470500
C421	C42	0.646300	0.999900	0.491700
C431	C43	0.725700	0.953400	0.436200
C441	C44	0.983700	0.709100	0.415900
C451	C45	0.024700	0.632500	0.474300
C461	C46	0.979100	0.543000	0.467800
C471	C47	0.887900	0.537000	0.400400
C481	C48	0.851000	0.617000	0.343000
C491	C49	0.985800	0.932500	0.261100
C501	C50	0.055400	0.017800	0.266800
C511	C51	0.013100	0.118300	0.285700
C521	C52	0.073000	0.198300	0.283700
C531	C53	0.177200	0.182900	0.260700
C541	C54	0.220400	0.084700	0.238900
C551	C55	0.160400	0.002700	0.243500
C561	C56	0.216600	0.897200	0.231600
C571	C57	0.187000	0.374500	0.265300
C581	C58	0.890800	0.341100	0.862900
C591	C59	0.973200	0.393900	0.906300
C601	C60	0.957100	0.470500	0.977100
C611	C61	0.853700	0.491700	0.999900
C621	C62	0.774300	0.436200	0.953400
C631	C63	0.516300	0.415900	0.709100
C641	C64	0.475300	0.474300	0.632500
C651	C65	0.520900	0.467800	0.543000
C661	C66	0.612100	0.400400	0.537000
C671	C67	0.649000	0.343000	0.617000
C681	C68	0.514200	0.261100	0.932500
C691	C69	0.444600	0.266800	0.017800
C701	C70	0.486900	0.285700	0.118300
C711	C71	0.427000	0.283700	0.198300
C721	C72	0.322800	0.260700	0.182900
C731	C73	0.279600	0.238900	0.084700
C741	C74	0.339600	0.243500	0.002700
C751	C75	0.283400	0.231600	0.897200
C761	C76	0.313000	0.265300	0.374500
C771	C77	0.750000	0.730800	0.730800
C781	C78	0.250000	0.269200	0.269200
N11	N1	0.292200	0.113350	0.641350
N21	N2	0.103700	0.295950	0.650450
N31	N3	0.207800	0.641350	0.113350
N41	N4	0.396300	0.650450	0.295950
N51	N5	0.707800	0.886650	0.358650
N61	N6	0.896300	0.704050	0.349550
N71	N7	0.792200	0.358650	0.886650
N81	N8	0.603700	0.349550	0.704050
O11	O1	0.998900	0.142860	0.800040
O21	O2	0.077600	0.058610	0.678730
O31	O3	0.784400	0.161560	0.704060
O41	O4	0.738600	0.127680	0.842160
O51	O5	0.501100	0.800040	0.142860
O61	O6	0.422400	0.678730	0.058610
O71	O7	0.715600	0.704060	0.161560
O81	O8	0.761400	0.842160	0.127680
O91	O9	0.001100	0.857140	0.199960
O101	O10	0.922400	0.941390	0.321270
O111	O11	0.215600	0.838440	0.295940
O121	O12	0.261400	0.872320	0.157840
O131	O13	0.498900	0.199960	0.857140
O141	O14	0.577600	0.321270	0.941390
O151	O15	0.284400	0.295940	0.838440
O161	O16	0.238600	0.157840	0.872320
F11	F1	0.890780	0.624210	0.813670
F21	F2	0.864100	0.596990	0.652430
F31	F3	0.752120	0.554410	0.746650
F41	F4	0.609220	0.813670	0.624210
F51	F5	0.635900	0.652430	0.596990
F61	F6	0.747880	0.746650	0.554410
F71	F7	0.109220	0.375790	0.186330
F81	F8	0.135900	0.403010	0.347570
F91	F9	0.247880	0.445590	0.253350
F101	F10	0.390780	0.186330	0.375790
F111	F11	0.364100	0.347570	0.403010
F121	F12	0.252120	0.253350	0.445590
