{'_ref': 'TBD', '_srcid': 'CAKYAQ_clean', 'submitters': [{'name': 'Dalar Nazarian Jeff Camp and David Sholl', 'email': 'dalar@gatech.edu jcamp6@gatech.edu'}], '_method': 'VASP DFT with PBE;DDEC'}
data_CoH8C12(NO2)2
_symmetry_space_group_name_H-M   'P 1'
_cell_length_a   9.77800000
_cell_length_b   10.26600036
_cell_length_c   13.21200000
_cell_angle_alpha   90.00000000
_cell_angle_beta   90.00000000
_cell_angle_gamma   104.18300180
_symmetry_Int_Tables_number   1
_chemical_formula_structural   CoH8C12(NO2)2
_chemical_formula_sum   'Co4 H32 C48 N8 O16'
_cell_volume   1285.80700465
_cell_formula_units_Z   4
loop_
 _symmetry_equiv_pos_site_id
 _symmetry_equiv_pos_as_xyz
  1  'x, y, z'
loop_
 _atom_site_label
 _atom_site_fract_x
 _atom_site_fract_y
 _atom_site_fract_z
 _atom_site_charge
 Co 0.0 0.0 0.5   1.021203
 Co 0.5 0.5 0.0   1.021203
 Co 0.0 0.5 0.0   1.015605
 Co 0.5 0.0 0.5   1.015605
 H 0.1459 0.7925 0.0695   0.083242
 H 0.2208 0.9183 0.2109   0.119071
 H 0.0668 0.5902 0.3804   0.134464
 H 0.0049 0.4708 0.2329   0.064345
 H 0.2715 0.1436 0.3922   0.066411
 H 0.3521 0.267 0.2481   0.112265
 H 0.9476 0.2064 0.1588   0.116937
 H 0.88 0.0886 0.3051   0.068988
 H 0.3541 0.7075 0.5695   0.08324
 H 0.2792 0.5817 0.7109   0.119072
 H 0.4332 0.9098 0.8804   0.134463
 H 0.4951 0.0292 0.7329   0.064345
 H 0.2285 0.3564 0.8922   0.066411
 H 0.1479 0.233 0.7481   0.112265
 H 0.5524 0.2936 0.6588   0.116937
 H 0.62 0.4114 0.8051   0.068988
 H 0.8541 0.2075 0.9305   0.083241
 H 0.7792 0.0817 0.7891   0.119071
 H 0.9332 0.4098 0.6196   0.134461
 H 0.9951 0.5292 0.7671   0.064345
 H 0.7285 0.8564 0.6078   0.066411
 H 0.6479 0.733 0.7519   0.112265
 H 0.0524 0.7936 0.8412   0.116936
 H 0.12 0.9114 0.6949   0.068988
 H 0.6459 0.2925 0.4305   0.08324
 H 0.7208 0.4183 0.2891   0.119071
 H 0.5668 0.0902 0.1196   0.13446
 H 0.5049 0.9708 0.2671   0.064345
 H 0.7715 0.6436 0.1078   0.066411
 H 0.8521 0.767 0.2519   0.112265
 H 0.4476 0.7064 0.3412   0.116936
 H 0.38 0.5886 0.1949   0.068988
 C 0.1313 0.7501 0.133   0.172733
 C 0.1758 0.8266 0.2174   -0.181627
 C 0.154 0.7679 0.3123   0.023475
 C 0.0864 0.6334 0.3175   -0.180576
 C 0.0479 0.5631 0.2283   0.163275
 C 0.2074 0.8467 0.4072   0.65592
 C 0.2055 0.1578 0.3444   0.157888
 C 0.2549 0.232 0.2582   -0.156979
 C 0.1584 0.2534 0.1878   -0.04165
 C 0.0162 0.1963 0.2061   -0.150416
 C 0.9767 0.1252 0.2936   0.162307
 C 0.2093 0.3386 0.0949   0.664749
 C 0.3687 0.7499 0.633   0.172734
 C 0.3242 0.6734 0.7174   -0.181627
 C 0.346 0.7321 0.8123   0.023475
 C 0.4136 0.8666 0.8175   -0.180576
 C 0.4521 0.9369 0.7283   0.163275
 C 0.2926 0.6533 0.9072   0.65592
 C 0.2945 0.3422 0.8444   0.157888
 C 0.2451 0.268 0.7582   -0.156979
 C 0.3416 0.2466 0.6878   -0.04165
 C 0.4838 0.3037 0.7061   -0.150416
 C 0.5233 0.3748 0.7936   0.162307
 C 0.2907 0.1614 0.5949   0.664749
 C 0.8687 0.2499 0.867   0.172733
 C 0.8242 0.1734 0.7826   -0.181626
 C 0.846 0.2321 0.6877   0.023475
 C 0.9136 0.3666 0.6825   -0.180574
 C 0.9521 0.4369 0.7717   0.163275
 C 0.7926 0.1533 0.5928   0.65592
 C 0.7945 0.8422 0.6556   0.157888
 C 0.7451 0.768 0.7418   -0.156979
 C 0.8416 0.7466 0.8122   -0.04165
 C 0.9838 0.8037 0.7939   -0.150416
 C 0.0233 0.8748 0.7064   0.162308
 C 0.7907 0.6614 0.9051   0.664749
 C 0.6313 0.2501 0.367   0.172734
 C 0.6758 0.3266 0.2826   -0.181626
 C 0.654 0.2679 0.1877   0.023475
 C 0.5864 0.1334 0.1825   -0.180574
 C 0.5479 0.0631 0.2717   0.163274
 C 0.7074 0.3467 0.0928   0.65592
 C 0.7055 0.6578 0.1556   0.157887
 C 0.7549 0.732 0.2418   -0.156979
 C 0.6584 0.7534 0.3122   -0.04165
 C 0.5162 0.6963 0.2939   -0.150416
 C 0.4767 0.6252 0.2064   0.162308
 C 0.7093 0.8386 0.4051   0.664749
 N 0.0683 0.6187 0.1355   -0.350763
 N 0.0679 0.1054 0.3627   -0.346751
 N 0.4317 0.8813 0.6355   -0.350763
 N 0.4321 0.3946 0.8627   -0.346751
 N 0.9317 0.3813 0.8645   -0.350763
 N 0.9321 0.8946 0.6373   -0.346751
 N 0.5683 0.1187 0.3645   -0.350763
 N 0.5679 0.6054 0.1373   -0.346751
 O 0.3398 0.8866 0.41035   -0.588076
 O 0.1225 0.8618 0.47373   -0.601688
 O 0.3387 0.3747 0.08251   -0.575837
 O 0.1144 0.3639 0.03861   -0.61011
 O 0.1602 0.6134 0.91035   -0.588076
 O 0.3775 0.6382 0.97373   -0.601688
 O 0.1613 0.1253 0.58251   -0.575837
 O 0.3856 0.1361 0.53861   -0.61011
 O 0.6602 0.1134 0.58965   -0.588076
 O 0.8775 0.1382 0.52627   -0.601688
 O 0.6613 0.6253 0.91749   -0.575836
 O 0.8856 0.6361 0.96139   -0.61011
 O 0.8398 0.3866 0.08965   -0.588076
 O 0.6225 0.3618 0.02627   -0.601688
 O 0.8387 0.8747 0.41749   -0.575836
 O 0.6144 0.8639 0.46139   -0.61011
