{'_ref': 'TBD', '_srcid': 'CAKYAQ_clean', 'submitters': [{'name': 'Dalar Nazarian Jeff Camp and David Sholl', 'email': 'dalar@gatech.edu jcamp6@gatech.edu'}], '_method': 'VASP DFT with PBE;DDEC'}
data_CeH2C7(NO3)2
_symmetry_space_group_name_H-M   'P 1'
_cell_length_a   11.03600000
_cell_length_b   12.05600000
_cell_length_c   19.56100000
_cell_angle_alpha   90.00000000
_cell_angle_beta   90.00000000
_cell_angle_gamma   90.00000000
_symmetry_Int_Tables_number   1
_chemical_formula_structural   CeH2C7(NO3)2
_chemical_formula_sum   'Ce8 H16 C56 N16 O48'
_cell_volume   2602.59136298
_cell_formula_units_Z   8
loop_
 _symmetry_equiv_pos_site_id
 _symmetry_equiv_pos_as_xyz
  1  'x, y, z'
loop_
 _atom_site_label
 _atom_site_fract_x
 _atom_site_fract_y
 _atom_site_fract_z
 _atom_site_charge
 Ce 0.36431 0.84017 0.87879   2.179497
 Ce 0.88269 0.02071 0.66444   2.135671
 Ce 0.63569 0.15983 0.37879   2.179497
 Ce 0.11731 0.97929 0.16444   2.135671
 Ce 0.13569 0.34017 0.87879   2.179499
 Ce 0.61731 0.52071 0.66444   2.135672
 Ce 0.86431 0.65983 0.37879   2.179499
 Ce 0.38269 0.47929 0.16444   2.135672
 H 0.1534 0.9899 0.7699   0.049797
 H 0.2686 0.7358 0.6116   0.167197
 H 0.6301 0.8993 0.7677   0.054602
 H 0.4931 0.2532 0.778   0.143394
 H 0.8466 0.0101 0.2699   0.049797
 H 0.7314 0.2642 0.1116   0.167197
 H 0.3699 0.1007 0.2677   0.054602
 H 0.5069 0.7468 0.278   0.143394
 H 0.3466 0.4899 0.7699   0.049797
 H 0.2314 0.2358 0.6116   0.167197
 H 0.8699 0.3993 0.7677   0.054602
 H 0.0069 0.7532 0.778   0.143394
 H 0.6534 0.5101 0.2699   0.049797
 H 0.7686 0.7642 0.1116   0.167197
 H 0.1301 0.6007 0.2677   0.054602
 H 0.9931 0.2468 0.278   0.143394
 C 0.1741 0.9352 0.7385   0.426745
 C 0.1373 0.8475 0.6368   0.221813
 C 0.2427 0.7855 0.6449   -0.149303
 C 0.3071 0.801 0.7046   0.190154
 C 0.4145 0.7259 0.7224   0.682389
 C 0.0544 0.8272 0.576   0.624005
 C 0.6017 0.9719 0.769   0.482515
 C 0.6253 0.1528 0.7398   0.192844
 C 0.5201 0.1803 0.7748   -0.145604
 C 0.4582 0.0945 0.8042   0.216571
 C 0.34 0.1136 0.8425   0.656866
 C 0.703 0.2427 0.7055   0.686807
 C 0.8215 0.1159 0.5102   0.551899
 C 0.7002 0.0634 0.5328   0.60237
 C 0.8259 0.0648 0.2385   0.426745
 C 0.8627 0.1525 0.1368   0.221813
 C 0.7573 0.2145 0.1449   -0.149303
 C 0.6929 0.199 0.2046   0.190154
 C 0.5855 0.2741 0.2224   0.682389
 C 0.9456 0.1728 0.076   0.624005
 C 0.3983 0.0281 0.269   0.482515
 C 0.3747 0.8472 0.2398   0.192844
 C 0.4799 0.8197 0.2748   -0.145604
 C 0.5418 0.9055 0.3042   0.216571
 C 0.66 0.8864 0.3425   0.656866
 C 0.297 0.7573 0.2055   0.686807
 C 0.1785 0.8841 0.0102   0.551899
 C 0.2998 0.9366 0.0328   0.60237
 C 0.3259 0.4352 0.7385   0.426745
 C 0.3627 0.3475 0.6368   0.221813
 C 0.2573 0.2855 0.6449   -0.149302
 C 0.1929 0.301 0.7046   0.190154
 C 0.0855 0.2259 0.7224   0.682389
 C 0.4456 0.3272 0.576   0.624005
 C 0.8983 0.4719 0.769   0.482515
 C 0.8747 0.6528 0.7398   0.192844
 C 0.9799 0.6803 0.7748   -0.145604
 C 0.0418 0.5945 0.8042   0.216571
 C 0.16 0.6136 0.8425   0.656865
 C 0.797 0.7427 0.7055   0.686807
 C 0.6785 0.6159 0.5102   0.551899
 C 0.7998 0.5634 0.5328   0.60237
 C 0.6741 0.5648 0.2385   0.426745
 C 0.6373 0.6525 0.1368   0.221813
 C 0.7427 0.7145 0.1449   -0.149302
 C 0.8071 0.699 0.2046   0.190154
 C 0.9145 0.7741 0.2224   0.682389
 C 0.5544 0.6728 0.076   0.624005
 C 0.1017 0.5281 0.269   0.482515
 C 0.1253 0.3472 0.2398   0.192844
 C 0.0201 0.3197 0.2748   -0.145604
 C 0.9582 0.4055 0.3042   0.216571
 C 0.84 0.3864 0.3425   0.656865
 C 0.203 0.2573 0.2055   0.686807
 C 0.3215 0.3841 0.0102   0.551899
 C 0.2002 0.4366 0.0328   0.60237
 N 0.2742 0.8752 0.751   -0.50515
 N 0.1017 0.922 0.6837   -0.521053
 N 0.4995 0.9905 0.8041   -0.546167
 N 0.666 0.0473 0.736   -0.499671
 N 0.7258 0.1248 0.251   -0.50515
 N 0.8983 0.078 0.1837   -0.521053
 N 0.5005 0.0095 0.3041   -0.546167
 N 0.334 0.9527 0.236   -0.499671
 N 0.2258 0.3752 0.751   -0.50515
 N 0.3983 0.422 0.6837   -0.521053
 N 0.000500000000002 0.4905 0.8041   -0.546168
 N 0.834 0.5473 0.736   -0.499671
 N 0.7742 0.6248 0.251   -0.50515
 N 0.6017 0.578 0.1837   -0.521053
 N 0.9995 0.5095 0.3041   -0.546168
 N 0.166 0.4527 0.236   -0.499671
 O 0.4557 0.7362 0.7816   -0.756083
 O 0.4494 0.6598 0.6774   -0.627804
 O 0.9595 0.8888 0.5736   -0.708992
 O 0.086 0.7583 0.5353   -0.579012
 O 0.2912 0.0337 0.8733   -0.648968
 O 0.2959 0.2103 0.8362   -0.667484
 O 0.7991 0.2118 0.6771   -0.634572
 O 0.6659 0.3391 0.7089   -0.719615
 O 0.8257 0.1515 0.4491   -0.662547
 O 0.9074 0.1177 0.5522   -0.582114
 O 0.6108 0.0778 0.4953   -0.67251
 O 0.7049 0.0093 0.5878   -0.638488
 O 0.5443 0.2638 0.2816   -0.756083
 O 0.5506 0.3402 0.1774   -0.627804
 O 0.0405 0.1112 0.0736   -0.708992
 O 0.914 0.2417 0.0353   -0.579012
 O 0.7088 0.9663 0.3733   -0.648968
 O 0.7041 0.7897 0.3362   -0.667484
 O 0.2009 0.7882 0.1771   -0.634572
 O 0.3341 0.6609 0.2089   -0.719615
 O 0.1743 0.8485 0.9491   -0.662547
 O 0.0926 0.8823 0.0522   -0.582114
 O 0.3892 0.9222 0.9953   -0.67251
 O 0.2951 0.9907 0.0878   -0.638488
 O 0.0443 0.2362 0.7816   -0.756083
 O 0.0506 0.1598 0.6774   -0.627804
 O 0.5405 0.3888 0.5736   -0.708992
 O 0.414 0.2583 0.5353   -0.579012
 O 0.2088 0.5337 0.8733   -0.648968
 O 0.2041 0.7103 0.8362   -0.667484
 O 0.7009 0.7118 0.6771   -0.634572
 O 0.8341 0.8391 0.7089   -0.719615
 O 0.6743 0.6515 0.4491   -0.662547
 O 0.5926 0.6177 0.5522   -0.582114
 O 0.8892 0.5778 0.4953   -0.67251
 O 0.7951 0.5093 0.5878   -0.638488
 O 0.9557 0.7638 0.2816   -0.756083
 O 0.9494 0.8402 0.1774   -0.627804
 O 0.4595 0.6112 0.0736   -0.708992
 O 0.586 0.7417 0.0353   -0.579012
 O 0.7912 0.4663 0.3733   -0.648968
 O 0.7959 0.2897 0.3362   -0.667484
 O 0.2991 0.2882 0.1771   -0.634572
 O 0.1659 0.1609 0.2089   -0.719615
 O 0.3257 0.3485 0.9491   -0.662547
 O 0.4074 0.3823 0.0522   -0.582114
 O 0.1108 0.4222 0.9953   -0.67251
 O 0.2049 0.4907 0.0878   -0.638488
