{'_ref': 'TBD', '_srcid': 'CAKYAQ_clean', 'submitters': [{'name': 'Dalar Nazarian Jeff Camp and David Sholl', 'email': 'dalar@gatech.edu jcamp6@gatech.edu'}], '_method': 'VASP DFT with PBE;DDEC'}
data_PrH2C7(NO3)2
_symmetry_space_group_name_H-M   'P 1'
_cell_length_a   11.00800000
_cell_length_b   12.00200000
_cell_length_c   19.47300000
_cell_angle_alpha   90.00000000
_cell_angle_beta   90.00000000
_cell_angle_gamma   90.00000000
_symmetry_Int_Tables_number   1
_chemical_formula_structural   PrH2C7(NO3)2
_chemical_formula_sum   'Pr8 H16 C56 N16 O48'
_cell_volume   2572.73412557
_cell_formula_units_Z   8
loop_
 _symmetry_equiv_pos_site_id
 _symmetry_equiv_pos_as_xyz
  1  'x, y, z'
loop_
 _atom_site_label
 _atom_site_fract_x
 _atom_site_fract_y
 _atom_site_fract_z
 _atom_site_charge
 Pr 0.8638 0.65899 0.64838   2.107272
 Pr 0.38228 0.47717 0.86248   2.121701
 Pr 0.1362 0.34101 0.14838   2.107272
 Pr 0.61772 0.52283 0.36248   2.121701
 Pr 0.6362 0.15899 0.64838   2.107187
 Pr 0.11772 0.97717 0.86248   2.121615
 Pr 0.3638 0.84101 0.14838   2.107187
 Pr 0.88228 0.02283 0.36248   2.121615
 H 0.6511 0.508 0.7566   0.050392
 H 0.7687 0.7606 0.9159   0.170094
 H 0.1296 0.6016 0.7597   0.05299
 H 0.994 0.2448 0.7485   0.142923
 H 0.3489 0.492 0.2566   0.050392
 H 0.2313 0.2394 0.4159   0.170094
 H 0.8704 0.3984 0.2597   0.052989
 H 0.006 0.7552 0.2485   0.142923
 H 0.8489 0.008 0.7566   0.050393
 H 0.7313 0.2606 0.9159   0.170099
 H 0.3704 0.1016 0.7597   0.052989
 H 0.506 0.7448 0.7485   0.142926
 H 0.1511 0.992 0.2566   0.050393
 H 0.2687 0.7394 0.4159   0.170099
 H 0.6296 0.8984 0.2597   0.052989
 H 0.494 0.2552 0.2485   0.142926
 C 0.6726 0.5628 0.7881   0.43176
 C 0.6363 0.6504 0.8898   0.222064
 C 0.7425 0.7116 0.882   -0.144608
 C 0.8074 0.6973 0.8226   0.183837
 C 0.9138 0.7715 0.8043   0.678914
 C 0.5532 0.6693 0.9506   0.626582
 C 0.1017 0.5285 0.7582   0.481996
 C 0.1261 0.3463 0.7872   0.178067
 C 0.0208 0.3181 0.7519   -0.144527
 C 0.9588 0.4052 0.7225   0.20723
 C 0.8394 0.3855 0.6845   0.656714
 C 0.2034 0.2569 0.8222   0.689455
 C 0.3223 0.3835 0.0178   0.553895
 C 0.2001 0.4355 0.9938   0.593149
 C 0.3274 0.4372 0.2881   0.43176
 C 0.3637 0.3496 0.3898   0.222063
 C 0.2575 0.2884 0.382   -0.144607
 C 0.1926 0.3027 0.3226   0.183837
 C 0.0862 0.2285 0.3043   0.678914
 C 0.4468 0.3307 0.4506   0.626592
 C 0.8983 0.4715 0.2582   0.482006
 C 0.8739 0.6537 0.2872   0.178067
 C 0.9792 0.6819 0.2519   -0.144528
 C 0.0412 0.5948 0.2225   0.207231
 C 0.1606 0.6145 0.1845   0.656714
 C 0.7966 0.7431 0.3222   0.689455
 C 0.6777 0.6165 0.5178   0.553897
 C 0.7999 0.5645 0.4938   0.593149
 C 0.8274 0.0628 0.7881   0.431739
 C 0.8637 0.1504 0.8898   0.222057
 C 0.7575 0.2116 0.882   -0.144651
 C 0.6926 0.1973 0.8226   0.183835
 C 0.5862 0.2715 0.8043   0.678904
 C 0.9468 0.1693 0.9506   0.626513
 C 0.3983 0.0285 0.7582   0.481996
 C 0.3739 0.8463 0.7872   0.178047
 C 0.4792 0.8181 0.7519   -0.144562
 C 0.5412 0.9052 0.7225   0.207227
 C 0.6606 0.8855 0.6845   0.656709
 C 0.2966 0.7569 0.8222   0.689434
 C 0.1777 0.8835 0.0178   0.553896
 C 0.2999 0.9355 0.9938   0.593121
 C 0.1726 0.9372 0.2881   0.431739
 C 0.1363 0.8496 0.3898   0.222056
 C 0.2425 0.7884 0.382   -0.144651
 C 0.3074 0.8027 0.3226   0.183834
 C 0.4138 0.7285 0.3043   0.678904
 C 0.0532 0.8307 0.4506   0.626522
 C 0.6017 0.9715 0.2582   0.482005
 C 0.6261 0.1537 0.2872   0.178047
 C 0.5208 0.1819 0.2519   -0.144562
 C 0.4588 0.0948 0.2225   0.207229
 C 0.3394 0.1145 0.1845   0.656709
 C 0.7034 0.2431 0.3222   0.689434
 C 0.8223 0.1165 0.5178   0.553898
 C 0.7001 0.0645 0.4938   0.593121
 N 0.7726 0.6225 0.7749   -0.496058
 N 0.6012 0.5759 0.8429   -0.522894
 N 0.9996 0.5094 0.7231   -0.550351
 N 0.1667 0.4525 0.7912   -0.509048
 N 0.2274 0.3775 0.2749   -0.496058
 N 0.3988 0.4241 0.3429   -0.522894
 N 0.000399999999999 0.4906 0.2231   -0.550352
 N 0.8333 0.5475 0.2912   -0.509049
 N 0.7274 0.1225 0.7749   -0.496054
 N 0.8988 0.0759 0.8429   -0.522889
 N 0.5004 0.0094 0.7231   -0.550348
 N 0.3333 0.9525 0.7912   -0.509043
 N 0.2726 0.8775 0.2749   -0.496054
 N 0.1012 0.9241 0.3429   -0.522889
 N 0.4996 0.9906 0.2231   -0.550349
 N 0.6667 0.0475 0.2912   -0.509044
 O 0.9553 0.7627 0.7444   -0.73835
 O 0.9491 0.8385 0.8498   -0.630944
 O 0.4583 0.6086 0.9529   -0.6878
 O 0.5842 0.7399 0.9918   -0.57277
 O 0.7914 0.4656 0.6532   -0.655588
 O 0.7946 0.2889 0.6909   -0.67135
 O 0.2995 0.2866 0.8503   -0.625335
 O 0.1658 0.1588 0.8179   -0.727712
 O 0.4078 0.3811 0.9747   -0.579613
 O 0.326 0.3478 0.0781   -0.62537
 O 0.204 0.4893 0.9384   -0.618397
 O 0.1106 0.4214 0.0317   -0.648053
 O 0.0447 0.2373 0.2444   -0.73835
 O 0.0509 0.1615 0.3498   -0.630944
 O 0.5417 0.3914 0.4529   -0.687801
 O 0.4158 0.2601 0.4918   -0.57277
 O 0.2086 0.5344 0.1532   -0.655589
 O 0.2054 0.7111 0.1909   -0.67135
 O 0.7005 0.7134 0.3503   -0.625335
 O 0.8342 0.8412 0.3179   -0.727712
 O 0.5922 0.6189 0.4747   -0.579614
 O 0.674 0.6522 0.5781   -0.625371
 O 0.796 0.5107 0.4384   -0.618396
 O 0.8894 0.5786 0.5317   -0.648053
 O 0.5447 0.2627 0.7444   -0.738347
 O 0.5509 0.3385 0.8498   -0.630944
 O 0.0417 0.1086 0.9529   -0.687793
 O 0.9158 0.2399 0.9918   -0.572841
 O 0.7086 0.9656 0.6532   -0.655585
 O 0.7054 0.7889 0.6909   -0.671357
 O 0.2005 0.7866 0.8503   -0.625325
 O 0.3342 0.6588 0.8179   -0.727713
 O 0.0922 0.8811 0.9747   -0.579618
 O 0.174 0.8478 0.0781   -0.625375
 O 0.296 0.9893 0.9384   -0.618392
 O 0.3894 0.9214 0.0317   -0.648128
 O 0.4553 0.7373 0.2444   -0.738347
 O 0.4491 0.6615 0.3498   -0.630944
 O 0.9583 0.8914 0.4529   -0.687794
 O 0.0842 0.7601 0.4918   -0.572842
 O 0.2914 0.0344 0.1532   -0.655586
 O 0.2946 0.2111 0.1909   -0.671357
 O 0.7995 0.2134 0.3503   -0.625325
 O 0.6658 0.3412 0.3179   -0.727713
 O 0.9078 0.1189 0.4747   -0.579618
 O 0.826 0.1522 0.5781   -0.625376
 O 0.704 0.0107 0.4384   -0.618392
 O 0.6106 0.0786 0.5317   -0.648129
