{'_ref': 'TBD', '_srcid': 'CAKYAQ_clean', 'submitters': [{'name': 'Dalar Nazarian Jeff Camp and David Sholl', 'email': 'dalar@gatech.edu jcamp6@gatech.edu'}], '_method': 'VASP DFT with PBE;DDEC'}
data_GdH2C7(NO3)2
_symmetry_space_group_name_H-M   'P 1'
_cell_length_a   10.93400000
_cell_length_b   11.79270000
_cell_length_c   19.21520000
_cell_angle_alpha   90.00000000
_cell_angle_beta   90.00000000
_cell_angle_gamma   90.00000000
_symmetry_Int_Tables_number   1
_chemical_formula_structural   GdH2C7(NO3)2
_chemical_formula_sum   'Gd8 H16 C56 N16 O48'
_cell_volume   2477.63443956
_cell_formula_units_Z   8
loop_
 _symmetry_equiv_pos_site_id
 _symmetry_equiv_pos_as_xyz
  1  'x, y, z'
loop_
 _atom_site_label
 _atom_site_fract_x
 _atom_site_fract_y
 _atom_site_fract_z
 _atom_site_charge
 Gd 0.6379 0.15724 0.57416   2.133035
 Gd 0.11914 0.97056 0.78863   2.086387
 Gd 0.3621 0.84276 0.07416   2.133035
 Gd 0.88086 0.02944 0.28863   2.086387
 Gd 0.8621 0.65724 0.57416   2.133036
 Gd 0.38086 0.47056 0.78863   2.086388
 Gd 0.1379 0.34276 0.07416   2.133036
 Gd 0.61914 0.52944 0.28863   2.086388
 H 0.8542 0.0031 0.6784   0.049145
 H 0.7293 0.2507 0.8437   0.17096
 H 0.3706 0.1014 0.6887   0.055382
 H 0.5068 0.7394 0.6743   0.14564
 H 0.1458 0.9969 0.1784   0.049145
 H 0.2707 0.7493 0.3437   0.17096
 H 0.6294 0.8986 0.1887   0.055382
 H 0.4932 0.2606 0.1743   0.14564
 H 0.6458 0.5031 0.6784   0.049145
 H 0.7707 0.7507 0.8437   0.17096
 H 0.1294 0.6014 0.6887   0.055382
 H 0.9932 0.2394 0.6743   0.14564
 H 0.3542 0.4969 0.1784   0.049145
 H 0.2293 0.2493 0.3437   0.17096
 H 0.8706 0.3986 0.1887   0.055382
 H 0.0068 0.7606 0.1743   0.14564
 C 0.8315 0.057 0.7112   0.440755
 C 0.865 0.1407 0.8153   0.230721
 C 0.7571 0.2031 0.8086   -0.149919
 C 0.695 0.1902 0.7479   0.185346
 C 0.5861 0.2672 0.7304   0.677758
 C 0.9476 0.1589 0.8777   0.620276
 C 0.3984 0.0271 0.6858   0.486078
 C 0.3734 0.8417 0.7136   0.191508
 C 0.479 0.8138 0.6776   -0.14749
 C 0.5399 0.9027 0.6472   0.214733
 C 0.6604 0.8836 0.609   0.66715
 C 0.2965 0.7503 0.7491   0.693595
 C 0.2995 0.9308 0.9196   0.600753
 C 0.1774 0.8793 0.945   0.553357
 C 0.1685 0.943 0.2112   0.440755
 C 0.135 0.8593 0.3153   0.230721
 C 0.2429 0.7969 0.3086   -0.149919
 C 0.305 0.8098 0.2479   0.185346
 C 0.4139 0.7328 0.2304   0.677758
 C 0.0524 0.8411 0.3777   0.620276
 C 0.6016 0.9729 0.1858   0.486079
 C 0.6266 0.1583 0.2136   0.191508
 C 0.521 0.1862 0.1776   -0.14749
 C 0.4601 0.0973 0.1472   0.214733
 C 0.3396 0.1164 0.109   0.66715
 C 0.7035 0.2497 0.2491   0.693595
 C 0.7005 0.0692 0.4196   0.600753
 C 0.8226 0.1207 0.445   0.553357
 C 0.6685 0.557 0.7112   0.440755
 C 0.635 0.6407 0.8153   0.230721
 C 0.7429 0.7031 0.8086   -0.149919
 C 0.805 0.6902 0.7479   0.185346
 C 0.9139 0.7672 0.7304   0.677758
 C 0.5524 0.6589 0.8777   0.620275
 C 0.1016 0.5271 0.6858   0.486078
 C 0.1266 0.3417 0.7136   0.191508
 C 0.021 0.3138 0.6776   -0.14749
 C 0.9601 0.4027 0.6472   0.214733
 C 0.8396 0.3836 0.609   0.66715
 C 0.2035 0.2503 0.7491   0.693595
 C 0.2005 0.4308 0.9196   0.600753
 C 0.3226 0.3793 0.945   0.553357
 C 0.3315 0.443 0.2112   0.440755
 C 0.365 0.3593 0.3153   0.230721
 C 0.2571 0.2969 0.3086   -0.149919
 C 0.195 0.3098 0.2479   0.185346
 C 0.0861 0.2328 0.2304   0.677758
 C 0.4476 0.3411 0.3777   0.620275
 C 0.8984 0.4729 0.1858   0.486079
 C 0.8734 0.6583 0.2136   0.191508
 C 0.979 0.6862 0.1776   -0.14749
 C 0.0399 0.5973 0.1472   0.214733
 C 0.1604 0.6164 0.109   0.66715
 C 0.7965 0.7497 0.2491   0.693595
 C 0.7995 0.5692 0.4196   0.600753
 C 0.6774 0.6207 0.445   0.553357
 N 0.7302 0.1165 0.6984   -0.511374
 N 0.9029 0.0682 0.7669   -0.525209
 N 0.5008 0.0092 0.6488   -0.540412
 N 0.3331 0.9486 0.7187   -0.496849
 N 0.2698 0.8835 0.1984   -0.511374
 N 0.0971 0.9318 0.2669   -0.525209
 N 0.4992 0.9908 0.1488   -0.540412
 N 0.6669 0.0514 0.2187   -0.496849
 N 0.7698 0.6165 0.6984   -0.511374
 N 0.5971 0.5682 0.7669   -0.525209
 N 0.9992 0.5092 0.6488   -0.540412
 N 0.1669 0.4486 0.7187   -0.496849
 N 0.2302 0.3835 0.1984   -0.511374
 N 0.4029 0.4318 0.2669   -0.525209
 N 0.000799999999998 0.4908 0.1488   -0.540412
 N 0.8331 0.5514 0.2187   -0.496849
 O 0.5462 0.2595 0.6686   -0.76001
 O 0.5493 0.3327 0.7763   -0.606303
 O 0.0459 0.1015 0.8781   -0.686629
 O 0.9133 0.228 0.9207   -0.587389
 O 0.7046 0.9646 0.5746   -0.656835
 O 0.7085 0.7877 0.6167   -0.666363
 O 0.1998 0.7824 0.778   -0.632952
 O 0.3342 0.6512 0.7451   -0.718128
 O 0.3893 0.9175 0.9577   -0.661976
 O 0.2953 0.9849 0.8628   -0.628792
 O 0.1731 0.8464 0.0065   -0.628888
 O 0.0909 0.8751 0.8997   -0.597062
 O 0.4538 0.7405 0.1686   -0.76001
 O 0.4507 0.6673 0.2763   -0.606303
 O 0.9541 0.8985 0.3781   -0.686629
 O 0.0867 0.772 0.4207   -0.587389
 O 0.2954 0.0354 0.0746   -0.656835
 O 0.2915 0.2123 0.1167   -0.666363
 O 0.8002 0.2176 0.278   -0.632952
 O 0.6658 0.3488 0.2451   -0.718128
 O 0.6107 0.0825 0.4577   -0.661976
 O 0.7047 0.0151 0.3628   -0.628792
 O 0.8269 0.1536 0.5065   -0.628888
 O 0.9091 0.1249 0.3997   -0.597062
 O 0.9538 0.7595 0.6686   -0.76001
 O 0.9507 0.8327 0.7763   -0.606303
 O 0.4541 0.6015 0.8781   -0.686629
 O 0.5867 0.728 0.9207   -0.587389
 O 0.7954 0.4646 0.5746   -0.656835
 O 0.7915 0.2877 0.6167   -0.666363
 O 0.3002 0.2824 0.778   -0.632952
 O 0.1658 0.1512 0.7451   -0.718128
 O 0.1107 0.4175 0.9577   -0.661976
 O 0.2047 0.4849 0.8628   -0.628792
 O 0.3269 0.3464 0.0065   -0.628887
 O 0.4091 0.3751 0.8997   -0.597062
 O 0.0462 0.2405 0.1686   -0.76001
 O 0.0493 0.1673 0.2763   -0.606303
 O 0.5459 0.3985 0.3781   -0.686629
 O 0.4133 0.272 0.4207   -0.587389
 O 0.2046 0.5354 0.0746   -0.656835
 O 0.2085 0.7123 0.1167   -0.666363
 O 0.6998 0.7176 0.278   -0.632952
 O 0.8342 0.8488 0.2451   -0.718128
 O 0.8893 0.5825 0.4577   -0.661976
 O 0.7953 0.5151 0.3628   -0.628792
 O 0.6731 0.6536 0.5065   -0.628887
 O 0.5909 0.6249 0.3997   -0.597062
