{'_ref': 'TBD', '_srcid': 'CAKYAQ_clean', 'submitters': [{'name': 'Dalar Nazarian Jeff Camp and David Sholl', 'email': 'dalar@gatech.edu jcamp6@gatech.edu'}], '_method': 'VASP DFT with PBE;DDEC'}
data_SmH2C7(NO3)2
_symmetry_space_group_name_H-M   'P 1'
_cell_length_a   10.96200000
_cell_length_b   11.86800000
_cell_length_c   19.30700000
_cell_angle_alpha   90.00000000
_cell_angle_beta   90.00000000
_cell_angle_gamma   90.00000000
_symmetry_Int_Tables_number   1
_chemical_formula_structural   SmH2C7(NO3)2
_chemical_formula_sum   'Sm8 H16 C56 N16 O48'
_cell_volume   2511.78308791
_cell_formula_units_Z   8
loop_
 _symmetry_equiv_pos_site_id
 _symmetry_equiv_pos_as_xyz
  1  'x, y, z'
loop_
 _atom_site_label
 _atom_site_fract_x
 _atom_site_fract_y
 _atom_site_fract_z
 _atom_site_charge
 Sm 0.36276 0.65766 0.60119   2.220694
 Sm 0.8812 0.47292 0.81564   2.18033
 Sm 0.63724 0.34234 0.10119   2.220694
 Sm 0.1188 0.52708 0.31564   2.18033
 Sm 0.13724 0.15766 0.60119   2.220694
 Sm 0.6188 0.97292 0.81564   2.180331
 Sm 0.86276 0.84234 0.10119   2.220694
 Sm 0.3812 0.02708 0.31564   2.180331
 H 0.148 0.5047 0.7071   0.045635
 H 0.2709 0.7526 0.8698   0.16864
 H 0.6277 0.6016 0.7151   0.055651
 H 0.4951 0.242 0.7015   0.143553
 H 0.852 0.4953 0.2071   0.045635
 H 0.7291 0.2474 0.3698   0.16864
 H 0.3723 0.3984 0.2151   0.055651
 H 0.5049 0.758 0.2015   0.143553
 H 0.352 0.0047 0.7071   0.045635
 H 0.2291 0.2526 0.8698   0.16864
 H 0.8723 0.1016 0.7151   0.055651
 H 0.0049 0.742 0.7015   0.143553
 H 0.648 0.9953 0.2071   0.045635
 H 0.7709 0.7474 0.3698   0.16864
 H 0.1277 0.8984 0.2151   0.055651
 H 0.9951 0.258 0.2015   0.143553
 C 0.1698 0.5592 0.7394   0.448864
 C 0.1356 0.6441 0.8425   0.229883
 C 0.2431 0.7049 0.835   -0.148182
 C 0.3064 0.692 0.7748   0.193892
 C 0.413 0.7687 0.7565   0.685072
 C 0.0517 0.6628 0.9043   0.626724
 C 0.6007 0.5275 0.7123   0.495261
 C 0.6265 0.3429 0.74   0.194781
 C 0.5221 0.3161 0.7047   -0.144666
 C 0.4587 0.4028 0.6742   0.220013
 C 0.339 0.3835 0.6361   0.676395
 C 0.7036 0.2531 0.7754   0.699984
 C 0.8221 0.3802 0.971   0.564058
 C 0.7005 0.4325 0.9469   0.598311
 C 0.8302 0.4408 0.2394   0.448864
 C 0.8644 0.3559 0.3425   0.229883
 C 0.7569 0.2951 0.335   -0.148182
 C 0.6936 0.308 0.2748   0.193892
 C 0.587 0.2313 0.2565   0.685072
 C 0.9483 0.3372 0.4043   0.626724
 C 0.3993 0.4725 0.2123   0.495261
 C 0.3735 0.6571 0.24   0.194781
 C 0.4779 0.6839 0.2047   -0.144666
 C 0.5413 0.5972 0.1742   0.220013
 C 0.661 0.6165 0.1361   0.676395
 C 0.2964 0.7469 0.2754   0.699984
 C 0.1779 0.6198 0.471   0.564058
 C 0.2995 0.5675 0.4469   0.598311
 C 0.3302 0.0592 0.7394   0.448864
 C 0.3644 0.1441 0.8425   0.229883
 C 0.2569 0.2049 0.835   -0.148182
 C 0.1936 0.192 0.7748   0.193892
 C 0.087 0.2687 0.7565   0.685072
 C 0.4483 0.1628 0.9043   0.626723
 C 0.8993 0.0275 0.7123   0.495261
 C 0.8735 0.8429 0.74   0.194781
 C 0.9779 0.8161 0.7047   -0.144666
 C 0.0413 0.9028 0.6742   0.220013
 C 0.161 0.8835 0.6361   0.676395
 C 0.7964 0.7531 0.7754   0.699984
 C 0.6779 0.8802 0.971   0.564058
 C 0.7995 0.9325 0.9469   0.598311
 C 0.6698 0.9408 0.2394   0.448864
 C 0.6356 0.8559 0.3425   0.229883
 C 0.7431 0.7951 0.335   -0.148182
 C 0.8064 0.808 0.2748   0.193892
 C 0.913 0.7313 0.2565   0.685072
 C 0.5517 0.8372 0.4043   0.626723
 C 0.1007 0.9725 0.2123   0.495261
 C 0.1265 0.1571 0.24   0.194781
 C 0.0221 0.1839 0.2047   -0.144666
 C 0.9587 0.0972 0.1742   0.220013
 C 0.839 0.1165 0.1361   0.676395
 C 0.2036 0.2469 0.2754   0.699984
 C 0.3221 0.1198 0.471   0.564058
 C 0.2005 0.0675 0.4469   0.598311
 N 0.2704 0.6189 0.7262   -0.524982
 N 0.0984 0.5704 0.794   -0.541666
 N 0.4989 0.5091 0.6757   -0.559489
 N 0.667 0.4504 0.7452   -0.515539
 N 0.7296 0.3811 0.2262   -0.524982
 N 0.9016 0.4296 0.294   -0.541666
 N 0.5011 0.4909 0.1757   -0.559489
 N 0.333 0.5496 0.2452   -0.515539
 N 0.2296 0.1189 0.7262   -0.524982
 N 0.4016 0.0704 0.794   -0.541666
 N 0.0011 0.0091 0.6757   -0.559489
 N 0.833 0.9504 0.7452   -0.515539
 N 0.7704 0.8811 0.2262   -0.524982
 N 0.5984 0.9296 0.294   -0.541666
 N 0.9989 0.9909 0.1757   -0.559489
 N 0.167 0.0496 0.2452   -0.515539
 O 0.4545 0.7601 0.6962   -0.771563
 O 0.4498 0.8343 0.8031   -0.631916
 O 0.9558 0.6045 0.9056   -0.698385
 O 0.0845 0.7332 0.9465   -0.597376
 O 0.294 0.4656 0.6033   -0.673832
 O 0.2919 0.2885 0.6436   -0.674222
 O 0.7998 0.2839 0.8043   -0.639824
 O 0.666 0.1539 0.772   -0.744513
 O 0.8253 0.3465 0.0323   -0.656407
 O 0.9086 0.3768 0.9271   -0.602595
 O 0.6095 0.4186 0.9846   -0.679335
 O 0.7042 0.4868 0.8901   -0.643251
 O 0.5455 0.2399 0.1962   -0.771563
 O 0.5502 0.1657 0.3031   -0.631916
 O 0.0442 0.3955 0.4056   -0.698385
 O 0.9155 0.2668 0.4465   -0.597376
 O 0.706 0.5344 0.1033   -0.673832
 O 0.7081 0.7115 0.1436   -0.674222
 O 0.2002 0.7161 0.3043   -0.639824
 O 0.334 0.8461 0.272   -0.744513
 O 0.1747 0.6535 0.5323   -0.656407
 O 0.0914 0.6232 0.4271   -0.602595
 O 0.3905 0.5814 0.4846   -0.679335
 O 0.2958 0.5132 0.3901   -0.643251
 O 0.0455 0.2601 0.6962   -0.771563
 O 0.0502 0.3343 0.8031   -0.631916
 O 0.5442 0.1045 0.9056   -0.698385
 O 0.4155 0.2332 0.9465   -0.597376
 O 0.206 0.9656 0.6033   -0.673832
 O 0.2081 0.7885 0.6436   -0.674222
 O 0.7002 0.7839 0.8043   -0.639824
 O 0.834 0.6539 0.772   -0.744513
 O 0.6747 0.8465 0.0323   -0.656407
 O 0.5914 0.8768 0.9271   -0.602595
 O 0.8905 0.9186 0.9846   -0.679335
 O 0.7958 0.9868 0.8901   -0.643251
 O 0.9545 0.7399 0.1962   -0.771563
 O 0.9498 0.6657 0.3031   -0.631916
 O 0.4558 0.8955 0.4056   -0.698385
 O 0.5845 0.7668 0.4465   -0.597376
 O 0.794 0.0344 0.1033   -0.673832
 O 0.7919 0.2115 0.1436   -0.674222
 O 0.2998 0.2161 0.3043   -0.639824
 O 0.166 0.3461 0.272   -0.744513
 O 0.3253 0.1535 0.5323   -0.656407
 O 0.4086 0.1232 0.4271   -0.602595
 O 0.1095 0.0814 0.4846   -0.679335
 O 0.2042 0.0132 0.3901   -0.643251
