{'_ref': 'TBD', '_srcid': 'CAKYAQ_clean', 'submitters': [{'name': 'Dalar Nazarian Jeff Camp and David Sholl', 'email': 'dalar@gatech.edu jcamp6@gatech.edu'}], '_method': 'VASP DFT with PBE;DDEC'}
data_Zn2H7C12O7
_symmetry_space_group_name_H-M   'P 1'
_cell_length_a   14.49880000
_cell_length_b   17.16590000
_cell_length_c   18.15360000
_cell_angle_alpha   90.00000000
_cell_angle_beta   90.00000000
_cell_angle_gamma   90.00000000
_symmetry_Int_Tables_number   1
_chemical_formula_structural   Zn2H7C12O7
_chemical_formula_sum   'Zn16 H56 C96 O56'
_cell_volume   4518.15784502
_cell_formula_units_Z   8
loop_
 _symmetry_equiv_pos_site_id
 _symmetry_equiv_pos_as_xyz
  1  'x, y, z'
loop_
 _atom_site_label
 _atom_site_fract_x
 _atom_site_fract_y
 _atom_site_fract_z
 _atom_site_charge
 Zn 0.44449 0.93948 0.45177   1.220275
 Zn 0.65292 0.94705 0.39764   1.039776
 Zn 0.55551 0.43948 0.04823   1.220275
 Zn 0.34708 0.44705 0.10236   1.039776
 Zn 0.55551 0.06052 0.54823   1.220275
 Zn 0.34708 0.05295 0.60236   1.039776
 Zn 0.44449 0.56052 0.95177   1.220275
 Zn 0.65292 0.55295 0.89764   1.039776
 Zn 0.05551 0.06052 0.95177   1.220275
 Zn 0.84708 0.05295 0.89764   1.039776
 Zn 0.94449 0.56052 0.54823   1.220275
 Zn 0.15292 0.55295 0.60236   1.039776
 Zn 0.94449 0.93948 0.04823   1.220275
 Zn 0.15292 0.94705 0.10236   1.039776
 Zn 0.05551 0.43948 0.45177   1.220275
 Zn 0.84708 0.44705 0.39764   1.039776
 H 0.6097 0.9276 0.5211   0.477333
 H 0.3691 0.1208 0.302   0.106284
 H 0.3388 0.2318 0.2334   0.113879
 H 0.596 0.2252 0.1531   0.110861
 H 0.6265 0.1158 0.2227   0.110513
 H 0.9358 0.8911 0.5537   0.08341
 H 0.9216 0.0651 0.4075   0.095982
 H 0.3903 0.4276 0.9789   0.477333
 H 0.6309 0.6208 0.198   0.106284
 H 0.6612 0.7318 0.2666   0.113879
 H 0.404 0.7252 0.3469   0.110861
 H 0.3735 0.6158 0.2773   0.110513
 H 0.0642 0.3911 0.9463   0.08341
 H 0.0784 0.5651 0.0925   0.095982
 H 0.3903 0.0724 0.4789   0.477333
 H 0.6309 0.8792 0.698   0.106284
 H 0.6612 0.7682 0.7666   0.113879
 H 0.404 0.7748 0.8469   0.110861
 H 0.3735 0.8842 0.7773   0.110513
 H 0.0642 0.1089 0.4463   0.08341
 H 0.0784 0.9349 0.5925   0.095982
 H 0.6097 0.5724 0.0211   0.477333
 H 0.3691 0.3792 0.802   0.106284
 H 0.3388 0.2682 0.7334   0.113879
 H 0.596 0.2748 0.6531   0.110861
 H 0.6265 0.3842 0.7227   0.110513
 H 0.9358 0.6089 0.0537   0.08341
 H 0.9216 0.4349 0.9075   0.095982
 H 0.8903 0.0724 0.0211   0.477333
 H 0.1309 0.8792 0.802   0.106285
 H 0.1612 0.7682 0.7334   0.113879
 H 0.904 0.7748 0.6531   0.110861
 H 0.8735 0.8842 0.7227   0.110514
 H 0.5642 0.1089 0.0537   0.08341
 H 0.5784 0.9349 0.9075   0.095982
 H 0.1097 0.5724 0.4789   0.477333
 H 0.8691 0.3792 0.698   0.106285
 H 0.8388 0.2682 0.7666   0.113879
 H 0.096 0.2748 0.8469   0.110861
 H 0.1265 0.3842 0.7773   0.110514
 H 0.4358 0.6089 0.4463   0.08341
 H 0.4216 0.4349 0.5925   0.095982
 H 0.1097 0.9276 0.9789   0.477333
 H 0.8691 0.1208 0.198   0.106285
 H 0.8388 0.2318 0.2666   0.113879
 H 0.096 0.2252 0.3469   0.110861
 H 0.1265 0.1158 0.2773   0.110514
 H 0.4358 0.8911 0.9463   0.08341
 H 0.4216 0.0651 0.0925   0.095982
 H 0.8903 0.4276 0.5211   0.477333
 H 0.1309 0.6208 0.302   0.106285
 H 0.1612 0.7318 0.2334   0.113879
 H 0.904 0.7252 0.1531   0.110861
 H 0.8735 0.6158 0.2227   0.110514
 H 0.5642 0.3911 0.5537   0.08341
 H 0.5784 0.5651 0.4075   0.095982
 C 0.5228 0.0409 0.3207   0.714984
 C 0.5007 0.1076 0.2704   -0.135565
 C 0.4152 0.1421 0.2726   -0.050725
 C 0.3968 0.2086 0.2314   -0.050725
 C 0.4654 0.2402 0.1873   -0.124387
 C 0.5506 0.2048 0.1837   -0.048153
 C 0.5686 0.1391 0.2251   -0.042527
 C 0.4493 0.3142 0.1447   0.731831
 C 0.8197 0.9451 0.4543   0.672346
 C 0.9142 0.9735 0.4769   -0.115867
 C 0.9616 0.9351 0.532   -0.060891
 C 0.9529 0.0388 0.4447   -0.073365
 C 0.4772 0.5409 0.1793   0.714984
 C 0.4993 0.6076 0.2296   -0.135565
 C 0.5848 0.6421 0.2274   -0.050725
 C 0.6032 0.7086 0.2686   -0.050725
 C 0.5346 0.7402 0.3127   -0.124387
 C 0.4494 0.7048 0.3163   -0.048153
 C 0.4314 0.6391 0.2749   -0.042527
 C 0.5507 0.8142 0.3553   0.731831
 C 0.1803 0.4451 0.0457   0.672346
 C 0.0858 0.4735 0.0231   -0.115867
 C 0.0384 0.4351 0.968   -0.060891
 C 0.0471 0.5388 0.0553   -0.073365
 C 0.4772 0.9591 0.6793   0.714984
 C 0.4993 0.8924 0.7296   -0.135565
 C 0.5848 0.8579 0.7274   -0.050725
 C 0.6032 0.7914 0.7686   -0.050725
 C 0.5346 0.7598 0.8127   -0.124387
 C 0.4494 0.7952 0.8163   -0.048153
 C 0.4314 0.8609 0.7749   -0.042527
 C 0.5507 0.6858 0.8553   0.731831
 C 0.1803 0.0549 0.5457   0.672346
 C 0.0858 0.0265 0.5231   -0.115867
 C 0.0384 0.0649 0.468   -0.060891
 C 0.0471 0.9612 0.5553   -0.073365
 C 0.5228 0.4591 0.8207   0.714984
 C 0.5007 0.3924 0.7704   -0.135565
 C 0.4152 0.3579 0.7726   -0.050725
 C 0.3968 0.2914 0.7314   -0.050725
 C 0.4654 0.2598 0.6873   -0.124387
 C 0.5506 0.2952 0.6837   -0.048153
 C 0.5686 0.3609 0.7251   -0.042527
 C 0.4493 0.1858 0.6447   0.731831
 C 0.8197 0.5549 0.9543   0.672346
 C 0.9142 0.5265 0.9769   -0.115867
 C 0.9616 0.5649 0.032   -0.060891
 C 0.9529 0.4612 0.9447   -0.073365
 C 0.9772 0.9591 0.8207   0.714984
 C 0.9993 0.8924 0.7704   -0.135565
 C 0.0848 0.8579 0.7726   -0.050725
 C 0.1032 0.7914 0.7314   -0.050726
 C 0.0346 0.7598 0.6873   -0.124387
 C 0.9494 0.7952 0.6837   -0.048152
 C 0.9314 0.8609 0.7251   -0.042528
 C 0.0507 0.6858 0.6447   0.731831
 C 0.6803 0.0549 0.9543   0.672346
 C 0.5858 0.0265 0.9769   -0.115867
 C 0.5384 0.0649 0.032   -0.060891
 C 0.5471 0.9612 0.9447   -0.073365
 C 0.0228 0.4591 0.6793   0.714984
 C 0.000700000000002 0.3924 0.7296   -0.135565
 C 0.9152 0.3579 0.7274   -0.050725
 C 0.8968 0.2914 0.7686   -0.050726
 C 0.9654 0.2598 0.8127   -0.124387
 C 0.0506 0.2952 0.8163   -0.048152
 C 0.0686 0.3609 0.7749   -0.042528
 C 0.9493 0.1858 0.8553   0.731831
 C 0.3197 0.5549 0.5457   0.672346
 C 0.4142 0.5265 0.5231   -0.115867
 C 0.4616 0.5649 0.468   -0.060891
 C 0.4529 0.4612 0.5553   -0.073365
 C 0.0228 0.0409 0.1793   0.714984
 C 0.000700000000002 0.1076 0.2296   -0.135565
 C 0.9152 0.1421 0.2274   -0.050725
 C 0.8968 0.2086 0.2686   -0.050726
 C 0.9654 0.2402 0.3127   -0.124387
 C 0.0506 0.2048 0.3163   -0.048152
 C 0.0686 0.1391 0.2749   -0.042528
 C 0.9493 0.3142 0.3553   0.731831
 C 0.3197 0.9451 0.0457   0.672346
 C 0.4142 0.9735 0.0231   -0.115867
 C 0.4616 0.9351 0.968   -0.060891
 C 0.4529 0.0388 0.0553   -0.073365
 C 0.9772 0.5409 0.3207   0.714984
 C 0.9993 0.6076 0.2704   -0.135565
 C 0.0848 0.6421 0.2726   -0.050725
 C 0.1032 0.7086 0.2314   -0.050726
 C 0.0346 0.7402 0.1873   -0.124387
 C 0.9494 0.7048 0.1837   -0.048152
 C 0.9314 0.6391 0.2251   -0.042528
 C 0.0507 0.8142 0.1447   0.731831
 C 0.6803 0.4451 0.4543   0.672346
 C 0.5858 0.4735 0.4769   -0.115867
 C 0.5384 0.4351 0.532   -0.060891
 C 0.5471 0.5388 0.4447   -0.073365
 O 0.5807 0.9603 0.4871   -1.019933
 O 0.4591 0.0143 0.3598   -0.668138
 O 0.6044 0.0159 0.32   -0.585571
 O 0.5156 0.3425 0.1115   -0.662395
 O 0.3685 0.3431 0.1472   -0.587511
 O 0.7814 0.9806 0.4033   -0.616129
 O 0.7848 0.8893 0.4875   -0.63559
 O 0.4193 0.4603 0.0129   -1.019933
 O 0.5409 0.5143 0.1402   -0.668138
 O 0.3956 0.5159 0.18   -0.585571
 O 0.4844 0.8425 0.3885   -0.662395
 O 0.6315 0.8431 0.3528   -0.587511
 O 0.2186 0.4806 0.0967   -0.616129
 O 0.2152 0.3893 0.0125   -0.63559
 O 0.4193 0.0397 0.5129   -1.019933
 O 0.5409 0.9857 0.6402   -0.668138
 O 0.3956 0.9841 0.68   -0.585571
 O 0.4844 0.6575 0.8885   -0.662395
 O 0.6315 0.6569 0.8528   -0.587511
 O 0.2186 0.0194 0.5967   -0.616129
 O 0.2152 0.1107 0.5125   -0.63559
 O 0.5807 0.5397 0.9871   -1.019933
 O 0.4591 0.4857 0.8598   -0.668138
 O 0.6044 0.4841 0.82   -0.585571
 O 0.5156 0.1575 0.6115   -0.662395
 O 0.3685 0.1569 0.6472   -0.587511
 O 0.7814 0.5194 0.9033   -0.616129
 O 0.7848 0.6107 0.9875   -0.63559
 O 0.9193 0.0397 0.9871   -1.019933
 O 0.0409 0.9857 0.8598   -0.668138
 O 0.8956 0.9841 0.82   -0.585571
 O 0.9844 0.6575 0.6115   -0.662395
 O 0.1315 0.6569 0.6472   -0.587511
 O 0.7186 0.0194 0.9033   -0.616129
 O 0.7152 0.1107 0.9875   -0.63559
 O 0.0807 0.5397 0.5129   -1.019933
 O 0.9591 0.4857 0.6402   -0.668138
 O 0.1044 0.4841 0.68   -0.585571
 O 0.0156 0.1575 0.8885   -0.662395
 O 0.8685 0.1569 0.8528   -0.587511
 O 0.2814 0.5194 0.5967   -0.616129
 O 0.2848 0.6107 0.5125   -0.63559
 O 0.0807 0.9603 0.0129   -1.019933
 O 0.9591 0.0143 0.1402   -0.668138
 O 0.1044 0.0159 0.18   -0.585572
 O 0.0156 0.3425 0.3885   -0.662395
 O 0.8685 0.3431 0.3528   -0.587511
 O 0.2814 0.9806 0.0967   -0.616129
 O 0.2848 0.8893 0.0125   -0.63559
 O 0.9193 0.4603 0.4871   -1.019933
 O 0.0409 0.5143 0.3598   -0.668138
 O 0.8956 0.5159 0.32   -0.585572
 O 0.9844 0.8425 0.1115   -0.662395
 O 0.1315 0.8431 0.1472   -0.587511
 O 0.7186 0.4806 0.4033   -0.616129
 O 0.7152 0.3893 0.4875   -0.63559
