{'_ref': 'TBD', '_srcid': 'CAKYAQ_clean', 'submitters': [{'name': 'Dalar Nazarian Jeff Camp and David Sholl', 'email': 'dalar@gatech.edu jcamp6@gatech.edu'}], '_method': 'VASP DFT with PBE;DDEC'}
data_Cd3H50C64N4O19
_symmetry_space_group_name_H-M   'P 1'
_cell_length_a   16.48300056
_cell_length_b   18.01259993
_cell_length_c   18.01260000
_cell_angle_alpha   68.56900143
_cell_angle_beta   72.68999935
_cell_angle_gamma   72.68990081
_symmetry_Int_Tables_number   1
_chemical_formula_structural   Cd3H50C64N4O19
_chemical_formula_sum   'Cd6 H100 C128 N8 O38'
_cell_volume   4644.21227247
_cell_formula_units_Z   2
loop_
 _symmetry_equiv_pos_site_id
 _symmetry_equiv_pos_as_xyz
  1  'x, y, z'
loop_
 _atom_site_label
 _atom_site_fract_x
 _atom_site_fract_y
 _atom_site_fract_z
 _atom_site_charge
 Cd 0.45077 0.18779 0.35653   1.015505
 Cd 0.04923 0.64347 0.81221   1.015511
 Cd 0.54923 0.81221 0.64347   1.015505
 Cd 0.95077 0.35653 0.18779   1.015511
 Cd 0.5 0.0 0.5   1.246127
 Cd 0.0 0.5 0.0   1.246134
 H 0.1585 0.8821 0.1121   0.05476
 H 0.1827 0.9379 0.1487   0.057776
 H 0.081 0.8509 0.3579   0.055182
 H 0.1806 0.8339 0.3167   0.06048
 H 0.0254 0.9783 0.2115   0.05999
 H 0.0053 0.9235 0.1713   0.055723
 H 0.1457 0.7367 0.2613   0.06001
 H 0.0484 0.7609 0.3063   0.063302
 H 0.2198 0.8628 0.4026   0.121791
 H 0.3082 0.9082 0.4492   0.092861
 H 0.2369 0.1331 0.3059   0.09203
 H 0.147 0.0892 0.264   0.126405
 H 0.8936 0.0441 0.1871   0.123822
 H 0.7545 0.1233 0.1989   0.093558
 H 0.6839 0.9559 0.4061   0.084555
 H 0.8217 0.8794 0.397   0.13948
 H 0.9946 0.7592 0.095   0.124461
 H 0.9548 0.6494 0.0922   0.094888
 H 0.0342 0.5185 0.2969   0.094149
 H 0.0795 0.6308 0.2946   0.116235
 H 0.5181 0.3321 0.2021   0.109243
 H 0.3078 0.388 0.114   0.140913
 H 0.2925 0.2784 0.2428   0.12117
 H 0.5208 0.475 0.1276   0.120138
 H 0.4154 0.4286 0.9824   0.111876
 H 0.3415 0.8879 0.1179   0.054759
 H 0.3173 0.8513 0.0621   0.057774
 H 0.419 0.6421 0.1491   0.055176
 H 0.3194 0.6833 0.1661   0.060479
 H 0.4746 0.7885 0.0217   0.059985
 H 0.4947 0.8287 0.0765   0.055721
 H 0.3543 0.7387 0.2633   0.060011
 H 0.4516 0.6937 0.2391   0.063302
 H 0.2802 0.5974 0.1372   0.121794
 H 0.1918 0.5508 0.0918   0.092852
 H 0.2631 0.6941 0.8669   0.09203
 H 0.353 0.736 0.9108   0.126402
 H 0.6064 0.8129 0.9559   0.123818
 H 0.7455 0.8011 0.8767   0.093558
 H 0.8161 0.5939 0.0441   0.084555
 H 0.6783 0.603 0.1206   0.139478
 H 0.5054 0.905 0.2408   0.124463
 H 0.5452 0.9078 0.3506   0.094888
 H 0.4658 0.7031 0.4815   0.094151
 H 0.4205 0.7054 0.3692   0.116239
 H 0.9819 0.7979 0.6679   0.109244
 H 0.1922 0.886 0.612   0.140914
 H 0.2075 0.7572 0.7216   0.12117
 H 0.9792 0.8724 0.525   0.120137
 H 0.0846 0.0176 0.5714   0.111878
 H 0.8415 0.1179 0.8879   0.05476
 H 0.8173 0.0621 0.8513   0.057776
 H 0.919 0.1491 0.6421   0.055182
 H 0.8194 0.1661 0.6833   0.06048
 H 0.9746 0.0217 0.7885   0.05999
 H 0.9947 0.0765 0.8287   0.055723
 H 0.8543 0.2633 0.7387   0.06001
 H 0.9516 0.2391 0.6937   0.063302
 H 0.7802 0.1372 0.5974   0.121791
 H 0.6918 0.0918 0.5508   0.092861
 H 0.7631 0.8669 0.6941   0.09203
 H 0.853 0.9108 0.736   0.126405
 H 0.1064 0.9559 0.8129   0.123822
 H 0.2455 0.8767 0.8011   0.093558
 H 0.3161 0.0441 0.5939   0.084555
 H 0.1783 0.1206 0.603   0.13948
 H 0.0054 0.2408 0.905   0.124461
 H 0.0452 0.3506 0.9078   0.094888
 H 0.9658 0.4815 0.7031   0.09415
 H 0.9205 0.3692 0.7054   0.116236
 H 0.4819 0.6679 0.7979   0.109243
 H 0.6922 0.612 0.886   0.140913
 H 0.7075 0.7216 0.7572   0.12117
 H 0.4792 0.525 0.8724   0.120137
 H 0.5846 0.5714 0.0176   0.111875
 H 0.6585 0.1121 0.8821   0.054759
 H 0.6827 0.1487 0.9379   0.057774
 H 0.581 0.3579 0.8509   0.055176
 H 0.6806 0.3167 0.8339   0.060479
 H 0.5254 0.2115 0.9783   0.059985
 H 0.5053 0.1713 0.9235   0.055721
 H 0.6457 0.2613 0.7367   0.060011
 H 0.5484 0.3063 0.7609   0.063302
 H 0.7198 0.4026 0.8628   0.121794
 H 0.8082 0.4492 0.9082   0.092852
 H 0.7369 0.3059 0.1331   0.09203
 H 0.647 0.264 0.0892   0.126402
 H 0.3936 0.1871 0.0441   0.123819
 H 0.2545 0.1989 0.1233   0.093558
 H 0.1839 0.4061 0.9559   0.084555
 H 0.3217 0.397 0.8794   0.139478
 H 0.4946 0.095 0.7592   0.124463
 H 0.4548 0.0922 0.6494   0.094888
 H 0.5342 0.2969 0.5185   0.094152
 H 0.5795 0.2946 0.6308   0.116239
 H 0.0181 0.2021 0.3321   0.109244
 H 0.8078 0.114 0.388   0.140914
 H 0.7925 0.2428 0.2784   0.12117
 H 0.0208 0.1276 0.475   0.120137
 H 0.9154 0.9824 0.4286   0.111877
 C 0.1015 0.8639 0.2347   -0.050246
 C 0.1737 0.8837 0.1595   0.087702
 C 0.1242 0.8684 0.309   0.081051
 C 0.0188 0.9238 0.22   0.082638
 C 0.0908 0.7751 0.2557   0.079471
 C 0.1783 0.9716 0.3256   0.3059
 C 0.224 0.9173 0.3825   -0.284731
 C 0.2769 0.9445 0.4103   0.026086
 C 0.2826 0.0257 0.3795   -0.214833
 C 0.2342 0.0782 0.3256   0.022163
 C 0.1814 0.0518 0.2998   -0.258952
 C 0.3455 0.0531 0.4033   0.717523
 C 0.8716 0.9535 0.2889   0.307142
 C 0.8507 0.0262 0.2322   -0.297666
 C 0.7677 0.0744 0.2392   0.027548
 C 0.7056 0.0489 0.3067   -0.212879
 C 0.7271 0.9751 0.3621   0.037763
 C 0.8087 0.928 0.3562   -0.253169
 C 0.6174 0.1006 0.3174   0.709264
 C 0.0391 0.7066 0.1952   0.324264
 C 0.0036 0.7102 0.1364   -0.246455
 C 0.9796 0.6444 0.1344   0.026489
 C 0.9918 0.5717 0.1939   -0.196674
 C 0.0269 0.5669 0.2545   0.022484
 C 0.0528 0.6353 0.2539   -0.304092
 C 0.9697 0.4988 0.1906   0.699324
 C 0.4637 0.3327 0.1965   0.156778
 C 0.348 0.3639 0.1473   -0.136064
 C 0.3398 0.3035 0.2181   0.03712
 C 0.4628 0.4448 0.065   0.110369
 C 0.5123 0.4854 0.0756   -0.134826
 C 0.4493 0.4575 0.9895   -0.096433
 C 0.3985 0.7653 0.1361   -0.050262
 C 0.3263 0.8405 0.1163   0.087713
 C 0.3758 0.691 0.1316   0.081059
 C 0.4812 0.78 0.0762   0.082651
 C 0.4092 0.7443 0.2249   0.079474
 C 0.3217 0.6744 0.0284   0.305901
 C 0.276 0.6175 0.0827   -0.284733
 C 0.2231 0.5897 0.0555   0.026102
 C 0.2174 0.6205 0.9743   -0.214841
 C 0.2658 0.6744 0.9218   0.022161
 C 0.3186 0.7002 0.9482   -0.258952
 C 0.1545 0.5967 0.9469   0.717533
 C 0.6284 0.7111 0.0465   0.30713
 C 0.6493 0.7678 0.9738   -0.297652
 C 0.7323 0.7608 0.9256   0.027546
 C 0.7944 0.6933 0.9511   -0.212876
 C 0.7729 0.6379 0.0249   0.037759
 C 0.6913 0.6438 0.072   -0.253162
 C 0.8826 0.6826 0.8994   0.709256
 C 0.4609 0.8048 0.2934   0.32426
 C 0.4964 0.8636 0.2898   -0.246463
 C 0.5204 0.8656 0.3556   0.026489
 C 0.5082 0.8061 0.4283   -0.196662
 C 0.4731 0.7455 0.4331   0.022476
 C 0.4472 0.7461 0.3647   -0.304092
 C 0.5303 0.8094 0.5012   0.699323
 C 0.0363 0.8035 0.6673   0.156768
 C 0.152 0.8527 0.6361   -0.136092
 C 0.1602 0.7819 0.6965   0.037125
 C 0.0372 0.935 0.5552   0.110361
 C 0.9877 0.9244 0.5146   -0.134825
 C 0.0507 0.0105 0.5425   -0.096435
 C 0.8985 0.1361 0.7653   -0.050246
 C 0.8263 0.1163 0.8405   0.087702
 C 0.8758 0.1316 0.691   0.081051
 C 0.9812 0.0762 0.78   0.082638
 C 0.9092 0.2249 0.7443   0.079471
 C 0.8217 0.0284 0.6744   0.3059
 C 0.776 0.0827 0.6175   -0.284731
 C 0.7231 0.0555 0.5897   0.026086
 C 0.7174 0.9743 0.6205   -0.214833
 C 0.7658 0.9218 0.6744   0.022163
 C 0.8186 0.9482 0.7002   -0.258951
 C 0.6545 0.9469 0.5967   0.717523
 C 0.1284 0.0465 0.7111   0.307142
 C 0.1493 0.9738 0.7678   -0.297667
 C 0.2323 0.9256 0.7608   0.027548
 C 0.2944 0.9511 0.6933   -0.212879
 C 0.2729 0.0249 0.6379   0.037763
 C 0.1913 0.072 0.6438   -0.253169
 C 0.3826 0.8994 0.6826   0.709264
 C 0.9609 0.2934 0.8048   0.324264
 C 0.9964 0.2898 0.8636   -0.246455
 C 0.0204 0.3556 0.8656   0.026489
 C 0.0082 0.4283 0.8061   -0.196674
 C 0.9731 0.4331 0.7455   0.022484
 C 0.9472 0.3647 0.7461   -0.304092
 C 0.0303 0.5012 0.8094   0.699324
 C 0.5363 0.6673 0.8035   0.156778
 C 0.652 0.6361 0.8527   -0.136064
 C 0.6602 0.6965 0.7819   0.03712
 C 0.5372 0.5552 0.935   0.110368
 C 0.4877 0.5146 0.9244   -0.134821
 C 0.5507 0.5425 0.0105   -0.096428
 C 0.6015 0.2347 0.8639   -0.050262
 C 0.6737 0.1595 0.8837   0.087713
 C 0.6242 0.309 0.8684   0.081059
 C 0.5188 0.22 0.9238   0.082651
 C 0.5908 0.2557 0.7751   0.079474
 C 0.6783 0.3256 0.9716   0.305901
 C 0.724 0.3825 0.9173   -0.284734
 C 0.7769 0.4103 0.9445   0.026102
 C 0.7826 0.3795 0.0257   -0.214841
 C 0.7342 0.3256 0.0782   0.022161
 C 0.6814 0.2998 0.0518   -0.258951
 C 0.8455 0.4033 0.0531   0.717532
 C 0.3716 0.2889 0.9535   0.30713
 C 0.3507 0.2322 0.0262   -0.297652
 C 0.2677 0.2392 0.0744   0.027546
 C 0.2056 0.3067 0.0489   -0.212876
 C 0.2271 0.3621 0.9751   0.037759
 C 0.3087 0.3562 0.928   -0.253162
 C 0.1174 0.3174 0.1006   0.709256
 C 0.5391 0.1952 0.7066   0.32426
 C 0.5036 0.1364 0.7102   -0.246463
 C 0.4796 0.1344 0.6444   0.02649
 C 0.4918 0.1939 0.5717   -0.196662
 C 0.5269 0.2545 0.5669   0.022476
 C 0.5528 0.2539 0.6353   -0.304092
 C 0.4697 0.1906 0.4988   0.699323
 C 0.9637 0.1965 0.3327   0.156768
 C 0.848 0.1473 0.3639   -0.136092
 C 0.8398 0.2181 0.3035   0.037125
 C 0.9628 0.065 0.4448   0.110359
 C 0.0123 0.0756 0.4854   -0.13482
 C 0.9493 0.9895 0.4575   -0.09643
 N 0.4135 0.2853 0.2477   -0.385469
 N 0.4264 0.3837 0.1331   0.032218
 N 0.0865 0.7523 0.7147   -0.385475
 N 0.0736 0.8669 0.6163   0.03226
 N 0.5865 0.7147 0.7523   -0.385469
 N 0.5736 0.6163 0.8669   0.032218
 N 0.9135 0.2477 0.2853   -0.385475
 N 0.9264 0.1331 0.3837   0.03226
 O 0.1255 0.952 0.2926   -0.288449
 O 0.9515 0.9038 0.2866   -0.272514
 O 0.0616 0.7741 0.1889   -0.27445
 O 0.3504 0.127 0.3694   -0.637571
 O 0.3881 0.002 0.4542   -0.63217
 O 0.6035 0.1727 0.2739   -0.610083
 O 0.5564 0.0691 0.3697   -0.678342
 O 0.9387 0.5069 0.1309   -0.675942
 O 0.9823 0.4337 0.2457   -0.596786
 O 0.3745 0.7074 0.048   -0.288448
 O 0.5485 0.7134 0.0962   -0.272516
 O 0.4384 0.8111 0.2259   -0.274447
 O 0.1496 0.6306 0.873   -0.637574
 O 0.1119 0.5458 0.998   -0.632174
 O 0.8965 0.7261 0.8273   -0.610079
 O 0.9436 0.6303 0.9309   -0.678345
 O 0.5613 0.8691 0.4931   -0.675941
 O 0.5177 0.7543 0.5663   -0.596786
 O 0.8745 0.048 0.7074   -0.288449
 O 0.0485 0.0962 0.7134   -0.272514
 O 0.9384 0.2259 0.8111   -0.27445
 O 0.6496 0.873 0.6306   -0.637571
 O 0.6119 0.998 0.5458   -0.63217
 O 0.3965 0.8273 0.7261   -0.610083
 O 0.4436 0.9309 0.6303   -0.678342
 O 0.0613 0.4931 0.8691   -0.675942
 O 0.0177 0.5663 0.7543   -0.596786
 O 0.6255 0.2926 0.952   -0.288448
 O 0.4515 0.2866 0.9038   -0.272516
 O 0.5616 0.1889 0.7741   -0.274448
 O 0.8504 0.3694 0.127   -0.637574
 O 0.8881 0.4542 0.002   -0.632174
 O 0.1035 0.2739 0.1727   -0.610079
 O 0.0564 0.3697 0.0691   -0.678345
 O 0.4387 0.1309 0.5069   -0.675941
 O 0.4823 0.2457 0.4337   -0.596786
 O 0.25 0.8243 0.1757   -0.335748
 O 0.75 0.1757 0.8243   -0.335748
