{'_ref': 'TBD', '_srcid': 'CAKYAQ_clean', 'submitters': [{'name': 'Dalar Nazarian Jeff Camp and David Sholl', 'email': 'dalar@gatech.edu jcamp6@gatech.edu'}], '_method': 'VASP DFT with PBE;DDEC'}
data_CoH12C16(NO2)2
_symmetry_space_group_name_H-M   'P 1'
_cell_length_a   8.20099985
_cell_length_b   10.49200000
_cell_length_c   11.12500000
_cell_angle_alpha   90.00000000
_cell_angle_beta   95.28000226
_cell_angle_gamma   90.00000000
_symmetry_Int_Tables_number   1
_chemical_formula_structural   CoH12C16(NO2)2
_chemical_formula_sum   'Co2 H24 C32 N4 O8'
_cell_volume   953.187679147
_cell_formula_units_Z   2
loop_
 _symmetry_equiv_pos_site_id
 _symmetry_equiv_pos_as_xyz
  1  'x, y, z'
loop_
 _atom_site_label
 _atom_site_fract_x
 _atom_site_fract_y
 _atom_site_fract_z
 _atom_site_charge
 Co 0.0 0.5 0.0   0.698715
 Co 0.5 0.0 0.5   0.698715
 H 0.7016 0.4001 0.9004   0.086367
 H 0.458 0.4655 0.8123   0.126775
 H 0.637 0.8241 0.799   0.141502
 H 0.8749 0.7489 0.8891   0.080772
 H 0.268 0.8221 0.6315   0.024408
 H 0.1191 0.6913 0.7606   0.020513
 H 0.7984 0.9001 0.5996   0.086366
 H 0.042 0.9655 0.6877   0.12677
 H 0.863 0.3241 0.701   0.141504
 H 0.6251 0.2489 0.6109   0.080771
 H 0.232 0.3221 0.8685   0.024405
 H 0.3809 0.1913 0.7394   0.020513
 H 0.2984 0.5999 0.0996   0.086367
 H 0.542 0.5345 0.1877   0.126775
 H 0.363 0.1759 0.201   0.141502
 H 0.1251 0.2511 0.1109   0.080772
 H 0.732 0.1779 0.3685   0.024407
 H 0.8809 0.3087 0.2394   0.020513
 H 0.2016 0.0999 0.4004   0.086366
 H 0.958 0.0345 0.3123   0.12677
 H 0.137 0.6759 0.299   0.141504
 H 0.3749 0.7511 0.3891   0.080771
 H 0.768 0.6779 0.1315   0.024404
 H 0.6191 0.8087 0.2606   0.020513
 C 0.6853 0.4873 0.8798   0.162432
 C 0.5446 0.5248 0.8289   -0.230222
 C 0.6486 0.7368 0.8207   -0.219608
 C 0.7854 0.6922 0.8723   0.138606
 C 0.5221 0.6525 0.7989   0.240648
 C 0.3709 0.6969 0.7507   -0.38084
 C 0.3723 0.7883 0.6588   0.314498
 C 0.2156 0.6539 0.7991   0.362634
 C 0.8147 0.9873 0.6202   0.162432
 C 0.9554 0.0248 0.6711   -0.23022
 C 0.8514 0.2368 0.6793   -0.219609
 C 0.7146 0.1922 0.6277   0.138607
 C 0.9779 0.1525 0.7011   0.240648
 C 0.1291 0.1969 0.7493   -0.380839
 C 0.1277 0.2883 0.8412   0.314499
 C 0.2844 0.1539 0.7009   0.362636
 C 0.3147 0.5127 0.1202   0.162432
 C 0.4554 0.4752 0.1711   -0.230222
 C 0.3514 0.2632 0.1793   -0.219607
 C 0.2146 0.3078 0.1277   0.138606
 C 0.4779 0.3475 0.2011   0.240648
 C 0.6291 0.3031 0.2493   -0.38084
 C 0.6277 0.2117 0.3412   0.314499
 C 0.7844 0.3461 0.2009   0.362635
 C 0.1853 0.0127 0.3798   0.162432
 C 0.0446 0.9752 0.3289   -0.230221
 C 0.1486 0.7632 0.3207   -0.219607
 C 0.2854 0.8078 0.3723   0.138606
 C 0.0221 0.8475 0.2989   0.240648
 C 0.8709 0.8031 0.2507   -0.380839
 C 0.8723 0.7117 0.1588   0.3145
 C 0.7156 0.8461 0.2991   0.362638
 N 0.8049 0.5692 0.90272   -0.285612
 N 0.6951 0.0692 0.59728   -0.285613
 N 0.1951 0.4308 0.09728   -0.285612
 N 0.3049 0.9308 0.40272   -0.285612
 O 0.4989 0.83585 0.60306   -0.478945
 O 0.1907 0.5757 0.88302   -0.453285
 O 0.0011 0.33585 0.89694   -0.478945
 O 0.3093 0.0757 0.61698   -0.453285
 O 0.5011 0.16415 0.39694   -0.478945
 O 0.8093 0.4243 0.11698   -0.453285
 O 0.9989 0.66415 0.10306   -0.478945
 O 0.6907 0.9243 0.38302   -0.453285
