{'_ref': 'TBD', '_srcid': 'CAKYAQ_clean', 'submitters': [{'name': 'Dalar Nazarian Jeff Camp and David Sholl', 'email': 'dalar@gatech.edu jcamp6@gatech.edu'}], '_method': 'VASP DFT with PBE;DDEC'}
data_Mn2V16H32C40N8ClO38
_symmetry_space_group_name_H-M   'P 1'
_cell_length_a   14.91600000
_cell_length_b   17.26600000
_cell_length_c   17.26600000
_cell_angle_alpha   90.00000000
_cell_angle_beta   90.00000000
_cell_angle_gamma   90.00000000
_symmetry_Int_Tables_number   1
_chemical_formula_structural   Mn2V16H32C40N8ClO38
_chemical_formula_sum   'Mn4 V32 H64 C80 N16 Cl2 O76'
_cell_volume   4446.6797005
_cell_formula_units_Z   2
loop_
 _symmetry_equiv_pos_site_id
 _symmetry_equiv_pos_as_xyz
  1  'x, y, z'
loop_
 _atom_site_label
 _atom_site_fract_x
 _atom_site_fract_y
 _atom_site_fract_z
 _atom_site_charge
 Mn 0.25 0.25725 0.24275   1.040775
 Mn 0.25 0.74275 0.75725   1.040775
 Mn 0.75 0.24275 0.74275   1.040775
 Mn 0.75 0.75725 0.25725   1.040775
 V 0.12577 0.12162 0.10937   2.235156
 V 0.22768 0.06229 0.9303   2.146826
 V 0.08636 0.18089 0.94895   2.187928
 V 0.91494 0.18608 0.03002   2.194079
 V 0.12577 0.87838 0.89063   2.235156
 V 0.22768 0.93771 0.0697   2.146826
 V 0.08636 0.81911 0.05105   2.187928
 V 0.91494 0.81392 0.96998   2.194079
 V 0.87423 0.10937 0.87838   2.235156
 V 0.77232 0.9303 0.93771   2.146826
 V 0.91364 0.94895 0.81911   2.187928
 V 0.08506 0.03002 0.81392   2.19408
 V 0.87423 0.89063 0.12162   2.235156
 V 0.77232 0.0697 0.06229   2.146827
 V 0.91364 0.05105 0.18089   2.187928
 V 0.08506 0.96998 0.18608   2.19408
 V 0.62577 0.62162 0.39063   2.235156
 V 0.72768 0.56229 0.5697   2.146826
 V 0.58636 0.68089 0.55105   2.187928
 V 0.41494 0.68608 0.46998   2.194079
 V 0.62577 0.37838 0.60937   2.235156
 V 0.72768 0.43771 0.4303   2.146826
 V 0.58636 0.31911 0.44895   2.187928
 V 0.41494 0.31392 0.53002   2.194079
 V 0.37423 0.60937 0.62162   2.235156
 V 0.27232 0.4303 0.56229   2.146826
 V 0.41364 0.44895 0.68089   2.187929
 V 0.58506 0.53002 0.68608   2.19408
 V 0.37423 0.39063 0.37838   2.235156
 V 0.27232 0.5697 0.43771   2.146827
 V 0.41364 0.55105 0.31911   2.187929
 V 0.58506 0.46998 0.31392   2.19408
 H 0.2383 0.2529 0.4223   0.075005
 H 0.1405 0.2445 0.5239   0.140484
 H 0.0573 0.1845 0.2769   0.085034
 H 0.9549 0.1691 0.3751   0.139061
 H 0.7606 0.2406 0.5629   0.081223
 H 0.8586 0.2365 0.4612   0.145731
 H 0.9449 0.1699 0.707   0.089547
 H 0.0505 0.1704 0.612   0.144909
 H 0.2383 0.7471 0.5777   0.075005
 H 0.1405 0.7555 0.4761   0.140484
 H 0.0573 0.8155 0.7231   0.085034
 H 0.9549 0.8309 0.6249   0.139061
 H 0.7606 0.7594 0.4371   0.081223
 H 0.8586 0.7635 0.5388   0.145732
 H 0.9449 0.8301 0.293   0.089547
 H 0.0505 0.8296 0.388   0.144909
 H 0.7617 0.4223 0.7471   0.075005
 H 0.8595 0.5239 0.7555   0.140484
 H 0.9427 0.2769 0.8155   0.085034
 H 0.0451 0.3751 0.8309   0.139061
 H 0.2394 0.5629 0.7594   0.081223
 H 0.1414 0.4612 0.7635   0.145731
 H 0.0551 0.707 0.8301   0.089547
 H 0.9495 0.612 0.8296   0.144909
 H 0.7617 0.5777 0.2529   0.075005
 H 0.8595 0.4761 0.2445   0.140484
 H 0.9427 0.7231 0.1845   0.085034
 H 0.0451 0.6249 0.1691   0.139061
 H 0.2394 0.4371 0.2406   0.081223
 H 0.1414 0.5388 0.2365   0.145732
 H 0.0551 0.293 0.1699   0.089547
 H 0.9495 0.388 0.1704   0.144909
 H 0.7383 0.7529 0.0777   0.075005
 H 0.6405 0.7445 0.9761   0.140484
 H 0.5573 0.6845 0.2231   0.085034
 H 0.4549 0.6691 0.1249   0.139061
 H 0.2606 0.7406 0.9371   0.081223
 H 0.3586 0.7365 0.0388   0.145731
 H 0.4449 0.6699 0.793   0.089547
 H 0.5505 0.6704 0.888   0.144909
 H 0.7383 0.2471 0.9223   0.075005
 H 0.6405 0.2555 0.0239   0.140484
 H 0.5573 0.3155 0.7769   0.085034
 H 0.4549 0.3309 0.8751   0.139061
 H 0.2606 0.2594 0.0629   0.081223
 H 0.3586 0.2635 0.9612   0.145731
 H 0.4449 0.3301 0.207   0.089547
 H 0.5505 0.3296 0.112   0.144909
 H 0.2617 0.9223 0.7529   0.075005
 H 0.3595 0.0239 0.7445   0.140484
 H 0.4427 0.7769 0.6845   0.085034
 H 0.5451 0.8751 0.6691   0.139061
 H 0.7394 0.0629 0.7406   0.081223
 H 0.6414 0.9612 0.7365   0.145731
 H 0.5551 0.207 0.6699   0.089547
 H 0.4495 0.112 0.6704   0.144909
 H 0.2617 0.0777 0.2471   0.075005
 H 0.3595 0.9761 0.2555   0.140484
 H 0.4427 0.2231 0.3155   0.085034
 H 0.5451 0.1249 0.3309   0.139061
 H 0.7394 0.9371 0.2594   0.081223
 H 0.6414 0.0388 0.2635   0.145731
 H 0.5551 0.793 0.3301   0.089547
 H 0.4495 0.888 0.3296   0.144909
 C 0.1797 0.2375 0.4125   0.199827
 C 0.1216 0.2319 0.4741   -0.176282
 C 0.0739 0.1968 0.3273   0.177269
 C 0.012 0.188 0.386   -0.178898
 C 0.8198 0.2264 0.5723   0.192897
 C 0.8781 0.2246 0.5109   -0.180835
 C 0.9286 0.1857 0.6575   0.179852
 C 0.9918 0.1845 0.6004   -0.187108
 C 0.9682 0.2043 0.5246   0.104135
 C 0.035 0.2073 0.4613   0.102202
 C 0.1797 0.7625 0.5875   0.199827
 C 0.1216 0.7681 0.5259   -0.176282
 C 0.0739 0.8032 0.6727   0.177269
 C 0.012 0.812 0.614   -0.178898
 C 0.8198 0.7736 0.4277   0.192897
 C 0.8781 0.7754 0.4891   -0.180835
 C 0.9286 0.8143 0.3425   0.179852
 C 0.9918 0.8155 0.3996   -0.187108
 C 0.9682 0.7957 0.4754   0.104135
 C 0.035 0.7927 0.5387   0.102202
 C 0.8203 0.4125 0.7625   0.199828
 C 0.8784 0.4741 0.7681   -0.176282
 C 0.9261 0.3273 0.8032   0.17727
 C 0.988 0.386 0.812   -0.178898
 C 0.1802 0.5723 0.7736   0.192897
 C 0.1219 0.5109 0.7754   -0.180835
 C 0.0714 0.6575 0.8143   0.179852
 C 0.0082 0.6004 0.8155   -0.187108
 C 0.0318 0.5246 0.7957   0.104135
 C 0.965 0.4613 0.7927   0.102202
 C 0.8203 0.5875 0.2375   0.199828
 C 0.8784 0.5259 0.2319   -0.176282
 C 0.9261 0.6727 0.1968   0.17727
 C 0.988 0.614 0.188   -0.178898
 C 0.1802 0.4277 0.2264   0.192897
 C 0.1219 0.4891 0.2246   -0.180835
 C 0.0714 0.3425 0.1857   0.179852
 C 0.0082 0.3996 0.1845   -0.187108
 C 0.0318 0.4754 0.2043   0.104135
 C 0.965 0.5387 0.2073   0.102202
 C 0.6797 0.7375 0.0875   0.199826
 C 0.6216 0.7319 0.0259   -0.176282
 C 0.5739 0.6968 0.1727   0.177269
 C 0.512 0.688 0.114   -0.178898
 C 0.3198 0.7264 0.9277   0.192896
 C 0.3781 0.7246 0.9891   -0.180835
 C 0.4286 0.6857 0.8425   0.179852
 C 0.4918 0.6845 0.8996   -0.187108
 C 0.4682 0.7043 0.9754   0.104135
 C 0.535 0.7073 0.0387   0.102202
 C 0.6797 0.2625 0.9125   0.199826
 C 0.6216 0.2681 0.9741   -0.176283
 C 0.5739 0.3032 0.8273   0.177269
 C 0.512 0.312 0.886   -0.178898
 C 0.3198 0.2736 0.0723   0.192896
 C 0.3781 0.2754 0.0109   -0.180835
 C 0.4286 0.3143 0.1575   0.179852
 C 0.4918 0.3155 0.1004   -0.187108
 C 0.4682 0.2957 0.0246   0.104135
 C 0.535 0.2927 0.9613   0.102202
 C 0.3203 0.9125 0.7375   0.199826
 C 0.3784 0.9741 0.7319   -0.176282
 C 0.4261 0.8273 0.6968   0.17727
 C 0.488 0.886 0.688   -0.178898
 C 0.6802 0.0723 0.7264   0.192896
 C 0.6219 0.0109 0.7246   -0.180835
 C 0.5714 0.1575 0.6857   0.179852
 C 0.5082 0.1004 0.6845   -0.187108
 C 0.5318 0.0246 0.7043   0.104135
 C 0.465 0.9613 0.7073   0.102202
 C 0.3203 0.0875 0.2625   0.199826
 C 0.3784 0.0259 0.2681   -0.176283
 C 0.4261 0.1727 0.3032   0.17727
 C 0.488 0.114 0.312   -0.178898
 C 0.6802 0.9277 0.2736   0.192896
 C 0.6219 0.9891 0.2754   -0.180835
 C 0.5714 0.8425 0.3143   0.179852
 C 0.5082 0.8996 0.3155   -0.187108
 C 0.5318 0.9754 0.2957   0.104135
 C 0.465 0.0387 0.2927   0.102202
 N 0.1568 0.2223 0.3404   -0.370988
 N 0.1563 0.3547 0.2087   -0.376587
 N 0.1568 0.7777 0.6596   -0.370988
 N 0.1563 0.6453 0.7913   -0.376587
 N 0.8432 0.3404 0.7777   -0.370988
 N 0.8437 0.2087 0.6453   -0.376587
 N 0.8432 0.6596 0.2223   -0.370988
 N 0.8437 0.7913 0.3547   -0.376587
 N 0.6568 0.7223 0.1596   -0.370988
 N 0.6563 0.8547 0.2913   -0.376587
 N 0.6568 0.2777 0.8404   -0.370988
 N 0.6563 0.1453 0.7087   -0.376587
 N 0.3432 0.8404 0.7223   -0.370988
 N 0.3437 0.7087 0.8547   -0.376587
 N 0.3432 0.1596 0.2777   -0.370988
 N 0.3437 0.2913 0.1453   -0.376587
 Cl 0.0 0.0 0.0   -0.885256
 Cl 0.5 0.5 0.5   -0.885256
 O 0.1803 0.1824 0.1652   -0.823061
 O 0.1792 0.1282 0.0066   -1.258874
 O 0.0372 0.1834 0.0557   -1.221823
 O 0.3135 0.0995 0.8868   -0.687147
 O 0.1782 0.0207 0.1261   -1.264522
 O 0.1197 0.1183 0.8671   -1.146676
 O 0.0365 0.0755 0.1758   -1.227334
 O 0.1218 0.266 0.9282   -0.689087
 O 0.8805 0.2734 0.0384   -0.6918
 O 0.1803 0.8176 0.8348   -0.823061
 O 0.1792 0.8718 0.9934   -1.258874
 O 0.0372 0.8166 0.9443   -1.221823
 O 0.3135 0.9005 0.1132   -0.687147
 O 0.1782 0.9793 0.8739   -1.264522
 O 0.1197 0.8817 0.1329   -1.146676
 O 0.0365 0.9245 0.8242   -1.227334
 O 0.1218 0.734 0.0718   -0.689087
 O 0.8805 0.7266 0.9616   -0.6918
 O 0.8197 0.1652 0.8176   -0.823061
 O 0.8208 0.0066 0.8718   -1.258874
 O 0.9628 0.0557 0.8166   -1.221823
 O 0.6865 0.8868 0.9005   -0.687147
 O 0.8218 0.1261 0.9793   -1.264522
 O 0.8803 0.8671 0.8817   -1.146676
 O 0.9635 0.1758 0.9245   -1.227334
 O 0.8782 0.9282 0.734   -0.689087
 O 0.1195 0.0384 0.7266   -0.6918
 O 0.8197 0.8348 0.1824   -0.823061
 O 0.8208 0.9934 0.1282   -1.258874
 O 0.9628 0.9443 0.1834   -1.221823
 O 0.6865 0.1132 0.0995   -0.687147
 O 0.8218 0.8739 0.0207   -1.264522
 O 0.8803 0.1329 0.1183   -1.146676
 O 0.9635 0.8242 0.0755   -1.227334
 O 0.8782 0.0718 0.266   -0.689087
 O 0.1195 0.9616 0.2734   -0.6918
 O 0.6803 0.6824 0.3348   -0.823061
 O 0.6792 0.6282 0.4934   -1.258874
 O 0.5372 0.6834 0.4443   -1.221823
 O 0.8135 0.5995 0.6132   -0.687147
 O 0.6782 0.5207 0.3739   -1.264522
 O 0.6197 0.6183 0.6329   -1.146676
 O 0.5365 0.5755 0.3242   -1.227335
 O 0.6218 0.766 0.5718   -0.689087
 O 0.3805 0.7734 0.4616   -0.6918
 O 0.6803 0.3176 0.6652   -0.823061
 O 0.6792 0.3718 0.5066   -1.258874
 O 0.5372 0.3166 0.5557   -1.221823
 O 0.8135 0.4005 0.3868   -0.687147
 O 0.6782 0.4793 0.6261   -1.264522
 O 0.6197 0.3817 0.3671   -1.146676
 O 0.5365 0.4245 0.6758   -1.227335
 O 0.6218 0.234 0.4282   -0.689087
 O 0.3805 0.2266 0.5384   -0.6918
 O 0.3197 0.6652 0.6824   -0.823061
 O 0.3208 0.5066 0.6282   -1.258874
 O 0.4628 0.5557 0.6834   -1.221823
 O 0.1865 0.3868 0.5995   -0.687147
 O 0.3218 0.6261 0.5207   -1.264522
 O 0.3803 0.3671 0.6183   -1.146676
 O 0.4635 0.6758 0.5755   -1.227334
 O 0.3782 0.4282 0.766   -0.689087
 O 0.6195 0.5384 0.7734   -0.6918
 O 0.3197 0.3348 0.3176   -0.823061
 O 0.3208 0.4934 0.3718   -1.258874
 O 0.4628 0.4443 0.3166   -1.221823
 O 0.1865 0.6132 0.4005   -0.687147
 O 0.3218 0.3739 0.4793   -1.264522
 O 0.3803 0.6329 0.3817   -1.146676
 O 0.4635 0.3242 0.4245   -1.227334
 O 0.3782 0.5718 0.234   -0.689087
 O 0.6195 0.4616 0.2266   -0.6918
 O 0.2809 0.0 0.0   -0.878435
 O 0.7191 0.0 0.0   -0.878435
 O 0.7809 0.5 0.5   -0.878435
 O 0.2191 0.5 0.5   -0.878435
