{'_ref': 'TBD', '_srcid': 'CAKYAQ_clean', 'submitters': [{'name': 'Dalar Nazarian Jeff Camp and David Sholl', 'email': 'dalar@gatech.edu jcamp6@gatech.edu'}], '_method': 'VASP DFT with PBE;DDEC'}
data_V16Co2H32C40N8ClO38
_symmetry_space_group_name_H-M   'P 1'
_cell_length_a   14.62500000
_cell_length_b   17.06600000
_cell_length_c   17.06600000
_cell_angle_alpha   90.00000000
_cell_angle_beta   90.00000000
_cell_angle_gamma   90.00000000
_symmetry_Int_Tables_number   1
_chemical_formula_structural   V16Co2H32C40N8ClO38
_chemical_formula_sum   'V32 Co4 H64 C80 N16 Cl2 O76'
_cell_volume   4259.5072065
_cell_formula_units_Z   2
loop_
 _symmetry_equiv_pos_site_id
 _symmetry_equiv_pos_as_xyz
  1  'x, y, z'
loop_
 _atom_site_label
 _atom_site_fract_x
 _atom_site_fract_y
 _atom_site_fract_z
 _atom_site_charge
 V 0.37249 0.61042 0.62079   2.254293
 V 0.5861 0.53214 0.68691   2.219136
 V 0.4119 0.44858 0.682   2.236779
 V 0.26659 0.42903 0.56454   2.142485
 V 0.37249 0.38958 0.37921   2.254293
 V 0.5861 0.46786 0.31309   2.219135
 V 0.4119 0.55142 0.318   2.236779
 V 0.26659 0.57097 0.43546   2.142451
 V 0.62751 0.62079 0.38958   2.254275
 V 0.4139 0.68691 0.46786   2.219057
 V 0.5881 0.682 0.55142   2.236761
 V 0.73341 0.56454 0.57097   2.142404
 V 0.62751 0.37921 0.61042   2.254275
 V 0.4139 0.31309 0.53214   2.219058
 V 0.5881 0.318 0.44858   2.23676
 V 0.73341 0.43546 0.42903   2.142371
 V 0.87249 0.11042 0.87921   2.254292
 V 0.0861 0.03214 0.81309   2.219121
 V 0.9119 0.94858 0.818   2.236765
 V 0.76659 0.92903 0.93546   2.14248
 V 0.87249 0.88958 0.12079   2.254292
 V 0.0861 0.96786 0.18691   2.219121
 V 0.9119 0.05142 0.182   2.236764
 V 0.76659 0.07097 0.06454   2.142446
 V 0.12751 0.12079 0.11042   2.254274
 V 0.9139 0.18691 0.03214   2.219043
 V 0.0881 0.182 0.94858   2.236746
 V 0.23341 0.06454 0.92903   2.142399
 V 0.12751 0.87921 0.88958   2.254274
 V 0.9139 0.81309 0.96786   2.219044
 V 0.0881 0.818 0.05142   2.236745
 V 0.23341 0.93546 0.07097   2.142367
 Co 0.25 0.74525 0.75475   0.718893
 Co 0.25 0.25475 0.24525   0.718893
 Co 0.75 0.75475 0.25475   0.718893
 Co 0.75 0.24525 0.74525   0.718893
 H 0.4497 0.6852 0.786   0.092269
 H 0.5533 0.6819 0.8831   0.142732
 H 0.3538 0.7275 0.0377   0.143718
 H 0.2525 0.7413 0.9316   0.086993
 H 0.5546 0.6847 0.2231   0.089932
 H 0.4526 0.6704 0.1232   0.140308
 H 0.6438 0.7477 0.9757   0.141491
 H 0.7367 0.7588 0.0768   0.070626
 H 0.4497 0.3148 0.214   0.092269
 H 0.5533 0.3181 0.1169   0.142732
 H 0.3538 0.2725 0.9623   0.143718
 H 0.2525 0.2587 0.0684   0.086993
 H 0.5546 0.3153 0.7769   0.089932
 H 0.4526 0.3296 0.8768   0.140308
 H 0.6438 0.2523 0.0243   0.141491
 H 0.7367 0.2412 0.9232   0.070626
 H 0.5503 0.786 0.3148   0.092275
 H 0.4467 0.8831 0.3181   0.142732
 H 0.6462 0.0377 0.2725   0.143718
 H 0.7475 0.9316 0.2587   0.086993
 H 0.4454 0.2231 0.3153   0.089938
 H 0.5474 0.1232 0.3296   0.140308
 H 0.3562 0.9757 0.2523   0.141491
 H 0.2633 0.0768 0.2412   0.070625
 H 0.5503 0.214 0.6852   0.092275
 H 0.4467 0.1169 0.6819   0.142732
 H 0.6462 0.9623 0.7275   0.143718
 H 0.7475 0.0684 0.7413   0.086993
 H 0.4454 0.7769 0.6847   0.089938
 H 0.5474 0.8768 0.6704   0.140308
 H 0.3562 0.0243 0.7477   0.141491
 H 0.2633 0.9232 0.7588   0.070626
 H 0.9497 0.1852 0.714   0.092269
 H 0.0533 0.1819 0.6169   0.142732
 H 0.8538 0.2275 0.4623   0.143717
 H 0.7525 0.2413 0.5684   0.086994
 H 0.0546 0.1847 0.2769   0.089932
 H 0.9526 0.1704 0.3768   0.140308
 H 0.1438 0.2477 0.5243   0.141491
 H 0.2367 0.2588 0.4232   0.070627
 H 0.9497 0.8148 0.286   0.092269
 H 0.0533 0.8181 0.3831   0.142732
 H 0.8538 0.7725 0.5377   0.143718
 H 0.7525 0.7587 0.4316   0.086994
 H 0.0546 0.8153 0.7231   0.089932
 H 0.9526 0.8296 0.6232   0.140308
 H 0.1438 0.7523 0.4757   0.141492
 H 0.2367 0.7412 0.5768   0.070626
 H 0.0503 0.286 0.1852   0.092275
 H 0.9467 0.3831 0.1819   0.142732
 H 0.1462 0.5377 0.2275   0.143717
 H 0.2475 0.4316 0.2413   0.086994
 H 0.9454 0.7231 0.1847   0.089938
 H 0.0474 0.6232 0.1704   0.140308
 H 0.8562 0.4757 0.2477   0.141491
 H 0.7633 0.5768 0.2588   0.070626
 H 0.0503 0.714 0.8148   0.092275
 H 0.9467 0.6169 0.8181   0.142732
 H 0.1462 0.4623 0.7725   0.143718
 H 0.2475 0.5684 0.7587   0.086994
 H 0.9454 0.2769 0.8153   0.089938
 H 0.0474 0.3768 0.8296   0.140308
 H 0.8562 0.5243 0.7523   0.141492
 H 0.7633 0.4232 0.7412   0.070626
 C 0.4302 0.6959 0.8368   0.158124
 C 0.4927 0.6937 0.895   -0.167807
 C 0.4685 0.7085 0.9713   0.100747
 C 0.3748 0.7221 0.9865   -0.173707
 C 0.3131 0.7275 0.9224   0.163494
 C 0.5733 0.6968 0.1724   0.162949
 C 0.5109 0.6893 0.1125   -0.181452
 C 0.5341 0.7094 0.0373   0.108467
 C 0.6233 0.7346 0.0256   -0.17203
 C 0.6782 0.7398 0.0867   0.181272
 C 0.4302 0.3041 0.1632   0.158124
 C 0.4927 0.3063 0.105   -0.167809
 C 0.4685 0.2915 0.0287   0.100745
 C 0.3748 0.2779 0.0135   -0.173712
 C 0.3131 0.2725 0.0776   0.163495
 C 0.5733 0.3032 0.8276   0.162949
 C 0.5109 0.3107 0.8875   -0.181454
 C 0.5341 0.2906 0.9627   0.108465
 C 0.6233 0.2654 0.9744   -0.172032
 C 0.6782 0.2602 0.9133   0.181272
 C 0.5698 0.8368 0.3041   0.158142
 C 0.5073 0.895 0.3063   -0.16781
 C 0.5315 0.9713 0.2915   0.100748
 C 0.6252 0.9865 0.2779   -0.173707
 C 0.6869 0.9224 0.2725   0.163496
 C 0.4267 0.1724 0.3032   0.162967
 C 0.4891 0.1125 0.3107   -0.181455
 C 0.4659 0.0373 0.2906   0.108468
 C 0.3767 0.0256 0.2654   -0.17203
 C 0.3218 0.0867 0.2602   0.181273
 C 0.5698 0.1632 0.6959   0.158143
 C 0.5073 0.105 0.6937   -0.167812
 C 0.5315 0.0287 0.7085   0.100746
 C 0.6252 0.0135 0.7221   -0.173712
 C 0.6869 0.0776 0.7275   0.163496
 C 0.4267 0.8276 0.6968   0.162968
 C 0.4891 0.8875 0.6893   -0.181457
 C 0.4659 0.9627 0.7094   0.108465
 C 0.3767 0.9744 0.7346   -0.172032
 C 0.3218 0.9133 0.7398   0.181273
 C 0.9302 0.1959 0.6632   0.158121
 C 0.9927 0.1937 0.605   -0.167806
 C 0.9685 0.2085 0.5287   0.100747
 C 0.8748 0.2221 0.5135   -0.173709
 C 0.8131 0.2275 0.5776   0.163482
 C 0.0733 0.1968 0.3276   0.162945
 C 0.0109 0.1893 0.3875   -0.181451
 C 0.0341 0.2094 0.4627   0.108467
 C 0.1233 0.2346 0.4744   -0.172032
 C 0.1782 0.2398 0.4133   0.181262
 C 0.9302 0.8041 0.3368   0.158122
 C 0.9927 0.8063 0.395   -0.167808
 C 0.9685 0.7915 0.4713   0.100745
 C 0.8748 0.7779 0.4865   -0.173714
 C 0.8131 0.7725 0.4224   0.163483
 C 0.0733 0.8032 0.6724   0.162946
 C 0.0109 0.8107 0.6125   -0.181453
 C 0.0341 0.7906 0.5373   0.108465
 C 0.1233 0.7654 0.5256   -0.172034
 C 0.1782 0.7602 0.5867   0.181262
 C 0.0698 0.3368 0.1959   0.15814
 C 0.0073 0.395 0.1937   -0.16781
 C 0.0315 0.4713 0.2085   0.100748
 C 0.1252 0.4865 0.2221   -0.17371
 C 0.1869 0.4224 0.2275   0.163484
 C 0.9267 0.6724 0.1968   0.162964
 C 0.9891 0.6125 0.1893   -0.181454
 C 0.9659 0.5373 0.2094   0.108468
 C 0.8767 0.5256 0.2346   -0.172033
 C 0.8218 0.5867 0.2398   0.181263
 C 0.0698 0.6632 0.8041   0.15814
 C 0.0073 0.605 0.8063   -0.167812
 C 0.0315 0.5287 0.7915   0.100746
 C 0.1252 0.5135 0.7779   -0.173714
 C 0.1869 0.5776 0.7725   0.163484
 C 0.9267 0.3276 0.8032   0.162964
 C 0.9891 0.3875 0.8107   -0.181456
 C 0.9659 0.4627 0.7906   0.108465
 C 0.8767 0.4744 0.7654   -0.172035
 C 0.8218 0.4133 0.7602   0.181263
 N 0.341 0.7129 0.8482   -0.271308
 N 0.3403 0.8386 0.7208   -0.27345
 N 0.341 0.2871 0.1518   -0.271308
 N 0.3403 0.1614 0.2792   -0.27345
 N 0.659 0.8482 0.2871   -0.27131
 N 0.6597 0.7208 0.1614   -0.273448
 N 0.659 0.1518 0.7129   -0.27131
 N 0.6597 0.2792 0.8386   -0.273448
 N 0.841 0.2129 0.6518   -0.271291
 N 0.8403 0.3386 0.7792   -0.273426
 N 0.841 0.7871 0.3482   -0.271291
 N 0.8403 0.6614 0.2208   -0.273426
 N 0.159 0.3482 0.2129   -0.271293
 N 0.1597 0.2208 0.3386   -0.273424
 N 0.159 0.6518 0.7871   -0.271293
 N 0.1597 0.7792 0.6614   -0.273424
 Cl 0.0 0.0 0.0   -0.828089
 Cl 0.5 0.5 0.5   -0.828089
 O 0.3173 0.6682 0.6811   -0.815754
 O 0.4613 0.557 0.6854   -1.22501
 O 0.3243 0.5054 0.6244   -1.301856
 O 0.4636 0.6773 0.5745   -1.252637
 O 0.3201 0.6252 0.5179   -1.278442
 O 0.3748 0.4306 0.7676   -0.706716
 O 0.1776 0.3867 0.5997   -0.691758
 O 0.6211 0.5396 0.7742   -0.694685
 O 0.6224 0.6211 0.6348   -1.155491
 O 0.3173 0.3318 0.3189   -0.815754
 O 0.4613 0.443 0.3146   -1.22501
 O 0.3243 0.4946 0.3756   -1.301852
 O 0.4636 0.3227 0.4255   -1.252637
 O 0.3201 0.3748 0.4821   -1.278445
 O 0.3748 0.5694 0.2324   -0.706716
 O 0.1776 0.6133 0.4003   -0.691756
 O 0.6211 0.4604 0.2258   -0.694685
 O 0.6224 0.3789 0.3652   -1.15549
 O 0.6827 0.6811 0.3318   -0.815753
 O 0.5387 0.6854 0.443   -1.225002
 O 0.6757 0.6244 0.4946   -1.301846
 O 0.5364 0.5745 0.3227   -1.252642
 O 0.6799 0.5179 0.3748   -1.27844
 O 0.6252 0.7676 0.5694   -0.706715
 O 0.8224 0.5997 0.6133   -0.691753
 O 0.3789 0.7742 0.4604   -0.69468
 O 0.3776 0.6348 0.3789   -1.155489
 O 0.6827 0.3189 0.6682   -0.815753
 O 0.5387 0.3146 0.557   -1.225002
 O 0.6757 0.3756 0.5054   -1.301843
 O 0.5364 0.4255 0.6773   -1.252642
 O 0.6799 0.4821 0.6252   -1.278443
 O 0.6252 0.2324 0.4306   -0.706715
 O 0.8224 0.4003 0.3867   -0.691751
 O 0.3789 0.2258 0.5396   -0.69468
 O 0.3776 0.3652 0.6211   -1.15549
 O 0.8173 0.1682 0.8189   -0.815754
 O 0.9613 0.057 0.8146   -1.225008
 O 0.8243 0.0054 0.8756   -1.301854
 O 0.9636 0.1773 0.9255   -1.252635
 O 0.8201 0.1252 0.9821   -1.278441
 O 0.8748 0.9306 0.7324   -0.706715
 O 0.6776 0.8867 0.9003   -0.691758
 O 0.1211 0.0396 0.7258   -0.694684
 O 0.1224 0.1211 0.8652   -1.155489
 O 0.8173 0.8318 0.1811   -0.815754
 O 0.9613 0.943 0.1854   -1.225008
 O 0.8243 0.9946 0.1244   -1.301851
 O 0.9636 0.8227 0.0745   -1.252635
 O 0.8201 0.8748 0.0179   -1.278444
 O 0.8748 0.0694 0.2676   -0.706715
 O 0.6776 0.1133 0.0997   -0.691755
 O 0.1211 0.9604 0.2742   -0.694684
 O 0.1224 0.8789 0.1348   -1.155488
 O 0.1827 0.1811 0.1682   -0.815753
 O 0.0387 0.1854 0.057   -1.225
 O 0.1757 0.1244 0.0054   -1.301845
 O 0.0364 0.0745 0.1773   -1.25264
 O 0.1799 0.0179 0.1252   -1.278439
 O 0.1252 0.2676 0.9306   -0.706714
 O 0.3224 0.0997 0.8867   -0.691752
 O 0.8789 0.2742 0.0396   -0.694679
 O 0.8776 0.1348 0.1211   -1.155487
 O 0.1827 0.8189 0.8318   -0.815753
 O 0.0387 0.8146 0.943   -1.225
 O 0.1757 0.8756 0.9946   -1.301842
 O 0.0364 0.9255 0.8227   -1.25264
 O 0.1799 0.9821 0.8748   -1.278441
 O 0.1252 0.7324 0.0694   -0.706714
 O 0.3224 0.9003 0.1133   -0.69175
 O 0.8789 0.7258 0.9604   -0.694679
 O 0.8776 0.8652 0.8789   -1.155488
 O 0.1986 0.5 0.5   -0.852099
 O 0.8014 0.5 0.5   -0.852091
 O 0.6986 0.0 0.0   -0.852099
 O 0.3014 0.0 0.0   -0.852091
