{'_ref': 'TBD', '_srcid': 'CAKYAQ_clean', 'submitters': [{'name': 'Dalar Nazarian Jeff Camp and David Sholl', 'email': 'dalar@gatech.edu jcamp6@gatech.edu'}], '_method': 'VASP DFT with PBE;DDEC'}
data_NdH12(C7O2)3
_symmetry_space_group_name_H-M   'P 1'
_cell_length_a   8.72300003
_cell_length_b   14.17899990
_cell_length_c   15.03115998
_cell_angle_alpha   114.83007213
_cell_angle_beta   106.86749409
_cell_angle_gamma   89.99999999
_symmetry_Int_Tables_number   1
_chemical_formula_structural   NdH12(C7O2)3
_chemical_formula_sum   'Nd2 H24 C42 O12'
_cell_volume   1598.68742534
_cell_formula_units_Z   2
loop_
 _symmetry_equiv_pos_site_id
 _symmetry_equiv_pos_as_xyz
  1  'x, y, z'
loop_
 _atom_site_label
 _atom_site_fract_x
 _atom_site_fract_y
 _atom_site_fract_z
 _atom_site_charge
 Nd 0.35799 0.99496 0.45382   2.336171
 Nd 0.90417 0.00504 0.54618   2.33655
 H 0.1797 0.2033 0.3366   0.099467
 H 0.1705 0.3584 0.3172   0.104738
 H 0.8422 0.4413 0.4628   0.101412
 H 0.8386 0.2821 0.4746   0.087341
 H 0.0747 0.4701 0.2542   0.114714
 H 0.1188 0.6362 0.2604   0.103845
 H 0.9817 0.764 0.5132   0.05325
 H 0.9628 0.6075 0.5186   0.096439
 H 0.5676 0.2846 0.7748   0.085164
 H 0.652 0.4357 0.9264   0.109495
 H 0.2056 0.4151 0.9488   0.104874
 H 0.1208 0.2803 0.7864   0.096764
 H 0.8431 0.7967 0.6634   0.09923
 H 0.8533 0.6416 0.6828   0.104393
 H 0.3794 0.5587 0.5372   0.101133
 H 0.364 0.7179 0.5254   0.086476
 H 0.8205 0.5299 0.7458   0.114654
 H 0.8584 0.3638 0.7396   0.1038
 H 0.4685 0.236 0.4868   0.05426
 H 0.4442 0.3925 0.4814   0.096175
 H 0.7928 0.7154 0.2252   0.087099
 H 0.7256 0.5643 0.0736   0.109897
 H 0.2568 0.5849 0.0512   0.104797
 H 0.3344 0.7197 0.2136   0.097994
 C 0.0229 0.1318 0.4252   0.830246
 C 0.0139 0.2302 0.4114   -0.172667
 C 0.1121 0.2508 0.3624   -0.027548
 C 0.1076 0.3453 0.3522   -0.145316
 C 0.0122 0.4194 0.3932   0.052079
 C 0.9109 0.3944 0.4376   -0.141271
 C 0.9097 0.2987 0.446   -0.009613
 C 0.0174 0.5214 0.388   0.053931
 C 0.0619 0.5298 0.3084   -0.154069
 C 0.0865 0.6296 0.3116   -0.022225
 C 0.0625 0.7176 0.3904   -0.154583
 C 0.0078 0.7058 0.464   0.012584
 C 0.9916 0.6119 0.4654   -0.12847
 C 0.1092 0.8245 0.3976   0.75215
 C 0.2857 0.1667 0.6692   0.8194
 C 0.3368 0.2648 0.764   -0.177697
 C 0.4925 0.314 0.8078   -0.001189
 C 0.5445 0.4055 0.899   -0.153766
 C 0.4307 0.4539 0.9514   0.047376
 C 0.277 0.3953 0.9108   -0.144828
 C 0.2292 0.3094 0.8164   -0.013868
 C 0.5977 0.8682 0.5748   0.827185
 C 0.6025 0.7698 0.5886   -0.171487
 C 0.7497 0.7492 0.6376   -0.027988
 C 0.7554 0.6547 0.6478   -0.144038
 C 0.619 0.5806 0.6068   0.052609
 C 0.4733 0.6056 0.5624   -0.141692
 C 0.4637 0.7013 0.554   -0.008142
 C 0.6294 0.4786 0.612   0.051655
 C 0.7535 0.4702 0.6916   -0.15284
 C 0.7749 0.3704 0.6884   -0.023559
 C 0.6721 0.2824 0.6096   -0.151248
 C 0.5438 0.2942 0.536   0.009436
 C 0.5262 0.3881 0.5346   -0.127084
 C 0.7116 0.1755 0.6024   0.75043
 C 0.6165 0.8333 0.3308   0.815479
 C 0.5728 0.7352 0.236   -0.176989
 C 0.6847 0.686 0.1922   -0.004079
 C 0.6455 0.5945 0.101   -0.154182
 C 0.4793 0.5461 0.0486   0.049746
 C 0.3662 0.6047 0.0892   -0.145761
 C 0.4128 0.6906 0.1836   -0.014319
 O 0.1383 0.0846 0.4144   -0.816429
 O 0.9068 0.1015 0.4488   -0.730637
 O 0.106 0.9042 0.4784   -0.869928
 O 0.1673 0.8301 0.3346   -0.660468
 O 0.3909 0.1289 0.6248   -0.744439
 O 0.1458 0.1237 0.6384   -0.793365
 O 0.7239 0.9154 0.5856   -0.815719
 O 0.458 0.8985 0.5512   -0.729144
 O 0.6276 0.0958 0.5216   -0.870305
 O 0.8327 0.1699 0.6654   -0.659198
 O 0.7661 0.8711 0.3752   -0.743612
 O 0.5074 0.8763 0.3616   -0.790675
