{'_ref': 'TBD', '_srcid': 'CAKYAQ_clean', 'submitters': [{'name': 'Dalar Nazarian Jeff Camp and David Sholl', 'email': 'dalar@gatech.edu jcamp6@gatech.edu'}], '_method': 'VASP DFT with PBE;DDEC'}
data_CuH6(C3N)6
_symmetry_space_group_name_H-M   'P 1'
_cell_length_a   7.71190000
_cell_length_b   13.47444626
_cell_length_c   25.18920000
_cell_angle_alpha   90.00000000
_cell_angle_beta   90.00000000
_cell_angle_gamma   106.62824181
_symmetry_Int_Tables_number   1
_chemical_formula_structural   CuH6(C3N)6
_chemical_formula_sum   'Cu4 H24 C72 N24'
_cell_volume   2508.04044213
_cell_formula_units_Z   4
loop_
 _symmetry_equiv_pos_site_id
 _symmetry_equiv_pos_as_xyz
  1  'x, y, z'
loop_
 _atom_site_label
 _atom_site_fract_x
 _atom_site_fract_y
 _atom_site_fract_z
 _atom_site_charge
 Cu 0.0 0.5 0.5   0.586361
 Cu 0.0 0.5 0.0   0.586361
 Cu 0.5 0.5 0.0   0.586394
 Cu 0.5 0.5 0.5   0.586394
 H 0.341 0.3072 0.7034   0.112635
 H 0.913 0.4184 0.7038   0.10645
 H 0.2643 0.9094 0.4444   0.116474
 H 0.659 0.6928 0.2034   0.112635
 H 0.087 0.5816 0.2038   0.10645
 H 0.7357 0.0906 0.9444   0.116474
 H 0.0338 0.6928 0.7966   0.113525
 H 0.4946 0.5816 0.7962   0.106705
 H 0.3549 0.0906 0.0556   0.116292
 H 0.9662 0.3072 0.2966   0.113525
 H 0.5054 0.4184 0.2962   0.106705
 H 0.6451 0.9094 0.5556   0.116292
 H 0.659 0.6928 0.2966   0.112639
 H 0.087 0.5816 0.2962   0.106457
 H 0.7357 0.0906 0.5556   0.116466
 H 0.341 0.3072 0.7966   0.112639
 H 0.913 0.4184 0.7962   0.106457
 H 0.2643 0.9094 0.0556   0.116466
 H 0.9662 0.3072 0.2034   0.113529
 H 0.5054 0.4184 0.2038   0.106712
 H 0.6451 0.9094 0.9444   0.116284
 H 0.0338 0.6928 0.7034   0.113529
 H 0.4946 0.5816 0.7038   0.106712
 H 0.3549 0.0906 0.4444   0.116284
 C 0.02614 0.40968 0.60735   0.02833
 C 0.14703 0.38226 0.63785   -0.074987
 C 0.29671 0.38922 0.6083   0.033571
 C 0.13371 0.36802 0.69516   0.104885
 C 0.25536 0.33232 0.72218   -0.112553
 C 0.00364 0.39768 0.72257   -0.111804
 C 0.2179 0.7204 0.49999   0.048616
 C 0.36078 0.94636 0.4671   -0.122456
 C 0.97386 0.59032 0.10735   0.02833
 C 0.85297 0.61774 0.13785   -0.074987
 C 0.70329 0.61078 0.1083   0.033571
 C 0.86629 0.63198 0.19516   0.104885
 C 0.74464 0.66768 0.22218   -0.112553
 C 0.99636 0.60232 0.22257   -0.111804
 C 0.7821 0.2796 0.99999   0.048616
 C 0.63922 0.05364 0.9671   -0.122456
 C 0.61646 0.59032 0.89265   0.029869
 C 0.76477 0.61774 0.86215   -0.076596
 C 0.90749 0.61078 0.8917   0.032715
 C 0.76569 0.63198 0.80484   0.107221
 C 0.92304 0.66768 0.77782   -0.115133
 C 0.60596 0.60232 0.77743   -0.112238
 C 0.4975 0.2796 1.00000000032e-05   0.048914
 C 0.41442 0.05364 0.0329   -0.120895
 C 0.38354 0.40968 0.39265   0.029869
 C 0.23523 0.38226 0.36215   -0.076596
 C 0.09251 0.38922 0.3917   0.032715
 C 0.23431 0.36802 0.30484   0.107221
 C 0.07696 0.33232 0.27782   -0.115133
 C 0.39404 0.39768 0.27743   -0.112238
 C 0.5025 0.7204 0.50001   0.048914
 C 0.58558 0.94636 0.5329   -0.120895
 C 0.97386 0.59032 0.39265   0.028322
 C 0.85297 0.61774 0.36215   -0.074988
 C 0.70329 0.61078 0.3917   0.03357
 C 0.86629 0.63198 0.30484   0.104927
 C 0.74464 0.66768 0.27782   -0.112722
 C 0.99636 0.60232 0.27743   -0.111932
 C 0.7821 0.2796 0.50001   0.048617
 C 0.63922 0.05364 0.5329   -0.122451
 C 0.02614 0.40968 0.89265   0.028322
 C 0.14703 0.38226 0.86215   -0.074988
 C 0.29671 0.38922 0.8917   0.03357
 C 0.13371 0.36802 0.80484   0.104927
 C 0.25536 0.33232 0.77782   -0.112722
 C 0.00364 0.39768 0.77743   -0.111932
 C 0.2179 0.7204 1.00000000032e-05   0.048617
 C 0.36078 0.94636 0.0329   -0.122451
 C 0.38354 0.40968 0.10735   0.029862
 C 0.23523 0.38226 0.13785   -0.076596
 C 0.09251 0.38922 0.1083   0.032711
 C 0.23431 0.36802 0.19516   0.10726
 C 0.07696 0.33232 0.22218   -0.115295
 C 0.39404 0.39768 0.22257   -0.112357
 C 0.5025 0.7204 0.99999   0.048916
 C 0.58558 0.94636 0.9671   -0.12089
 C 0.61646 0.59032 0.60735   0.029862
 C 0.76477 0.61774 0.63785   -0.076596
 C 0.90749 0.61078 0.6083   0.032711
 C 0.76569 0.63198 0.69516   0.10726
 C 0.92304 0.66768 0.72218   -0.115295
 C 0.60596 0.60232 0.72257   -0.112357
 C 0.4975 0.2796 0.49999   0.048916
 C 0.41442 0.05364 0.4671   -0.12089
 C 0.39084 0.78168 0.5   -0.100731
 C 0.44708 0.89416 0.5   0.10891
 C 0.60916 0.21832 0.0   -0.100731
 C 0.55292 0.10584 0.0   0.10891
 C 0.60916 0.21832 0.5   -0.100731
 C 0.55292 0.10584 0.5   0.108908
 C 0.39084 0.78168 0.0   -0.100731
 C 0.44708 0.89416 0.0   0.108908
 N 0.10171 0.43322 0.56019   -0.100348
 N 0.26864 0.42048 0.56031   -0.192232
 N 0.224 0.6238 0.49998   -0.134438
 N 0.89829 0.56678 0.06019   -0.100348
 N 0.73136 0.57952 0.06031   -0.192232
 N 0.776 0.3762 0.99998   -0.134438
 N 0.66849 0.56678 0.93981   -0.10134
 N 0.84816 0.57952 0.93969   -0.1908
 N 0.6002 0.3762 1.99999999992e-05   -0.134688
 N 0.33151 0.43322 0.43981   -0.10134
 N 0.15184 0.42048 0.43969   -0.1908
 N 0.3998 0.6238 0.50002   -0.134688
 N 0.89829 0.56678 0.43981   -0.100347
 N 0.73136 0.57952 0.43969   -0.192233
 N 0.776 0.3762 0.50002   -0.134437
 N 0.10171 0.43322 0.93981   -0.100347
 N 0.26864 0.42048 0.93969   -0.192233
 N 0.224 0.6238 1.99999999992e-05   -0.134437
 N 0.33151 0.43322 0.06019   -0.101339
 N 0.15184 0.42048 0.06031   -0.190801
 N 0.3998 0.6238 0.99998   -0.134687
 N 0.66849 0.56678 0.56019   -0.101339
 N 0.84816 0.57952 0.56031   -0.190801
 N 0.6002 0.3762 0.49998   -0.134687
