{'_ref': 'TBD', '_srcid': 'CAKYAQ_clean', 'submitters': [{'name': 'Dalar Nazarian Jeff Camp and David Sholl', 'email': 'dalar@gatech.edu jcamp6@gatech.edu'}], '_method': 'VASP DFT with PBE;DDEC'}
data_Cu3H2(C4O5)2
_symmetry_space_group_name_H-M   'P 1'
_cell_length_a   5.64370000
_cell_length_b   9.15069971
_cell_length_c   12.83570000
_cell_angle_alpha   90.00000000
_cell_angle_beta   90.00000000
_cell_angle_gamma   95.89200178
_symmetry_Int_Tables_number   1
_chemical_formula_structural   Cu3H2(C4O5)2
_chemical_formula_sum   'Cu6 H4 C16 O20'
_cell_volume   659.38246032
_cell_formula_units_Z   2
loop_
 _symmetry_equiv_pos_site_id
 _symmetry_equiv_pos_as_xyz
  1  'x, y, z'
loop_
 _atom_site_label
 _atom_site_fract_x
 _atom_site_fract_y
 _atom_site_fract_z
 _atom_site_charge
 Cu 0.01236 0.53936 0.11172   1.038398
 Cu 0.98764 0.96064 0.61172   1.038398
 Cu 0.98764 0.46064 0.88828   1.038399
 Cu 0.01236 0.03936 0.38828   1.038399
 Cu 0.5 0.0 0.5   1.028462
 Cu 0.5 0.5 0.0   1.028462
 H 0.777 0.839 0.467   0.490081
 H 0.223 0.661 0.967   0.490081
 H 0.223 0.161 0.533   0.490081
 H 0.777 0.339 0.033   0.490081
 C 0.3667 0.7586 0.21143   0.214568
 C 0.46 0.8605 0.29159   0.20717
 C 0.6939 0.8748 0.24292   0.187801
 C 0.6051 0.7674 0.16248   0.231437
 C 0.6333 0.7414 0.71143   0.214568
 C 0.54 0.6395 0.79159   0.20717
 C 0.3061 0.6252 0.74292   0.187801
 C 0.3949 0.7326 0.66248   0.231437
 C 0.6333 0.2414 0.78857   0.214568
 C 0.54 0.1395 0.70841   0.20717
 C 0.3061 0.1252 0.75708   0.187802
 C 0.3949 0.2326 0.83752   0.231439
 C 0.3667 0.2586 0.28857   0.214568
 C 0.46 0.3605 0.20841   0.20717
 C 0.6939 0.3748 0.25708   0.187802
 C 0.6051 0.2674 0.33752   0.231439
 O 0.1635 0.6946 0.19792   -0.430143
 O 0.362 0.9094 0.37197   -0.519544
 O 0.8916 0.9479 0.25912   -0.435443
 O 0.6952 0.7069 0.08709   -0.501121
 O 0.8059 0.91582 0.4829   -0.997433
 O 0.8365 0.8054 0.69792   -0.430143
 O 0.638 0.5906 0.87197   -0.519544
 O 0.1084 0.5521 0.75912   -0.435443
 O 0.3048 0.7931 0.58709   -0.501122
 O 0.1941 0.58418 0.9829   -0.997433
 O 0.8365 0.3054 0.80208   -0.430146
 O 0.638 0.0906 0.62803   -0.519544
 O 0.1084 0.0521 0.74088   -0.435447
 O 0.3048 0.2931 0.91291   -0.501121
 O 0.1941 0.08418 0.5171   -0.997433
 O 0.1635 0.1946 0.30208   -0.430146
 O 0.362 0.4094 0.12803   -0.519544
 O 0.8916 0.4479 0.24088   -0.435447
 O 0.6952 0.2069 0.41291   -0.501122
 O 0.8059 0.41582 0.0171   -0.997433
