{'_ref': 'TBD', '_srcid': 'CAKYAQ_clean', 'submitters': [{'name': 'Dalar Nazarian Jeff Camp and David Sholl', 'email': 'dalar@gatech.edu jcamp6@gatech.edu'}], '_method': 'VASP DFT with PBE;DDEC'}
data_Ni3H8C20(N3O2)4
_symmetry_space_group_name_H-M   'P 1'
_cell_length_a   8.19330001
_cell_length_b   8.86460018
_cell_length_c   12.20280000
_cell_angle_alpha   110.05699780
_cell_angle_beta   92.89700220
_cell_angle_gamma   105.74099699
_symmetry_Int_Tables_number   1
_chemical_formula_structural   Ni3H8C20(N3O2)4
_chemical_formula_sum   'Ni3 H8 C20 N12 O8'
_cell_volume   791.15037484
_cell_formula_units_Z   1
loop_
 _symmetry_equiv_pos_site_id
 _symmetry_equiv_pos_as_xyz
  1  'x, y, z'
loop_
 _atom_site_label
 _atom_site_fract_x
 _atom_site_fract_y
 _atom_site_fract_z
 _atom_site_charge
 Ni 0.02606 0.05655 0.17948   0.500473
 Ni 0.97394 0.94345 0.82052   0.500471
 Ni 0.5 0.5 0.5   0.913992
 H 0.0327 0.7816 0.5495   0.120063
 H 0.1985 0.6245 0.4519   0.116315
 H 0.4315 0.6693 0.7535   0.118139
 H 0.3757 0.8692 0.3037   0.103399
 H 0.9673 0.2184 0.4505   0.120063
 H 0.8015 0.3755 0.5481   0.116315
 H 0.5685 0.3307 0.2465   0.118139
 H 0.6243 0.1308 0.6963   0.103399
 C 0.2474 0.8367 0.8968   0.284795
 C 0.2446 0.7787 0.7686   0.11092
 C 0.1125 0.7582 0.5929   0.09442
 C 0.214 0.6647 0.534   0.070264
 C 0.3488 0.6894 0.7101   0.116971
 C 0.2737 0.1334 0.3942   0.659136
 C 0.3919 0.0678 0.4517   -0.145363
 C 0.4677 0.1475 0.5712   -0.091057
 C 0.4516 0.3127 0.6528   0.664236
 C 0.4257 0.9219 0.3828   -0.034175
 C 0.7526 0.1633 0.1032   0.284796
 C 0.7554 0.2213 0.2314   0.11092
 C 0.8875 0.2418 0.4071   0.094421
 C 0.786 0.3353 0.466   0.070266
 C 0.6512 0.3106 0.2899   0.116971
 C 0.7263 0.8666 0.6058   0.659136
 C 0.6081 0.9322 0.5483   -0.145363
 C 0.5323 0.8525 0.4288   -0.091057
 C 0.5484 0.6873 0.3472   0.664236
 C 0.5743 0.0781 0.6172   -0.034176
 N 0.1359 0.9141 0.94404   -0.254335
 N 0.1661 0.9434 0.05926   0.024286
 N 0.2917 0.8859 0.0802   -0.052111
 N 0.345 0.8171 0.9777   -0.268933
 N 0.1266 0.8153 0.71027   -0.20263
 N 0.3332 0.6311 0.59203   -0.231468
 N 0.8641 0.0859 0.05596   -0.254336
 N 0.8339 0.0566 0.94074   0.024286
 N 0.7083 0.1141 0.9198   -0.052111
 N 0.655 0.1829 0.0223   -0.268934
 N 0.8734 0.1847 0.28973   -0.20263
 N 0.6668 0.3689 0.40797   -0.231469
 O 0.1567 0.0238 0.3125   -0.485125
 O 0.2942 0.289 0.42789   -0.580248
 O 0.5467 0.4448 0.64332   -0.584828
 O 0.358 0.3137 0.727   -0.510137
 O 0.8433 0.9762 0.6875   -0.485125
 O 0.7058 0.711 0.57211   -0.580249
 O 0.4533 0.5552 0.35668   -0.584829
 O 0.642 0.6863 0.273   -0.510138
