{'_ref': 'TBD', '_srcid': 'CAKYAQ_clean', 'submitters': [{'name': 'Dalar Nazarian Jeff Camp and David Sholl', 'email': 'dalar@gatech.edu jcamp6@gatech.edu'}], '_method': 'VASP DFT with PBE;DDEC'}
data_Gd2H6(C3O4)3
_symmetry_space_group_name_H-M   'P 1'
_cell_length_a   10.51250015
_cell_length_b   10.51249985
_cell_length_c   10.86520000
_cell_angle_alpha   101.11230191
_cell_angle_beta   117.54569787
_cell_angle_gamma   108.83399983
_symmetry_Int_Tables_number   1
_chemical_formula_structural   Gd2H6(C3O4)3
_chemical_formula_sum   'Gd4 H12 C18 O24'
_cell_volume   920.1349372
_cell_formula_units_Z   2
loop_
 _symmetry_equiv_pos_site_id
 _symmetry_equiv_pos_as_xyz
  1  'x, y, z'
loop_
 _atom_site_label
 _atom_site_fract_x
 _atom_site_fract_y
 _atom_site_fract_z
 _atom_site_charge
 Gd 0.05203 0.36555 0.12043   2.257336
 Gd 0.74512 0.9316 0.37957   2.257678
 Gd 0.94797 0.63445 0.87957   2.257336
 Gd 0.25488 0.0684 0.62043   2.257678
 H 0.46 0.3849 0.1819   0.197202
 H 0.6041 0.4888 0.3505   0.177395
 H 0.887 0.552 0.281   0.179681
 H 0.703 0.2781 0.3181   0.197911
 H 0.6383 0.2536 0.1495   0.177139
 H 0.771 0.606 0.219   0.1819
 H 0.54 0.6151 0.8181   0.197202
 H 0.3959 0.5112 0.6495   0.177395
 H 0.113 0.448 0.719   0.179681
 H 0.297 0.7219 0.6819   0.197911
 H 0.3617 0.7464 0.8505   0.177139
 H 0.229 0.394 0.781   0.1819
 C 0.453 0.5724 0.2566   0.954251
 C 0.4876 0.4476 0.278   -0.629444
 C 0.4022 0.3511 0.3315   0.863603
 C 0.9017 0.6249 0.1248   0.832631
 C 0.8158 0.1964 0.2434   0.95526
 C 0.6696 0.2096 0.222   -0.633134
 C 0.5196 0.0707 0.1685   0.869587
 C 0.000100000000003 0.7769 0.3752   0.829555
 C 0.547 0.4276 0.7434   0.954251
 C 0.5124 0.5524 0.722   -0.629444
 C 0.5978 0.6489 0.6685   0.863603
 C 0.0983 0.3751 0.8752   0.832631
 C 0.1842 0.8036 0.7566   0.95526
 C 0.3304 0.7904 0.778   -0.633134
 C 0.4804 0.9293 0.8315   0.869587
 C 0.9999 0.2231 0.6248   0.829555
 C 0.8756 0.6256 0.25   -0.513604
 C 0.1244 0.3744 0.75   -0.513604
 O 0.3129 0.5582 0.2071   -0.746352
 O 0.5687 0.686 0.2847   -0.852212
 O 0.2528 0.3098 0.2746   -0.838222
 O 0.4826 0.3125 0.4275   -0.618984
 O 0.962 0.5491 0.0921   -0.85898
 O 0.8691 0.7071 0.0584   -0.662113
 O 0.8511 0.1058 0.2929   -0.745886
 O 0.9013 0.284 0.2153   -0.851951
 O 0.5352 0.9782 0.2254   -0.842099
 O 0.385 0.0551 0.0725   -0.619851
 O 0.957 0.8699 0.4079   -0.858613
 O 0.1487 0.8107 0.4416   -0.659682
 O 0.6871 0.4418 0.7929   -0.746352
 O 0.4313 0.314 0.7153   -0.852212
 O 0.7472 0.6902 0.7254   -0.838222
 O 0.5174 0.6875 0.5725   -0.618984
 O 0.038 0.4509 0.9079   -0.85898
 O 0.1309 0.2929 0.9416   -0.662113
 O 0.1489 0.8942 0.7071   -0.745885
 O 0.0987 0.716 0.7847   -0.851951
 O 0.4648 0.0218 0.7746   -0.842099
 O 0.615 0.9449 0.9275   -0.619851
 O 0.043 0.1301 0.5921   -0.858613
 O 0.8513 0.1893 0.5584   -0.659682
