{'_ref': 'TBD', '_srcid': 'CAKYAQ_clean', 'submitters': [{'name': 'Dalar Nazarian Jeff Camp and David Sholl', 'email': 'dalar@gatech.edu jcamp6@gatech.edu'}], '_method': 'VASP DFT with PBE;DDEC'}
data_CuH4C13NO6
_symmetry_space_group_name_H-M   'P 1'
_cell_length_a   18.79399968
_cell_length_b   18.79399951
_cell_length_c   19.93510000
_cell_angle_alpha   61.87609940
_cell_angle_beta   61.87609968
_cell_angle_gamma   60.00000062
_symmetry_Int_Tables_number   1
_chemical_formula_structural   CuH4C13NO6
_chemical_formula_sum   'Cu6 H24 C78 N6 O36'
_cell_volume   5115.54584876
_cell_formula_units_Z   6
loop_
 _symmetry_equiv_pos_site_id
 _symmetry_equiv_pos_as_xyz
  1  'x, y, z'
loop_
 _atom_site_label
 _atom_site_fract_x
 _atom_site_fract_y
 _atom_site_fract_z
 _atom_site_charge
 Cu 0.06767 0.49914 0.93405   0.925967
 Cu 0.49914 0.49914 0.93405   0.92609
 Cu 0.49914 0.06767 0.93405   0.925968
 Cu 0.93233 0.50086 0.06595   0.925968
 Cu 0.50086 0.93233 0.06595   0.925968
 Cu 0.50086 0.50086 0.06595   0.92609
 H 0.9792 0.4678 0.7936   0.139238
 H 0.4678 0.7594 0.7936   0.138757
 H 0.7594 0.9792 0.7936   0.138054
 H 0.0208 0.2406 0.2064   0.138054
 H 0.5322 0.0208 0.2064   0.139238
 H 0.2406 0.5322 0.2064   0.138757
 H 0.0208 0.5322 0.2064   0.139238
 H 0.5322 0.2406 0.2064   0.138757
 H 0.2406 0.0208 0.2064   0.138055
 H 0.9792 0.7594 0.7936   0.138055
 H 0.4678 0.9792 0.7936   0.139238
 H 0.7594 0.4678 0.7936   0.138757
 H 0.7694 0.4663 0.9949   0.138078
 H 0.4663 0.7694 0.9949   0.138078
 H 0.7694 0.7694 0.9949   0.138369
 H 0.2306 0.2306 0.0051   0.138369
 H 0.5337 0.2306 0.0051   0.138078
 H 0.2306 0.5337 0.0051   0.138078
 H 0.1263 0.5 0.5   0.134533
 H 0.5 0.8737 0.5   0.134533
 H 0.8737 0.1263 0.5   0.134363
 H 0.8737 0.5 0.5   0.134546
 H 0.5 0.1263 0.5   0.134546
 H 0.1263 0.8737 0.5   0.134379
 C 0.87907 0.46787 0.89899   -0.102193
 C 0.92316 0.46756 0.81982   -0.082133
 C 0.92608 0.47398 0.93976   0.647419
 C 0.9939 0.4636 0.6583   0.461323
 C 0.0032 0.4804 0.5692   -0.091787
 C 0.46787 0.75407 0.89899   -0.103233
 C 0.46756 0.78946 0.81982   -0.080741
 C 0.47398 0.66018 0.93976   0.64838
 C 0.4636 0.8842 0.6583   0.461296
 C 0.4804 0.9472 0.5692   -0.087165
 C 0.75407 0.87907 0.89899   -0.101268
 C 0.78946 0.92316 0.81982   -0.080462
 C 0.66018 0.92608 0.93976   0.646767
 C 0.8842 0.9939 0.6583   0.460711
 C 0.9472 0.0032 0.5692   -0.088802
 C 0.12093 0.24593 0.10101   -0.101268
 C 0.07684 0.21054 0.18018   -0.080462
 C 0.07392 0.33982 0.06024   0.646767
 C 0.0061 0.1158 0.3417   0.460711
 C 0.9968 0.0528 0.4308   -0.088802
 C 0.53213 0.12093 0.10101   -0.102193
 C 0.53244 0.07684 0.18018   -0.082133
 C 0.52602 0.07392 0.06024   0.647419
 C 0.5364 0.0061 0.3417   0.461323
 C 0.5196 0.9968 0.4308   -0.091787
 C 0.24593 0.53213 0.10101   -0.103233
 C 0.21054 0.53244 0.18018   -0.080741
 C 0.33982 0.52602 0.06024   0.64838
 C 0.1158 0.5364 0.3417   0.461296
 C 0.0528 0.5196 0.4308   -0.087165
 C 0.12093 0.53213 0.10101   -0.102193
 C 0.07684 0.53244 0.18018   -0.082132
 C 0.07392 0.52602 0.06024   0.647419
 C 0.0061 0.5364 0.3417   0.461294
 C 0.9968 0.5196 0.4308   -0.091498
 C 0.53213 0.24593 0.10101   -0.103233
 C 0.53244 0.21054 0.18018   -0.08074
 C 0.52602 0.33982 0.06024   0.64838
 C 0.5364 0.1158 0.3417   0.461267
 C 0.5196 0.0528 0.4308   -0.086876
 C 0.24593 0.12093 0.10101   -0.101268
 C 0.21054 0.07684 0.18018   -0.080461
 C 0.33982 0.07392 0.06024   0.646767
 C 0.1158 0.0061 0.3417   0.460677
 C 0.0528 0.9968 0.4308   -0.088455
 C 0.87907 0.75407 0.89899   -0.101268
 C 0.92316 0.78946 0.81982   -0.080461
 C 0.92608 0.66018 0.93976   0.646767
 C 0.9939 0.8842 0.6583   0.460677
 C 0.0032 0.9472 0.5692   -0.088455
 C 0.46787 0.87907 0.89899   -0.102193
 C 0.46756 0.92316 0.81982   -0.082132
 C 0.47398 0.92608 0.93976   0.647419
 C 0.4636 0.9939 0.6583   0.461294
 C 0.4804 0.0032 0.5692   -0.091498
 C 0.75407 0.46787 0.89899   -0.103233
 C 0.78946 0.46756 0.81982   -0.08074
 C 0.66018 0.47398 0.93976   0.64838
 C 0.8842 0.4636 0.6583   0.461267
 C 0.9472 0.4804 0.5692   -0.086876
 C 0.79556 0.46726 0.94162   -0.013181
 C 0.875 0.4672 0.7828   0.086505
 C 0.46726 0.79556 0.94162   -0.01318
 C 0.4672 0.875 0.7828   0.086506
 C 0.79556 0.79556 0.94162   -0.015219
 C 0.875 0.875 0.7828   0.085886
 C 0.20444 0.20444 0.05838   -0.015219
 C 0.125 0.125 0.2172   0.085886
 C 0.53274 0.20444 0.05838   -0.01318
 C 0.5328 0.125 0.2172   0.086506
 C 0.20444 0.53274 0.05838   -0.01318
 C 0.125 0.5328 0.2172   0.086506
 C 0.0768 0.5 0.5   -0.030985
 C 0.5 0.9232 0.5   -0.030985
 C 0.9232 0.0768 0.5   -0.031255
 C 0.9232 0.5 0.5   -0.031081
 C 0.5 0.0768 0.5   -0.031081
 C 0.0768 0.9232 0.5   -0.031369
 N 0.9154 0.4773 0.6919   -0.104354
 N 0.4773 0.9154 0.6919   -0.104354
 N 0.9154 0.9154 0.6919   -0.104087
 N 0.0846 0.0846 0.3081   -0.104087
 N 0.5227 0.0846 0.3081   -0.104354
 N 0.0846 0.5227 0.3081   -0.104354
 O 0.00085 0.47765 0.89785   -0.542311
 O 0.88533 0.47913 0.01071   -0.557599
 O 0.05 0.47 0.67   -0.442354
 O 0.47765 0.62365 0.89785   -0.542811
 O 0.47913 0.62483 0.01071   -0.557533
 O 0.47 0.81 0.67   -0.443451
 O 0.62365 0.00085 0.89785   -0.542085
 O 0.62483 0.88533 0.01071   -0.557227
 O 0.81 0.05 0.67   -0.442786
 O 0.99915 0.37635 0.10215   -0.542085
 O 0.11467 0.37517 0.98929   -0.557227
 O 0.95 0.19 0.33   -0.442786
 O 0.52235 0.99915 0.10215   -0.542311
 O 0.52087 0.11467 0.98929   -0.557599
 O 0.53 0.95 0.33   -0.442354
 O 0.37635 0.52235 0.10215   -0.542811
 O 0.37517 0.52087 0.98929   -0.557533
 O 0.19 0.53 0.33   -0.443451
 O 0.99915 0.52235 0.10215   -0.542311
 O 0.11467 0.52087 0.98929   -0.557599
 O 0.95 0.53 0.33   -0.442352
 O 0.52235 0.37635 0.10215   -0.542811
 O 0.52087 0.37517 0.98929   -0.557532
 O 0.53 0.19 0.33   -0.443449
 O 0.37635 0.99915 0.10215   -0.542085
 O 0.37517 0.11467 0.98929   -0.557227
 O 0.19 0.95 0.33   -0.442784
 O 0.00085 0.62365 0.89785   -0.542085
 O 0.88533 0.62483 0.01071   -0.557227
 O 0.05 0.81 0.67   -0.442784
 O 0.47765 0.00085 0.89785   -0.542311
 O 0.47913 0.88533 0.01071   -0.557599
 O 0.47 0.05 0.67   -0.442352
 O 0.62365 0.47765 0.89785   -0.542811
 O 0.62483 0.47913 0.01071   -0.557532
 O 0.81 0.47 0.67   -0.443449
