{'_ref': 'TBD', '_srcid': 'CAKYAQ_clean', 'submitters': [{'name': 'Dalar Nazarian Jeff Camp and David Sholl', 'email': 'dalar@gatech.edu jcamp6@gatech.edu'}], '_method': 'VASP DFT with PBE;DDEC'}
data_DyH6(C2O)6
_symmetry_space_group_name_H-M   'P 1'
_cell_length_a   8.52200017
_cell_length_b   10.15400058
_cell_length_c   11.06700000
_cell_angle_alpha   64.72599855
_cell_angle_beta   71.73800014
_cell_angle_gamma   79.58099938
_symmetry_Int_Tables_number   1
_chemical_formula_structural   DyH6(C2O)6
_chemical_formula_sum   'Dy2 H12 C24 O12'
_cell_volume   821.131742472
_cell_formula_units_Z   2
loop_
 _symmetry_equiv_pos_site_id
 _symmetry_equiv_pos_as_xyz
  1  'x, y, z'
loop_
 _atom_site_label
 _atom_site_fract_x
 _atom_site_fract_y
 _atom_site_fract_z
 _atom_site_charge
 Dy 0.36783 0.06183 0.34349   2.205276
 Dy 0.63217 0.93817 0.65651   2.205273
 H 0.565 0.7214 0.3151   0.106625
 H 0.4908 0.4717 0.72   0.11847
 H 0.9607 0.1472 0.1203   0.088582
 H 0.7797 0.8826 0.0171   0.109964
 H 0.274 0.4398 0.9169   0.103375
 H 0.8642 0.3781 0.2307   0.100805
 H 0.435 0.2786 0.6849   0.106622
 H 0.5092 0.5283 0.28   0.118467
 H 0.0393 0.8528 0.8797   0.088584
 H 0.2203 0.1174 0.9829   0.109965
 H 0.726 0.5602 0.0831   0.103374
 H 0.1358 0.6219 0.7693   0.100805
 C 0.5637 0.7402 0.5489   0.778618
 C 0.5303 0.6162 0.5217   -0.135775
 C 0.5382 0.6327 0.3895   -0.07021
 C 0.4938 0.4831 0.6314   -0.039278
 C 0.6752 0.0419 0.1661   0.694225
 C 0.8445 0.0199 0.0801   -0.104553
 C 0.9767 0.0886 0.0714   -0.059012
 C 0.8681 0.9301 0.0097   -0.07134
 C 0.1751 0.269 0.1802   0.700761
 C 0.0826 0.389 0.0891   -0.103109
 C 0.1631 0.4639 0.9505   -0.05132
 C 0.9192 0.4265 0.138   -0.044506
 C 0.4363 0.2598 0.4511   0.77862
 C 0.4697 0.3838 0.4783   -0.135779
 C 0.4618 0.3673 0.6105   -0.070193
 C 0.5062 0.5169 0.3686   -0.039259
 C 0.3248 0.9581 0.8339   0.694223
 C 0.1555 0.9801 0.9199   -0.104549
 C 0.0233 0.9114 0.9286   -0.059025
 C 0.1319 0.0699 0.9903   -0.071351
 C 0.8249 0.731 0.8198   0.700761
 C 0.9174 0.611 0.9109   -0.10311
 C 0.8369 0.5361 0.0495   -0.051322
 C 0.0808 0.5735 0.862   -0.044506
 O 0.527 0.8699 0.4756   -0.890629
 O 0.6288 0.7112 0.6439   -0.641139
 O 0.6547 0.1216 0.233   -0.679018
 O 0.5562 0.9818 0.1709   -0.680253
 O 0.1032 0.198 0.3066   -0.769547
 O 0.324 0.2381 0.13   -0.667014
 O 0.473 0.1301 0.5244   -0.890629
 O 0.3712 0.2888 0.3561   -0.641139
 O 0.3453 0.8784 0.767   -0.679018
 O 0.4438 0.0182 0.8291   -0.680251
 O 0.8968 0.802 0.6934   -0.769547
 O 0.676 0.7619 0.87   -0.667014
