{'_ref': 'TBD', '_srcid': 'CAKYAQ_clean', 'submitters': [{'name': 'Dalar Nazarian Jeff Camp and David Sholl', 'email': 'dalar@gatech.edu jcamp6@gatech.edu'}], '_method': 'VASP DFT with PBE;DDEC'}
data_CeH12C21(NO2)3
_symmetry_space_group_name_H-M   'P 1'
_cell_length_a   15.74279962
_cell_length_b   16.55620040
_cell_length_c   16.97600000
_cell_angle_alpha   99.86600075
_cell_angle_beta   95.61700125
_cell_angle_gamma   115.05999854
_symmetry_Int_Tables_number   1
_chemical_formula_structural   CeH12C21(NO2)3
_chemical_formula_sum   'Ce4 H48 C84 N12 O24'
_cell_volume   3876.15858648
_cell_formula_units_Z   4
loop_
 _symmetry_equiv_pos_site_id
 _symmetry_equiv_pos_as_xyz
  1  'x, y, z'
loop_
 _atom_site_label
 _atom_site_fract_x
 _atom_site_fract_y
 _atom_site_fract_z
 _atom_site_charge
 Ce 0.47106 0.46071 0.36548   2.321419
 Ce 0.44698 0.51738 0.13974   2.212149
 Ce 0.52894 0.53929 0.63452   2.321419
 Ce 0.55302 0.48262 0.86026   2.212149
 H 0.7631 0.5147 0.1399   0.089569
 H 0.8967 0.4927 0.1893   0.125973
 H 0.8727 0.5848 0.4144   0.109059
 H 0.7256 0.5734 0.3639   0.090035
 H 0.1162 0.4944 0.3189   0.121392
 H 0.2512 0.4854 0.3716   0.081988
 H 0.2656 0.6273 0.5883   0.093157
 H 0.1284 0.6377 0.5415   0.134652
 H 0.4418 0.238 0.1041   0.106757
 H 0.45 0.0999 0.0908   0.11425
 H 0.5173 0.1176 0.8754   0.119862
 H 0.5253 0.2624 0.894   0.073105
 H 0.1238 0.2288 0.2604   0.111947
 H 0.0125 0.0871 0.1791   0.121952
 H 0.1571 0.1311 0.9981   0.117379
 H 0.2724 0.2664 0.0829   0.088155
 H 0.2792 0.254 0.6171   0.103045
 H 0.1364 0.1244 0.6052   0.11377
 H 0.0986 0.0806 0.3611   0.119932
 H 0.2435 0.2086 0.3748   0.088464
 H 0.5536 0.8368 0.2819   0.110605
 H 0.5466 0.958 0.3691   0.103097
 H 0.4426 0.8011 0.5213   0.116716
 H 0.4407 0.6796 0.4336   0.098231
 H 0.2369 0.4853 0.8601   0.089569
 H 0.1033 0.5073 0.8107   0.125974
 H 0.1273 0.4152 0.5856   0.109059
 H 0.2744 0.4266 0.6361   0.090035
 H 0.8838 0.5056 0.6811   0.121392
 H 0.7488 0.5146 0.6284   0.081988
 H 0.7344 0.3727 0.4117   0.093157
 H 0.8716 0.3623 0.4585   0.134652
 H 0.5582 0.762 0.8959   0.106757
 H 0.55 0.9001 0.9092   0.114253
 H 0.4827 0.8824 0.1246   0.119859
 H 0.4747 0.7376 0.106   0.073105
 H 0.8762 0.7712 0.7396   0.111948
 H 0.9875 0.9129 0.8209   0.121951
 H 0.8429 0.8689 0.0019   0.117381
 H 0.7276 0.7336 0.9171   0.088155
 H 0.7208 0.746 0.3829   0.103045
 H 0.8636 0.8756 0.3948   0.113772
 H 0.9014 0.9194 0.6389   0.119931
 H 0.7565 0.7914 0.6252   0.088464
 H 0.4464 0.1632 0.7181   0.110604
 H 0.4534 0.042 0.6309   0.103098
 H 0.5574 0.1989 0.4787   0.116714
 H 0.5593 0.3204 0.5664   0.098231
 C 0.7306 0.5433 0.2483   -0.142606
 C 0.7829 0.524 0.1956   -0.039105
 C 0.8674 0.5178 0.2241   -0.180692
 C 0.9035 0.5518 0.3074   0.186063
 C 0.8506 0.569 0.3584   -0.156975
 C 0.7628 0.5632 0.3279   0.00746
 C 0.1066 0.5618 0.4273   0.197935
 C 0.1444 0.5192 0.3737   -0.190016
 C 0.2265 0.5158 0.4065   0.022767
 C 0.2754 0.5534 0.4864   -0.173531
 C 0.235 0.5991 0.5344   0.002408
 C 0.1521 0.6055 0.5073   -0.181678
 C 0.3607 0.5476 0.5178   0.809062
 C 0.4861 0.2641 0.0025   -0.178479
 C 0.4623 0.2161 0.0593   -0.008056
 C 0.4678 0.1342 0.0519   -0.156153
 C 0.5 0.1043 0.9864   0.189556
 C 0.51 0.1456 0.9249   -0.163524
 C 0.5096 0.2296 0.9341   0.005705
 C 0.286 0.3463 0.2342   0.745104
 C 0.2095 0.2607 0.1774   -0.150591
 C 0.131 0.2085 0.208   -0.023473
 C 0.0634 0.1249 0.1583   -0.158289
 C 0.07 0.0975 0.0809   0.192321
 C 0.1501 0.1501 0.0509   -0.153436
 C 0.2184 0.2311 0.1018   -0.022846
 C 0.3648 0.3306 0.5013   0.796592
 C 0.2757 0.2458 0.4969   -0.161502
 C 0.2433 0.2194 0.5657   -0.01266
 C 0.1576 0.1416 0.5587   -0.166414
 C 0.104 0.0899 0.4823   0.181688
 C 0.1348 0.1147 0.4125   -0.184083
 C 0.2214 0.1923 0.4213   -0.008578
 C 0.492 0.6639 0.2899   0.710898
 C 0.4912 0.7424 0.3484   -0.138112
 C 0.528 0.8285 0.3287   -0.045935
 C 0.5246 0.9011 0.3821   -0.152157
 C 0.4901 0.8915 0.4525   0.192138
 C 0.4619 0.8084 0.4719   -0.14934
 C 0.4619 0.7358 0.4193   0.002559
 C 0.4791 0.3518 0.0137   0.827157
 C 0.6363 0.532 0.2155   0.806694
 C 0.2694 0.4567 0.7517   -0.142606
 C 0.2171 0.476 0.8044   -0.039104
 C 0.1326 0.4822 0.7759   -0.180692
 C 0.0965 0.4482 0.6926   0.186063
 C 0.1494 0.431 0.6416   -0.156975
 C 0.2372 0.4368 0.6721   0.00746
 C 0.8934 0.4382 0.5727   0.197935
 C 0.8556 0.4808 0.6263   -0.190016
 C 0.7735 0.4842 0.5935   0.022767
 C 0.7246 0.4466 0.5136   -0.173531
 C 0.765 0.4009 0.4656   0.002408
 C 0.8479 0.3945 0.4927   -0.181678
 C 0.6393 0.4524 0.4822   0.809062
 C 0.5139 0.7359 0.9975   -0.178479
 C 0.5377 0.7839 0.9407   -0.008058
 C 0.5322 0.8658 0.9481   -0.156148
 C 0.5 0.8957 0.0136   0.189542
 C 0.49 0.8544 0.0751   -0.163524
 C 0.4904 0.7704 0.0659   0.005706
 C 0.714 0.6537 0.7658   0.745104
 C 0.7905 0.7393 0.8226   -0.150591
 C 0.869 0.7915 0.792   -0.023472
 C 0.9366 0.8751 0.8417   -0.158289
 C 0.93 0.9025 0.9191   0.19231
 C 0.8499 0.8499 0.9491   -0.153433
 C 0.7816 0.7689 0.8982   -0.022847
 C 0.6352 0.6694 0.4987   0.796592
 C 0.7243 0.7542 0.5031   -0.161502
 C 0.7567 0.7806 0.4343   -0.012662
 C 0.8424 0.8584 0.4413   -0.16641
 C 0.896 0.9101 0.5177   0.181678
 C 0.8652 0.8853 0.5875   -0.184084
 C 0.7786 0.8077 0.5787   -0.008577
 C 0.508 0.3361 0.7101   0.710898
 C 0.5088 0.2576 0.6516   -0.138112
 C 0.472 0.1715 0.6713   -0.045936
 C 0.4754 0.0989 0.6179   -0.152152
 C 0.5099 0.1085 0.5475   0.192124
 C 0.5381 0.1916 0.5281   -0.149341
 C 0.5381 0.2642 0.5807   0.00256
 C 0.5209 0.6482 0.9863   0.827157
 C 0.3637 0.468 0.7845   0.806694
 N 0.992 0.546 0.3315   -0.153425
 N 0.0223 0.5721 0.4038   -0.141924
 N 0.5049 0.0161 0.9708   -0.134066
 N 0.9947 0.0125 0.034   -0.153872
 N 0.0128 0.0078 0.4686   -0.146297
 N 0.4889 0.9645 0.5106   -0.148715
 N 0.008 0.454 0.6685   -0.153425
 N 0.9777 0.4279 0.5962   -0.141924
 N 0.4951 0.9839 0.0292   -0.133936
 N 0.0053 0.9875 0.966   -0.153772
 N 0.9872 0.9922 0.5314   -0.146199
 N 0.5111 0.0355 0.4894   -0.148592
 O 0.5694 0.5058 0.2536   -0.840319
 O 0.6251 0.551 0.152   -0.657399
 O 0.3939 0.5759 0.5915   -0.711091
 O 0.4009 0.5174 0.4685   -0.825581
 O 0.4555 0.3794 0.0779   -0.71902
 O 0.3522 0.3984 0.2041   -0.876855
 O 0.2867 0.3619 0.3072   -0.619853
 O 0.3997 0.3383 0.4401   -0.741467
 O 0.3982 0.3853 0.5698   -0.726139
 O 0.445 0.584 0.3022   -0.80045
 O 0.5324 0.6782 0.2309   -0.652823
 O 0.5049 0.3983 0.9625   -0.815454
 O 0.4306 0.4942 0.7464   -0.840319
 O 0.3749 0.449 0.848   -0.657399
 O 0.6061 0.4241 0.4085   -0.71109
 O 0.5991 0.4826 0.5315   -0.825581
 O 0.5445 0.6206 0.9221   -0.71902
 O 0.6478 0.6016 0.7959   -0.876855
 O 0.7133 0.6381 0.6928   -0.619853
 O 0.6003 0.6617 0.5599   -0.741467
 O 0.6018 0.6147 0.4302   -0.726139
 O 0.555 0.416 0.6978   -0.80045
 O 0.4676 0.3218 0.7691   -0.652823
 O 0.4951 0.6017 0.0375   -0.815454
