{'_ref': 'TBD', '_srcid': 'CAKYAQ_clean', 'submitters': [{'name': 'Dalar Nazarian Jeff Camp and David Sholl', 'email': 'dalar@gatech.edu jcamp6@gatech.edu'}], '_method': 'VASP DFT with PBE;DDEC'}
data_GdH12C21(NO2)3
_symmetry_space_group_name_H-M   'P 1'
_cell_length_a   16.06359980
_cell_length_b   16.06359963
_cell_length_c   27.91500000
_cell_angle_alpha   79.89019932
_cell_angle_beta   79.89019943
_cell_angle_gamma   63.17629923
_symmetry_Int_Tables_number   1
_chemical_formula_structural   GdH12C21(NO2)3
_chemical_formula_sum   'Gd4 H48 C84 N12 O24'
_cell_volume   6290.13858665
_cell_formula_units_Z   4
loop_
 _symmetry_equiv_pos_site_id
 _symmetry_equiv_pos_as_xyz
  1  'x, y, z'
loop_
 _atom_site_label
 _atom_site_fract_x
 _atom_site_fract_y
 _atom_site_fract_z
 _atom_site_charge
 Gd 0.53127 0.06657 0.04611   2.137063
 Gd 0.93343 0.46873 0.45389   2.137063
 Gd 0.46873 0.93343 0.95389   2.137063
 Gd 0.06657 0.53127 0.54611   2.137063
 H 0.6337 0.0649 0.2035   0.114598
 H 0.7077 0.1065 0.2535   0.120953
 H 0.8412 0.1948 0.1335   0.132863
 H 0.7603 0.1599 0.0855   0.112503
 H 0.6752 0.1724 0.9101   0.106607
 H 0.7386 0.2334 0.8414   0.126381
 H 0.6328 0.134 0.7575   0.135562
 H 0.5692 0.0678 0.8294   0.11893
 H 0.1762 0.2108 0.9443   0.129193
 H 0.0504 0.3538 0.9571   0.117727
 H 0.1933 0.4119 0.0393   0.118904
 H 0.3181 0.2675 0.0313   0.073352
 H 0.9351 0.3663 0.2965   0.114598
 H 0.8935 0.2923 0.2465   0.120955
 H 0.8052 0.1588 0.3665   0.132863
 H 0.8401 0.2397 0.4145   0.112503
 H 0.8276 0.3248 0.5899   0.106607
 H 0.7666 0.2614 0.6586   0.126381
 H 0.866 0.3672 0.7425   0.135561
 H 0.9322 0.4308 0.6706   0.11893
 H 0.7892 0.8238 0.5557   0.129192
 H 0.6462 0.9496 0.5429   0.117727
 H 0.5881 0.8067 0.4607   0.118904
 H 0.7325 0.6819 0.4687   0.073352
 H 0.3663 0.9351 0.7965   0.114598
 H 0.2923 0.8935 0.7465   0.120953
 H 0.1588 0.8052 0.8665   0.132863
 H 0.2397 0.8401 0.9145   0.112503
 H 0.3248 0.8276 0.0899   0.106607
 H 0.2614 0.7666 0.1586   0.126381
 H 0.3672 0.866 0.2425   0.135561
 H 0.4308 0.9322 0.1706   0.118929
 H 0.8238 0.7892 0.0557   0.129193
 H 0.9496 0.6462 0.0429   0.117726
 H 0.8067 0.5881 0.9607   0.118901
 H 0.6819 0.7325 0.9687   0.073352
 H 0.0649 0.6337 0.7035   0.114598
 H 0.1065 0.7077 0.7535   0.120955
 H 0.1948 0.8412 0.6335   0.132863
 H 0.1599 0.7603 0.5855   0.112503
 H 0.1724 0.6752 0.4101   0.106607
 H 0.2334 0.7386 0.3414   0.12638
 H 0.134 0.6328 0.2575   0.13556
 H 0.0678 0.5692 0.3294   0.118929
 H 0.2108 0.1762 0.4443   0.129193
 H 0.3538 0.0504 0.4571   0.117726
 H 0.4119 0.1933 0.5393   0.118901
 H 0.2675 0.3181 0.5313   0.073352
 C 0.6449 0.0765 0.10989   0.677738
 C 0.7042 0.0928 0.13883   -0.120309
 C 0.6782 0.087 0.1899   -0.045184
 C 0.7201 0.1147 0.21964   -0.155702
 C 0.7801 0.1545 0.1988   0.220509
 C 0.8 0.169 0.14743   -0.164743
 C 0.7557 0.1431 0.11911   -0.01652
 C 0.5787 0.0759 0.92305   0.788334
 C 0.618 0.113 0.87716   -0.165478
 C 0.6674 0.1632 0.87949   -0.012399
 C 0.7052 0.2002 0.8388   -0.152714
 C 0.6929 0.1873 0.7954   0.239117
 C 0.6415 0.1397 0.7886   -0.169989
 C 0.6033 0.1007 0.83165   -0.017572
 C 0.3353 0.1297 0.98096   0.774619
 C 0.25946 0.22306 0.98751   -0.141618
 C 0.1791 0.2499 0.96418   -0.030338
 C 0.1049 0.3357 0.9715   -0.144871
 C 0.11033 0.39773 0.00101   0.232728
 C 0.1892 0.3708 0.02116   -0.144491
 C 0.26474 0.28474 0.01614   -0.034163
 C 0.9235 0.3551 0.39011   0.677738
 C 0.9072 0.2958 0.36117   -0.120308
 C 0.913 0.3218 0.3101   -0.045184
 C 0.8853 0.2799 0.28036   -0.155701
 C 0.8455 0.2199 0.3012   0.220506
 C 0.831 0.2 0.35257   -0.164744
 C 0.8569 0.2443 0.38089   -0.016519
 C 0.9241 0.4213 0.57695   0.788334
 C 0.887 0.382 0.62284   -0.165478
 C 0.8368 0.3326 0.62051   -0.012399
 C 0.7998 0.2948 0.6612   -0.152713
 C 0.8127 0.3071 0.7046   0.239115
 C 0.8603 0.3585 0.7114   -0.169989
 C 0.8993 0.3967 0.66835   -0.017572
 C 0.8703 0.6647 0.51904   0.77462
 C 0.77694 0.74054 0.51249   -0.141618
 C 0.7501 0.8209 0.53582   -0.030336
 C 0.6643 0.8951 0.5285   -0.144873
 C 0.60227 0.88967 0.49899   0.232729
 C 0.6292 0.8108 0.47884   -0.144492
 C 0.71526 0.73526 0.48386   -0.034162
 C 0.3551 0.9235 0.89011   0.677738
 C 0.2958 0.9072 0.86117   -0.120309
 C 0.3218 0.913 0.8101   -0.045184
 C 0.2799 0.8853 0.78036   -0.155702
 C 0.2199 0.8455 0.8012   0.220509
 C 0.2 0.831 0.85257   -0.164743
 C 0.2443 0.8569 0.88089   -0.01652
 C 0.4213 0.9241 0.07695   0.788334
 C 0.382 0.887 0.12284   -0.165478
 C 0.3326 0.8368 0.12051   -0.012399
 C 0.2948 0.7998 0.1612   -0.152714
 C 0.3071 0.8127 0.2046   0.239116
 C 0.3585 0.8603 0.2114   -0.169989
 C 0.3967 0.8993 0.16835   -0.017572
 C 0.6647 0.8703 0.01904   0.774619
 C 0.74054 0.77694 0.01249   -0.141617
 C 0.8209 0.7501 0.03582   -0.030338
 C 0.8951 0.6643 0.0285   -0.14487
 C 0.88967 0.60227 0.99899   0.232725
 C 0.8108 0.6292 0.97884   -0.144491
 C 0.73526 0.71526 0.98386   -0.034162
 C 0.0765 0.6449 0.60989   0.677738
 C 0.0928 0.7042 0.63883   -0.120308
 C 0.087 0.6782 0.6899   -0.045184
 C 0.1147 0.7201 0.71964   -0.155701
 C 0.1545 0.7801 0.6988   0.220505
 C 0.169 0.8 0.64743   -0.164743
 C 0.1431 0.7557 0.61911   -0.016519
 C 0.0759 0.5787 0.42305   0.788334
 C 0.113 0.618 0.37716   -0.165478
 C 0.1632 0.6674 0.37949   -0.012399
 C 0.2002 0.7052 0.3388   -0.152713
 C 0.1873 0.6929 0.2954   0.239115
 C 0.1397 0.6415 0.2886   -0.169989
 C 0.1007 0.6033 0.33165   -0.017572
 C 0.1297 0.3353 0.48096   0.77462
 C 0.22306 0.25946 0.48751   -0.141618
 C 0.2499 0.1791 0.46418   -0.030337
 C 0.3357 0.1049 0.4715   -0.144872
 C 0.39773 0.11033 0.50101   0.232726
 C 0.3708 0.1892 0.52116   -0.144491
 C 0.28474 0.26474 0.51614   -0.034162
 N 0.82016 0.19076 0.22522   -0.211263
 N 0.72374 0.22594 0.75095   -0.220642
 N 0.04427 0.48427 0.00515   -0.206909
 N 0.80924 0.17984 0.27478   -0.211228
 N 0.77406 0.27626 0.74905   -0.220629
 N 0.51573 0.95573 0.49485   -0.20691
 N 0.17984 0.80924 0.77478   -0.211263
 N 0.27626 0.77406 0.24905   -0.220642
 N 0.95573 0.51573 0.99485   -0.206887
 N 0.19076 0.82016 0.72522   -0.211228
 N 0.22594 0.72374 0.25095   -0.220629
 N 0.48427 0.04427 0.50515   -0.206888
 O 0.59043 0.04185 0.12606   -0.666689
 O 0.65655 0.10355 0.06349   -0.721584
 O 0.59233 0.08463 0.96494   -0.721756
 O 0.53091 0.03631 0.91401   -0.734957
 O 0.40292 0.10372 0.00289   -0.839481
 O 0.32472 0.0794 0.95384   -0.63834
 O 0.95815 0.40957 0.37394   -0.666689
 O 0.89645 0.34345 0.43651   -0.721584
 O 0.91537 0.40767 0.53506   -0.721756
 O 0.96369 0.46909 0.58599   -0.734957
 O 0.89628 0.59708 0.49711   -0.839482
 O 0.9206 0.67528 0.54616   -0.63834
 O 0.40957 0.95815 0.87394   -0.666689
 O 0.34345 0.89645 0.93651   -0.721584
 O 0.40767 0.91537 0.03506   -0.721756
 O 0.46909 0.96369 0.08599   -0.734957
 O 0.59708 0.89628 0.99711   -0.839481
 O 0.67528 0.9206 0.04616   -0.63834
 O 0.04185 0.59043 0.62606   -0.666689
 O 0.10355 0.65655 0.56349   -0.721584
 O 0.08463 0.59233 0.46494   -0.721756
 O 0.03631 0.53091 0.41401   -0.734957
 O 0.10372 0.40292 0.50289   -0.839482
 O 0.0794 0.32472 0.45384   -0.63834
