{'_ref': 'TBD', '_srcid': 'CAKYAQ_clean', 'submitters': [{'name': 'Dalar Nazarian Jeff Camp and David Sholl', 'email': 'dalar@gatech.edu jcamp6@gatech.edu'}], '_method': 'VASP DFT with PBE;DDEC'}
data_CuH6C10(NO)4
_symmetry_space_group_name_H-M   'P 1'
_cell_length_a   7.77190034
_cell_length_b   12.66125530
_cell_length_c   12.66129968
_cell_angle_alpha   115.92536435
_cell_angle_beta   101.80700006
_cell_angle_gamma   101.80641871
_symmetry_Int_Tables_number   1
_chemical_formula_structural   CuH6C10(NO)4
_chemical_formula_sum   'Cu3 H18 C30 N12 O12'
_cell_volume   1033.80802273
_cell_formula_units_Z   3
loop_
 _symmetry_equiv_pos_site_id
 _symmetry_equiv_pos_as_xyz
  1  'x, y, z'
loop_
 _atom_site_label
 _atom_site_fract_x
 _atom_site_fract_y
 _atom_site_fract_z
 _atom_site_charge
 Cu 0.5 0.0 0.5   0.85457
 Cu 0.0 0.5 0.5   0.857719
 Cu 0.5 0.5 0.0   0.852992
 H 0.075 0.992 0.607   0.07527
 H 0.301 0.74 0.583   0.067119
 H 0.76 0.64 0.482   0.066892
 H 0.468 0.393 0.385   0.075284
 H 0.718 0.417 0.157   0.065118
 H 0.278 0.518 0.158   0.06768
 H 0.083 0.615 0.008   0.075588
 H 0.561 0.843 0.26   0.065072
 H 0.12 0.842 0.36   0.06555
 H 0.925 0.008 0.393   0.075271
 H 0.699 0.26 0.417   0.067119
 H 0.24 0.36 0.518   0.066892
 H 0.532 0.607 0.615   0.075283
 H 0.282 0.583 0.843   0.065118
 H 0.722 0.482 0.842   0.06768
 H 0.917 0.385 0.992   0.07559
 H 0.439 0.157 0.74   0.065072
 H 0.88 0.158 0.64   0.065551
 C 0.70184 0.84814 0.51758   0.674871
 C 0.88288 0.82254 0.5403   -0.256428
 C 0.05888 0.91034 0.5866   0.279914
 C 0.19443 0.76426 0.57533   0.402225
 C 0.87616 0.70472 0.51646   0.258093
 C 0.18426 0.48242 0.33056   0.67622
 C 0.34258 0.4597 0.28224   -0.256566
 C 0.47228 0.4134 0.32374   0.278676
 C 0.6191 0.42467 0.18893   0.404137
 C 0.3597 0.48354 0.18826   0.258584
 C 0.8537 0.66944 0.15186   0.67632
 C 0.06034 0.71776 0.17746   -0.259228
 C 0.14854 0.67626 0.08966   0.279198
 C 0.43017 0.81107 0.23574   0.40455
 C 0.17144 0.81174 0.29528   0.260598
 C 0.29816 0.15186 0.48242   0.674871
 C 0.11712 0.17746 0.4597   -0.256429
 C 0.94112 0.08966 0.4134   0.279914
 C 0.80557 0.23574 0.42467   0.402227
 C 0.12384 0.29528 0.48354   0.258091
 C 0.81574 0.51758 0.66944   0.676217
 C 0.65742 0.5403 0.71776   -0.256566
 C 0.52772 0.5866 0.67626   0.278675
 C 0.3809 0.57533 0.81107   0.40414
 C 0.6403 0.51646 0.81174   0.258584
 C 0.1463 0.33056 0.84814   0.67632
 C 0.93966 0.28224 0.82254   -0.259228
 C 0.85146 0.32374 0.91034   0.279197
 C 0.56983 0.18893 0.76426   0.404553
 C 0.82856 0.18826 0.70472   0.260597
 N 0.03068 0.67404 0.5337   -0.406225
 N 0.21571 0.88118 0.60385   -0.437874
 N 0.49698 0.4663 0.14034   -0.405325
 N 0.61186 0.39615 0.27733   -0.437879
 N 0.35664 0.85966 0.32596   -0.405878
 N 0.33453 0.72267 0.11882   -0.438128
 N 0.96932 0.32596 0.4663   -0.406225
 N 0.78429 0.11882 0.39615   -0.437874
 N 0.50302 0.5337 0.85966   -0.405325
 N 0.38814 0.60385 0.72267   -0.437879
 N 0.64336 0.14034 0.67404   -0.405878
 N 0.66547 0.27733 0.88118   -0.438128
 O 0.71336 0.94454 0.50554   -0.585141
 O 0.5614 0.77859 0.51201   -0.566443
 O 0.20782 0.49446 0.439   -0.58682
 O 0.04939 0.48799 0.26658   -0.566606
 O 0.76882 0.561 0.05546   -0.584485
 O 0.78281 0.73342 0.22141   -0.566574
 O 0.28664 0.05546 0.49446   -0.585141
 O 0.4386 0.22141 0.48799   -0.566443
 O 0.79218 0.50554 0.561   -0.58682
 O 0.95061 0.51201 0.73342   -0.566606
 O 0.23118 0.439 0.94454   -0.584485
 O 0.21719 0.26658 0.77859   -0.566574
