{'_ref': 'TBD', '_srcid': 'CAKYAQ_clean', 'submitters': [{'name': 'Dalar Nazarian Jeff Camp and David Sholl', 'email': 'dalar@gatech.edu jcamp6@gatech.edu'}], '_method': 'VASP DFT with PBE;DDEC'}
data_CdH20C24(N2Cl)2
_symmetry_space_group_name_H-M   'P 1'
_cell_length_a   9.13510000
_cell_length_b   15.58300000
_cell_length_c   17.41900000
_cell_angle_alpha   90.00000000
_cell_angle_beta   90.00000000
_cell_angle_gamma   90.00000000
_symmetry_Int_Tables_number   1
_chemical_formula_structural   CdH20C24(N2Cl)2
_chemical_formula_sum   'Cd4 H80 C96 N16 Cl8'
_cell_volume   2479.63407442
_cell_formula_units_Z   4
loop_
 _symmetry_equiv_pos_site_id
 _symmetry_equiv_pos_as_xyz
  1  'x, y, z'
loop_
 _atom_site_label
 _atom_site_fract_x
 _atom_site_fract_y
 _atom_site_fract_z
 _atom_site_charge
 Cd 0.0 0.03918 0.25   0.791304
 Cd 0.0 0.46082 0.75   0.791304
 Cd 0.0 0.96082 0.75   0.791304
 Cd 0.0 0.53918 0.25   0.791304
 H 0.9607 0.964 0.421   0.071569
 H 0.8319 0.8691 0.4967   0.121832
 H 0.6642 0.768 0.3041   0.122393
 H 0.7951 0.8668 0.2344   0.05836
 H 0.6533 0.688 0.4385   0.097262
 H 0.4519 0.8295 0.4562   0.104315
 H 0.5022 0.633 0.36   0.121916
 H 0.3296 0.5624 0.2876   0.074781
 H 0.0217 0.72 0.3553   0.063636
 H 0.1875 0.7981 0.4259   0.125818
 H 0.0393 0.964 0.079   0.071569
 H 0.1681 0.8691 0.0033   0.121832
 H 0.3358 0.768 0.1959   0.122393
 H 0.2049 0.8668 0.2656   0.05836
 H 0.3467 0.688 0.0615   0.097262
 H 0.5481 0.8295 0.0438   0.104315
 H 0.4978 0.633 0.14   0.121915
 H 0.6704 0.5624 0.2124   0.074781
 H 0.9783 0.72 0.1447   0.063636
 H 0.8125 0.7981 0.0741   0.125818
 H 0.9607 0.536 0.579   0.071569
 H 0.8319 0.6309 0.5033   0.121832
 H 0.6642 0.732 0.6959   0.122393
 H 0.7951 0.6332 0.7656   0.05836
 H 0.6533 0.812 0.5615   0.097261
 H 0.4519 0.6705 0.5438   0.104315
 H 0.5022 0.867 0.64   0.121915
 H 0.3296 0.9376 0.7124   0.074781
 H 0.0217 0.78 0.6447   0.063636
 H 0.1875 0.7019 0.5741   0.125818
 H 0.0393 0.536 0.921   0.071569
 H 0.1681 0.6309 0.9967   0.121832
 H 0.3358 0.732 0.8041   0.122393
 H 0.2049 0.6332 0.7344   0.05836
 H 0.3467 0.812 0.9385   0.097261
 H 0.5481 0.6705 0.9562   0.104315
 H 0.4978 0.867 0.86   0.121915
 H 0.6704 0.9376 0.7876   0.074781
 H 0.9783 0.78 0.8553   0.063636
 H 0.8125 0.7019 0.9259   0.125818
 H 0.0393 0.036 0.579   0.07157
 H 0.1681 0.1309 0.5033   0.121832
 H 0.3358 0.232 0.6959   0.122393
 H 0.2049 0.1332 0.7656   0.05836
 H 0.3467 0.312 0.5615   0.097262
 H 0.5481 0.1705 0.5438   0.104315
 H 0.4978 0.367 0.64   0.121915
 H 0.6704 0.4376 0.7124   0.074781
 H 0.9783 0.28 0.6447   0.063636
 H 0.8125 0.2019 0.5741   0.125818
 H 0.9607 0.036 0.921   0.07157
 H 0.8319 0.1309 0.9967   0.121832
 H 0.6642 0.232 0.8041   0.122393
 H 0.7951 0.1332 0.7344   0.05836
 H 0.6533 0.312 0.9385   0.097262
 H 0.4519 0.1705 0.9562   0.104315
 H 0.5022 0.367 0.86   0.121915
 H 0.3296 0.4376 0.7876   0.074781
 H 0.0217 0.28 0.8553   0.063636
 H 0.1875 0.2019 0.9259   0.125818
 H 0.0393 0.464 0.421   0.07157
 H 0.1681 0.3691 0.4967   0.121832
 H 0.3358 0.268 0.3041   0.122393
 H 0.2049 0.3668 0.2344   0.05836
 H 0.3467 0.188 0.4385   0.097261
 H 0.5481 0.3295 0.4562   0.104314
 H 0.4978 0.133 0.36   0.121915
 H 0.6704 0.0624 0.2876   0.074781
 H 0.9783 0.22 0.3553   0.063636
 H 0.8125 0.2981 0.4259   0.125818
 H 0.9607 0.464 0.079   0.07157
 H 0.8319 0.3691 0.0033   0.121832
 H 0.6642 0.268 0.1959   0.122393
 H 0.7951 0.3668 0.2656   0.05836
 H 0.6533 0.188 0.0615   0.097261
 H 0.4519 0.3295 0.0438   0.104314
 H 0.5022 0.133 0.14   0.121915
 H 0.3296 0.0624 0.2124   0.074781
 H 0.0217 0.22 0.1447   0.063636
 H 0.1875 0.2981 0.0741   0.125818
 C 0.8976 0.9246 0.39712   0.175043
 C 0.8213 0.8675 0.44304   -0.20954
 C 0.7293 0.80813 0.40922   0.133301
 C 0.7227 0.8085 0.32978   -0.216743
 C 0.8016 0.8679 0.28829   0.163018
 C 0.6362 0.74781 0.45549   -0.074333
 C 0.4691 0.7668 0.45719   -0.070015
 C 0.3648 0.72248 0.4036   0.127544
 C 0.4046 0.652 0.36027   -0.213615
 C 0.3002 0.6096 0.3174   0.175657
 C 0.12 0.7022 0.3565   0.173891
 C 0.2184 0.7488 0.39942   -0.220015
 C 0.1024 0.9246 0.10288   0.175043
 C 0.1787 0.8675 0.05696   -0.20954
 C 0.2707 0.80813 0.09078   0.133301
 C 0.2773 0.8085 0.17022   -0.216743
 C 0.1984 0.8679 0.21171   0.163019
 C 0.3638 0.74781 0.04451   -0.074333
 C 0.5309 0.7668 0.04281   -0.070015
 C 0.6352 0.72248 0.0964   0.127544
 C 0.5954 0.652 0.13973   -0.213615
 C 0.6998 0.6096 0.1826   0.175657
 C 0.88 0.7022 0.1435   0.173891
 C 0.7816 0.7488 0.10058   -0.220015
 C 0.8976 0.5754 0.60288   0.175043
 C 0.8213 0.6325 0.55696   -0.209539
 C 0.7293 0.69187 0.59078   0.133301
 C 0.7227 0.6915 0.67022   -0.216743
 C 0.8016 0.6321 0.71171   0.163018
 C 0.6362 0.75219 0.54451   -0.074333
 C 0.4691 0.7332 0.54281   -0.070016
 C 0.3648 0.77752 0.5964   0.127544
 C 0.4046 0.848 0.63973   -0.213615
 C 0.3002 0.8904 0.6826   0.175657
 C 0.12 0.7978 0.6435   0.173891
 C 0.2184 0.7512 0.60058   -0.220015
 C 0.1024 0.5754 0.89712   0.175043
 C 0.1787 0.6325 0.94304   -0.209539
 C 0.2707 0.69187 0.90922   0.133301
 C 0.2773 0.6915 0.82978   -0.216743
 C 0.1984 0.6321 0.78829   0.163019
 C 0.3638 0.75219 0.95549   -0.074333
 C 0.5309 0.7332 0.95719   -0.070016
 C 0.6352 0.77752 0.9036   0.127544
 C 0.5954 0.848 0.86027   -0.213615
 C 0.6998 0.8904 0.8174   0.175657
 C 0.88 0.7978 0.8565   0.173891
 C 0.7816 0.7512 0.89942   -0.220015
 C 0.1024 0.0754 0.60288   0.175043
 C 0.1787 0.1325 0.55696   -0.20954
 C 0.2707 0.19187 0.59078   0.133301
 C 0.2773 0.1915 0.67022   -0.216743
 C 0.1984 0.1321 0.71171   0.163018
 C 0.3638 0.25219 0.54451   -0.074333
 C 0.5309 0.2332 0.54281   -0.070015
 C 0.6352 0.27752 0.5964   0.127544
 C 0.5954 0.348 0.63973   -0.213616
 C 0.6998 0.3904 0.6826   0.175657
 C 0.88 0.2978 0.6435   0.173891
 C 0.7816 0.2512 0.60058   -0.220015
 C 0.8976 0.0754 0.89712   0.175043
 C 0.8213 0.1325 0.94304   -0.20954
 C 0.7293 0.19187 0.90922   0.133301
 C 0.7227 0.1915 0.82978   -0.216743
 C 0.8016 0.1321 0.78829   0.163019
 C 0.6362 0.25219 0.95549   -0.074333
 C 0.4691 0.2332 0.95719   -0.070015
 C 0.3648 0.27752 0.9036   0.127544
 C 0.4046 0.348 0.86027   -0.213615
 C 0.3002 0.3904 0.8174   0.175657
 C 0.12 0.2978 0.8565   0.173891
 C 0.2184 0.2512 0.89942   -0.220015
 C 0.1024 0.4246 0.39712   0.175043
 C 0.1787 0.3675 0.44304   -0.20954
 C 0.2707 0.30813 0.40922   0.133301
 C 0.2773 0.3085 0.32978   -0.216743
 C 0.1984 0.3679 0.28829   0.163018
 C 0.3638 0.24781 0.45549   -0.074333
 C 0.5309 0.2668 0.45719   -0.070016
 C 0.6352 0.22248 0.4036   0.127544
 C 0.5954 0.152 0.36027   -0.213615
 C 0.6998 0.1096 0.3174   0.175657
 C 0.88 0.2022 0.3565   0.173891
 C 0.7816 0.2488 0.39942   -0.220015
 C 0.8976 0.4246 0.10288   0.175043
 C 0.8213 0.3675 0.05696   -0.20954
 C 0.7293 0.30813 0.09078   0.133301
 C 0.7227 0.3085 0.17022   -0.216743
 C 0.8016 0.3679 0.21171   0.163019
 C 0.6362 0.24781 0.04451   -0.074333
 C 0.4691 0.2668 0.04281   -0.070016
 C 0.3648 0.22248 0.0964   0.127544
 C 0.4046 0.152 0.13973   -0.213615
 C 0.3002 0.1096 0.1826   0.175657
 C 0.12 0.2022 0.1435   0.173891
 C 0.2184 0.2488 0.10058   -0.220015
 N 0.8865 0.92661 0.32107   -0.33711
 N 0.1588 0.63277 0.31626   -0.33514
 N 0.1135 0.92661 0.17893   -0.33711
 N 0.8412 0.63277 0.18374   -0.33514
 N 0.8865 0.57339 0.67893   -0.33711
 N 0.1588 0.86723 0.68374   -0.33514
 N 0.1135 0.57339 0.82107   -0.33711
 N 0.8412 0.86723 0.81626   -0.33514
 N 0.1135 0.07339 0.67893   -0.33711
 N 0.8412 0.36723 0.68374   -0.33514
 N 0.8865 0.07339 0.82107   -0.33711
 N 0.1588 0.36723 0.81626   -0.33514
 N 0.1135 0.42661 0.32107   -0.33711
 N 0.8412 0.13277 0.31626   -0.33514
 N 0.8865 0.42661 0.17893   -0.33711
 N 0.1588 0.13277 0.18374   -0.33514
 Cl 0.19519 0.04894 0.35998   -0.629476
 Cl 0.80481 0.04894 0.14002   -0.629476
 Cl 0.19519 0.45106 0.64002   -0.629476
 Cl 0.80481 0.45106 0.85998   -0.629476
 Cl 0.80481 0.95106 0.64002   -0.629476
 Cl 0.19519 0.95106 0.85998   -0.629476
 Cl 0.80481 0.54894 0.35998   -0.629476
 Cl 0.19519 0.54894 0.14002   -0.629476
