{'_ref': 'TBD', '_srcid': 'CAKYAQ_clean', 'submitters': [{'name': 'Dalar Nazarian Jeff Camp and David Sholl', 'email': 'dalar@gatech.edu jcamp6@gatech.edu'}], '_method': 'VASP DFT with PBE;DDEC'}
data_ZnH12C15(NO2)2
_symmetry_space_group_name_H-M   'P 1'
_cell_length_a   12.33999974
_cell_length_b   19.90290031
_cell_length_c   19.90290000
_cell_angle_alpha   102.77299933
_cell_angle_beta   94.55930007
_cell_angle_gamma   94.55929876
_symmetry_Int_Tables_number   1
_chemical_formula_structural   ZnH12C15(NO2)2
_chemical_formula_sum   'Zn8 H96 C120 N16 O32'
_cell_volume   4728.39146721
_cell_formula_units_Z   8
loop_
 _symmetry_equiv_pos_site_id
 _symmetry_equiv_pos_as_xyz
  1  'x, y, z'
loop_
 _atom_site_label
 _atom_site_fract_x
 _atom_site_fract_y
 _atom_site_fract_z
 _atom_site_charge
 Zn 0.6119 0.07639 0.5651   0.883219
 Zn 0.8088 0.01687 0.52632   0.888918
 Zn 0.4105 0.33978 0.60817   0.905876
 Zn 0.50006 0.48728 0.74876   0.912723
 Zn 0.1119 0.5651 0.07639   0.883219
 Zn 0.3088 0.52632 0.01687   0.888918
 Zn 0.9105 0.60817 0.33978   0.905876
 Zn 5.99999999977e-05 0.74876 0.48728   0.912723
 H 0.4938 0.2002 0.5418   0.104839
 H 0.5533 0.2208 0.619   0.089905
 H 0.5269 0.1433 0.6975   0.091792
 H 0.4516 0.0714 0.671   0.090942
 H 0.3622 0.0402 0.552   0.079946
 H 0.3782 0.0925 0.5019   0.094242
 H 0.3199 0.2518 0.7058   0.079534
 H 0.4496 0.2501 0.7173   0.084795
 H 0.2038 0.1422 0.6628   0.06866
 H 0.2586 0.0709 0.6483   0.070229
 H 0.2965 0.1992 0.5224   0.091344
 H 0.227 0.2205 0.5871   0.08595
 H 0.8649 0.8727 0.4721   0.088198
 H 0.917 0.8908 0.551   0.096783
 H 0.9848 0.0229 0.4291   0.091229
 H 0.9069 0.9529 0.3979   0.090787
 H 0.035 0.9984 0.598   0.08991
 H 0.0621 0.0503 0.5491   0.075939
 H 0.9828 0.844 0.3786   0.080766
 H 0.111 0.842 0.397   0.079753
 H 0.1767 0.0197 0.4593   0.072095
 H 0.2269 0.9467 0.4473   0.071451
 H 0.1881 0.8692 0.5198   0.089452
 H 0.1086 0.8889 0.5795   0.086911
 H 0.6587 0.8599 0.3439   0.103032
 H 0.2788 0.8626 0.323   0.109304
 H 0.3895 0.9468 0.4046   0.086708
 H 0.6404 0.7551 0.2463   0.100614
 H 0.5336 0.6737 0.1623   0.080302
 H 0.2609 0.755 0.229   0.103454
 H 0.9256 0.1598 0.406   0.100172
 H 0.9714 0.2506 0.3544   0.113004
 H 0.6508 0.2445 0.4641   0.118702
 H 0.9327 0.3606 0.3248   0.110149
 H 0.6722 0.4539 0.3961   0.106571
 H 0.6185 0.3608 0.4416   0.114789
 H 0.1189 0.341 0.6326   0.106006
 H 0.9776 0.509 0.7998   0.111698
 H 0.1642 0.5039 0.7987   0.095904
 H 0.928 0.294 0.5822   0.11105
 H 0.7417 0.2976 0.5826   0.098604
 H 0.7885 0.4584 0.7512   0.108233
 H 0.7768 0.8506 0.6292   0.112027
 H 0.4414 0.8292 0.7214   0.112392
 H 0.4873 0.9235 0.6757   0.099176
 H 0.8183 0.7375 0.6513   0.114175
 H 0.7702 0.6418 0.6946   0.108784
 H 0.4843 0.714 0.7434   0.099903
 H 0.9938 0.5418 0.2002   0.104839
 H 0.0533 0.619 0.2208   0.089905
 H 0.0269 0.6975 0.1433   0.091792
 H 0.9516 0.671 0.0714   0.090942
 H 0.8622 0.552 0.0402   0.079946
 H 0.8782 0.5019 0.0925   0.094242
 H 0.8199 0.7058 0.2518   0.079534
 H 0.9496 0.7173 0.2501   0.084794
 H 0.7038 0.6628 0.1422   0.06866
 H 0.7586 0.6483 0.0709   0.070229
 H 0.7965 0.5224 0.1992   0.091344
 H 0.727 0.5871 0.2205   0.08595
 H 0.3649 0.4721 0.8727   0.088198
 H 0.417 0.551 0.8908   0.096783
 H 0.4848 0.4291 0.0229   0.091228
 H 0.4069 0.3979 0.9529   0.090787
 H 0.535 0.598 0.9984   0.08991
 H 0.5621 0.5491 0.0503   0.075939
 H 0.4828 0.3786 0.844   0.080766
 H 0.611 0.397 0.842   0.079752
 H 0.6767 0.4593 0.0197   0.072095
 H 0.7269 0.4473 0.9467   0.071451
 H 0.6881 0.5198 0.8692   0.089452
 H 0.6086 0.5795 0.8889   0.086911
 H 0.1587 0.3439 0.8599   0.103032
 H 0.7788 0.323 0.8626   0.109304
 H 0.8895 0.4046 0.9468   0.086708
 H 0.1404 0.2463 0.7551   0.100614
 H 0.0336 0.1623 0.6737   0.080302
 H 0.7609 0.229 0.755   0.103453
 H 0.4256 0.406 0.1598   0.100172
 H 0.4714 0.3544 0.2506   0.113004
 H 0.1508 0.4641 0.2445   0.118702
 H 0.4327 0.3248 0.3606   0.110149
 H 0.1722 0.3961 0.4539   0.106571
 H 0.1185 0.4416 0.3608   0.114789
 H 0.6189 0.6326 0.341   0.106006
 H 0.4776 0.7998 0.509   0.111706
 H 0.6642 0.7987 0.5039   0.095903
 H 0.428 0.5822 0.294   0.11105
 H 0.2417 0.5826 0.2976   0.098604
 H 0.2885 0.7512 0.4584   0.108233
 H 0.2768 0.6292 0.8506   0.112027
 H 0.9414 0.7214 0.8292   0.112392
 H 0.9873 0.6757 0.9235   0.099176
 H 0.3183 0.6513 0.7375   0.114175
 H 0.2702 0.6946 0.6418   0.108784
 H 0.9843 0.7434 0.714   0.099903
 C 0.486 0.19737 0.59019   0.08667
 C 0.4603 0.12038 0.66754   0.12614
 C 0.372 0.08975 0.55053   0.115838
 C 0.3823 0.22752 0.68796   0.133376
 C 0.2687 0.12012 0.64608   0.169996
 C 0.2911 0.19692 0.57118   0.125117
 C 0.9305 0.89468 0.50362   0.089963
 C 0.9715 0.97362 0.43076   0.129171
 C 0.0482 0.00085 0.55009   0.117237
 C 0.0466 0.86596 0.41166   0.141181
 C 0.1616 0.9705 0.4607   0.154646
 C 0.1223 0.89281 0.53213   0.116857
 C 0.6037 0.96015 0.44009   0.67577
 C 0.5354 0.90796 0.3827   -0.120007
 C 0.5815 0.85984 0.33966   -0.07695
 C 0.5171 0.80801 0.28723   0.054255
 C 0.403 0.80842 0.28142   0.050107
 C 0.3558 0.86131 0.32661   -0.150302
 C 0.4212 0.9107 0.3755   -0.05258
 C 0.5634 0.75632 0.24232   -0.144872
 C 0.4999 0.70768 0.19288   -0.049223
 C 0.385 0.70661 0.18603   -0.132358
 C 0.3382 0.75612 0.2314   -0.077462
 C 0.3179 0.65012 0.1337   0.693372
 C 0.7538 0.13629 0.47481   0.677318
 C 0.7823 0.1948 0.43986   -0.135299
 C 0.8794 0.19602 0.40718   -0.069871
 C 0.9066 0.25006 0.37714   -0.144762
 C 0.8404 0.30488 0.37952   0.04992
 C 0.7441 0.30322 0.4123   0.04558
 C 0.7163 0.24632 0.44226   -0.077145
 C 0.8706 0.36117 0.35003   -0.094019
 C 0.8102 0.41649 0.35811   -0.116713
 C 0.7149 0.41577 0.39181   -0.069637
 C 0.683 0.36051 0.41849   -0.126053
 C 0.8521 0.47991 0.33309   0.646517
 C 0.2793 0.41856 0.71516   0.696988
 C 0.1577 0.42086 0.71462   -0.135135
 C 0.0895 0.37458 0.66604   -0.071646
 C 0.974 0.37611 0.66495   0.048317
 C 0.9313 0.42586 0.71688   0.040876
 C 0.005 0.47455 0.76627   -0.115434
 C 0.1154 0.47166 0.7653   -0.047705
 C 0.9002 0.32796 0.61618   -0.123697
 C 0.7899 0.32911 0.61691   -0.035684
 C 0.7476 0.37777 0.66921   -0.141933
 C 0.8177 0.42528 0.7172   -0.058857
 C 0.6276 0.37797 0.67051   0.686839
 C 0.6648 0.95569 0.61543   0.690759
 C 0.637 0.89583 0.64647   -0.138794
 C 0.708 0.84562 0.64686   -0.073448
 C 0.6798 0.78711 0.67309   0.044436
 C 0.5792 0.78015 0.70025   0.045102
 C 0.5087 0.83272 0.70168   -0.137914
 C 0.5363 0.88884 0.67496   -0.059441
 C 0.7507 0.73371 0.67063   -0.128923
 C 0.722 0.67691 0.69609   -0.060027
 C 0.6224 0.67 0.72448   -0.121556
 C 0.5526 0.71961 0.72539   -0.079114
 C 0.5869 0.6051 0.7453   0.640883
 C 0.986 0.59019 0.19737   0.08667
 C 0.9603 0.66754 0.12038   0.12614
 C 0.872 0.55053 0.08975   0.115838
 C 0.8823 0.68796 0.22752   0.133376
 C 0.7687 0.64608 0.12012   0.169996
 C 0.7911 0.57118 0.19692   0.125117
 C 0.4305 0.50362 0.89468   0.089963
 C 0.4715 0.43076 0.97362   0.129171
 C 0.5482 0.55009 0.00085   0.117237
 C 0.5466 0.41166 0.86596   0.141181
 C 0.6616 0.4607 0.9705   0.154646
 C 0.6223 0.53213 0.89281   0.116857
 C 0.1037 0.44009 0.96015   0.67577
 C 0.0354 0.3827 0.90796   -0.120007
 C 0.0815 0.33966 0.85984   -0.07695
 C 0.0171 0.28723 0.80801   0.054255
 C 0.903 0.28142 0.80842   0.050107
 C 0.8558 0.32661 0.86131   -0.150302
 C 0.9212 0.3755 0.9107   -0.05258
 C 0.0634 0.24232 0.75632   -0.144873
 C 0.9999 0.19288 0.70768   -0.049223
 C 0.885 0.18603 0.70661   -0.132358
 C 0.8382 0.2314 0.75612   -0.077462
 C 0.8179 0.1337 0.65012   0.693372
 C 0.2538 0.47481 0.13629   0.677318
 C 0.2823 0.43986 0.1948   -0.135299
 C 0.3794 0.40718 0.19602   -0.069871
 C 0.4066 0.37714 0.25006   -0.144762
 C 0.3404 0.37952 0.30488   0.04992
 C 0.2441 0.4123 0.30322   0.04558
 C 0.2163 0.44226 0.24632   -0.077144
 C 0.3706 0.35003 0.36117   -0.094019
 C 0.3102 0.35811 0.41649   -0.116713
 C 0.2149 0.39181 0.41577   -0.069637
 C 0.183 0.41849 0.36051   -0.126053
 C 0.3521 0.33309 0.47991   0.646517
 C 0.7793 0.71516 0.41856   0.696988
 C 0.6577 0.71462 0.42086   -0.135136
 C 0.5895 0.66604 0.37458   -0.071645
 C 0.474 0.66495 0.37611   0.048317
 C 0.4313 0.71688 0.42586   0.040881
 C 0.505 0.76627 0.47455   -0.115449
 C 0.6154 0.7653 0.47166   -0.0477
 C 0.4002 0.61618 0.32796   -0.123696
 C 0.2899 0.61691 0.32911   -0.035685
 C 0.2476 0.66921 0.37777   -0.141932
 C 0.3177 0.7172 0.42528   -0.058859
 C 0.1276 0.67051 0.37797   0.686839
 C 0.1648 0.61543 0.95569   0.690759
 C 0.137 0.64647 0.89583   -0.138794
 C 0.208 0.64686 0.84562   -0.073448
 C 0.1798 0.67309 0.78711   0.044436
 C 0.0792 0.70025 0.78015   0.045102
 C 0.0087 0.70168 0.83272   -0.137914
 C 0.0363 0.67496 0.88884   -0.059441
 C 0.2507 0.67063 0.73371   -0.128923
 C 0.222 0.69609 0.67691   -0.060027
 C 0.1224 0.72448 0.67   -0.121556
 C 0.0526 0.72539 0.71961   -0.079114
 C 0.0869 0.7453 0.6051   0.640883
 N 0.4736 0.12347 0.59413   -0.277429
 N 0.3915 0.23304 0.61426   -0.324898
 N 0.3662 0.15405 0.69175   -0.415116
 N 0.276 0.12416 0.57566   -0.388808
 N 0.948 0.96929 0.50191   -0.282031
 N 0.0262 0.85735 0.48247   -0.324425
 N 0.0656 0.93826 0.40942   -0.410626
 N 0.143 0.96617 0.53135   -0.372952
 N 0.9736 0.59413 0.12347   -0.277429
 N 0.8915 0.61426 0.23304   -0.324898
 N 0.8662 0.69175 0.15405   -0.415116
 N 0.776 0.57566 0.12416   -0.388808
 N 0.448 0.50191 0.96929   -0.28203
 N 0.5262 0.48247 0.85735   -0.324425
 N 0.5656 0.40942 0.93826   -0.410626
 N 0.643 0.53135 0.96617   -0.372952
 O 0.5528 0.00529 0.47719   -0.593805
 O 0.7047 0.9549 0.44846   -0.590663
 O 0.3681 0.61052 0.09332   -0.586146
 O 0.2156 0.64657 0.13501   -0.607444
 O 0.6704 0.13926 0.50652   -0.576657
 O 0.8177 0.08894 0.46976   -0.598013
 O 0.9249 0.47447 0.29193   -0.610769
 O 0.8131 0.53393 0.35655   -0.581092
 O 0.5959 0.99825 0.61525   -0.58876
 O 0.33853 0.47098 0.7483   -0.552808
 O 0.31433 0.36396 0.68326   -0.636133
 O 0.56959 0.34547 0.61581   -0.552236
 O 0.5899 0.40743 0.72551   -0.631409
 O 0.7541 0.95729 0.58959   -0.59845
 O 0.6491 0.5568 0.7391   -0.606611
 O 0.4944 0.59563 0.76369   -0.580328
 O 0.0528 0.47719 0.00529   -0.593805
 O 0.2047 0.44846 0.9549   -0.590663
 O 0.8681 0.09332 0.61052   -0.586147
 O 0.7156 0.13501 0.64657   -0.607444
 O 0.1704 0.50652 0.13926   -0.576657
 O 0.3177 0.46976 0.08894   -0.598013
 O 0.4249 0.29193 0.47447   -0.610769
 O 0.3131 0.35655 0.53393   -0.581092
 O 0.0959 0.61525 0.99825   -0.58876
 O 0.83853 0.7483 0.47098   -0.552808
 O 0.81433 0.68326 0.36396   -0.636133
 O 0.06959 0.61581 0.34547   -0.552236
 O 0.0899 0.72551 0.40743   -0.631409
 O 0.2541 0.58959 0.95729   -0.59845
 O 0.1491 0.7391 0.5568   -0.606611
 O 0.9944 0.76369 0.59563   -0.580328
