{'_ref': 'TBD', '_srcid': 'CAKYAQ_clean', 'submitters': [{'name': 'Dalar Nazarian Jeff Camp and David Sholl', 'email': 'dalar@gatech.edu jcamp6@gatech.edu'}], '_method': 'VASP DFT with PBE;DDEC'}
data_Ho2H3(C5O4)3
_symmetry_space_group_name_H-M   'P 1'
_cell_length_a   10.78800000
_cell_length_b   13.17000016
_cell_length_c   14.22300000
_cell_angle_alpha   90.00000000
_cell_angle_beta   90.00000000
_cell_angle_gamma   90.40200040
_symmetry_Int_Tables_number   1
_chemical_formula_structural   Ho2H3(C5O4)3
_chemical_formula_sum   'Ho8 H12 C60 O48'
_cell_volume   2020.72511126
_cell_formula_units_Z   4
loop_
 _symmetry_equiv_pos_site_id
 _symmetry_equiv_pos_as_xyz
  1  'x, y, z'
loop_
 _atom_site_label
 _atom_site_fract_x
 _atom_site_fract_y
 _atom_site_fract_z
 _atom_site_charge
 Ho 0.7447 0.71409 0.78191   2.270991
 Ho 0.99327 0.86759 0.63807   2.226792
 Ho 0.7553 0.78591 0.28191   2.263245
 Ho 0.50673 0.63241 0.13807   2.217857
 Ho 0.25529 0.28591 0.21809   2.226276
 Ho 0.00673 0.13241 0.36193   2.21624
 Ho 0.2447 0.21409 0.71809   2.252857
 Ho 0.49327 0.36759 0.86193   2.243242
 H 0.8763 0.8657 0.0459   0.113188
 H 0.469 0.934 0.852   0.122316
 H 0.4387 0.9115 0.6329   0.119339
 H 0.6237 0.6343 0.5459   0.112754
 H 0.031 0.566 0.352   0.121109
 H 0.0613 0.5885 0.1329   0.118046
 H 0.1237 0.1343 0.9541   0.114463
 H 0.531 0.066 0.148   0.12144
 H 0.5613 0.0885 0.3671   0.118266
 H 0.3763 0.3657 0.4541   0.112381
 H 0.969 0.434 0.648   0.12334
 H 0.9387 0.4115 0.8671   0.120112
 C 0.9132 0.8455 0.8692   0.706877
 C 0.0891 0.0207 0.8096   0.788587
 C 0.9259 0.92 0.0271   -0.017963
 C 0.9636 0.926 0.9333   -0.066847
 C 0.0398 0.0073 0.9069   -0.1088
 C 0.5445 0.7889 0.9527   0.838449
 C 0.5979 0.8793 0.1528   0.66613
 C 0.4814 0.9607 0.9118   -0.01423
 C 0.5238 0.8969 0.983   -0.115883
 C 0.5429 0.9373 0.0728   -0.102844
 C 0.6807 0.8873 0.6116   0.79169
 C 0.7543 0.9937 0.4324   0.797433
 C 0.4638 0.947 0.5796   -0.023574
 C 0.6235 0.9975 0.4712   -0.045421
 C 0.5876 0.9436 0.5521   -0.122314
 C 0.5868 0.6545 0.3692   0.706917
 C 0.4109 0.4793 0.3096   0.787171
 C 0.5741 0.58 0.5271   -0.019834
 C 0.5364 0.574 0.4333   -0.066779
 C 0.4602 0.4927 0.4069   -0.115088
 C 0.9555 0.7111 0.4527   0.838181
 C 0.9021 0.6207 0.6528   0.666428
 C 0.0186 0.5393 0.4118   -0.012915
 C 0.9762 0.6031 0.483   -0.116442
 C 0.9571 0.5627 0.5728   -0.101548
 C 0.8193 0.6127 0.1116   0.791015
 C 0.7457 0.5063 0.9324   0.797258
 C 0.0362 0.553 0.0796   -0.023021
 C 0.8765 0.5025 0.9712   -0.041801
 C 0.9124 0.5564 0.0521   -0.124692
 C 0.0868 0.1545 0.1308   0.702115
 C 0.9109 0.9793 0.1904   0.790192
 C 0.0741 0.08 0.9729   -0.017174
 C 0.0364 0.074 0.0667   -0.067062
 C 0.9602 0.9927 0.0931   -0.111695
 C 0.4555 0.2111 0.0473   0.836046
 C 0.4021 0.1207 0.8472   0.662146
 C 0.5186 0.0393 0.0882   -0.012555
 C 0.4762 0.1031 0.017   -0.116157
 C 0.4571 0.0627 0.9272   -0.096752
 C 0.3193 0.1127 0.3884   0.787925
 C 0.2457 0.0063 0.5676   0.792976
 C 0.5362 0.053 0.4204   -0.02443
 C 0.3765 0.0025 0.5288   -0.042535
 C 0.4124 0.0564 0.4479   -0.121715
 C 0.4132 0.3455 0.6308   0.704041
 C 0.5891 0.5207 0.6904   0.794454
 C 0.4259 0.42 0.4729   -0.01812
 C 0.4636 0.426 0.5667   -0.063435
 C 0.5398 0.5073 0.5931   -0.111081
 C 0.0445 0.2889 0.5473   0.834352
 C 0.0979 0.3793 0.3472   0.662802
 C 0.9814 0.4607 0.5882   -0.011985
 C 0.0238 0.3969 0.517   -0.112112
 C 0.0429 0.4373 0.4272   -0.103821
 C 0.1807 0.3873 0.8884   0.791601
 C 0.2543 0.4937 0.0676   0.796728
 C 0.9638 0.447 0.9204   -0.02578
 C 0.1235 0.4975 0.0288   -0.050766
 C 0.0876 0.4436 0.9479   -0.116634
 O 0.8926 0.759 0.9014   -0.618963
 O 0.8802 0.8663 0.7842   -0.87469
 O 0.1091 0.1122 0.7879   -0.716012
 O 0.1067 0.9449 0.7589   -0.745242
 O 0.604 0.7794 0.8786   -0.721165
 O 0.4956 0.7161 0.9964   -0.736185
 O 0.6148 0.9208 0.231   -0.606278
 O 0.6343 0.7875 0.1404   -0.863383
 O 0.6425 0.829 0.6762   -0.6852
 O 0.7934 0.9053 0.5937   -0.736635
 O 0.8215 0.0733 0.4409   -0.766166
 O 0.787 0.9153 0.3908   -0.728835
 O 0.6074 0.741 0.4014   -0.617284
 O 0.6198 0.6337 0.2842   -0.878429
 O 0.3909 0.3878 0.2879   -0.703582
 O 0.3933 0.5551 0.2589   -0.738923
 O 0.896 0.7206 0.3786   -0.724577
 O 0.0044 0.7839 0.4964   -0.737073
 O 0.8852 0.5792 0.731   -0.606245
 O 0.8657 0.7125 0.6404   -0.862697
 O 0.8575 0.671 0.1762   -0.684363
 O 0.7066 0.5947 0.0937   -0.731179
 O 0.6785 0.4267 0.9409   -0.771673
 O 0.713 0.5847 0.8908   -0.742587
 O 0.1074 0.241 0.0986   -0.610013
 O 0.1198 0.1337 0.2158   -0.863501
 O 0.8909 0.8878 0.2121   -0.715547
 O 0.8933 0.0551 0.2411   -0.743476
 O 0.396 0.2206 0.1214   -0.714554
 O 0.5044 0.2839 0.0036   -0.743991
 O 0.3852 0.0792 0.769   -0.612665
 O 0.3657 0.2125 0.8596   -0.865777
 O 0.3575 0.171 0.3238   -0.677543
 O 0.2066 0.0947 0.4063   -0.735134
 O 0.1785 0.9267 0.5591   -0.769958
 O 0.213 0.0847 0.6092   -0.728716
 O 0.3926 0.259 0.5986   -0.62148
 O 0.3802 0.3663 0.7158   -0.878688
 O 0.6091 0.6122 0.7121   -0.72479
 O 0.6067 0.4449 0.7411   -0.752108
 O 0.104 0.2794 0.6214   -0.727635
 O 0.9956 0.2161 0.5036   -0.740959
 O 0.1148 0.4208 0.269   -0.603273
 O 0.1343 0.2875 0.3596   -0.850524
 O 0.1425 0.329 0.8238   -0.697016
 O 0.2934 0.4053 0.9063   -0.746933
 O 0.3215 0.5733 0.0591   -0.759793
 O 0.287 0.4153 0.1092   -0.72052
