{'_ref': 'TBD', '_srcid': 'CAKYAQ_clean', 'submitters': [{'name': 'Dalar Nazarian Jeff Camp and David Sholl', 'email': 'dalar@gatech.edu jcamp6@gatech.edu'}], '_method': 'VASP DFT with PBE;DDEC'}
data_KSmHC9NO8
_symmetry_space_group_name_H-M   'P 1'
_cell_length_a   6.75900003
_cell_length_b   13.97800000
_cell_length_c   14.26510000
_cell_angle_alpha   90.00000000
_cell_angle_beta   92.49629679
_cell_angle_gamma   90.00000000
_symmetry_Int_Tables_number   1
_chemical_formula_structural   KSmHC9NO8
_chemical_formula_sum   'K4 Sm4 H4 C36 N4 O32'
_cell_volume   1346.44922476
_cell_formula_units_Z   4
loop_
 _symmetry_equiv_pos_site_id
 _symmetry_equiv_pos_as_xyz
  1  'x, y, z'
loop_
 _atom_site_label
 _atom_site_fract_x
 _atom_site_fract_y
 _atom_site_fract_z
 _atom_site_charge
 K 0.70634 0.30945 0.25824   0.96949
 K 0.79366 0.80945 0.24176   0.969482
 K 0.29366 0.69055 0.74176   0.96949
 K 0.20634 0.19055 0.75824   0.969482
 Sm 0.7608 0.25591 0.9346   2.246337
 Sm 0.7392 0.75591 0.5654   2.246337
 Sm 0.2392 0.74409 0.0654   2.246333
 Sm 0.2608 0.24409 0.4346   2.246333
 H 0.754 0.6971 0.8712   0.109668
 H 0.746 0.1971 0.6288   0.109668
 H 0.246 0.3029 0.1288   0.109668
 H 0.254 0.8029 0.3712   0.109668
 C 0.7432 0.4411 0.076   0.661639
 C 0.7522 0.4945 0.9832   0.119322
 C 0.7485 0.5932 0.9716   -0.140276
 C 0.7578 0.6298 0.8809   -0.019669
 C 0.7726 0.5688 0.8049   -0.094901
 C 0.7835 0.4698 0.823   0.161667
 C 0.8215 0.3949 0.7493   0.648952
 C 0.7356 0.6643 0.0527   0.830888
 C 0.7784 0.6101 0.7078   0.759239
 C 0.7568 0.9411 0.424   0.661639
 C 0.7478 0.9945 0.5168   0.119322
 C 0.7515 0.0932 0.5284   -0.140276
 C 0.7422 0.1298 0.6191   -0.019669
 C 0.7274 0.0688 0.6951   -0.0949
 C 0.7165 0.9698 0.677   0.161667
 C 0.6785 0.8949 0.7507   0.648952
 C 0.7644 0.1643 0.4473   0.830888
 C 0.7216 0.1101 0.7922   0.759238
 C 0.2568 0.5589 0.924   0.661644
 C 0.2478 0.5055 0.0168   0.119326
 C 0.2515 0.4068 0.0284   -0.140273
 C 0.2422 0.3702 0.1191   -0.019668
 C 0.2274 0.4312 0.1951   -0.0949
 C 0.2165 0.5302 0.177   0.161667
 C 0.1785 0.6051 0.2507   0.648952
 C 0.2644 0.3357 0.9473   0.830888
 C 0.2216 0.3899 0.2922   0.759238
 C 0.2432 0.0589 0.576   0.661644
 C 0.2522 0.0055 0.4832   0.119326
 C 0.2485 0.9068 0.4716   -0.140273
 C 0.2578 0.8702 0.3809   -0.019667
 C 0.2726 0.9312 0.3049   -0.0949
 C 0.2835 0.0302 0.323   0.161667
 C 0.3215 0.1051 0.2493   0.648952
 C 0.2356 0.8357 0.5527   0.830888
 C 0.2784 0.8899 0.2078   0.759238
 N 0.7724 0.4352 0.9101   -0.43536
 N 0.7276 0.9352 0.5899   -0.43536
 N 0.2276 0.5648 0.0899   -0.43536
 N 0.2724 0.0648 0.4101   -0.43536
 O 0.7479 0.3511 0.0731   -0.876825
 O 0.7326 0.4888 0.1489   -0.554299
 O 0.5703 0.6839 0.083   -0.749366
 O 0.8941 0.7007 0.0827   -0.788253
 O 0.93 0.6472 0.6803   -0.748065
 O 0.617 0.6138 0.6587   -0.781048
 O 0.8737 0.4231 0.6712   -0.578022
 O 0.7997 0.3089 0.7737   -0.74112
 O 0.7521 0.8511 0.4269   -0.876825
 O 0.7674 0.9888 0.3511   -0.554299
 O 0.9297 0.1839 0.417   -0.749366
 O 0.6059 0.2007 0.4173   -0.788253
 O 0.57 0.1472 0.8197   -0.748064
 O 0.883 0.1138 0.8413   -0.781048
 O 0.6263 0.9231 0.8288   -0.578022
 O 0.7003 0.8089 0.7263   -0.74112
 O 0.2521 0.6489 0.9269   -0.876826
 O 0.2674 0.5112 0.8511   -0.5543
 O 0.4297 0.3161 0.917   -0.749365
 O 0.1059 0.2993 0.9173   -0.788253
 O 0.07 0.3528 0.3197   -0.748065
 O 0.383 0.3862 0.3413   -0.781048
 O 0.1263 0.5769 0.3288   -0.578022
 O 0.2003 0.6911 0.2263   -0.74112
 O 0.2479 0.1489 0.5731   -0.876825
 O 0.2326 0.0112 0.6489   -0.554299
 O 0.0703 0.8161 0.583   -0.749366
 O 0.3941 0.7993 0.5827   -0.788253
 O 0.43 0.8528 0.1803   -0.748064
 O 0.117 0.8862 0.1587   -0.781047
 O 0.3737 0.0769 0.1712   -0.578022
 O 0.2997 0.1911 0.2737   -0.74112
