{'_ref': 'TBD', '_srcid': 'CAKYAQ_clean', 'submitters': [{'name': 'Dalar Nazarian Jeff Camp and David Sholl', 'email': 'dalar@gatech.edu jcamp6@gatech.edu'}], '_method': 'VASP DFT with PBE;DDEC'}
data_CaH6C5O4
_symmetry_space_group_name_H-M   'P 1'
_cell_length_a   8.63699970
_cell_length_b   12.27000000
_cell_length_c   12.26999994
_cell_angle_alpha   114.67169829
_cell_angle_beta   103.57000083
_cell_angle_gamma   103.57020090
_symmetry_Int_Tables_number   1
_chemical_formula_structural   CaH6C5O4
_chemical_formula_sum   'Ca6 H36 C30 O24'
_cell_volume   1064.11928752
_cell_formula_units_Z   6
loop_
 _symmetry_equiv_pos_site_id
 _symmetry_equiv_pos_as_xyz
  1  'x, y, z'
loop_
 _atom_site_label
 _atom_site_fract_x
 _atom_site_fract_y
 _atom_site_fract_z
 _atom_site_charge
 Ca 0.01359 0.42433 0.62167   1.561931
 Ca 0.58926 0.19734 0.57567   1.561517
 Ca 0.39192 0.37833 0.80266   1.5605
 Ca 0.98641 0.57567 0.37833   1.56193
 Ca 0.41074 0.80266 0.42433   1.561516
 Ca 0.60808 0.62167 0.19734   1.560499
 H 0.9634 0.1839 0.9008   0.125133
 H 0.7853 0.1324 0.7894   0.117544
 H 0.9538 0.3907 0.0012   0.066359
 H 0.7867 0.3491 0.8856   0.05008
 H 0.6406 0.2039 0.9474   0.125444
 H 0.8061 0.272 0.074   0.12596
 H 0.7795 0.7169 0.8161   0.124485
 H 0.6529 0.657 0.8676   0.118792
 H 0.5631 0.6105 0.6093   0.067075
 H 0.4376 0.5365 0.6509   0.050015
 H 0.4367 0.7435 0.7961   0.124931
 H 0.5341 0.802 0.728   0.126046
 H 0.0626 0.0992 0.2831   0.124627
 H 0.9959 0.2106 0.343   0.118324
 H 0.9526 0.9988 0.3895   0.065619
 H 0.9011 0.1144 0.4635   0.051662
 H 0.6932 0.0526 0.2565   0.125872
 H 0.7321 0.926 0.198   0.126606
 H 0.0366 0.8161 0.0992   0.125133
 H 0.2147 0.8676 0.2106   0.117544
 H 0.0462 0.6093 0.9988   0.066359
 H 0.2133 0.6509 0.1144   0.05008
 H 0.3594 0.7961 0.0526   0.125444
 H 0.1939 0.728 0.926   0.12596
 H 0.2205 0.2831 0.1839   0.124486
 H 0.3471 0.343 0.1324   0.118792
 H 0.4369 0.3895 0.3907   0.067075
 H 0.5624 0.4635 0.3491   0.050015
 H 0.5633 0.2565 0.2039   0.124931
 H 0.4659 0.198 0.272   0.126046
 H 0.9374 0.9008 0.7169   0.124628
 H 0.0041 0.7894 0.657   0.118324
 H 0.0474 0.0012 0.6105   0.065619
 H 0.0989 0.8856 0.5365   0.051662
 H 0.3068 0.9474 0.7435   0.125872
 H 0.2679 0.074 0.802   0.126606
 C 0.9808 0.2494 0.7738   0.821771
 C 0.8903 0.2076 0.8489   -0.377384
 C 0.8472 0.3193 0.9376   0.007861
 C 0.7384 0.2844 0.0082   -0.368631
 C 0.6767 0.3908 0.0695   0.809343
 C 0.7314 0.5244 0.7506   0.820769
 C 0.6827 0.6413 0.7924   -0.376093
 C 0.5279 0.6183 0.6807   0.00552
 C 0.454 0.7238 0.7156   -0.366722
 C 0.2859 0.6787 0.6092   0.808916
 C 0.207 0.2262 0.4756   0.819957
 C 0.0414 0.1511 0.3587   -0.375574
 C 0.9096 0.0624 0.3817   0.00547
 C 0.7302 0.9918 0.2762   -0.368957
 C 0.6072 0.9305 0.3213   0.807865
 C 0.0192 0.7506 0.2262   0.821771
 C 0.1097 0.7924 0.1511   -0.377384
 C 0.1528 0.6807 0.0624   0.007861
 C 0.2616 0.7156 0.9918   -0.368631
 C 0.3233 0.6092 0.9305   0.809344
 C 0.2686 0.4756 0.2494   0.820769
 C 0.3173 0.3587 0.2076   -0.376093
 C 0.4721 0.3817 0.3193   0.00552
 C 0.546 0.2762 0.2844   -0.366722
 C 0.7141 0.3213 0.3908   0.808916
 C 0.793 0.7738 0.5244   0.819957
 C 0.9586 0.8489 0.6413   -0.375574
 C 0.0904 0.9376 0.6183   0.00547
 C 0.2698 0.0082 0.7238   -0.368957
 C 0.3928 0.0695 0.6787   0.807865
 O 0.8939 0.2659 0.6868   -0.812182
 O 0.1374 0.2731 0.8077   -0.714801
 O 0.5559 0.4043 0.0023   -0.76517
 O 0.7488 0.4674 0.1888   -0.772456
 O 0.628 0.4209 0.7341   -0.811302
 O 0.8643 0.5346 0.7269   -0.715351
 O 0.1516 0.598 0.5957   -0.766367
 O 0.2814 0.7214 0.5326   -0.772017
 O 0.2071 0.3132 0.5791   -0.810104
 O 0.3297 0.1923 0.4654   -0.716093
 O 0.5536 0.9977 0.402   -0.764269
 O 0.56 0.8112 0.2786   -0.77252
 O 0.1061 0.7341 0.3132   -0.812183
 O 0.8626 0.7269 0.1923   -0.714801
 O 0.4441 0.5957 0.9977   -0.765172
 O 0.2512 0.5326 0.8112   -0.772457
 O 0.372 0.5791 0.2659   -0.811302
 O 0.1357 0.4654 0.2731   -0.715351
 O 0.8484 0.402 0.4043   -0.766368
 O 0.7186 0.2786 0.4674   -0.772018
 O 0.7929 0.6868 0.4209   -0.810104
 O 0.6703 0.8077 0.5346   -0.716093
 O 0.4464 0.0023 0.598   -0.764271
 O 0.44 0.1888 0.7214   -0.77252
