{'_ref': 'TBD', '_srcid': 'CAKYAQ_clean', 'submitters': [{'name': 'Dalar Nazarian Jeff Camp and David Sholl', 'email': 'dalar@gatech.edu jcamp6@gatech.edu'}], '_method': 'VASP DFT with PBE;DDEC'}
data_Cu3H26C42(NO3)4
_symmetry_space_group_name_H-M   'P 1'
_cell_length_a   9.95059976
_cell_length_b   15.68229962
_cell_length_c   21.50000000
_cell_angle_alpha   100.07199940
_cell_angle_beta   93.06000098
_cell_angle_gamma   106.83399925
_symmetry_Int_Tables_number   1
_chemical_formula_structural   Cu3H26C42(NO3)4
_chemical_formula_sum   'Cu6 H52 C84 N8 O24'
_cell_volume   3142.45516983
_cell_formula_units_Z   2
loop_
 _symmetry_equiv_pos_site_id
 _symmetry_equiv_pos_as_xyz
  1  'x, y, z'
loop_
 _atom_site_label
 _atom_site_fract_x
 _atom_site_fract_y
 _atom_site_fract_z
 _atom_site_charge
 Cu 0.37635 0.79975 0.54398   0.830511
 Cu 0.94938 0.08688 0.3659   0.921123
 Cu 0.93454 0.09959 0.80276   0.667545
 Cu 0.62365 0.20025 0.45602   0.830511
 Cu 0.05062 0.91312 0.6341   0.921123
 Cu 0.06546 0.90041 0.19724   0.667545
 H 0.2975 0.3275 0.3342   0.120731
 H 0.5134 0.4425 0.364   0.099105
 H 0.5475 0.376 0.5323   0.118128
 H 0.33 0.2624 0.5049   0.112491
 H 0.7511 0.4924 0.5505   0.102075
 H 0.7224 0.5171 0.4281   0.090032
 H 0.1979 0.684 0.6206   0.09693
 H 0.979 0.5816 0.6128   0.137777
 H 0.9183 0.6036 0.4305   0.131481
 H 0.1565 0.7098 0.4447   0.107266
 H 0.2944 0.1516 0.9312   0.100667
 H 0.4934 0.1635 0.0133   0.109859
 H 0.2605 0.9362 0.0583   0.091319
 H 0.0863 0.921 0.9804   0.092688
 H 0.5961 0.1082 0.0902   0.084314
 H 0.4233 0.9754 0.1338   0.08038
 H 0.9325 0.1244 0.2412   0.079849
 H 0.7836 0.1153 0.1564   0.144749
 H 0.4836 0.9572 0.2394   0.136258
 H 0.6469 0.9803 0.3235   0.073702
 H 0.8798 0.0766 0.5723   0.124285
 H 0.198 0.1117 0.7612   0.079216
 H 0.3785 0.2097 0.7207   0.138021
 H 0.3749 0.3566 0.719   0.103495
 H 0.1909 0.4054 0.7577   0.129819
 H 0.0105 0.3073 0.7982   0.098945
 H 0.7025 0.6725 0.6658   0.120729
 H 0.4866 0.5575 0.636   0.099105
 H 0.4525 0.624 0.4677   0.118128
 H 0.67 0.7376 0.4951   0.112492
 H 0.2489 0.5076 0.4495   0.102075
 H 0.2776 0.4829 0.5719   0.090033
 H 0.8021 0.316 0.3794   0.096931
 H 0.021 0.4184 0.3872   0.137776
 H 0.0817 0.3964 0.5695   0.131481
 H 0.8435 0.2902 0.5553   0.107267
 H 0.7056 0.8484 0.0688   0.100667
 H 0.5066 0.8365 0.9867   0.109859
 H 0.7395 0.0638 0.9417   0.091319
 H 0.9137 0.079 0.0196   0.092687
 H 0.4039 0.8918 0.9098   0.084314
 H 0.5767 0.0246 0.8662   0.08038
 H 0.0675 0.8756 0.7588   0.079849
 H 0.2164 0.8847 0.8436   0.144748
 H 0.5164 0.0428 0.7606   0.136258
 H 0.3531 0.0197 0.6765   0.073702
 H 0.1202 0.9234 0.4277   0.124285
 H 0.802 0.8883 0.2388   0.079216
 H 0.6215 0.7903 0.2793   0.138021
 H 0.6251 0.6434 0.281   0.103495
 H 0.8091 0.5946 0.2423   0.129818
 H 0.9895 0.6927 0.2018   0.098944
 C 0.1536 0.214 0.4018   0.589317
 C 0.2917 0.2863 0.4205   -0.12158
 C 0.3461 0.3379 0.3743   -0.019667
 C 0.4769 0.4053 0.3923   -0.124366
 C 0.5521 0.4181 0.4495   0.079444
 C 0.4979 0.3666 0.4926   -0.17101
 C 0.3657 0.2989 0.4762   -0.043698
 C 0.7813 0.5167 0.5154   -0.150636
 C 0.6927 0.4889 0.4617   -0.081358
 C 0.1419 0.6667 0.5817   0.176909
 C 0.0094 0.6063 0.5778   -0.194345
 C 0.9231 0.5829 0.5228   0.1366
 C 0.974 0.6193 0.4693   -0.20389
 C 0.1189 0.6831 0.4779   0.150686
 C 0.0577 0.038 0.8932   0.581308
 C 0.1747 0.0311 0.946   -0.095549
 C 0.289 0.1068 0.9551   -0.091425
 C 0.41 0.115 0.007   -0.155354
 C 0.39 0.051 0.0425   0.083736
 C 0.2715 0.9796 0.033   -0.124814
 C 0.167 0.9708 0.9857   -0.012907
 C 0.5115 0.0643 0.0924   -0.060505
 C 0.5072 0.0218 0.1353   -0.124146
 C 0.8378 0.0926 0.2414   0.185312
 C 0.7525 0.0862 0.1894   -0.210589
 C 0.6126 0.0321 0.1886   0.157921
 C 0.5757 0.9936 0.239   -0.207773
 C 0.6739 0.0082 0.2895   0.193637
 C 0.5603 0.8691 0.6573   0.559357
 C 0.6238 0.922 0.609   0.080748
 C 0.7522 0.9946 0.6173   -0.065551
 C 0.8386 0.0291 0.6814   0.679608
 C 0.796 0.029 0.5668   -0.007177
 C 0.7783 0.0348 0.4494   0.683581
 C 0.7215 0.9969 0.5055   -0.050932
 C 0.5935 0.9224 0.5012   0.052331
 C 0.4939 0.8736 0.4435   0.581481
 C 0.197 0.1705 0.7605   0.168883
 C 0.305 0.229 0.7362   -0.151961
 C 0.303 0.317 0.735   0.003381
 C 0.192 0.3465 0.758   -0.188179
 C 0.084 0.2877 0.7827   0.135965
 C 0.8464 0.786 0.5982   0.589317
 C 0.7083 0.7137 0.5795   -0.121581
 C 0.6539 0.6621 0.6257   -0.019667
 C 0.5231 0.5947 0.6077   -0.124367
 C 0.4479 0.5819 0.5505   0.079444
 C 0.5021 0.6334 0.5074   -0.17101
 C 0.6343 0.7011 0.5238   -0.043698
 C 0.2187 0.4833 0.4846   -0.150636
 C 0.3073 0.5111 0.5383   -0.081358
 C 0.8581 0.3333 0.4183   0.176909
 C 0.9906 0.3937 0.4222   -0.194345
 C 0.0769 0.4171 0.4772   0.1366
 C 0.026 0.3807 0.5307   -0.20389
 C 0.8811 0.3169 0.5221   0.150685
 C 0.9423 0.962 0.1068   0.581308
 C 0.8253 0.9689 0.054   -0.09555
 C 0.711 0.8932 0.0449   -0.091425
 C 0.59 0.885 0.993   -0.155354
 C 0.61 0.949 0.9575   0.083736
 C 0.7285 0.0204 0.967   -0.124815
 C 0.833 0.0292 0.0143   -0.012907
 C 0.4885 0.9357 0.9076   -0.060505
 C 0.4928 0.9782 0.8647   -0.124146
 C 0.1622 0.9074 0.7586   0.185311
 C 0.2475 0.9138 0.8106   -0.210589
 C 0.3874 0.9679 0.8114   0.157921
 C 0.4243 0.0064 0.761   -0.207772
 C 0.3261 0.9918 0.7105   0.193637
 C 0.4397 0.1309 0.3427   0.559357
 C 0.3762 0.078 0.391   0.080748
 C 0.2478 0.0054 0.3827   -0.065551
 C 0.1614 0.9709 0.3186   0.679608
 C 0.204 0.971 0.4332   -0.007177
 C 0.2217 0.9652 0.5506   0.683581
 C 0.2785 0.0031 0.4945   -0.050932
 C 0.4065 0.0776 0.4988   0.052331
 C 0.5061 0.1264 0.5565   0.581481
 C 0.803 0.8295 0.2395   0.168883
 C 0.695 0.771 0.2638   -0.151961
 C 0.697 0.683 0.265   0.003381
 C 0.808 0.6535 0.242   -0.188179
 C 0.916 0.7123 0.2173   0.135965
 N 0.1937 0.7013 0.5341   -0.311811
 N 0.8052 0.06 0.2923   -0.367031
 N 0.5553 0.8935 0.552   -0.228737
 N 0.0864 0.1998 0.7837   -0.320614
 N 0.8063 0.2987 0.4659   -0.31181
 N 0.1948 0.94 0.7077   -0.367031
 N 0.4447 0.1065 0.448   -0.228737
 N 0.9136 0.8002 0.2163   -0.320614
 O 0.1075 0.1576 0.4368   -0.534754
 O 0.0837 0.2052 0.3483   -0.541056
 O 0.9677 0.9464 0.8811   -0.557248
 O 0.0638 0.097 0.8697   -0.446714
 O 0.6185 0.8802 0.7123   -0.475366
 O 0.436 0.8084 0.6346   -0.575701
 O 0.8129 0.0869 0.7218   -0.542141
 O 0.9453 0.9999 0.6875   -0.63505
 O 0.8487 0.9952 0.4167   -0.553675
 O 0.7564 0.1055 0.4427   -0.635852
 O 0.515 0.8964 0.3914   -0.508641
 O 0.3884 0.8065 0.4532   -0.59116
 O 0.8925 0.8424 0.5632   -0.534754
 O 0.9163 0.7948 0.6517   -0.541056
 O 0.0323 0.0536 0.1189   -0.557248
 O 0.9362 0.903 0.1303   -0.446714
 O 0.3815 0.1198 0.2877   -0.475366
 O 0.564 0.1916 0.3654   -0.575701
 O 0.1871 0.9131 0.2782   -0.542141
 O 0.0547 0.000100000000003 0.3125   -0.63505
 O 0.1513 0.0048 0.5833   -0.553675
 O 0.2436 0.8945 0.5573   -0.635852
 O 0.485 0.1036 0.6086   -0.508641
 O 0.6116 0.1935 0.5468   -0.59116
