{'_ref': 'TBD', '_srcid': 'CAKYAQ_clean', 'submitters': [{'name': 'Dalar Nazarian Jeff Camp and David Sholl', 'email': 'dalar@gatech.edu jcamp6@gatech.edu'}], '_method': 'VASP DFT with PBE;DDEC'}
data_LaH24(C3O)9
_symmetry_space_group_name_H-M   'P 1'
_cell_length_a   9.77919966
_cell_length_b   11.33309986
_cell_length_c   15.92400000
_cell_angle_alpha   71.04200229
_cell_angle_beta   85.29000045
_cell_angle_gamma   70.90700226
_symmetry_Int_Tables_number   1
_chemical_formula_structural   LaH24(C3O)9
_chemical_formula_sum   'La2 H48 C54 O18'
_cell_volume   1576.70986696
_cell_formula_units_Z   2
loop_
 _symmetry_equiv_pos_site_id
 _symmetry_equiv_pos_as_xyz
  1  'x, y, z'
loop_
 _atom_site_label
 _atom_site_fract_x
 _atom_site_fract_y
 _atom_site_fract_z
 _atom_site_charge
 La 0.46104 0.09449 0.91594   2.188116
 La 0.90113 0.99316 0.93722   2.196191
 H 0.709 0.728 0.452   0.077052
 H 0.5445 0.8161 0.576   0.108705
 H 0.5205 0.8898 0.6989   0.087952
 H 0.9331 0.861 0.697   0.096224
 H 0.9616 0.7844 0.5758   0.092285
 H 0.6628 0.9671 0.3984   0.049263
 H 0.7679 0.9813 0.3186   0.06813
 H 0.6724 0.8897 0.3313   0.056036
 H 0.974 0.58 0.535   0.042771
 H 0.663 0.5177 0.5084   0.09348
 H 0.552 0.3836 0.6211   0.103183
 H 0.8403 0.3467 0.8012   0.103381
 H 0.9464 0.4801 0.6909   0.107388
 H 0.9953 0.3575 0.4782   0.069933
 H 0.0759 0.4327 0.401   0.074648
 H 0.0892 0.4346 0.498   0.072137
 H 0.394 0.554 0.366   0.055194
 H 0.6496 0.6096 0.3388   0.090952
 H 0.784 0.7102 0.2374   0.102327
 H 0.534 0.7316 0.0444   0.098946
 H 0.4156 0.6073 0.1466   0.110954
 H 0.2089 0.7174 0.2695   0.051101
 H 0.1346 0.6656 0.2117   0.089082
 H 0.106 0.6347 0.3137   0.06458
 H 0.446 0.33 0.389   0.062133
 H 0.7649 0.3263 0.2621   0.091356
 H 0.8254 0.2459 0.1436   0.100672
 H 0.4288 0.207 0.1558   0.084291
 H 0.3842 0.2713 0.2781   0.088216
 H 0.7336 0.1673 0.434   0.041779
 H 0.7749 0.2279 0.5   0.071184
 H 0.6248 0.2039 0.5065   0.055803
 H 0.049 0.147 0.397   0.054162
 H 0.9724 0.0376 0.5728   0.096254
 H 0.9665 0.0686 0.7102   0.077733
 H 0.3438 0.1451 0.6616   0.105721
 H 0.3497 0.114 0.5242   0.104848
 H 0.0253 0.3214 0.3253   0.072802
 H 0.1573 0.3152 0.262   0.102313
 H 0.066 0.2208 0.2719   0.065507
 H 0.087 0.942 0.456   0.075676
 H 0.4052 0.9562 0.3111   0.091808
 H 0.4172 0.9577 0.1649   0.092441
 H 0.9943 0.9862 0.1701   0.101882
 H 0.9903 0.0077 0.3095   0.083944
 H 0.2462 0.7317 0.4844   0.063719
 H 0.3957 0.7208 0.4382   0.053585
 H 0.3871 0.6924 0.5413   0.070742
 C 0.7734 0.7405 0.4875   0.112808
 C 0.7598 0.7883 0.564   0.036913
 C 0.6243 0.8227 0.5999   -0.151668
 C 0.6108 0.868 0.6737   -0.004177
 C 0.7212 0.8809 0.7088   -0.174729
 C 0.8551 0.851 0.6735   -0.031997
 C 0.8708 0.8049 0.6006   -0.138933
 C 0.703 0.9373 0.7865   0.78845
 C 0.726 0.9218 0.3615   0.005979
 C 0.8782 0.597 0.5126   0.122884
 C 0.8136 0.5079 0.5869   0.000138
 C 0.6992 0.4835 0.5666   -0.131073
 C 0.6305 0.4036 0.635   -0.054852
 C 0.6847 0.357 0.7228   -0.158436
 C 0.803 0.3817 0.7432   -0.016716
 C 0.8683 0.4596 0.6769   -0.137216
 C 0.6129 0.2708 0.7924   0.764386
 C 0.026 0.4342 0.4553   -0.0175
 C 0.4344 0.5143 0.3206   0.143719
 C 0.5173 0.5946 0.2525   0.02503
 C 0.6291 0.6309 0.2787   -0.133292
 C 0.7054 0.695 0.2187   -0.017542
 C 0.6696 0.7387 0.1301   -0.171385
 C 0.5593 0.7045 0.1043   -0.003058
 C 0.4868 0.6314 0.1657   -0.131932
 C 0.7418 0.8204 0.0627   0.732088
 C 0.1769 0.6461 0.269   0.015747
 C 0.5166 0.3691 0.3567   0.140204
 C 0.5694 0.3042 0.2824   0.019418
 C 0.6995 0.2976 0.2414   -0.138521
 C 0.7366 0.2496 0.1704   -0.025429
 C 0.6357 0.2062 0.1394   -0.196658
 C 0.5012 0.2247 0.1792   0.006471
 C 0.4725 0.2673 0.2506   -0.123102
 C 0.672 0.1526 0.065   0.790929
 C 0.697 0.2286 0.4666   0.013635
 C 0.1298 0.0823 0.4348   0.093072
 C 0.1616 0.0727 0.5349   0.043347
 C 0.0468 0.0591 0.5906   -0.167774
 C 0.0433 0.0777 0.6729   0.00032
 C 0.1546 0.1099 0.6995   -0.209522
 C 0.2693 0.1235 0.6438   -0.003088
 C 0.2729 0.1049 0.5615   -0.130211
 C 0.1503 0.1218 0.7908   0.808606
 C 0.104 0.264 0.3025   -0.010677
 C 0.1802 0.944 0.4334   0.082635
 C 0.1998 0.9549 0.3319   0.022575
 C 0.3242 0.9576 0.2836   -0.123584
 C 0.3308 0.9623 0.1949   -0.026294
 C 0.2057 0.974 0.1513   -0.225246
 C 0.0777 0.9822 0.1966   -0.012557
 C 0.0791 0.984 0.283   -0.139812
 C 0.2119 0.9635 0.0584   0.83388
 C 0.338 0.7453 0.4852   -0.013657
 O 0.5749 0.9736 0.8126   -0.709571
 O 0.81 0.9437 0.8151   -0.723355
 O 0.8377 0.8148 0.4147   -0.351061
 O 0.4875 0.2874 0.7817   -0.659226
 O 0.6894 0.1864 0.8571   -0.812417
 O 0.8925 0.5586 0.437   -0.319207
 O 0.8747 0.811 0.0749   -0.691306
 O 0.6781 0.8995 0.9891   -0.790217
 O 0.2996 0.5258 0.2871   -0.379282
 O 0.7953 0.125 0.0376   -0.663386
 O 0.5639 0.1345 0.033   -0.806478
 O 0.636 0.3542 0.4078   -0.320491
 O 0.0387 0.1164 0.8345   -0.762187
 O 0.257 0.1429 0.8167   -0.745835
 O 0.2009 0.1646 0.377   -0.331595
 O 0.3229 0.9722 0.0143   -0.789927
 O 0.1111 0.946 0.0313   -0.726447
 O 0.3158 0.8762 0.4736   -0.259194
