{'_ref': 'TBD', '_srcid': 'CAKYAQ_clean', 'submitters': [{'name': 'Dalar Nazarian Jeff Camp and David Sholl', 'email': 'dalar@gatech.edu jcamp6@gatech.edu'}], '_method': 'VASP DFT with PBE;DDEC'}
data_LaH18(C3O)9
_symmetry_space_group_name_H-M   'P 1'
_cell_length_a   9.79899976
_cell_length_b   11.27199993
_cell_length_c   15.93500000
_cell_angle_alpha   70.51700051
_cell_angle_beta   84.66799776
_cell_angle_gamma   71.04599787
_symmetry_Int_Tables_number   1
_chemical_formula_structural   LaH18(C3O)9
_chemical_formula_sum   'La2 H36 C54 O18'
_cell_volume   1569.10526126
_cell_formula_units_Z   2
loop_
 _symmetry_equiv_pos_site_id
 _symmetry_equiv_pos_as_xyz
  1  'x, y, z'
loop_
 _atom_site_label
 _atom_site_fract_x
 _atom_site_fract_y
 _atom_site_fract_z
 _atom_site_charge
 La 0.78091 0.55068 0.98927   2.195263
 La 0.21909 0.44932 0.01073   2.195266
 H 0.8995 0.2477 0.6542   0.096765
 H 0.8529 0.3171 0.7777   0.101881
 H 0.2525 0.3391 0.7681   0.092445
 H 0.3015 0.2604 0.6498   0.089319
 H 0.0232 0.9513 0.583   0.103659
 H 0.8925 0.8412 0.69   0.104426
 H 0.1523 0.8155 0.8776   0.09693
 H 0.2715 0.9397 0.7713   0.116758
 H 0.000100000000003 0.3468 0.3962   0.082998
 H 0.9753 0.4287 0.4619   0.061314
 H 0.089 0.4438 0.3863   0.085178
 H 0.4245 0.8833 0.5854   0.09277
 H 0.3408 0.8264 0.5374   0.074904
 H 0.43 0.9183 0.4816   0.083361
 H 0.7253 0.4443 0.3695   0.091656
 H 0.7256 0.4405 0.2253   0.080578
 H 0.3188 0.4325 0.251   0.100596
 H 0.3187 0.4367 0.3948   0.091904
 H 0.1005 0.7523 0.3458   0.096765
 H 0.1471 0.6829 0.2223   0.101882
 H 0.7475 0.6609 0.2319   0.092445
 H 0.6985 0.7396 0.3502   0.08932
 H 0.9768 0.0487 0.417   0.10366
 H 0.1075 0.1588 0.31   0.104427
 H 0.8477 0.1845 0.1224   0.096932
 H 0.7285 0.0603 0.2287   0.116758
 H 0.9999 0.6532 0.6038   0.082999
 H 0.0247 0.5713 0.5381   0.061314
 H 0.911 0.5562 0.6137   0.085178
 H 0.5755 0.1167 0.4146   0.09277
 H 0.6592 0.1736 0.4626   0.074904
 H 0.57 0.0817 0.5184   0.083361
 H 0.2747 0.5557 0.6305   0.091656
 H 0.2744 0.5595 0.7747   0.080578
 H 0.6812 0.5675 0.749   0.100596
 H 0.6813 0.5633 0.6052   0.091904
 C 0.157 0.1847 0.5647   0.281727
 C 0.1058 0.2443 0.639   -0.025747
 C 0.9721 0.2644 0.6778   -0.121054
 C 0.9425 0.3086 0.751   -0.016855
 C 0.0453 0.3397 0.7836   -0.183454
 C 0.181 0.3201 0.7454   -0.023806
 C 0.2101 0.2731 0.6745   -0.114881
 C 0.0172 0.3936 0.8596   0.786812
 C 0.2506 0.0402 0.6002   -0.174093
 C 0.1597 0.9597 0.6656   0.103584
 C 0.0477 0.9267 0.6428   -0.154333
 C 0.971 0.8579 0.7068   -0.037099
 C 0.011 0.8135 0.7961   -0.168852
 C 0.1238 0.8445 0.8182   -0.011375
 C 0.1968 0.9183 0.7541   -0.152905
 C 0.9376 0.7294 0.8655   0.750758
 C 0.046 0.383 0.428   0.022544
 C 0.371 0.901 0.533   -0.010712
 C 0.537 0.4361 0.4916   0.033471
 C 0.5214 0.4394 0.3974   0.033207
 C 0.6437 0.441 0.3461   -0.135303
 C 0.644 0.4378 0.2598   -0.001827
 C 0.5259 0.4309 0.225   -0.197036
 C 0.4013 0.4332 0.2752   0.00478
 C 0.4014 0.4365 0.361   -0.132036
 C 0.5296 0.4189 0.1336   0.812522
 C 0.607 0.2275 0.5563   -0.069546
 C 0.843 0.8153 0.4353   0.281727
 C 0.8942 0.7557 0.361   -0.025747
 C 0.0279 0.7356 0.3222   -0.121054
 C 0.0575 0.6914 0.249   -0.016855
 C 0.9547 0.6603 0.2164   -0.183454
 C 0.819 0.6799 0.2546   -0.023806
 C 0.7899 0.7269 0.3255   -0.114881
 C 0.9828 0.6064 0.1404   0.786812
 C 0.7494 0.9598 0.3998   -0.174093
 C 0.8403 0.0403 0.3344   0.103584
 C 0.9523 0.0733 0.3572   -0.154333
 C 0.029 0.1421 0.2932   -0.037099
 C 0.989 0.1865 0.2039   -0.168852
 C 0.8762 0.1555 0.1818   -0.011376
 C 0.8032 0.0817 0.2459   -0.152906
 C 0.0624 0.2706 0.1345   0.750758
 C 0.954 0.617 0.572   0.022544
 C 0.629 0.099 0.467   -0.010713
 C 0.463 0.5639 0.5084   0.033473
 C 0.4786 0.5606 0.6026   0.033207
 C 0.3563 0.559 0.6539   -0.135302
 C 0.356 0.5622 0.7402   -0.001828
 C 0.4741 0.5691 0.775   -0.197036
 C 0.5987 0.5668 0.7248   0.00478
 C 0.5986 0.5635 0.639   -0.132037
 C 0.4704 0.5811 0.8664   0.812522
 C 0.393 0.7725 0.4437   -0.069546
 O 0.8904 0.426 0.8866   -0.692459
 O 0.1222 0.4081 0.8896   -0.760345
 O 0.8087 0.7438 0.8544   -0.668957
 O 0.0066 0.6452 0.9345   -0.806438
 O 0.156 0.2768 0.4874   -0.241838
 O 0.244 0.017 0.5239   -0.203484
 O 0.6391 0.4253 0.0883   -0.763264
 O 0.4239 0.3999 0.1077   -0.738649
 O 0.6416 0.3486 0.5419   -0.065769
 O 0.1096 0.574 0.1134   -0.692459
 O 0.8778 0.5919 0.1104   -0.760345
 O 0.1913 0.2562 0.1456   -0.668957
 O 0.9934 0.3548 0.0655   -0.806438
 O 0.844 0.7232 0.5126   -0.241838
 O 0.756 0.983 0.4761   -0.203484
 O 0.3609 0.5747 0.9117   -0.763264
 O 0.5761 0.6001 0.8923   -0.738648
 O 0.3584 0.6514 0.4581   -0.065769
