{'_ref': 'TBD', '_srcid': 'CAKYAQ_clean', 'submitters': [{'name': 'Dalar Nazarian Jeff Camp and David Sholl', 'email': 'dalar@gatech.edu jcamp6@gatech.edu'}], '_method': 'VASP DFT with PBE;DDEC'}
data_SrGd2H2C8O17
_symmetry_space_group_name_H-M   'P 1'
_cell_length_a   11.42500000
_cell_length_b   12.64900000
_cell_length_c   15.82400000
_cell_angle_alpha   90.00000000
_cell_angle_beta   90.00000000
_cell_angle_gamma   90.00000000
_symmetry_Int_Tables_number   1
_chemical_formula_structural   SrGd2H2C8O17
_chemical_formula_sum   'Sr4 Gd8 H8 C32 O68'
_cell_volume   2286.8025908
_cell_formula_units_Z   4
loop_
 _symmetry_equiv_pos_site_id
 _symmetry_equiv_pos_as_xyz
  1  'x, y, z'
loop_
 _atom_site_label
 _atom_site_fract_x
 _atom_site_fract_y
 _atom_site_fract_z
 _atom_site_charge
 Sr 0.25 0.12874 0.67245   1.765804
 Sr 0.75 0.62874 0.82755   1.765804
 Sr 0.75 0.87126 0.32755   1.765804
 Sr 0.25 0.37126 0.17245   1.765804
 Gd 0.25 0.52233 0.42294   2.130299
 Gd 0.25 0.02228 0.42622   2.181863
 Gd 0.75 0.02233 0.07706   2.130299
 Gd 0.75 0.52228 0.07378   2.181863
 Gd 0.75 0.47767 0.57706   2.130299
 Gd 0.75 0.97772 0.57378   2.181863
 Gd 0.25 0.97767 0.92294   2.130299
 Gd 0.25 0.47772 0.92622   2.181863
 H 0.1939 0.5956 0.253   0.493498
 H 0.8061 0.0956 0.247   0.493498
 H 0.6939 0.4044 0.747   0.493498
 H 0.3061 0.9044 0.753   0.493498
 H 0.8061 0.4044 0.747   0.493498
 H 0.1939 0.9044 0.753   0.493498
 H 0.3061 0.5956 0.253   0.493498
 H 0.6939 0.0956 0.247   0.493498
 C 0.0255 0.9797 0.5422   0.607597
 C 0.317 0.773 0.4076   0.572488
 C 0.9771 0.4775 0.4578   0.575566
 C 0.9745 0.4797 0.9578   0.607597
 C 0.683 0.273 0.0924   0.572488
 C 0.0229 0.9775 0.0422   0.575566
 C 0.5255 0.0203 0.4578   0.607597
 C 0.817 0.227 0.5924   0.572488
 C 0.4771 0.5225 0.5422   0.575566
 C 0.4745 0.5203 0.0422   0.607597
 C 0.183 0.727 0.9076   0.572488
 C 0.5229 0.0225 0.9578   0.575566
 C 0.9745 0.0203 0.4578   0.607596
 C 0.683 0.227 0.5924   0.572487
 C 0.0229 0.5225 0.5422   0.575565
 C 0.0255 0.5203 0.0422   0.607596
 C 0.317 0.727 0.9076   0.572487
 C 0.9771 0.0225 0.9578   0.575565
 C 0.4745 0.9797 0.5422   0.607596
 C 0.183 0.773 0.4076   0.572487
 C 0.5229 0.4775 0.4578   0.575565
 C 0.5255 0.4797 0.9578   0.607596
 C 0.817 0.273 0.0924   0.572487
 C 0.4771 0.9775 0.0422   0.575565
 C 0.25 0.2718 0.4733   0.61169
 C 0.25 0.269 0.3767   0.649009
 C 0.75 0.7718 0.0267   0.61169
 C 0.75 0.769 0.1233   0.649009
 C 0.75 0.7282 0.5267   0.61169
 C 0.75 0.731 0.6233   0.649009
 C 0.25 0.2282 0.9733   0.61169
 C 0.25 0.231 0.8767   0.649009
 O 0.1322 0.9953 0.5549   -0.740024
 O 0.3654 0.8611 0.4063   -0.689162
 O 0.9545 0.9348 0.5918   -0.638807
 O 0.0509 0.4685 0.3993   -0.701624
 O 0.367 0.6846 0.4079   -0.645227
 O 0.8721 0.4536 0.4534   -0.606694
 O 0.8678 0.4953 0.9451   -0.740024
 O 0.6346 0.3611 0.0937   -0.689162
 O 0.0455 0.4348 0.9082   -0.638807
 O 0.9491 0.9685 0.1007   -0.701624
 O 0.633 0.1846 0.0921   -0.645227
 O 0.1279 0.9536 0.0466   -0.606694
 O 0.6322 0.0047 0.4451   -0.740024
 O 0.8654 0.1389 0.5937   -0.689162
 O 0.4545 0.0652 0.4082   -0.638807
 O 0.5509 0.5315 0.6007   -0.701624
 O 0.867 0.3154 0.5921   -0.645227
 O 0.3721 0.5464 0.5466   -0.606694
 O 0.3678 0.5047 0.0549   -0.740024
 O 0.1346 0.6389 0.9063   -0.689162
 O 0.5455 0.5652 0.0918   -0.638807
 O 0.4491 0.0315 0.8993   -0.701624
 O 0.133 0.8154 0.9079   -0.645227
 O 0.6279 0.0464 0.9534   -0.606694
 O 0.8678 0.0047 0.4451   -0.740024
 O 0.6346 0.1389 0.5937   -0.689162
 O 0.0455 0.0652 0.4082   -0.638807
 O 0.9491 0.5315 0.6007   -0.701624
 O 0.633 0.3154 0.5921   -0.645227
 O 0.1279 0.5464 0.5466   -0.606693
 O 0.1322 0.5047 0.0549   -0.740024
 O 0.3654 0.6389 0.9063   -0.689162
 O 0.9545 0.5652 0.0918   -0.638807
 O 0.0509 0.0315 0.8993   -0.701624
 O 0.367 0.8154 0.9079   -0.645227
 O 0.8721 0.0464 0.9534   -0.606693
 O 0.3678 0.9953 0.5549   -0.740024
 O 0.1346 0.8611 0.4063   -0.689162
 O 0.5455 0.9348 0.5918   -0.638807
 O 0.4491 0.4685 0.3993   -0.701624
 O 0.133 0.6846 0.4079   -0.645227
 O 0.6279 0.4536 0.4534   -0.606694
 O 0.6322 0.4953 0.9451   -0.740024
 O 0.8654 0.3611 0.0937   -0.689162
 O 0.4545 0.4348 0.9082   -0.638807
 O 0.5509 0.9685 0.1007   -0.701624
 O 0.867 0.1846 0.0921   -0.645227
 O 0.3721 0.9536 0.0466   -0.606694
 O 0.25 0.3605 0.5084   -0.594593
 O 0.25 0.3568 0.3382   -0.785361
 O 0.25 0.1815 0.3422   -0.671835
 O 0.25 0.1845 0.5101   -0.7965
 O 0.25 0.5567 0.2672   -0.945595
 O 0.75 0.8605 0.9916   -0.594593
 O 0.75 0.8568 0.1618   -0.785361
 O 0.75 0.6815 0.1578   -0.671835
 O 0.75 0.6845 0.9899   -0.7965
 O 0.75 0.0567 0.2328   -0.945595
 O 0.75 0.6395 0.4916   -0.594593
 O 0.75 0.6432 0.6618   -0.785361
 O 0.75 0.8185 0.6578   -0.671835
 O 0.75 0.8155 0.4899   -0.7965
 O 0.75 0.4433 0.7328   -0.945595
 O 0.25 0.1395 0.0084   -0.594593
 O 0.25 0.1432 0.8382   -0.785361
 O 0.25 0.3185 0.8422   -0.671835
 O 0.25 0.3155 0.0101   -0.7965
 O 0.25 0.9433 0.7672   -0.945595
