{'_ref': 'TBD', '_srcid': 'CAKYAQ_clean', 'submitters': [{'name': 'Dalar Nazarian Jeff Camp and David Sholl', 'email': 'dalar@gatech.edu jcamp6@gatech.edu'}], '_method': 'VASP DFT with PBE;DDEC'}
data_Mn2NbH4(C6N5)2
_symmetry_space_group_name_H-M   'P 1'
_cell_length_a   10.60520000
_cell_length_b   14.38690042
_cell_length_c   15.57510000
_cell_angle_alpha   90.00000000
_cell_angle_beta   90.00000000
_cell_angle_gamma   108.28499980
_symmetry_Int_Tables_number   1
_chemical_formula_structural   Mn2NbH4(C6N5)2
_chemical_formula_sum   'Mn8 Nb4 H16 C48 N40'
_cell_volume   2256.39647367
_cell_formula_units_Z   4
loop_
 _symmetry_equiv_pos_site_id
 _symmetry_equiv_pos_as_xyz
  1  'x, y, z'
loop_
 _atom_site_label
 _atom_site_fract_x
 _atom_site_fract_y
 _atom_site_fract_z
 _atom_site_charge
 Mn 0.58665 0.01678 0.22444   1.186
 Mn 0.8928 0.69719 0.94865   1.164092
 Mn 0.41335 0.48322 0.72444   1.186
 Mn 0.1072 0.80281 0.44865   1.164092
 Mn 0.41335 0.98322 0.77556   1.186
 Mn 0.1072 0.30281 0.05135   1.164091
 Mn 0.58665 0.51678 0.27556   1.185999
 Mn 0.8928 0.19719 0.55135   1.164091
 Nb 0.60395 0.30489 0.97872   0.266453
 Nb 0.39605 0.19511 0.47872   0.266453
 Nb 0.39605 0.69511 0.02128   0.266452
 Nb 0.60395 0.80489 0.52128   0.266452
 H 0.9016 0.8407 0.1064   0.094735
 H 0.044 0.9683 0.1827   0.138658
 H 0.2893 0.0037 0.9865   0.081622
 H 0.2446 0.0541 0.1199   0.135674
 H 0.0984 0.6593 0.6064   0.094735
 H 0.956 0.5317 0.6827   0.138658
 H 0.7107 0.4963 0.4865   0.081622
 H 0.7554 0.4459 0.6199   0.135674
 H 0.0984 0.1593 0.8936   0.094735
 H 0.956 0.0317 0.8173   0.138658
 H 0.7107 0.9963 0.0135   0.081621
 H 0.7554 0.9459 0.8801   0.135674
 H 0.9016 0.3407 0.3936   0.094735
 H 0.044 0.4683 0.3173   0.138658
 H 0.2893 0.5037 0.5135   0.081621
 H 0.2446 0.5541 0.3801   0.135674
 C 0.71609 0.46065 0.94237   0.131893
 C 0.49183 0.16648 0.91146   0.139923
 C 0.81422 0.32802 0.02168   0.150694
 C 0.48845 0.35168 0.87567   0.132536
 C 0.62153 0.38849 0.10305   0.128055
 C 0.39584 0.27524 0.02911   0.137072
 C 0.58686 0.18451 0.07553   0.116583
 C 0.72072 0.28665 0.86249   0.038193
 C 0.9829 0.87524 0.08208   0.133808
 C 0.0672 0.95195 0.12849   -0.070942
 C 0.2082 0.97104 0.01199   0.156737
 C 0.1837 0.00171 0.09226   -0.063912
 C 0.28391 0.03935 0.44237   0.131893
 C 0.50817 0.33352 0.41146   0.139923
 C 0.18578 0.17198 0.52168   0.150694
 C 0.51155 0.14832 0.37567   0.132536
 C 0.37847 0.11151 0.60305   0.128055
 C 0.60416 0.22476 0.52911   0.137072
 C 0.41314 0.31549 0.57553   0.116583
 C 0.27928 0.21335 0.36249   0.038193
 C 0.0171 0.62476 0.58208   0.133808
 C 0.9328 0.54805 0.62849   -0.070942
 C 0.7918 0.52896 0.51199   0.156737
 C 0.8163 0.49829 0.59226   -0.063912
 C 0.28391 0.53935 0.05763   0.131893
 C 0.50817 0.83352 0.08854   0.139923
 C 0.18578 0.67198 0.97832   0.150694
 C 0.51155 0.64832 0.12433   0.132536
 C 0.37847 0.61151 0.89695   0.128055
 C 0.60416 0.72476 0.97089   0.137072
 C 0.41314 0.81549 0.92447   0.116584
 C 0.27928 0.71335 0.13751   0.038194
 C 0.0171 0.12476 0.91792   0.133808
 C 0.9328 0.04805 0.87151   -0.070942
 C 0.7918 0.02896 0.98801   0.156738
 C 0.8163 0.99829 0.90774   -0.063912
 C 0.71609 0.96065 0.55763   0.131893
 C 0.49183 0.66648 0.58854   0.139923
 C 0.81422 0.82802 0.47832   0.150694
 C 0.48845 0.85168 0.62433   0.132536
 C 0.62153 0.88849 0.39695   0.128055
 C 0.39584 0.77524 0.47089   0.137072
 C 0.58686 0.68451 0.42447   0.116584
 C 0.72072 0.78665 0.63751   0.038194
 C 0.9829 0.37524 0.41792   0.133808
 C 0.0672 0.45195 0.37151   -0.070942
 C 0.2082 0.47104 0.48801   0.156738
 C 0.1837 0.50171 0.40774   -0.063912
 N 0.77449 0.53931 0.92179   -0.467505
 N 0.63096 0.43055 0.16664   -0.464266
 N 0.57623 0.12367 0.12497   -0.46128
 N 0.44078 0.09863 0.87069   -0.481418
 N 0.92236 0.34011 0.04077   -0.473272
 N 0.42984 0.37746 0.8242   -0.469609
 N 0.01158 0.84845 0.00547   -0.227517
 N 0.28987 0.26452 0.05187   -0.482402
 N 0.78211 0.27694 0.80485   -0.443927
 N 0.12557 0.89911 0.96873   -0.226677
 N 0.22551 0.96069 0.42179   -0.467505
 N 0.36904 0.06945 0.66664   -0.464266
 N 0.42377 0.37633 0.62497   -0.46128
 N 0.55922 0.40137 0.37069   -0.481418
 N 0.07764 0.15989 0.54077   -0.473272
 N 0.57016 0.12254 0.3242   -0.469609
 N 0.98842 0.65155 0.50547   -0.227517
 N 0.71013 0.23548 0.55187   -0.482402
 N 0.21789 0.22306 0.30485   -0.443927
 N 0.87443 0.60089 0.46873   -0.226677
 N 0.22551 0.46069 0.07821   -0.467505
 N 0.36904 0.56945 0.83336   -0.464266
 N 0.42377 0.87633 0.87503   -0.46128
 N 0.55922 0.90137 0.12931   -0.481418
 N 0.07764 0.65989 0.95923   -0.473273
 N 0.57016 0.62254 0.1758   -0.469609
 N 0.98842 0.15155 0.99453   -0.227517
 N 0.71013 0.73548 0.94813   -0.482402
 N 0.21789 0.72306 0.19515   -0.443927
 N 0.87443 0.10089 0.03127   -0.226677
 N 0.77449 0.03931 0.57821   -0.467505
 N 0.63096 0.93055 0.33336   -0.464266
 N 0.57623 0.62367 0.37503   -0.46128
 N 0.44078 0.59863 0.62931   -0.481418
 N 0.92236 0.84011 0.45923   -0.473273
 N 0.42984 0.87746 0.6758   -0.469609
 N 0.01158 0.34845 0.49453   -0.227517
 N 0.28987 0.76452 0.44813   -0.482402
 N 0.78211 0.77694 0.69515   -0.443927
 N 0.12557 0.39911 0.53127   -0.226677
