{'_ref': 'TBD', '_srcid': 'CAKYAQ_clean', 'submitters': [{'name': 'Dalar Nazarian Jeff Camp and David Sholl', 'email': 'dalar@gatech.edu jcamp6@gatech.edu'}], '_method': 'VASP DFT with PBE;DDEC'}
data_Nd2(C3O4)3
_symmetry_space_group_name_H-M   'P 1'
_cell_length_a   10.61199998
_cell_length_b   10.61200006
_cell_length_c   10.98530000
_cell_angle_alpha   101.30599875
_cell_angle_beta   117.49200042
_cell_angle_gamma   108.61399940
_symmetry_Int_Tables_number   1
_chemical_formula_structural   Nd2(C3O4)3
_chemical_formula_sum   'Nd4 C18 O24'
_cell_volume   949.279626582
_cell_formula_units_Z   2
loop_
 _symmetry_equiv_pos_site_id
 _symmetry_equiv_pos_as_xyz
  1  'x, y, z'
loop_
 _atom_site_label
 _atom_site_fract_x
 _atom_site_fract_y
 _atom_site_fract_z
 _atom_site_charge
 Nd 0.94833 0.13555 0.8798   2.357442
 Nd 0.25575 0.56853 0.6202   2.358068
 Nd 0.05167 0.86445 0.1202   2.357479
 Nd 0.74425 0.43147 0.3798   2.358104
 C 0.9022 0.1259 0.1249   0.774416
 C 0.5485 0.929 0.7445   0.834284
 C 0.5074 0.051 0.7168   -0.149573
 C 0.5925 0.1469 0.6628   0.728636
 C 0.000999999999998 0.2773 0.3751   0.773013
 C 0.1845 0.304 0.7555   0.83496
 C 0.3342 0.2906 0.7832   -0.150066
 C 0.4841 0.4297 0.8372   0.728847
 C 0.0978 0.8741 0.8751   0.774416
 C 0.4515 0.071 0.2555   0.834285
 C 0.4926 0.949 0.2832   -0.149574
 C 0.4075 0.8531 0.3372   0.728634
 C 0.999 0.7227 0.6249   0.773013
 C 0.8155 0.696 0.2445   0.834961
 C 0.6658 0.7094 0.2168   -0.150067
 C 0.5159 0.5703 0.1628   0.728845
 C 0.8762 0.1262 0.25   -0.344173
 C 0.1238 0.8738 0.75   -0.344173
 O 0.8674 0.2068 0.0586   -0.654548
 O 0.9598 0.0493 0.0901   -0.855857
 O 0.6834 0.9442 0.79   -0.690682
 O 0.4294 0.8177 0.7115   -0.834291
 O 0.7423 0.1924 0.7281   -0.792841
 O 0.5154 0.1871 0.5713   -0.545395
 O 0.1482 0.3088 0.4414   -0.651909
 O 0.9592 0.3697 0.4099   -0.856483
 O 0.1542 0.3934 0.71   -0.690231
 O 0.1062 0.2179 0.7885   -0.835041
 O 0.4643 0.5142 0.7719   -0.794078
 O 0.6158 0.4441 0.9287   -0.544528
 O 0.1326 0.7932 0.9414   -0.654549
 O 0.0402 0.9507 0.9099   -0.855856
 O 0.3166 0.0558 0.21   -0.690683
 O 0.5706 0.1823 0.2885   -0.834293
 O 0.2577 0.8076 0.2719   -0.792842
 O 0.4846 0.8129 0.4287   -0.545395
 O 0.8518 0.6912 0.5586   -0.65191
 O 0.0408 0.6303 0.5901   -0.856483
 O 0.8458 0.6066 0.29   -0.690232
 O 0.8938 0.7821 0.2115   -0.835043
 O 0.5357 0.4858 0.2281   -0.794079
 O 0.3842 0.5559 0.0713   -0.544529
