{'_ref': 'TBD', '_srcid': 'CAKYAQ_clean', 'submitters': [{'name': 'Dalar Nazarian Jeff Camp and David Sholl', 'email': 'dalar@gatech.edu jcamp6@gatech.edu'}], '_method': 'VASP DFT with PBE;DDEC'}
data_Cu6H15C25(NO)10
_symmetry_space_group_name_H-M   'P 1'
_cell_length_a   11.40950000
_cell_length_b   12.99479979
_cell_length_c   23.10300000
_cell_angle_alpha   90.00000000
_cell_angle_beta   90.00000000
_cell_angle_gamma   111.62800098
_symmetry_Int_Tables_number   1
_chemical_formula_structural   Cu6H15C25(NO)10
_chemical_formula_sum   'Cu12 H30 C50 N20 O20'
_cell_volume   3184.19054879
_cell_formula_units_Z   2
loop_
 _symmetry_equiv_pos_site_id
 _symmetry_equiv_pos_as_xyz
  1  'x, y, z'
loop_
 _atom_site_label
 _atom_site_fract_x
 _atom_site_fract_y
 _atom_site_fract_z
 _atom_site_charge
 Cu 0.4445 0.9648 0.5567   0.625664
 Cu 0.6957 0.314 0.0614   0.5175
 Cu 0.7554 0.8324 0.028   0.312739
 Cu 0.3657 0.4394 0.515   0.520111
 Cu 0.058 0.9748 0.68078   0.332341
 Cu 0.9609 0.2074 0.2468   0.403785
 Cu 0.9445 0.4648 0.4433   0.625665
 Cu 0.1957 0.814 0.9386   0.517502
 Cu 0.2554 0.3324 0.972   0.312739
 Cu 0.8657 0.9394 0.485   0.520112
 Cu 0.558 0.4748 0.31922   0.332343
 Cu 0.4609 0.7074 0.7532   0.403787
 H 0.2781 0.7262 0.6148   0.100183
 H 0.5748 0.1754 0.4807   0.110811
 H 0.8279 0.0146 0.1032   0.090082
 H 0.1866 0.3094 0.1805   0.110632
 H 0.5942 0.9352 0.9732   0.106243
 H 0.5678 0.1062 0.9851   0.087921
 H 0.264 0.5563 0.5952   0.092547
 H 0.5487 0.6666 0.4888   0.08296
 H 0.5418 0.332 0.4729   0.078684
 H 0.2797 0.2399 0.5904   0.107834
 H 0.8603 0.5277 0.1133   0.1096
 H 0.885 0.7098 0.0987   0.106253
 H 0.4001 0.4148 0.2025   0.093
 H 0.5964 0.6142 0.9935   0.100451
 H 0.1144 0.3192 0.3471   0.071448
 H 0.7781 0.2262 0.3852   0.100184
 H 0.0748 0.6754 0.5193   0.110812
 H 0.3279 0.5146 0.8968   0.090082
 H 0.6866 0.8094 0.8195   0.110633
 H 0.0942 0.4352 0.0268   0.106244
 H 0.0678 0.6062 0.0149   0.087921
 H 0.764 0.0563 0.4048   0.092547
 H 0.0487 0.1666 0.5112   0.08296
 H 0.0418 0.832 0.5271   0.078684
 H 0.7797 0.7399 0.4096   0.107833
 H 0.3603 0.0277 0.8867   0.109601
 H 0.385 0.2098 0.9013   0.106252
 H 0.9001 0.9148 0.7975   0.093
 H 0.0964 0.1142 0.0065   0.100452
 H 0.6144 0.8192 0.6529   0.071448
 C 0.539 0.394 0.0041   0.553463
 C 0.334 0.716 0.5883   0.049129
 C 0.5 0.787 0.5197   -0.013433
 C 0.516 0.188 0.5044   0.056023
 C 0.84 0.23 0.1208   0.61953
 C 0.78 0.142 0.0818   -0.046036
 C 0.781 0.038 0.0769   0.132874
 C 0.213 0.329 0.2184   0.005593
 C 0.64 0.987 0.000799999999998   -0.001041
 C 0.626 0.09 0.0075   0.091045
 C 0.325 0.614 0.5762   0.059963
 C 0.49 0.679 0.5128   0.138914
 C 0.493 0.282 0.5005   0.070642
 C 0.343 0.232 0.5675   0.084409
 C 0.353 0.406 0.3911   0.597686
 C 0.294 0.375 0.3338   -0.009453
 C 0.642 0.493 0.034   0.007531
 C 0.587 0.885 0.4918   0.66379
 C 0.807 0.545 0.0881   0.078205
 C 0.82 0.654 0.0799   0.037067
 C 0.342 0.388 0.2324   0.068879
 C 0.651 0.601 0.0196   0.097836
 C 0.174 0.331 0.3177   0.129804
 C 0.367 0.134 0.571   7.1e-05
 C 0.279 0.045 0.6148   0.627979
 C 0.039 0.894 0.9959   0.553463
 C 0.834 0.216 0.4117   0.049129
 C 0.0 0.287 0.4803   -0.013433
 C 0.016 0.688 0.4956   0.056022
 C 0.34 0.73 0.8792   0.61953
 C 0.28 0.642 0.9182   -0.046036
 C 0.281 0.538 0.9231   0.132874
 C 0.713 0.829 0.7816   0.005593
 C 0.14 0.487 0.9992   -0.00104
 C 0.126 0.59 0.9925   0.091045
 C 0.825 0.114 0.4238   0.059963
 C 0.99 0.179 0.4872   0.138915
 C 0.993 0.782 0.4995   0.070642
 C 0.843 0.732 0.4325   0.084409
 C 0.853 0.906 0.6089   0.597686
 C 0.794 0.875 0.6662   -0.009453
 C 0.142 0.993 0.966   0.007531
 C 0.087 0.385 0.5082   0.66379
 C 0.307 0.045 0.9119   0.078204
 C 0.32 0.154 0.9201   0.037067
 C 0.842 0.888 0.7676   0.068879
 C 0.151 0.101 0.9804   0.097836
 C 0.674 0.831 0.6823   0.129804
 C 0.867 0.634 0.429   7e-05
 C 0.779 0.545 0.3852   0.627979
 N 0.742 0.681 0.0451   -0.241047
 N 0.128 0.301 0.2642   -0.310539
 N 0.717 0.969 0.0355   -0.248804
 N 0.423 0.809 0.5635   -0.315643
 N 0.451 0.113 0.5433   -0.230539
 N 0.383 0.406 0.2861   -0.293833
 N 0.412 0.318 0.5304   -0.28898
 N 0.722 0.47 0.0613   -0.209812
 N 0.698 0.167 0.0455   -0.293057
 N 0.402 0.589 0.5374   -0.315322
 N 0.242 0.181 0.9549   -0.241048
 N 0.628 0.801 0.7358   -0.310539
 N 0.217 0.469 0.9645   -0.248804
 N 0.923 0.309 0.4365   -0.315643
 N 0.951 0.613 0.4567   -0.230539
 N 0.883 0.906 0.7139   -0.293833
 N 0.912 0.818 0.4696   -0.28898
 N 0.222 0.97 0.9387   -0.209812
 N 0.198 0.667 0.9545   -0.293057
 N 0.902 0.089 0.4626   -0.315323
 O 0.449 0.409 0.9795   -0.525683
 O 0.555 0.299 0.0126   -0.56558
 O 0.923 0.217 0.1568   -0.637485
 O 0.824 0.319 0.118   -0.528931
 O 0.473 0.458 0.3945   -0.540826
 O 0.278 0.395 0.4308   -0.525201
 O 0.2108 0.0648 0.6456   -0.431019
 O 0.3038 0.9568 0.6081   -0.616817
 O 0.6604 0.8678 0.4593   -0.570718
 O 0.579 0.975 0.503   -0.571427
 O 0.949 0.909 0.0205   -0.525683
 O 0.055 0.799 0.9874   -0.56558
 O 0.423 0.717 0.8432   -0.637485
 O 0.324 0.819 0.882   -0.528931
 O 0.973 0.958 0.6055   -0.540826
 O 0.778 0.895 0.5692   -0.525201
 O 0.7108 0.5648 0.3544   -0.431019
 O 0.8038 0.4568 0.3919   -0.616817
 O 0.1604 0.3678 0.5407   -0.570718
 O 0.079 0.475 0.497   -0.571428
