{'_ref': 'TBD', '_srcid': 'CAKYAQ_clean', 'submitters': [{'name': 'Dalar Nazarian Jeff Camp and David Sholl', 'email': 'dalar@gatech.edu jcamp6@gatech.edu'}], '_method': 'VASP DFT with PBE;DDEC'}
data_CdH13C20NO4
_symmetry_space_group_name_H-M   'P 1'
_cell_length_a   9.99430000
_cell_length_b   10.33329974
_cell_length_c   19.75930000
_cell_angle_alpha   90.00000000
_cell_angle_beta   90.00000000
_cell_angle_gamma   111.89299892
_symmetry_Int_Tables_number   1
_chemical_formula_structural   CdH13C20NO4
_chemical_formula_sum   'Cd4 H52 C80 N4 O16'
_cell_volume   1893.45780255
_cell_formula_units_Z   4
loop_
 _symmetry_equiv_pos_site_id
 _symmetry_equiv_pos_as_xyz
  1  'x, y, z'
loop_
 _atom_site_label
 _atom_site_fract_x
 _atom_site_fract_y
 _atom_site_fract_z
 _atom_site_charge
 Cd 0.08828 0.90813 0.99489   0.995376
 Cd 0.91172 0.59187 0.49489   0.995376
 Cd 0.91172 0.09187 0.00511   0.995375
 Cd 0.08828 0.40813 0.50511   0.995375
 H 0.5905 0.6011 0.9657   0.097487
 H 0.2315 0.4821 0.0287   0.132541
 H 0.0857 0.6109 0.0304   0.083149
 H 0.3941 0.9241 0.9483   0.082587
 H 0.5443 0.805 0.948   0.133736
 H 0.5745 0.806 0.1388   0.09539
 H 0.4514 0.4566 0.2493   0.080127
 H 0.6554 0.4218 0.2161   0.100309
 H 0.8148 0.5734 0.1412   0.092677
 H 0.3543 0.5875 0.3163   0.093206
 H 0.325 0.7508 0.1356   0.083737
 H 0.1237 0.789 0.1732   0.103225
 H 0.0463 0.7382 0.2834   0.104459
 H 0.4095 0.8989 0.4657   0.097487
 H 0.7685 0.0179 0.5287   0.132541
 H 0.9143 0.8891 0.5304   0.083149
 H 0.6059 0.5759 0.4483   0.082588
 H 0.4557 0.695 0.448   0.133736
 H 0.4255 0.694 0.6388   0.09539
 H 0.5486 0.0434 0.7493   0.080127
 H 0.3446 0.0782 0.7161   0.100309
 H 0.1852 0.9266 0.6412   0.092677
 H 0.6457 0.9125 0.8163   0.093207
 H 0.675 0.7492 0.6356   0.083737
 H 0.8763 0.711 0.6732   0.103225
 H 0.9537 0.7618 0.7834   0.104459
 H 0.4095 0.3989 0.0343   0.097472
 H 0.7685 0.5179 0.9713   0.132541
 H 0.9143 0.3891 0.9696   0.08315
 H 0.6059 0.0759 0.0517   0.082589
 H 0.4557 0.195 0.052   0.133734
 H 0.4255 0.194 0.8612   0.095392
 H 0.5486 0.5434 0.7507   0.080127
 H 0.3446 0.5782 0.7839   0.100307
 H 0.1852 0.4266 0.8588   0.092676
 H 0.6457 0.4125 0.6837   0.093206
 H 0.675 0.2492 0.8644   0.083738
 H 0.8763 0.211 0.8268   0.103225
 H 0.9537 0.2618 0.7166   0.104457
 H 0.5905 0.1011 0.5343   0.097472
 H 0.2315 0.9821 0.4713   0.132541
 H 0.0857 0.1109 0.4696   0.08315
 H 0.3941 0.4241 0.5517   0.08259
 H 0.5443 0.305 0.552   0.133735
 H 0.5745 0.306 0.3612   0.095392
 H 0.4514 0.9566 0.2507   0.080127
 H 0.6554 0.9218 0.2839   0.100307
 H 0.8148 0.0734 0.3588   0.092676
 H 0.3543 0.0875 0.1837   0.093207
 H 0.325 0.2508 0.3644   0.083738
 H 0.1237 0.289 0.3268   0.103225
 H 0.0463 0.2382 0.2166   0.104457
 C 0.504 0.5539 0.9881   -0.076321
 C 0.4035 0.6263 0.9877   0.139306
 C 0.2672 0.5728 0.0121   -0.185997
 C 0.1785 0.6504 0.0128   0.167193
 C 0.3604 0.8335 0.965   0.155674
 C 0.4507 0.7623 0.9643   -0.184668
 C 0.812 0.803 0.0827   0.696365
 C 0.7102 0.7037 0.1331   -0.140217
 C 0.5898 0.7278 0.1544   -0.086196
 C 0.4907 0.6365 0.199   0.020214
 C 0.5168 0.5205 0.2205   -0.093664
 C 0.6379 0.4986 0.2   -0.090234
 C 0.734 0.5898 0.1557   -0.05219
 C 0.1367 0.6158 0.3813   0.687132
 C 0.1918 0.6547 0.3105   -0.126232
 C 0.3085 0.6289 0.2873   -0.085425
 C 0.3608 0.6628 0.2216   0.030923
 C 0.2913 0.7254 0.1794   -0.112826
 C 0.1718 0.7502 0.2023   -0.084189
 C 0.124 0.7178 0.2678   -0.050397
 C 0.496 0.9461 0.4881   -0.076321
 C 0.5965 0.8737 0.4877   0.139306
 C 0.7328 0.9272 0.5121   -0.185997
 C 0.8215 0.8496 0.5128   0.167193
 C 0.6396 0.6665 0.465   0.155674
 C 0.5493 0.7377 0.4643   -0.184668
 C 0.188 0.697 0.5827   0.696365
 C 0.2898 0.7963 0.6331   -0.140217
 C 0.4102 0.7722 0.6544   -0.086196
 C 0.5093 0.8635 0.699   0.020214
 C 0.4832 0.9795 0.7205   -0.093664
 C 0.3621 0.0014 0.7   -0.090234
 C 0.266 0.9102 0.6557   -0.05219
 C 0.8633 0.8842 0.8813   0.687132
 C 0.8082 0.8453 0.8105   -0.126232
 C 0.6915 0.8711 0.7873   -0.085425
 C 0.6392 0.8372 0.7216   0.030923
 C 0.7087 0.7746 0.6794   -0.112826
 C 0.8282 0.7498 0.7023   -0.084189
 C 0.876 0.7822 0.7678   -0.050397
 C 0.496 0.4461 0.0119   -0.076144
 C 0.5965 0.3737 0.0123   0.13928
 C 0.7328 0.4272 0.9879   -0.185992
 C 0.8215 0.3496 0.9872   0.167193
 C 0.6396 0.1665 0.035   0.155674
 C 0.5493 0.2377 0.0357   -0.184665
 C 0.188 0.197 0.9173   0.696364
 C 0.2898 0.2963 0.8669   -0.140217
 C 0.4102 0.2722 0.8456   -0.086197
 C 0.5093 0.3635 0.801   0.020214
 C 0.4832 0.4795 0.7795   -0.093663
 C 0.3621 0.5014 0.8   -0.090233
 C 0.266 0.4102 0.8443   -0.052189
 C 0.8633 0.3842 0.6187   0.687131
 C 0.8082 0.3453 0.6895   -0.126232
 C 0.6915 0.3711 0.7127   -0.085425
 C 0.6392 0.3372 0.7784   0.030924
 C 0.7087 0.2746 0.8206   -0.112826
 C 0.8282 0.2498 0.7977   -0.084189
 C 0.876 0.2822 0.7322   -0.050396
 C 0.504 0.0539 0.5119   -0.076144
 C 0.4035 0.1263 0.5123   0.13928
 C 0.2672 0.0728 0.4879   -0.185992
 C 0.1785 0.1504 0.4872   0.167193
 C 0.3604 0.3335 0.535   0.155674
 C 0.4507 0.2623 0.5357   -0.184665
 C 0.812 0.303 0.4173   0.696364
 C 0.7102 0.2037 0.3669   -0.140217
 C 0.5898 0.2278 0.3456   -0.086197
 C 0.4907 0.1365 0.301   0.020214
 C 0.5168 0.0205 0.2795   -0.093663
 C 0.6379 0.9986 0.3   -0.090233
 C 0.734 0.0898 0.3443   -0.052189
 C 0.1367 0.1158 0.1187   0.687131
 C 0.1918 0.1547 0.1895   -0.126231
 C 0.3085 0.1289 0.2127   -0.085426
 C 0.3608 0.1628 0.2784   0.030924
 C 0.2913 0.2254 0.3206   -0.112826
 C 0.1718 0.2502 0.2977   -0.084189
 C 0.124 0.2178 0.2322   -0.050396
 N 0.2248 0.7793 0.9888   -0.336342
 N 0.7752 0.7207 0.4888   -0.336342
 N 0.7752 0.2207 0.0112   -0.336341
 N 0.2248 0.2793 0.5112   -0.336341
 O 0.9141 0.775 0.0618   -0.608706
 O 0.7848 0.9072 0.0657   -0.623955
 O 0.1817 0.5343 0.4124   -0.618203
 O 0.0491 0.6665 0.4039   -0.619124
 O 0.0859 0.725 0.5618   -0.608706
 O 0.2152 0.5928 0.5657   -0.623955
 O 0.8183 0.9657 0.9124   -0.618203
 O 0.9509 0.8335 0.9039   -0.619124
 O 0.0859 0.225 0.9382   -0.608705
 O 0.2152 0.0928 0.9343   -0.623955
 O 0.8183 0.4657 0.5876   -0.618203
 O 0.9509 0.3335 0.5961   -0.619124
 O 0.9141 0.275 0.4382   -0.608705
 O 0.7848 0.4072 0.4343   -0.623955
 O 0.1817 0.0343 0.0876   -0.618203
 O 0.0491 0.1665 0.0961   -0.619124
