{'_ref': 'TBD', '_srcid': 'CAKYAQ_clean', 'submitters': [{'name': 'Dalar Nazarian Jeff Camp and David Sholl', 'email': 'dalar@gatech.edu jcamp6@gatech.edu'}], '_method': 'VASP DFT with PBE;DDEC'}
data_Cd2H24(C11O4)3
_symmetry_space_group_name_H-M   'P 1'
_cell_length_a   15.41999952
_cell_length_b   15.84200001
_cell_length_c   17.81900000
_cell_angle_alpha   112.76300121
_cell_angle_beta   112.20299888
_cell_angle_gamma   95.42500020
_symmetry_Int_Tables_number   1
_chemical_formula_structural   Cd2H24(C11O4)3
_chemical_formula_sum   'Cd6 H72 C99 O36'
_cell_volume   3565.40598122
_cell_formula_units_Z   3
loop_
 _symmetry_equiv_pos_site_id
 _symmetry_equiv_pos_as_xyz
  1  'x, y, z'
loop_
 _atom_site_label
 _atom_site_fract_x
 _atom_site_fract_y
 _atom_site_fract_z
 _atom_site_charge
 Cd 0.35304 0.68624 0.95877   1.207588
 Cd 0.22823 0.44949 0.92367   1.088771
 Cd 0.59262 0.81935 0.99859   1.082574
 Cd 0.00319 0.31406 0.90686   1.206974
 Cd 0.85277 0.078 0.84865   1.093867
 Cd 0.77394 0.89512 0.92181   1.225467
 H 0.5009 0.364 0.2582   0.076677
 H 0.4724 0.3842 0.3401   0.070212
 H 0.9502 0.9648 0.6663   0.137705
 H 0.5641 0.2401 0.397   0.061165
 H 0.5711 0.3445 0.4674   0.069938
 H 0.5164 0.4448 0.1408   0.095317
 H 0.58 0.5944 0.5977   0.137785
 H 0.9327 0.602 0.4518   0.067192
 H 0.9333 0.7009 0.5262   0.07151
 H 0.0438 0.8571 0.4605   0.061833
 H 0.1126 0.8227 0.5298   0.072791
 H 0.6763 0.4848 0.2543   0.115097
 H 0.6582 0.4762 0.3729   0.066871
 H 0.7317 0.4558 0.4519   0.067974
 H 0.8626 0.3097 0.5836   0.140049
 H 0.2632 0.6168 0.7591   0.083326
 H 0.7313 0.743 0.2614   0.132342
 H 0.8837 0.7449 0.3308   0.067992
 H 0.857 0.7721 0.4144   0.070036
 H 0.2264 0.6828 0.6592   0.145571
 H 0.6229 0.1766 0.6348   0.084634
 H 0.5797 0.2462 0.5359   0.12343
 H 0.9033 0.2497 0.687   0.090699
 H 0.5745 0.6947 0.1392   0.09892
 H 0.6388 0.7512 0.6973   0.090037
 H 0.606 0.2158 0.2732   0.072003
 H 0.713 0.287 0.3458   0.067121
 H 0.2132 0.1561 0.6848   0.085707
 H 0.3065 0.1685 0.6008   0.073565
 H 0.2888 0.1989 0.5213   0.068242
 H 0.3454 0.4754 0.7763   0.098353
 H 0.7453 0.0726 0.1031   0.098106
 H 0.4473 0.1147 0.4724   0.067714
 H 0.3436 0.1128 0.4018   0.074469
 H 0.1532 0.9935 0.578   0.108519
 H 0.1923 0.0156 0.4756   0.064858
 H 0.2231 0.9456 0.4029   0.068595
 H 0.3788 0.8254 0.2833   0.133081
 H 0.4587 0.0691 0.5947   0.072511
 H 0.3922 0.966 0.512   0.064301
 H 0.7619 0.6258 0.4915   0.116963
 H 0.8231 0.7867 0.5945   0.095038
 H 0.5042 0.0549 0.2228   0.088195
 H 0.3061 0.3157 0.6634   0.13408
 H 0.8898 0.8416 0.2457   0.091346
 H 0.6873 0.15 0.2054   0.125979
 H 0.5125 0.9672 0.6386   0.133148
 H 0.0567 0.9002 0.3459   0.107329
 H 0.4323 0.7803 0.1706   0.092593
 H 0.087 0.0906 0.2558   0.140357
 H 0.3451 0.3602 0.2016   0.13066
 H 0.7322 0.2836 0.0264   0.10605
 H 0.9363 0.5739 0.5701   0.122478
 H 0.4436 0.0982 0.3276   0.111351
 H 0.5906 0.9215 0.7521   0.091624
 H 0.9292 0.0128 0.1345   0.090819
 H 0.6139 0.5318 0.7934   0.098606
 H 0.2892 0.9775 0.7061   0.125778
 H 0.361 0.9142 0.8055   0.102537
 H 0.9748 0.5989 0.3298   0.068115
 H 0.0806 0.6496 0.4161   0.06841
 H 0.9737 0.502 0.664   0.093059
 H 0.1896 0.314 0.086   0.089732
 H 0.0792 0.5382 0.2858   0.13682
 H 0.5833 0.3706 0.6969   0.123711
 H 0.6766 0.3593 0.1317   0.126476
 H 0.1053 0.4545 0.1574   0.097239
 H 0.1211 0.7758 0.2557   0.129885
 H 0.0164 0.1232 0.775   0.08586
 H 0.3098 0.0866 0.1639   0.128664
 H 0.1514 0.0496 0.0563   0.085799
 H 0.1774 0.6987 0.1509   0.0873
 C 0.6023 0.3456 0.3638   -0.033279
 C 0.978 0.7199 0.4341   -0.031457
 C 0.499 0.3418 0.3025   0.057904
 C 0.5297 0.5664 0.1309   -0.206246
 C 0.005 0.003 0.6708   -0.230488
 C 0.7179 0.2815 0.5481   0.313718
 C 0.6019 0.3082 0.4307   0.072482
 C 0.5604 0.5051 0.1642   0.013575
 C 0.6299 0.6337 0.5971   -0.228075
 C 0.9686 0.6705 0.4917   0.058676
 C 0.7658 0.2079 0.6728   -0.230947
 C 0.1213 0.5545 0.7253   -0.238422
 C 0.0446 0.8228 0.4968   0.061732
 C 0.0774 0.6352 0.6068   0.302399
 C 0.6552 0.5286 0.232   -0.262836
 C 0.6623 0.4495 0.4156   0.068518
 C 0.8133 0.2834 0.5944   -0.235644
 C 0.1969 0.6082 0.7209   0.00285
 C 0.689 0.6811 0.2357   -0.280951
 C 0.7913 0.1634 0.7333   0.683146
 C 0.0474 0.9628 0.6142   0.301291
 C 0.8792 0.7249 0.3757   0.067392
 C 0.1755 0.6476 0.6623   -0.229209
 C 0.6723 0.2058 0.6259   0.05565
 C 0.6451 0.2448 0.5648   -0.301583
 C 0.8372 0.2477 0.6555   0.014567
 C 0.6663 0.5945 0.534   0.310177
 C 0.5943 0.6528 0.1646   0.037469
 C 0.6652 0.7257 0.6558   0.009012
 C 0.6458 0.2832 0.306   0.058516
 C 0.7395 0.7863 0.6591   -0.216661
 C 0.1591 0.117 0.6804   0.042374
 C 0.3322 0.1735 0.559   0.069141
 C 0.4834 0.5168 0.7962   -0.205895
 C 0.3338 0.0758 0.4981   -0.035772
 C 0.393 0.4541 0.758   0.031708
 C 0.6804 0.2635 0.1813   0.294724
 C 0.732 0.1316 0.1089   0.034553
 C 0.3769 0.0797 0.4363   0.067641
 C 0.1246 0.0197 0.6174   -0.298428
 C 0.7862 0.124 0.9922   0.725503
 C 0.7472 0.1716 0.054   -0.222336
 C 0.5029 0.6191 0.8627   0.729943
 C 0.4024 0.9652 0.3156   0.307644
 C 0.2258 0.0129 0.4374   0.061329
 C 0.1445 0.5162 0.7918   0.7015
 C 0.4027 0.8724 0.2698   -0.237395
 C 0.3906 0.0284 0.5538   0.059911
 C 0.3943 0.9785 0.6627   0.28873
 C 0.0855 0.0028 0.3124   0.317045
 C 0.737 0.6517 0.5342   -0.280746
 C 0.7738 0.7473 0.5957   0.038772
 C 0.4427 0.3295 0.6701   0.300501
 C 0.8909 0.9207 0.1783   -0.224374
 C 0.1543 0.259 0.7985   0.718475
 C 0.1631 0.5163 0.0596   0.705883
 C 0.4777 0.9156 0.1885   -0.216814
 C 0.478 0.0073 0.2345   0.043329
 C 0.4272 0.5386 0.0559   0.735724
 C 0.3695 0.3583 0.6918   -0.279385
 C 0.9302 0.8891 0.2439   0.040632
 C 0.6983 0.178 0.1701   -0.260987
 C 0.4827 0.96 0.6745   -0.280234
 C 0.0288 0.9274 0.3066   -0.277947
 C 0.4368 0.8453 0.2041   -0.010702
 C 0.5177 0.8873 0.1223   0.668032
 C 0.0479 0.0368 0.2509   -0.241414
 C 0.5338 0.8758 0.854   0.725332
 C 0.7829 0.8872 0.729   0.683658
 C 0.307 0.2955 0.1709   -0.289215
 C 0.7249 0.2562 0.0633   0.028116
 C 0.0025 0.582 0.6081   -0.275742
 C 0.4419 0.0334 0.2969   -0.276766
 C 0.7881 0.8807 0.1135   0.698911
 C 0.3453 0.2299 0.1941   0.301081
 C 0.5277 0.9303 0.7408   0.046318
 C 0.9523 0.993 0.1807   0.009917
 C 0.5531 0.4876 0.7705   0.014797
 C 0.1538 0.1756 0.0592   -0.21318
 C 0.1173 0.1571 0.7355   -0.220792
 C 0.1386 0.5687 0.1374   -0.224011
 C 0.3495 0.9635 0.7133   -0.24266
 C 0.4855 0.9141 0.7881   -0.209794
 C 0.7185 0.6183 0.2664   0.301823
 C 0.3931 0.9284 0.7739   0.010364
 C 0.0228 0.6614 0.3769   0.064251
 C 0.0253 0.5412 0.6651   0.044341
 C 0.214 0.2681 0.1034   0.042988
 C 0.0901 0.5687 0.2523   -0.284483
 C 0.5332 0.3925 0.7104   -0.252657
 C 0.6919 0.3012 0.1261   -0.245881
 C 0.1106 0.5207 0.1788   0.017334
 C 0.0863 0.6628 0.2743   0.31003
 C 0.1187 0.7104 0.2373   -0.256755
 C 0.0548 0.1522 0.9831   0.729541
 C 0.0421 0.0976 0.7329   0.037109
 C 0.2856 0.134 0.1494   -0.265921
 C 0.192 0.1129 0.0849   0.030659
 C 0.1486 0.663 0.1721   0.028138
 O 0.8817 0.1805 0.7898   -0.680627
 O 0.7258 0.109 0.7337   -0.536553
 O 0.6996 0.319 0.4883   -0.276266
 O 0.8119 0.6326 0.3297   -0.291313
 O 0.4374 0.2448 0.2546   -0.262373
 O 0.0661 0.6815 0.5526   -0.275107
 O 0.0083 0.8669 0.5585   -0.259416
 O 0.6215 0.4983 0.4741   -0.281204
 O 0.1142 0.2982 0.8513   -0.718335
 O 0.1439 0.4261 0.0275   -0.670667
 O 0.3992 0.5995 0.0331   -0.693134
 O 0.5724 0.9507 0.1209   -0.537334
 O 0.4347 0.6478 0.8747   -0.680589
 O 0.4987 0.7989 0.0677   -0.655126
 O 0.8374 0.9441 0.7214   -0.53165
 O 0.8149 0.0538 0.9907   -0.661087
 O 0.7632 0.9185 0.7977   -0.681753
 O 0.2251 0.3112 0.805   -0.559909
 O 0.2344 0.5439 0.8541   -0.68593
 O 0.7541 0.9005 0.0466   -0.685121
 O 0.6107 0.8548 0.8595   -0.683886
 O 0.7319 0.8278 0.1228   -0.539704
 O 0.5896 0.6733 0.9059   -0.624844
 O 0.7941 0.1613 0.9388   -0.640296
 O 0.3755 0.4579 0.0249   -0.582495
 O 0.0194 0.2139 0.9695   -0.671484
 O 0.000100000000003 0.0655 0.9383   -0.644739
 O 0.6471 0.3157 0.2422   -0.269379
 O 0.3635 0.9821 0.3743   -0.264738
 O 0.4297 0.2369 0.6109   -0.283554
 O 0.3464 0.015 0.6055   -0.26137
 O 0.0829 0.459 0.7897   -0.56081
 O 0.1808 0.0498 0.3771   -0.274032
 O 0.4951 0.8678 0.9042   -0.619593
 O 0.1957 0.5581 0.029   -0.564615
 O 0.051 0.7107 0.3341   -0.279243
