{'_ref': 'TBD', '_srcid': 'CAKYAQ_clean', 'submitters': [{'name': 'Dalar Nazarian Jeff Camp and David Sholl', 'email': 'dalar@gatech.edu jcamp6@gatech.edu'}], '_method': 'VASP DFT with PBE;DDEC'}
data_Zn2H2C10O9
_symmetry_space_group_name_H-M   'P 1'
_cell_length_a   12.05600000
_cell_length_b   15.38300000
_cell_length_c   15.98700000
_cell_angle_alpha   90.00000000
_cell_angle_beta   90.00000000
_cell_angle_gamma   90.00000000
_symmetry_Int_Tables_number   1
_chemical_formula_structural   Zn2H2C10O9
_chemical_formula_sum   'Zn16 H16 C80 O72'
_cell_volume   2964.90822118
_cell_formula_units_Z   8
loop_
 _symmetry_equiv_pos_site_id
 _symmetry_equiv_pos_as_xyz
  1  'x, y, z'
loop_
 _atom_site_label
 _atom_site_fract_x
 _atom_site_fract_y
 _atom_site_fract_z
 _atom_site_charge
 Zn 0.02506 0.81324 0.94767   1.041059
 Zn 0.97494 0.81324 0.55233   1.041059
 Zn 0.52506 0.68676 0.55233   1.041059
 Zn 0.47494 0.68676 0.94767   1.041059
 Zn 0.97494 0.18676 0.05233   1.041059
 Zn 0.02506 0.18676 0.44767   1.041059
 Zn 0.47494 0.31324 0.44767   1.041059
 Zn 0.52506 0.31324 0.05233   1.041059
 Zn 0.25 0.75 0.84106   1.099491
 Zn 0.75 0.75 0.65894   1.099491
 Zn 0.75 0.25 0.15894   1.099491
 Zn 0.25 0.25 0.34106   1.099491
 Zn 0.0 0.18636 0.25   1.085052
 Zn 0.5 0.31364 0.25   1.085052
 Zn 0.0 0.81364 0.75   1.085052
 Zn 0.5 0.68636 0.75   1.085052
 H 0.967 0.5743 0.0875   0.131226
 H 0.9723 0.4448 0.156   0.115812
 H 0.033 0.5743 0.4125   0.131226
 H 0.0277 0.4448 0.344   0.115812
 H 0.467 0.9257 0.4125   0.131226
 H 0.4723 0.0552 0.344   0.115812
 H 0.533 0.9257 0.0875   0.131226
 H 0.5277 0.0552 0.156   0.115812
 H 0.033 0.4257 0.9125   0.131226
 H 0.0277 0.5552 0.844   0.115812
 H 0.967 0.4257 0.5875   0.131226
 H 0.9723 0.5552 0.656   0.115812
 H 0.533 0.0743 0.5875   0.131226
 H 0.5277 0.9448 0.656   0.115812
 H 0.467 0.0743 0.9125   0.131226
 H 0.4723 0.9448 0.844   0.115812
 C 0.0328 0.5429 0.0889   -0.032323
 C 0.1264 0.575 0.0468   -0.102205
 C 0.1171 0.6546 0.9937   0.666118
 C 0.2269 0.5267 0.0488   -0.00488
 C 0.2308 0.4502 0.1008   -0.029256
 C 0.3424 0.4062 0.1112   0.625203
 C 0.1366 0.4201 0.1401   -0.062632
 C 0.1339 0.3405 0.1937   0.681494
 C 0.0367 0.4666 0.1318   -0.048781
 C 0.3255 0.5524 0.9976   0.588251
 C 0.9672 0.5429 0.4111   -0.032323
 C 0.8736 0.575 0.4532   -0.102205
 C 0.8829 0.6546 0.5063   0.666118
 C 0.7731 0.5267 0.4512   -0.00488
 C 0.7692 0.4502 0.3992   -0.029256
 C 0.6576 0.4062 0.3888   0.625203
 C 0.8634 0.4201 0.3599   -0.062633
 C 0.8661 0.3405 0.3063   0.681494
 C 0.9633 0.4666 0.3682   -0.048781
 C 0.6745 0.5524 0.5024   0.588251
 C 0.5328 0.9571 0.4111   -0.032323
 C 0.6264 0.925 0.4532   -0.102205
 C 0.6171 0.8454 0.5063   0.666117
 C 0.7269 0.9733 0.4512   -0.00488
 C 0.7308 0.0498 0.3992   -0.029256
 C 0.8424 0.0938 0.3888   0.625203
 C 0.6366 0.0799 0.3599   -0.062632
 C 0.6339 0.1595 0.3063   0.681494
 C 0.5367 0.0334 0.3682   -0.048781
 C 0.8255 0.9476 0.5024   0.588251
 C 0.4672 0.9571 0.0889   -0.032323
 C 0.3736 0.925 0.0468   -0.102205
 C 0.3829 0.8454 0.9937   0.666117
 C 0.2731 0.9733 0.0488   -0.00488
 C 0.2692 0.0498 0.1008   -0.029256
 C 0.1576 0.0938 0.1112   0.625203
 C 0.3634 0.0799 0.1401   -0.062632
 C 0.3661 0.1595 0.1937   0.681494
 C 0.4633 0.0334 0.1318   -0.048781
 C 0.1745 0.9476 0.9976   0.588251
 C 0.9672 0.4571 0.9111   -0.032323
 C 0.8736 0.425 0.9532   -0.102205
 C 0.8829 0.3454 0.0063   0.666118
 C 0.7731 0.4733 0.9512   -0.00488
 C 0.7692 0.5498 0.8992   -0.029256
 C 0.6576 0.5938 0.8888   0.625203
 C 0.8634 0.5799 0.8599   -0.062632
 C 0.8661 0.6595 0.8063   0.681494
 C 0.9633 0.5334 0.8682   -0.048781
 C 0.6745 0.4476 0.0024   0.588251
 C 0.0328 0.4571 0.5889   -0.032323
 C 0.1264 0.425 0.5468   -0.102205
 C 0.1171 0.3454 0.4937   0.666118
 C 0.2269 0.4733 0.5488   -0.00488
 C 0.2308 0.5498 0.6008   -0.029256
 C 0.3424 0.5938 0.6112   0.625203
 C 0.1366 0.5799 0.6401   -0.062633
 C 0.1339 0.6595 0.6937   0.681494
 C 0.0367 0.5334 0.6318   -0.048781
 C 0.3255 0.4476 0.4976   0.588251
 C 0.4672 0.0429 0.5889   -0.032323
 C 0.3736 0.075 0.5468   -0.102205
 C 0.3829 0.1546 0.4937   0.666117
 C 0.2731 0.0267 0.5488   -0.00488
 C 0.2692 0.9502 0.6008   -0.029256
 C 0.1576 0.9062 0.6112   0.625203
 C 0.3634 0.9201 0.6401   -0.062632
 C 0.3661 0.8405 0.6937   0.681494
 C 0.4633 0.9666 0.6318   -0.048781
 C 0.1745 0.0524 0.4976   0.588251
 C 0.5328 0.0429 0.9111   -0.032323
 C 0.6264 0.075 0.9532   -0.102205
 C 0.6171 0.1546 0.0063   0.666117
 C 0.7269 0.0267 0.9512   -0.00488
 C 0.7308 0.9502 0.8992   -0.029256
 C 0.8424 0.9062 0.8888   0.625203
 C 0.6366 0.9201 0.8599   -0.062632
 C 0.6339 0.8405 0.8063   0.681494
 C 0.5367 0.9666 0.8682   -0.048781
 C 0.8255 0.0524 0.0024   0.588251
 O 0.0371 0.7053 0.0112   -0.557662
 O 0.1865 0.6671 0.939   -0.549615
 O 0.3423 0.5161 0.9305   -0.314511
 O 0.3872 0.612 0.028   -0.491142
 O 0.3724 0.3586 0.0502   -0.534499
 O 0.3949 0.4176 0.1763   -0.443378
 O 0.1947 0.3428 0.2581   -0.517872
 O 0.0698 0.2803 0.1734   -0.595621
 O 0.3906 0.6728 0.8434   -0.657056
 O 0.9629 0.7053 0.4888   -0.557662
 O 0.8135 0.6671 0.561   -0.549615
 O 0.6577 0.5161 0.5695   -0.314511
 O 0.6128 0.612 0.472   -0.491142
 O 0.6276 0.3586 0.4498   -0.534499
 O 0.6051 0.4176 0.3237   -0.443378
 O 0.8053 0.3428 0.2419   -0.517872
 O 0.9302 0.2803 0.3266   -0.595621
 O 0.6094 0.6728 0.6566   -0.657056
 O 0.5371 0.7947 0.4888   -0.557662
 O 0.6865 0.8329 0.561   -0.549615
 O 0.8423 0.9839 0.5695   -0.314511
 O 0.8872 0.888 0.472   -0.491142
 O 0.8724 0.1414 0.4498   -0.534499
 O 0.8949 0.0824 0.3237   -0.443378
 O 0.6947 0.1572 0.2419   -0.517872
 O 0.5698 0.2197 0.3266   -0.595621
 O 0.8906 0.8272 0.6566   -0.657056
 O 0.4629 0.7947 0.0112   -0.557662
 O 0.3135 0.8329 0.939   -0.549615
 O 0.1577 0.9839 0.9305   -0.314511
 O 0.1128 0.888 0.028   -0.491142
 O 0.1276 0.1414 0.0502   -0.534499
 O 0.1051 0.0824 0.1763   -0.443378
 O 0.3053 0.1572 0.2581   -0.517872
 O 0.4302 0.2197 0.1734   -0.595621
 O 0.1094 0.8272 0.8434   -0.657056
 O 0.9629 0.2947 0.9888   -0.557662
 O 0.8135 0.3329 0.061   -0.549615
 O 0.6577 0.4839 0.0695   -0.314511
 O 0.6128 0.388 0.972   -0.491142
 O 0.6276 0.6414 0.9498   -0.534499
 O 0.6051 0.5824 0.8237   -0.443378
 O 0.8053 0.6572 0.7419   -0.517872
 O 0.9302 0.7197 0.8266   -0.595621
 O 0.6094 0.3272 0.1566   -0.657056
 O 0.0371 0.2947 0.5112   -0.557662
 O 0.1865 0.3329 0.439   -0.549615
 O 0.3423 0.4839 0.4305   -0.314511
 O 0.3872 0.388 0.528   -0.491142
 O 0.3724 0.6414 0.5502   -0.534499
 O 0.3949 0.5824 0.6763   -0.443378
 O 0.1947 0.6572 0.7581   -0.517872
 O 0.0698 0.7197 0.6734   -0.595621
 O 0.3906 0.3272 0.3434   -0.657056
 O 0.4629 0.2053 0.5112   -0.557662
 O 0.3135 0.1671 0.439   -0.549615
 O 0.1577 0.0161 0.4305   -0.314511
 O 0.1128 0.112 0.528   -0.491142
 O 0.1276 0.8586 0.5502   -0.534499
 O 0.1051 0.9176 0.6763   -0.443378
 O 0.3053 0.8428 0.7581   -0.517872
 O 0.4302 0.7803 0.6734   -0.595621
 O 0.1094 0.1728 0.3434   -0.657056
 O 0.5371 0.2053 0.9888   -0.557662
 O 0.6865 0.1671 0.061   -0.549615
 O 0.8423 0.0161 0.0695   -0.314511
 O 0.8872 0.112 0.972   -0.491142
 O 0.8724 0.8586 0.9498   -0.534499
 O 0.8949 0.9176 0.8237   -0.443378
 O 0.6947 0.8428 0.7419   -0.517872
 O 0.5698 0.7803 0.8266   -0.595621
 O 0.8906 0.1728 0.1566   -0.657056
