{'_ref': 'TBD', '_srcid': 'CAKYAQ_clean', 'submitters': [{'name': 'Dalar Nazarian Jeff Camp and David Sholl', 'email': 'dalar@gatech.edu jcamp6@gatech.edu'}], '_method': 'VASP DFT with PBE;DDEC'}
data_ZnH10C14NO4
_symmetry_space_group_name_H-M   'P 1'
_cell_length_a   10.92500027
_cell_length_b   10.94599991
_cell_length_c   13.97200000
_cell_angle_alpha   95.19999887
_cell_angle_beta   99.22999728
_cell_angle_gamma   99.89000148
_symmetry_Int_Tables_number   1
_chemical_formula_structural   ZnH10C14NO4
_chemical_formula_sum   'Zn4 H40 C56 N4 O16'
_cell_volume   1612.65625637
_cell_formula_units_Z   4
loop_
 _symmetry_equiv_pos_site_id
 _symmetry_equiv_pos_as_xyz
  1  'x, y, z'
loop_
 _atom_site_label
 _atom_site_fract_x
 _atom_site_fract_y
 _atom_site_fract_z
 _atom_site_charge
 Zn 0.34209 0.72268 0.88681   0.918348
 Zn 0.28187 0.68194 0.66984   0.930422
 Zn 0.65791 0.27732 0.11319   0.918348
 Zn 0.71813 0.31806 0.33016   0.930422
 H 0.2717 0.0655 0.6385   0.109766
 H 0.26 0.2792 0.6351   0.102465
 H 0.36 0.3401 0.9249   0.103638
 H 0.3642 0.1295 0.9295   0.104022
 H 0.8641 0.6465 0.6249   0.104892
 H 0.6594 0.6723 0.6371   0.096218
 H 0.7581 0.7431 0.926   0.099271
 H 0.9653 0.7317 0.9142   0.111378
 H 0.364 0.906 0.0654   0.102162
 H 0.2754 0.5364 0.187   0.115488
 H 0.2989 0.546 0.0276   0.082166
 H 0.4802 0.7606 0.382   0.12107
 H 0.467 0.7469 0.5447   0.089597
 H 0.1053 0.6441 0.4767   0.095572
 H 0.4321 0.982 0.2912   0.127373
 H 0.3417 0.0246 0.2072   0.127124
 H 0.2862 0.9585 0.29   0.120941
 H 0.0668 0.6041 0.2272   0.125457
 H 0.9949 0.5948 0.3156   0.133191
 H 0.0269 0.723 0.2748   0.13234
 H 0.7283 0.9345 0.3615   0.109769
 H 0.74 0.7208 0.3649   0.102463
 H 0.64 0.6599 0.0751   0.103638
 H 0.6358 0.8705 0.0705   0.104023
 H 0.1359 0.3535 0.3751   0.104891
 H 0.3406 0.3277 0.3629   0.096217
 H 0.2419 0.2569 0.074   0.099272
 H 0.0347 0.2683 0.0858   0.111377
 H 0.636 0.094 0.9346   0.102162
 H 0.7246 0.4636 0.813   0.115488
 H 0.7011 0.454 0.9724   0.082165
 H 0.5198 0.2394 0.618   0.121069
 H 0.533 0.2531 0.4553   0.089597
 H 0.8947 0.3559 0.5233   0.095573
 H 0.5679 0.018 0.7088   0.127374
 H 0.6583 0.9754 0.7928   0.127124
 H 0.7138 0.0415 0.71   0.120941
 H 0.9332 0.3959 0.7728   0.125456
 H 0.0051 0.4052 0.6844   0.133191
 H 0.9731 0.277 0.7252   0.13234
 C 0.3251 0.9394 0.7878   0.657141
 C 0.319 0.078 0.7857   -0.115911
 C 0.2878 0.1198 0.6962   -0.080443
 C 0.2811 0.2494 0.6946   -0.071819
 C 0.3048 0.329 0.7781   -0.12643
 C 0.3397 0.2854 0.8674   -0.060631
 C 0.344 0.159 0.8697   -0.063893
 C 0.3007 0.4656 0.7728   0.680051
 C 0.071 0.6854 0.7594   0.665573
 C 0.9357 0.6917 0.7689   -0.10582
 C 0.8442 0.6696 0.6854   -0.08042
 C 0.7203 0.6829 0.6934   -0.060777
 C 0.6874 0.711 0.7821   -0.129214
 C 0.7794 0.7268 0.8649   -0.059225
 C 0.9038 0.7187 0.858   -0.068393
 C 0.553 0.717 0.7899   0.660508
 C 0.3472 0.8305 0.0909   0.09506
 C 0.3354 0.8329 0.1889   0.012238
 C 0.3079 0.7211 0.226   0.070536
 C 0.2943 0.6136 0.1646   -0.193163
 C 0.3088 0.6204 0.0683   0.170233
 C 0.2939 0.7147 0.3294   0.06008
 C 0.4017 0.7376 0.3997   -0.185036
 C 0.3941 0.7267 0.4974   0.138122
 C 0.1824 0.6673 0.457   0.110667
 C 0.1808 0.6776 0.3575   0.017083
 C 0.3503 0.9618 0.2502   -0.337138
 C 0.0559 0.6471 0.2873   -0.34609
 C 0.6749 0.0606 0.2122   0.657141
 C 0.681 0.922 0.2143   -0.11591
 C 0.7122 0.8802 0.3038   -0.080444
 C 0.7189 0.7506 0.3054   -0.071818
 C 0.6952 0.671 0.2219   -0.12643
 C 0.6603 0.7146 0.1326   -0.06063
 C 0.656 0.841 0.1303   -0.063894
 C 0.6993 0.5344 0.2272   0.680051
 C 0.929 0.3146 0.2406   0.665573
 C 0.0643 0.3083 0.2311   -0.10582
 C 0.1558 0.3304 0.3146   -0.08042
 C 0.2797 0.3171 0.3066   -0.060776
 C 0.3126 0.289 0.2179   -0.129214
 C 0.2206 0.2732 0.1351   -0.059226
 C 0.0962 0.2813 0.142   -0.068393
 C 0.447 0.283 0.2101   0.660509
 C 0.6528 0.1695 0.9091   0.09506
 C 0.6646 0.1671 0.8111   0.012238
 C 0.6921 0.2789 0.774   0.070536
 C 0.7057 0.3864 0.8354   -0.193162
 C 0.6912 0.3796 0.9317   0.170233
 C 0.7061 0.2853 0.6706   0.06008
 C 0.5983 0.2624 0.6003   -0.185036
 C 0.6059 0.2733 0.5026   0.138121
 C 0.8176 0.3327 0.543   0.110667
 C 0.8192 0.3224 0.6425   0.017083
 C 0.6497 0.0382 0.7498   -0.337138
 C 0.9441 0.3529 0.7127   -0.34609
 N 0.3351 0.7239 0.0318   -0.288562
 N 0.2832 0.6876 0.5235   -0.283235
 N 0.6649 0.2761 0.9682   -0.288562
 N 0.7168 0.3124 0.4765   -0.283234
 O 0.3021 0.8694 0.7064   -0.606351
 O 0.3522 0.9064 0.8717   -0.565385
 O 0.325 0.5356 0.8538   -0.602165
 O 0.2703 0.5016 0.6917   -0.592273
 O 0.0964 0.6712 0.6749   -0.584413
 O 0.1481 0.7002 0.8385   -0.60606
 O 0.4746 0.7006 0.7112   -0.605642
 O 0.5287 0.7376 0.8744   -0.571705
 O 0.6979 0.1306 0.2936   -0.606351
 O 0.6478 0.0936 0.1283   -0.565385
 O 0.675 0.4644 0.1462   -0.602165
 O 0.7297 0.4984 0.3083   -0.592273
 O 0.9036 0.3288 0.3251   -0.584413
 O 0.8519 0.2998 0.1615   -0.60606
 O 0.5254 0.2994 0.2888   -0.605642
 O 0.4713 0.2624 0.1256   -0.571705
