{'_ref': 'TBD', '_srcid': 'CAKYAQ_clean', 'submitters': [{'name': 'Dalar Nazarian Jeff Camp and David Sholl', 'email': 'dalar@gatech.edu jcamp6@gatech.edu'}], '_method': 'VASP DFT with PBE;DDEC'}
data_CuH15C15N3O2
_symmetry_space_group_name_H-M   'P 1'
_cell_length_a   13.75610000
_cell_length_b   13.75610000
_cell_length_c   25.53060000
_cell_angle_alpha   90.00000000
_cell_angle_beta   90.00000000
_cell_angle_gamma   90.00000000
_symmetry_Int_Tables_number   1
_chemical_formula_structural   CuH15C15N3O2
_chemical_formula_sum   'Cu8 H120 C120 N24 O16'
_cell_volume   4831.16277064
_cell_formula_units_Z   8
loop_
 _symmetry_equiv_pos_site_id
 _symmetry_equiv_pos_as_xyz
  1  'x, y, z'
loop_
 _atom_site_label
 _atom_site_fract_x
 _atom_site_fract_y
 _atom_site_fract_z
 _atom_site_charge
 Cu 0.90661 0.75074 0.52373   0.704804
 Cu 0.09339 0.24926 0.52373   0.704804
 Cu 0.25074 0.40661 0.97627   0.704804
 Cu 0.74926 0.59339 0.97627   0.704804
 Cu 0.75074 0.09339 0.47627   0.704804
 Cu 0.24926 0.90661 0.47627   0.704805
 Cu 0.40661 0.74926 0.02373   0.704804
 Cu 0.59339 0.25074 0.02373   0.704804
 H 0.8029 0.7973 0.4429   0.303776
 H 0.9539 0.7434 0.4003   0.046722
 H 0.9191 0.9437 0.3946   0.124848
 H 0.9823 0.8838 0.355   0.099333
 H 0.8698 0.8666 0.358   0.096531
 H 0.8786 0.7557 0.6379   0.082194
 H 0.9426 0.6932 0.7134   0.126118
 H 0.1485 0.5673 0.6273   0.116415
 H 0.0747 0.6327 0.5527   0.074382
 H 0.154 0.5385 0.72   0.101181
 H 0.6974 0.8002 0.5414   0.06771
 H 0.555 0.7334 0.5542   0.132234
 H 0.6919 0.4732 0.5618   0.127102
 H 0.8351 0.5572 0.5471   0.059073
 H 0.4533 0.5861 0.5711   0.103176
 H 0.1971 0.2027 0.4429   0.303776
 H 0.0461 0.2566 0.4003   0.04672
 H 0.0809 0.0563 0.3946   0.124848
 H 0.0177 0.1162 0.355   0.099334
 H 0.1302 0.1334 0.358   0.096531
 H 0.1214 0.2443 0.6379   0.082194
 H 0.0574 0.3068 0.7134   0.126118
 H 0.8515 0.4327 0.6273   0.116416
 H 0.9253 0.3673 0.5527   0.074382
 H 0.846 0.4615 0.72   0.101181
 H 0.3026 0.1998 0.5414   0.06771
 H 0.445 0.2666 0.5542   0.132233
 H 0.3081 0.5268 0.5618   0.127103
 H 0.1649 0.4428 0.5471   0.059073
 H 0.5467 0.4139 0.5711   0.103171
 H 0.2973 0.3029 0.0571   0.303776
 H 0.2434 0.4539 0.0997   0.046718
 H 0.4437 0.4191 0.1054   0.124848
 H 0.3838 0.4823 0.145   0.099333
 H 0.3666 0.3698 0.142   0.09653
 H 0.2557 0.3786 0.8621   0.082194
 H 0.1932 0.4426 0.7866   0.12612
 H 0.0673 0.6485 0.8727   0.116414
 H 0.1327 0.5747 0.9473   0.074382
 H 0.0385 0.654 0.78   0.101178
 H 0.3002 0.1974 0.9586   0.06771
 H 0.2334 0.055 0.9458   0.132234
 H 0.9732 0.1919 0.9382   0.127102
 H 0.0572 0.3351 0.9529   0.059073
 H 0.0861 0.9533 0.9289   0.103176
 H 0.7027 0.6971 0.0571   0.303776
 H 0.7566 0.5461 0.0997   0.046716
 H 0.5563 0.5809 0.1054   0.124848
 H 0.6162 0.5177 0.145   0.099334
 H 0.6334 0.6302 0.142   0.09653
 H 0.7443 0.6214 0.8621   0.082194
 H 0.8068 0.5574 0.7866   0.12612
 H 0.9327 0.3515 0.8727   0.116415
 H 0.8673 0.4253 0.9473   0.074382
 H 0.9615 0.346 0.78   0.101178
 H 0.6998 0.8026 0.9586   0.06771
 H 0.7666 0.945 0.9458   0.132233
 H 0.0268 0.8081 0.9382   0.127103
 H 0.9428 0.6649 0.9529   0.059073
 H 0.9139 0.0467 0.9289   0.103171
 H 0.7973 0.1971 0.5571   0.303777
 H 0.7434 0.0461 0.5997   0.04672
 H 0.9437 0.0809 0.6054   0.124848
 H 0.8838 0.0177 0.645   0.099333
 H 0.8666 0.1302 0.642   0.096531
 H 0.7557 0.1214 0.3621   0.082193
 H 0.6932 0.0574 0.2866   0.126118
 H 0.5673 0.8515 0.3727   0.116415
 H 0.6327 0.9253 0.4473   0.074382
 H 0.5385 0.846 0.28   0.101181
 H 0.8002 0.3026 0.4586   0.067711
 H 0.7334 0.445 0.4458   0.132233
 H 0.4732 0.3081 0.4382   0.127102
 H 0.5572 0.1649 0.4529   0.059073
 H 0.5861 0.5467 0.4289   0.103176
 H 0.2027 0.8029 0.5571   0.303777
 H 0.2566 0.9539 0.5997   0.046718
 H 0.0563 0.9191 0.6054   0.124848
 H 0.1162 0.9823 0.645   0.099334
 H 0.1334 0.8698 0.642   0.096531
 H 0.2443 0.8786 0.3621   0.082193
 H 0.3068 0.9426 0.2866   0.126118
 H 0.4327 0.1485 0.3727   0.116416
 H 0.3673 0.0747 0.4473   0.074382
 H 0.4615 0.154 0.28   0.101181
 H 0.1998 0.6974 0.4586   0.067711
 H 0.2666 0.555 0.4458   0.132233
 H 0.5268 0.6919 0.4382   0.127104
 H 0.4428 0.8351 0.4529   0.059073
 H 0.4139 0.4533 0.4289   0.103172
 H 0.3029 0.7027 0.9429   0.303777
 H 0.4539 0.7566 0.9003   0.046717
 H 0.4191 0.5563 0.8946   0.124848
 H 0.4823 0.6162 0.855   0.099333
 H 0.3698 0.6334 0.858   0.096531
 H 0.3786 0.7443 0.1379   0.082193
 H 0.4426 0.8068 0.2134   0.12612
 H 0.6485 0.9327 0.1273   0.116415
 H 0.5747 0.8673 0.0527   0.074382
 H 0.654 0.9615 0.22   0.101178
 H 0.1974 0.6998 0.0414   0.067711
 H 0.055 0.7666 0.0542   0.132233
 H 0.1919 0.0268 0.0618   0.127102
 H 0.3351 0.9428 0.0471   0.059073
 H 0.9533 0.9139 0.0711   0.103176
 H 0.6971 0.2973 0.9429   0.303777
 H 0.5461 0.2434 0.9003   0.046715
 H 0.5809 0.4437 0.8946   0.124848
 H 0.5177 0.3838 0.855   0.099334
 H 0.6302 0.3666 0.858   0.096531
 H 0.6214 0.2557 0.1379   0.082193
 H 0.5574 0.1932 0.2134   0.12612
 H 0.3515 0.0673 0.1273   0.116415
 H 0.4253 0.1327 0.0527   0.074382
 H 0.346 0.0385 0.22   0.101178
 H 0.8026 0.3002 0.0414   0.067711
 H 0.945 0.2334 0.0542   0.132233
 H 0.8081 0.9732 0.0618   0.127104
 H 0.6649 0.0572 0.0471   0.059073
 H 0.0467 0.0861 0.0711   0.103172
 C 0.0395 0.8289 0.4513   0.623268
 C 0.9425 0.8048 0.4188   0.123853
 C 0.927 0.8816 0.3779   -0.348406
 C 0.9334 0.7163 0.6357   0.150131
 C 0.972 0.6801 0.6814   -0.214582
 C 0.0568 0.6227 0.679   0.132357
 C 0.0931 0.6055 0.6309   -0.218471
 C 0.048 0.645 0.5856   0.138345
 C 0.1042 0.583 0.7255   -0.139976
 C 0.6958 0.733 0.5449   0.169736
 C 0.6103 0.6945 0.5534   -0.227468
 C 0.6031 0.5943 0.5615   0.120757
 C 0.6914 0.5404 0.5579   -0.235184
 C 0.7771 0.5919 0.5482   0.130336
 C 0.5074 0.5462 0.5672   -0.141055
 C 0.9605 0.1711 0.4513   0.623267
 C 0.0575 0.1952 0.4188   0.123853
 C 0.073 0.1184 0.3779   -0.348407
 C 0.0666 0.2837 0.6357   0.150131
 C 0.028 0.3199 0.6814   -0.214582
 C 0.9432 0.3773 0.679   0.132357
 C 0.9069 0.3945 0.6309   -0.218471
 C 0.952 0.355 0.5856   0.138345
 C 0.8958 0.417 0.7255   -0.139977
 C 0.3042 0.267 0.5449   0.169736
 C 0.3897 0.3055 0.5534   -0.227467
 C 0.3969 0.4057 0.5615   0.120749
 C 0.3086 0.4596 0.5579   -0.235184
 C 0.2229 0.4081 0.5482   0.130336
 C 0.4926 0.4538 0.5672   -0.141001
 C 0.3289 0.5395 0.0487   0.623268
 C 0.3048 0.4425 0.0812   0.123853
 C 0.3816 0.427 0.1221   -0.348406
 C 0.2163 0.4334 0.8643   0.150131
 C 0.1801 0.472 0.8186   -0.214582
 C 0.1227 0.5568 0.821   0.132351
 C 0.1055 0.5931 0.8691   -0.21847
 C 0.145 0.548 0.9144   0.138345
 C 0.083 0.6042 0.7745   -0.139933
 C 0.233 0.1958 0.9551   0.169736
 C 0.1945 0.1103 0.9466   -0.227468
 C 0.0943 0.1031 0.9385   0.120757
 C 0.0404 0.1914 0.9421   -0.235185
 C 0.0919 0.2771 0.9518   0.130336
 C 0.0462 0.0074 0.9328   -0.141055
 C 0.6711 0.4605 0.0487   0.623267
 C 0.6952 0.5575 0.0812   0.123854
 C 0.6184 0.573 0.1221   -0.348407
 C 0.7837 0.5666 0.8643   0.150131
 C 0.8199 0.528 0.8186   -0.214582
 C 0.8773 0.4432 0.821   0.132351
 C 0.8945 0.4069 0.8691   -0.218471
 C 0.855 0.452 0.9144   0.138345
 C 0.917 0.3958 0.7745   -0.139934
 C 0.767 0.8042 0.9551   0.169736
 C 0.8055 0.8897 0.9466   -0.227467
 C 0.9057 0.8969 0.9385   0.120749
 C 0.9596 0.8086 0.9421   -0.235183
 C 0.9081 0.7229 0.9518   0.130336
 C 0.9538 0.9926 0.9328   -0.141001
 C 0.8289 0.9605 0.5487   0.623267
 C 0.8048 0.0575 0.5812   0.123853
 C 0.8816 0.073 0.6221   -0.348406
 C 0.7163 0.0666 0.3643   0.150131
 C 0.6801 0.028 0.3186   -0.214582
 C 0.6227 0.9432 0.321   0.132357
 C 0.6055 0.9069 0.3691   -0.218471
 C 0.645 0.952 0.4144   0.138345
 C 0.583 0.8958 0.2745   -0.139977
 C 0.733 0.3042 0.4551   0.169736
 C 0.6945 0.3897 0.4466   -0.227468
 C 0.5943 0.3969 0.4385   0.120757
 C 0.5404 0.3086 0.4421   -0.235185
 C 0.5919 0.2229 0.4518   0.130336
 C 0.5462 0.4926 0.4328   -0.141054
 C 0.1711 0.0395 0.5487   0.623267
 C 0.1952 0.9425 0.5812   0.123854
 C 0.1184 0.927 0.6221   -0.348406
 C 0.2837 0.9334 0.3643   0.150131
 C 0.3199 0.972 0.3186   -0.214582
 C 0.3773 0.0568 0.321   0.132357
 C 0.3945 0.0931 0.3691   -0.218471
 C 0.355 0.048 0.4144   0.138345
 C 0.417 0.1042 0.2745   -0.139977
 C 0.267 0.6958 0.4551   0.169736
 C 0.3055 0.6103 0.4466   -0.227467
 C 0.4057 0.6031 0.4385   0.120749
 C 0.4596 0.6914 0.4421   -0.235183
 C 0.4081 0.7771 0.4518   0.130336
 C 0.4538 0.5074 0.4328   -0.141
 C 0.5395 0.6711 0.9513   0.623267
 C 0.4425 0.6952 0.9188   0.123854
 C 0.427 0.6184 0.8779   -0.348406
 C 0.4334 0.7837 0.1357   0.150131
 C 0.472 0.8199 0.1814   -0.214582
 C 0.5568 0.8773 0.179   0.132351
 C 0.5931 0.8945 0.1309   -0.21847
 C 0.548 0.855 0.0856   0.138345
 C 0.6042 0.917 0.2255   -0.139933
 C 0.1958 0.767 0.0449   0.169736
 C 0.1103 0.8055 0.0534   -0.227468
 C 0.1031 0.9057 0.0615   0.120757
 C 0.1914 0.9596 0.0579   -0.235184
 C 0.2771 0.9081 0.0482   0.130336
 C 0.0074 0.9538 0.0672   -0.141054
 C 0.4605 0.3289 0.9513   0.623267
 C 0.5575 0.3048 0.9188   0.123855
 C 0.573 0.3816 0.8779   -0.348406
 C 0.5666 0.2163 0.1357   0.150131
 C 0.528 0.1801 0.1814   -0.214582
 C 0.4432 0.1227 0.179   0.132351
 C 0.4069 0.1055 0.1309   -0.218471
 C 0.452 0.145 0.0856   0.138345
 C 0.3958 0.083 0.2255   -0.139934
 C 0.8042 0.233 0.0449   0.169736
 C 0.8897 0.1945 0.0534   -0.227467
 C 0.8969 0.0943 0.0615   0.120749
 C 0.8086 0.0404 0.0579   -0.235183
 C 0.7229 0.0919 0.0482   0.130336
 C 0.9926 0.0462 0.0672   -0.141
 N 0.9696 0.6984 0.5892   -0.292326
 N 0.7809 0.6873 0.5405   -0.332374
 N 0.8626 0.7902 0.452   -0.714798
 N 0.0304 0.3016 0.5892   -0.292326
 N 0.2191 0.3127 0.5405   -0.332374
 N 0.1374 0.2098 0.452   -0.714798
 N 0.1984 0.4696 0.9108   -0.292326
 N 0.1873 0.2809 0.9595   -0.332375
 N 0.2902 0.3626 0.048   -0.714798
 N 0.8016 0.5304 0.9108   -0.292326
 N 0.8127 0.7191 0.9595   -0.332374
 N 0.7098 0.6374 0.048   -0.714798
 N 0.6984 0.0304 0.4108   -0.292326
 N 0.6873 0.2191 0.4595   -0.332374
 N 0.7902 0.1374 0.548   -0.714799
 N 0.3016 0.9696 0.4108   -0.292326
 N 0.3127 0.7809 0.4595   -0.332374
 N 0.2098 0.8626 0.548   -0.714799
 N 0.4696 0.8016 0.0892   -0.292326
 N 0.2809 0.8127 0.0405   -0.332374
 N 0.3626 0.7098 0.952   -0.714799
 N 0.5304 0.1984 0.0892   -0.292326
 N 0.7191 0.1873 0.0405   -0.332374
 N 0.6374 0.2902 0.952   -0.714799
 O 0.0303 0.7983 0.4993   -0.56609
 O 0.1094 0.8639 0.4318   -0.523688
 O 0.9697 0.2017 0.4993   -0.56609
 O 0.8906 0.1361 0.4318   -0.523688
 O 0.2983 0.5303 0.000700000000002   -0.56609
 O 0.3639 0.6094 0.0682   -0.523688
 O 0.7017 0.4697 0.000700000000002   -0.56609
 O 0.6361 0.3906 0.0682   -0.523688
 O 0.7983 0.9697 0.5007   -0.56609
 O 0.8639 0.8906 0.5682   -0.523688
 O 0.2017 0.0303 0.5007   -0.56609
 O 0.1361 0.1094 0.5682   -0.523688
 O 0.5303 0.7017 0.9993   -0.56609
 O 0.6094 0.6361 0.9318   -0.523688
 O 0.4697 0.2983 0.9993   -0.56609
 O 0.3906 0.3639 0.9318   -0.523687
