{'_ref': 'TBD', '_srcid': 'CAKYAQ_clean', 'submitters': [{'name': 'Dalar Nazarian Jeff Camp and David Sholl', 'email': 'dalar@gatech.edu jcamp6@gatech.edu'}], '_method': 'VASP DFT with PBE;DDEC'}
data_Cd3H10C10N15Cl
_symmetry_space_group_name_H-M   'P 1'
_cell_length_a   10.34170018
_cell_length_b   13.41480000
_cell_length_c   17.56767830
_cell_angle_alpha   90.00000000
_cell_angle_beta   107.11776988
_cell_angle_gamma   90.00000000
_symmetry_Int_Tables_number   1
_chemical_formula_structural   Cd3H10C10N15Cl
_chemical_formula_sum   'Cd12 H40 C40 N60 Cl4'
_cell_volume   2329.23285394
_cell_formula_units_Z   4
loop_
 _symmetry_equiv_pos_site_id
 _symmetry_equiv_pos_as_xyz
  1  'x, y, z'
loop_
 _atom_site_label
 _atom_site_fract_x
 _atom_site_fract_y
 _atom_site_fract_z
 _atom_site_charge
 Cd 0.56532 0.52753 0.13064   0.844653
 Cd 0.64342 0.75208 0.28684   0.760129
 Cd 0.68639 0.01246 0.37278   0.776453
 Cd 0.73164 0.27614 0.46328   0.821946
 Cd 0.43468 0.02753 0.86936   0.844655
 Cd 0.35658 0.25208 0.71316   0.760128
 Cd 0.31361 0.51246 0.62722   0.776455
 Cd 0.26836 0.77614 0.53672   0.821948
 Cd 0.10563 0.24716 0.21126   0.856994
 Cd 0.89438 0.74716 0.78875   0.856918
 Cd 0.01508 0.78934 0.03016   0.795921
 Cd 0.98492 0.28934 0.96984   0.795918
 H 0.2507 0.6224 0.0458   0.05653
 H 0.3055 0.8269 0.207   0.077592
 H 0.9834 0.6933 0.4024   0.066259
 H 0.0239 0.9654 0.4762   0.070061
 H 0.3813 0.3221 0.366   0.078198
 H 0.3534 0.0671 0.2614   0.061051
 H 0.84 0.3977 0.2188   0.05298
 H 0.6903 0.3938 0.9914   0.084092
 H 0.7493 0.1224 0.9542   0.05653
 H 0.6945 0.3269 0.793   0.077592
 H 0.0166 0.1933 0.5976   0.06626
 H 0.9761 0.4654 0.5238   0.070062
 H 0.6187 0.8221 0.634   0.078196
 H 0.6466 0.5671 0.7386   0.061048
 H 0.16 0.8977 0.7812   0.052984
 H 0.3097 0.8938 0.0086   0.084094
 H 0.2049 0.1224 0.9542   0.056204
 H 0.0985 0.3269 0.793   0.078154
 H 0.581 0.1933 0.5976   0.065403
 H 0.5477 0.4654 0.5238   0.070723
 H 0.0153 0.8221 0.634   0.077892
 H 0.092 0.5671 0.7386   0.061084
 H 0.6212 0.8977 0.7812   0.052792
 H 0.6989 0.8938 0.0086   0.083325
 H 0.7951 0.6224 0.0458   0.056205
 H 0.9015 0.8269 0.207   0.078154
 H 0.419 0.6933 0.4024   0.065404
 H 0.4523 0.9654 0.4762   0.070723
 H 0.9847 0.3221 0.366   0.077893
 H 0.908 0.0671 0.2614   0.061087
 H 0.3788 0.3977 0.2188   0.052789
 H 0.3011 0.3938 0.9914   0.083324
 H 0.6431 0.3589 0.2862   0.065052
 H 0.7219 0.5665 0.4438   0.082955
 H 0.3569 0.8589 0.7138   0.065053
 H 0.2781 0.0665 0.5562   0.082954
 H 0.9798 0.021 0.9596   0.071205
 H 0.0927 0.9858 0.1854   0.078628
 H 0.0202 0.521 0.0404   0.071207
 H 0.9073 0.4858 0.8146   0.078635
 C 0.28873 0.6618 0.09046   0.226275
 C 0.31842 0.7723 0.17744   0.245605
 C 0.96539 0.7597 0.41038   0.240352
 C 0.98736 0.9068 0.45032   0.228914
 C 0.40239 0.2599 0.34938   0.220695
 C 0.38704 0.1224 0.29288   0.239671
 C 0.82777 0.3851 0.16514   0.265124
 C 0.74695 0.3833 0.0427   0.237063
 C 0.71127 0.1618 0.90954   0.226275
 C 0.68158 0.2723 0.82256   0.245605
 C 0.03461 0.2597 0.58962   0.24035
 C 0.01264 0.4068 0.54968   0.228914
 C 0.59761 0.7599 0.65062   0.220693
 C 0.61296 0.6224 0.70712   0.239665
 C 0.17223 0.8851 0.83486   0.265122
 C 0.25305 0.8833 0.9573   0.237068
 C 0.19827 0.1618 0.90954   0.226256
 C 0.14098 0.2723 0.82256   0.243581
 C 0.55501 0.2597 0.58962   0.241938
 C 0.53704 0.4068 0.54968   0.225159
 C 0.05301 0.7599 0.65062   0.221015
 C 0.09416 0.6224 0.70712   0.240804
 C 0.66263 0.8851 0.83486   0.264454
 C 0.70425 0.8833 0.9573   0.237044
 C 0.80173 0.6618 0.09046   0.226255
 C 0.85902 0.7723 0.17744   0.243581
 C 0.44499 0.7597 0.41038   0.24194
 C 0.46296 0.9068 0.45032   0.225159
 C 0.94699 0.2599 0.34938   0.221009
 C 0.90584 0.1224 0.29288   0.240798
 C 0.33737 0.3851 0.16514   0.264453
 C 0.29575 0.3833 0.0427   0.23704
 C 0.65513 0.4213 0.31026   0.228155
 C 0.69753 0.5333 0.39506   0.243947
 C 0.34487 0.9213 0.68974   0.228157
 C 0.30247 0.0333 0.60494   0.243947
 C 0.00691 0.0349 0.01382   0.226576
 C 0.06752 0.0147 0.13504   0.256546
 C 0.99309 0.5349 0.98618   0.226582
 C 0.93248 0.5147 0.86496   0.256525
 N 0.41187 0.6484 0.13854   -0.288877
 N 0.43249 0.7205 0.19538   -0.227314
 N 0.22326 0.739 0.11272   -0.448479
 N 0.84635 0.8022 0.3783   -0.270599
 N 0.86108 0.899 0.40476   -0.252925
 N 0.05736 0.8219 0.45552   -0.450973
 N 0.52462 0.2194 0.37484   -0.253067
 N 0.51458 0.13 0.33816   -0.23745
 N 0.31176 0.2019 0.29692   -0.473422
 N 0.9157 0.3354 0.1394   -0.288835
 N 0.86298 0.3344 0.05836   -0.253814
 N 0.71962 0.416 0.10804   -0.457082
 N 0.58813 0.1484 0.86146   -0.288878
 N 0.56751 0.2205 0.80462   -0.227314
 N 0.77674 0.239 0.88728   -0.448479
 N 0.15365 0.3022 0.6217   -0.2706
 N 0.13892 0.399 0.59524   -0.252923
 N 0.94264 0.3219 0.54448   -0.450974
 N 0.47538 0.7194 0.62516   -0.253074
 N 0.48542 0.63 0.66184   -0.237456
 N 0.68824 0.7019 0.70308   -0.47341
 N 0.0843 0.8354 0.8606   -0.288799
 N 0.13702 0.8344 0.94164   -0.253827
 N 0.28038 0.916 0.89196   -0.457079
 N 0.27333 0.1484 0.86146   -0.28987
 N 0.23711 0.2205 0.80462   -0.226337
 N 0.11054 0.239 0.88728   -0.446549
 N 0.46805 0.3022 0.6217   -0.27291
 N 0.45632 0.399 0.59524   -0.24928
 N 0.60184 0.3219 0.54448   -0.44978
 N 0.14978 0.7194 0.62516   -0.252518
 N 0.17642 0.63 0.66184   -0.238597
 N 0.01484 0.7019 0.70308   -0.473672
 N 0.7763 0.8354 0.8606   -0.288399
 N 0.80462 0.8344 0.94164   -0.254744
 N 0.61158 0.916 0.89196   -0.455226
 N 0.72667 0.6484 0.13854   -0.289868
 N 0.76289 0.7205 0.19538   -0.226338
 N 0.88946 0.739 0.11272   -0.446549
 N 0.53195 0.8022 0.3783   -0.27291
 N 0.54368 0.899 0.40476   -0.249282
 N 0.39816 0.8219 0.45552   -0.449779
 N 0.85022 0.2194 0.37484   -0.252515
 N 0.82358 0.13 0.33816   -0.238594
 N 0.98516 0.2019 0.29692   -0.473653
 N 0.2237 0.3354 0.1394   -0.288418
 N 0.19538 0.3344 0.05836   -0.254732
 N 0.38842 0.416 0.10804   -0.455225
 N 0.6346 0.5051 0.2692   -0.289918
 N 0.66287 0.5804 0.32574   -0.260525
 N 0.69451 0.433 0.38902   -0.455349
 N 0.3654 0.0051 0.7308   -0.28992
 N 0.33713 0.0804 0.67426   -0.260525
 N 0.30549 0.933 0.61098   -0.455348
 N 0.06181 0.1143 0.12362   -0.308077
 N 0.02073 0.1254 0.04146   -0.252625
 N 0.03479 0.9626 0.06958   -0.455855
 N 0.93819 0.6143 0.87638   -0.308001
 N 0.97927 0.6254 0.95854   -0.252652
 N 0.96521 0.4626 0.93042   -0.455846
 Cl 0.61358 0.93834 0.22716   -0.603495
 Cl 0.76021 0.09007 0.52042   -0.57889
 Cl 0.38642 0.43834 0.77284   -0.603495
 Cl 0.23979 0.59007 0.47958   -0.578895
