{'_ref': 'TBD', '_srcid': 'CAKYAQ_clean', 'submitters': [{'name': 'Dalar Nazarian Jeff Camp and David Sholl', 'email': 'dalar@gatech.edu jcamp6@gatech.edu'}], '_method': 'VASP DFT with PBE;DDEC'}
data_ZnH9(C3O)5
_symmetry_space_group_name_H-M   'P 1'
_cell_length_a   9.32430000
_cell_length_b   14.45349992
_cell_length_c   26.93900000
_cell_angle_alpha   90.00000000
_cell_angle_beta   90.00000000
_cell_angle_gamma   93.06799820
_symmetry_Int_Tables_number   1
_chemical_formula_structural   ZnH9(C3O)5
_chemical_formula_sum   'Zn8 H72 C120 O40'
_cell_volume   3625.3322999
_cell_formula_units_Z   8
loop_
 _symmetry_equiv_pos_site_id
 _symmetry_equiv_pos_as_xyz
  1  'x, y, z'
loop_
 _atom_site_label
 _atom_site_fract_x
 _atom_site_fract_y
 _atom_site_fract_z
 _atom_site_charge
 Zn 0.64765 0.12181 0.32096   1.17307
 Zn 0.96767 0.11193 0.3796   1.032714
 Zn 0.35235 0.37819 0.82096   1.17307
 Zn 0.03233 0.38807 0.8796   1.032714
 Zn 0.35235 0.87819 0.67904   1.17307
 Zn 0.03233 0.88807 0.6204   1.032714
 Zn 0.64765 0.62181 0.17904   1.17307
 Zn 0.96767 0.61193 0.1204   1.032714
 H 0.1041 0.3472 0.3649   0.122882
 H 0.1608 0.5607 0.2692   0.139954
 H 0.8078 0.388 0.2603   0.112274
 H 0.3367 0.3721 0.3718   0.076454
 H 0.2598 0.4363 0.4096   0.066847
 H 0.6031 0.3944 0.3612   0.09888
 H 0.8139 0.465 0.3894   0.076227
 H 0.6071 0.6524 0.4676   0.110494
 H 0.4118 0.5502 0.4563   0.063912
 H 0.0047 0.5216 0.4159   0.105948
 H 0.204 0.6172 0.4331   0.07559
 H 0.0011 0.7644 0.5313   0.092496
 H 0.7894 0.6935 0.503   0.090986
 H 0.2562 0.76 0.5427   0.068903
 H 0.3413 0.6835 0.5155   0.063936
 H 0.4434 0.915 0.4187   0.134792
 H 0.8091 0.968 0.4938   0.116677
 H 0.5107 0.7815 0.5454   0.100178
 H 0.8959 0.1528 0.8649   0.122882
 H 0.8392 0.9393 0.7692   0.139954
 H 0.1922 0.112 0.7603   0.112274
 H 0.6633 0.1279 0.8718   0.076454
 H 0.7402 0.0637 0.9096   0.066847
 H 0.3969 0.1056 0.8612   0.09888
 H 0.1861 0.035 0.8894   0.076227
 H 0.3929 0.8476 0.9676   0.110494
 H 0.5882 0.9498 0.9563   0.063912
 H 0.9953 0.9784 0.9159   0.105948
 H 0.796 0.8828 0.9331   0.07559
 H 0.9989 0.7356 0.0313   0.092496
 H 0.2106 0.8065 0.003   0.090986
 H 0.7438 0.74 0.0427   0.068903
 H 0.6587 0.8165 0.0155   0.063936
 H 0.5566 0.585 0.9187   0.134792
 H 0.1909 0.532 0.9938   0.116677
 H 0.4893 0.7185 0.0454   0.100178
 H 0.8959 0.6528 0.6351   0.122882
 H 0.8392 0.4393 0.7308   0.139954
 H 0.1922 0.612 0.7397   0.112274
 H 0.6633 0.6279 0.6282   0.076454
 H 0.7402 0.5637 0.5904   0.066847
 H 0.3969 0.6056 0.6388   0.09888
 H 0.1861 0.535 0.6106   0.076227
 H 0.3929 0.3476 0.5324   0.110494
 H 0.5882 0.4498 0.5437   0.063912
 H 0.9953 0.4784 0.5841   0.105948
 H 0.796 0.3828 0.5669   0.07559
 H 0.9989 0.2356 0.4687   0.092496
 H 0.2106 0.3065 0.497   0.090986
 H 0.7438 0.24 0.4573   0.068903
 H 0.6587 0.3165 0.4845   0.063936
 H 0.5566 0.085 0.5813   0.134792
 H 0.1909 0.032 0.5062   0.116677
 H 0.4893 0.2185 0.4546   0.100177
 H 0.1041 0.8472 0.1351   0.122882
 H 0.1608 0.0607 0.2308   0.139954
 H 0.8078 0.888 0.2397   0.112274
 H 0.3367 0.8721 0.1282   0.076454
 H 0.2598 0.9363 0.0904   0.066847
 H 0.6031 0.8944 0.1388   0.09888
 H 0.8139 0.965 0.1106   0.076227
 H 0.6071 0.1524 0.0324   0.110494
 H 0.4118 0.0502 0.0437   0.063912
 H 0.0047 0.0216 0.0841   0.105948
 H 0.204 0.1172 0.0669   0.07559
 H 0.0011 0.2644 0.9687   0.092496
 H 0.7894 0.1935 0.997   0.090986
 H 0.2562 0.26 0.9573   0.068903
 H 0.3413 0.1835 0.9845   0.063936
 H 0.4434 0.415 0.0813   0.134792
 H 0.8091 0.468 0.0062   0.116677
 H 0.5107 0.2815 0.9546   0.100177
 C 0.9444 0.3549 0.3155   -0.101164
 C 0.0717 0.3811 0.33819   -0.165336
 C 0.152 0.4583 0.32139   0.249474
 C 0.1063 0.5094 0.28072   -0.134503
 C 0.977 0.4812 0.25802   -0.110079
 C 0.895 0.4053 0.27529   -0.052853
 C 0.8669 0.2681 0.33151   0.726517
 C 0.9236 0.5326 0.21364   0.721912
 C 0.3281 0.4357 0.38247   0.095611
 C 0.4735 0.4776 0.39907   0.001429
 C 0.6016 0.4441 0.38307   -0.118542
 C 0.7282 0.4873 0.40071   -0.122876
 C 0.7377 0.5611 0.43389   0.034513
 C 0.6111 0.5973 0.44995   -0.103508
 C 0.4926 0.5426 0.43681   -0.085092
 C 0.8746 0.6059 0.45457   0.031534
 C 0.0012 0.5733 0.43629   -0.115413
 C 0.121 0.6251 0.45143   -0.083993
 C 0.1346 0.6887 0.49101   -0.006132
 C 0.0037 0.7171 0.50803   -0.073784
 C 0.8762 0.6749 0.49038   -0.128673
 C 0.2719 0.7305 0.51102   0.100774
 C 0.4528 0.8428 0.48329   0.252293
 C 0.5003 0.9053 0.44634   -0.133151
 C 0.6328 0.9526 0.45131   -0.140254
 C 0.7193 0.937 0.49145   -0.032427
 C 0.6734 0.875 0.52877   -0.089132
 C 0.54 0.8264 0.52226   -0.199328
 C 0.6866 0.0178 0.4119   0.742894
 C 0.7666 0.8584 0.57109   0.675404
 C 0.0556 0.1451 0.8155   -0.101164
 C 0.9283 0.1189 0.83819   -0.165336
 C 0.848 0.0417 0.82139   0.249474
 C 0.8937 0.9906 0.78072   -0.134503
 C 0.023 0.0188 0.75802   -0.110079
 C 0.105 0.0947 0.77529   -0.052853
 C 0.1331 0.2319 0.83151   0.726517
 C 0.0764 0.9674 0.71364   0.721912
 C 0.6719 0.0643 0.88247   0.095611
 C 0.5265 0.0224 0.89907   0.001429
 C 0.3984 0.0559 0.88307   -0.118542
 C 0.2718 0.0127 0.90071   -0.122876
 C 0.2623 0.9389 0.93389   0.034513
 C 0.3889 0.9027 0.94995   -0.103508
 C 0.5074 0.9574 0.93681   -0.085092
 C 0.1254 0.8941 0.95457   0.031534
 C 0.9988 0.9267 0.93629   -0.115413
 C 0.879 0.8749 0.95143   -0.083993
 C 0.8654 0.8113 0.99101   -0.006132
 C 0.9963 0.7829 0.00803   -0.073784
 C 0.1238 0.8251 0.99038   -0.128673
 C 0.7281 0.7695 0.01102   0.100774
 C 0.5472 0.6572 0.98329   0.252293
 C 0.4997 0.5947 0.94634   -0.133151
 C 0.3672 0.5474 0.95131   -0.140254
 C 0.2807 0.563 0.99145   -0.032427
 C 0.3266 0.625 0.02877   -0.089132
 C 0.46 0.6736 0.02226   -0.199328
 C 0.3134 0.4822 0.9119   0.742894
 C 0.2334 0.6416 0.07109   0.675404
 C 0.0556 0.6451 0.6845   -0.101164
 C 0.9283 0.6189 0.66181   -0.165336
 C 0.848 0.5417 0.67861   0.249474
 C 0.8937 0.4906 0.71928   -0.134503
 C 0.023 0.5188 0.74198   -0.110079
 C 0.105 0.5947 0.72471   -0.052852
 C 0.1331 0.7319 0.66849   0.726517
 C 0.0764 0.4674 0.78636   0.721912
 C 0.6719 0.5643 0.61753   0.095611
 C 0.5265 0.5224 0.60093   0.001429
 C 0.3984 0.5559 0.61693   -0.118542
 C 0.2718 0.5127 0.59929   -0.122876
 C 0.2623 0.4389 0.56611   0.034513
 C 0.3889 0.4027 0.55005   -0.103508
 C 0.5074 0.4574 0.56319   -0.085092
 C 0.1254 0.3941 0.54543   0.031534
 C 0.9988 0.4267 0.56371   -0.115413
 C 0.879 0.3749 0.54857   -0.083993
 C 0.8654 0.3113 0.50899   -0.006132
 C 0.9963 0.2829 0.49197   -0.073784
 C 0.1238 0.3251 0.50962   -0.128673
 C 0.7281 0.2695 0.48898   0.100774
 C 0.5472 0.1572 0.51671   0.252293
 C 0.4997 0.0947 0.55366   -0.133151
 C 0.3672 0.0474 0.54869   -0.140254
 C 0.2807 0.063 0.50855   -0.032426
 C 0.3266 0.125 0.47123   -0.089132
 C 0.46 0.1736 0.47774   -0.199328
 C 0.3134 0.9822 0.5881   0.742895
 C 0.2334 0.1416 0.42891   0.675404
 C 0.9444 0.8549 0.1845   -0.101164
 C 0.0717 0.8811 0.16181   -0.165336
 C 0.152 0.9583 0.17861   0.249474
 C 0.1063 0.0094 0.21928   -0.134503
 C 0.977 0.9812 0.24198   -0.110079
 C 0.895 0.9053 0.22471   -0.052852
 C 0.8669 0.7681 0.16849   0.726517
 C 0.9236 0.0326 0.28636   0.721912
 C 0.3281 0.9357 0.11753   0.095611
 C 0.4735 0.9776 0.10093   0.001429
 C 0.6016 0.9441 0.11693   -0.118542
 C 0.7282 0.9873 0.09929   -0.122876
 C 0.7377 0.0611 0.06611   0.034513
 C 0.6111 0.0973 0.05005   -0.103508
 C 0.4926 0.0426 0.06319   -0.085092
 C 0.8746 0.1059 0.04543   0.031534
 C 0.0012 0.0733 0.06371   -0.115413
 C 0.121 0.1251 0.04857   -0.083993
 C 0.1346 0.1887 0.00899   -0.006132
 C 0.0037 0.2171 0.99197   -0.073784
 C 0.8762 0.1749 0.00962   -0.128673
 C 0.2719 0.2305 0.98898   0.100774
 C 0.4528 0.3428 0.01671   0.252293
 C 0.5003 0.4053 0.05366   -0.133151
 C 0.6328 0.4526 0.04869   -0.140254
 C 0.7193 0.437 0.00855   -0.032426
 C 0.6734 0.375 0.97123   -0.089132
 C 0.54 0.3264 0.97774   -0.199328
 C 0.6866 0.5178 0.0881   0.742895
 C 0.7666 0.3584 0.92891   0.675404
 O 0.7714 0.23287 0.30329   -0.640931
 O 0.9001 0.23681 0.37184   -0.611646
 O 0.2819 0.48999 0.34276   -0.293902
 O 0.323 0.79906 0.47403   -0.27895
 O 0.7331 0.8013 0.60522   -0.6366
 O 0.8885 0.90341 0.57131   -0.613502
 O 0.8158 0.0405 0.41416   -0.586499
 O 0.7932 0.52945 0.20532   -0.657592
 O 0.0217 0.57204 0.18605   -0.594369
 O 0.6002 0.04558 0.37995   -0.645344
 O 0.2286 0.26713 0.80329   -0.640931
 O 0.0999 0.26319 0.87184   -0.611646
 O 0.7181 0.01001 0.84276   -0.293902
 O 0.677 0.70094 0.97403   -0.27895
 O 0.2669 0.6987 0.10522   -0.6366
 O 0.1115 0.59659 0.07131   -0.613502
 O 0.1842 0.4595 0.91416   -0.586499
 O 0.2068 0.97055 0.70532   -0.657592
 O 0.9783 0.92796 0.68605   -0.594369
 O 0.3998 0.45442 0.87995   -0.645344
 O 0.2286 0.76713 0.69671   -0.640931
 O 0.0999 0.76319 0.62816   -0.611646
 O 0.7181 0.51001 0.65724   -0.293902
 O 0.677 0.20094 0.52597   -0.27895
 O 0.2669 0.1987 0.39478   -0.6366
 O 0.1115 0.09659 0.42869   -0.613502
 O 0.1842 0.9595 0.58584   -0.586499
 O 0.2068 0.47055 0.79468   -0.657592
 O 0.9783 0.42796 0.81395   -0.594369
 O 0.3998 0.95442 0.62005   -0.645344
 O 0.7714 0.73287 0.19671   -0.640931
 O 0.9001 0.73681 0.12816   -0.611646
 O 0.2819 0.98999 0.15724   -0.293902
 O 0.323 0.29906 0.02597   -0.27895
 O 0.7331 0.3013 0.89478   -0.6366
 O 0.8885 0.40341 0.92869   -0.613502
 O 0.8158 0.5405 0.08584   -0.586499
 O 0.7932 0.02945 0.29468   -0.657592
 O 0.0217 0.07204 0.31395   -0.594369
 O 0.6002 0.54558 0.12005   -0.645344
