{'_ref': 'TBD', '_srcid': 'CAKYAQ_clean', 'submitters': [{'name': 'Dalar Nazarian Jeff Camp and David Sholl', 'email': 'dalar@gatech.edu jcamp6@gatech.edu'}], '_method': 'VASP DFT with PBE;DDEC'}
data_MgH3C7NO4
_symmetry_space_group_name_H-M   'P 1'
_cell_length_a   11.19290000
_cell_length_b   12.34750004
_cell_length_c   28.67340000
_cell_angle_alpha   98.81599987
_cell_angle_beta   90.00000000
_cell_angle_gamma   90.00000000
_symmetry_Int_Tables_number   1
_chemical_formula_structural   MgH3C7NO4
_chemical_formula_sum   'Mg12 H36 C84 N12 O48'
_cell_volume   3915.97024834
_cell_formula_units_Z   12
loop_
 _symmetry_equiv_pos_site_id
 _symmetry_equiv_pos_as_xyz
  1  'x, y, z'
loop_
 _atom_site_label
 _atom_site_fract_x
 _atom_site_fract_y
 _atom_site_fract_z
 _atom_site_charge
 Mg 0.17327 0.33707 0.85988   1.572107
 Mg 0.45775 0.55341 0.83391   1.548004
 Mg 0.2898 0.2726 0.14158   1.450899
 Mg 0.67327 0.16293 0.64012   1.572107
 Mg 0.95775 0.94659 0.66609   1.548004
 Mg 0.7898 0.2274 0.35842   1.450899
 Mg 0.82673 0.66293 0.14012   1.572107
 Mg 0.54225 0.44659 0.16609   1.548004
 Mg 0.7102 0.7274 0.85842   1.450899
 Mg 0.32673 0.83707 0.35988   1.572107
 Mg 0.04225 0.05341 0.33391   1.548004
 Mg 0.2102 0.7726 0.64158   1.450899
 H 0.516 0.332 0.7159   0.075656
 H 0.1941 0.1956 0.7336   0.098335
 H 0.4327 0.0508 0.6387   0.066857
 H 0.3436 0.3156 0.9854   0.10337
 H 0.6496 0.4249 0.9352   0.074328
 H 0.6449 0.352 0.0635   0.078042
 H 0.9661 0.6476 0.8838   0.087054
 H 0.2005 0.6801 0.7802   0.112544
 H 0.872 0.8175 0.7843   0.076119
 H 0.016 0.168 0.7841   0.075657
 H 0.6941 0.3044 0.7664   0.098335
 H 0.9327 0.4492 0.8613   0.066857
 H 0.8436 0.1844 0.5146   0.10337
 H 0.1496 0.0751 0.5648   0.074328
 H 0.1449 0.148 0.4365   0.078042
 H 0.4661 0.8524 0.6162   0.087054
 H 0.7005 0.8199 0.7198   0.112544
 H 0.372 0.6825 0.7157   0.076119
 H 0.484 0.668 0.2841   0.075656
 H 0.8059 0.8044 0.2664   0.098335
 H 0.5673 0.9492 0.3613   0.066857
 H 0.6564 0.6844 0.0146   0.10337
 H 0.3504 0.5751 0.0648   0.074328
 H 0.3551 0.648 0.9365   0.078042
 H 0.0339 0.3524 0.1162   0.087054
 H 0.7995 0.3199 0.2198   0.112544
 H 0.128 0.1825 0.2157   0.076119
 H 0.984 0.832 0.2159   0.075657
 H 0.3059 0.6956 0.2336   0.098335
 H 0.0673 0.5508 0.1387   0.066857
 H 0.1564 0.8156 0.4854   0.10337
 H 0.8504 0.9249 0.4352   0.074328
 H 0.8551 0.852 0.5635   0.078042
 H 0.5339 0.1476 0.3838   0.087054
 H 0.2995 0.1801 0.2802   0.112544
 H 0.628 0.3175 0.2843   0.076119
 C 0.4607 0.2739 0.70762   0.273627
 C 0.3506 0.2789 0.73091   -0.25109
 C 0.2697 0.1944 0.71847   0.095147
 C 0.30041 0.10778 0.68358   -0.216791
 C 0.4119 0.1099 0.66255   0.277957
 C 0.3244 0.36914 0.77129   0.805198
 C 0.18436 0.58244 0.85737   0.805479
 C 0.4246 0.39096 0.90762   0.84256
 C 0.4146 0.3026 0.0731   0.738501
 C 0.4837 0.3312 0.03154   -0.246054
 C 0.425 0.33679 0.98928   0.084534
 C 0.4865 0.37359 0.95275   -0.269128
 C 0.6071 0.3989 0.9599   0.233473
 C 0.6045 0.3571 0.03474   0.243421
 C 0.21846 0.01125 0.6711   0.743123
 C 0.05549 0.78945 0.72703   0.773997
 C 0.03768 0.75231 0.77425   -0.244003
 C 0.98519 0.67648 0.85589   0.25473
 C 0.09662 0.6537 0.83595   -0.238545
 C 0.12423 0.69319 0.79445   0.089555
 C 0.9293 0.77429 0.79757   0.256728
 C 0.9607 0.2261 0.79238   0.273627
 C 0.8506 0.2211 0.76909   -0.25109
 C 0.7697 0.3056 0.78153   0.095147
 C 0.80041 0.39222 0.81642   -0.216791
 C 0.9119 0.3901 0.83745   0.277957
 C 0.8244 0.13086 0.72871   0.805198
 C 0.68436 0.91756 0.64263   0.805479
 C 0.9246 0.10904 0.59238   0.84256
 C 0.9146 0.1974 0.4269   0.738501
 C 0.9837 0.1688 0.46846   -0.246054
 C 0.925 0.16321 0.51072   0.084534
 C 0.9865 0.12641 0.54725   -0.269128
 C 0.1071 0.1011 0.5401   0.233473
 C 0.1045 0.1429 0.46526   0.243421
 C 0.71846 0.48875 0.8289   0.743123
 C 0.55549 0.71055 0.77297   0.773997
 C 0.53768 0.74769 0.72575   -0.244003
 C 0.48519 0.82352 0.64411   0.25473
 C 0.59662 0.8463 0.66405   -0.238545
 C 0.62423 0.80681 0.70555   0.089555
 C 0.4293 0.72571 0.70243   0.256728
 C 0.5393 0.7261 0.29238   0.273627
 C 0.6494 0.7211 0.26909   -0.25109
 C 0.7303 0.8056 0.28153   0.095147
 C 0.69959 0.89222 0.31642   -0.216791
 C 0.5881 0.8901 0.33745   0.277957
 C 0.6756 0.63086 0.22871   0.805198
 C 0.81564 0.41756 0.14263   0.805479
 C 0.5754 0.60904 0.09238   0.84256
 C 0.5854 0.6974 0.9269   0.738501
 C 0.5163 0.6688 0.96846   -0.246054
 C 0.575 0.66321 0.01072   0.084534
 C 0.5135 0.62641 0.04725   -0.269129
 C 0.3929 0.6011 0.0401   0.233473
 C 0.3955 0.6429 0.96526   0.243421
 C 0.78154 0.98875 0.3289   0.743123
 C 0.94451 0.21055 0.27297   0.773997
 C 0.96232 0.24769 0.22575   -0.244003
 C 0.01481 0.32352 0.14411   0.25473
 C 0.90338 0.3463 0.16405   -0.238545
 C 0.87577 0.30681 0.20555   0.089555
 C 0.0707 0.22571 0.20243   0.256728
 C 0.0393 0.7739 0.20762   0.273627
 C 0.1494 0.7789 0.23091   -0.25109
 C 0.2303 0.6944 0.21847   0.095147
 C 0.19959 0.60778 0.18358   -0.216791
 C 0.0881 0.6099 0.16255   0.277957
 C 0.1756 0.86914 0.27129   0.805198
 C 0.31564 0.08244 0.35737   0.805479
 C 0.0754 0.89096 0.40762   0.84256
 C 0.0854 0.8026 0.5731   0.738501
 C 0.0163 0.8312 0.53154   -0.246054
 C 0.075 0.83679 0.48928   0.084534
 C 0.0135 0.87359 0.45275   -0.269129
 C 0.8929 0.8989 0.4599   0.233473
 C 0.8955 0.8571 0.53474   0.243421
 C 0.28154 0.51125 0.1711   0.743123
 C 0.44451 0.28945 0.22703   0.773997
 C 0.46232 0.25231 0.27425   -0.244003
 C 0.51481 0.17648 0.35589   0.25473
 C 0.40338 0.1537 0.33595   -0.238545
 C 0.37577 0.19319 0.29445   0.089555
 C 0.5707 0.27429 0.29757   0.256728
 N 0.49184 0.1905 0.674   -0.606664
 N 0.90213 0.73741 0.8378   -0.548955
 N 0.66679 0.3888 0.9995   -0.449145
 N 0.99184 0.3095 0.826   -0.606664
 N 0.40213 0.76259 0.6622   -0.548955
 N 0.16679 0.1112 0.5005   -0.449145
 N 0.50816 0.8095 0.326   -0.606664
 N 0.09787 0.26259 0.1622   -0.548955
 N 0.33321 0.6112 0.000500000000002   -0.449145
 N 0.00816 0.6905 0.174   -0.606664
 N 0.59787 0.23741 0.3378   -0.548955
 N 0.83321 0.8888 0.4995   -0.449145
 O 0.29201 0.60735 0.85442   -0.707388
 O 0.14225 0.50547 0.87635   -0.75815
 O 0.47639 0.45188 0.88317   -0.72354
 O 0.32701 0.34242 0.8989   -0.825589
 O 0.39441 0.44797 0.77734   -0.675932
 O 0.23461 0.3554 0.7958   -0.808217
 O 0.46211 0.31683 0.11406   -0.786167
 O 0.31039 0.26521 0.06698   -0.676769
 O 0.25895 0.93202 0.64255   -0.7084
 O 0.1193 0.01499 0.69077   -0.686935
 O 0.15693 0.77196 0.70825   -0.758427
 O 0.96801 0.83206 0.71031   -0.675456
 O 0.79201 0.89265 0.64558   -0.707388
 O 0.64225 0.99453 0.62365   -0.75815
 O 0.97639 0.04812 0.61683   -0.72354
 O 0.82701 0.15758 0.6011   -0.825589
 O 0.89441 0.05203 0.72266   -0.675932
 O 0.73461 0.1446 0.7042   -0.808217
 O 0.96211 0.18317 0.38594   -0.786167
 O 0.81039 0.23479 0.43302   -0.676769
 O 0.75895 0.56798 0.85745   -0.7084
 O 0.6193 0.48501 0.80923   -0.686935
 O 0.65693 0.72804 0.79175   -0.758427
 O 0.46801 0.66794 0.78969   -0.675456
 O 0.70799 0.39265 0.14558   -0.707388
 O 0.85775 0.49453 0.12365   -0.75815
 O 0.52361 0.54812 0.11683   -0.72354
 O 0.67299 0.65758 0.1011   -0.825589
 O 0.60559 0.55203 0.22266   -0.675932
 O 0.76539 0.6446 0.2042   -0.808217
 O 0.53789 0.68317 0.88594   -0.786167
 O 0.68961 0.73479 0.93302   -0.676769
 O 0.74105 0.06798 0.35745   -0.7084
 O 0.8807 0.98501 0.30923   -0.686935
 O 0.84307 0.22804 0.29175   -0.758427
 O 0.03199 0.16794 0.28969   -0.675456
 O 0.20799 0.10735 0.35442   -0.707388
 O 0.35775 0.00547 0.37635   -0.75815
 O 0.02361 0.95188 0.38317   -0.72354
 O 0.17299 0.84242 0.3989   -0.825589
 O 0.10559 0.94797 0.27734   -0.675932
 O 0.26539 0.8554 0.2958   -0.808217
 O 0.03789 0.81683 0.61406   -0.786167
 O 0.18961 0.76521 0.56698   -0.676769
 O 0.24105 0.43202 0.14255   -0.7084
 O 0.3807 0.51499 0.19077   -0.686935
 O 0.34307 0.27196 0.20825   -0.758427
 O 0.53199 0.33206 0.21031   -0.675456
