{'_ref': 'TBD', '_srcid': 'CAKYAQ_clean', 'submitters': [{'name': 'Dalar Nazarian Jeff Camp and David Sholl', 'email': 'dalar@gatech.edu jcamp6@gatech.edu'}], '_method': 'VASP DFT with PBE;DDEC'}
data_CdH21C27N7
_symmetry_space_group_name_H-M   'P 1'
_cell_length_a   9.26630000
_cell_length_b   14.91269980
_cell_length_c   27.24810000
_cell_angle_alpha   98.25299946
_cell_angle_beta   90.00000000
_cell_angle_gamma   90.00000000
_symmetry_Int_Tables_number   1
_chemical_formula_structural   CdH21C27N7
_chemical_formula_sum   'Cd4 H84 C108 N28'
_cell_volume   3726.29983288
_cell_formula_units_Z   4
loop_
 _symmetry_equiv_pos_site_id
 _symmetry_equiv_pos_as_xyz
  1  'x, y, z'
loop_
 _atom_site_label
 _atom_site_fract_x
 _atom_site_fract_y
 _atom_site_fract_z
 _atom_site_charge
 Cd 0.7912 0.50685 0.22609   0.086396
 Cd 0.2088 0.00685 0.72609   0.086396
 Cd 0.7912 0.99315 0.27391   0.086396
 Cd 0.2088 0.49315 0.77391   0.086396
 H 0.2398 0.0911 0.0186   0.112197
 H 0.2092 0.0696 0.9334   0.10861
 H 0.1837 0.8017 0.934   0.102512
 H 0.2375 0.8217 0.0169   0.11043
 H 0.0868 0.7906 0.855   0.110952
 H 0.0758 0.8231 0.7705   0.081771
 H 0.2224 0.0424 0.853   0.091291
 H 0.4915 0.075 0.0614   0.105894
 H 0.5504 0.2187 0.1016   0.102669
 H 0.2385 0.1989 0.2006   0.097069
 H 0.1687 0.0618 0.1568   0.099081
 H 0.2553 0.378 0.2009   0.115874
 H 0.4154 0.4996 0.2393   0.084613
 H 0.6624 0.3028 0.18   0.057454
 H 0.0336 0.8875 0.0829   0.09621
 H 0.9689 0.7704 0.1268   0.115819
 H 0.361 0.7837 0.189   0.085453
 H 0.4295 0.8958 0.1421   0.108026
 H 0.3117 0.6337 0.2054   0.1118
 H 0.1572 0.5324 0.2452   0.09755
 H 0.9028 0.704 0.1925   0.049114
 H 0.7602 0.5911 0.5186   0.112197
 H 0.7908 0.5696 0.4334   0.10861
 H 0.8163 0.3017 0.434   0.102512
 H 0.7625 0.3217 0.5169   0.11043
 H 0.9132 0.2906 0.355   0.110952
 H 0.9242 0.3231 0.2705   0.081771
 H 0.7776 0.5424 0.353   0.091291
 H 0.5085 0.575 0.5614   0.105894
 H 0.4496 0.7187 0.6016   0.102669
 H 0.7615 0.6989 0.7006   0.097069
 H 0.8313 0.5618 0.6568   0.099081
 H 0.7447 0.878 0.7009   0.115874
 H 0.5846 0.9996 0.7393   0.084613
 H 0.3376 0.8028 0.68   0.057454
 H 0.9664 0.3875 0.5829   0.09621
 H 0.0311 0.2704 0.6268   0.115819
 H 0.639 0.2837 0.689   0.085453
 H 0.5705 0.3958 0.6421   0.108026
 H 0.6883 0.1337 0.7054   0.1118
 H 0.8428 0.0324 0.7452   0.09755
 H 0.0972 0.204 0.6925   0.049114
 H 0.2398 0.4089 0.4814   0.112197
 H 0.2092 0.4304 0.5666   0.10861
 H 0.1837 0.6983 0.566   0.102512
 H 0.2375 0.6783 0.4831   0.11043
 H 0.0868 0.7094 0.645   0.110952
 H 0.0758 0.6769 0.7295   0.081771
 H 0.2224 0.4576 0.647   0.091291
 H 0.4915 0.425 0.4386   0.105894
 H 0.5504 0.2813 0.3984   0.102668
 H 0.2385 0.3011 0.2994   0.097069
 H 0.1687 0.4382 0.3432   0.099081
 H 0.2553 0.122 0.2991   0.115874
 H 0.4154 0.000399999999999 0.2607   0.084613
 H 0.6624 0.1972 0.32   0.057454
 H 0.0336 0.6125 0.4171   0.09621
 H 0.9689 0.7296 0.3732   0.115819
 H 0.361 0.7163 0.311   0.085454
 H 0.4295 0.6042 0.3579   0.108026
 H 0.3117 0.8663 0.2946   0.1118
 H 0.1572 0.9676 0.2548   0.09755
 H 0.9028 0.796 0.3075   0.049115
 H 0.7602 0.9089 0.9814   0.112197
 H 0.7908 0.9304 0.0666   0.10861
 H 0.8163 0.1983 0.066   0.102512
 H 0.7625 0.1783 0.9831   0.11043
 H 0.9132 0.2094 0.145   0.110952
 H 0.9242 0.1769 0.2295   0.081771
 H 0.7776 0.9576 0.147   0.091291
 H 0.5085 0.925 0.9386   0.105894
 H 0.4496 0.7813 0.8984   0.102668
 H 0.7615 0.8011 0.7994   0.097069
 H 0.8313 0.9382 0.8432   0.099081
 H 0.7447 0.622 0.7991   0.115874
 H 0.5846 0.5004 0.7607   0.084613
 H 0.3376 0.6972 0.82   0.057454
 H 0.9664 0.1125 0.9171   0.09621
 H 0.0311 0.2296 0.8732   0.115819
 H 0.639 0.2163 0.811   0.085454
 H 0.5705 0.1042 0.8579   0.108026
 H 0.6883 0.3663 0.7946   0.1118
 H 0.8428 0.4676 0.7548   0.09755
 H 0.0972 0.296 0.8075   0.049115
 C 0.2491 0.9588 0.0274   0.148707
 C 0.2339 0.0326 0.0015   -0.166509
 C 0.2098 0.0199 0.9505   -0.154548
 C 0.1871 0.934 0.92511   0.061276
 C 0.1978 0.8599 0.9508   -0.130796
 C 0.2292 0.8721 0.000599999999999   -0.171456
 C 0.1125 0.8449 0.8443   -0.137117
 C 0.1077 0.863 0.7977   -0.009312
 C 0.1881 0.984 0.84278   0.079215
 C 0.3227 0.0547 0.1045   0.150079
 C 0.4382 0.1007 0.0888   -0.160463
 C 0.4761 0.186 0.1137   -0.146647
 C 0.4037 0.2214 0.1559   0.092825
 C 0.2885 0.1748 0.1722   -0.152742
 C 0.2476 0.0923 0.1461   -0.157926
 C 0.3557 0.3771 0.2016   -0.161538
 C 0.4461 0.4442 0.2224   0.011292
 C 0.5812 0.3369 0.1904   0.099896
 C 0.2354 0.9013 0.1072   0.138019
 C 0.1007 0.8654 0.1036   -0.149227
 C 0.0605 0.7959 0.1301   -0.163921
 C 0.1614 0.7663 0.16152   0.103287
 C 0.2961 0.8036 0.1668   -0.145035
 C 0.3371 0.8713 0.1393   -0.163973
 C 0.2116 0.6356 0.2074   -0.147213
 C 0.1247 0.5799 0.2294   0.004693
 C 0.9849 0.6734 0.2006   0.097984
 C 0.7509 0.4588 0.5274   0.148707
 C 0.7661 0.5326 0.5015   -0.166509
 C 0.7902 0.5199 0.4505   -0.154548
 C 0.8129 0.434 0.42511   0.061276
 C 0.8022 0.3599 0.4508   -0.130796
 C 0.7708 0.3721 0.5006   -0.171456
 C 0.8875 0.3449 0.3443   -0.137117
 C 0.8923 0.363 0.2977   -0.009312
 C 0.8119 0.484 0.34278   0.079215
 C 0.6773 0.5547 0.6045   0.150079
 C 0.5618 0.6007 0.5888   -0.160463
 C 0.5239 0.686 0.6137   -0.146647
 C 0.5963 0.7214 0.6559   0.092825
 C 0.7115 0.6748 0.6722   -0.152742
 C 0.7524 0.5923 0.6461   -0.157926
 C 0.6443 0.8771 0.7016   -0.161538
 C 0.5539 0.9442 0.7224   0.011292
 C 0.4188 0.8369 0.6904   0.099896
 C 0.7646 0.4013 0.6072   0.138019
 C 0.8993 0.3654 0.6036   -0.149227
 C 0.9395 0.2959 0.6301   -0.163921
 C 0.8386 0.2663 0.66152   0.103287
 C 0.7039 0.3036 0.6668   -0.145035
 C 0.6629 0.3713 0.6393   -0.163973
 C 0.7884 0.1356 0.7074   -0.147213
 C 0.8753 0.0799 0.7294   0.004693
 C 0.0151 0.1734 0.7006   0.097984
 C 0.2491 0.5412 0.4726   0.148707
 C 0.2339 0.4674 0.4985   -0.166509
 C 0.2098 0.4801 0.5495   -0.154548
 C 0.1871 0.566 0.57489   0.061276
 C 0.1978 0.6401 0.5492   -0.130796
 C 0.2292 0.6279 0.4994   -0.171456
 C 0.1125 0.6551 0.6557   -0.137117
 C 0.1077 0.637 0.7023   -0.009312
 C 0.1881 0.516 0.65722   0.079215
 C 0.3227 0.4453 0.3955   0.150079
 C 0.4382 0.3993 0.4112   -0.160463
 C 0.4761 0.314 0.3863   -0.146647
 C 0.4037 0.2786 0.3441   0.092825
 C 0.2885 0.3252 0.3278   -0.152742
 C 0.2476 0.4077 0.3539   -0.157925
 C 0.3557 0.1229 0.2984   -0.161538
 C 0.4461 0.0558 0.2776   0.011292
 C 0.5812 0.1631 0.3096   0.099896
 C 0.2354 0.5987 0.3928   0.138019
 C 0.1007 0.6346 0.3964   -0.149227
 C 0.0605 0.7041 0.3699   -0.163921
 C 0.1614 0.7337 0.33848   0.103287
 C 0.2961 0.6964 0.3332   -0.145035
 C 0.3371 0.6287 0.3607   -0.163973
 C 0.2116 0.8644 0.2926   -0.147213
 C 0.1247 0.9201 0.2706   0.004693
 C 0.9849 0.8266 0.2994   0.097984
 C 0.7509 0.0412 0.9726   0.148707
 C 0.7661 0.9674 0.9985   -0.166509
 C 0.7902 0.9801 0.0495   -0.154548
 C 0.8129 0.066 0.07489   0.061276
 C 0.8022 0.1401 0.0492   -0.130796
 C 0.7708 0.1279 0.9994   -0.171456
 C 0.8875 0.1551 0.1557   -0.137117
 C 0.8923 0.137 0.2023   -0.009312
 C 0.8119 0.016 0.15722   0.079215
 C 0.6773 0.9453 0.8955   0.150079
 C 0.5618 0.8993 0.9112   -0.160463
 C 0.5239 0.814 0.8863   -0.146647
 C 0.5963 0.7786 0.8441   0.092825
 C 0.7115 0.8252 0.8278   -0.152742
 C 0.7524 0.9077 0.8539   -0.157925
 C 0.6443 0.6229 0.7984   -0.161538
 C 0.5539 0.5558 0.7776   0.011292
 C 0.4188 0.6631 0.8096   0.099896
 C 0.7646 0.0987 0.8928   0.138019
 C 0.8993 0.1346 0.8964   -0.149227
 C 0.9395 0.2041 0.8699   -0.163921
 C 0.8386 0.2337 0.83848   0.103287
 C 0.7039 0.1964 0.8332   -0.145035
 C 0.6629 0.1287 0.8607   -0.163973
 C 0.7884 0.3644 0.7926   -0.147213
 C 0.8753 0.4201 0.7706   0.004693
 C 0.0151 0.3266 0.7994   0.097984
 N 0.5854 0.4199 0.2155   -0.292313
 N 0.4448 0.3082 0.18211   0.066477
 N 0.278 0.9706 0.07824   -0.14212
 N 0.1626 0.9215 0.87352   0.05651
 N 0.1573 0.9502 0.79621   -0.232237
 N 0.1216 0.6948 0.18894   0.055774
 N 0.9841 0.6029 0.22534   -0.311726
 N 0.4146 0.9199 0.7155   -0.292313
 N 0.5552 0.8082 0.68211   0.066477
 N 0.722 0.4706 0.57824   -0.14212
 N 0.8374 0.4215 0.37352   0.05651
 N 0.8427 0.4502 0.29621   -0.232237
 N 0.8784 0.1948 0.68894   0.055774
 N 0.0159 0.1029 0.72534   -0.311726
 N 0.5854 0.0801 0.2845   -0.292313
 N 0.4448 0.1918 0.31789   0.066477
 N 0.278 0.5294 0.42176   -0.14212
 N 0.1626 0.5785 0.62648   0.05651
 N 0.1573 0.5498 0.70379   -0.232236
 N 0.1216 0.8052 0.31106   0.055774
 N 0.9841 0.8971 0.27466   -0.311726
 N 0.4146 0.5801 0.7845   -0.292313
 N 0.5552 0.6918 0.81789   0.066477
 N 0.722 0.0294 0.92176   -0.14212
 N 0.8374 0.0785 0.12648   0.05651
 N 0.8427 0.0498 0.20379   -0.232236
 N 0.8784 0.3052 0.81106   0.055774
 N 0.0159 0.3971 0.77466   -0.311726
