{'_ref': 'TBD', '_srcid': 'CAKYAQ_clean', 'submitters': [{'name': 'Dalar Nazarian Jeff Camp and David Sholl', 'email': 'dalar@gatech.edu jcamp6@gatech.edu'}], '_method': 'VASP DFT with PBE;DDEC'}
data_ZnH8C17(O2F3)2
_symmetry_space_group_name_H-M   'P 1'
_cell_length_a   7.29200000
_cell_length_b   18.81999963
_cell_length_c   20.51860000
_cell_angle_alpha   106.98299962
_cell_angle_beta   90.00000000
_cell_angle_gamma   90.00000000
_symmetry_Int_Tables_number   1
_chemical_formula_structural   ZnH8C17(O2F3)2
_chemical_formula_sum   'Zn4 H32 C68 O16 F24'
_cell_volume   2693.08268138
_cell_formula_units_Z   4
loop_
 _symmetry_equiv_pos_site_id
 _symmetry_equiv_pos_as_xyz
  1  'x, y, z'
loop_
 _atom_site_label
 _atom_site_fract_x
 _atom_site_fract_y
 _atom_site_fract_z
 _atom_site_charge
 Zn 0.64621 0.52765 0.97776   1.110775
 Zn 0.64621 0.97235 0.52224   1.110775
 Zn 0.35379 0.47235 0.02224   1.110774
 Zn 0.35379 0.02765 0.47776   1.110774
 H 0.9682 0.5878 0.1627   0.107691
 H 0.0928 0.6087 0.2714   0.113691
 H 0.625 0.5415 0.3386   0.101666
 H 0.4971 0.5242 0.2306   0.102061
 H 0.8641 0.719 0.3817   0.116289
 H 0.000700000000002 0.8344 0.4186   0.095764
 H 0.4434 0.7446 0.4759   0.100556
 H 0.3029 0.6294 0.4448   0.104703
 H 0.9682 0.9122 0.3373   0.107691
 H 0.0928 0.8913 0.2286   0.113691
 H 0.625 0.9585 0.1614   0.101666
 H 0.4971 0.9758 0.2694   0.102061
 H 0.8641 0.781 0.1183   0.116289
 H 0.000700000000002 0.6656 0.0814   0.095764
 H 0.4434 0.7554 0.0241   0.100556
 H 0.3029 0.8706 0.0552   0.104703
 H 0.0318 0.4122 0.8373   0.107691
 H 0.9072 0.3913 0.7286   0.113691
 H 0.375 0.4585 0.6614   0.101666
 H 0.5029 0.4758 0.7694   0.102061
 H 0.1359 0.281 0.6183   0.116289
 H 0.9993 0.1656 0.5814   0.095764
 H 0.5566 0.2554 0.5241   0.100555
 H 0.6971 0.3706 0.5552   0.104703
 H 0.0318 0.0878 0.6627   0.107691
 H 0.9072 0.1087 0.7714   0.113691
 H 0.375 0.0415 0.8386   0.101666
 H 0.5029 0.0242 0.7306   0.102061
 H 0.1359 0.219 0.8817   0.116289
 H 0.9993 0.3344 0.9186   0.095764
 H 0.5566 0.2446 0.9759   0.100555
 H 0.6971 0.1294 0.9448   0.104703
 C 0.6384 0.5371 0.1162   0.701972
 C 0.7195 0.5541 0.1869   -0.156462
 C 0.8993 0.579 0.1977   -0.022954
 C 0.9739 0.5905 0.2629   -0.146803
 C 0.8748 0.5755 0.3153   0.087643
 C 0.6939 0.5508 0.3038   -0.149127
 C 0.6176 0.5404 0.2388   -0.007105
 C 0.9726 0.5843 0.384   -0.300514
 C 0.844 0.5829 0.4425   0.698423
 C 0.1078 0.519 0.3721   0.695563
 C 0.0719 0.6607 0.4076   0.07972
 C 0.9808 0.7237 0.4008   -0.144999
 C 0.0636 0.7928 0.4225   -0.018909
 C 0.2375 0.801 0.4496   -0.152741
 C 0.3261 0.7396 0.4573   -0.003296
 C 0.2427 0.6701 0.4376   -0.150271
 C 0.3276 0.8766 0.4705   0.70065
 C 0.6384 0.9629 0.3838   0.701972
 C 0.7195 0.9459 0.3131   -0.156461
 C 0.8993 0.921 0.3023   -0.022954
 C 0.9739 0.9095 0.2371   -0.146803
 C 0.8748 0.9245 0.1847   0.087644
 C 0.6939 0.9492 0.1962   -0.149127
 C 0.6176 0.9596 0.2612   -0.007105
 C 0.9726 0.9157 0.116   -0.300514
 C 0.844 0.9171 0.0575   0.698423
 C 0.1078 0.981 0.1279   0.695563
 C 0.0719 0.8393 0.0924   0.07972
 C 0.9808 0.7763 0.0992   -0.144999
 C 0.0636 0.7072 0.0775   -0.018909
 C 0.2375 0.699 0.0504   -0.152741
 C 0.3261 0.7604 0.0427   -0.003296
 C 0.2427 0.8299 0.0624   -0.150271
 C 0.3276 0.6234 0.0295   0.700651
 C 0.3616 0.4629 0.8838   0.701972
 C 0.2805 0.4459 0.8131   -0.156462
 C 0.1007 0.421 0.8023   -0.022954
 C 0.0261 0.4095 0.7371   -0.146803
 C 0.1252 0.4245 0.6847   0.087643
 C 0.3061 0.4492 0.6962   -0.149127
 C 0.3824 0.4596 0.7612   -0.007106
 C 0.0274 0.4157 0.616   -0.300514
 C 0.156 0.4171 0.5575   0.698423
 C 0.8922 0.481 0.6279   0.695563
 C 0.9281 0.3393 0.5924   0.07972
 C 0.0192 0.2763 0.5992   -0.144999
 C 0.9364 0.2072 0.5775   -0.018909
 C 0.7625 0.199 0.5504   -0.152741
 C 0.6739 0.2604 0.5427   -0.003296
 C 0.7573 0.3299 0.5624   -0.150271
 C 0.6724 0.1234 0.5295   0.70065
 C 0.3616 0.0371 0.6162   0.701972
 C 0.2805 0.0541 0.6869   -0.156461
 C 0.1007 0.079 0.6977   -0.022954
 C 0.0261 0.0905 0.7629   -0.146803
 C 0.1252 0.0755 0.8153   0.087644
 C 0.3061 0.0508 0.8038   -0.149127
 C 0.3824 0.0404 0.7388   -0.007106
 C 0.0274 0.0843 0.884   -0.300514
 C 0.156 0.0829 0.9425   0.698423
 C 0.8922 0.019 0.8721   0.695563
 C 0.9281 0.1607 0.9076   0.07972
 C 0.0192 0.2237 0.9008   -0.144999
 C 0.9364 0.2928 0.9225   -0.018909
 C 0.7625 0.301 0.9496   -0.152741
 C 0.6739 0.2396 0.9573   -0.003296
 C 0.7573 0.1701 0.9376   -0.150271
 C 0.6724 0.3766 0.9705   0.70065
 O 0.7281 0.5541 0.072   -0.595839
 O 0.4839 0.5057 0.1087   -0.61676
 O 0.4847 0.8815 0.4968   -0.623841
 O 0.2425 0.9295 0.4581   -0.616491
 O 0.7281 0.9459 0.428   -0.595839
 O 0.4839 0.9943 0.3913   -0.61676
 O 0.4847 0.6185 0.0032   -0.623841
 O 0.2425 0.5705 0.0419   -0.616491
 O 0.2719 0.4459 0.928   -0.595839
 O 0.5161 0.4943 0.8913   -0.61676
 O 0.5153 0.1185 0.5032   -0.623841
 O 0.7575 0.0705 0.5419   -0.616491
 O 0.2719 0.0541 0.572   -0.595839
 O 0.5161 0.0057 0.6087   -0.61676
 O 0.5153 0.3815 0.9968   -0.623841
 O 0.7575 0.4295 0.9581   -0.616491
 F 0.7673 0.5153 0.433   -0.206448
 F 0.9278 0.6005 0.5028   -0.200994
 F 0.7057 0.6309 0.4484   -0.192106
 F 0.182 0.5113 0.4292   -0.203453
 F 0.2483 0.5241 0.3312   -0.195208
 F 0.0251 0.4541 0.3408   -0.212844
 F 0.7673 0.9847 0.067   -0.206448
 F 0.9278 0.8995 0.9972   -0.200994
 F 0.7057 0.8691 0.0516   -0.192106
 F 0.182 0.9887 0.0708   -0.203453
 F 0.2483 0.9759 0.1688   -0.195208
 F 0.0251 0.0459 0.1592   -0.212846
 F 0.2327 0.4847 0.567   -0.206448
 F 0.0722 0.3995 0.4972   -0.200995
 F 0.2943 0.3691 0.5516   -0.192106
 F 0.818 0.4887 0.5708   -0.203452
 F 0.7517 0.4759 0.6688   -0.195208
 F 0.9749 0.5459 0.6592   -0.212845
 F 0.2327 0.0153 0.933   -0.206448
 F 0.0722 0.1005 0.0028   -0.200995
 F 0.2943 0.1309 0.9484   -0.192106
 F 0.818 0.0113 0.9292   -0.203452
 F 0.7517 0.0241 0.8312   -0.195208
 F 0.9749 0.9541 0.8408   -0.212847
