{'_ref': 'TBD', '_srcid': 'CAKYAQ_clean', 'submitters': [{'name': 'Dalar Nazarian Jeff Camp and David Sholl', 'email': 'dalar@gatech.edu jcamp6@gatech.edu'}], '_method': 'VASP DFT with PBE;DDEC'}
data_Zn2H8C17O10
_symmetry_space_group_name_H-M   'P 1'
_cell_length_a   11.25620000
_cell_length_b   13.17440000
_cell_length_c   20.39650000
_cell_angle_alpha   90.00000000
_cell_angle_beta   90.00000000
_cell_angle_gamma   90.00000000
_symmetry_Int_Tables_number   1
_chemical_formula_structural   Zn2H8C17O10
_chemical_formula_sum   'Zn8 H32 C68 O40'
_cell_volume   3024.67207023
_cell_formula_units_Z   4
loop_
 _symmetry_equiv_pos_site_id
 _symmetry_equiv_pos_as_xyz
  1  'x, y, z'
loop_
 _atom_site_label
 _atom_site_fract_x
 _atom_site_fract_y
 _atom_site_fract_z
 _atom_site_charge
 Zn 0.67718 0.97847 0.46775   1.161064
 Zn 0.8896 0.07205 0.35934   1.005181
 Zn 0.82282 0.02153 0.96775   1.161064
 Zn 0.6104 0.92795 0.85934   1.005181
 Zn 0.32282 0.47847 0.03225   1.161064
 Zn 0.1104 0.57205 0.14066   1.005181
 Zn 0.17718 0.52153 0.53225   1.161064
 Zn 0.3896 0.42795 0.64066   1.005182
 H 0.6293 0.2943 0.2899   0.14251
 H 0.5483 0.2744 0.4833   0.116511
 H 0.4014 0.4977 0.371   0.127802
 H 0.3599 0.5228 0.2593   0.061318
 H 0.4489 0.5548 0.2018   0.053526
 H 0.6676 0.5496 0.2149   0.127527
 H 0.8961 0.7788 0.2591   0.124685
 H 0.5621 0.7782 0.3358   0.13241
 H 0.8707 0.7057 0.7899   0.14251
 H 0.9517 0.7256 0.9833   0.116511
 H 0.0986 0.5023 0.871   0.127802
 H 0.1401 0.4772 0.7593   0.061318
 H 0.0511 0.4452 0.7018   0.053526
 H 0.8324 0.4504 0.7149   0.127527
 H 0.6039 0.2212 0.7591   0.124685
 H 0.9379 0.2218 0.8358   0.13241
 H 0.3707 0.7943 0.2101   0.14251
 H 0.4517 0.7744 0.0167   0.116511
 H 0.5986 0.9977 0.129   0.127802
 H 0.6401 0.0228 0.2407   0.061318
 H 0.5511 0.0548 0.2982   0.053526
 H 0.3324 0.0496 0.2851   0.127527
 H 0.1039 0.2788 0.2409   0.124685
 H 0.4379 0.2782 0.1642   0.13241
 H 0.1293 0.2057 0.7101   0.14251
 H 0.0483 0.2256 0.5167   0.116511
 H 0.9014 0.0023 0.629   0.127802
 H 0.8599 0.9772 0.7407   0.061318
 H 0.9489 0.9452 0.7982   0.053526
 H 0.1676 0.9504 0.7851   0.127527
 H 0.3961 0.7212 0.7409   0.124685
 H 0.0621 0.7218 0.6642   0.13241
 C 0.5142 0.4037 0.32156   0.253153
 C 0.5877 0.319 0.32711   -0.128897
 C 0.5998 0.2705 0.38745   -0.130619
 C 0.5403 0.3076 0.44224   -0.030041
 C 0.4692 0.3935 0.43669   -0.112026
 C 0.4532 0.4411 0.37533   -0.171593
 C 0.6798 0.1794 0.39395   0.703498
 C 0.4121 0.4365 0.4971   0.734431
 C 0.4443 0.536 0.24873   0.302766
 C 0.5975 0.657 0.27581   0.246783
 C 0.6842 0.6111 0.23747   -0.179295
 C 0.7963 0.6565 0.23242   -0.067288
 C 0.8205 0.7476 0.26396   -0.052135
 C 0.7334 0.7932 0.30279   -0.141304
 C 0.6214 0.7477 0.30909   -0.153144
 C 0.8925 0.6022 0.19389   0.648657
 C 0.7575 0.889 0.33972   0.714502
 C 0.9858 0.5963 0.82156   0.253153
 C 0.9123 0.681 0.82711   -0.128897
 C 0.9002 0.7295 0.88745   -0.130619
 C 0.9597 0.6924 0.94224   -0.030041
 C 0.0308 0.6065 0.93669   -0.112026
 C 0.0468 0.5589 0.87533   -0.171593
 C 0.8202 0.8206 0.89395   0.703498
 C 0.0879 0.5635 0.9971   0.734431
 C 0.0557 0.464 0.74873   0.302766
 C 0.9025 0.343 0.77581   0.246783
 C 0.8158 0.3889 0.73747   -0.179295
 C 0.7037 0.3435 0.73242   -0.067288
 C 0.6795 0.2524 0.76396   -0.052135
 C 0.7666 0.2068 0.80279   -0.141304
 C 0.8786 0.2523 0.80909   -0.153144
 C 0.6075 0.3978 0.69389   0.648657
 C 0.7425 0.111 0.83972   0.714502
 C 0.4858 0.9037 0.17844   0.253153
 C 0.4123 0.819 0.17289   -0.128897
 C 0.4002 0.7705 0.11255   -0.130619
 C 0.4597 0.8076 0.05776   -0.030041
 C 0.5308 0.8935 0.06331   -0.112026
 C 0.5468 0.9411 0.12467   -0.171593
 C 0.3202 0.6794 0.10605   0.703498
 C 0.5879 0.9365 0.0029   0.734431
 C 0.5557 0.036 0.25127   0.302766
 C 0.4025 0.157 0.22419   0.246783
 C 0.3158 0.1111 0.26253   -0.179295
 C 0.2037 0.1565 0.26758   -0.067288
 C 0.1795 0.2476 0.23604   -0.052135
 C 0.2666 0.2932 0.19721   -0.141304
 C 0.3786 0.2477 0.19091   -0.153144
 C 0.1075 0.1022 0.30611   0.648657
 C 0.2425 0.389 0.16028   0.714502
 C 0.0142 0.0963 0.67844   0.253153
 C 0.0877 0.181 0.67289   -0.128897
 C 0.0998 0.2295 0.61255   -0.130619
 C 0.0403 0.1924 0.55776   -0.030041
 C 0.9692 0.1065 0.56331   -0.112026
 C 0.9532 0.0589 0.62467   -0.171593
 C 0.1798 0.3206 0.60605   0.703498
 C 0.9121 0.0635 0.5029   0.734431
 C 0.9443 0.964 0.75127   0.302766
 C 0.0975 0.843 0.72419   0.246783
 C 0.1842 0.8889 0.76253   -0.179295
 C 0.2963 0.8435 0.76758   -0.067288
 C 0.3205 0.7524 0.73604   -0.052135
 C 0.2334 0.7068 0.69721   -0.141304
 C 0.1214 0.7523 0.69091   -0.153144
 C 0.3925 0.8978 0.80611   0.648657
 C 0.2575 0.611 0.66028   0.714502
 O 0.7469 0.15823 0.34578   -0.561753
 O 0.6752 0.13095 0.44735   -0.667119
 O 0.44412 0.39966 0.55088   -0.559249
 O 0.3374 0.5079 0.48964   -0.672449
 O 0.51078 0.44539 0.25898   -0.299448
 O 0.48494 0.6184 0.28703   -0.310051
 O 0.86999 0.52233 0.16526   -0.563591
 O 0.99575 0.64356 0.19572   -0.615993
 O 0.85501 0.93354 0.329   -0.554265
 O 0.67786 0.9188 0.37877   -0.686063
 O 0.7531 0.84177 0.84578   -0.561753
 O 0.8248 0.86905 0.94735   -0.667119
 O 0.05588 0.60034 0.05088   -0.559249
 O 0.1626 0.4921 0.98964   -0.672449
 O 0.98922 0.55461 0.75898   -0.299448
 O 0.01506 0.3816 0.78703   -0.310051
 O 0.63001 0.47767 0.66526   -0.563591
 O 0.50425 0.35644 0.69572   -0.615993
 O 0.64499 0.06646 0.829   -0.554265
 O 0.82214 0.0812 0.87877   -0.686063
 O 0.2531 0.65823 0.15422   -0.561753
 O 0.3248 0.63095 0.05265   -0.667119
 O 0.55588 0.89966 0.94912   -0.559249
 O 0.6626 0.0079 0.01036   -0.672449
 O 0.48922 0.94539 0.24102   -0.299448
 O 0.51506 0.1184 0.21297   -0.310051
 O 0.13001 0.02233 0.33474   -0.563591
 O 0.00425 0.14356 0.30428   -0.615993
 O 0.14499 0.43354 0.171   -0.554265
 O 0.32214 0.4188 0.12123   -0.686063
 O 0.2469 0.34177 0.65422   -0.561753
 O 0.1752 0.36905 0.55265   -0.667119
 O 0.94412 0.10034 0.44912   -0.559249
 O 0.8374 0.9921 0.51036   -0.672449
 O 0.01078 0.05461 0.74102   -0.299448
 O 0.98494 0.8816 0.71297   -0.310051
 O 0.36999 0.97767 0.83474   -0.563591
 O 0.49575 0.85644 0.80428   -0.615993
 O 0.35501 0.56646 0.671   -0.554265
 O 0.17786 0.5812 0.62123   -0.686063
