{'_ref': 'TBD', '_srcid': 'CAKYAQ_clean', 'submitters': [{'name': 'Dalar Nazarian Jeff Camp and David Sholl', 'email': 'dalar@gatech.edu jcamp6@gatech.edu'}], '_method': 'VASP DFT with PBE;DDEC'}
data_Gd2CoH32C56(N2O5)4
_symmetry_space_group_name_H-M   'P 1'
_cell_length_a   10.14569989
_cell_length_b   10.87279991
_cell_length_c   13.75520000
_cell_angle_alpha   79.12299931
_cell_angle_beta   78.84399943
_cell_angle_gamma   86.31699783
_symmetry_Int_Tables_number   1
_chemical_formula_structural   Gd2CoH32C56(N2O5)4
_chemical_formula_sum   'Gd2 Co1 H32 C56 N8 O20'
_cell_volume   1461.34324952
_cell_formula_units_Z   1
loop_
 _symmetry_equiv_pos_site_id
 _symmetry_equiv_pos_as_xyz
  1  'x, y, z'
loop_
 _atom_site_label
 _atom_site_fract_x
 _atom_site_fract_y
 _atom_site_fract_z
 _atom_site_charge
 Gd 0.31927 0.92246 0.29711   2.036613
 Gd 0.68073 0.07754 0.70289   2.036609
 Co 0.0 0.5 0.5   0.761944
 H 0.3264 0.6692 0.1542   0.127075
 H 0.3461 0.3297 0.0765   0.124109
 H 0.2824 0.3595 0.3683   0.108829
 H 0.3464 0.7731 0.8511   0.122224
 H 0.3537 0.8805 0.6917   0.069457
 H 0.3653 0.5744 0.5848   0.078916
 H 0.3558 0.4546 0.7426   0.128178
 H 0.8245 0.9116 0.2814   0.111495
 H 0.6957 0.8515 0.0366   0.136577
 H 0.0893 0.8426 0.0397   0.120107
 H 0.0183 0.8289 0.7154   0.132165
 H 0.033 0.7468 0.5714   0.084351
 H 0.0139 0.4077 0.7239   0.077323
 H 0.0105 0.4775 0.8699   0.128135
 H 0.3767 0.6461 0.9827   0.319918
 H 0.8796 0.8396 0.8817   0.296292
 H 0.6736 0.3308 0.8458   0.127076
 H 0.6539 0.6703 0.9235   0.124081
 H 0.7176 0.6405 0.6317   0.10883
 H 0.6536 0.2269 0.1489   0.122223
 H 0.6463 0.1195 0.3083   0.069452
 H 0.6347 0.4256 0.4152   0.078902
 H 0.6442 0.5454 0.2574   0.128179
 H 0.1755 0.0884 0.7186   0.111491
 H 0.3043 0.1485 0.9634   0.136559
 H 0.9107 0.1574 0.9603   0.120108
 H 0.9817 0.1711 0.2846   0.132165
 H 0.967 0.2532 0.4286   0.08435
 H 0.9861 0.5923 0.2761   0.077322
 H 0.9895 0.5225 0.1301   0.128135
 H 0.6233 0.3539 0.0173   0.319909
 H 0.1204 0.1604 0.1183   0.296292
 C 0.2979 0.5267 0.2738   -0.164477
 C 0.3211 0.5826 0.1723   -0.110258
 C 0.3361 0.5093 0.0981   0.210718
 C 0.3347 0.3796 0.1257   -0.150857
 C 0.3162 0.3251 0.2266   -0.112208
 C 0.2965 0.3973 0.3007   -0.029201
 C 0.3135 0.1857 0.2531   0.652809
 C 0.2667 0.606 0.3546   0.773839
 C 0.3347 0.517 0.919   0.510701
 C 0.348 0.6 0.8169   -0.037586
 C 0.349 0.7298 0.7985   -0.186857
 C 0.3538 0.7935 0.7023   0.205114
 C 0.3602 0.6146 0.6394   0.193594
 C 0.3549 0.5416 0.7343   -0.159786
 C 0.9743 0.8793 0.1681   -0.138768
 C 0.8423 0.8949 0.2161   -0.022207
 C 0.7381 0.8859 0.1675   -0.125187
 C 0.7658 0.8572 0.07   -0.071458
 C 0.8967 0.8375 0.0236   0.191504
 C 0.000799999999998 0.8517 0.072   -0.107121
 C 0.0911 0.891 0.2167   0.657938
 C 0.5938 0.9017 0.2154   0.667041
 C 0.0061 0.7036 0.9081   0.507925
 C 0.0091 0.6607 0.8098   0.003367
 C 0.0176 0.7428 0.7186   -0.160527
 C 0.0248 0.6922 0.6329   0.176571
 C 0.0152 0.4935 0.7221   0.154986
 C 0.0115 0.5345 0.8102   -0.115292
 C 0.7021 0.4733 0.7262   -0.164466
 C 0.6789 0.4174 0.8277   -0.110261
 C 0.6639 0.4907 0.9019   0.21072
 C 0.6653 0.6204 0.8743   -0.150837
 C 0.6838 0.6749 0.7734   -0.112181
 C 0.7035 0.6027 0.6993   -0.029196
 C 0.6865 0.8143 0.7469   0.652816
 C 0.7333 0.394 0.6454   0.773833
 C 0.6653 0.483 0.081   0.510702
 C 0.652 0.4 0.1831   -0.037575
 C 0.651 0.2702 0.2015   -0.186852
 C 0.6462 0.2065 0.2977   0.205114
 C 0.6398 0.3854 0.3606   0.193593
 C 0.6451 0.4584 0.2657   -0.159792
 C 0.0257 0.1207 0.8319   -0.13877
 C 0.1577 0.1051 0.7839   -0.022207
 C 0.2619 0.1141 0.8325   -0.12519
 C 0.2342 0.1428 0.93   -0.071451
 C 0.1033 0.1625 0.9764   0.191499
 C 0.9992 0.1483 0.928   -0.107131
 C 0.9089 0.109 0.7833   0.657938
 C 0.4062 0.0983 0.7846   0.667042
 C 0.9939 0.2964 0.0919   0.507921
 C 0.9909 0.3393 0.1902   0.003381
 C 0.9824 0.2572 0.2814   -0.160512
 C 0.9752 0.3078 0.3671   0.176577
 C 0.9848 0.5065 0.2779   0.155002
 C 0.9885 0.4655 0.1898   -0.115289
 N 0.3528 0.5694 0.9964   -0.402024
 N 0.3585 0.7388 0.6229   -0.427337
 N 0.9206 0.8 0.928   -0.397707
 N 0.0207 0.5701 0.6329   -0.354673
 N 0.6472 0.4306 0.0036   -0.402019
 N 0.6415 0.2612 0.3771   -0.427338
 N 0.0794 0.2 0.072   -0.397706
 N 0.9793 0.4299 0.3671   -0.354675
 O 0.1923 0.5632 0.4356   -0.577258
 O 0.3187 0.7123 0.3359   -0.74376
 O 0.3286 0.1296 0.3384   -0.67257
 O 0.2934 0.1227 0.1897   -0.650606
 O 0.3089 0.4087 0.9262   -0.462438
 O 0.0733 0.9054 0.3084   -0.708133
 O 0.2075 0.8852 0.1665   -0.620568
 O 0.5604 0.9006 0.3085   -0.666751
 O 0.5046 0.9146 0.1622   -0.636575
 O 0.0759 0.6488 0.9668   -0.476667
 O 0.8077 0.4368 0.5644   -0.577257
 O 0.6813 0.2877 0.6641   -0.743759
 O 0.6714 0.8704 0.6616   -0.672571
 O 0.7066 0.8773 0.8103   -0.650607
 O 0.6911 0.5913 0.0738   -0.462438
 O 0.9267 0.0946 0.6916   -0.708133
 O 0.7925 0.1148 0.8335   -0.620567
 O 0.4396 0.0994 0.6915   -0.666751
 O 0.4954 0.0854 0.8378   -0.636581
 O 0.9241 0.3512 0.0332   -0.476669
