{'_ref': 'TBD', '_srcid': 'CAKYAQ_clean', 'submitters': [{'name': 'Dalar Nazarian Jeff Camp and David Sholl', 'email': 'dalar@gatech.edu jcamp6@gatech.edu'}], '_method': 'VASP DFT with PBE;DDEC'}
data_CuH8C12(NO2)2
_symmetry_space_group_name_H-M   'P 1'
_cell_length_a   5.00600009
_cell_length_b   11.05200033
_cell_length_c   12.82510000
_cell_angle_alpha   88.31610054
_cell_angle_beta   78.74599927
_cell_angle_gamma   81.34019990
_symmetry_Int_Tables_number   1
_chemical_formula_structural   CuH8C12(NO2)2
_chemical_formula_sum   'Cu2 H16 C24 N4 O8'
_cell_volume   687.988081356
_cell_formula_units_Z   2
loop_
 _symmetry_equiv_pos_site_id
 _symmetry_equiv_pos_as_xyz
  1  'x, y, z'
loop_
 _atom_site_label
 _atom_site_fract_x
 _atom_site_fract_y
 _atom_site_fract_z
 _atom_site_charge
 Cu 0.826 0.30453 0.77325   0.877581
 Cu 0.59925 0.80453 0.22675   0.878328
 H 0.5946 0.5104 0.1278   0.127509
 H 0.8305 0.3746 0.9988   0.082348
 H 0.334 0.4945 0.8064   0.084617
 H 0.0741 0.6291 0.932   0.135148
 H 0.0143 0.9601 0.5126   0.130209
 H 0.7965 0.0694 0.662   0.084457
 H 0.3253 0.3024 0.6102   0.079991
 H 0.5547 0.2014 0.4562   0.129123
 H 0.7224 0.0104 0.8722   0.126643
 H 0.8293 0.8746 0.0012   0.081169
 H 0.1404 0.9945 0.1936   0.085583
 H 0.0061 0.1291 0.068   0.134752
 H 0.5269 0.4601 0.4874   0.130102
 H 0.4585 0.5694 0.338   0.084631
 H 0.9355 0.8024 0.3898   0.079072
 H 0.0109 0.7014 0.5438   0.131169
 C 0.13818 0.6728 0.13144   0.639848
 C 0.30408 0.587 0.04564   -0.013897
 C 0.53648 0.5084 0.06344   -0.14334
 C 0.67915 0.4279 0.9849   0.151108
 C 0.38585 0.4978 0.8719   0.172751
 C 0.2291 0.5794 0.947   -0.157693
 C 0.46253 0.9988 0.36574   0.596421
 C 0.30902 0.0681 0.46576   0.002398
 C 0.07992 0.0297 0.53016   -0.151032
 C 0.95097 0.0957 0.62026   0.144423
 C 0.26189 0.2336 0.58962   0.153225
 C 0.4018 0.173 0.497   -0.157854
 C 0.26962 0.1728 0.86856   0.640751
 C 0.34972 0.087 0.95436   -0.013246
 C 0.59992 0.0084 0.93656   -0.141767
 C 0.66405 0.9279 0.0151   0.150519
 C 0.25775 0.9978 0.1281   0.171369
 C 0.1761 0.0794 0.053   -0.156733
 C 0.82827 0.4988 0.63426   0.595636
 C 0.77478 0.5681 0.53424   0.003453
 C 0.61008 0.5297 0.46984   -0.149562
 C 0.57123 0.5957 0.37974   0.143106
 C 0.85151 0.7336 0.41038   0.155844
 C 0.8988 0.673 0.503   -0.162818
 N 0.61003 0.4227 0.88914   -0.331326
 N 0.03695 0.1964 0.6511   -0.300886
 N 0.49917 0.9227 0.11086   -0.330064
 N 0.68805 0.6964 0.3489   -0.300579
 O 0.88973 0.7099 0.12194   -0.599509
 O 0.24827 0.7012 0.20506   -0.603124
 O 0.35508 0.9095 0.34164   -0.546666
 O 0.68256 0.0305 0.31768   -0.586091
 O 0.01167 0.2099 0.87806   -0.599777
 O 0.45333 0.2012 0.79494   -0.604745
 O 0.69672 0.4095 0.65836   -0.546871
 O 0.000239999999998 0.5305 0.68232   -0.585702
