{'_ref': 'TBD', '_srcid': 'CAKYAQ_clean', 'submitters': [{'name': 'Dalar Nazarian Jeff Camp and David Sholl', 'email': 'dalar@gatech.edu jcamp6@gatech.edu'}], '_method': 'VASP DFT with PBE;DDEC'}
data_CuH8C12(NO2)2
_symmetry_space_group_name_H-M   'P 1'
_cell_length_a   4.99670025
_cell_length_b   11.10010018
_cell_length_c   12.73300000
_cell_angle_alpha   88.26779843
_cell_angle_beta   78.68499871
_cell_angle_gamma   81.13779809
_symmetry_Int_Tables_number   1
_chemical_formula_structural   CuH8C12(NO2)2
_chemical_formula_sum   'Cu2 H16 C24 N4 O8'
_cell_volume   684.227697199
_cell_formula_units_Z   2
loop_
 _symmetry_equiv_pos_site_id
 _symmetry_equiv_pos_as_xyz
  1  'x, y, z'
loop_
 _atom_site_label
 _atom_site_fract_x
 _atom_site_fract_y
 _atom_site_fract_z
 _atom_site_charge
 Cu 0.35076 0.1048 0.77296   0.874633
 Cu 0.12372 0.6048 0.22704   0.874061
 H 0.9841 0.3726 0.3382   0.083825
 H 0.0582 0.2621 0.4876   0.129214
 H 0.5362 0.5008 0.5454   0.126809
 H 0.4589 0.6026 0.3912   0.078182
 H 0.3572 0.1757 0.9984   0.082472
 H 0.1167 0.3125 0.1286   0.123892
 H 0.5883 0.4242 0.9338   0.133745
 H 0.8549 0.2906 0.8056   0.085317
 H 0.3223 0.8726 0.6618   0.083234
 H 0.5458 0.7621 0.5124   0.128121
 H 0.0816 0.000799999999998 0.4546   0.127572
 H 0.8501 0.1026 0.6088   0.078571
 H 0.3556 0.6757 0.0016   0.08094
 H 0.2453 0.8125 0.8714   0.123669
 H 0.5221 0.9242 0.0662   0.133181
 H 0.6605 0.7906 0.1944   0.084709
 C 0.09763 0.3982 0.38014   0.142751
 C 0.13887 0.332 0.47046   -0.148959
 C 0.30035 0.3703 0.5349   0.001665
 C 0.42334 0.4731 0.50432   -0.155543
 C 0.37567 0.5339 0.41166   0.156104
 C 0.35412 0.3004 0.63496   0.602544
 C 0.2032 0.2277 0.9848   0.149284
 C 0.05778 0.3093 0.06404   -0.138699
 C 0.82577 0.3856 0.04626   -0.020711
 C 0.74666 0.3761 0.94808   -0.152158
 C 0.6603 0.4733 0.132   0.650119
 C 0.90626 0.2943 0.87168   0.164943
 C 0.47777 0.8982 0.61986   0.144477
 C 0.60933 0.832 0.52954   -0.148225
 C 0.83525 0.8703 0.4651   0.000826
 C 0.92766 0.9731 0.49568   -0.15489
 C 0.78733 0.0339 0.58834   0.153984
 C 0.98908 0.8004 0.36504   0.606585
 C 0.188 0.7277 0.0152   0.15056
 C 0.12182 0.8093 0.93596   -0.139239
 C 0.87203 0.8856 0.95374   -0.018042
 C 0.69474 0.8761 0.05192   -0.153601
 C 0.7923 0.9733 0.868   0.649527
 C 0.77794 0.7943 0.12832   0.16648
 N 0.21357 0.4973 0.35046   -0.296449
 N 0.13083 0.2207 0.88974   -0.324894
 N 0.56403 0.9973 0.64954   -0.295954
 N 0.02057 0.7207 0.11026   -0.325331
 O 0.22428 0.2101 0.65884   -0.560726
 O 0.52088 0.3312 0.68424   -0.579721
 O 0.41395 0.51016 0.1215   -0.601526
 O 0.77188 0.50175 0.20444   -0.605891
 O 0.88312 0.7101 0.34116   -0.563501
 O 0.20512 0.8312 0.31576   -0.581052
 O 0.53545 0.01016 0.8785   -0.600318
 O 0.97632 0.00175 0.79556   -0.606566
