{'_ref': 'TBD', '_srcid': 'CAKYAQ_clean', 'submitters': [{'name': 'Dalar Nazarian Jeff Camp and David Sholl', 'email': 'dalar@gatech.edu jcamp6@gatech.edu'}], '_method': 'VASP DFT with PBE;DDEC'}
data_CuH8C12(NO2)2
_symmetry_space_group_name_H-M   'P 1'
_cell_length_a   4.95789984
_cell_length_b   10.98809965
_cell_length_c   12.78189505
_cell_angle_alpha   88.44027123
_cell_angle_beta   78.81711694
_cell_angle_gamma   81.93220028
_symmetry_Int_Tables_number   1
_chemical_formula_structural   CuH8C12(NO2)2
_chemical_formula_sum   'Cu2 H16 C24 N4 O8'
_cell_volume   676.348683522
_cell_formula_units_Z   2
loop_
 _symmetry_equiv_pos_site_id
 _symmetry_equiv_pos_as_xyz
  1  'x, y, z'
loop_
 _atom_site_label
 _atom_site_fract_x
 _atom_site_fract_y
 _atom_site_fract_z
 _atom_site_charge
 Cu 0.82994 0.78373 0.22654   0.875582
 Cu 0.05648 0.28373 0.77346   0.874802
 H 0.1984 0.5207 0.663   0.085228
 H 0.1332 0.6285 0.5112   0.129431
 H 0.6414 0.3837 0.4554   0.13142
 H 0.7175 0.2825 0.6104   0.079684
 H 0.5153 0.0926 0.8042   0.086372
 H 0.6527 0.9579 0.9316   0.13664
 H 0.9319 0.0781 0.13   0.127113
 H 0.8252 0.2161 0.0   0.082876
 H 0.8614 0.0207 0.337   0.085124
 H 0.6444 0.1285 0.4888   0.129529
 H 0.0968 0.8837 0.5446   0.129089
 H 0.3279 0.7825 0.3896   0.07871
 H 0.3195 0.5926 0.1958   0.088236
 H 0.5843 0.4579 0.0684   0.136013
 H 0.0619 0.5781 0.87   0.125497
 H 0.8252 0.7161 0.0   0.082741
 C 0.08504 0.4929 0.62032   0.142613
 C 0.04719 0.5579 0.52962   -0.153071
 C 0.88004 0.5178 0.46552   0.006816
 C 0.75593 0.4131 0.49674   -0.163127
 C 0.80301 0.3528 0.58938   0.15344
 C 0.82525 0.5879 0.3657   0.600271
 C 0.39761 0.0902 0.87118   0.166496
 C 0.48043 0.0085 0.94694   -0.156709
 C 0.30653 0.0019 0.04594   -0.013655
 C 0.05608 0.0804 0.06444   -0.144998
 C 0.9918 0.1615 0.9856   0.148244
 C 0.38611 0.9156 0.13218   0.643901
 C 0.70536 0.9929 0.37968   0.141642
 C 0.57681 0.0579 0.47038   -0.152046
 C 0.34556 0.0178 0.53448   0.005357
 C 0.25267 0.9131 0.50326   -0.15954
 C 0.39239 0.8528 0.41062   0.155508
 C 0.19095 0.0879 0.6343   0.59857
 C 0.26879 0.5902 0.12882   0.165226
 C 0.42737 0.5085 0.05306   -0.154896
 C 0.35247 0.5019 0.95406   -0.014199
 C 0.12052 0.5804 0.93556   -0.142643
 C 0.9774 0.6615 0.0144   0.147503
 C 0.51829 0.4156 0.86782   0.642988
 N 0.96751 0.3915 0.65058   -0.296151
 N 0.15675 0.1661 0.8891   -0.326987
 N 0.61809 0.8915 0.34942   -0.297666
 N 0.04585 0.6661 0.1109   -0.327846
 O 0.95728 0.6785 0.34124   -0.550517
 O 0.653 0.5551 0.3172   -0.587952
 O 0.64551 0.87844 0.12138   -0.599455
 O 0.20247 0.88772 0.20606   -0.602851
 O 0.29852 0.1785 0.65876   -0.549619
 O 0.9702 0.0551 0.6828   -0.586638
 O 0.76689 0.37844 0.87862   -0.599021
 O 0.40853 0.38772 0.79394   -0.603075
