{'_ref': 'TBD', '_srcid': 'CAKYAQ_clean', 'submitters': [{'name': 'Dalar Nazarian Jeff Camp and David Sholl', 'email': 'dalar@gatech.edu jcamp6@gatech.edu'}], '_method': 'VASP DFT with PBE;DDEC'}
data_Co3H4C9SN12O5
_symmetry_space_group_name_H-M   'P 1'
_cell_length_a   7.32460000
_cell_length_b   13.22400000
_cell_length_c   22.76690000
_cell_angle_alpha   90.00000000
_cell_angle_beta   90.00000000
_cell_angle_gamma   90.00000000
_symmetry_Int_Tables_number   1
_chemical_formula_structural   Co3H4C9SN12O5
_chemical_formula_sum   'Co12 H16 C36 S4 N48 O20'
_cell_volume   2205.21355423
_cell_formula_units_Z   4
loop_
 _symmetry_equiv_pos_site_id
 _symmetry_equiv_pos_as_xyz
  1  'x, y, z'
loop_
 _atom_site_label
 _atom_site_fract_x
 _atom_site_fract_y
 _atom_site_fract_z
 _atom_site_charge
 Co 0.67312 0.88278 0.61061   0.907491
 Co 0.82688 0.11722 0.11061   0.907491
 Co 0.32688 0.38278 0.38939   0.907491
 Co 0.17312 0.61722 0.88939   0.907491
 Co 0.32688 0.11722 0.38939   0.907503
 Co 0.17312 0.88278 0.88939   0.907503
 Co 0.67312 0.61722 0.61061   0.907503
 Co 0.82688 0.38278 0.11061   0.907503
 Co 0.65643 0.75 0.74146   1.040202
 Co 0.84357 0.25 0.24146   1.040202
 Co 0.34357 0.25 0.25854   1.040204
 Co 0.15643 0.75 0.75854   1.040204
 H 0.7166 0.4031 0.8719   0.117797
 H 0.7834 0.5969 0.3719   0.117797
 H 0.2834 0.9031 0.1281   0.117797
 H 0.2166 0.0969 0.6281   0.117797
 H 0.2834 0.5969 0.1281   0.117798
 H 0.2166 0.4031 0.6281   0.117798
 H 0.7166 0.0969 0.8719   0.117798
 H 0.7834 0.9031 0.3719   0.117798
 H 0.8603 0.75 0.6505   0.421115
 H 0.6397 0.25 0.1505   0.421115
 H 0.1397 0.25 0.3495   0.421115
 H 0.3603 0.75 0.8495   0.421115
 H 0.605 0.25 0.7216   0.119479
 H 0.895 0.75 0.2216   0.119479
 H 0.395 0.75 0.2784   0.11948
 H 0.105 0.25 0.7784   0.11948
 C 0.6474 0.4373 0.76013   0.356045
 C 0.6585 0.3408 0.79187   -0.044009
 C 0.7006 0.3409 0.85169   -0.062607
 C 0.8526 0.5627 0.26013   0.356045
 C 0.8415 0.6592 0.29187   -0.044009
 C 0.7994 0.6591 0.35169   -0.062607
 C 0.3526 0.9373 0.23987   0.356045
 C 0.3415 0.8408 0.20813   -0.044008
 C 0.2994 0.8409 0.14831   -0.062607
 C 0.1474 0.0627 0.73987   0.356045
 C 0.1585 0.1592 0.70813   -0.044008
 C 0.2006 0.1591 0.64831   -0.062607
 C 0.3526 0.5627 0.23987   0.356042
 C 0.3415 0.6592 0.20813   -0.04401
 C 0.2994 0.6591 0.14831   -0.062607
 C 0.1474 0.4373 0.73987   0.356042
 C 0.1585 0.3408 0.70813   -0.04401
 C 0.2006 0.3409 0.64831   -0.062607
 C 0.6474 0.0627 0.76013   0.356042
 C 0.6585 0.1592 0.79187   -0.044011
 C 0.7006 0.1591 0.85169   -0.062606
 C 0.8526 0.9373 0.26013   0.356042
 C 0.8415 0.8408 0.29187   -0.044011
 C 0.7994 0.8409 0.35169   -0.062606
 C 0.6359 0.25 0.76215   -0.065507
 C 0.7192 0.25 0.88163   -0.047361
 C 0.7591 0.25 0.94522   0.388489
 C 0.8641 0.75 0.26215   -0.065507
 C 0.7808 0.75 0.38163   -0.047361
 C 0.7409 0.75 0.44522   0.388489
 C 0.3641 0.75 0.23785   -0.065514
 C 0.2808 0.75 0.11837   -0.047361
 C 0.2409 0.75 0.05478   0.388489
 C 0.1359 0.25 0.73785   -0.065514
 C 0.2192 0.25 0.61837   -0.047361
 C 0.2591 0.25 0.55478   0.388489
 S 0.32413 0.75 0.64792   1.660051
 S 0.17587 0.25 0.14792   1.660051
 S 0.67587 0.25 0.35208   1.660051
 S 0.82413 0.75 0.85208   1.660051
 N 0.6407 0.5934 0.74244   -0.035526
 N 0.6552 0.5446 0.69184   -0.094137
 N 0.6341 0.5273 0.78657   -0.289191
 N 0.6594 0.445 0.70171   -0.323284
 N 0.7769 0.33362 0.97729   -0.326247
 N 0.8057 0.3 0.03168   -0.067187
 N 0.8593 0.4066 0.24244   -0.035526
 N 0.8448 0.4554 0.19184   -0.094137
 N 0.8659 0.4727 0.28657   -0.289191
 N 0.8406 0.555 0.20171   -0.323284
 N 0.7231 0.66638 0.47729   -0.326247
 N 0.6943 0.7 0.53168   -0.067187
 N 0.3593 0.0934 0.25756   -0.035526
 N 0.3448 0.0446 0.30816   -0.094137
 N 0.3659 0.0273 0.21343   -0.289191
 N 0.3406 0.945 0.29829   -0.323284
 N 0.2231 0.83362 0.02271   -0.326247
 N 0.1943 0.8 0.96832   -0.067187
 N 0.1407 0.9066 0.75756   -0.035526
 N 0.1552 0.9554 0.80816   -0.094137
 N 0.1341 0.9727 0.71343   -0.289191
 N 0.1594 0.055 0.79829   -0.323284
 N 0.2769 0.16638 0.52271   -0.326247
 N 0.3057 0.2 0.46832   -0.067187
 N 0.3593 0.4066 0.25756   -0.035529
 N 0.3448 0.4554 0.30816   -0.094134
 N 0.3659 0.4727 0.21343   -0.289193
 N 0.3406 0.555 0.29829   -0.323284
 N 0.2231 0.66638 0.02271   -0.326263
 N 0.1943 0.7 0.96832   -0.067078
 N 0.1407 0.5934 0.75756   -0.035529
 N 0.1552 0.5446 0.80816   -0.094134
 N 0.1341 0.5273 0.71343   -0.289193
 N 0.1594 0.445 0.79829   -0.323284
 N 0.2769 0.33362 0.52271   -0.326263
 N 0.3057 0.3 0.46832   -0.067078
 N 0.6407 0.9066 0.74244   -0.035528
 N 0.6552 0.9554 0.69184   -0.094134
 N 0.6341 0.9727 0.78657   -0.289193
 N 0.6594 0.055 0.70171   -0.323285
 N 0.7769 0.16638 0.97729   -0.326263
 N 0.8057 0.2 0.03168   -0.067078
 N 0.8593 0.0934 0.24244   -0.035528
 N 0.8448 0.0446 0.19184   -0.094134
 N 0.8659 0.0273 0.28657   -0.289193
 N 0.8406 0.945 0.20171   -0.323285
 N 0.7231 0.83362 0.47729   -0.326263
 N 0.6943 0.8 0.53168   -0.067078
 O 0.3893 0.84088 0.61747   -0.668892
 O 0.1107 0.15912 0.11747   -0.668892
 O 0.6107 0.34088 0.38253   -0.668892
 O 0.8893 0.65912 0.88253   -0.668892
 O 0.6107 0.15912 0.38253   -0.668892
 O 0.8893 0.84088 0.88253   -0.668892
 O 0.3893 0.65912 0.61747   -0.668892
 O 0.1107 0.34088 0.11747   -0.668892
 O 0.7439 0.75 0.65464   -0.952794
 O 0.395 0.75 0.71016   -0.825027
 O 0.1264 0.75 0.65561   -0.679253
 O 0.7561 0.25 0.15464   -0.952794
 O 0.105 0.25 0.21016   -0.825027
 O 0.3736 0.25 0.15561   -0.679253
 O 0.2561 0.25 0.34536   -0.952794
 O 0.605 0.25 0.28984   -0.825027
 O 0.8736 0.25 0.34439   -0.679253
 O 0.2439 0.75 0.84536   -0.952794
 O 0.895 0.75 0.78984   -0.825027
 O 0.6264 0.75 0.84439   -0.679253
