{'_ref': 'TBD', '_srcid': 'CAKYAQ_clean', 'submitters': [{'name': 'Dalar Nazarian Jeff Camp and David Sholl', 'email': 'dalar@gatech.edu jcamp6@gatech.edu'}], '_method': 'VASP DFT with PBE;DDEC'}
data_ZnH11C17NO4
_symmetry_space_group_name_H-M   'P 1'
_cell_length_a   18.27909977
_cell_length_b   18.49140000
_cell_length_c   18.49139956
_cell_angle_alpha   109.70259965
_cell_angle_beta   109.23900041
_cell_angle_gamma   109.23880093
_symmetry_Int_Tables_number   1
_chemical_formula_structural   ZnH11C17NO4
_chemical_formula_sum   'Zn12 H132 C204 N12 O48'
_cell_volume   4825.13332742
_cell_formula_units_Z   12
loop_
 _symmetry_equiv_pos_site_id
 _symmetry_equiv_pos_as_xyz
  1  'x, y, z'
loop_
 _atom_site_label
 _atom_site_fract_x
 _atom_site_fract_y
 _atom_site_fract_z
 _atom_site_charge
 Zn 0.44018 0.92599 0.50591   0.930945
 Zn 0.51419 0.57992 0.07401   0.930924
 Zn 0.93427 0.49409 0.42008   0.93095
 Zn 0.98581 0.92599 0.42008   0.930933
 Zn 0.56573 0.57992 0.50591   0.930934
 Zn 0.05982 0.49409 0.07401   0.930943
 Zn 0.55982 0.07401 0.49409   0.930945
 Zn 0.48581 0.42008 0.92599   0.930924
 Zn 0.06573 0.50591 0.57992   0.93095
 Zn 0.01419 0.07401 0.57992   0.930933
 Zn 0.43427 0.42008 0.49409   0.930934
 Zn 0.94018 0.50591 0.92599   0.930943
 H 0.504 0.7209 0.372   0.093549
 H 0.3602 0.993 0.2256   0.0975
 H 0.4193 0.6957 0.7059   0.088428
 H 0.1899 0.7541 0.5992   0.093081
 H 0.1612 0.8233 0.518   0.129678
 H 0.2659 0.8866 0.4805   0.080727
 H 0.5162 0.755 0.6583   0.089458
 H 0.29 0.7037 0.6712   0.114912
 H 0.486 0.8245 0.5786   0.129582
 H 0.7831 0.6511 0.2791   0.093544
 H 0.3672 0.2326 0.007   0.097496
 H 0.7236 0.0102 0.3043   0.088424
 H 0.4358 0.8451 0.2459   0.093072
 H 0.3379 0.6947 0.1767   0.129677
 H 0.3793 0.5939 0.1134   0.080721
 H 0.7612 0.9033 0.245   0.089449
 H 0.5863 0.9675 0.2963   0.114912
 H 0.6615 0.7541 0.1755   0.129582
 H 0.132 0.628 0.3489   0.093541
 H 0.1346 0.7744 0.7674   0.097498
 H 0.7134 0.2941 0.9898   0.088419
 H 0.5907 0.4008 0.1549   0.093098
 H 0.6432 0.482 0.3053   0.129683
 H 0.7854 0.5195 0.4061   0.08073
 H 0.8579 0.3417 0.0967   0.089456
 H 0.6188 0.3288 0.0325   0.114907
 H 0.9074 0.4214 0.2459   0.129584
 H 0.7169 0.7209 0.3489   0.09355
 H 0.1328 0.993 0.7674   0.097501
 H 0.7764 0.6957 0.9898   0.088432
 H 0.0642 0.7541 0.1549   0.09307
 H 0.1621 0.8233 0.3053   0.129676
 H 0.1207 0.8866 0.4061   0.080727
 H 0.7388 0.755 0.0967   0.089458
 H 0.9137 0.7037 0.0325   0.114907
 H 0.8385 0.8245 0.2459   0.129585
 H 0.368 0.6511 0.372   0.093542
 H 0.3654 0.2326 0.2256   0.097497
 H 0.7866 0.0102 0.7059   0.088418
 H 0.9093 0.8451 0.5992   0.093066
 H 0.8568 0.6947 0.518   0.129684
 H 0.7146 0.5939 0.4805   0.080728
 H 0.6421 0.9033 0.6583   0.08945
 H 0.8812 0.9675 0.6712   0.114906
 H 0.5926 0.7541 0.5786   0.129582
 H 0.996 0.628 0.2791   0.093547
 H 0.1398 0.7744 0.007   0.097492
 H 0.0807 0.2941 0.3043   0.088415
 H 0.3101 0.4008 0.2459   0.093103
 H 0.3388 0.482 0.1767   0.129678
 H 0.2341 0.5195 0.1134   0.080732
 H 0.9838 0.3417 0.245   0.089456
 H 0.21 0.3288 0.2963   0.11492
 H 0.014 0.4214 0.1755   0.129584
 H 0.496 0.2791 0.628   0.093549
 H 0.6398 0.007 0.7744   0.0975
 H 0.5807 0.3043 0.2941   0.088428
 H 0.8101 0.2459 0.4008   0.093081
 H 0.8388 0.1767 0.482   0.129678
 H 0.7341 0.1134 0.5195   0.080727
 H 0.4838 0.245 0.3417   0.089457
 H 0.71 0.2963 0.3288   0.114912
 H 0.514 0.1755 0.4214   0.129582
 H 0.2169 0.3489 0.7209   0.093544
 H 0.6328 0.7674 0.993   0.097495
 H 0.2764 0.9898 0.6957   0.088424
 H 0.5642 0.1549 0.7541   0.093072
 H 0.6621 0.3053 0.8233   0.129676
 H 0.6207 0.4061 0.8866   0.080721
 H 0.2388 0.0967 0.755   0.089449
 H 0.4137 0.0325 0.7037   0.114912
 H 0.3385 0.2459 0.8245   0.129582
 H 0.868 0.372 0.6511   0.093541
 H 0.8654 0.2256 0.2326   0.097498
 H 0.2866 0.7059 0.0102   0.088419
 H 0.4093 0.5992 0.8451   0.093098
 H 0.3568 0.518 0.6947   0.129683
 H 0.2146 0.4805 0.5939   0.08073
 H 0.1421 0.6583 0.9033   0.089456
 H 0.3812 0.6712 0.9675   0.114907
 H 0.0926 0.5786 0.7541   0.129584
 H 0.2831 0.2791 0.6511   0.09355
 H 0.8672 0.007 0.2326   0.097501
 H 0.2236 0.3043 0.0102   0.088432
 H 0.9358 0.2459 0.8451   0.09307
 H 0.8379 0.1767 0.6947   0.129676
 H 0.8793 0.1134 0.5939   0.080727
 H 0.2612 0.245 0.9033   0.089458
 H 0.0863 0.2963 0.9675   0.114907
 H 0.1615 0.1755 0.7541   0.129585
 H 0.632 0.3489 0.628   0.093542
 H 0.6346 0.7674 0.7744   0.097497
 H 0.2134 0.9898 0.2941   0.088418
 H 0.0907 0.1549 0.4008   0.093066
 H 0.1432 0.3053 0.482   0.129683
 H 0.2854 0.4061 0.5195   0.080728
 H 0.3579 0.0967 0.3417   0.08945
 H 0.1188 0.0325 0.3288   0.114906
 H 0.4074 0.2459 0.4214   0.129582
 H 0.004 0.372 0.7209   0.093547
 H 0.8602 0.2256 0.993   0.097492
 H 0.9193 0.7059 0.6957   0.088415
 H 0.6899 0.5992 0.7541   0.093103
 H 0.6612 0.518 0.8233   0.129678
 H 0.7659 0.4805 0.8866   0.080732
 H 0.0162 0.6583 0.755   0.089456
 H 0.79 0.6712 0.7037   0.11492
 H 0.986 0.5786 0.8245   0.129584
 H 0.7265 0.953 0.4765   0.089592
 H 0.5719 0.6438 0.3219   0.111275
 H 0.7735 0.5235 0.047   0.08959
 H 0.9281 0.6781 0.3562   0.111272
 H 0.25 0.5235 0.4765   0.089587
 H 0.25 0.6781 0.3219   0.111272
 H 0.2735 0.047 0.5235   0.089592
 H 0.4281 0.3562 0.6781   0.111275
 H 0.2265 0.4765 0.953   0.08959
 H 0.0719 0.3219 0.6438   0.111272
 H 0.75 0.4765 0.5235   0.089587
 H 0.75 0.3219 0.6781   0.111272
 H 0.25 0.76795 0.23205   0.098225
 H 0.25 0.9224 0.0776   0.110265
 H 0.48205 0.4641 0.23205   0.098224
 H 0.3276 0.1552 0.0776   0.110262
 H 0.01795 0.76795 0.5359   0.098225
 H 0.1724 0.9224 0.8448   0.110268
 H 0.75 0.23205 0.76795   0.098225
 H 0.75 0.0776 0.9224   0.110265
 H 0.51795 0.5359 0.76795   0.098224
 H 0.6724 0.8448 0.9224   0.110262
 H 0.98205 0.23205 0.4641   0.098225
 H 0.8276 0.0776 0.1552   0.110268
 C 0.56098 0.89437 0.45122   0.670777
 C 0.60736 0.84441 0.42588   -0.165594
 C 0.56252 0.75244 0.38219   -0.02985
 C 0.38001 0.93118 0.3401   0.668275
 C 0.31335 0.88793 0.244   -0.158452
 C 0.31488 0.93327 0.19728   -0.020477
 C 0.40552 0.72372 0.67293   -0.091019
 C 0.2312 0.77872 0.58214   0.016172
 C 0.2145 0.81989 0.53512   -0.194245
 C 0.27746 0.85707 0.51237   0.184073
 C 0.46371 0.75979 0.6446   -0.035065
 C 0.30946 0.77254 0.60554   -0.029318
 C 0.32968 0.72916 0.65303   -0.090579
 C 0.36941 0.80991 0.57876   0.229072
 C 0.44641 0.80145 0.59793   -0.169725
 C 0.66661 0.55685 0.10563   0.670772
 C 0.76295 0.58147 0.15559   -0.165619
 C 0.81008 0.62975 0.24756   -0.029836
 C 0.44883 0.40892 0.06882   0.668254
 C 0.42542 0.35607 0.11207   -0.158463
 C 0.38161 0.26401 0.06673   -0.02048
 C 0.6818 0.94921 0.27628   -0.09098
 C 0.45248 0.80342 0.22128   0.016167
 C 0.39461 0.71523 0.18011   -0.19425
 C 0.42039 0.6553 0.14293   0.184058
 C 0.70392 0.88481 0.24021   -0.035081
 C 0.53692 0.833 0.22746   -0.029303
 C 0.60052 0.92387 0.27084   -0.09062
 C 0.5595 0.76885 0.19009   0.229057
 C 0.64496 0.79648 0.19855   -0.169721
 C 0.10976 0.54878 0.44315   0.670765
 C 0.18148 0.57412 0.41853   -0.165607
 C 0.18033 0.61781 0.37025   -0.029837
 C 0.03991 0.6599 0.59108   0.66831
 C 0.06935 0.756 0.64393   -0.158481
 C 0.1176 0.80272 0.73599   -0.020456
 C 0.73259 0.32707 0.05079   -0.091018
 C 0.64906 0.41786 0.19658   0.01616
 C 0.67938 0.46488 0.28477   -0.194264
 C 0.76509 0.48763 0.3447   0.184066
 C 0.81911 0.3554 0.11519   -0.03505
 C 0.70392 0.39446 0.167   -0.029328
 C 0.67665 0.34697 0.07613   -0.09059
 C 0.79065 0.42124 0.23115   0.229067
 C 0.84848 0.40207 0.20352   -0.169725
 C 0.83339 0.89437 0.44315   0.670772
 C 0.73705 0.84441 0.41853   -0.165595
 C 0.68992 0.75244 0.37025   -0.029848
 C 0.05117 0.93118 0.59108   0.668237
 C 0.07458 0.88793 0.64393   -0.158446
 C 0.11839 0.93327 0.73599   -0.020485
 C 0.8182 0.72372 0.05079   -0.091017
 C 0.04752 0.77872 0.19658   0.016174
 C 0.10539 0.81989 0.28477   -0.194249
 C 0.07961 0.85707 0.3447   0.184051
 C 0.79608 0.75979 0.11519   -0.035075
 C 0.96308 0.77254 0.167   -0.029318
 C 0.89948 0.72916 0.07613   -0.090586
 C 0.9405 0.80991 0.23115   0.229072
 C 0.85504 0.80145 0.20352   -0.169737
 C 0.39024 0.55685 0.45122   0.670771
 C 0.31852 0.58147 0.42588   -0.165599
 C 0.31967 0.62975 0.38219   -0.029841
 C 0.46009 0.40892 0.3401   0.668248
 C 0.43065 0.35607 0.244   -0.158466
 C 0.3824 0.26401 0.19728   -0.02047
 C 0.76741 0.94921 0.67293   -0.091003
 C 0.85094 0.80342 0.58214   0.01619
 C 0.82062 0.71523 0.53512   -0.194263
 C 0.73491 0.6553 0.51237   0.184069
 C 0.68089 0.88481 0.6446   -0.035055
 C 0.79608 0.833 0.60554   -0.029337
 C 0.82335 0.92387 0.65303   -0.090589
 C 0.70935 0.76885 0.57876   0.229073
 C 0.65152 0.79648 0.59793   -0.169727
 C 0.93902 0.54878 0.10563   0.670772
 C 0.89264 0.57412 0.15559   -0.165606
 C 0.93748 0.61781 0.24756   -0.029839
 C 0.11999 0.6599 0.06882   0.668284
 C 0.18665 0.756 0.11207   -0.158445
 C 0.18512 0.80272 0.06673   -0.020467
 C 0.09448 0.32707 0.27628   -0.090984
 C 0.2688 0.41786 0.22128   0.016145
 C 0.2855 0.46488 0.18011   -0.19425
 C 0.22254 0.48763 0.14293   0.184075
 C 0.03629 0.3554 0.24021   -0.035067
 C 0.19054 0.39446 0.22746   -0.029313
 C 0.17032 0.34697 0.27084   -0.090612
 C 0.13059 0.42124 0.19009   0.229078
 C 0.05359 0.40207 0.19855   -0.169733
 C 0.43902 0.10563 0.54878   0.670777
 C 0.39264 0.15559 0.57412   -0.165594
 C 0.43748 0.24756 0.61781   -0.02985
 C 0.61999 0.06882 0.6599   0.668275
 C 0.68665 0.11207 0.756   -0.158452
 C 0.68512 0.06673 0.80272   -0.020477
 C 0.59448 0.27628 0.32707   -0.091019
 C 0.7688 0.22128 0.41786   0.016172
 C 0.7855 0.18011 0.46488   -0.194245
 C 0.72254 0.14293 0.48763   0.184072
 C 0.53629 0.24021 0.3554   -0.035065
 C 0.69054 0.22746 0.39446   -0.029318
 C 0.67032 0.27084 0.34697   -0.090579
 C 0.63059 0.19009 0.42124   0.229072
 C 0.55359 0.19855 0.40207   -0.169725
 C 0.33339 0.44315 0.89437   0.670772
 C 0.23705 0.41853 0.84441   -0.165619
 C 0.18992 0.37025 0.75244   -0.029836
 C 0.55117 0.59108 0.93118   0.668254
 C 0.57458 0.64393 0.88793   -0.158463
 C 0.61839 0.73599 0.93327   -0.02048
 C 0.3182 0.05079 0.72372   -0.09098
 C 0.54752 0.19658 0.77872   0.016167
 C 0.60539 0.28477 0.81989   -0.19425
 C 0.57961 0.3447 0.85707   0.184058
 C 0.29608 0.11519 0.75979   -0.035081
 C 0.46308 0.167 0.77254   -0.029303
 C 0.39948 0.07613 0.72916   -0.09062
 C 0.4405 0.23115 0.80991   0.229057
 C 0.35504 0.20352 0.80145   -0.169722
 C 0.89024 0.45122 0.55685   0.670764
 C 0.81852 0.42588 0.58147   -0.165607
 C 0.81967 0.38219 0.62975   -0.029837
 C 0.96009 0.3401 0.40892   0.66831
 C 0.93065 0.244 0.35607   -0.158481
 C 0.8824 0.19728 0.26401   -0.020456
 C 0.26741 0.67293 0.94921   -0.091018
 C 0.35094 0.58214 0.80342   0.01616
 C 0.32062 0.53512 0.71523   -0.194263
 C 0.23491 0.51237 0.6553   0.184066
 C 0.18089 0.6446 0.88481   -0.03505
 C 0.29608 0.60554 0.833   -0.029328
 C 0.32335 0.65303 0.92387   -0.09059
 C 0.20935 0.57876 0.76885   0.229067
 C 0.15152 0.59793 0.79648   -0.169725
 C 0.16661 0.10563 0.55685   0.670771
 C 0.26295 0.15559 0.58147   -0.165595
 C 0.31008 0.24756 0.62975   -0.029848
 C 0.94883 0.06882 0.40892   0.668237
 C 0.92542 0.11207 0.35607   -0.158446
 C 0.88161 0.06673 0.26401   -0.020485
 C 0.1818 0.27628 0.94921   -0.091017
 C 0.95248 0.22128 0.80342   0.016174
 C 0.89461 0.18011 0.71523   -0.194249
 C 0.92039 0.14293 0.6553   0.184051
 C 0.20392 0.24021 0.88481   -0.035075
 C 0.03692 0.22746 0.833   -0.029318
 C 0.10052 0.27084 0.92387   -0.090586
 C 0.0595 0.19009 0.76885   0.229072
 C 0.14496 0.19855 0.79648   -0.169737
 C 0.60976 0.44315 0.54878   0.670771
 C 0.68148 0.41853 0.57412   -0.165599
 C 0.68033 0.37025 0.61781   -0.029841
 C 0.53991 0.59108 0.6599   0.668248
 C 0.56935 0.64393 0.756   -0.158466
 C 0.6176 0.73599 0.80272   -0.02047
 C 0.23259 0.05079 0.32707   -0.091003
 C 0.14906 0.19658 0.41786   0.01619
 C 0.17938 0.28477 0.46488   -0.194263
 C 0.26509 0.3447 0.48763   0.184069
 C 0.31911 0.11519 0.3554   -0.035055
 C 0.20392 0.167 0.39446   -0.029337
 C 0.17665 0.07613 0.34697   -0.090589
 C 0.29065 0.23115 0.42124   0.229073
 C 0.34848 0.20352 0.40207   -0.169727
 C 0.06098 0.45122 0.89437   0.670772
 C 0.10736 0.42588 0.84441   -0.165606
 C 0.06252 0.38219 0.75244   -0.029839
 C 0.88001 0.3401 0.93118   0.668284
 C 0.81335 0.244 0.88793   -0.158445
 C 0.81488 0.19728 0.93327   -0.020467
 C 0.90552 0.67293 0.72372   -0.090984
 C 0.7312 0.58214 0.77872   0.016145
 C 0.7145 0.53512 0.81989   -0.19425
 C 0.77746 0.51237 0.85707   0.184075
 C 0.96371 0.6446 0.75979   -0.035067
 C 0.80946 0.60554 0.77254   -0.029313
 C 0.82968 0.65303 0.72916   -0.090612
 C 0.86941 0.57876 0.80991   0.229078
 C 0.94641 0.59793 0.80145   -0.169733
 C 0.69513 0.89026 0.44513   -0.008881
 C 0.60333 0.70666 0.35333   -0.108413
 C 0.80487 0.55487 0.10974   -0.008862
 C 0.89667 0.64667 0.29334   -0.108411
 C 0.25 0.55487 0.44513   -0.008862
 C 0.25 0.64667 0.35333   -0.108414
 C 0.30487 0.10974 0.55487   -0.008881
 C 0.39667 0.29334 0.64667   -0.108413
 C 0.19513 0.44513 0.89026   -0.008862
 C 0.10333 0.35333 0.70666   -0.108411
 C 0.75 0.44513 0.55487   -0.008862
 C 0.75 0.35333 0.64667   -0.108414
 C 0.25 0.79935 0.20065   -0.009415
 C 0.25 0.89099 0.10901   -0.131422
 C 0.45065 0.4013 0.20065   -0.009382
 C 0.35901 0.21802 0.10901   -0.131406
 C 0.04935 0.79935 0.5987   -0.009387
 C 0.14099 0.89099 0.78198   -0.131426
 C 0.75 0.20065 0.79935   -0.009415
 C 0.75 0.10901 0.89099   -0.131422
 C 0.54935 0.5987 0.79935   -0.009382
 C 0.64099 0.78198 0.89099   -0.131406
 C 0.95065 0.20065 0.4013   -0.009387
 C 0.85901 0.10901 0.21802   -0.131426
 N 0.3523 0.8532 0.53292   -0.352049
 N 0.4991 0.67972 0.1468   -0.352015
 N 0.81938 0.46708 0.32028   -0.352021
 N 0.000900000000001 0.8532 0.32028   -0.352025
 N 0.68062 0.67972 0.53292   -0.352019
 N 0.1477 0.46708 0.1468   -0.352044
 N 0.6477 0.1468 0.46708   -0.352049
 N 0.5009 0.32028 0.8532   -0.352015
 N 0.18062 0.53292 0.67972   -0.352021
 N 0.9991 0.1468 0.67972   -0.352024
 N 0.31938 0.32028 0.46708   -0.352019
 N 0.8523 0.53292 0.8532   -0.352044
 O 0.49687 0.85634 0.46105   -0.574667
 O 0.36098 0.89132 0.37984   -0.577913
 O 0.58932 0.97053 0.46029   -0.612167
 O 0.44988 0.00251 0.37209   -0.590704
 O 0.64053 0.60471 0.14366   -0.574652
 O 0.46966 0.48852 0.10868   -0.577917
 O 0.61879 0.48976 0.02947   -0.612162
 O 0.44737 0.36958 0.99749   -0.590686
 O 0.03582 0.53895 0.39529   -0.574661
 O 0.98114 0.62016 0.51148   -0.577939
 O 0.12903 0.53971 0.51024   -0.612169
 O 0.07779 0.62791 0.63042   -0.590714
 O 0.85947 0.85634 0.39529   -0.57466
 O 0.03034 0.89132 0.51148   -0.577904
 O 0.88121 0.97053 0.51024   -0.612164
 O 0.05263 0.00251 0.63042   -0.59068
 O 0.46418 0.60471 0.46105   -0.574671
 O 0.51886 0.48852 0.37984   -0.57792
 O 0.37097 0.48976 0.46029   -0.612168
 O 0.42221 0.36958 0.37209   -0.590669
 O 0.00313 0.53895 0.14366   -0.574662
 O 0.13902 0.62016 0.10868   -0.577942
 O 0.91068 0.53971 0.02947   -0.61217
 O 0.05012 0.62791 0.99749   -0.590686
 O 0.50313 0.14366 0.53895   -0.574667
 O 0.63902 0.10868 0.62016   -0.577913
 O 0.41068 0.02947 0.53971   -0.612167
 O 0.55012 0.99749 0.62791   -0.590704
 O 0.35947 0.39529 0.85634   -0.574652
 O 0.53034 0.51148 0.89132   -0.577917
 O 0.38121 0.51024 0.97053   -0.612162
 O 0.55263 0.63042 0.00251   -0.590686
 O 0.96418 0.46105 0.60471   -0.574661
 O 0.01886 0.37984 0.48852   -0.577939
 O 0.87097 0.46029 0.48976   -0.612169
 O 0.92221 0.37209 0.36958   -0.590714
 O 0.14053 0.14366 0.60471   -0.57466
 O 0.96966 0.10868 0.48852   -0.577904
 O 0.11879 0.02947 0.48976   -0.612164
 O 0.94737 0.99749 0.36958   -0.59068
 O 0.53582 0.39529 0.53895   -0.574671
 O 0.48114 0.51148 0.62016   -0.57792
 O 0.62903 0.51024 0.53971   -0.612168
 O 0.57779 0.63042 0.62791   -0.590669
 O 0.99687 0.46105 0.85634   -0.574662
 O 0.86098 0.37984 0.89132   -0.577942
 O 0.08932 0.46029 0.97053   -0.61217
 O 0.94988 0.37209 0.00251   -0.590686
