{'_ref': 'TBD', '_srcid': 'CAKYAQ_clean', 'submitters': [{'name': 'Dalar Nazarian Jeff Camp and David Sholl', 'email': 'dalar@gatech.edu jcamp6@gatech.edu'}], '_method': 'VASP DFT with PBE;DDEC'}
data_ZnH20(C5N3)4
_symmetry_space_group_name_H-M   'P 1'
_cell_length_a   12.40300000
_cell_length_b   15.72900037
_cell_length_c   15.72900000
_cell_angle_alpha   119.99999923
_cell_angle_beta   90.00000000
_cell_angle_gamma   90.00000000
_symmetry_Int_Tables_number   1
_chemical_formula_structural   ZnH20(C5N3)4
_chemical_formula_sum   'Zn3 H60 C60 N36'
_cell_volume   2657.41641769
_cell_formula_units_Z   3
loop_
 _symmetry_equiv_pos_site_id
 _symmetry_equiv_pos_as_xyz
  1  'x, y, z'
loop_
 _atom_site_label
 _atom_site_fract_x
 _atom_site_fract_y
 _atom_site_fract_z
 _atom_site_charge
 Zn 0.83333 0.0 0.57877   0.730841
 Zn 0.5 0.57877 0.0   0.730835
 Zn 0.16667 0.42123 0.42123   0.730841
 H 0.8437 0.8177 0.3675   0.086765
 H 0.0233 0.0535 0.4725   0.085153
 H 0.2205 0.0586 0.2511   0.103068
 H 0.1638 0.958 0.1824   0.100057
 H 0.2326 0.9715 0.272   0.082207
 H 0.1843 0.1953 0.3273   0.085695
 H 0.9344 0.3715 0.4294   0.078785
 H 0.702 0.2848 0.3518   0.088765
 H 0.7672 0.3728 0.4344   0.094246
 H 0.666 0.3316 0.4618   0.095431
 H 0.51037 0.5498 0.1823   0.086767
 H 0.68997 0.419 0.9465   0.085132
 H 0.88717 0.1925 0.9414   0.103004
 H 0.83047 0.2244 0.042   0.100052
 H 0.89927 0.3005 0.0285   0.082182
 H 0.85097 0.132 0.8047   0.08573
 H 0.60107 0.0579 0.6285   0.078792
 H 0.36867 0.067 0.7152   0.088773
 H 0.43387 0.0616 0.6272   0.094202
 H 0.33267 0.1302 0.6684   0.095359
 H 0.17703 0.6325 0.4502   0.086817
 H 0.35663 0.5275 0.581   0.085196
 H 0.55383 0.7489 0.8075   0.103035
 H 0.49713 0.8176 0.7756   0.100061
 H 0.56593 0.728 0.6995   0.082149
 H 0.51763 0.6727 0.868   0.085734
 H 0.26773 0.5706 0.9421   0.078757
 H 0.03533 0.6482 0.933   0.088741
 H 0.10053 0.5656 0.9384   0.094264
 H 0.99933 0.5382 0.8698   0.095461
 H 0.1563 0.4502 0.6325   0.086767
 H 0.9767 0.581 0.5275   0.085155
 H 0.7795 0.8075 0.7489   0.103067
 H 0.8362 0.7756 0.8176   0.100059
 H 0.7674 0.6995 0.728   0.082208
 H 0.8157 0.868 0.6727   0.085696
 H 0.0656 0.9421 0.5706   0.078786
 H 0.298 0.933 0.6482   0.088771
 H 0.2328 0.9384 0.5656   0.094248
 H 0.334 0.8698 0.5382   0.095435
 H 0.48963 0.3675 0.8177   0.086769
 H 0.31003 0.4725 0.0535   0.085135
 H 0.11283 0.2511 0.0586   0.103003
 H 0.16953 0.1824 0.958   0.100054
 H 0.10073 0.272 0.9715   0.082183
 H 0.14903 0.3273 0.1953   0.085731
 H 0.39893 0.4294 0.3715   0.078794
 H 0.63133 0.3518 0.2848   0.088778
 H 0.56613 0.4344 0.3728   0.094204
 H 0.66733 0.4618 0.3316   0.095362
 H 0.82297 0.1823 0.5498   0.08682
 H 0.64337 0.9465 0.419   0.085199
 H 0.44617 0.9414 0.1925   0.103034
 H 0.50287 0.042 0.2244   0.100063
 H 0.43407 0.0285 0.3005   0.08215
 H 0.48237 0.8047 0.132   0.085736
 H 0.73227 0.6285 0.0579   0.078759
 H 0.96467 0.7152 0.067   0.088746
 H 0.89947 0.6272 0.0616   0.094266
 H 0.000669999999999 0.6684 0.1302   0.095465
 C 0.9208 0.8354 0.2643   0.311762
 C 0.8899 0.8593 0.3588   -0.046344
 C 0.9948 0.997 0.4197   -0.074382
 C 0.0238 0.972 0.3251   0.322932
 C 0.1846 0.0034 0.2488   -0.141392
 C 0.0501 0.131 0.3453   0.30953
 C 0.113 0.2069 0.3484   -0.153292
 C 0.9659 0.3104 0.4081   -0.127389
 C 0.9041 0.2336 0.4041   0.334044
 C 0.727 0.3146 0.4186   -0.138257
 C 0.58747 0.4289 0.1646   0.311889
 C 0.55657 0.4995 0.1407   -0.046438
 C 0.66147 0.4227 0.003   -0.074423
 C 0.69047 0.3531 0.028   0.322937
 C 0.85127 0.2454 0.9966   -0.141219
 C 0.71677 0.2143 0.869   0.309495
 C 0.77967 0.1415 0.7931   -0.153267
 C 0.63257 0.0977 0.6896   -0.127388
 C 0.57077 0.1705 0.7664   0.333955
 C 0.39367 0.104 0.6854   -0.138117
 C 0.25413 0.7357 0.5711   0.311858
 C 0.22323 0.6412 0.5005   -0.046503
 C 0.32813 0.5803 0.5773   -0.074563
 C 0.35713 0.6749 0.6469   0.323068
 C 0.51793 0.7512 0.7546   -0.14128
 C 0.38343 0.6547 0.7857   0.309455
 C 0.44633 0.6516 0.8585   -0.153274
 C 0.29923 0.5919 0.9023   -0.127288
 C 0.23743 0.5959 0.8295   0.334046
 C 0.06033 0.5814 0.896   -0.138318
 C 0.0792 0.5711 0.7357   0.311763
 C 0.1101 0.5005 0.6412   -0.046345
 C 0.0052 0.5773 0.5803   -0.074382
 C 0.9762 0.6469 0.6749   0.322932
 C 0.8154 0.7546 0.7512   -0.141393
 C 0.9499 0.7857 0.6547   0.30953
 C 0.887 0.8585 0.6516   -0.153292
 C 0.0341 0.9023 0.5919   -0.127391
 C 0.0959 0.8295 0.5959   0.334044
 C 0.273 0.896 0.5814   -0.138261
 C 0.41253 0.2643 0.8354   0.311889
 C 0.44343 0.3588 0.8593   -0.046439
 C 0.33853 0.4197 0.997   -0.074424
 C 0.30953 0.3251 0.972   0.322939
 C 0.14873 0.2488 0.0034   -0.14122
 C 0.28323 0.3453 0.131   0.309495
 C 0.22033 0.3484 0.2069   -0.153268
 C 0.36743 0.4081 0.3104   -0.127389
 C 0.42923 0.4041 0.2336   0.333955
 C 0.60633 0.4186 0.3146   -0.138119
 C 0.74587 0.1646 0.4289   0.311859
 C 0.77677 0.1407 0.4995   -0.046505
 C 0.67187 0.003 0.4227   -0.074563
 C 0.64287 0.028 0.3531   0.323068
 C 0.48207 0.9966 0.2454   -0.141281
 C 0.61657 0.869 0.2143   0.309456
 C 0.55367 0.7931 0.1415   -0.153275
 C 0.70077 0.6896 0.0977   -0.12729
 C 0.76257 0.7664 0.1705   0.334047
 C 0.93967 0.6854 0.104   -0.138322
 N 0.9893 0.8905 0.2469   -0.484407
 N 0.9255 0.9406 0.4369   -0.279264
 N 0.0898 0.0368 0.3103   -0.16583
 N 0.9464 0.1453 0.373   -0.479016
 N 0.0692 0.2962 0.3817   -0.25658
 N 0.796 0.2452 0.4298   -0.197761
 N 0.65597 0.3564 0.1095   -0.484428
 N 0.59217 0.4963 0.0594   -0.279178
 N 0.75647 0.2735 0.9632   -0.16589
 N 0.61307 0.2277 0.8547   -0.478964
 N 0.73587 0.0855 0.7038   -0.256629
 N 0.46267 0.1846 0.7548   -0.197768
 N 0.32263 0.7531 0.6436   -0.484419
 N 0.25883 0.5631 0.5037   -0.279137
 N 0.42313 0.6897 0.7265   -0.165925
 N 0.27973 0.627 0.7723   -0.478955
 N 0.40253 0.6183 0.9145   -0.256659
 N 0.12933 0.5702 0.8154   -0.197688
 N 0.0107 0.6436 0.7531   -0.484407
 N 0.0745 0.5037 0.5631   -0.279265
 N 0.9102 0.7265 0.6897   -0.165829
 N 0.0536 0.7723 0.627   -0.479016
 N 0.9308 0.9145 0.6183   -0.256579
 N 0.204 0.8154 0.5702   -0.19776
 N 0.34403 0.2469 0.8905   -0.484428
 N 0.40783 0.4369 0.9406   -0.279177
 N 0.24353 0.3103 0.0368   -0.16589
 N 0.38693 0.373 0.1453   -0.478964
 N 0.26413 0.3817 0.2962   -0.256629
 N 0.53733 0.4298 0.2452   -0.197766
 N 0.67737 0.1095 0.3564   -0.484419
 N 0.74117 0.0594 0.4963   -0.279137
 N 0.57687 0.9632 0.2735   -0.165925
 N 0.72027 0.8547 0.2277   -0.478955
 N 0.59747 0.7038 0.0855   -0.256659
 N 0.87067 0.7548 0.1846   -0.197687
