{'_ref': 'TBD', '_srcid': 'CAKYAQ_clean', 'submitters': [{'name': 'Dalar Nazarian Jeff Camp and David Sholl', 'email': 'dalar@gatech.edu jcamp6@gatech.edu'}], '_method': 'VASP DFT with PBE;DDEC'}
data_CuH11C17NO4
_symmetry_space_group_name_H-M   'P 1'
_cell_length_a   18.37999977
_cell_length_b   18.55554355
_cell_length_c   18.55570037
_cell_angle_alpha   109.66197080
_cell_angle_beta   109.27999980
_cell_angle_gamma   109.27914001
_symmetry_Int_Tables_number   1
_chemical_formula_structural   CuH11C17NO4
_chemical_formula_sum   'Cu12 H132 C204 N12 O48'
_cell_volume   4883.12176031
_cell_formula_units_Z   12
loop_
 _symmetry_equiv_pos_site_id
 _symmetry_equiv_pos_as_xyz
  1  'x, y, z'
loop_
 _atom_site_label
 _atom_site_fract_x
 _atom_site_fract_y
 _atom_site_fract_z
 _atom_site_charge
 Cu 0.44738 0.93529 0.5069   0.832351
 Cu 0.94048 0.4931 0.42839   0.832442
 Cu 0.51209 0.57161 0.06471   0.832419
 Cu 0.98791 0.93529 0.42839   0.832425
 Cu 0.05262 0.4931 0.06471   0.832448
 Cu 0.55952 0.57161 0.5069   0.832345
 Cu 0.55262 0.06471 0.4931   0.832358
 Cu 0.05952 0.5069 0.57161   0.832451
 Cu 0.48791 0.42839 0.93529   0.832427
 Cu 0.01209 0.06471 0.57161   0.832434
 Cu 0.94738 0.5069 0.93529   0.832457
 Cu 0.44048 0.42839 0.4931   0.832352
 H 0.266 0.8793 0.4776   0.069253
 H 0.4906 0.8307 0.5868   0.12522
 H 0.164 0.818 0.5164   0.12507
 H 0.5203 0.7611 0.6663   0.085186
 H 0.2963 0.7076 0.676   0.11072
 H 0.1959 0.7544 0.6019   0.085631
 H 0.4221 0.6986 0.709   0.08585
 H 0.49 0.2707 0.6223   0.099023
 H 0.3627 0.9865 0.2252   0.098484
 H 0.7884 0.5224 0.4017   0.069249
 H 0.9038 0.4132 0.2439   0.12527
 H 0.6476 0.4836 0.3016   0.125077
 H 0.854 0.3337 0.0948   0.085163
 H 0.6203 0.324 0.0316   0.110722
 H 0.594 0.3981 0.1525   0.085665
 H 0.7131 0.291 0.9896   0.085846
 H 0.8677 0.3777 0.6484   0.099029
 H 0.1375 0.7748 0.7613   0.098451
 H 0.3867 0.5983 0.1207   0.069248
 H 0.6599 0.7561 0.1693   0.125233
 H 0.346 0.6984 0.182   0.125057
 H 0.7592 0.9052 0.2389   0.085197
 H 0.5887 0.9684 0.2924   0.110704
 H 0.4415 0.8475 0.2456   0.085621
 H 0.7235 0.0104 0.3014   0.085849
 H 0.2193 0.3516 0.7293   0.099036
 H 0.3762 0.2387 0.0135   0.098472
 H 0.1133 0.8793 0.4017   0.069257
 H 0.8401 0.8307 0.2439   0.125259
 H 0.154 0.818 0.3016   0.125084
 H 0.7408 0.7611 0.0948   0.085193
 H 0.9113 0.7076 0.0316   0.110718
 H 0.0585 0.7544 0.1525   0.085633
 H 0.7765 0.6986 0.9896   0.085858
 H 0.2807 0.2707 0.6484   0.099014
 H 0.1238 0.9865 0.7613   0.098448
 H 0.234 0.5224 0.1207   0.069265
 H 0.0094 0.4132 0.1693   0.125251
 H 0.336 0.4836 0.182   0.125062
 H 0.9797 0.3337 0.2389   0.085178
 H 0.2037 0.324 0.2924   0.110705
 H 0.3041 0.3981 0.2456   0.085642
 H 0.0779 0.291 0.3014   0.085855
 H 0.01 0.3777 0.7293   0.099029
 H 0.1373 0.7748 0.0135   0.098479
 H 0.7116 0.5983 0.4776   0.069246
 H 0.5962 0.7561 0.5868   0.125226
 H 0.8524 0.6984 0.5164   0.125073
 H 0.646 0.9052 0.6663   0.085192
 H 0.8797 0.9684 0.676   0.110717
 H 0.906 0.8475 0.6019   0.08564
 H 0.7869 0.0104 0.709   0.085837
 H 0.6323 0.3516 0.6223   0.099027
 H 0.3625 0.2387 0.2252   0.09848
 H 0.734 0.1207 0.5224   0.069253
 H 0.5094 0.1693 0.4132   0.12522
 H 0.836 0.182 0.4836   0.12507
 H 0.4797 0.2389 0.3337   0.085186
 H 0.7037 0.2924 0.324   0.11072
 H 0.8041 0.2456 0.3981   0.085631
 H 0.5779 0.3014 0.291   0.08585
 H 0.51 0.7293 0.3777   0.099023
 H 0.6373 0.0135 0.7748   0.098483
 H 0.2116 0.4776 0.5983   0.069249
 H 0.0962 0.5868 0.7561   0.12527
 H 0.3524 0.5164 0.6984   0.125077
 H 0.146 0.6663 0.9052   0.085163
 H 0.3797 0.676 0.9684   0.110721
 H 0.406 0.6019 0.8475   0.085665
 H 0.2869 0.709 0.0104   0.085846
 H 0.1323 0.6223 0.3516   0.099029
 H 0.8625 0.2252 0.2387   0.098451
 H 0.6133 0.4017 0.8793   0.069248
 H 0.3401 0.2439 0.8307   0.125233
 H 0.654 0.3016 0.818   0.125057
 H 0.2408 0.0948 0.7611   0.085197
 H 0.4113 0.0316 0.7076   0.110703
 H 0.5585 0.1525 0.7544   0.085621
 H 0.2765 0.9896 0.6986   0.085849
 H 0.7807 0.6484 0.2707   0.099036
 H 0.6238 0.7613 0.9865   0.098472
 H 0.8867 0.1207 0.5983   0.069257
 H 0.1599 0.1693 0.7561   0.125259
 H 0.846 0.182 0.6984   0.125084
 H 0.2592 0.2389 0.9052   0.085193
 H 0.0887 0.2924 0.9684   0.110717
 H 0.9415 0.2456 0.8475   0.085633
 H 0.2235 0.3014 0.0104   0.085858
 H 0.7193 0.7293 0.3516   0.099014
 H 0.8762 0.0135 0.2387   0.098448
 H 0.766 0.4776 0.8793   0.069265
 H 0.9906 0.5868 0.8307   0.125251
 H 0.664 0.5164 0.818   0.125062
 H 0.0203 0.6663 0.7611   0.085178
 H 0.7963 0.676 0.7076   0.110704
 H 0.6959 0.6019 0.7544   0.085642
 H 0.9221 0.709 0.6986   0.085855
 H 0.99 0.6223 0.2707   0.099029
 H 0.8627 0.2252 0.9865   0.098479
 H 0.2884 0.4017 0.5224   0.069246
 H 0.4038 0.2439 0.4132   0.125226
 H 0.1476 0.3016 0.4836   0.125073
 H 0.354 0.0948 0.3337   0.085191
 H 0.1203 0.0316 0.324   0.110717
 H 0.094 0.1525 0.3981   0.08564
 H 0.2131 0.9896 0.291   0.085837
 H 0.3677 0.6484 0.3777   0.099027
 H 0.6375 0.7613 0.7748   0.09848
 H 0.2712 0.0424 0.5212   0.092068
 H 0.4229 0.3458 0.6729   0.109764
 H 0.75 0.4788 0.5212   0.092058
 H 0.75 0.3271 0.6729   0.109751
 H 0.2288 0.4788 0.9576   0.092011
 H 0.0771 0.3271 0.6542   0.109786
 H 0.7288 0.9576 0.4788   0.092068
 H 0.5771 0.6542 0.3271   0.109764
 H 0.25 0.5212 0.4788   0.092058
 H 0.25 0.6729 0.3271   0.109751
 H 0.7712 0.5212 0.0424   0.092011
 H 0.9229 0.6729 0.3458   0.109786
 H 0.25 0.76595 0.23405   0.100529
 H 0.25 0.91945 0.08055   0.116411
 H 0.01595 0.76595 0.5319   0.100533
 H 0.16945 0.91945 0.8389   0.11642
 H 0.48405 0.4681 0.23405   0.100531
 H 0.33055 0.1611 0.08055   0.116426
 H 0.75 0.23405 0.76595   0.100529
 H 0.75 0.08055 0.91945   0.116411
 H 0.98405 0.23405 0.4681   0.100533
 H 0.83055 0.08055 0.1611   0.11642
 H 0.51595 0.5319 0.76595   0.100531
 H 0.66945 0.8389 0.91945   0.116426
 C 0.3731 0.8115 0.582   0.236155
 C 0.2796 0.8524 0.5117   0.191184
 C 0.45 0.8059 0.6041   -0.173749
 C 0.313 0.7739 0.6082   -0.030493
 C 0.2178 0.8161 0.5348   -0.200794
 C 0.4674 0.7646 0.6511   -0.044735
 C 0.3352 0.7325 0.6571   -0.088841
 C 0.2364 0.7782 0.5841   0.002459
 C 0.4091 0.7275 0.6771   -0.094659
 C 0.4329 0.0978 0.5435   0.651649
 C 0.3873 0.1481 0.5691   -0.140253
 C 0.4319 0.239 0.6126   -0.030128
 C 0.3822 0.9273 0.3408   0.636325
 C 0.3143 0.884 0.2458   -0.139665
 C 0.3156 0.9279 0.198   -0.013178
 C 0.7911 0.418 0.2295   0.236183
 C 0.7679 0.4883 0.3407   0.191201
 C 0.8459 0.3959 0.2018   -0.173818
 C 0.7048 0.3918 0.1657   -0.030522
 C 0.683 0.4652 0.2813   -0.200801
 C 0.8163 0.3489 0.1135   -0.044666
 C 0.6781 0.3429 0.0754   -0.088853
 C 0.6523 0.4159 0.1941   0.002433
 C 0.732 0.3229 0.0504   -0.094647
 C 0.8894 0.4565 0.5543   0.651746
 C 0.8182 0.4309 0.579   -0.140276
 C 0.8193 0.3874 0.6264   -0.030157
 C 0.0414 0.6592 0.5865   0.636367
 C 0.0685 0.7542 0.6382   -0.139686
 C 0.1176 0.802 0.7299   -0.013108
 C 0.5616 0.7705 0.1885   0.23619
 C 0.4272 0.6593 0.1476   0.191198
 C 0.6441 0.7982 0.1941   -0.173747
 C 0.5391 0.8343 0.2261   -0.030544
 C 0.4017 0.7187 0.1839   -0.200792
 C 0.7028 0.8865 0.2354   -0.044791
 C 0.6027 0.9246 0.2675   -0.088818
 C 0.4582 0.8059 0.2218   0.00249
 C 0.6816 0.9496 0.2725   -0.094622
 C 0.3351 0.4457 0.9022   0.651705
 C 0.2392 0.421 0.8519   -0.140339
 C 0.1929 0.3736 0.761   -0.030091
 C 0.4549 0.4135 0.0727   0.636381
 C 0.4303 0.3618 0.116   -0.139662
 C 0.3877 0.2701 0.0721   -0.013153
 C 0.9384 0.8115 0.2295   0.236152
 C 0.0728 0.8524 0.3407   0.191194
 C 0.8559 0.8059 0.2018   -0.173768
 C 0.9609 0.7739 0.1657   -0.030518
 C 0.0983 0.8161 0.2813   -0.200845
 C 0.7972 0.7646 0.1135   -0.044734
 C 0.8973 0.7325 0.0754   -0.088855
 C 0.0418 0.7782 0.1941   0.002492
 C 0.8184 0.7275 0.0504   -0.094647
 C 0.1649 0.0978 0.5543   0.651712
 C 0.2608 0.1481 0.579   -0.140242
 C 0.3071 0.239 0.6264   -0.030122
 C 0.0451 0.9273 0.5865   0.636368
 C 0.0697 0.884 0.6382   -0.139698
 C 0.1123 0.9279 0.7299   -0.013118
 C 0.1269 0.418 0.1885   0.236158
 C 0.2204 0.4883 0.1476   0.191167
 C 0.05 0.3959 0.1941   -0.173753
 C 0.187 0.3918 0.2261   -0.030532
 C 0.2822 0.4652 0.1839   -0.20079
 C 0.0326 0.3489 0.2354   -0.044746
 C 0.1648 0.3429 0.2675   -0.088805
 C 0.2636 0.4159 0.2218   0.002461
 C 0.0909 0.3229 0.2725   -0.094649
 C 0.0671 0.4565 0.9022   0.651697
 C 0.1127 0.4309 0.8519   -0.140349
 C 0.0681 0.3874 0.761   -0.030094
 C 0.1178 0.6592 0.0727   0.636409
 C 0.1857 0.7542 0.116   -0.139667
 C 0.1844 0.802 0.0721   -0.013167
 C 0.7089 0.7705 0.582   0.236162
 C 0.7321 0.6593 0.5117   0.191188
 C 0.6541 0.7982 0.6041   -0.173759
 C 0.7952 0.8343 0.6082   -0.030475
 C 0.817 0.7187 0.5348   -0.200805
 C 0.6837 0.8865 0.6511   -0.044756
 C 0.8219 0.9246 0.6571   -0.088844
 C 0.8477 0.8059 0.5841   0.002443
 C 0.768 0.9496 0.6771   -0.094634
 C 0.6106 0.4457 0.5435   0.651653
 C 0.6818 0.421 0.5691   -0.140269
 C 0.6807 0.3736 0.6126   -0.030128
 C 0.4586 0.4135 0.3408   0.636337
 C 0.4315 0.3618 0.2458   -0.139674
 C 0.3824 0.2701 0.198   -0.013144
 C 0.6269 0.1885 0.418   0.236155
 C 0.7204 0.1476 0.4883   0.191184
 C 0.55 0.1941 0.3959   -0.173749
 C 0.687 0.2261 0.3918   -0.030493
 C 0.7822 0.1839 0.4652   -0.200794
 C 0.5326 0.2354 0.3489   -0.044735
 C 0.6648 0.2675 0.3429   -0.088838
 C 0.7636 0.2218 0.4159   0.002459
 C 0.5909 0.2725 0.3229   -0.094659
 C 0.5671 0.9022 0.4565   0.651649
 C 0.6127 0.8519 0.4309   -0.140253
 C 0.5681 0.761 0.3874   -0.030128
 C 0.6178 0.0727 0.6592   0.636326
 C 0.6857 0.116 0.7542   -0.139665
 C 0.6844 0.0721 0.802   -0.013178
 C 0.2089 0.582 0.7705   0.236184
 C 0.2321 0.5117 0.6593   0.191202
 C 0.1541 0.6041 0.7982   -0.173818
 C 0.2952 0.6082 0.8343   -0.030523
 C 0.317 0.5348 0.7187   -0.200801
 C 0.1837 0.6511 0.8865   -0.044666
 C 0.3219 0.6571 0.9246   -0.088849
 C 0.3477 0.5841 0.8059   0.002433
 C 0.268 0.6771 0.9496   -0.094647
 C 0.1106 0.5435 0.4457   0.651746
 C 0.1818 0.5691 0.421   -0.140276
 C 0.1807 0.6126 0.3736   -0.030156
 C 0.9586 0.3408 0.4135   0.636367
 C 0.9315 0.2458 0.3618   -0.139686
 C 0.8824 0.198 0.2701   -0.013108
 C 0.4384 0.2295 0.8115   0.236191
 C 0.5728 0.3407 0.8524   0.191198
 C 0.3559 0.2018 0.8059   -0.173747
 C 0.4609 0.1657 0.7739   -0.030545
 C 0.5983 0.2813 0.8161   -0.200792
 C 0.2972 0.1135 0.7646   -0.044791
 C 0.3973 0.0754 0.7325   -0.088814
 C 0.5418 0.1941 0.7782   0.00249
 C 0.3184 0.0504 0.7275   -0.094622
 C 0.6649 0.5543 0.0978   0.651705
 C 0.7608 0.579 0.1481   -0.14034
 C 0.8071 0.6264 0.239   -0.030091
 C 0.5451 0.5865 0.9273   0.636382
 C 0.5697 0.6382 0.884   -0.139662
 C 0.6123 0.7299 0.9279   -0.013153
 C 0.0616 0.1885 0.7705   0.236152
 C 0.9272 0.1476 0.6593   0.191195
 C 0.1441 0.1941 0.7982   -0.173768
 C 0.0391 0.2261 0.8343   -0.030519
 C 0.9017 0.1839 0.7187   -0.200845
 C 0.2028 0.2354 0.8865   -0.044734
 C 0.1027 0.2675 0.9246   -0.088851
 C 0.9582 0.2218 0.8059   0.002492
 C 0.1816 0.2725 0.9496   -0.094647
 C 0.8351 0.9022 0.4457   0.651712
 C 0.7392 0.8519 0.421   -0.140242
 C 0.6929 0.761 0.3736   -0.030122
 C 0.9549 0.0727 0.4135   0.636368
 C 0.9303 0.116 0.3618   -0.139698
 C 0.8877 0.0721 0.2701   -0.013118
 C 0.8731 0.582 0.8115   0.236159
 C 0.7796 0.5117 0.8524   0.191167
 C 0.95 0.6041 0.8059   -0.173753
 C 0.813 0.6082 0.7739   -0.030532
 C 0.7178 0.5348 0.8161   -0.20079
 C 0.9674 0.6511 0.7646   -0.044745
 C 0.8352 0.6571 0.7325   -0.088801
 C 0.7364 0.5841 0.7782   0.002462
 C 0.9091 0.6771 0.7275   -0.09465
 C 0.9329 0.5435 0.0978   0.651698
 C 0.8873 0.5691 0.1481   -0.14035
 C 0.9319 0.6126 0.239   -0.030094
 C 0.8822 0.3408 0.9273   0.636409
 C 0.8143 0.2458 0.884   -0.139667
 C 0.8156 0.198 0.9279   -0.013167
 C 0.2911 0.2295 0.418   0.236162
 C 0.2679 0.3407 0.4883   0.191189
 C 0.3459 0.2018 0.3959   -0.173759
 C 0.2048 0.1657 0.3918   -0.030476
 C 0.183 0.2813 0.4652   -0.200805
 C 0.3163 0.1135 0.3489   -0.044756
 C 0.1781 0.0754 0.3429   -0.08884
 C 0.1523 0.1941 0.4159   0.002444
 C 0.232 0.0504 0.3229   -0.094634
 C 0.3894 0.5543 0.4565   0.651654
 C 0.3182 0.579 0.4309   -0.140269
 C 0.3193 0.6264 0.3874   -0.030127
 C 0.5414 0.5865 0.6592   0.636337
 C 0.5685 0.6382 0.7542   -0.139674
 C 0.6176 0.7299 0.802   -0.013144
 C 0.3025 0.105 0.5525   -0.006963
 C 0.3916 0.2832 0.6416   -0.089611
 C 0.75 0.4475 0.5525   -0.006899
 C 0.75 0.3584 0.6416   -0.089586
 C 0.1975 0.4475 0.895   -0.006755
 C 0.1084 0.3584 0.7168   -0.089655
 C 0.6975 0.895 0.4475   -0.006962
 C 0.6084 0.7168 0.3584   -0.089611
 C 0.25 0.5525 0.4475   -0.006898
 C 0.25 0.6416 0.3584   -0.089586
 C 0.8025 0.5525 0.105   -0.006755
 C 0.8916 0.6416 0.2832   -0.089655
 C 0.25 0.79725 0.20275   -0.004222
 C 0.25 0.88815 0.11185   -0.129853
 C 0.04725 0.79725 0.5945   -0.004235
 C 0.13815 0.88815 0.7763   -0.129892
 C 0.45275 0.4055 0.20275   -0.004227
 C 0.36185 0.2237 0.11185   -0.12989
 C 0.75 0.20275 0.79725   -0.004222
 C 0.75 0.11185 0.88815   -0.129853
 C 0.95275 0.20275 0.4055   -0.004235
 C 0.86185 0.11185 0.2237   -0.129892
 C 0.54725 0.5945 0.79725   -0.004227
 C 0.63815 0.7763 0.88815   -0.12989
 N 0.3552 0.8524 0.5336   -0.37949
 N 0.8216 0.4664 0.3188   -0.379503
 N 0.5028 0.6812 0.1476   -0.379537
 N 0.9972 0.8524 0.3188   -0.379491
 N 0.1448 0.4664 0.1476   -0.379502
 N 0.6784 0.6812 0.5336   -0.379487
 N 0.6448 0.1476 0.4664   -0.379491
 N 0.1784 0.5336 0.6812   -0.379504
 N 0.4972 0.3188 0.8524   -0.379538
 N 0.0028 0.1476 0.6812   -0.379492
 N 0.8552 0.5336 0.8524   -0.379504
 N 0.3216 0.3188 0.4664   -0.379488
 O 0.4059 0.0232 0.5374   -0.568087
 O 0.365 0.8888 0.3826   -0.536017
 O 0.4521 0.9991 0.3722   -0.548755
 O 0.4964 0.1325 0.5316   -0.539784
 O 0.8685 0.4626 0.4858   -0.568163
 O 0.9824 0.6174 0.5062   -0.536069
 O 0.0799 0.6278 0.6269   -0.548777
 O 0.9648 0.4684 0.6009   -0.539863
 O 0.3827 0.5142 0.9768   -0.568156
 O 0.4762 0.4938 0.1112   -0.536079
 O 0.453 0.3731 0.000900000000001   -0.548792
 O 0.3639 0.3991 0.8675   -0.539825
 O 0.1173 0.0232 0.4858   -0.568155
 O 0.0238 0.8888 0.5062   -0.53605
 O 0.047 0.9991 0.6269   -0.548787
 O 0.1361 0.1325 0.6009   -0.539835
 O 0.0941 0.4626 0.9768   -0.568159
 O 0.135 0.6174 0.1112   -0.536112
 O 0.0479 0.6278 0.000900000000001   -0.548797
 O 0.0036 0.4684 0.8675   -0.539812
 O 0.6315 0.5142 0.5374   -0.568102
 O 0.5176 0.4938 0.3826   -0.53602
 O 0.4201 0.3731 0.3722   -0.548749
 O 0.5352 0.3991 0.5316   -0.53979
 O 0.5941 0.9768 0.4626   -0.568087
 O 0.635 0.1112 0.6174   -0.536017
 O 0.5479 0.000900000000001 0.6278   -0.548755
 O 0.5036 0.8675 0.4684   -0.539783
 O 0.1315 0.5374 0.5142   -0.568164
 O 0.0176 0.3826 0.4938   -0.536069
 O 0.9201 0.3722 0.3731   -0.548776
 O 0.0352 0.5316 0.3991   -0.539862
 O 0.6173 0.4858 0.0232   -0.568157
 O 0.5238 0.5062 0.8888   -0.53608
 O 0.547 0.6269 0.9991   -0.548791
 O 0.6361 0.6009 0.1325   -0.539824
 O 0.8827 0.9768 0.5142   -0.568156
 O 0.9762 0.1112 0.4938   -0.53605
 O 0.953 0.000900000000001 0.3731   -0.548786
 O 0.8639 0.8675 0.3991   -0.539834
 O 0.9059 0.5374 0.0232   -0.568159
 O 0.865 0.3826 0.8888   -0.536112
 O 0.9521 0.3722 0.9991   -0.548796
 O 0.9964 0.5316 0.1325   -0.539811
 O 0.3685 0.4858 0.4626   -0.568103
 O 0.4824 0.5062 0.6174   -0.536021
 O 0.5799 0.6269 0.6278   -0.548748
 O 0.4648 0.6009 0.4684   -0.539789
