{'_ref': 'TBD', '_srcid': 'CAKYAQ_clean', 'submitters': [{'name': 'Dalar Nazarian Jeff Camp and David Sholl', 'email': 'dalar@gatech.edu jcamp6@gatech.edu'}], '_method': 'VASP DFT with PBE;DDEC'}
data_CoH24C29N4(ClO4)2
_symmetry_space_group_name_H-M   'P 1'
_cell_length_a   13.06780000
_cell_length_b   13.06780000
_cell_length_c   25.91400000
_cell_angle_alpha   90.00000000
_cell_angle_beta   90.00000000
_cell_angle_gamma   90.00000000
_symmetry_Int_Tables_number   1
_chemical_formula_structural   CoH24C29N4(ClO4)2
_chemical_formula_sum   'Co4 H96 C116 N16 Cl8 O32'
_cell_volume   4425.26632171
_cell_formula_units_Z   4
loop_
 _symmetry_equiv_pos_site_id
 _symmetry_equiv_pos_as_xyz
  1  'x, y, z'
loop_
 _atom_site_label
 _atom_site_fract_x
 _atom_site_fract_y
 _atom_site_fract_z
 _atom_site_charge
 Co 0.75 0.75 0.3813   0.610092
 Co 0.25 0.25 0.8813   0.610092
 Co 0.25 0.25 0.6187   0.610092
 Co 0.75 0.75 0.1187   0.610092
 H 0.7611 0.8853 0.48   0.080006
 H 0.8697 0.925 0.5501   0.14306
 H 0.0935 0.7657 0.4762   0.136014
 H 0.9728 0.7265 0.4122   0.075576
 H 0.2944 0.8642 0.5807   0.083788
 H 0.21 0.9004 0.6186   0.06238
 H 0.3593 0.7081 0.6832   0.077899
 H 0.4007 0.7858 0.643   0.077309
 H 0.214 0.982 0.7356   0.118062
 H 0.1677 0.1192 0.7878   0.060144
 H 0.4389 0.1181 0.8541   0.068133
 H 0.4905 0.9829 0.8044   0.137378
 H 0.7389 0.6147 0.48   0.080006
 H 0.6303 0.575 0.5501   0.14306
 H 0.4065 0.7343 0.4762   0.136016
 H 0.5272 0.7735 0.4122   0.075576
 H 0.2056 0.6358 0.5807   0.083789
 H 0.29 0.5996 0.6186   0.06238
 H 0.1407 0.7919 0.6832   0.077899
 H 0.0993 0.7142 0.643   0.077309
 H 0.286 0.518 0.7356   0.118062
 H 0.3323 0.3808 0.7878   0.060144
 H 0.0611 0.3819 0.8541   0.068133
 H 0.0095 0.5171 0.8044   0.137378
 H 0.1147 0.2611 0.98   0.080006
 H 0.075 0.3697 0.0501   0.14306
 H 0.2343 0.5935 0.9762   0.136014
 H 0.2735 0.4728 0.9122   0.075576
 H 0.1358 0.7944 0.0807   0.083788
 H 0.0996 0.71 0.1186   0.06238
 H 0.2919 0.8593 0.1832   0.077899
 H 0.2142 0.9007 0.143   0.077309
 H 0.018 0.714 0.2356   0.118062
 H 0.8808 0.6677 0.2878   0.060144
 H 0.8819 0.9389 0.3541   0.068133
 H 0.0171 0.9905 0.3044   0.137378
 H 0.3853 0.2389 0.98   0.080006
 H 0.425 0.1303 0.0501   0.14306
 H 0.2657 0.9065 0.9762   0.136015
 H 0.2265 0.0272 0.9122   0.075576
 H 0.3642 0.7056 0.0807   0.083789
 H 0.4004 0.79 0.1186   0.06238
 H 0.2081 0.6407 0.1832   0.077899
 H 0.2858 0.5993 0.143   0.077309
 H 0.482 0.786 0.2356   0.118062
 H 0.6192 0.8323 0.2878   0.060144
 H 0.6181 0.5611 0.3541   0.068133
 H 0.4829 0.5095 0.3044   0.137378
 H 0.2389 0.1147 0.52   0.080006
 H 0.1303 0.075 0.4499   0.14306
 H 0.9065 0.2343 0.5238   0.136014
 H 0.0272 0.2735 0.5878   0.075576
 H 0.7056 0.1358 0.4193   0.083788
 H 0.79 0.0996 0.3814   0.06238
 H 0.6407 0.2919 0.3168   0.077899
 H 0.5993 0.2142 0.357   0.077309
 H 0.786 0.018 0.2644   0.118062
 H 0.8323 0.8808 0.2122   0.060144
 H 0.5611 0.8819 0.1459   0.068133
 H 0.5095 0.0171 0.1956   0.137378
 H 0.2611 0.3853 0.52   0.080006
 H 0.3697 0.425 0.4499   0.14306
 H 0.5935 0.2657 0.5238   0.136016
 H 0.4728 0.2265 0.5878   0.075576
 H 0.7944 0.3642 0.4193   0.083789
 H 0.71 0.4004 0.3814   0.06238
 H 0.8593 0.2081 0.3168   0.077899
 H 0.9007 0.2858 0.357   0.077309
 H 0.714 0.482 0.2644   0.118062
 H 0.6677 0.6192 0.2122   0.060145
 H 0.9389 0.6181 0.1459   0.068133
 H 0.9905 0.4829 0.1956   0.137378
 H 0.8853 0.7389 0.02   0.080006
 H 0.925 0.6303 0.9499   0.14306
 H 0.7657 0.4065 0.0238   0.136014
 H 0.7265 0.5272 0.0878   0.075576
 H 0.8642 0.2056 0.9193   0.083788
 H 0.9004 0.29 0.8814   0.06238
 H 0.7081 0.1407 0.8168   0.077899
 H 0.7858 0.0993 0.857   0.077309
 H 0.982 0.286 0.7644   0.118062
 H 0.1192 0.3323 0.7122   0.060144
 H 0.1181 0.0611 0.6459   0.068133
 H 0.9829 0.0095 0.6956   0.137378
 H 0.6147 0.7611 0.02   0.080006
 H 0.575 0.8697 0.9499   0.14306
 H 0.7343 0.0935 0.0238   0.136016
 H 0.7735 0.9728 0.0878   0.075576
 H 0.6358 0.2944 0.9193   0.083789
 H 0.5996 0.21 0.8814   0.06238
 H 0.7919 0.3593 0.8168   0.077899
 H 0.7142 0.4007 0.857   0.077309
 H 0.518 0.214 0.7644   0.118062
 H 0.3808 0.1677 0.7122   0.060145
 H 0.3819 0.4389 0.6459   0.068133
 H 0.5171 0.4905 0.6956   0.137378
 C 0.829 0.859 0.4802   0.131194
 C 0.893 0.885 0.5221   -0.150402
 C 0.994 0.847 0.5199   -0.053003
 C 0.025 0.79 0.4789   -0.147203
 C 0.952 0.768 0.4405   0.150562
 C 0.063 0.869 0.5651   0.567904
 C 0.232 0.846 0.5972   0.083949
 C 0.344 0.768 0.6638   0.086137
 C 0.39 0.885 0.7309   0.575709
 C 0.359 0.969 0.7635   -0.034939
 C 0.262 0.01 0.7595   -0.139506
 C 0.235 0.091 0.791   0.149056
 C 0.392 0.091 0.8296   0.133643
 C 0.424 0.01 0.8   -0.123673
 C 0.671 0.641 0.4802   0.131194
 C 0.607 0.615 0.5221   -0.150402
 C 0.506 0.653 0.5199   -0.053002
 C 0.475 0.71 0.4789   -0.147204
 C 0.548 0.732 0.4405   0.150562
 C 0.437 0.631 0.5651   0.567904
 C 0.268 0.654 0.5972   0.083949
 C 0.156 0.732 0.6638   0.086137
 C 0.11 0.615 0.7309   0.57571
 C 0.141 0.531 0.7635   -0.034939
 C 0.238 0.49 0.7595   -0.139505
 C 0.265 0.409 0.791   0.149056
 C 0.108 0.409 0.8296   0.133643
 C 0.076 0.49 0.8   -0.123673
 C 0.141 0.329 0.9802   0.131194
 C 0.115 0.393 0.0221   -0.150402
 C 0.153 0.494 0.0199   -0.053003
 C 0.21 0.525 0.9789   -0.147203
 C 0.232 0.452 0.9405   0.150561
 C 0.131 0.563 0.0651   0.567904
 C 0.154 0.732 0.0972   0.083949
 C 0.232 0.844 0.1638   0.086137
 C 0.115 0.89 0.2309   0.575709
 C 0.031 0.859 0.2635   -0.034939
 C 0.99 0.762 0.2595   -0.139506
 C 0.909 0.735 0.291   0.149056
 C 0.909 0.892 0.3296   0.133643
 C 0.99 0.924 0.3   -0.123673
 C 0.359 0.171 0.9802   0.131194
 C 0.385 0.107 0.0221   -0.150402
 C 0.347 0.006 0.0199   -0.053002
 C 0.29 0.975 0.9789   -0.147204
 C 0.268 0.048 0.9405   0.150562
 C 0.369 0.937 0.0651   0.567904
 C 0.346 0.768 0.0972   0.083949
 C 0.268 0.656 0.1638   0.086137
 C 0.385 0.61 0.2309   0.57571
 C 0.469 0.641 0.2635   -0.034939
 C 0.51 0.738 0.2595   -0.139505
 C 0.591 0.765 0.291   0.149056
 C 0.591 0.608 0.3296   0.133643
 C 0.51 0.576 0.3   -0.123673
 C 0.25 0.75 0.6306   -0.097932
 C 0.25 0.75 0.1306   -0.097932
 C 0.171 0.141 0.5198   0.131194
 C 0.107 0.115 0.4779   -0.150402
 C 0.006 0.153 0.4801   -0.053003
 C 0.975 0.21 0.5211   -0.147204
 C 0.048 0.232 0.5595   0.150562
 C 0.937 0.131 0.4349   0.567904
 C 0.768 0.154 0.4028   0.083949
 C 0.656 0.232 0.3362   0.086137
 C 0.61 0.115 0.2691   0.575709
 C 0.641 0.031 0.2365   -0.034939
 C 0.738 0.99 0.2405   -0.139506
 C 0.765 0.909 0.209   0.149056
 C 0.608 0.909 0.1704   0.133643
 C 0.576 0.99 0.2   -0.123673
 C 0.329 0.359 0.5198   0.131193
 C 0.393 0.385 0.4779   -0.150402
 C 0.494 0.347 0.4801   -0.053002
 C 0.525 0.29 0.5211   -0.147204
 C 0.452 0.268 0.5595   0.150562
 C 0.563 0.369 0.4349   0.567904
 C 0.732 0.346 0.4028   0.083949
 C 0.844 0.268 0.3362   0.086137
 C 0.89 0.385 0.2691   0.57571
 C 0.859 0.469 0.2365   -0.034939
 C 0.762 0.51 0.2405   -0.139505
 C 0.735 0.591 0.209   0.149056
 C 0.892 0.591 0.1704   0.133643
 C 0.924 0.51 0.2   -0.123673
 C 0.859 0.671 0.0198   0.131194
 C 0.885 0.607 0.9779   -0.150402
 C 0.847 0.506 0.9801   -0.053003
 C 0.79 0.475 0.0211   -0.147204
 C 0.768 0.548 0.0595   0.150561
 C 0.869 0.437 0.9349   0.567904
 C 0.846 0.268 0.9028   0.083949
 C 0.768 0.156 0.8362   0.086137
 C 0.885 0.11 0.7691   0.575709
 C 0.969 0.141 0.7365   -0.034939
 C 0.01 0.238 0.7405   -0.139506
 C 0.091 0.265 0.709   0.149056
 C 0.091 0.108 0.6704   0.133643
 C 0.01 0.076 0.7   -0.123673
 C 0.641 0.829 0.0198   0.131193
 C 0.615 0.893 0.9779   -0.150402
 C 0.653 0.994 0.9801   -0.053002
 C 0.71 0.025 0.0211   -0.147204
 C 0.732 0.952 0.0595   0.150562
 C 0.631 0.063 0.9349   0.567904
 C 0.654 0.232 0.9028   0.083949
 C 0.732 0.344 0.8362   0.086137
 C 0.615 0.39 0.7691   0.57571
 C 0.531 0.359 0.7365   -0.034939
 C 0.49 0.262 0.7405   -0.139505
 C 0.409 0.235 0.709   0.149056
 C 0.409 0.392 0.6704   0.133643
 C 0.49 0.424 0.7   -0.123673
 C 0.75 0.25 0.3694   -0.097932
 C 0.75 0.25 0.8694   -0.097932
 N 0.857 0.8 0.441   -0.25639
 N 0.298 0.133 0.8256   -0.277324
 N 0.643 0.7 0.441   -0.25639
 N 0.202 0.367 0.8256   -0.277324
 N 0.2 0.357 0.941   -0.25639
 N 0.867 0.798 0.3256   -0.277324
 N 0.3 0.143 0.941   -0.25639
 N 0.633 0.702 0.3256   -0.277324
 N 0.143 0.2 0.559   -0.25639
 N 0.702 0.867 0.1744   -0.277324
 N 0.357 0.3 0.559   -0.25639
 N 0.798 0.633 0.1744   -0.277324
 N 0.8 0.643 0.059   -0.25639
 N 0.133 0.202 0.6744   -0.277324
 N 0.7 0.857 0.059   -0.25639
 N 0.367 0.298 0.6744   -0.277324
 Cl 0.6722 0.9176 0.381   -0.539417
 Cl 0.8278 0.5824 0.381   -0.539417
 Cl 0.0824 0.1722 0.881   -0.539417
 Cl 0.4176 0.3278 0.881   -0.539417
 Cl 0.3278 0.0824 0.619   -0.539417
 Cl 0.1722 0.4176 0.619   -0.539417
 Cl 0.9176 0.8278 0.119   -0.539417
 Cl 0.5824 0.6722 0.119   -0.539417
 O 0.037 0.92 0.6011   -0.457083
 O 0.1541 0.8255 0.5579   -0.296057
 O 0.3171 0.8509 0.6977   -0.300049
 O 0.474 0.845 0.7323   -0.478939
 O 0.463 0.58 0.6011   -0.457083
 O 0.3459 0.6745 0.5579   -0.296057
 O 0.1829 0.6491 0.6977   -0.300049
 O 0.026 0.655 0.7323   -0.478939
 O 0.08 0.537 0.1011   -0.457083
 O 0.1745 0.6541 0.0579   -0.296057
 O 0.1491 0.8171 0.1977   -0.300049
 O 0.155 0.974 0.2323   -0.478939
 O 0.42 0.963 0.1011   -0.457083
 O 0.3255 0.8459 0.0579   -0.296057
 O 0.3509 0.6829 0.1977   -0.300049
 O 0.345 0.526 0.2323   -0.478939
 O 0.963 0.08 0.3989   -0.457083
 O 0.8459 0.1745 0.4421   -0.296057
 O 0.6829 0.1491 0.3023   -0.300049
 O 0.526 0.155 0.2677   -0.47894
 O 0.537 0.42 0.3989   -0.457083
 O 0.6541 0.3255 0.4421   -0.296057
 O 0.8171 0.3509 0.3023   -0.300049
 O 0.974 0.345 0.2677   -0.47894
 O 0.92 0.463 0.8989   -0.457083
 O 0.8255 0.3459 0.9421   -0.296057
 O 0.8509 0.1829 0.8023   -0.300049
 O 0.845 0.026 0.7677   -0.47894
 O 0.58 0.037 0.8989   -0.457083
 O 0.6745 0.1541 0.9421   -0.296057
 O 0.6491 0.3171 0.8023   -0.300049
 O 0.655 0.474 0.7677   -0.47894
