{'_ref': 'TBD', '_srcid': 'CAKYAQ_clean', 'submitters': [{'name': 'Dalar Nazarian Jeff Camp and David Sholl', 'email': 'dalar@gatech.edu jcamp6@gatech.edu'}], '_method': 'VASP DFT with PBE;DDEC'}
data_SmAgH8C18(NO2)4
_symmetry_space_group_name_H-M   'P 1'
_cell_length_a   8.59550000
_cell_length_b   17.82200000
_cell_length_c   25.36300000
_cell_angle_alpha   90.00000000
_cell_angle_beta   90.00000000
_cell_angle_gamma   90.00000000
_symmetry_Int_Tables_number   1
_chemical_formula_structural   SmAgH8C18(NO2)4
_chemical_formula_sum   'Sm8 Ag8 H64 C144 N32 O64'
_cell_volume   3885.33263236
_cell_formula_units_Z   8
loop_
 _symmetry_equiv_pos_site_id
 _symmetry_equiv_pos_as_xyz
  1  'x, y, z'
loop_
 _atom_site_label
 _atom_site_fract_x
 _atom_site_fract_y
 _atom_site_fract_z
 _atom_site_charge
 Sm 0.66304 0.71637 0.97613   2.327084
 Sm 0.16304 0.78363 0.02387   2.327084
 Sm 0.16304 0.28363 0.47613   2.327084
 Sm 0.66304 0.21637 0.52387   2.327084
 Sm 0.83696 0.71637 0.52387   2.327084
 Sm 0.33696 0.78363 0.47613   2.327084
 Sm 0.33696 0.28363 0.02387   2.327084
 Sm 0.83696 0.21637 0.97613   2.327084
 Ag 0.961 0.54946 0.27343   0.372887
 Ag 0.461 0.95054 0.72657   0.372887
 Ag 0.461 0.45054 0.77343   0.372887
 Ag 0.961 0.04946 0.22657   0.372887
 Ag 0.539 0.54946 0.22657   0.372887
 Ag 0.039 0.95054 0.77343   0.372887
 Ag 0.039 0.45054 0.72657   0.372887
 Ag 0.539 0.04946 0.27343   0.372887
 H 0.4669 0.0091 0.0458   0.122873
 H 0.747 0.174 0.1625   0.111991
 H 0.8984 0.9193 0.1396   0.11913
 H 0.3809 0.5034 0.0694   0.137314
 H 0.0555 0.4004 0.207   0.10343
 H 0.1835 0.6606 0.2028   0.134062
 H 0.571 0.1509 0.0967   0.314842
 H 0.219 0.3916 0.1325   0.305481
 H 0.9669 0.4909 0.9542   0.122873
 H 0.247 0.326 0.8375   0.111991
 H 0.3984 0.5807 0.8604   0.11913
 H 0.8809 0.9966 0.9306   0.137314
 H 0.5555 0.0996 0.793   0.10343
 H 0.6835 0.8394 0.7972   0.134062
 H 0.071 0.3491 0.9033   0.314842
 H 0.719 0.1084 0.8675   0.305481
 H 0.9669 0.9909 0.5458   0.122873
 H 0.247 0.826 0.6625   0.111991
 H 0.3984 0.0807 0.6396   0.11913
 H 0.8809 0.4966 0.5694   0.137314
 H 0.5555 0.5996 0.707   0.10343
 H 0.6835 0.3394 0.7028   0.134062
 H 0.071 0.8491 0.5967   0.314842
 H 0.719 0.6084 0.6325   0.305481
 H 0.4669 0.5091 0.4542   0.122873
 H 0.747 0.674 0.3375   0.111991
 H 0.8984 0.4193 0.3604   0.11913
 H 0.3809 0.0034 0.4306   0.137314
 H 0.0555 0.9004 0.293   0.10343
 H 0.1835 0.1606 0.2972   0.134062
 H 0.571 0.6509 0.4033   0.314842
 H 0.219 0.8916 0.3675   0.305481
 H 0.0331 0.0091 0.4542   0.122873
 H 0.753 0.174 0.3375   0.111991
 H 0.6016 0.9193 0.3604   0.11913
 H 0.1191 0.5034 0.4306   0.137314
 H 0.4445 0.4004 0.293   0.10343
 H 0.3165 0.6606 0.2972   0.134062
 H 0.929 0.1509 0.4033   0.314842
 H 0.281 0.3916 0.3675   0.305481
 H 0.5331 0.4909 0.5458   0.122873
 H 0.253 0.326 0.6625   0.111991
 H 0.1016 0.5807 0.6396   0.11913
 H 0.6191 0.9966 0.5694   0.137314
 H 0.9445 0.0996 0.707   0.10343
 H 0.8165 0.8394 0.7028   0.134062
 H 0.429 0.3491 0.5967   0.314842
 H 0.781 0.1084 0.6325   0.305481
 H 0.5331 0.9909 0.9542   0.122873
 H 0.253 0.826 0.8375   0.111991
 H 0.1016 0.0807 0.8604   0.11913
 H 0.6191 0.4966 0.9306   0.137314
 H 0.9445 0.5996 0.793   0.10343
 H 0.8165 0.3394 0.7972   0.134062
 H 0.429 0.8491 0.9033   0.314842
 H 0.781 0.6084 0.8675   0.305481
 H 0.0331 0.5091 0.0458   0.122873
 H 0.753 0.674 0.1625   0.111991
 H 0.6016 0.4193 0.1396   0.11913
 H 0.1191 0.0034 0.0694   0.137314
 H 0.4445 0.9004 0.207   0.10343
 H 0.3165 0.1606 0.2028   0.134062
 H 0.929 0.6509 0.0967   0.314842
 H 0.281 0.8916 0.1325   0.305481
 C 0.5097 0.8725 0.01842   0.76863
 C 0.6055 0.9182 0.05667   -0.070321
 C 0.5545 0.9914 0.06333   -0.149967
 C 0.6388 0.0375 0.09724   0.15675
 C 0.7326 0.1269 0.14751   0.261851
 C 0.7606 0.0094 0.12765   0.129305
 C 0.8139 0.9371 0.12039   -0.1194
 C 0.7397 0.8914 0.08409   -0.102016
 C 0.8065 0.8148 0.07474   0.769969
 C 0.4495 0.6445 0.04822   0.723639
 C 0.3639 0.6116 0.09423   -0.108158
 C 0.3394 0.5346 0.0952   -0.090861
 C 0.2499 0.5059 0.13657   0.071781
 C 0.1059 0.4409 0.19151   0.253069
 C 0.1881 0.5532 0.17549   0.132539
 C 0.2198 0.6299 0.17576   -0.196079
 C 0.3061 0.659 0.13495   -0.073479
 C 0.3405 0.7421 0.1373   0.728768
 C 0.0097 0.6275 0.98158   0.76863
 C 0.1055 0.5818 0.94333   -0.070321
 C 0.0545 0.5086 0.93667   -0.149967
 C 0.1388 0.4625 0.90276   0.15675
 C 0.2326 0.3731 0.85249   0.261851
 C 0.2606 0.4906 0.87235   0.129305
 C 0.3139 0.5629 0.87961   -0.1194
 C 0.2397 0.6086 0.91591   -0.102016
 C 0.3065 0.6852 0.92526   0.769969
 C 0.9495 0.8555 0.95178   0.723638
 C 0.8639 0.8884 0.90577   -0.108158
 C 0.8394 0.9654 0.9048   -0.090861
 C 0.7499 0.9941 0.86343   0.071781
 C 0.6059 0.0591 0.80849   0.253069
 C 0.6881 0.9468 0.82451   0.132539
 C 0.7198 0.8701 0.82424   -0.196079
 C 0.8061 0.841 0.86505   -0.073479
 C 0.8405 0.7579 0.8627   0.728768
 C 0.0097 0.1275 0.51842   0.76863
 C 0.1055 0.0818 0.55667   -0.070321
 C 0.0545 0.0086 0.56333   -0.149967
 C 0.1388 0.9625 0.59724   0.15675
 C 0.2326 0.8731 0.64751   0.261851
 C 0.2606 0.9906 0.62765   0.129305
 C 0.3139 0.0629 0.62039   -0.1194
 C 0.2397 0.1086 0.58409   -0.102016
 C 0.3065 0.1852 0.57474   0.769969
 C 0.9495 0.3555 0.54822   0.723639
 C 0.8639 0.3884 0.59423   -0.108158
 C 0.8394 0.4654 0.5952   -0.090861
 C 0.7499 0.4941 0.63657   0.071781
 C 0.6059 0.5591 0.69151   0.253069
 C 0.6881 0.4468 0.67549   0.132539
 C 0.7198 0.3701 0.67576   -0.196079
 C 0.8061 0.341 0.63495   -0.073479
 C 0.8405 0.2579 0.6373   0.728768
 C 0.5097 0.3725 0.48158   0.76863
 C 0.6055 0.4182 0.44333   -0.070321
 C 0.5545 0.4914 0.43667   -0.149967
 C 0.6388 0.5375 0.40276   0.15675
 C 0.7326 0.6269 0.35249   0.261851
 C 0.7606 0.5094 0.37235   0.129305
 C 0.8139 0.4371 0.37961   -0.1194
 C 0.7397 0.3914 0.41591   -0.102016
 C 0.8065 0.3148 0.42526   0.769969
 C 0.4495 0.1445 0.45178   0.723638
 C 0.3639 0.1116 0.40577   -0.108158
 C 0.3394 0.0346 0.4048   -0.090861
 C 0.2499 0.0059 0.36343   0.071781
 C 0.1059 0.9409 0.30849   0.253069
 C 0.1881 0.0532 0.32451   0.132539
 C 0.2198 0.1299 0.32424   -0.196079
 C 0.3061 0.159 0.36505   -0.073479
 C 0.3405 0.2421 0.3627   0.728768
 C 0.9903 0.8725 0.48158   0.76863
 C 0.8945 0.9182 0.44333   -0.070321
 C 0.9455 0.9914 0.43667   -0.149967
 C 0.8612 0.0375 0.40276   0.15675
 C 0.7674 0.1269 0.35249   0.261852
 C 0.7394 0.0094 0.37235   0.129305
 C 0.6861 0.9371 0.37961   -0.1194
 C 0.7603 0.8914 0.41591   -0.102016
 C 0.6935 0.8148 0.42526   0.769969
 C 0.0505 0.6445 0.45178   0.723639
 C 0.1361 0.6116 0.40577   -0.108158
 C 0.1606 0.5346 0.4048   -0.090861
 C 0.2501 0.5059 0.36343   0.071781
 C 0.3941 0.4409 0.30849   0.253069
 C 0.3119 0.5532 0.32451   0.132539
 C 0.2802 0.6299 0.32424   -0.196079
 C 0.1939 0.659 0.36505   -0.073479
 C 0.1595 0.7421 0.3627   0.728768
 C 0.4903 0.6275 0.51842   0.76863
 C 0.3945 0.5818 0.55667   -0.070321
 C 0.4455 0.5086 0.56333   -0.149967
 C 0.3612 0.4625 0.59724   0.15675
 C 0.2674 0.3731 0.64751   0.261852
 C 0.2394 0.4906 0.62765   0.129305
 C 0.1861 0.5629 0.62039   -0.1194
 C 0.2603 0.6086 0.58409   -0.102016
 C 0.1935 0.6852 0.57474   0.769969
 C 0.5505 0.8555 0.54822   0.723638
 C 0.6361 0.8884 0.59423   -0.108158
 C 0.6606 0.9654 0.5952   -0.090861
 C 0.7501 0.9941 0.63657   0.071781
 C 0.8941 0.0591 0.69151   0.253069
 C 0.8119 0.9468 0.67549   0.132539
 C 0.7802 0.8701 0.67576   -0.196079
 C 0.6939 0.841 0.63495   -0.073479
 C 0.6595 0.7579 0.6373   0.728768
 C 0.4903 0.1275 0.98158   0.76863
 C 0.3945 0.0818 0.94333   -0.070321
 C 0.4455 0.0086 0.93667   -0.149967
 C 0.3612 0.9625 0.90276   0.15675
 C 0.2674 0.8731 0.85249   0.261852
 C 0.2394 0.9906 0.87235   0.129305
 C 0.1861 0.0629 0.87961   -0.1194
 C 0.2603 0.1086 0.91591   -0.102016
 C 0.1935 0.1852 0.92526   0.769969
 C 0.5505 0.3555 0.95178   0.723639
 C 0.6361 0.3884 0.90577   -0.108158
 C 0.6606 0.4654 0.9048   -0.090861
 C 0.7501 0.4941 0.86343   0.071781
 C 0.8941 0.5591 0.80849   0.253069
 C 0.8119 0.4468 0.82451   0.132539
 C 0.7802 0.3701 0.82424   -0.196079
 C 0.6939 0.341 0.86505   -0.073479
 C 0.6595 0.2579 0.8627   0.728768
 C 0.9903 0.3725 0.01842   0.76863
 C 0.8945 0.4182 0.05667   -0.070321
 C 0.9455 0.4914 0.06333   -0.149967
 C 0.8612 0.5375 0.09724   0.15675
 C 0.7674 0.6269 0.14751   0.261852
 C 0.7394 0.5094 0.12765   0.129305
 C 0.6861 0.4371 0.12039   -0.1194
 C 0.7603 0.3914 0.08409   -0.102016
 C 0.6935 0.3148 0.07474   0.769969
 C 0.0505 0.1445 0.04822   0.723638
 C 0.1361 0.1116 0.09423   -0.108158
 C 0.1606 0.0346 0.0952   -0.090861
 C 0.2501 0.0059 0.13657   0.071781
 C 0.3941 0.9409 0.19151   0.253069
 C 0.3119 0.0532 0.17549   0.132539
 C 0.2802 0.1299 0.17576   -0.196079
 C 0.1939 0.159 0.13495   -0.073479
 C 0.1595 0.2421 0.1373   0.728768
 N 0.626 0.1122 0.11014   -0.266462
 N 0.8147 0.067 0.16048   -0.409951
 N 0.096 0.5102 0.20934   -0.393461
 N 0.196 0.4351 0.14865   -0.237611
 N 0.126 0.3878 0.88986   -0.266462
 N 0.3147 0.433 0.83952   -0.409951
 N 0.596 0.9898 0.79066   -0.393461
 N 0.696 0.0649 0.85135   -0.237611
 N 0.126 0.8878 0.61014   -0.266462
 N 0.3147 0.933 0.66048   -0.409951
 N 0.596 0.4898 0.70934   -0.393461
 N 0.696 0.5649 0.64865   -0.237611
 N 0.626 0.6122 0.38986   -0.266462
 N 0.8147 0.567 0.33952   -0.409951
 N 0.096 0.0102 0.29066   -0.393461
 N 0.196 0.9351 0.35135   -0.237611
 N 0.874 0.1122 0.38986   -0.266462
 N 0.6853 0.067 0.33952   -0.409951
 N 0.404 0.5102 0.29066   -0.393461
 N 0.304 0.4351 0.35135   -0.237611
 N 0.374 0.3878 0.61014   -0.266462
 N 0.1853 0.433 0.66048   -0.409951
 N 0.904 0.9898 0.70934   -0.393461
 N 0.804 0.0649 0.64865   -0.237611
 N 0.374 0.8878 0.88986   -0.266462
 N 0.1853 0.933 0.83952   -0.409951
 N 0.904 0.4898 0.79066   -0.393461
 N 0.804 0.5649 0.85135   -0.237611
 N 0.874 0.6122 0.11014   -0.266462
 N 0.6853 0.567 0.16048   -0.409951
 N 0.404 0.0102 0.20934   -0.393461
 N 0.304 0.9351 0.14865   -0.237611
 O 0.5755 0.84091 0.97954   -0.768146
 O 0.3656 0.87358 0.02526   -0.714073
 O 0.7203 0.76125 0.06137   -0.741669
 O 0.9516 0.80785 0.08167   -0.755078
 O 0.5591 0.60982 0.0271   -0.656836
 O 0.4105 0.71002 0.03169   -0.837863
 O 0.2463 0.7857 0.11296   -0.762077
 O 0.4503 0.7644 0.1637   -0.591884
 O 0.0755 0.65909 0.02046   -0.768146
 O 0.8656 0.62642 0.97474   -0.714073
 O 0.2203 0.73875 0.93863   -0.741669
 O 0.4516 0.69215 0.91833   -0.755078
 O 0.0591 0.89018 0.9729   -0.656836
 O 0.9105 0.78998 0.96831   -0.837863
 O 0.7463 0.7143 0.88704   -0.762077
 O 0.9503 0.7356 0.8363   -0.591884
 O 0.0755 0.15909 0.47954   -0.768146
 O 0.8656 0.12642 0.52526   -0.714073
 O 0.2203 0.23875 0.56137   -0.741669
 O 0.4516 0.19215 0.58167   -0.755078
 O 0.0591 0.39018 0.5271   -0.656836
 O 0.9105 0.28998 0.53169   -0.837863
 O 0.7463 0.2143 0.61296   -0.762077
 O 0.9503 0.2356 0.6637   -0.591884
 O 0.5755 0.34091 0.52046   -0.768146
 O 0.3656 0.37358 0.47474   -0.714073
 O 0.7203 0.26125 0.43863   -0.741669
 O 0.9516 0.30785 0.41833   -0.755078
 O 0.5591 0.10982 0.4729   -0.656836
 O 0.4105 0.21002 0.46831   -0.837863
 O 0.2463 0.2857 0.38704   -0.762077
 O 0.4503 0.2644 0.3363   -0.591884
 O 0.9245 0.84091 0.52046   -0.768146
 O 0.1344 0.87358 0.47474   -0.714073
 O 0.7797 0.76125 0.43863   -0.741669
 O 0.5484 0.80785 0.41833   -0.755078
 O 0.9409 0.60982 0.4729   -0.656836
 O 0.0895 0.71002 0.46831   -0.837863
 O 0.2537 0.7857 0.38704   -0.762077
 O 0.0497 0.7644 0.3363   -0.591884
 O 0.4245 0.65909 0.47954   -0.768146
 O 0.6344 0.62642 0.52526   -0.714073
 O 0.2797 0.73875 0.56137   -0.741669
 O 0.0484 0.69215 0.58167   -0.755078
 O 0.4409 0.89018 0.5271   -0.656836
 O 0.5895 0.78998 0.53169   -0.837863
 O 0.7537 0.7143 0.61296   -0.762077
 O 0.5497 0.7356 0.6637   -0.591884
 O 0.4245 0.15909 0.02046   -0.768146
 O 0.6344 0.12642 0.97474   -0.714073
 O 0.2797 0.23875 0.93863   -0.741669
 O 0.0484 0.19215 0.91833   -0.755078
 O 0.4409 0.39018 0.9729   -0.656836
 O 0.5895 0.28998 0.96831   -0.837863
 O 0.7537 0.2143 0.88704   -0.762077
 O 0.5497 0.2356 0.8363   -0.591884
 O 0.9245 0.34091 0.97954   -0.768146
 O 0.1344 0.37358 0.02526   -0.714073
 O 0.7797 0.26125 0.06137   -0.741669
 O 0.5484 0.30785 0.08167   -0.755078
 O 0.9409 0.10982 0.0271   -0.656836
 O 0.0895 0.21002 0.03169   -0.837863
 O 0.2537 0.2857 0.11296   -0.762077
 O 0.0497 0.2644 0.1637   -0.591884
