{'_ref': 'TBD', '_srcid': 'CAKYAQ_clean', 'submitters': [{'name': 'Dalar Nazarian Jeff Camp and David Sholl', 'email': 'dalar@gatech.edu jcamp6@gatech.edu'}], '_method': 'VASP DFT with PBE;DDEC'}
data_HoAgH8C18(NO2)4
_symmetry_space_group_name_H-M   'P 1'
_cell_length_a   8.48840000
_cell_length_b   17.80600000
_cell_length_c   25.37000000
_cell_angle_alpha   90.00000000
_cell_angle_beta   90.00000000
_cell_angle_gamma   90.00000000
_symmetry_Int_Tables_number   1
_chemical_formula_structural   HoAgH8C18(NO2)4
_chemical_formula_sum   'Ho8 Ag8 H64 C144 N32 O64'
_cell_volume   3834.53470665
_cell_formula_units_Z   8
loop_
 _symmetry_equiv_pos_site_id
 _symmetry_equiv_pos_as_xyz
  1  'x, y, z'
loop_
 _atom_site_label
 _atom_site_fract_x
 _atom_site_fract_y
 _atom_site_fract_z
 _atom_site_charge
 Ho 0.16574 0.78249 0.02336   2.247172
 Ho 0.66574 0.71751 0.97664   2.247177
 Ho 0.66574 0.21751 0.52336   2.247171
 Ho 0.16574 0.28249 0.47664   2.247177
 Ho 0.33426 0.78249 0.47664   2.247172
 Ho 0.83426 0.71751 0.52336   2.247178
 Ho 0.83426 0.21751 0.97664   2.247172
 Ho 0.33426 0.28249 0.02336   2.247177
 Ag 0.46163 0.95174 0.72731   0.424272
 Ag 0.96163 0.54826 0.27269   0.424272
 Ag 0.96163 0.04826 0.22731   0.424274
 Ag 0.46163 0.45174 0.77269   0.424274
 Ag 0.03837 0.95174 0.77269   0.424781
 Ag 0.53837 0.54826 0.22731   0.424781
 Ag 0.53837 0.04826 0.27269   0.424783
 Ag 0.03837 0.45174 0.72731   0.424783
 H 0.0598 0.3577 0.9037   0.313571
 H 0.7208 0.1059 0.8693   0.305736
 H 0.9647 0.4926 0.9549   0.11608
 H 0.2469 0.3272 0.8379   0.106542
 H 0.4011 0.5824 0.8607   0.118115
 H 0.8828 0.9967 0.9329   0.143936
 H 0.5565 0.1004 0.7949   0.117822
 H 0.6879 0.8405 0.7981   0.141724
 H 0.5598 0.1423 0.0963   0.313571
 H 0.2208 0.3941 0.1307   0.305737
 H 0.4647 0.0074 0.0451   0.11608
 H 0.7469 0.1728 0.1621   0.106542
 H 0.9011 0.9176 0.1393   0.118115
 H 0.3828 0.5033 0.0671   0.143935
 H 0.0565 0.3996 0.2051   0.117822
 H 0.1879 0.6595 0.2019   0.141724
 H 0.5598 0.6423 0.4037   0.313572
 H 0.2208 0.8941 0.3693   0.30574
 H 0.4647 0.5074 0.4549   0.11608
 H 0.7469 0.6728 0.3379   0.106542
 H 0.9011 0.4176 0.3607   0.117979
 H 0.3828 0.0033 0.4329   0.143936
 H 0.0565 0.8996 0.2949   0.117642
 H 0.1879 0.1595 0.2981   0.141674
 H 0.0598 0.8577 0.5963   0.313572
 H 0.7208 0.6059 0.6307   0.30574
 H 0.9647 0.9926 0.5451   0.11608
 H 0.2469 0.8272 0.6621   0.106542
 H 0.4011 0.0824 0.6393   0.117979
 H 0.8828 0.4967 0.5671   0.143936
 H 0.5565 0.6004 0.7051   0.117642
 H 0.6879 0.3405 0.7019   0.141674
 H 0.4402 0.3577 0.5963   0.313574
 H 0.7792 0.1059 0.6307   0.305676
 H 0.5353 0.4926 0.5451   0.116074
 H 0.2531 0.3272 0.6621   0.106462
 H 0.0989 0.5824 0.6393   0.118026
 H 0.6172 0.9967 0.5671   0.143926
 H 0.9435 0.1004 0.7051   0.117781
 H 0.8121 0.8405 0.7019   0.141489
 H 0.9402 0.1423 0.4037   0.313574
 H 0.2792 0.3941 0.3693   0.305676
 H 0.0353 0.0074 0.4549   0.116074
 H 0.7531 0.1728 0.3379   0.106462
 H 0.5989 0.9176 0.3607   0.118026
 H 0.1172 0.5033 0.4329   0.143926
 H 0.4435 0.3996 0.2949   0.117781
 H 0.3121 0.6595 0.2981   0.141489
 H 0.9402 0.6423 0.0963   0.313574
 H 0.2792 0.8941 0.1307   0.305679
 H 0.0353 0.5074 0.0451   0.116075
 H 0.7531 0.6728 0.1621   0.106462
 H 0.5989 0.4176 0.1393   0.117891
 H 0.1172 0.0033 0.0671   0.143927
 H 0.4435 0.8996 0.2051   0.117604
 H 0.3121 0.1595 0.2019   0.14144
 H 0.4402 0.8577 0.9037   0.313574
 H 0.7792 0.6059 0.8693   0.305679
 H 0.5353 0.9926 0.9549   0.116075
 H 0.2531 0.8272 0.8379   0.106462
 H 0.0989 0.0824 0.8607   0.117891
 H 0.6172 0.4967 0.9329   0.143926
 H 0.9435 0.6004 0.7949   0.117604
 H 0.8121 0.3405 0.7981   0.14144
 C 0.0102 0.6293 0.98272   0.766066
 C 0.1054 0.5832 0.94435   -0.08091
 C 0.0535 0.5103 0.93741   -0.163128
 C 0.1383 0.4642 0.90334   0.137599
 C 0.2323 0.3744 0.85281   0.249747
 C 0.2607 0.4921 0.8725   0.127471
 C 0.3157 0.5645 0.87999   -0.152548
 C 0.2411 0.61 0.9169   -0.105168
 C 0.3108 0.6859 0.92663   0.74657
 C 0.952 0.854 0.95335   0.701594
 C 0.866 0.8879 0.9077   -0.099362
 C 0.8417 0.9656 0.90684   -0.092697
 C 0.7531 0.9943 0.86514   0.07364
 C 0.6083 0.0598 0.81011   0.250358
 C 0.6914 0.9476 0.82586   0.129458
 C 0.7234 0.8709 0.82545   -0.215422
 C 0.809 0.8409 0.8667   -0.068518
 C 0.8427 0.7578 0.86473   0.72485
 C 0.5102 0.8707 0.01728   0.766064
 C 0.6054 0.9168 0.05565   -0.080907
 C 0.5535 0.9897 0.06259   -0.163128
 C 0.6383 0.0358 0.09666   0.137599
 C 0.7323 0.1256 0.14719   0.249747
 C 0.7607 0.0079 0.1275   0.127471
 C 0.8157 0.9355 0.12001   -0.152551
 C 0.7411 0.89 0.0831   -0.105147
 C 0.8108 0.8141 0.07337   0.746598
 C 0.452 0.646 0.04665   0.701652
 C 0.366 0.6121 0.0923   -0.099371
 C 0.3417 0.5344 0.09316   -0.092695
 C 0.2531 0.5057 0.13486   0.07364
 C 0.1083 0.4402 0.18989   0.250358
 C 0.1914 0.5524 0.17414   0.129458
 C 0.2234 0.6291 0.17455   -0.215423
 C 0.309 0.6591 0.1333   -0.068515
 C 0.3427 0.7422 0.13527   0.724849
 C 0.5102 0.3707 0.48272   0.766065
 C 0.6054 0.4168 0.44435   -0.080906
 C 0.5535 0.4897 0.43741   -0.16313
 C 0.6383 0.5358 0.40334   0.137601
 C 0.7323 0.6256 0.35281   0.249746
 C 0.7607 0.5079 0.3725   0.127456
 C 0.8157 0.4355 0.37999   -0.152496
 C 0.7411 0.39 0.4169   -0.105187
 C 0.8108 0.3141 0.42663   0.746573
 C 0.452 0.146 0.45335   0.701594
 C 0.366 0.1121 0.4077   -0.099361
 C 0.3417 0.0344 0.40684   -0.092698
 C 0.2531 0.0057 0.36514   0.073642
 C 0.1083 0.9402 0.31011   0.250416
 C 0.1914 0.0524 0.32586   0.129453
 C 0.2234 0.1291 0.32545   -0.215401
 C 0.309 0.1591 0.3667   -0.068525
 C 0.3427 0.2422 0.36473   0.724852
 C 0.0102 0.1293 0.51728   0.766064
 C 0.1054 0.0832 0.55565   -0.080903
 C 0.0535 0.0103 0.56259   -0.163131
 C 0.1383 0.9642 0.59666   0.137601
 C 0.2323 0.8744 0.64719   0.249746
 C 0.2607 0.9921 0.6275   0.127456
 C 0.3157 0.0645 0.62001   -0.152499
 C 0.2411 0.11 0.5831   -0.105166
 C 0.3108 0.1859 0.57337   0.746601
 C 0.952 0.354 0.54665   0.701652
 C 0.866 0.3879 0.5923   -0.09937
 C 0.8417 0.4656 0.59316   -0.092696
 C 0.7531 0.4943 0.63486   0.073642
 C 0.6083 0.5598 0.68989   0.250416
 C 0.6914 0.4476 0.67414   0.129454
 C 0.7234 0.3709 0.67455   -0.215402
 C 0.809 0.3409 0.6333   -0.068522
 C 0.8427 0.2578 0.63527   0.724851
 C 0.4898 0.6293 0.51728   0.766069
 C 0.3946 0.5832 0.55565   -0.080915
 C 0.4465 0.5103 0.56259   -0.163093
 C 0.3617 0.4642 0.59666   0.137589
 C 0.2677 0.3744 0.64719   0.249817
 C 0.2393 0.4921 0.6275   0.127502
 C 0.1843 0.5645 0.62001   -0.152487
 C 0.2589 0.61 0.5831   -0.105184
 C 0.1892 0.6859 0.57337   0.746572
 C 0.548 0.854 0.54665   0.701622
 C 0.634 0.8879 0.5923   -0.09935
 C 0.6583 0.9656 0.59316   -0.092641
 C 0.7469 0.9943 0.63486   0.073653
 C 0.8917 0.0598 0.68989   0.250269
 C 0.8086 0.9476 0.67414   0.129441
 C 0.7766 0.8709 0.67455   -0.215344
 C 0.691 0.8409 0.6333   -0.068538
 C 0.6573 0.7578 0.63527   0.724826
 C 0.9898 0.8707 0.48272   0.766068
 C 0.8946 0.9168 0.44435   -0.080912
 C 0.9465 0.9897 0.43741   -0.163094
 C 0.8617 0.0358 0.40334   0.137588
 C 0.7677 0.1256 0.35281   0.249817
 C 0.7393 0.0079 0.3725   0.127503
 C 0.6843 0.9355 0.37999   -0.152491
 C 0.7589 0.89 0.4169   -0.105163
 C 0.6892 0.8141 0.42663   0.7466
 C 0.048 0.646 0.45335   0.70168
 C 0.134 0.6121 0.4077   -0.099359
 C 0.1583 0.5344 0.40684   -0.092639
 C 0.2469 0.5057 0.36514   0.073653
 C 0.3917 0.4402 0.31011   0.250269
 C 0.3086 0.5524 0.32586   0.129442
 C 0.2766 0.6291 0.32545   -0.215345
 C 0.191 0.6591 0.3667   -0.068535
 C 0.1573 0.7422 0.36473   0.724825
 C 0.9898 0.3707 0.01728   0.766068
 C 0.8946 0.4168 0.05565   -0.080911
 C 0.9465 0.4897 0.06259   -0.163096
 C 0.8617 0.5358 0.09666   0.137591
 C 0.7677 0.6256 0.14719   0.249816
 C 0.7393 0.5079 0.1275   0.127487
 C 0.6843 0.4355 0.12001   -0.152436
 C 0.7589 0.39 0.0831   -0.105203
 C 0.6892 0.3141 0.07337   0.746576
 C 0.048 0.146 0.04665   0.701622
 C 0.134 0.1121 0.0923   -0.099348
 C 0.1583 0.0344 0.09316   -0.092642
 C 0.2469 0.0057 0.13486   0.073655
 C 0.3917 0.9402 0.18989   0.250327
 C 0.3086 0.0524 0.17414   0.129437
 C 0.2766 0.1291 0.17455   -0.215324
 C 0.191 0.1591 0.1333   -0.068545
 C 0.1573 0.2422 0.13527   0.724828
 C 0.4898 0.1293 0.98272   0.766067
 C 0.3946 0.0832 0.94435   -0.080908
 C 0.4465 0.0103 0.93741   -0.163097
 C 0.3617 0.9642 0.90334   0.13759
 C 0.2677 0.8744 0.85281   0.249816
 C 0.2393 0.9921 0.8725   0.127488
 C 0.1843 0.0645 0.87999   -0.15244
 C 0.2589 0.11 0.9169   -0.105182
 C 0.1892 0.1859 0.92663   0.746604
 C 0.548 0.354 0.95335   0.70168
 C 0.634 0.3879 0.9077   -0.099357
 C 0.6583 0.4656 0.90684   -0.09264
 C 0.7469 0.4943 0.86514   0.073655
 C 0.8917 0.5598 0.81011   0.250327
 C 0.8086 0.4476 0.82586   0.129437
 C 0.7766 0.3709 0.82545   -0.215324
 C 0.691 0.3409 0.8667   -0.068542
 C 0.6573 0.2578 0.86473   0.724828
 N 0.1251 0.38929 0.89028   -0.254845
 N 0.3146 0.43452 0.83955   -0.428891
 N 0.5995 0.99055 0.79178   -0.395273
 N 0.6992 0.06521 0.85255   -0.217979
 N 0.6251 0.11071 0.10972   -0.254845
 N 0.8146 0.06548 0.16045   -0.428891
 N 0.0995 0.50945 0.20822   -0.395274
 N 0.1992 0.43479 0.14745   -0.217979
 N 0.6251 0.61071 0.39028   -0.254845
 N 0.8146 0.56548 0.33955   -0.428888
 N 0.0995 0.00945 0.29178   -0.395289
 N 0.1992 0.93479 0.35255   -0.217999
 N 0.1251 0.88929 0.60972   -0.254845
 N 0.3146 0.93452 0.66045   -0.428888
 N 0.5995 0.49055 0.70822   -0.395289
 N 0.6992 0.56521 0.64745   -0.217999
 N 0.3749 0.38929 0.60972   -0.254853
 N 0.1854 0.43452 0.66045   -0.428947
 N 0.9005 0.99055 0.70822   -0.395359
 N 0.8008 0.06521 0.64745   -0.217944
 N 0.8749 0.11071 0.39028   -0.254853
 N 0.6854 0.06548 0.33955   -0.428947
 N 0.4005 0.50945 0.29178   -0.395359
 N 0.3008 0.43479 0.35255   -0.217944
 N 0.8749 0.61071 0.10972   -0.254853
 N 0.6854 0.56548 0.16045   -0.428944
 N 0.4005 0.00945 0.20822   -0.395374
 N 0.3008 0.93479 0.14745   -0.217964
 N 0.3749 0.88929 0.89028   -0.254853
 N 0.1854 0.93452 0.83955   -0.428944
 N 0.9005 0.49055 0.79178   -0.395374
 N 0.8008 0.56521 0.85255   -0.217964
 O 0.0779 0.66116 0.02106   -0.758943
 O 0.8639 0.62882 0.97599   -0.701808
 O 0.2244 0.74011 0.94015   -0.7262
 O 0.4578 0.69172 0.92025   -0.733904
 O 0.0646 0.88761 0.97478   -0.645093
 O 0.9119 0.78855 0.96901   -0.817626
 O 0.7478 0.7146 0.88979   -0.72399
 O 0.9497 0.73435 0.83663   -0.559966
 O 0.5779 0.83884 0.97894   -0.758943
 O 0.3639 0.87118 0.02401   -0.701798
 O 0.7244 0.75989 0.05985   -0.726203
 O 0.9578 0.80828 0.07975   -0.733905
 O 0.5646 0.61239 0.02522   -0.645089
 O 0.4119 0.71145 0.03099   -0.817629
 O 0.2478 0.7854 0.11021   -0.72399
 O 0.4497 0.76565 0.16337   -0.559966
 O 0.5779 0.33884 0.52106   -0.758943
 O 0.3639 0.37118 0.47599   -0.701808
 O 0.7244 0.25989 0.44015   -0.7262
 O 0.9578 0.30828 0.42025   -0.733903
 O 0.5646 0.11239 0.47478   -0.645093
 O 0.4119 0.21145 0.46901   -0.817626
 O 0.2478 0.2854 0.38979   -0.72399
 O 0.4497 0.26565 0.33663   -0.559969
 O 0.0779 0.16116 0.47894   -0.758943
 O 0.8639 0.12882 0.52401   -0.701798
 O 0.2244 0.24011 0.55985   -0.726203
 O 0.4578 0.19172 0.57975   -0.733904
 O 0.0646 0.38761 0.52522   -0.645089
 O 0.9119 0.28855 0.53099   -0.817629
 O 0.7478 0.2146 0.61021   -0.72399
 O 0.9497 0.23435 0.66337   -0.559969
 O 0.4221 0.66116 0.47894   -0.758944
 O 0.6361 0.62882 0.52401   -0.701808
 O 0.2756 0.74011 0.55985   -0.7262
 O 0.0422 0.69172 0.57975   -0.733903
 O 0.4354 0.88761 0.52522   -0.645097
 O 0.5881 0.78855 0.53099   -0.817628
 O 0.7522 0.7146 0.61021   -0.723992
 O 0.5503 0.73435 0.66337   -0.559964
 O 0.9221 0.83884 0.52106   -0.758944
 O 0.1361 0.87118 0.47599   -0.701798
 O 0.7756 0.75989 0.44015   -0.726202
 O 0.5422 0.80828 0.42025   -0.733903
 O 0.9354 0.61239 0.47478   -0.645092
 O 0.0881 0.71145 0.46901   -0.817631
 O 0.2522 0.7854 0.38979   -0.723992
 O 0.0503 0.76565 0.33663   -0.559964
 O 0.9221 0.33884 0.97894   -0.758944
 O 0.1361 0.37118 0.02401   -0.701808
 O 0.7756 0.25989 0.05985   -0.7262
 O 0.5422 0.30828 0.07975   -0.733901
 O 0.9354 0.11239 0.02522   -0.645096
 O 0.0881 0.21145 0.03099   -0.817628
 O 0.2522 0.2854 0.11021   -0.723992
 O 0.0503 0.26565 0.16337   -0.559967
 O 0.4221 0.16116 0.02106   -0.758944
 O 0.6361 0.12882 0.97599   -0.701798
 O 0.2756 0.24011 0.94015   -0.726202
 O 0.0422 0.19172 0.92025   -0.733902
 O 0.4354 0.38761 0.97478   -0.645092
 O 0.5881 0.28855 0.96901   -0.817631
 O 0.7522 0.2146 0.88979   -0.723992
 O 0.5503 0.23435 0.83663   -0.559967
