{'_ref': 'TBD', '_srcid': 'CAKYAQ_clean', 'submitters': [{'name': 'Dalar Nazarian Jeff Camp and David Sholl', 'email': 'dalar@gatech.edu jcamp6@gatech.edu'}], '_method': 'VASP DFT with PBE;DDEC'}
data_Mn5H24C48(N16O)2
_symmetry_space_group_name_H-M   'P 1'
_cell_length_a   15.90399977
_cell_length_b   20.04250021
_cell_length_c   21.50430000
_cell_angle_alpha   80.11459935
_cell_angle_beta   68.29760122
_cell_angle_gamma   66.62440057
_symmetry_Int_Tables_number   1
_chemical_formula_structural   Mn5H24C48(N16O)2
_chemical_formula_sum   'Mn10 H48 C96 N64 O4'
_cell_volume   5843.51917484
_cell_formula_units_Z   2
loop_
 _symmetry_equiv_pos_site_id
 _symmetry_equiv_pos_as_xyz
  1  'x, y, z'
loop_
 _atom_site_label
 _atom_site_fract_x
 _atom_site_fract_y
 _atom_site_fract_z
 _atom_site_charge
 Mn 0.85038 0.15365 0.87215   1.053524
 Mn 0.88823 0.30992 0.9129   0.919796
 Mn 0.87618 0.34635 0.62785   1.053595
 Mn 0.11105 0.19008 0.5871   0.919183
 Mn 0.14962 0.84635 0.12785   1.053524
 Mn 0.11177 0.69008 0.0871   0.919796
 Mn 0.12382 0.65365 0.37215   1.053595
 Mn 0.88895 0.80992 0.4129   0.919183
 Mn 0.000700000000002 0.25 0.75   0.819751
 Mn 0.9993 0.75 0.25   0.819751
 H 0.0159 0.3738 0.9632   0.105102
 H 0.0342 0.5432 0.8326   0.109281
 H 0.986 0.3876 0.0838   0.105606
 H 0.0253 0.1094 0.5356   0.080534
 H 0.9124 0.9735 0.6715   0.108869
 H 0.9249 0.9099 0.5865   0.102064
 H 0.5775 0.1455 0.1267   0.118861
 H 0.611 0.3202 0.171   0.114276
 H 0.5081 0.3788 0.2818   0.114842
 H 0.3912 0.3808 0.3856   0.115966
 H 0.3637 0.2022 0.3426   0.121424
 H 0.4642 0.1453 0.2313   0.122734
 H 0.3529 0.1262 0.5368   0.105961
 H 0.41 0.9568 0.6674   0.109534
 H 0.4574 0.1124 0.4162   0.104558
 H 0.6703 0.3906 0.9644   0.080054
 H 0.5574 0.5265 0.8285   0.108747
 H 0.4213 0.5901 0.9135   0.102459
 H 0.8497 0.3545 0.3733   0.118779
 H 0.1022 0.1798 0.329   0.114205
 H 0.1687 0.1212 0.2182   0.115081
 H 0.1576 0.1192 0.1144   0.116571
 H 0.9085 0.2978 0.1574   0.121917
 H 0.8408 0.3547 0.2687   0.12179
 H 0.9841 0.6262 0.0368   0.105102
 H 0.9658 0.4568 0.1674   0.10928
 H 0.014 0.6124 0.9162   0.105605
 H 0.9747 0.8906 0.4644   0.080534
 H 0.0876 0.0265 0.3285   0.108869
 H 0.0751 0.0901 0.4135   0.102064
 H 0.4225 0.8545 0.8733   0.11886
 H 0.389 0.6798 0.829   0.114276
 H 0.4919 0.6212 0.7182   0.114842
 H 0.6088 0.6192 0.6144   0.115965
 H 0.6363 0.7978 0.6574   0.121424
 H 0.5358 0.8547 0.7687   0.122734
 H 0.6471 0.8738 0.4632   0.105961
 H 0.59 0.0432 0.3326   0.109533
 H 0.5426 0.8876 0.5838   0.104557
 H 0.3297 0.6094 0.0356   0.080054
 H 0.4426 0.4735 0.1715   0.108747
 H 0.5787 0.4099 0.0865   0.10246
 H 0.1503 0.6455 0.6267   0.118778
 H 0.8978 0.8202 0.671   0.114206
 H 0.8313 0.8788 0.7818   0.115081
 H 0.8424 0.8808 0.8856   0.11657
 H 0.0915 0.7022 0.8426   0.121917
 H 0.1592 0.6453 0.7313   0.12179
 C 0.03828 0.4098 0.83544   0.349425
 C 0.00126 0.46377 0.00651   0.045346
 C 0.01425 0.42244 0.95426   -0.118589
 C 0.02451 0.45255 0.89043   -0.02853
 C 0.02509 0.52347 0.87695   -0.093202
 C 0.98711 0.43534 0.07344   -0.100973
 C 0.96059 0.08756 0.66578   0.380325
 C 0.00618 0.06854 0.54544   -0.101814
 C 0.97024 0.04703 0.61081   -0.058729
 C 0.93873 0.9874 0.62614   -0.076352
 C 0.94607 0.94989 0.57577   -0.099484
 C 0.01501 0.03005 0.49257   0.053253
 C 0.6804 0.23091 0.07269   0.372987
 C 0.56099 0.18073 0.15789   -0.086692
 C 0.60748 0.23285 0.13939   -0.043425
 C 0.58104 0.28505 0.18347   -0.117341
 C 0.50952 0.28773 0.24763   0.039106
 C 0.47973 0.34267 0.29387   -0.127116
 C 0.41058 0.34384 0.3554   -0.097799
 C 0.36764 0.29017 0.37455   0.00432
 C 0.394 0.23709 0.33031   -0.132097
 C 0.46638 0.23462 0.26662   0.048897
 C 0.4935 0.18087 0.21953   -0.118237
 C 0.29412 0.29019 0.44117   0.352239
 C 0.28352 0.0902 0.66456   0.351344
 C 0.47154 0.03623 0.49349   0.046314
 C 0.39095 0.07756 0.54574   -0.121348
 C 0.36749 0.04745 0.60957   -0.028189
 C 0.42551 0.97653 0.62305   -0.095067
 C 0.49589 0.06466 0.42656   -0.098077
 C 0.71393 0.41244 0.83422   0.379628
 C 0.62016 0.43146 0.95456   -0.100416
 C 0.62808 0.45297 0.88919   -0.059082
 C 0.55227 0.5126 0.87386   -0.07702
 C 0.47173 0.55011 0.92423   -0.098863
 C 0.53763 0.46995 0.00743   0.052266
 C 0.984 0.26909 0.42731   0.37003
 C 0.89961 0.31927 0.34211   -0.087762
 C 0.97972 0.26715 0.36061   -0.040532
 C 0.04956 0.21495 0.31653   -0.118274
 C 0.04488 0.21227 0.25237   0.041686
 C 0.11627 0.15733 0.20613   -0.128877
 C 0.10982 0.15616 0.1446   -0.097419
 C 0.03236 0.20983 0.12545   0.004223
 C 0.9614 0.26291 0.16969   -0.132153
 C 0.96762 0.26538 0.23338   0.047028
 C 0.8939 0.31913 0.28047   -0.116979
 C 0.02548 0.20981 0.05883   0.352228
 C 0.96172 0.5902 0.16456   0.349426
 C 0.99874 0.53623 0.99349   0.045344
 C 0.98575 0.57756 0.04574   -0.118589
 C 0.97549 0.54745 0.10957   -0.028531
 C 0.97491 0.47653 0.12305   -0.093196
 C 0.01289 0.56466 0.92656   -0.100967
 C 0.03941 0.91244 0.33422   0.380325
 C 0.99382 0.93146 0.45456   -0.101814
 C 0.02976 0.95297 0.38919   -0.058729
 C 0.06127 0.0126 0.37386   -0.076352
 C 0.05393 0.05011 0.42423   -0.099484
 C 0.98499 0.96995 0.50743   0.053252
 C 0.3196 0.76909 0.92731   0.372987
 C 0.43901 0.81927 0.84211   -0.086692
 C 0.39252 0.76715 0.86061   -0.043426
 C 0.41896 0.71495 0.81653   -0.117342
 C 0.49048 0.71227 0.75237   0.039106
 C 0.52027 0.65733 0.70613   -0.127116
 C 0.58942 0.65616 0.6446   -0.097798
 C 0.63236 0.70983 0.62545   0.00432
 C 0.606 0.76291 0.66969   -0.132097
 C 0.53362 0.76538 0.73338   0.048897
 C 0.5065 0.81913 0.78047   -0.118237
 C 0.70588 0.70981 0.55883   0.352239
 C 0.71648 0.9098 0.33544   0.351344
 C 0.52846 0.96377 0.50651   0.046312
 C 0.60905 0.92244 0.45426   -0.121348
 C 0.63251 0.95255 0.39043   -0.028191
 C 0.57449 0.02347 0.37695   -0.095062
 C 0.50411 0.93534 0.57344   -0.098072
 C 0.28607 0.58756 0.16578   0.379628
 C 0.37984 0.56854 0.04544   -0.100416
 C 0.37192 0.54703 0.11081   -0.059083
 C 0.44773 0.4874 0.12614   -0.07702
 C 0.52827 0.44989 0.07577   -0.098864
 C 0.46237 0.53005 0.99257   0.052265
 C 0.016 0.73091 0.57269   0.37003
 C 0.10039 0.68073 0.65789   -0.087762
 C 0.02028 0.73285 0.63939   -0.040533
 C 0.95044 0.78505 0.68347   -0.118274
 C 0.95512 0.78773 0.74763   0.041686
 C 0.88373 0.84267 0.79387   -0.128877
 C 0.89018 0.84384 0.8554   -0.097419
 C 0.96764 0.79017 0.87455   0.004223
 C 0.0386 0.73709 0.83031   -0.132153
 C 0.03238 0.73462 0.76662   0.047028
 C 0.1061 0.68087 0.71953   -0.11698
 C 0.97452 0.79019 0.94117   0.352228
 N 0.00505 0.35641 0.84205   -0.352804
 N 0.03881 0.33294 0.7787   -0.00673
 N 0.08952 0.37106 0.73714   -0.065863
 N 0.09065 0.4199 0.7716   -0.300997
 N 0.99821 0.13887 0.65861   -0.319844
 N 0.96668 0.16298 0.72076   0.010383
 N 0.91339 0.12733 0.76281   -0.135853
 N 0.90846 0.07905 0.72941   -0.304766
 N 0.71368 0.17907 0.02817   -0.327853
 N 0.77736 0.19897 0.97525   -0.139646
 N 0.78091 0.25929 0.98765   -0.034419
 N 0.72115 0.28083 0.04913   -0.304229
 N 0.26901 0.2335 0.46594   -0.391418
 N 0.20221 0.25531 0.52591   -0.033697
 N 0.18567 0.32277 0.53555   -0.077499
 N 0.24616 0.3458 0.48268   -0.349325
 N 0.20351 0.14359 0.65795   -0.353889
 N 0.15045 0.16706 0.7213   -0.006912
 N 0.19772 0.12894 0.76286   -0.065871
 N 0.28215 0.0801 0.7284   -0.301333
 N 0.79569 0.36113 0.84139   -0.320959
 N 0.85042 0.33702 0.77924   0.012062
 N 0.80353 0.37267 0.73719   -0.139088
 N 0.71692 0.42095 0.77059   -0.302003
 N 0.92092 0.32093 0.47183   -0.327703
 N 0.95158 0.30103 0.52475   -0.137491
 N 0.02785 0.24071 0.51235   -0.036387
 N 0.05111 0.21917 0.45087   -0.30299
 N 0.96845 0.2665 0.03406   -0.390375
 N 0.98343 0.24469 0.97409   -0.035289
 N 0.04399 0.17723 0.96445   -0.078948
 N 0.07464 0.1542 0.01732   -0.347784
 N 0.99495 0.64359 0.15795   -0.352804
 N 0.96119 0.66706 0.2213   -0.00673
 N 0.91048 0.62894 0.26286   -0.065863
 N 0.90935 0.5801 0.2284   -0.300997
 N 0.00179 0.86113 0.34139   -0.319844
 N 0.03332 0.83702 0.27924   0.010383
 N 0.08661 0.87267 0.23719   -0.135853
 N 0.09154 0.92095 0.27059   -0.304766
 N 0.28632 0.82093 0.97183   -0.327853
 N 0.22264 0.80103 0.02475   -0.139646
 N 0.21909 0.74071 0.01235   -0.034419
 N 0.27885 0.71917 0.95087   -0.304229
 N 0.73099 0.7665 0.53406   -0.391418
 N 0.79779 0.74469 0.47409   -0.033697
 N 0.81433 0.67723 0.46445   -0.077499
 N 0.75384 0.6542 0.51732   -0.349325
 N 0.79649 0.85641 0.34205   -0.353889
 N 0.84955 0.83294 0.2787   -0.006913
 N 0.80228 0.87106 0.23714   -0.065871
 N 0.71785 0.9199 0.2716   -0.301333
 N 0.20431 0.63887 0.15861   -0.320959
 N 0.14958 0.66298 0.22076   0.012062
 N 0.19647 0.62733 0.26281   -0.139088
 N 0.28308 0.57905 0.22941   -0.302003
 N 0.07908 0.67907 0.52817   -0.327703
 N 0.04842 0.69897 0.47525   -0.137491
 N 0.97215 0.75929 0.48765   -0.036387
 N 0.94889 0.78083 0.54913   -0.30299
 N 0.03155 0.7335 0.96594   -0.390375
 N 0.01657 0.75531 0.02591   -0.035289
 N 0.95601 0.82277 0.03555   -0.078948
 N 0.92536 0.8458 0.98268   -0.347784
 O 0.94621 0.2155 0.85272   -0.812933
 O 0.01443 0.2845 0.64728   -0.812822
 O 0.05379 0.7845 0.14728   -0.812933
 O 0.98557 0.7155 0.35272   -0.812822
