{'_ref': 'TBD', '_srcid': 'CAKYAQ_clean', 'submitters': [{'name': 'Dalar Nazarian Jeff Camp and David Sholl', 'email': 'dalar@gatech.edu jcamp6@gatech.edu'}], '_method': 'VASP DFT with PBE;DDEC'}
data_Ga5(P2O9)2
_symmetry_space_group_name_H-M   'P 1'
_cell_length_a   7.17402806
_cell_length_b   10.17600013
_cell_length_c   11.94100000
_cell_angle_alpha   90.00000000
_cell_angle_beta   90.14209696
_cell_angle_gamma   91.37258034
_symmetry_Int_Tables_number   1
_chemical_formula_structural   Ga5(P2O9)2
_chemical_formula_sum   'Ga10 P8 O36'
_cell_volume   871.474946118
_cell_formula_units_Z   2
loop_
 _symmetry_equiv_pos_site_id
 _symmetry_equiv_pos_as_xyz
  1  'x, y, z'
loop_
 _atom_site_label
 _atom_site_fract_x
 _atom_site_fract_y
 _atom_site_fract_z
 _atom_site_charge
 Ga 0.49483 0.491528 0.497017   1.789701
 Ga 0.171463 0.667341 0.622275   1.734116
 Ga 0.819679 0.34173 0.636441   1.742939
 Ga 0.168898 0.654102 0.365082   1.72154
 Ga 0.816493 0.326809 0.364587   1.725968
 Ga 0.499158 0.998462 0.997024   1.78991
 Ga 0.822525 0.822649 0.123246   1.732682
 Ga 0.174309 0.14826 0.13548   1.746276
 Ga 0.82509 0.835888 0.866059   1.722954
 Ga 0.177495 0.163181 0.863634   1.723888
 P 0.246834 0.386282 0.696558   1.830358
 P 0.243527 0.369641 0.304573   1.842674
 P 0.749158 0.607045 0.300456   1.883318
 P 0.750501 0.625119 0.686368   1.869621
 P 0.747154 0.103708 0.197303   1.83431
 P 0.750461 0.120349 0.805328   1.839831
 P 0.24483 0.882945 0.799705   1.886229
 P 0.243487 0.864871 0.185613   1.868328
 O 0.258517 0.587001 0.496905   -1.193661
 O 0.732665 0.38708 0.499012   -1.202962
 O 0.415431 0.377323 0.620939   -0.813838
 O 0.582766 0.610981 0.378388   -0.828698
 O 0.078156 0.3186 0.638136   -0.909019
 O 0.410822 0.365208 0.382932   -0.81728
 O 0.076754 0.301996 0.363034   -0.897763
 O 0.283768 0.313885 0.808443   -0.822881
 O 0.91984 0.669403 0.359591   -0.934872
 O 0.28517 0.29279 0.197445   -0.831518
 O 0.200601 0.510308 0.268219   -0.854133
 O 0.590381 0.624606 0.6037   -0.831801
 O 0.787575 0.484963 0.728193   -0.87973
 O 0.925451 0.688122 0.629899   -0.931925
 O 0.709018 0.683301 0.194376   -0.847291
 O 0.7002 0.705572 0.789663   -0.836124
 O 0.211623 0.530545 0.727935   -0.843687
 O 0.787375 0.464562 0.263493   -0.862697
 O 0.735471 0.902989 0.997616   -1.194199
 O 0.261323 0.10291 0.998309   -1.203118
 O 0.578557 0.112667 0.121182   -0.814245
 O 0.411222 0.879009 0.878133   -0.829538
 O 0.915832 0.17139 0.139385   -0.909732
 O 0.583166 0.124782 0.883189   -0.817208
 O 0.917234 0.187994 0.864287   -0.897941
 O 0.71022 0.176105 0.309078   -0.823875
 O 0.074148 0.820587 0.85833   -0.934615
 O 0.708818 0.1972 0.698076   -0.830785
 O 0.793387 0.979682 0.769102   -0.853463
 O 0.403607 0.865384 0.103421   -0.831714
 O 0.206413 0.005027 0.227328   -0.880566
 O 0.068537 0.801868 0.128622   -0.932959
 O 0.28497 0.806689 0.693745   -0.847107
 O 0.293788 0.784418 0.289058   -0.836418
 O 0.782365 0.959445 0.228786   -0.844441
 O 0.206613 0.025428 0.762628   -0.862839
