{'_ref': 'TBD', '_srcid': 'CAKYAQ_clean', 'submitters': [{'name': 'Dalar Nazarian Jeff Camp and David Sholl', 'email': 'dalar@gatech.edu jcamp6@gatech.edu'}], '_method': 'VASP DFT with PBE;DDEC'}
data_ZnH11C9N2ClO2
_symmetry_space_group_name_H-M   'P 1'
_cell_length_a   10.26520000
_cell_length_b   17.52849975
_cell_length_c   17.52850000
_cell_angle_alpha   120.00000047
_cell_angle_beta   90.00000000
_cell_angle_gamma   90.00000000
_symmetry_Int_Tables_number   1
_chemical_formula_structural   ZnH11C9N2ClO2
_chemical_formula_sum   'Zn6 H66 C54 N12 Cl6 O12'
_cell_volume   2731.4140851
_cell_formula_units_Z   6
loop_
 _symmetry_equiv_pos_site_id
 _symmetry_equiv_pos_as_xyz
  1  'x, y, z'
loop_
 _atom_site_label
 _atom_site_fract_x
 _atom_site_fract_y
 _atom_site_fract_z
 _atom_site_charge
 Zn 0.00685 0.46439 0.92459   0.779183
 Zn 0.67352 0.4602 0.53561   0.778449
 Zn 0.34018 0.07541 0.5398   0.77919
 Zn 0.50685 0.53561 0.07541   0.779183
 Zn 0.17352 0.5398 0.46439   0.778449
 Zn 0.84018 0.92459 0.4602   0.77919
 H 0.9749 0.4269 0.3219   0.079465
 H 0.9305 0.3836 0.1787   0.141958
 H 0.2264 0.535 0.1819   0.132033
 H 0.2722 0.567 0.3222   0.093344
 H 0.1109 0.3909 0.0305   0.113496
 H 0.9614 0.3991 0.0513   0.089256
 H 0.9252 0.5697 0.1653   0.070484
 H 0.0427 0.6823 0.1622   0.106089
 H 0.8945 0.6994 0.155   0.137092
 H 0.9826 0.6582 0.0707   0.112563
 H 0.1142 0.5357 0.0729   0.267651
 H 0.64157 0.895 0.5731   0.08047
 H 0.59717 0.7951 0.6164   0.141528
 H 0.89307 0.6469 0.465   0.13119
 H 0.93887 0.7552 0.433   0.093105
 H 0.77757 0.6396 0.6091   0.113124
 H 0.62807 0.6522 0.6009   0.089125
 H 0.59187 0.5956 0.4303   0.070062
 H 0.70937 0.4799 0.3177   0.106045
 H 0.56117 0.4556 0.3006   0.137087
 H 0.64927 0.4125 0.3418   0.112811
 H 0.78087 0.5372 0.4643   0.267662
 H 0.30823 0.6781 0.105   0.080384
 H 0.26383 0.8213 0.2049   0.141895
 H 0.55973 0.8181 0.3531   0.131749
 H 0.60553 0.6778 0.2448   0.092331
 H 0.44423 0.9695 0.3604   0.114019
 H 0.29473 0.9487 0.3478   0.089405
 H 0.25853 0.8347 0.4044   0.070309
 H 0.37603 0.8378 0.5201   0.106225
 H 0.22783 0.845 0.5444   0.137063
 H 0.31593 0.9293 0.5875   0.113575
 H 0.44753 0.9271 0.4628   0.266852
 H 0.4749 0.5731 0.6781   0.079465
 H 0.4305 0.6164 0.8213   0.141958
 H 0.7264 0.465 0.8181   0.132033
 H 0.7722 0.433 0.6778   0.093344
 H 0.6109 0.6091 0.9695   0.113496
 H 0.4614 0.6009 0.9487   0.089256
 H 0.4252 0.4303 0.8347   0.070484
 H 0.5427 0.3177 0.8378   0.106089
 H 0.3945 0.3006 0.845   0.137092
 H 0.4826 0.3418 0.9293   0.112564
 H 0.6142 0.4643 0.9271   0.267651
 H 0.14157 0.105 0.4269   0.08047
 H 0.09717 0.2049 0.3836   0.141528
 H 0.39307 0.3531 0.535   0.13119
 H 0.43887 0.2448 0.567   0.093105
 H 0.27757 0.3604 0.3909   0.113125
 H 0.12807 0.3478 0.3991   0.089124
 H 0.09187 0.4044 0.5697   0.070062
 H 0.20937 0.5201 0.6823   0.106045
 H 0.06117 0.5444 0.6994   0.137087
 H 0.14927 0.5875 0.6582   0.112811
 H 0.28087 0.4628 0.5357   0.267662
 H 0.80823 0.3219 0.895   0.080383
 H 0.76383 0.1787 0.7951   0.141895
 H 0.05973 0.1819 0.6469   0.131749
 H 0.10553 0.3222 0.7552   0.092331
 H 0.94423 0.0305 0.6396   0.11402
 H 0.79473 0.0513 0.6522   0.089404
 H 0.75853 0.1653 0.5956   0.070309
 H 0.87603 0.1622 0.4799   0.106225
 H 0.72783 0.155 0.4556   0.137063
 H 0.81593 0.0707 0.4125   0.113575
 H 0.94753 0.0729 0.5372   0.266852
 C 0.0274 0.4474 0.2927   0.161901
 C 0.9991 0.4222 0.2073   -0.224433
 C 0.0734 0.4543 0.163   0.122487
 C 0.1758 0.5109 0.2087   -0.193554
 C 0.2014 0.5309 0.2932   0.18138
 C 0.0438 0.4304 0.0688   -0.029118
 C 0.9341 0.5685 0.109   0.021877
 C 0.8051 0.5385 0.0576   0.633814
 C 0.9664 0.6607 0.1258   -0.332309
 C 0.69407 0.8453 0.5526   0.161435
 C 0.66577 0.7851 0.5778   -0.223505
 C 0.74007 0.7087 0.5457   0.120545
 C 0.84247 0.6978 0.4891   -0.193008
 C 0.86807 0.7623 0.4691   0.182511
 C 0.71047 0.6384 0.5696   -0.027496
 C 0.60077 0.5405 0.4315   0.022733
 C 0.47177 0.5191 0.4615   0.633179
 C 0.63307 0.4651 0.3393   -0.332072
 C 0.36073 0.7073 0.1547   0.160655
 C 0.33243 0.7927 0.2149   -0.224454
 C 0.40673 0.837 0.2913   0.121682
 C 0.50913 0.7913 0.3022   -0.193412
 C 0.53473 0.7068 0.2377   0.183385
 C 0.37713 0.9312 0.3616   -0.029691
 C 0.26743 0.891 0.4595   0.022329
 C 0.13843 0.9424 0.4809   0.632811
 C 0.29973 0.8742 0.5349   -0.332894
 C 0.5274 0.5526 0.7073   0.161901
 C 0.4991 0.5778 0.7927   -0.224433
 C 0.5734 0.5457 0.837   0.122487
 C 0.6758 0.4891 0.7913   -0.193554
 C 0.7014 0.4691 0.7068   0.18138
 C 0.5438 0.5696 0.9312   -0.029118
 C 0.4341 0.4315 0.891   0.021877
 C 0.3051 0.4615 0.9424   0.633814
 C 0.4664 0.3393 0.8742   -0.332309
 C 0.19407 0.1547 0.4474   0.161435
 C 0.16577 0.2149 0.4222   -0.223505
 C 0.24007 0.2913 0.4543   0.120545
 C 0.34247 0.3022 0.5109   -0.193008
 C 0.36807 0.2377 0.5309   0.182511
 C 0.21047 0.3616 0.4304   -0.027495
 C 0.10077 0.4595 0.5685   0.022733
 C 0.97177 0.4809 0.5385   0.633179
 C 0.13307 0.5349 0.6607   -0.332072
 C 0.86073 0.2927 0.8453   0.160655
 C 0.83243 0.2073 0.7851   -0.224454
 C 0.90673 0.163 0.7087   0.121682
 C 0.00913 0.2087 0.6978   -0.193412
 C 0.03473 0.2932 0.7623   0.183385
 C 0.87713 0.0688 0.6384   -0.02969
 C 0.76743 0.109 0.5405   0.02233
 C 0.63843 0.0576 0.5191   0.632811
 C 0.79973 0.1258 0.4651   -0.332894
 N 0.0365 0.5069 0.0566   -0.395399
 N 0.1276 0.5003 0.3364   -0.316328
 N 0.70317 0.5497 0.4931   -0.395621
 N 0.79427 0.8361 0.4997   -0.317153
 N 0.36983 0.9434 0.4503   -0.39421
 N 0.46093 0.6636 0.1639   -0.316595
 N 0.5365 0.4931 0.9434   -0.3954
 N 0.6276 0.4997 0.6636   -0.316328
 N 0.20317 0.4503 0.5069   -0.395621
 N 0.29427 0.1639 0.5003   -0.317153
 N 0.86983 0.0566 0.5497   -0.39421
 N 0.96093 0.3364 0.8361   -0.316595
 Cl 0.997 0.55565 0.87054   -0.582612
 Cl 0.66367 0.31489 0.44435   -0.582593
 Cl 0.33033 0.12946 0.68511   -0.582816
 Cl 0.497 0.44435 0.12946   -0.582612
 Cl 0.16367 0.68511 0.55565   -0.582593
 Cl 0.83033 0.87054 0.31489   -0.582816
 O 0.704 0.5699 0.1039   -0.599322
 O 0.8094 0.4874 0.9771   -0.570861
 O 0.37067 0.534 0.4301   -0.599172
 O 0.47607 0.4897 0.5126   -0.570626
 O 0.03733 0.8961 0.466   -0.598744
 O 0.14273 0.0229 0.5103   -0.570995
 O 0.204 0.4301 0.8961   -0.599322
 O 0.3094 0.5126 0.0229   -0.570861
 O 0.87067 0.466 0.5699   -0.599172
 O 0.97607 0.5103 0.4874   -0.570626
 O 0.53733 0.1039 0.534   -0.598744
 O 0.64273 0.9771 0.4897   -0.570995
