{'_ref': 'TBD', '_srcid': 'CAKYAQ_clean', 'submitters': [{'name': 'Dalar Nazarian Jeff Camp and David Sholl', 'email': 'dalar@gatech.edu jcamp6@gatech.edu'}], '_method': 'VASP DFT with PBE;DDEC'}
data_ZnH11C9N2ClO2
_symmetry_space_group_name_H-M   'P 1'
_cell_length_a   10.26900000
_cell_length_b   17.60149987
_cell_length_c   17.60150000
_cell_angle_alpha   120.00000024
_cell_angle_beta   90.00000000
_cell_angle_gamma   90.00000000
_symmetry_Int_Tables_number   1
_chemical_formula_structural   ZnH11C9N2ClO2
_chemical_formula_sum   'Zn6 H66 C54 N12 Cl6 O12'
_cell_volume   2755.23179418
_cell_formula_units_Z   6
loop_
 _symmetry_equiv_pos_site_id
 _symmetry_equiv_pos_as_xyz
  1  'x, y, z'
loop_
 _atom_site_label
 _atom_site_fract_x
 _atom_site_fract_y
 _atom_site_fract_z
 _atom_site_charge
 Zn 0.90831 0.07571 0.53818   0.781216
 Zn 0.57498 0.46247 0.92429   0.781232
 Zn 0.24164 0.46182 0.53753   0.781259
 Zn 0.40831 0.92429 0.46182   0.781216
 Zn 0.07498 0.53753 0.07571   0.781232
 Zn 0.74164 0.53818 0.46247   0.781259
 H 0.9465 0.6765 0.5693   0.076646
 H 0.9926 0.8202 0.6138   0.143703
 H 0.684 0.824 0.4773   0.131448
 H 0.641 0.682 0.4408   0.089701
 H 0.8101 0.9688 0.6106   0.112157
 H 0.9592 0.9471 0.6005   0.088052
 H 0.9931 0.8369 0.4313   0.065879
 H 0.8595 0.8469 0.3278   0.107624
 H 0.0065 0.8337 0.3001   0.135902
 H 0.9428 0.9269 0.3401   0.114175
 H 0.8031 0.927 0.4679   0.262831
 H 0.61317 0.8928 0.3235   0.076926
 H 0.65927 0.7936 0.1798   0.143382
 H 0.35067 0.6533 0.176   0.131473
 H 0.30767 0.7588 0.318   0.089755
 H 0.47677 0.6418 0.0312   0.111695
 H 0.62587 0.6534 0.0529   0.086876
 H 0.65977 0.5944 0.1631   0.066086
 H 0.52617 0.4809 0.1531   0.10741
 H 0.67317 0.4664 0.1663   0.135855
 H 0.60947 0.4132 0.0731   0.113983
 H 0.46977 0.5409 0.073   0.263251
 H 0.27983 0.4307 0.1072   0.076409
 H 0.32593 0.3862 0.2064   0.143756
 H 0.01733 0.5227 0.3467   0.131347
 H 0.97433 0.5592 0.2412   0.089821
 H 0.14343 0.3894 0.3582   0.111781
 H 0.29253 0.3995 0.3466   0.087466
 H 0.32643 0.5687 0.4056   0.067084
 H 0.19283 0.6722 0.5191   0.107476
 H 0.33983 0.6999 0.5336   0.135055
 H 0.27613 0.6599 0.5868   0.113429
 H 0.13643 0.5321 0.4591   0.262389
 H 0.4465 0.3235 0.4307   0.076645
 H 0.4926 0.1798 0.3862   0.143703
 H 0.184 0.176 0.5227   0.131448
 H 0.141 0.318 0.5592   0.089701
 H 0.3101 0.0312 0.3894   0.112157
 H 0.4592 0.0529 0.3995   0.088052
 H 0.4931 0.1631 0.5687   0.065879
 H 0.3595 0.1531 0.6722   0.107624
 H 0.5065 0.1663 0.6999   0.135902
 H 0.4428 0.0731 0.6599   0.114176
 H 0.3031 0.073 0.5321   0.262831
 H 0.11317 0.1072 0.6765   0.076925
 H 0.15927 0.2064 0.8202   0.143382
 H 0.85067 0.3467 0.824   0.131473
 H 0.80767 0.2412 0.682   0.089755
 H 0.97677 0.3582 0.9688   0.111695
 H 0.12587 0.3466 0.9471   0.086875
 H 0.15977 0.4056 0.8369   0.066086
 H 0.02617 0.5191 0.8469   0.10741
 H 0.17317 0.5336 0.8337   0.135855
 H 0.10947 0.5868 0.9269   0.113983
 H 0.96977 0.4591 0.927   0.263251
 H 0.77983 0.5693 0.8928   0.076409
 H 0.82593 0.6138 0.7936   0.143757
 H 0.51733 0.4773 0.6533   0.131347
 H 0.47433 0.4408 0.7588   0.089821
 H 0.64343 0.6106 0.6418   0.111782
 H 0.79253 0.6005 0.6534   0.087465
 H 0.82643 0.4313 0.5944   0.067084
 H 0.69283 0.3278 0.4809   0.107476
 H 0.83983 0.3001 0.4664   0.135055
 H 0.77613 0.3401 0.4132   0.113429
 H 0.63643 0.4679 0.5409   0.262389
 C 0.8921 0.7067 0.5513   0.159975
 C 0.9223 0.7925 0.5768   -0.226242
 C 0.8458 0.837 0.5463   0.121347
 C 0.7391 0.7952 0.4966   -0.192531
 C 0.7135 0.7098 0.4752   0.180967
 C 0.8761 0.9304 0.5703   -0.028348
 C 0.9822 0.8926 0.4321   0.030535
 C 0.1121 0.9427 0.4597   0.630373
 C 0.9444 0.8733 0.3419   -0.334273
 C 0.55877 0.8446 0.2933   0.158854
 C 0.58897 0.7843 0.2075   -0.226507
 C 0.51247 0.7093 0.163   0.121514
 C 0.40577 0.7014 0.2048   -0.193337
 C 0.38017 0.7654 0.2902   0.181219
 C 0.54277 0.6399 0.0696   -0.025227
 C 0.64887 0.5395 0.1074   0.030485
 C 0.77877 0.517 0.0573   0.631219
 C 0.61107 0.4686 0.1267   -0.333717
 C 0.22543 0.4487 0.1554   0.160614
 C 0.25563 0.4232 0.2157   -0.226885
 C 0.17913 0.4537 0.2907   0.122025
 C 0.07243 0.5034 0.2986   -0.192475
 C 0.04683 0.5248 0.2346   0.181603
 C 0.20943 0.4297 0.3601   -0.026067
 C 0.31553 0.5679 0.4605   0.027984
 C 0.44543 0.5403 0.483   0.630961
 C 0.27773 0.6581 0.5314   -0.331752
 C 0.3921 0.2933 0.4487   0.159975
 C 0.4223 0.2075 0.4232   -0.226242
 C 0.3458 0.163 0.4537   0.121347
 C 0.2391 0.2048 0.5034   -0.192531
 C 0.2135 0.2902 0.5248   0.180967
 C 0.3761 0.0696 0.4297   -0.028348
 C 0.4822 0.1074 0.5679   0.030535
 C 0.6121 0.0573 0.5403   0.630373
 C 0.4444 0.1267 0.6581   -0.334273
 C 0.05877 0.1554 0.7067   0.158854
 C 0.08897 0.2157 0.7925   -0.226507
 C 0.01247 0.2907 0.837   0.121514
 C 0.90577 0.2986 0.7952   -0.193337
 C 0.88017 0.2346 0.7098   0.181219
 C 0.04277 0.3601 0.9304   -0.025227
 C 0.14887 0.4605 0.8926   0.030485
 C 0.27877 0.483 0.9427   0.631219
 C 0.11107 0.5314 0.8733   -0.333717
 C 0.72543 0.5513 0.8446   0.160614
 C 0.75563 0.5768 0.7843   -0.226885
 C 0.67913 0.5463 0.7093   0.122025
 C 0.57243 0.4966 0.7014   -0.192475
 C 0.54683 0.4752 0.7654   0.181603
 C 0.70943 0.5703 0.6399   -0.026067
 C 0.81553 0.4321 0.5395   0.027984
 C 0.94543 0.4597 0.517   0.630961
 C 0.77773 0.3419 0.4686   -0.331752
 N 0.8814 0.9433 0.4957   -0.393137
 N 0.7891 0.6648 0.5021   -0.310613
 N 0.54807 0.5524 0.0567   -0.394745
 N 0.45577 0.8373 0.3352   -0.309503
 N 0.21473 0.5043 0.4476   -0.394412
 N 0.12243 0.4979 0.1627   -0.311553
 N 0.3814 0.0567 0.5043   -0.393137
 N 0.2891 0.3352 0.4979   -0.310613
 N 0.04807 0.4476 0.9433   -0.394746
 N 0.95577 0.1627 0.6648   -0.309503
 N 0.71473 0.4957 0.5524   -0.394412
 N 0.62243 0.5021 0.8373   -0.311553
 Cl 0.912 0.13287 0.45033   -0.581437
 Cl 0.57867 0.31746 0.86713   -0.581478
 Cl 0.24533 0.54967 0.68254   -0.581325
 Cl 0.412 0.86713 0.54967   -0.581437
 Cl 0.07867 0.68254 0.13287   -0.581478
 Cl 0.74533 0.45033 0.31746   -0.581325
 O 0.2121 0.8985 0.4259   -0.582353
 O 0.1064 0.024 0.5122   -0.583795
 O 0.87877 0.5274 0.1015   -0.583023
 O 0.77307 0.4882 0.976   -0.583832
 O 0.54543 0.5741 0.4726   -0.58218
 O 0.43973 0.4878 0.5118   -0.583462
 O 0.7121 0.1015 0.5741   -0.582353
 O 0.6064 0.976 0.4878   -0.583795
 O 0.37877 0.4726 0.8985   -0.583023
 O 0.27307 0.5118 0.024   -0.583832
 O 0.04543 0.4259 0.5274   -0.58218
 O 0.93973 0.5122 0.4882   -0.583462
