{'_ref': 'TBD', '_srcid': 'CAKYAQ_clean', 'submitters': [{'name': 'Dalar Nazarian Jeff Camp and David Sholl', 'email': 'dalar@gatech.edu jcamp6@gatech.edu'}], '_method': 'VASP DFT with PBE;DDEC'}
data_ZnH10C9(NO)2
_symmetry_space_group_name_H-M   'P 1'
_cell_length_a   10.17160000
_cell_length_b   17.59109958
_cell_length_c   17.59110000
_cell_angle_alpha   120.00000078
_cell_angle_beta   90.00000000
_cell_angle_gamma   90.00000000
_symmetry_Int_Tables_number   1
_chemical_formula_structural   ZnH10C9(NO)2
_chemical_formula_sum   'Zn6 H60 C54 N12 O12'
_cell_volume   2725.87468261
_cell_formula_units_Z   6
loop_
 _symmetry_equiv_pos_site_id
 _symmetry_equiv_pos_as_xyz
  1  'x, y, z'
loop_
 _atom_site_label
 _atom_site_fract_x
 _atom_site_fract_y
 _atom_site_fract_z
 _atom_site_charge
 Zn 0.86646 0.45663 0.53194   0.870107
 Zn 0.53313 0.07531 0.54337   0.86988
 Zn 0.19979 0.46806 0.92469   0.869603
 Zn 0.36646 0.54337 0.46806   0.870107
 Zn 0.03313 0.92469 0.45663   0.86988
 Zn 0.69979 0.53194 0.07531   0.869603
 H 0.5832 0.5253 0.2235   0.088206
 H 0.9267 0.4382 0.1107   0.08232
 H 0.7883 0.3657 0.3463   0.081073
 H 0.9366 0.3844 0.3365   0.023871
 H 0.9625 0.5485 0.3872   0.054625
 H 0.9762 0.3897 0.2056   0.12586
 H 0.6284 0.4723 0.3192   0.126313
 H 0.8003 0.6504 0.4906   0.109279
 H 0.9404 0.6881 0.4918   0.092166
 H 0.9018 0.6639 0.5633   0.085962
 H 0.24987 0.6982 0.4747   0.088709
 H 0.59337 0.6725 0.5618   0.081816
 H 0.45497 0.9806 0.6343   0.081347
 H 0.60327 0.9521 0.6156   0.023683
 H 0.62917 0.8387 0.4515   0.054353
 H 0.64287 0.8159 0.6103   0.126262
 H 0.29507 0.8469 0.5277   0.126043
 H 0.46697 0.8402 0.3496   0.109004
 H 0.60707 0.8037 0.3119   0.092421
 H 0.56847 0.8994 0.3361   0.085643
 H 0.91653 0.7765 0.3018   0.088213
 H 0.26003 0.8893 0.3275   0.081328
 H 0.12163 0.6537 0.0194   0.080674
 H 0.26993 0.6635 0.0479   0.023089
 H 0.29583 0.6128 0.1613   0.055115
 H 0.30953 0.7944 0.1841   0.126155
 H 0.96173 0.6808 0.1531   0.125593
 H 0.13363 0.5094 0.1598   0.109268
 H 0.27373 0.5082 0.1963   0.091411
 H 0.23513 0.4367 0.1006   0.085978
 H 0.0832 0.4747 0.7765   0.088206
 H 0.4267 0.5618 0.8893   0.082319
 H 0.2883 0.6343 0.6537   0.081073
 H 0.4366 0.6156 0.6635   0.02387
 H 0.4625 0.4515 0.6128   0.054625
 H 0.4762 0.6103 0.7944   0.12586
 H 0.1284 0.5277 0.6808   0.126313
 H 0.3003 0.3496 0.5094   0.109279
 H 0.4404 0.3119 0.5082   0.092166
 H 0.4018 0.3361 0.4367   0.085962
 H 0.74987 0.3018 0.5253   0.088709
 H 0.09337 0.3275 0.4382   0.081815
 H 0.95497 0.0194 0.3657   0.081347
 H 0.10327 0.0479 0.3844   0.023683
 H 0.12917 0.1613 0.5485   0.054353
 H 0.14287 0.1841 0.3897   0.126262
 H 0.79507 0.1531 0.4723   0.126042
 H 0.96697 0.1598 0.6504   0.109004
 H 0.10707 0.1963 0.6881   0.092421
 H 0.06847 0.1006 0.6639   0.085643
 H 0.41653 0.2235 0.6982   0.088213
 H 0.76003 0.1107 0.6725   0.081328
 H 0.62163 0.3463 0.9806   0.080674
 H 0.76993 0.3365 0.9521   0.023089
 H 0.79583 0.3872 0.8387   0.055115
 H 0.80953 0.2056 0.8159   0.126156
 H 0.46173 0.3192 0.8469   0.125593
 H 0.63363 0.4906 0.8402   0.109268
 H 0.77373 0.4918 0.8037   0.09141
 H 0.73513 0.5633 0.8994   0.085978
 C 0.6626 0.497 0.2188   0.143991
 C 0.8655 0.446 0.1533   0.161154
 C 0.8487 0.409 0.3475   0.043405
 C 0.9421 0.5567 0.4453   0.072353
 C 0.8964 0.4179 0.2112   -0.240136
 C 0.067 0.5401 0.484   0.65156
 C 0.6916 0.467 0.2786   -0.195602
 C 0.8114 0.4306 0.2773   0.153514
 C 0.8916 0.6479 0.5029   -0.308475
 C 0.32927 0.7218 0.503   0.143566
 C 0.53217 0.7073 0.554   0.163472
 C 0.51537 0.9385 0.591   0.044335
 C 0.60877 0.8886 0.4433   0.072952
 C 0.56307 0.7933 0.5821   -0.241987
 C 0.73367 0.9439 0.4599   0.651463
 C 0.35827 0.8116 0.533   -0.195255
 C 0.47807 0.8467 0.5694   0.15373
 C 0.55827 0.855 0.3521   -0.308254
 C 0.99593 0.7812 0.2782   0.145018
 C 0.19883 0.8467 0.2927   0.163803
 C 0.18203 0.6525 0.0615   0.04487
 C 0.27543 0.5547 0.1114   0.071118
 C 0.22973 0.7888 0.2067   -0.242509
 C 0.40033 0.516 0.0561   0.65085
 C 0.02493 0.7214 0.1884   -0.195421
 C 0.14473 0.7227 0.1533   0.15489
 C 0.22493 0.4971 0.145   -0.307377
 C 0.1626 0.503 0.7812   0.143991
 C 0.3655 0.554 0.8467   0.161154
 C 0.3487 0.591 0.6525   0.043406
 C 0.4421 0.4433 0.5547   0.072352
 C 0.3964 0.5821 0.7888   -0.240136
 C 0.567 0.4599 0.516   0.65156
 C 0.1916 0.533 0.7214   -0.195602
 C 0.3114 0.5694 0.7227   0.153514
 C 0.3916 0.3521 0.4971   -0.308475
 C 0.82927 0.2782 0.497   0.143566
 C 0.03217 0.2927 0.446   0.163472
 C 0.01537 0.0615 0.409   0.044335
 C 0.10877 0.1114 0.5567   0.072952
 C 0.06307 0.2067 0.4179   -0.241987
 C 0.23367 0.0561 0.5401   0.651463
 C 0.85827 0.1884 0.467   -0.195255
 C 0.97807 0.1533 0.4306   0.15373
 C 0.05827 0.145 0.6479   -0.308254
 C 0.49593 0.2188 0.7218   0.145018
 C 0.69883 0.1533 0.7073   0.163803
 C 0.68203 0.3475 0.9385   0.04487
 C 0.77543 0.4453 0.8886   0.071118
 C 0.72973 0.2112 0.7933   -0.242509
 C 0.90033 0.484 0.9439   0.65085
 C 0.52493 0.2786 0.8116   -0.195421
 C 0.64473 0.2773 0.8467   0.15489
 C 0.72493 0.5029 0.855   -0.307377
 N 0.844 0.4902 0.4356   -0.678974
 N 0.7481 0.485 0.1561   -0.352933
 N 0.51067 0.9454 0.5098   -0.679727
 N 0.41477 0.6711 0.515   -0.354306
 N 0.17733 0.5644 0.0546   -0.679054
 N 0.08143 0.8439 0.3289   -0.354455
 N 0.344 0.5098 0.5644   -0.678975
 N 0.2481 0.515 0.8439   -0.352933
 N 0.01067 0.0546 0.4902   -0.679727
 N 0.91477 0.3289 0.485   -0.354306
 N 0.67733 0.4356 0.9454   -0.679054
 N 0.58143 0.1561 0.6711   -0.354455
 O 0.0608 0.4969 0.5224   -0.554177
 O 0.1702 0.5765 0.4746   -0.63517
 O 0.72747 0.0255 0.5031   -0.554397
 O 0.83687 0.8981 0.4235   -0.634903
 O 0.39413 0.4776 0.9745   -0.553696
 O 0.50353 0.5254 0.1019   -0.6346
 O 0.5608 0.5031 0.4776   -0.554177
 O 0.6702 0.4235 0.5254   -0.63517
 O 0.22747 0.9745 0.4969   -0.554397
 O 0.33687 0.1019 0.5765   -0.634903
 O 0.89413 0.5224 0.0255   -0.553696
 O 0.00353 0.4746 0.8981   -0.6346
