{'_ref': 'TBD', '_srcid': 'CAKYAQ_clean', 'submitters': [{'name': 'Dalar Nazarian Jeff Camp and David Sholl', 'email': 'dalar@gatech.edu jcamp6@gatech.edu'}], '_method': 'VASP DFT with PBE;DDEC'}
data_ZnH14C11(NO)2
_symmetry_space_group_name_H-M   'P 1'
_cell_length_a   10.34330000
_cell_length_b   17.73359991
_cell_length_c   17.73360000
_cell_angle_alpha   120.00000016
_cell_angle_beta   90.00000000
_cell_angle_gamma   90.00000000
_symmetry_Int_Tables_number   1
_chemical_formula_structural   ZnH14C11(NO)2
_chemical_formula_sum   'Zn6 H84 C66 N12 O12'
_cell_volume   2816.97872263
_cell_formula_units_Z   6
loop_
 _symmetry_equiv_pos_site_id
 _symmetry_equiv_pos_as_xyz
  1  'x, y, z'
loop_
 _atom_site_label
 _atom_site_fract_x
 _atom_site_fract_y
 _atom_site_fract_z
 _atom_site_charge
 Zn 0.8442 0.45553 0.92874   0.897179
 Zn 0.51087 0.47321 0.54447   0.897158
 Zn 0.17753 0.07126 0.52679   0.897218
 Zn 0.3442 0.54447 0.07126   0.897179
 Zn 0.01087 0.52679 0.45553   0.897158
 Zn 0.67753 0.92874 0.47321   0.897218
 H 0.3035 0.5714 0.6766   0.075301
 H 0.6318 0.476 0.6966   0.080014
 H 0.2516 0.618 0.8193   0.12772
 H 0.2343 0.4733 0.8458   0.070233
 H 0.2108 0.3263 0.8061   0.029758
 H 0.4462 0.6274 0.9799   0.079672
 H 0.2988 0.6236 0.9571   0.028986
 H 0.5934 0.5212 0.8411   0.126409
 H 0.4008 0.3599 0.9312   0.095753
 H 0.3695 0.2649 0.8569   0.098885
 H 0.2632 0.3203 0.9254   0.093194
 H 0.3527 0.3509 0.7215   0.098763
 H 0.41 0.276 0.734   0.093427
 H 0.4656 0.3707 0.7879   0.102962
 H 0.97017 0.1052 0.4286   0.074879
 H 0.29847 0.2206 0.524   0.079381
 H 0.91827 0.2013 0.382   0.127749
 H 0.90097 0.3725 0.5267   0.069791
 H 0.87747 0.4798 0.6737   0.029887
 H 0.11287 0.3525 0.3726   0.0797
 H 0.96547 0.3335 0.3764   0.02976
 H 0.26007 0.3199 0.4788   0.126895
 H 0.06747 0.5713 0.6401   0.096425
 H 0.03617 0.592 0.7351   0.098703
 H 0.92987 0.6051 0.6797   0.093505
 H 0.01937 0.3706 0.6491   0.098614
 H 0.07667 0.458 0.724   0.092708
 H 0.13227 0.4172 0.6293   0.103103
 H 0.63683 0.3234 0.8948   0.074328
 H 0.96513 0.3034 0.7794   0.08027
 H 0.58493 0.1807 0.7987   0.128021
 H 0.56763 0.1542 0.6275   0.070136
 H 0.54413 0.1939 0.5202   0.029647
 H 0.77953 0.0201 0.6475   0.079373
 H 0.63213 0.0429 0.6665   0.02936
 H 0.92673 0.1589 0.6801   0.126915
 H 0.73413 0.0688 0.4287   0.09592
 H 0.70283 0.1431 0.408   0.09833
 H 0.59653 0.0746 0.3949   0.093173
 H 0.68603 0.2785 0.6294   0.098684
 H 0.74333 0.266 0.542   0.093072
 H 0.79893 0.2121 0.5828   0.102561
 H 0.8035 0.4286 0.3234   0.075301
 H 0.1318 0.524 0.3034   0.080014
 H 0.7516 0.382 0.1807   0.127721
 H 0.7343 0.5267 0.1542   0.070233
 H 0.7108 0.6737 0.1939   0.029758
 H 0.9462 0.3726 0.0201   0.079671
 H 0.7988 0.3764 0.0429   0.028985
 H 0.0934 0.4788 0.1589   0.126409
 H 0.9008 0.6401 0.0688   0.095753
 H 0.8695 0.7351 0.1431   0.098885
 H 0.7632 0.6797 0.0746   0.093194
 H 0.8527 0.6491 0.2785   0.098763
 H 0.91 0.724 0.266   0.093427
 H 0.9656 0.6293 0.2121   0.102962
 H 0.47017 0.8948 0.5714   0.074878
 H 0.79847 0.7794 0.476   0.079381
 H 0.41827 0.7987 0.618   0.127749
 H 0.40097 0.6275 0.4733   0.069791
 H 0.37747 0.5202 0.3263   0.029887
 H 0.61287 0.6475 0.6274   0.0797
 H 0.46547 0.6665 0.6236   0.02976
 H 0.76007 0.6801 0.5212   0.126895
 H 0.56747 0.4287 0.3599   0.096425
 H 0.53617 0.408 0.2649   0.098703
 H 0.42987 0.3949 0.3203   0.093504
 H 0.51937 0.6294 0.3509   0.098614
 H 0.57667 0.542 0.276   0.092708
 H 0.63227 0.5828 0.3707   0.103103
 H 0.13683 0.6766 0.1052   0.074328
 H 0.46513 0.6966 0.2206   0.08027
 H 0.08493 0.8193 0.2013   0.128021
 H 0.06763 0.8458 0.3725   0.070136
 H 0.04413 0.8061 0.4798   0.029647
 H 0.27953 0.9799 0.3525   0.079373
 H 0.13213 0.9571 0.3335   0.029359
 H 0.42673 0.8411 0.3199   0.126915
 H 0.23413 0.9312 0.5713   0.09592
 H 0.20283 0.8569 0.592   0.09833
 H 0.09653 0.9254 0.6051   0.093172
 H 0.18603 0.7215 0.3706   0.098684
 H 0.24333 0.734 0.458   0.093072
 H 0.29893 0.7879 0.4172   0.102561
 C 0.1389 0.4673 0.9447   0.66574
 C 0.3623 0.5617 0.7105   0.197223
 C 0.5559 0.5058 0.7225   0.140362
 C 0.3294 0.5893 0.7965   -0.253437
 C 0.2571 0.4537 0.8869   -0.035316
 C 0.2905 0.3573 0.8346   0.119269
 C 0.3795 0.5915 0.9391   0.037638
 C 0.4145 0.5735 0.8483   0.146254
 C 0.5321 0.5315 0.809   -0.192535
 C 0.335 0.3224 0.8922   -0.348898
 C 0.3888 0.3368 0.7628   -0.354222
 C 0.80557 0.4774 0.5327   0.665986
 C 0.02897 0.1488 0.4383   0.197848
 C 0.22257 0.2167 0.4942   0.141128
 C 0.99607 0.2072 0.4107   -0.25375
 C 0.92377 0.4332 0.5463   -0.034899
 C 0.95717 0.4773 0.6427   0.119535
 C 0.04617 0.3476 0.4085   0.037439
 C 0.08117 0.2748 0.4265   0.145812
 C 0.19877 0.2775 0.4685   -0.19275
 C 0.00167 0.5698 0.6776   -0.350457
 C 0.05547 0.426 0.6632   -0.353211
 C 0.47223 0.0553 0.5226   0.668443
 C 0.69563 0.2895 0.8512   0.19852
 C 0.88923 0.2775 0.7833   0.139866
 C 0.66273 0.2035 0.7928   -0.254257
 C 0.59043 0.1131 0.5668   -0.036243
 C 0.62383 0.1654 0.5227   0.120217
 C 0.71283 0.0609 0.6524   0.0375
 C 0.74783 0.1517 0.7252   0.146025
 C 0.86543 0.191 0.7225   -0.192709
 C 0.66833 0.1078 0.4302   -0.349304
 C 0.72213 0.2372 0.574   -0.353382
 C 0.6389 0.5327 0.0553   0.66574
 C 0.8623 0.4383 0.2895   0.197224
 C 0.0559 0.4942 0.2775   0.140362
 C 0.8294 0.4107 0.2035   -0.253437
 C 0.7571 0.5463 0.1131   -0.035316
 C 0.7905 0.6427 0.1654   0.119269
 C 0.8795 0.4085 0.0609   0.037638
 C 0.9145 0.4265 0.1517   0.146254
 C 0.0321 0.4685 0.191   -0.192534
 C 0.835 0.6776 0.1078   -0.348897
 C 0.8888 0.6632 0.2372   -0.354222
 C 0.30557 0.5226 0.4673   0.665987
 C 0.52897 0.8512 0.5617   0.197848
 C 0.72257 0.7833 0.5058   0.141128
 C 0.49607 0.7928 0.5893   -0.25375
 C 0.42377 0.5668 0.4537   -0.034899
 C 0.45717 0.5227 0.3573   0.119535
 C 0.54617 0.6524 0.5915   0.037439
 C 0.58117 0.7252 0.5735   0.145812
 C 0.69877 0.7225 0.5315   -0.19275
 C 0.50167 0.4302 0.3224   -0.350457
 C 0.55547 0.574 0.3368   -0.353211
 C 0.97223 0.9447 0.4774   0.668443
 C 0.19563 0.7105 0.1488   0.19852
 C 0.38923 0.7225 0.2167   0.139866
 C 0.16273 0.7965 0.2072   -0.254257
 C 0.09043 0.8869 0.4332   -0.036243
 C 0.12383 0.8346 0.4773   0.120217
 C 0.21283 0.9391 0.3476   0.037501
 C 0.24783 0.8483 0.2748   0.146025
 C 0.36543 0.809 0.2775   -0.192709
 C 0.16833 0.8922 0.5698   -0.349304
 C 0.22213 0.7628 0.426   -0.353382
 N 0.4707 0.523 0.6746   -0.362345
 N 0.3659 0.5086 0.942   -0.666329
 N 0.13737 0.1516 0.477   -0.362486
 N 0.03257 0.4334 0.4914   -0.666976
 N 0.80403 0.3254 0.8484   -0.361949
 N 0.69923 0.058 0.5666   -0.665951
 N 0.9707 0.477 0.3254   -0.362345
 N 0.8659 0.4914 0.058   -0.666329
 N 0.63737 0.8484 0.523   -0.362486
 N 0.53257 0.5666 0.5086   -0.666976
 N 0.30403 0.6746 0.1516   -0.361949
 N 0.19923 0.942 0.4334   -0.665951
 O 0.0381 0.4288 0.9026   -0.625861
 O 0.1479 0.5147 0.0253   -0.565756
 O 0.70477 0.4738 0.5712   -0.625915
 O 0.81457 0.5106 0.4853   -0.565709
 O 0.37143 0.0974 0.5262   -0.626588
 O 0.48123 0.9747 0.4894   -0.567089
 O 0.5381 0.5712 0.0974   -0.625861
 O 0.6479 0.4853 0.9747   -0.565756
 O 0.20477 0.5262 0.4288   -0.625915
 O 0.31457 0.4894 0.5147   -0.565709
 O 0.87143 0.9026 0.4738   -0.626588
 O 0.98123 0.0253 0.5106   -0.567089
