{'_ref': 'TBD', '_srcid': 'CAKYAQ_clean', 'submitters': [{'name': 'Dalar Nazarian Jeff Camp and David Sholl', 'email': 'dalar@gatech.edu jcamp6@gatech.edu'}], '_method': 'VASP DFT with PBE;DDEC'}
data_Co3H33C57N3O13
_symmetry_space_group_name_H-M   'P 1'
_cell_length_a   18.89999942
_cell_length_b   18.89999995
_cell_length_c   18.90000000
_cell_angle_alpha   61.86820163
_cell_angle_beta   61.86820077
_cell_angle_gamma   61.86820023
_symmetry_Int_Tables_number   1
_chemical_formula_structural   Co3H33C57N3O13
_chemical_formula_sum   'Co6 H66 C114 N6 O26'
_cell_volume   4973.54394151
_cell_formula_units_Z   2
loop_
 _symmetry_equiv_pos_site_id
 _symmetry_equiv_pos_as_xyz
  1  'x, y, z'
loop_
 _atom_site_label
 _atom_site_fract_x
 _atom_site_fract_y
 _atom_site_fract_z
 _atom_site_charge
 Co 0.35438 0.14562 0.25   1.039229
 Co 0.25 0.35438 0.14562   1.039227
 Co 0.14562 0.25 0.35438   1.039227
 Co 0.64562 0.85438 0.75   1.039229
 Co 0.75 0.64562 0.85438   1.039227
 Co 0.85438 0.75 0.64562   1.039227
 H 0.4451 0.1045 0.43   0.097456
 H 0.4991 0.0752 0.531   0.113674
 H 0.266 0.1516 0.6826   0.105213
 H 0.2117 0.1839 0.5813   0.100897
 H 0.5132 0.9676 0.6575   0.072652
 H 0.43 0.4451 0.1045   0.097456
 H 0.531 0.4991 0.0752   0.113674
 H 0.6826 0.266 0.1516   0.10521
 H 0.5813 0.2117 0.1839   0.100897
 H 0.6575 0.5132 0.9676   0.072652
 H 0.1045 0.43 0.4451   0.097456
 H 0.0752 0.531 0.4991   0.113672
 H 0.1516 0.6826 0.266   0.10521
 H 0.1839 0.5813 0.2117   0.100897
 H 0.9676 0.6575 0.5132   0.072652
 H 0.3955 0.0549 0.07   0.097456
 H 0.4248 0.000900000000001 0.969   0.113673
 H 0.3484 0.234 0.8174   0.105211
 H 0.3161 0.2883 0.9187   0.100897
 H 0.5324 0.9868 0.8425   0.072652
 H 0.0549 0.07 0.3955   0.097456
 H 0.000900000000001 0.969 0.4248   0.113673
 H 0.234 0.8174 0.3484   0.105211
 H 0.2883 0.9187 0.3161   0.100897
 H 0.9868 0.8425 0.5324   0.072652
 H 0.07 0.3955 0.0549   0.097456
 H 0.969 0.4248 0.000900000000001   0.113672
 H 0.8174 0.3484 0.234   0.105209
 H 0.9187 0.3161 0.2883   0.100897
 H 0.8425 0.5324 0.9868   0.072652
 H 0.5549 0.8955 0.57   0.097456
 H 0.5009 0.9248 0.469   0.113674
 H 0.734 0.8484 0.3174   0.105216
 H 0.7883 0.8161 0.4187   0.100897
 H 0.4868 0.0324 0.3425   0.072652
 H 0.57 0.5549 0.8955   0.097456
 H 0.469 0.5009 0.9248   0.113674
 H 0.3174 0.734 0.8484   0.105214
 H 0.4187 0.7883 0.8161   0.100897
 H 0.3425 0.4868 0.0324   0.072651
 H 0.8955 0.57 0.5549   0.097456
 H 0.9248 0.469 0.5009   0.113672
 H 0.8484 0.3174 0.734   0.105214
 H 0.8161 0.4187 0.7883   0.100897
 H 0.0324 0.3425 0.4868   0.072652
 H 0.6045 0.9451 0.93   0.097456
 H 0.5752 0.9991 0.031   0.113673
 H 0.6516 0.766 0.1826   0.105214
 H 0.6839 0.7117 0.0813   0.100897
 H 0.4676 0.0132 0.1575   0.072652
 H 0.9451 0.93 0.6045   0.097456
 H 0.9991 0.031 0.5752   0.113673
 H 0.766 0.1826 0.6516   0.105214
 H 0.7117 0.0813 0.6839   0.100897
 H 0.0132 0.1575 0.4676   0.072651
 H 0.93 0.6045 0.9451   0.097456
 H 0.031 0.5752 0.9991   0.113672
 H 0.1826 0.6516 0.766   0.105213
 H 0.0813 0.6839 0.7117   0.100897
 H 0.1575 0.4676 0.0132   0.072651
 H 0.34345 0.15655 0.75   0.109388
 H 0.75 0.34345 0.15655   0.109388
 H 0.15655 0.75 0.34345   0.109388
 H 0.65655 0.84345 0.25   0.109388
 H 0.25 0.65655 0.84345   0.109388
 H 0.84345 0.25 0.65655   0.109388
 C 0.28782 0.16201 0.42888   0.693002
 C 0.32087 0.14477 0.49623   -0.128842
 C 0.40832 0.11262 0.48182   -0.035594
 C 0.44079 0.09309 0.54289   -0.148244
 C 0.38589 0.10009 0.62319   0.063015
 C 0.30257 0.13865 0.63291   -0.146288
 C 0.2698 0.15948 0.57114   -0.033147
 C 0.42215 0.06873 0.69119   -0.038988
 C 0.49323 0.99627 0.69524   0.130936
 C 0.42888 0.28782 0.16201   0.693011
 C 0.49623 0.32087 0.14477   -0.128846
 C 0.48182 0.40832 0.11262   -0.035594
 C 0.54289 0.44079 0.09309   -0.148244
 C 0.62319 0.38589 0.10009   0.063016
 C 0.63291 0.30257 0.13865   -0.146282
 C 0.57114 0.2698 0.15948   -0.03315
 C 0.69119 0.42215 0.06873   -0.038998
 C 0.69524 0.49323 0.99627   0.130939
 C 0.16201 0.42888 0.28782   0.693012
 C 0.14477 0.49623 0.32087   -0.128848
 C 0.11262 0.48182 0.40832   -0.035594
 C 0.09309 0.54289 0.44079   -0.148243
 C 0.10009 0.62319 0.38589   0.063016
 C 0.13865 0.63291 0.30257   -0.146283
 C 0.15948 0.57114 0.2698   -0.033147
 C 0.06873 0.69119 0.42215   -0.038996
 C 0.99627 0.69524 0.49323   0.130938
 C 0.33799 0.21218 0.07112   0.693011
 C 0.35523 0.17913 0.00377   -0.128849
 C 0.38738 0.09168 0.01818   -0.035593
 C 0.40691 0.05921 0.95711   -0.148243
 C 0.39991 0.11411 0.87681   0.063016
 C 0.36135 0.19743 0.86709   -0.146282
 C 0.34052 0.2302 0.92886   -0.033148
 C 0.43127 0.07785 0.80881   -0.038996
 C 0.50373 0.00677 0.80476   0.130939
 C 0.21218 0.07112 0.33799   0.693003
 C 0.17913 0.00377 0.35523   -0.128841
 C 0.09168 0.01818 0.38738   -0.035594
 C 0.05921 0.95711 0.40691   -0.148244
 C 0.11411 0.87681 0.39991   0.063015
 C 0.19743 0.86709 0.36135   -0.146288
 C 0.2302 0.92886 0.34052   -0.033148
 C 0.07785 0.80881 0.43127   -0.038988
 C 0.00677 0.80476 0.50373   0.130936
 C 0.07112 0.33799 0.21218   0.693012
 C 0.00377 0.35523 0.17913   -0.128846
 C 0.01818 0.38738 0.09168   -0.035594
 C 0.95711 0.40691 0.05921   -0.148244
 C 0.87681 0.39991 0.11411   0.063016
 C 0.86709 0.36135 0.19743   -0.146282
 C 0.92886 0.34052 0.2302   -0.03315
 C 0.80881 0.43127 0.07785   -0.038998
 C 0.80476 0.50373 0.00677   0.130939
 C 0.71218 0.83799 0.57112   0.693002
 C 0.67913 0.85523 0.50377   -0.128842
 C 0.59168 0.88738 0.51818   -0.035594
 C 0.55921 0.90691 0.45711   -0.148244
 C 0.61411 0.89991 0.37681   0.063016
 C 0.69743 0.86135 0.36709   -0.14629
 C 0.7302 0.84052 0.42886   -0.033147
 C 0.57785 0.93127 0.30881   -0.038988
 C 0.50677 0.00373 0.30476   0.130937
 C 0.57112 0.71218 0.83799   0.693011
 C 0.50377 0.67913 0.85523   -0.128846
 C 0.51818 0.59168 0.88738   -0.035593
 C 0.45711 0.55921 0.90691   -0.148244
 C 0.37681 0.61411 0.89991   0.063016
 C 0.36709 0.69743 0.86135   -0.146284
 C 0.42886 0.7302 0.84052   -0.03315
 C 0.30881 0.57785 0.93127   -0.038998
 C 0.30476 0.50677 0.00373   0.130939
 C 0.83799 0.57112 0.71218   0.693012
 C 0.85523 0.50377 0.67913   -0.128849
 C 0.88738 0.51818 0.59168   -0.035593
 C 0.90691 0.45711 0.55921   -0.148243
 C 0.89991 0.37681 0.61411   0.063016
 C 0.86135 0.36709 0.69743   -0.146284
 C 0.84052 0.42886 0.7302   -0.033147
 C 0.93127 0.30881 0.57785   -0.038997
 C 0.00373 0.30476 0.50677   0.130939
 C 0.66201 0.78782 0.92888   0.693012
 C 0.64477 0.82087 0.99623   -0.128849
 C 0.61262 0.90832 0.98182   -0.035593
 C 0.59309 0.94079 0.04289   -0.148243
 C 0.60009 0.88589 0.12319   0.063016
 C 0.63865 0.80257 0.13291   -0.146284
 C 0.65948 0.7698 0.07114   -0.033147
 C 0.56873 0.92215 0.19119   -0.038997
 C 0.49627 0.99323 0.19524   0.130939
 C 0.78782 0.92888 0.66201   0.693003
 C 0.82087 0.99623 0.64477   -0.128841
 C 0.90832 0.98182 0.61262   -0.035594
 C 0.94079 0.04289 0.59309   -0.148244
 C 0.88589 0.12319 0.60009   0.063016
 C 0.80257 0.13291 0.63865   -0.14629
 C 0.7698 0.07114 0.65948   -0.033147
 C 0.92215 0.19119 0.56873   -0.038988
 C 0.99323 0.19524 0.49627   0.130937
 C 0.92888 0.66201 0.78782   0.693012
 C 0.99623 0.64477 0.82087   -0.128846
 C 0.98182 0.61262 0.90832   -0.035593
 C 0.04289 0.59309 0.94079   -0.148244
 C 0.12319 0.60009 0.88589   0.063016
 C 0.13291 0.63865 0.80257   -0.146283
 C 0.07114 0.65948 0.7698   -0.03315
 C 0.19119 0.56873 0.92215   -0.038998
 C 0.19524 0.49627 0.99323   0.13094
 C 0.39125 0.10875 0.75   -0.072936
 C 0.75 0.39125 0.10875   -0.072932
 C 0.10875 0.75 0.39125   -0.072936
 C 0.60875 0.89125 0.25   -0.072936
 C 0.25 0.60875 0.89125   -0.072932
 C 0.89125 0.25 0.60875   -0.072936
 N 0.53414 0.96586 0.75   -0.27951
 N 0.75 0.53414 0.96586   -0.27951
 N 0.96586 0.75 0.53414   -0.27951
 N 0.46586 0.03414 0.25   -0.279511
 N 0.25 0.46586 0.03414   -0.27951
 N 0.03414 0.25 0.46586   -0.27951
 O 0.33891 0.12699 0.37375   -0.568729
 O 0.21373 0.21065 0.43378   -0.556777
 O 0.37375 0.33891 0.12699   -0.56873
 O 0.43378 0.21373 0.21065   -0.556778
 O 0.12699 0.37375 0.33891   -0.568729
 O 0.21065 0.43378 0.21373   -0.556777
 O 0.37301 0.16109 0.12625   -0.568731
 O 0.28935 0.28627 0.06622   -0.556779
 O 0.16109 0.12625 0.37301   -0.568729
 O 0.28627 0.06622 0.28935   -0.556776
 O 0.12625 0.37301 0.16109   -0.56873
 O 0.06622 0.28935 0.28627   -0.556777
 O 0.66109 0.87301 0.62625   -0.568729
 O 0.78627 0.78935 0.56622   -0.556777
 O 0.62625 0.66109 0.87301   -0.56873
 O 0.56622 0.78627 0.78935   -0.556778
 O 0.87301 0.62625 0.66109   -0.568729
 O 0.78935 0.56622 0.78627   -0.556777
 O 0.62699 0.83891 0.87375   -0.568731
 O 0.71065 0.71373 0.93378   -0.556779
 O 0.83891 0.87375 0.62699   -0.568729
 O 0.71373 0.93378 0.71065   -0.556776
 O 0.87375 0.62699 0.83891   -0.56873
 O 0.93378 0.71065 0.71373   -0.556777
 O 0.25 0.25 0.25   -0.709929
 O 0.75 0.75 0.75   -0.709929
