{'_ref': 'TBD', '_srcid': 'CAKYAQ_clean', 'submitters': [{'name': 'Dalar Nazarian Jeff Camp and David Sholl', 'email': 'dalar@gatech.edu jcamp6@gatech.edu'}], '_method': 'VASP DFT with PBE;DDEC'}
data_Ni3H42C72N6O13
_symmetry_space_group_name_H-M   'P 1'
_cell_length_a   18.71449994
_cell_length_b   18.71450025
_cell_length_c   18.71450000
_cell_angle_alpha   99.40969850
_cell_angle_beta   99.40969866
_cell_angle_gamma   99.40969997
_symmetry_Int_Tables_number   1
_chemical_formula_structural   Ni3H42C72N6O13
_chemical_formula_sum   'Ni6 H84 C144 N12 O26'
_cell_volume   6256.1985432
_cell_formula_units_Z   2
loop_
 _symmetry_equiv_pos_site_id
 _symmetry_equiv_pos_as_xyz
  1  'x, y, z'
loop_
 _atom_site_label
 _atom_site_fract_x
 _atom_site_fract_y
 _atom_site_fract_z
 _atom_site_charge
 Ni 0.25 0.18019 0.31981   1.065964
 Ni 0.31981 0.25 0.18019   1.065964
 Ni 0.18019 0.31981 0.25   1.065964
 Ni 0.75 0.81981 0.68019   1.065964
 Ni 0.68019 0.75 0.81981   1.065964
 Ni 0.81981 0.68019 0.75   1.065964
 H 0.4472 0.7233 0.6969   0.107463
 H 0.3347 0.7602 0.663   0.115813
 H 0.4501 0.9515 0.6347   0.099123
 H 0.5594 0.9112 0.6608   0.093216
 H 0.3564 0.9457 0.5494   0.12132
 H 0.1845 0.0743 0.5345   0.136397
 H 0.185 0.1506 0.4526   0.072214
 H 0.6969 0.4472 0.7233   0.107463
 H 0.663 0.3347 0.7602   0.115813
 H 0.6347 0.4501 0.9515   0.099123
 H 0.6608 0.5594 0.9112   0.093216
 H 0.5494 0.3564 0.9457   0.12132
 H 0.5345 0.1845 0.0743   0.136397
 H 0.4526 0.185 0.1506   0.072214
 H 0.7233 0.6969 0.4472   0.107463
 H 0.7602 0.663 0.3347   0.115813
 H 0.9515 0.6347 0.4501   0.099123
 H 0.9112 0.6608 0.5594   0.093216
 H 0.9457 0.5494 0.3564   0.12132
 H 0.0743 0.5345 0.1845   0.136397
 H 0.1506 0.4526 0.185   0.072214
 H 0.7767 0.0528 0.8031   0.107462
 H 0.7398 0.1653 0.837   0.115813
 H 0.5485 0.0499 0.8653   0.099123
 H 0.5888 0.9406 0.8392   0.093216
 H 0.5543 0.1436 0.9506   0.12132
 H 0.4257 0.3155 0.9655   0.136397
 H 0.3494 0.315 0.0474   0.072214
 H 0.0528 0.8031 0.7767   0.107463
 H 0.1653 0.837 0.7398   0.115814
 H 0.0499 0.8653 0.5485   0.099123
 H 0.9406 0.8392 0.5888   0.093216
 H 0.1436 0.9506 0.5543   0.12132
 H 0.3155 0.9655 0.4257   0.136397
 H 0.315 0.0474 0.3494   0.072214
 H 0.8031 0.7767 0.0528   0.107463
 H 0.837 0.7398 0.1653   0.115814
 H 0.8653 0.5485 0.0499   0.099123
 H 0.8392 0.5888 0.9406   0.093216
 H 0.9506 0.5543 0.1436   0.12132
 H 0.9655 0.4257 0.3155   0.136397
 H 0.0474 0.3494 0.315   0.072214
 H 0.5528 0.2767 0.3031   0.107463
 H 0.6653 0.2398 0.337   0.115814
 H 0.5499 0.0485 0.3653   0.099123
 H 0.4406 0.0888 0.3392   0.093216
 H 0.6436 0.0543 0.4506   0.12132
 H 0.8155 0.9257 0.4655   0.136397
 H 0.815 0.8494 0.5474   0.072213
 H 0.3031 0.5528 0.2767   0.107463
 H 0.337 0.6653 0.2398   0.115814
 H 0.3653 0.5499 0.0485   0.099123
 H 0.3392 0.4406 0.0888   0.093216
 H 0.4506 0.6436 0.0543   0.12132
 H 0.4655 0.8155 0.9257   0.136397
 H 0.5474 0.815 0.8494   0.072213
 H 0.2767 0.3031 0.5528   0.107463
 H 0.2398 0.337 0.6653   0.115814
 H 0.0485 0.3653 0.5499   0.099123
 H 0.0888 0.3392 0.4406   0.093216
 H 0.0543 0.4506 0.6436   0.12132
 H 0.9257 0.4655 0.8155   0.136397
 H 0.8494 0.5474 0.815   0.072213
 H 0.2233 0.9472 0.1969   0.107463
 H 0.2602 0.8347 0.163   0.115814
 H 0.4515 0.9501 0.1347   0.099123
 H 0.4112 0.0594 0.1608   0.093216
 H 0.4457 0.8564 0.0494   0.12132
 H 0.5743 0.6845 0.0345   0.136397
 H 0.6506 0.685 0.9526   0.072213
 H 0.9472 0.1969 0.2233   0.107463
 H 0.8347 0.163 0.2602   0.115814
 H 0.9501 0.1347 0.4515   0.099123
 H 0.0594 0.1608 0.4112   0.093216
 H 0.8564 0.0494 0.4457   0.12132
 H 0.6845 0.0345 0.5743   0.136397
 H 0.685 0.9526 0.6506   0.072213
 H 0.1969 0.2233 0.9472   0.107463
 H 0.163 0.2602 0.8347   0.115814
 H 0.1347 0.4515 0.9501   0.099123
 H 0.1608 0.4112 0.0594   0.093216
 H 0.0494 0.4457 0.8564   0.12132
 H 0.0345 0.5743 0.6845   0.136397
 H 0.9526 0.6506 0.685   0.072213
 C 0.5856 0.7849 0.6934   0.67748
 C 0.5145 0.8109 0.6779   -0.110266
 C 0.4476 0.769 0.6811   -0.057106
 C 0.3799 0.7913 0.662   -0.117369
 C 0.3802 0.859 0.642   -0.000868
 C 0.4486 0.9032 0.6446   -0.136009
 C 0.5141 0.8798 0.661   -0.046893
 C 0.3109 0.8839 0.6156   0.288558
 C 0.3121 0.9312 0.5665   -0.24149
 C 0.2116 0.067 0.4961   -0.217837
 C 0.2127 0.1123 0.4476   0.189302
 C 0.6934 0.5856 0.7849   0.67748
 C 0.6779 0.5145 0.8109   -0.110265
 C 0.6811 0.4476 0.769   -0.057106
 C 0.662 0.3799 0.7913   -0.117369
 C 0.642 0.3802 0.859   -0.000868
 C 0.6446 0.4486 0.9032   -0.136009
 C 0.661 0.5141 0.8798   -0.046893
 C 0.6156 0.3109 0.8839   0.288558
 C 0.5665 0.3121 0.9312   -0.24149
 C 0.4961 0.2116 0.067   -0.217837
 C 0.4476 0.2127 0.1123   0.189302
 C 0.7849 0.6934 0.5856   0.677481
 C 0.8109 0.6779 0.5145   -0.110266
 C 0.769 0.6811 0.4476   -0.057106
 C 0.7913 0.662 0.3799   -0.117369
 C 0.859 0.642 0.3802   -0.000868
 C 0.9032 0.6446 0.4486   -0.136009
 C 0.8798 0.661 0.5141   -0.046892
 C 0.8839 0.6156 0.3109   0.288558
 C 0.9312 0.5665 0.3121   -0.24149
 C 0.067 0.4961 0.2116   -0.217837
 C 0.1123 0.4476 0.2127   0.189302
 C 0.7151 0.9144 0.8066   0.67748
 C 0.6891 0.9855 0.8221   -0.110266
 C 0.731 0.0524 0.8189   -0.057106
 C 0.7087 0.1201 0.838   -0.117369
 C 0.641 0.1198 0.858   -0.000869
 C 0.5968 0.0514 0.8554   -0.136009
 C 0.6202 0.9859 0.839   -0.046892
 C 0.6161 0.1891 0.8844   0.28856
 C 0.5688 0.1879 0.9335   -0.24149
 C 0.433 0.2884 0.0039   -0.217836
 C 0.3877 0.2873 0.0524   0.189302
 C 0.9144 0.8066 0.7151   0.67748
 C 0.9855 0.8221 0.6891   -0.110266
 C 0.0524 0.8189 0.731   -0.057106
 C 0.1201 0.838 0.7087   -0.117369
 C 0.1198 0.858 0.641   -0.000869
 C 0.0514 0.8554 0.5968   -0.136009
 C 0.9859 0.839 0.6202   -0.046892
 C 0.1891 0.8844 0.6161   0.28856
 C 0.1879 0.9335 0.5688   -0.24149
 C 0.2884 0.0039 0.433   -0.217836
 C 0.2873 0.0524 0.3877   0.189302
 C 0.8066 0.7151 0.9144   0.677481
 C 0.8221 0.6891 0.9855   -0.110266
 C 0.8189 0.731 0.0524   -0.057106
 C 0.838 0.7087 0.1201   -0.117369
 C 0.858 0.641 0.1198   -0.000869
 C 0.8554 0.5968 0.0514   -0.136009
 C 0.839 0.6202 0.9859   -0.046892
 C 0.8844 0.6161 0.1891   0.28856
 C 0.9335 0.5688 0.1879   -0.24149
 C 0.0039 0.433 0.2884   -0.217836
 C 0.0524 0.3877 0.2873   0.189302
 C 0.4144 0.2151 0.3066   0.67748
 C 0.4855 0.1891 0.3221   -0.110266
 C 0.5524 0.231 0.3189   -0.057105
 C 0.6201 0.2087 0.338   -0.117369
 C 0.6198 0.141 0.358   -0.000868
 C 0.5514 0.0968 0.3554   -0.136009
 C 0.4859 0.1202 0.339   -0.046892
 C 0.6891 0.1161 0.3844   0.288558
 C 0.6879 0.0688 0.4335   -0.24149
 C 0.7884 0.933 0.5039   -0.217837
 C 0.7873 0.8877 0.5524   0.189303
 C 0.3066 0.4144 0.2151   0.677481
 C 0.3221 0.4855 0.1891   -0.110266
 C 0.3189 0.5524 0.231   -0.057106
 C 0.338 0.6201 0.2087   -0.117369
 C 0.358 0.6198 0.141   -0.000868
 C 0.3554 0.5514 0.0968   -0.136009
 C 0.339 0.4859 0.1202   -0.046892
 C 0.3844 0.6891 0.1161   0.288558
 C 0.4335 0.6879 0.0688   -0.24149
 C 0.5039 0.7884 0.933   -0.217837
 C 0.5524 0.7873 0.8877   0.189303
 C 0.2151 0.3066 0.4144   0.677481
 C 0.1891 0.3221 0.4855   -0.110266
 C 0.231 0.3189 0.5524   -0.057106
 C 0.2087 0.338 0.6201   -0.117369
 C 0.141 0.358 0.6198   -0.000868
 C 0.0968 0.3554 0.5514   -0.136009
 C 0.1202 0.339 0.4859   -0.046892
 C 0.1161 0.3844 0.6891   0.288558
 C 0.0688 0.4335 0.6879   -0.24149
 C 0.933 0.5039 0.7884   -0.217836
 C 0.8877 0.5524 0.7873   0.189302
 C 0.2849 0.0856 0.1934   0.67748
 C 0.3109 0.0145 0.1779   -0.110266
 C 0.269 0.9476 0.1811   -0.057105
 C 0.2913 0.8799 0.162   -0.117369
 C 0.359 0.8802 0.142   -0.000869
 C 0.4032 0.9486 0.1446   -0.136009
 C 0.3798 0.0141 0.161   -0.046892
 C 0.3839 0.8109 0.1156   0.28856
 C 0.4312 0.8121 0.0665   -0.24149
 C 0.567 0.7116 0.9961   -0.217836
 C 0.6123 0.7127 0.9476   0.189303
 C 0.0856 0.1934 0.2849   0.677481
 C 0.0145 0.1779 0.3109   -0.110266
 C 0.9476 0.1811 0.269   -0.057106
 C 0.8799 0.162 0.2913   -0.117369
 C 0.8802 0.142 0.359   -0.000869
 C 0.9486 0.1446 0.4032   -0.136009
 C 0.0141 0.161 0.3798   -0.046892
 C 0.8109 0.1156 0.3839   0.28856
 C 0.8121 0.0665 0.4312   -0.24149
 C 0.7116 0.9961 0.567   -0.217836
 C 0.7127 0.9476 0.6123   0.189303
 C 0.1934 0.2849 0.0856   0.677481
 C 0.1779 0.3109 0.0145   -0.110266
 C 0.1811 0.269 0.9476   -0.057106
 C 0.162 0.2913 0.8799   -0.117369
 C 0.142 0.359 0.8802   -0.000869
 C 0.1446 0.4032 0.9486   -0.136009
 C 0.161 0.3798 0.0141   -0.046892
 C 0.1156 0.3839 0.8109   0.28856
 C 0.0665 0.4312 0.8121   -0.24149
 C 0.9961 0.567 0.7116   -0.217836
 C 0.9476 0.6123 0.7127   0.189303
 C 0.25 0.95805 0.54195   0.102776
 C 0.25 0.00935 0.49065   0.117965
 C 0.54195 0.25 0.95805   0.102776
 C 0.49065 0.25 0.00935   0.117965
 C 0.95805 0.54195 0.25   0.102776
 C 0.00935 0.49065 0.25   0.117965
 C 0.75 0.04195 0.45805   0.102776
 C 0.75 0.99065 0.50935   0.117965
 C 0.45805 0.75 0.04195   0.102776
 C 0.50935 0.75 0.99065   0.117965
 C 0.04195 0.45805 0.75   0.102776
 C 0.99065 0.50935 0.75   0.117965
 N 0.25 0.10715 0.39285   -0.290366
 N 0.25 0.85995 0.64005   -0.432922
 N 0.39285 0.25 0.10715   -0.290366
 N 0.64005 0.25 0.85995   -0.432922
 N 0.10715 0.39285 0.25   -0.290366
 N 0.85995 0.64005 0.25   -0.432922
 N 0.75 0.89285 0.60715   -0.290366
 N 0.75 0.14005 0.35995   -0.432922
 N 0.60715 0.75 0.89285   -0.290366
 N 0.35995 0.75 0.14005   -0.432922
 N 0.89285 0.60715 0.75   -0.290366
 N 0.14005 0.35995 0.75   -0.432922
 O 0.5904 0.73707 0.73325   -0.568393
 O 0.63683 0.81506 0.66604   -0.567301
 O 0.73325 0.5904 0.73707   -0.568393
 O 0.66604 0.63683 0.81506   -0.567301
 O 0.73707 0.73325 0.5904   -0.568393
 O 0.81506 0.66604 0.63683   -0.567301
 O 0.76293 0.9096 0.76675   -0.568393
 O 0.68494 0.86317 0.83396   -0.567301
 O 0.9096 0.76675 0.76293   -0.568393
 O 0.86317 0.83396 0.68494   -0.567301
 O 0.76675 0.76293 0.9096   -0.568393
 O 0.83396 0.68494 0.86317   -0.567301
 O 0.4096 0.26293 0.26675   -0.568393
 O 0.36317 0.18494 0.33396   -0.567301
 O 0.26675 0.4096 0.26293   -0.568393
 O 0.33396 0.36317 0.18494   -0.567301
 O 0.26293 0.26675 0.4096   -0.568393
 O 0.18494 0.33396 0.36317   -0.567301
 O 0.23707 0.0904 0.23325   -0.568393
 O 0.31506 0.13683 0.16604   -0.567301
 O 0.0904 0.23325 0.23707   -0.568393
 O 0.13683 0.16604 0.31506   -0.567301
 O 0.23325 0.23707 0.0904   -0.568393
 O 0.16604 0.31506 0.13683   -0.567301
 O 0.25 0.25 0.25   -0.714393
 O 0.75 0.75 0.75   -0.714393
