{'_ref': 'TBD', '_srcid': 'CAKYAQ_clean', 'submitters': [{'name': 'Dalar Nazarian Jeff Camp and David Sholl', 'email': 'dalar@gatech.edu jcamp6@gatech.edu'}], '_method': 'VASP DFT with PBE;DDEC'}
data_Cu3H21(C5N2)4
_symmetry_space_group_name_H-M   'P 1'
_cell_length_a   11.35709965
_cell_length_b   11.49639999
_cell_length_c   12.93520000
_cell_angle_alpha   88.86699836
_cell_angle_beta   64.61400054
_cell_angle_gamma   69.30500060
_symmetry_Int_Tables_number   1
_chemical_formula_structural   Cu3H21(C5N2)4
_chemical_formula_sum   'Cu6 H42 C40 N16'
_cell_volume   1409.91590662
_cell_formula_units_Z   2
loop_
 _symmetry_equiv_pos_site_id
 _symmetry_equiv_pos_as_xyz
  1  'x, y, z'
loop_
 _atom_site_label
 _atom_site_fract_x
 _atom_site_fract_y
 _atom_site_fract_z
 _atom_site_charge
 Cu 0.86319 0.05879 0.00615   0.249455
 Cu 0.17028 0.87794 0.59423   0.286883
 Cu 0.64266 0.81923 0.29311   0.290687
 Cu 0.13681 0.94121 0.99385   0.249458
 Cu 0.82972 0.12206 0.40577   0.286883
 Cu 0.35734 0.18077 0.70689   0.290688
 H 0.8671 0.8881 0.7051   0.299816
 H 0.612 0.198 0.2254   0.280021
 H 0.9176 0.821 0.3052   0.130345
 H 0.7627 0.8578 0.4018   0.109186
 H 0.2218 0.702 0.3253   0.126206
 H 0.1422 0.8124 0.2771   0.132158
 H 0.2188 0.8372 0.3453   0.129044
 H 0.7235 0.583 0.1577   0.115287
 H 0.6013 0.598 0.2811   0.117805
 H 0.8801 0.3585 0.2821   0.120682
 H 0.0113 0.5725 0.4109   0.1248
 H 0.8902 0.4091 0.9585   0.122508
 H 0.9851 0.3499 0.0202   0.131136
 H 0.9689 0.2627 0.9397   0.12948
 H 0.612 0.9526 0.698   0.132161
 H 0.6299 0.8506 0.6078   0.142393
 H 0.6621 0.8102 0.7123   0.123423
 H 0.4523 0.3414 0.4069   0.129484
 H 0.5013 0.4445 0.432   0.132277
 H 0.4036 0.4743 0.3706   0.126631
 H 0.0163 0.3777 0.366   0.070216
 H 0.1329 0.1119 0.2949   0.299815
 H 0.388 0.802 0.7746   0.280022
 H 0.0824 0.179 0.6948   0.130345
 H 0.2373 0.1422 0.5982   0.109186
 H 0.7782 0.298 0.6747   0.126208
 H 0.8578 0.1876 0.7229   0.132159
 H 0.7812 0.1628 0.6547   0.129044
 H 0.2765 0.417 0.8423   0.115287
 H 0.3987 0.402 0.7189   0.117805
 H 0.1199 0.6415 0.7179   0.120682
 H 0.9887 0.4275 0.5891   0.124798
 H 0.1098 0.5909 0.0415   0.122509
 H 0.0149 0.6501 0.9798   0.131135
 H 0.0311 0.7373 0.0603   0.12948
 H 0.388 0.0474 0.302   0.132161
 H 0.3701 0.1494 0.3922   0.142393
 H 0.3379 0.1898 0.2877   0.12342
 H 0.5477 0.6586 0.5931   0.129483
 H 0.4987 0.5555 0.568   0.132277
 H 0.5964 0.5257 0.6294   0.126631
 H 0.9837 0.6223 0.634   0.070212
 C 0.03416 0.82102 0.45036   0.224235
 C 0.98777 0.98815 0.85227   -0.122003
 C 0.79742 0.33014 0.0958   0.22419
 C 0.6979 0.91674 0.17761   -0.153813
 C 0.90366 0.82207 0.46723   -0.197005
 C 0.6067 0.36428 0.26323   0.155203
 C 0.81952 0.8527 0.58481   0.166898
 C 0.85936 0.80019 0.3774   -0.200143
 C 0.69927 0.41862 0.19656   -0.204275
 C 0.86888 0.66896 0.35466   0.29075
 C 0.166 0.7904 0.33965   -0.37133
 C 0.79223 0.54434 0.28082   0.285005
 C 0.6972 0.54479 0.22744   -0.188856
 C 0.8776 0.43714 0.3013   -0.233161
 C 0.9559 0.56442 0.3777   -0.24703
 C 0.9214 0.3387 0.9945   -0.365692
 C 0.6668 0.8679 0.6574   -0.362006
 C 0.4796 0.4102 0.3785   -0.354046
 C 0.9587 0.449 0.3507   0.039939
 C 0.3563 0.84809 0.48951   -0.141453
 C 0.96584 0.17898 0.54964   0.224235
 C 0.01223 0.01185 0.14773   -0.122003
 C 0.20258 0.66986 0.9042   0.224192
 C 0.3021 0.08326 0.82239   -0.153813
 C 0.09634 0.17793 0.53277   -0.197005
 C 0.3933 0.63572 0.73677   0.155203
 C 0.18048 0.1473 0.41519   0.166898
 C 0.14064 0.19981 0.6226   -0.200143
 C 0.30073 0.58138 0.80344   -0.204274
 C 0.13112 0.33104 0.64534   0.29075
 C 0.834 0.2096 0.66035   -0.371331
 C 0.20777 0.45566 0.71918   0.285005
 C 0.3028 0.45521 0.77256   -0.188856
 C 0.1224 0.56286 0.6987   -0.233161
 C 0.0441 0.43558 0.6223   -0.247029
 C 0.0786 0.6613 0.0055   -0.365693
 C 0.3332 0.1321 0.3426   -0.362005
 C 0.5204 0.5898 0.6215   -0.354046
 C 0.0413 0.551 0.6493   0.03994
 C 0.6437 0.15191 0.51049   -0.141452
 N 0.76677 0.22866 0.1006   -0.222053
 N 0.78782 0.65779 0.30773   -0.348388
 N 0.89772 0.86786 0.63194   -0.11508
 N 0.03115 0.84788 0.55187   -0.272441
 N 0.73707 0.97692 0.11123   -0.297398
 N 0.65227 0.25085 0.20193   -0.116463
 N 0.05615 0.94303 0.75739   -0.311185
 N 0.4671 0.83539 0.42002   -0.314488
 N 0.23323 0.77134 0.8994   -0.222053
 N 0.21218 0.34221 0.69227   -0.348388
 N 0.10228 0.13214 0.36806   -0.11508
 N 0.96885 0.15212 0.44813   -0.272441
 N 0.26293 0.02308 0.88877   -0.297398
 N 0.34773 0.74915 0.79807   -0.116463
 N 0.94385 0.05697 0.24261   -0.311184
 N 0.5329 0.16461 0.57998   -0.314488
