{'_ref': 'TBD', '_srcid': 'CAKYAQ_clean', 'submitters': [{'name': 'Dalar Nazarian Jeff Camp and David Sholl', 'email': 'dalar@gatech.edu jcamp6@gatech.edu'}], '_method': 'VASP DFT with PBE;DDEC'}
data_Cu3H21(C5N2)4
_symmetry_space_group_name_H-M   'P 1'
_cell_length_a   11.45690041
_cell_length_b   11.47229991
_cell_length_c   13.11990000
_cell_angle_alpha   90.17599840
_cell_angle_beta   115.70500097
_cell_angle_gamma   110.14699835
_symmetry_Int_Tables_number   1
_chemical_formula_structural   Cu3H21(C5N2)4
_chemical_formula_sum   'Cu6 H42 C40 N16'
_cell_volume   1434.825909
_cell_formula_units_Z   2
loop_
 _symmetry_equiv_pos_site_id
 _symmetry_equiv_pos_as_xyz
  1  'x, y, z'
loop_
 _atom_site_label
 _atom_site_fract_x
 _atom_site_fract_y
 _atom_site_fract_z
 _atom_site_charge
 Cu 0.82917 0.87972 0.59108   0.282534
 Cu 0.13897 0.04955 0.00474   0.251185
 Cu 0.35496 0.81607 0.29581   0.296649
 Cu 0.17083 0.12028 0.40892   0.282534
 Cu 0.86103 0.95045 0.99526   0.251184
 Cu 0.64504 0.18393 0.70419   0.296649
 H 0.5551 0.3393 0.401   0.128382
 H 0.5846 0.4785 0.3796   0.130374
 H 0.4897 0.4201 0.4384   0.132938
 H 0.3849 0.1901 0.2281   0.281258
 H 0.129 0.8949 0.7027   0.293538
 H 0.9944 0.2859 0.004   0.139503
 H 0.09 0.4193 0.9989   0.122798
 H 0.0722 0.2978 0.9291   0.131382
 H 0.3992 0.5933 0.286   0.117616
 H 0.2757 0.576 0.1639   0.112753
 H 0.1292 0.3563 0.2913   0.11827
 H 0.9966 0.3779 0.3772   0.07334
 H 0.000100000000003 0.5746 0.4192   0.120905
 H 0.0877 0.8198 0.3116   0.131092
 H 0.2413 0.8585 0.4098   0.111156
 H 0.3398 0.8342 0.7255   0.125431
 H 0.3649 0.8421 0.6169   0.137489
 H 0.3887 0.965 0.6889   0.130471
 H 0.7682 0.8068 0.3511   0.128645
 H 0.857 0.8324 0.2843   0.130261
 H 0.7992 0.6972 0.3106   0.126374
 H 0.4449 0.6607 0.599   0.128381
 H 0.4154 0.5215 0.6204   0.130374
 H 0.5103 0.5799 0.5616   0.132939
 H 0.6151 0.8099 0.7719   0.281259
 H 0.871 0.1051 0.2973   0.293538
 H 0.0056 0.7141 0.996   0.139503
 H 0.91 0.5807 0.0011   0.122798
 H 0.9278 0.7022 0.0709   0.131384
 H 0.6008 0.4067 0.714   0.117616
 H 0.7243 0.424 0.8361   0.112753
 H 0.8708 0.6437 0.7087   0.11827
 H 0.0034 0.6221 0.6228   0.073338
 H 0.9999 0.4254 0.5808   0.120903
 H 0.9123 0.1802 0.6884   0.131093
 H 0.7587 0.1415 0.5902   0.111156
 H 0.6602 0.1658 0.2745   0.125429
 H 0.6351 0.1579 0.3831   0.137489
 H 0.6113 0.035 0.3111   0.130471
 H 0.2318 0.1932 0.6489   0.128645
 H 0.143 0.1676 0.7157   0.130262
 H 0.2008 0.3028 0.6894   0.126375
 C 0.516 0.4027 0.3816   -0.363151
 C 0.3894 0.3565 0.26627   0.165071
 C 0.30065 0.41222 0.20138   -0.200423
 C 0.20246 0.3233 0.10029   0.219634
 C 0.0786 0.3324 0.9989   -0.373973
 C 0.3033 0.5392 0.23284   -0.187883
 C 0.21059 0.54015 0.28651   0.284556
 C 0.1305 0.4352 0.3096   -0.225426
 C 0.0513 0.4482 0.3604   0.036774
 C 0.0539 0.565 0.3859   -0.242806
 C 0.1369 0.66821 0.36168   0.287878
 C 0.1452 0.8005 0.38385   -0.202199
 C 0.3324 0.8765 0.6613   -0.358114
 C 0.18052 0.8582 0.58654   0.168622
 C 0.09954 0.82449 0.47059   -0.197478
 C 0.96671 0.8197 0.44991   0.224377
 C 0.8362 0.7861 0.33917   -0.369376
 C 0.01662 0.9855 0.84877   -0.123949
 C 0.29618 0.90997 0.18121   -0.156833
 C 0.64355 0.8485 0.48797   -0.1416
 C 0.484 0.5973 0.6184   -0.363152
 C 0.6106 0.6435 0.73373   0.165071
 C 0.69935 0.58778 0.79862   -0.200423
 C 0.79754 0.6767 0.89971   0.219635
 C 0.9214 0.6676 0.0011   -0.373974
 C 0.6967 0.4608 0.76716   -0.187884
 C 0.78941 0.45985 0.71349   0.284556
 C 0.8695 0.5648 0.6904   -0.225427
 C 0.9487 0.5518 0.6396   0.036775
 C 0.9461 0.435 0.6141   -0.242806
 C 0.8631 0.33179 0.63832   0.287878
 C 0.8548 0.1995 0.61615   -0.202199
 C 0.6676 0.1235 0.3387   -0.358113
 C 0.81948 0.1418 0.41346   0.168622
 C 0.90046 0.17551 0.52941   -0.197478
 C 0.03329 0.1803 0.55009   0.224377
 C 0.1638 0.2139 0.66083   -0.369376
 C 0.98338 0.0145 0.15123   -0.123949
 C 0.70382 0.09003 0.81879   -0.156833
 C 0.35645 0.1515 0.51203   -0.1416
 N 0.2301 0.21959 0.1031   -0.225433
 N 0.34482 0.24274 0.20503   -0.12146
 N 0.21485 0.65588 0.31273   -0.351876
 N 0.09997 0.87289 0.63048   -0.115841
 N 0.96775 0.84923 0.54874   -0.270069
 N 0.94758 0.9443 0.75345   -0.309001
 N 0.25506 0.96765 0.11408   -0.294523
 N 0.5329 0.83358 0.41946   -0.309838
 N 0.7699 0.78041 0.8969   -0.225432
 N 0.65518 0.75726 0.79497   -0.12146
 N 0.78515 0.34412 0.68727   -0.351876
 N 0.90003 0.12711 0.36952   -0.115841
 N 0.03225 0.15077 0.45126   -0.270069
 N 0.05242 0.0557 0.24655   -0.309001
 N 0.74494 0.03235 0.88592   -0.294523
 N 0.4671 0.16642 0.58054   -0.309838
