{'_ref': 'TBD', '_srcid': 'CAKYAQ_clean', 'submitters': [{'name': 'Dalar Nazarian Jeff Camp and David Sholl', 'email': 'dalar@gatech.edu jcamp6@gatech.edu'}], '_method': 'VASP DFT with PBE;DDEC'}
data_Cu3H21(C5N2)4
_symmetry_space_group_name_H-M   'P 1'
_cell_length_a   11.37000047
_cell_length_b   11.42739947
_cell_length_c   12.19120000
_cell_angle_alpha   67.95199990
_cell_angle_beta   87.74300079
_cell_angle_gamma   69.80300069
_symmetry_Int_Tables_number   1
_chemical_formula_structural   Cu3H21(C5N2)4
_chemical_formula_sum   'Cu6 H42 C40 N16'
_cell_volume   1370.45258014
_cell_formula_units_Z   2
loop_
 _symmetry_equiv_pos_site_id
 _symmetry_equiv_pos_as_xyz
  1  'x, y, z'
loop_
 _atom_site_label
 _atom_site_fract_x
 _atom_site_fract_y
 _atom_site_fract_z
 _atom_site_charge
 Cu 0.31511 0.63247 0.27502   0.297707
 Cu 0.37101 0.1839 0.58052   0.278574
 Cu 0.5482 0.87651 0.98994   0.254021
 Cu 0.68489 0.36753 0.72498   0.297708
 Cu 0.62899 0.8161 0.41948   0.278574
 Cu 0.4518 0.12349 0.01006   0.254025
 H 0.9142 0.4145 0.3317   0.126495
 H 0.9662 0.493 0.391   0.142006
 H 0.8231 0.5004 0.3996   0.136512
 H 0.683 0.6219 0.1953   0.29133
 H 0.3908 0.8906 0.7161   0.300165
 H 0.769 0.9605 0.9118   0.131724
 H 0.8514 0.98 0.0025   0.134607
 H 0.9184 0.8835 0.9339   0.122625
 H 0.0906 0.606 0.2525   0.118486
 H 0.0811 0.7268 0.1285   0.118024
 H 0.8535 0.8881 0.2607   0.125985
 H 0.8791 0.0221 0.3562   0.074389
 H 0.0791 0.996 0.419   0.120029
 H 0.3488 0.8568 0.3231   0.128777
 H 0.3537 0.7231 0.4333   0.118183
 H 0.2908 0.6793 0.7158   0.122356
 H 0.3951 0.6182 0.6405   0.13878
 H 0.4362 0.6504 0.7469   0.141462
 H 0.3065 0.205 0.342   0.129962
 H 0.3377 0.1004 0.2776   0.129301
 H 0.1981 0.1592 0.3113   0.126469
 H 0.0858 0.5855 0.6683   0.126497
 H 0.0338 0.507 0.609   0.142006
 H 0.1769 0.4996 0.6004   0.136511
 H 0.317 0.3781 0.8047   0.291331
 H 0.6092 0.1094 0.2839   0.300162
 H 0.231 0.0395 0.0882   0.131725
 H 0.1486 0.02 0.9975   0.134607
 H 0.0816 0.1165 0.0661   0.122629
 H 0.9094 0.394 0.7475   0.118486
 H 0.9189 0.2732 0.8715   0.118024
 H 0.1465 0.1119 0.7393   0.125984
 H 0.1209 0.9779 0.6438   0.074384
 H 0.9209 0.004 0.581   0.120026
 H 0.6512 0.1432 0.6769   0.128777
 H 0.6463 0.2769 0.5667   0.118183
 H 0.7092 0.3207 0.2842   0.122354
 H 0.6049 0.3818 0.3595   0.138779
 H 0.5638 0.3496 0.2531   0.141461
 H 0.6935 0.795 0.658   0.129961
 H 0.6623 0.8996 0.7224   0.129301
 H 0.8019 0.8408 0.6887   0.126472
 C 0.8926 0.496 0.3493   -0.370612
 C 0.8532 0.6184 0.2353   0.163306
 C 0.9134 0.7057 0.1693   -0.201655
 C 0.8265 0.8006 0.0688   0.236388
 C 0.8427 0.9157 0.9711   -0.376937
 C 0.0397 0.7008 0.2022   -0.195912
 C 0.0427 0.7878 0.2665   0.28783
 C 0.9351 0.8796 0.2859   -0.239038
 C 0.9507 0.9574 0.3426   0.040903
 C 0.0683 0.9423 0.3794   -0.249029
 C 0.1721 0.8484 0.3588   0.294347
 C 0.3086 0.822 0.3957   -0.210396
 C 0.3706 0.6799 0.6825   -0.374825
 C 0.3546 0.8213 0.5964   0.170161
 C 0.3257 0.8836 0.4793   -0.179319
 C 0.3206 0.0164 0.4531   0.232408
 C 0.288 0.1297 0.3362   -0.379901
 C 0.4773 0.0144 0.8415   -0.130267
 C 0.411 0.6948 0.1544   -0.163605
 C 0.3404 0.3584 0.4671   -0.140767
 C 0.1074 0.504 0.6507   -0.370613
 C 0.1468 0.3816 0.7647   0.163308
 C 0.0866 0.2943 0.8307   -0.201649
 C 0.1735 0.1994 0.9312   0.236392
 C 0.1573 0.0843 0.0289   -0.37694
 C 0.9603 0.2992 0.7978   -0.195913
 C 0.9573 0.2122 0.7335   0.28783
 C 0.0649 0.1204 0.7141   -0.239038
 C 0.0493 0.0426 0.6574   0.040904
 C 0.9317 0.0577 0.6206   -0.249029
 C 0.8279 0.1516 0.6412   0.294347
 C 0.6914 0.178 0.6043   -0.210396
 C 0.6294 0.3201 0.3175   -0.374824
 C 0.6454 0.1787 0.4036   0.17016
 C 0.6743 0.1164 0.5207   -0.179319
 C 0.6794 0.9836 0.5469   0.232408
 C 0.712 0.8703 0.6638   -0.379901
 C 0.5227 0.9856 0.1585   -0.130267
 C 0.589 0.3052 0.8456   -0.163605
 C 0.6596 0.6416 0.5329   -0.140767
 N 0.7222 0.7735 0.0725   -0.224205
 N 0.7388 0.6615 0.1731   -0.138236
 N 0.1592 0.7727 0.3036   -0.342617
 N 0.3696 0.9099 0.641   -0.147795
 N 0.3463 0.0318 0.5506   -0.251342
 N 0.435 0.087 0.7472   -0.297708
 N 0.4687 0.7453 0.0843   -0.305528
 N 0.3265 0.462 0.3937   -0.313623
 N 0.2778 0.2265 0.9275   -0.224206
 N 0.2612 0.3385 0.8269   -0.138235
 N 0.8408 0.2273 0.6964   -0.342617
 N 0.6304 0.0901 0.359   -0.147794
 N 0.6537 0.9682 0.4494   -0.251343
 N 0.565 0.913 0.2528   -0.297706
 N 0.5313 0.2547 0.9157   -0.305528
 N 0.6735 0.538 0.6063   -0.313623
