{'_ref': 'TBD', '_srcid': 'CAKYAQ_clean', 'submitters': [{'name': 'Dalar Nazarian Jeff Camp and David Sholl', 'email': 'dalar@gatech.edu jcamp6@gatech.edu'}], '_method': 'VASP DFT with PBE;DDEC'}
data_Cu2H15C23O9
_symmetry_space_group_name_H-M   'P 1'
_cell_length_a   5.73769987
_cell_length_b   15.59179990
_cell_length_c   15.59180000
_cell_angle_alpha   110.34500094
_cell_angle_beta   94.64720334
_cell_angle_gamma   94.64719958
_symmetry_Int_Tables_number   1
_chemical_formula_structural   Cu2H15C23O9
_chemical_formula_sum   'Cu4 H30 C46 O18'
_cell_volume   1294.61495364
_cell_formula_units_Z   2
loop_
 _symmetry_equiv_pos_site_id
 _symmetry_equiv_pos_as_xyz
  1  'x, y, z'
loop_
 _atom_site_label
 _atom_site_fract_x
 _atom_site_fract_y
 _atom_site_fract_z
 _atom_site_charge
 Cu 0.95006 0.56174 0.60533   1.08975
 Cu 0.54994 0.39467 0.43826   1.08975
 Cu 0.04994 0.43826 0.39467   1.089751
 Cu 0.45006 0.60533 0.56174   1.089751
 H 0.4412 0.246 0.607   0.139065
 H 0.1012 0.1458 0.6352   0.063383
 H 0.2853 0.1017 0.5643   0.055328
 H 0.8199 0.0429 0.6711   0.100983
 H 0.6735 0.8948 0.6612   0.108697
 H 0.2499 0.7954 0.5452   0.098999
 H 0.3818 0.9422 0.5468   0.101244
 H 0.0588 0.393 0.754   0.139065
 H 0.3988 0.3648 0.8542   0.063383
 H 0.2147 0.4357 0.8983   0.055328
 H 0.6801 0.3289 0.9571   0.100983
 H 0.8265 0.3388 0.1052   0.108697
 H 0.2501 0.4548 0.2046   0.098999
 H 0.1182 0.4532 0.0578   0.101243
 H 0.5588 0.754 0.393   0.139065
 H 0.8988 0.8542 0.3648   0.063383
 H 0.7147 0.8983 0.4357   0.055327
 H 0.1801 0.9571 0.3289   0.100983
 H 0.3265 0.1052 0.3388   0.108697
 H 0.7501 0.2046 0.4548   0.098999
 H 0.6182 0.0578 0.4532   0.101241
 H 0.9412 0.607 0.246   0.139065
 H 0.6012 0.6352 0.1458   0.063383
 H 0.7853 0.5643 0.1017   0.055327
 H 0.3199 0.6711 0.0429   0.100983
 H 0.1735 0.6612 0.8948   0.108697
 H 0.7499 0.5452 0.7954   0.098999
 H 0.8818 0.5468 0.9422   0.101241
 H 0.75 0.1819 0.8181   0.173951
 H 0.25 0.8181 0.1819   0.17395
 C 0.5659 0.25665 0.65477   -0.283908
 C 0.5707 0.20212 0.70906   0.310137
 C 0.2215 0.10228 0.62156   0.080921
 C 0.117 0.00732 0.61174   0.042524
 C 0.9064 0.9926 0.64488   -0.135659
 C 0.8204 0.90465 0.64001   -0.031447
 C 0.9505 0.83128 0.60392   -0.136361
 C 0.161 0.84526 0.56994   -0.021359
 C 0.2412 0.93307 0.57233   -0.140343
 C 0.8617 0.73733 0.60113   0.701843
 C 0.9341 0.34523 0.74335   -0.283908
 C 0.9293 0.29094 0.79788   0.310137
 C 0.2785 0.37844 0.89772   0.080921
 C 0.383 0.38826 0.99268   0.042524
 C 0.5936 0.35512 0.0074   -0.135659
 C 0.6796 0.35999 0.09535   -0.031447
 C 0.5495 0.39608 0.16872   -0.136361
 C 0.339 0.43006 0.15474   -0.021359
 C 0.2588 0.42767 0.06693   -0.140343
 C 0.6383 0.39887 0.26267   0.701843
 C 0.4341 0.74335 0.34523   -0.283908
 C 0.4293 0.79788 0.29094   0.310137
 C 0.7785 0.89772 0.37844   0.080921
 C 0.883 0.99268 0.38826   0.042525
 C 0.0936 0.0074 0.35512   -0.135659
 C 0.1796 0.09535 0.35999   -0.031448
 C 0.0495 0.16872 0.39608   -0.136361
 C 0.839 0.15474 0.43006   -0.021359
 C 0.7588 0.06693 0.42767   -0.140343
 C 0.1383 0.26267 0.39887   0.701843
 C 0.0659 0.65477 0.25665   -0.283908
 C 0.0707 0.70906 0.20212   0.310137
 C 0.7215 0.62156 0.10228   0.080921
 C 0.617 0.61174 0.00732   0.042525
 C 0.4064 0.64488 0.9926   -0.135659
 C 0.3204 0.64001 0.90465   -0.031448
 C 0.4505 0.60392 0.83128   -0.136361
 C 0.661 0.56994 0.84526   -0.021359
 C 0.7412 0.57233 0.93307   -0.140342
 C 0.3617 0.60113 0.73733   0.701843
 C 0.75 0.38586 0.61414   0.655624
 C 0.75 0.32755 0.67245   -0.003637
 C 0.75 0.21903 0.78097   -0.345483
 C 0.25 0.61414 0.38586   0.655624
 C 0.25 0.67245 0.32755   -0.003637
 C 0.25 0.78097 0.21903   -0.345483
 O 0.9192 0.44899 0.63259   -0.526769
 O 0.4074 0.12848 0.69716   -0.277024
 O 0.0056 0.67748 0.58488   -0.591445
 O 0.6483 0.72408 0.6147   -0.580657
 O 0.5808 0.36741 0.55101   -0.526769
 O 0.0926 0.30284 0.87152   -0.277024
 O 0.4944 0.41512 0.32252   -0.591445
 O 0.8517 0.3853 0.27592   -0.580657
 O 0.0808 0.55101 0.36741   -0.526768
 O 0.5926 0.87152 0.30284   -0.277024
 O 0.9944 0.32252 0.41512   -0.591445
 O 0.3517 0.27592 0.3853   -0.580656
 O 0.4192 0.63259 0.44899   -0.526769
 O 0.9074 0.69716 0.12848   -0.277024
 O 0.5056 0.58488 0.67748   -0.591445
 O 0.1483 0.6147 0.72408   -0.580656
 O 0.75 0.5094 0.4906   -0.81626
 O 0.25 0.4906 0.5094   -0.81626
