{'_ref': 'TBD', '_srcid': 'CAKYAQ_clean', 'submitters': [{'name': 'Dalar Nazarian Jeff Camp and David Sholl', 'email': 'dalar@gatech.edu jcamp6@gatech.edu'}], '_method': 'VASP DFT with PBE;DDEC'}
data_Zn3H8C14(NO)8
_symmetry_space_group_name_H-M   'P 1'
_cell_length_a   7.97699979
_cell_length_b   9.28209964
_cell_length_c   15.85190000
_cell_angle_alpha   85.38679964
_cell_angle_beta   79.21199685
_cell_angle_gamma   64.55160074
_symmetry_Int_Tables_number   1
_chemical_formula_structural   Zn3H8C14(NO)8
_chemical_formula_sum   'Zn6 H16 C28 N16 O16'
_cell_volume   1041.11227167
_cell_formula_units_Z   2
loop_
 _symmetry_equiv_pos_site_id
 _symmetry_equiv_pos_as_xyz
  1  'x, y, z'
loop_
 _atom_site_label
 _atom_site_fract_x
 _atom_site_fract_y
 _atom_site_fract_z
 _atom_site_charge
 Zn 0.25056 0.35124 0.50431   0.892358
 Zn 0.3982 0.35124 0.99569   0.891933
 Zn 0.74944 0.64876 0.49569   0.892358
 Zn 0.6018 0.64876 0.00431   0.891933
 Zn 0.93553 0.12894 0.25   0.965526
 Zn 0.06447 0.87106 0.75   0.965526
 H 0.8302 0.2088 0.5945   0.112341
 H 0.394 0.0964 0.3652   0.367972
 H 0.3169 0.045 0.3006   0.364866
 H 0.7187 0.4408 0.358   0.101004
 H 0.961 0.2088 0.9055   0.111839
 H 0.5096 0.0964 0.1348   0.366654
 H 0.6381 0.045 0.1994   0.364489
 H 0.8405 0.4408 0.142   0.101734
 H 0.1698 0.7912 0.4055   0.11234
 H 0.606 0.9036 0.6348   0.367972
 H 0.6831 0.955 0.6994   0.364867
 H 0.2813 0.5592 0.642   0.101004
 H 0.039 0.7912 0.0945   0.111839
 H 0.4904 0.9036 0.8652   0.366654
 H 0.3619 0.955 0.8006   0.36449
 H 0.1595 0.5592 0.858   0.101734
 C 0.6008 0.19 0.5014   0.633781
 C 0.8993 0.1244 0.5562   -0.03675
 C 0.9114 0.9632 0.4419   -0.137201
 C 0.8076 0.0908 0.4988   -0.099851
 C 0.1309 0.2338 0.3633   0.656118
 C 0.8416 0.3928 0.3688   0.295423
 C 0.8313 0.9154 0.3758   0.715152
 C 0.2092 0.19 0.9986   0.632953
 C 0.9763 0.1244 0.9438   -0.036846
 C 0.1254 0.9632 0.0581   -0.136051
 C 0.1016 0.0908 0.0012   -0.100344
 C 0.6353 0.2338 0.1367   0.653575
 C 0.7656 0.3928 0.1312   0.293142
 C 0.2533 0.9154 0.1242   0.713857
 C 0.3992 0.81 0.4986   0.633781
 C 0.1007 0.8756 0.4438   -0.036745
 C 0.0886 0.0368 0.5581   -0.137196
 C 0.1924 0.9092 0.5012   -0.099853
 C 0.8691 0.7662 0.6367   0.656118
 C 0.1584 0.6072 0.6312   0.295423
 C 0.1687 0.0846 0.6242   0.715151
 C 0.7908 0.81 0.0014   0.632953
 C 0.0237 0.8756 0.0562   -0.036846
 C 0.8746 0.0368 0.9419   -0.13605
 C 0.8984 0.9092 0.9988   -0.100344
 C 0.3647 0.7662 0.8633   0.653575
 C 0.2344 0.6072 0.8688   0.293142
 C 0.7467 0.0846 0.8758   0.713857
 N 0.0904 0.3418 0.4237   -0.410283
 N 0.3014 0.11 0.3402   -0.742406
 N 0.9772 0.2616 0.3277   -0.59047
 N 0.902 0.4454 0.4259   -0.258941
 N 0.5678 0.3418 0.0763   -0.409007
 N 0.5886 0.11 0.1598   -0.740111
 N 0.7612 0.2616 0.1723   -0.588168
 N 0.6526 0.4454 0.0741   -0.258629
 N 0.9096 0.6582 0.5763   -0.410283
 N 0.6986 0.89 0.6598   -0.742406
 N 0.0228 0.7384 0.6723   -0.59047
 N 0.098 0.5546 0.5741   -0.258941
 N 0.4322 0.6582 0.9237   -0.409007
 N 0.4114 0.89 0.8402   -0.740111
 N 0.2388 0.7384 0.8277   -0.588168
 N 0.3474 0.5546 0.9259   -0.258629
 O 0.5159 0.1558 0.4528   -0.579549
 O 0.5147 0.3056 0.5518   -0.580851
 O 0.79 0.7986 0.3908   -0.573134
 O 0.8253 0.9836 0.3033   -0.612517
 O 0.3283 0.1558 0.0472   -0.578359
 O 0.1797 0.3056 0.9482   -0.58085
 O 0.4114 0.7986 0.1092   -0.572586
 O 0.1911 0.9836 0.1967   -0.611816
 O 0.4841 0.8442 0.5472   -0.579549
 O 0.4853 0.6944 0.4482   -0.580851
 O 0.21 0.2014 0.6092   -0.573134
 O 0.1747 0.0164 0.6967   -0.612517
 O 0.6717 0.8442 0.9528   -0.57836
 O 0.8203 0.6944 0.0518   -0.580849
 O 0.5886 0.2014 0.8908   -0.572586
 O 0.8089 0.0164 0.8033   -0.611816
