{'_ref': 'TBD', '_srcid': 'CAKYAQ_clean', 'submitters': [{'name': 'Dalar Nazarian Jeff Camp and David Sholl', 'email': 'dalar@gatech.edu jcamp6@gatech.edu'}], '_method': 'VASP DFT with PBE;DDEC'}
data_ZnH5C6(N2O)2
_symmetry_space_group_name_H-M   'P 1'
_cell_length_a   12.70000000
_cell_length_b   12.70000000
_cell_length_c   25.36400000
_cell_angle_alpha   90.00000000
_cell_angle_beta   90.00000000
_cell_angle_gamma   90.00000000
_symmetry_Int_Tables_number   1
_chemical_formula_structural   ZnH5C6(N2O)2
_chemical_formula_sum   'Zn16 H80 C96 N64 O32'
_cell_volume   4090.95956
_cell_formula_units_Z   16
loop_
 _symmetry_equiv_pos_site_id
 _symmetry_equiv_pos_as_xyz
  1  'x, y, z'
loop_
 _atom_site_label
 _atom_site_fract_x
 _atom_site_fract_y
 _atom_site_fract_z
 _atom_site_charge
 Zn 0.03855 0.93074 0.43753   0.825133
 Zn 0.46145 0.56926 0.43753   0.825133
 Zn 0.56926 0.03855 0.43753   0.825133
 Zn 0.93074 0.46145 0.43753   0.825133
 Zn 0.46145 0.93074 0.06247   0.825133
 Zn 0.03855 0.56926 0.06247   0.825133
 Zn 0.93074 0.03855 0.06247   0.825133
 Zn 0.56926 0.46145 0.06247   0.825133
 Zn 0.96145 0.06926 0.56247   0.825133
 Zn 0.53855 0.43074 0.56247   0.825133
 Zn 0.43074 0.96145 0.56247   0.825133
 Zn 0.06926 0.53855 0.56247   0.825133
 Zn 0.53855 0.06926 0.93753   0.825133
 Zn 0.96145 0.43074 0.93753   0.825133
 Zn 0.06926 0.96145 0.93753   0.825133
 Zn 0.43074 0.53855 0.93753   0.825133
 H 0.2767 0.9397 0.4687   0.110116
 H 0.0713 0.927 0.2374   0.087165
 H 0.1836 0.9317 0.1656   0.094565
 H 0.256 0.0323 0.6457   0.356174
 H 0.1395 0.0449 0.6474   0.362189
 H 0.2233 0.5603 0.4687   0.110117
 H 0.4287 0.573 0.2374   0.087165
 H 0.3164 0.5683 0.1656   0.094565
 H 0.244 0.4677 0.6457   0.356174
 H 0.3605 0.4551 0.6474   0.362189
 H 0.5603 0.2767 0.4687   0.110116
 H 0.573 0.0713 0.2374   0.087165
 H 0.5683 0.1836 0.1656   0.094565
 H 0.4677 0.256 0.6457   0.356175
 H 0.4551 0.1395 0.6474   0.36219
 H 0.9397 0.2233 0.4687   0.110116
 H 0.927 0.4287 0.2374   0.087165
 H 0.9317 0.3164 0.1656   0.094565
 H 0.0323 0.244 0.6457   0.356175
 H 0.0449 0.3605 0.6474   0.36219
 H 0.2233 0.9397 0.0313   0.110116
 H 0.4287 0.927 0.2626   0.087165
 H 0.3164 0.9317 0.3344   0.094565
 H 0.244 0.0323 0.8543   0.356174
 H 0.3605 0.0449 0.8526   0.362189
 H 0.2767 0.5603 0.0313   0.110117
 H 0.0713 0.573 0.2626   0.087165
 H 0.1836 0.5683 0.3344   0.094565
 H 0.256 0.4677 0.8543   0.356175
 H 0.1395 0.4551 0.8526   0.362189
 H 0.9397 0.2767 0.0313   0.110116
 H 0.927 0.0713 0.2626   0.087165
 H 0.9317 0.1836 0.3344   0.094565
 H 0.0323 0.256 0.8543   0.356175
 H 0.0449 0.1395 0.8526   0.36219
 H 0.5603 0.2233 0.0313   0.110116
 H 0.573 0.4287 0.2626   0.087165
 H 0.5683 0.3164 0.3344   0.094565
 H 0.4677 0.244 0.8543   0.356175
 H 0.4551 0.3605 0.8526   0.36219
 H 0.7233 0.0603 0.5313   0.110116
 H 0.9287 0.073 0.7626   0.087166
 H 0.8164 0.0683 0.8344   0.094565
 H 0.744 0.9677 0.3543   0.356174
 H 0.8605 0.9551 0.3526   0.362189
 H 0.7767 0.4397 0.5313   0.110116
 H 0.5713 0.427 0.7626   0.087166
 H 0.6836 0.4317 0.8344   0.094565
 H 0.756 0.5323 0.3543   0.356174
 H 0.6395 0.5449 0.3526   0.362189
 H 0.4397 0.7233 0.5313   0.110116
 H 0.427 0.9287 0.7626   0.087166
 H 0.4317 0.8164 0.8344   0.094565
 H 0.5323 0.744 0.3543   0.356175
 H 0.5449 0.8605 0.3526   0.362189
 H 0.0603 0.7767 0.5313   0.110116
 H 0.073 0.5713 0.7626   0.087166
 H 0.0683 0.6836 0.8344   0.094565
 H 0.9677 0.756 0.3543   0.356175
 H 0.9551 0.6395 0.3526   0.362189
 H 0.7767 0.0603 0.9687   0.110116
 H 0.5713 0.073 0.7374   0.087165
 H 0.6836 0.0683 0.6656   0.094565
 H 0.756 0.9677 0.1457   0.356175
 H 0.6395 0.9551 0.1474   0.362189
 H 0.7233 0.4397 0.9687   0.110116
 H 0.9287 0.427 0.7374   0.087165
 H 0.8164 0.4317 0.6656   0.094565
 H 0.744 0.5323 0.1457   0.356175
 H 0.8605 0.5449 0.1474   0.362189
 H 0.0603 0.7233 0.9687   0.110116
 H 0.073 0.9287 0.7374   0.087165
 H 0.0683 0.8164 0.6656   0.094565
 H 0.9677 0.744 0.1457   0.356176
 H 0.9551 0.8605 0.1474   0.362189
 H 0.4397 0.7767 0.9687   0.110116
 H 0.427 0.5713 0.7374   0.087165
 H 0.4317 0.6836 0.6656   0.094565
 H 0.5323 0.756 0.1457   0.356176
 H 0.5449 0.6395 0.1474   0.362189
 C 0.1904 0.0046 0.58245   0.641608
 C 0.237 0.9586 0.49801   0.229448
 C 0.182 0.9306 0.2927   -0.120847
 C 0.1437 0.9291 0.2428   -0.054747
 C 0.211 0.9307 0.1996   -0.053168
 C 0.1075 0.9311 0.3388   0.67831
 C 0.3096 0.4954 0.58245   0.641609
 C 0.263 0.5414 0.49801   0.229448
 C 0.318 0.5694 0.2927   -0.120847
 C 0.3563 0.5709 0.2428   -0.054747
 C 0.289 0.5693 0.1996   -0.053168
 C 0.3925 0.5689 0.3388   0.67831
 C 0.4954 0.1904 0.58245   0.64161
 C 0.5414 0.237 0.49801   0.229448
 C 0.5694 0.182 0.2927   -0.120847
 C 0.5709 0.1437 0.2428   -0.054746
 C 0.5693 0.211 0.1996   -0.053169
 C 0.5689 0.1075 0.3388   0.678309
 C 0.0046 0.3096 0.58245   0.64161
 C 0.9586 0.263 0.49801   0.229448
 C 0.9306 0.318 0.2927   -0.120847
 C 0.9291 0.3563 0.2428   -0.054747
 C 0.9307 0.289 0.1996   -0.053169
 C 0.9311 0.3925 0.3388   0.67831
 C 0.3096 0.0046 0.91755   0.641609
 C 0.263 0.9586 0.00199   0.229448
 C 0.318 0.9306 0.2073   -0.120845
 C 0.3563 0.9291 0.2572   -0.054748
 C 0.289 0.9307 0.3004   -0.053166
 C 0.3925 0.9311 0.1612   0.678309
 C 0.1904 0.4954 0.91755   0.641609
 C 0.237 0.5414 0.00199   0.229448
 C 0.182 0.5694 0.2073   -0.120845
 C 0.1437 0.5709 0.2572   -0.054748
 C 0.211 0.5693 0.3004   -0.053166
 C 0.1075 0.5689 0.1612   0.678309
 C 0.0046 0.1904 0.91755   0.64161
 C 0.9586 0.237 0.00199   0.229448
 C 0.9306 0.182 0.2073   -0.120845
 C 0.9291 0.1437 0.2572   -0.054748
 C 0.9307 0.211 0.3004   -0.053167
 C 0.9311 0.1075 0.1612   0.678309
 C 0.4954 0.3096 0.91755   0.64161
 C 0.5414 0.263 0.00199   0.229448
 C 0.5694 0.318 0.2073   -0.120845
 C 0.5709 0.3563 0.2572   -0.054748
 C 0.5693 0.289 0.3004   -0.053167
 C 0.5689 0.3925 0.1612   0.678309
 C 0.8096 0.9954 0.41755   0.641609
 C 0.763 0.0414 0.50199   0.229448
 C 0.818 0.0694 0.7073   -0.120847
 C 0.8563 0.0709 0.7572   -0.054747
 C 0.789 0.0693 0.8004   -0.053168
 C 0.8925 0.0689 0.6612   0.67831
 C 0.6904 0.5046 0.41755   0.641609
 C 0.737 0.4586 0.50199   0.229448
 C 0.682 0.4306 0.7073   -0.120847
 C 0.6437 0.4291 0.7572   -0.054747
 C 0.711 0.4307 0.8004   -0.053168
 C 0.6075 0.4311 0.6612   0.67831
 C 0.5046 0.8096 0.41755   0.64161
 C 0.4586 0.763 0.50199   0.229449
 C 0.4306 0.818 0.7073   -0.120847
 C 0.4291 0.8563 0.7572   -0.054747
 C 0.4307 0.789 0.8004   -0.053169
 C 0.4311 0.8925 0.6612   0.67831
 C 0.9954 0.6904 0.41755   0.64161
 C 0.0414 0.737 0.50199   0.229449
 C 0.0694 0.682 0.7073   -0.120847
 C 0.0709 0.6437 0.7572   -0.054747
 C 0.0693 0.711 0.8004   -0.053169
 C 0.0689 0.6075 0.6612   0.67831
 C 0.6904 0.9954 0.08245   0.641609
 C 0.737 0.0414 0.99801   0.229448
 C 0.682 0.0694 0.7927   -0.120845
 C 0.6437 0.0709 0.7428   -0.054748
 C 0.711 0.0693 0.6996   -0.053166
 C 0.6075 0.0689 0.8388   0.678309
 C 0.8096 0.5046 0.08245   0.641609
 C 0.763 0.4586 0.99801   0.229448
 C 0.818 0.4306 0.7927   -0.120845
 C 0.8563 0.4291 0.7428   -0.054748
 C 0.789 0.4307 0.6996   -0.053166
 C 0.8925 0.4311 0.8388   0.678309
 C 0.9954 0.8096 0.08245   0.64161
 C 0.0414 0.763 0.99801   0.229449
 C 0.0694 0.818 0.7927   -0.120845
 C 0.0709 0.8563 0.7428   -0.054748
 C 0.0693 0.789 0.6996   -0.053167
 C 0.0689 0.8925 0.8388   0.678309
 C 0.5046 0.6904 0.08245   0.64161
 C 0.4586 0.737 0.99801   0.229449
 C 0.4306 0.682 0.7927   -0.120845
 C 0.4291 0.6437 0.7428   -0.054748
 C 0.4307 0.711 0.6996   -0.053167
 C 0.4311 0.6075 0.8388   0.678309
 N 0.0974 0.0016 0.5514   -0.429413
 N 0.1262 0.9732 0.49921   -0.262726
 N 0.2767 0.978 0.54945   -0.564106
 N 0.1959 0.0299 0.6302   -0.679301
 N 0.4026 0.4984 0.5514   -0.429413
 N 0.3738 0.5268 0.49921   -0.262726
 N 0.2233 0.522 0.54945   -0.564107
 N 0.3041 0.4701 0.6302   -0.679301
 N 0.4984 0.0974 0.5514   -0.429413
 N 0.5268 0.1262 0.49921   -0.262726
 N 0.522 0.2767 0.54945   -0.564107
 N 0.4701 0.1959 0.6302   -0.679301
 N 0.0016 0.4026 0.5514   -0.429413
 N 0.9732 0.3738 0.49921   -0.262726
 N 0.978 0.2233 0.54945   -0.564107
 N 0.0299 0.3041 0.6302   -0.679301
 N 0.4026 0.0016 0.9486   -0.429413
 N 0.3738 0.9732 0.000790000000002   -0.262726
 N 0.2233 0.978 0.95055   -0.564106
 N 0.3041 0.0299 0.8698   -0.679301
 N 0.0974 0.4984 0.9486   -0.429413
 N 0.1262 0.5268 0.000790000000002   -0.262726
 N 0.2767 0.522 0.95055   -0.564107
 N 0.1959 0.4701 0.8698   -0.679301
 N 0.0016 0.0974 0.9486   -0.429413
 N 0.9732 0.1262 0.000790000000002   -0.262726
 N 0.978 0.2767 0.95055   -0.564107
 N 0.0299 0.1959 0.8698   -0.679301
 N 0.4984 0.4026 0.9486   -0.429413
 N 0.5268 0.3738 0.000790000000002   -0.262726
 N 0.522 0.2233 0.95055   -0.564107
 N 0.4701 0.3041 0.8698   -0.679301
 N 0.9026 0.9984 0.4486   -0.429413
 N 0.8738 0.0268 0.50079   -0.262726
 N 0.7233 0.022 0.45055   -0.564107
 N 0.8041 0.9701 0.3698   -0.679301
 N 0.5974 0.5016 0.4486   -0.429413
 N 0.6262 0.4732 0.50079   -0.262726
 N 0.7767 0.478 0.45055   -0.564107
 N 0.6959 0.5299 0.3698   -0.679301
 N 0.5016 0.9026 0.4486   -0.429413
 N 0.4732 0.8738 0.50079   -0.262726
 N 0.478 0.7233 0.45055   -0.564107
 N 0.5299 0.8041 0.3698   -0.679301
 N 0.9984 0.5974 0.4486   -0.429413
 N 0.0268 0.6262 0.50079   -0.262726
 N 0.022 0.7767 0.45055   -0.564107
 N 0.9701 0.6959 0.3698   -0.679301
 N 0.5974 0.9984 0.0514   -0.429413
 N 0.6262 0.0268 0.99921   -0.262726
 N 0.7767 0.022 0.04945   -0.564107
 N 0.6959 0.9701 0.1302   -0.679301
 N 0.9026 0.5016 0.0514   -0.429413
 N 0.8738 0.4732 0.99921   -0.262726
 N 0.7233 0.478 0.04945   -0.564107
 N 0.8041 0.5299 0.1302   -0.679301
 N 0.9984 0.9026 0.0514   -0.429413
 N 0.0268 0.8738 0.99921   -0.262726
 N 0.022 0.7233 0.04945   -0.564107
 N 0.9701 0.8041 0.1302   -0.679301
 N 0.5016 0.5974 0.0514   -0.429413
 N 0.4732 0.6262 0.99921   -0.262726
 N 0.478 0.7767 0.04945   -0.564107
 N 0.5299 0.6959 0.1302   -0.679301
 O 0.1464 0.9495 0.3838   -0.589227
 O 0.0125 0.9119 0.3329   -0.631176
 O 0.3536 0.5505 0.3838   -0.589227
 O 0.4875 0.5881 0.3329   -0.631176
 O 0.5505 0.1464 0.3838   -0.589227
 O 0.5881 0.0125 0.3329   -0.631176
 O 0.9495 0.3536 0.3838   -0.589227
 O 0.9119 0.4875 0.3329   -0.631176
 O 0.3536 0.9495 0.1162   -0.589227
 O 0.4875 0.9119 0.1671   -0.631176
 O 0.1464 0.5505 0.1162   -0.589227
 O 0.0125 0.5881 0.1671   -0.631176
 O 0.9495 0.1464 0.1162   -0.589227
 O 0.9119 0.0125 0.1671   -0.631176
 O 0.5505 0.3536 0.1162   -0.589227
 O 0.5881 0.4875 0.1671   -0.631176
 O 0.8536 0.0505 0.6162   -0.589227
 O 0.9875 0.0881 0.6671   -0.631176
 O 0.6464 0.4495 0.6162   -0.589227
 O 0.5125 0.4119 0.6671   -0.631176
 O 0.4495 0.8536 0.6162   -0.589227
 O 0.4119 0.9875 0.6671   -0.631176
 O 0.0505 0.6464 0.6162   -0.589227
 O 0.0881 0.5125 0.6671   -0.631176
 O 0.6464 0.0505 0.8838   -0.589227
 O 0.5125 0.0881 0.8329   -0.631176
 O 0.8536 0.4495 0.8838   -0.589227
 O 0.9875 0.4119 0.8329   -0.631176
 O 0.0505 0.8536 0.8838   -0.589227
 O 0.0881 0.9875 0.8329   -0.631176
 O 0.4495 0.6464 0.8838   -0.589227
 O 0.4119 0.5125 0.8329   -0.631176
