{'_ref': 'TBD', '_srcid': 'CAKYAQ_clean', 'submitters': [{'name': 'Dalar Nazarian Jeff Camp and David Sholl', 'email': 'dalar@gatech.edu jcamp6@gatech.edu'}], '_method': 'VASP DFT with PBE;DDEC'}
data_DyH7C16NO6
_symmetry_space_group_name_H-M   'P 1'
_cell_length_a   13.60929983
_cell_length_b   13.90769979
_cell_length_c   15.98650000
_cell_angle_alpha   115.78400178
_cell_angle_beta   98.16410213
_cell_angle_gamma   89.99999881
_symmetry_Int_Tables_number   1
_chemical_formula_structural   DyH7C16NO6
_chemical_formula_sum   'Dy4 H28 C64 N4 O24'
_cell_volume   2690.48190899
_cell_formula_units_Z   4
loop_
 _symmetry_equiv_pos_site_id
 _symmetry_equiv_pos_as_xyz
  1  'x, y, z'
loop_
 _atom_site_label
 _atom_site_fract_x
 _atom_site_fract_y
 _atom_site_fract_z
 _atom_site_charge
 Dy 0.45891 0.89317 0.36784   2.257673
 Dy 0.04109 0.52533 0.63216   2.257565
 Dy 0.54109 0.10683 0.63216   2.257673
 Dy 0.95891 0.47467 0.36784   2.257565
 H 0.5354 0.9733 0.1078   0.112173
 H 0.6059 0.9397 0.9696   0.116907
 H 0.6476 0.6418 0.9292   0.114513
 H 0.6041 0.6855 0.0836   0.113745
 H 0.7027 0.6823 0.4622   0.112408
 H 0.7743 0.6807 0.7138   0.110807
 H 0.5748 0.8786 0.685   0.1359
 H 0.9646 0.8655 0.8922   0.112444
 H 0.8941 0.9701 0.0304   0.116442
 H 0.8524 0.7126 0.0708   0.11453
 H 0.8959 0.6019 0.9164   0.113574
 H 0.7973 0.2201 0.5378   0.112208
 H 0.7257 0.9669 0.2862   0.1106
 H 0.9252 0.1936 0.315   0.136308
 H 0.4646 0.0267 0.8922   0.112173
 H 0.3941 0.0603 0.0304   0.116907
 H 0.3524 0.3582 0.0708   0.114513
 H 0.3959 0.3145 0.9164   0.113746
 H 0.2973 0.3177 0.5378   0.112408
 H 0.2257 0.3193 0.2862   0.110807
 H 0.4252 0.1214 0.315   0.1359
 H 0.0354 0.1345 0.1078   0.112444
 H 0.1059 0.0299 0.9696   0.116442
 H 0.1476 0.2874 0.9292   0.11453
 H 0.1041 0.3981 0.0836   0.113575
 H 0.2027 0.7799 0.4622   0.112208
 H 0.2743 0.0331 0.7138   0.1106
 H 0.0748 0.8064 0.685   0.136308
 C 0.5235 0.8494 0.193   0.710921
 C 0.5595 0.831 0.1058   -0.119783
 C 0.56 0.9072 0.0742   -0.03144
 C 0.5985 0.886 0.9886   -0.113104
 C 0.6239 0.7841 0.9366   0.076562
 C 0.627 0.7091 0.9658   -0.134707
 C 0.597 0.7345 0.0582   -0.049921
 C 0.6502 0.7521 0.8422   0.027054
 C 0.5678 0.83 0.5032   0.789896
 C 0.6275 0.7859 0.5616   -0.160734
 C 0.695 0.7081 0.525   0.007341
 C 0.7501 0.6696 0.5818   -0.144936
 C 0.7366 0.7065 0.6758   -0.092222
 C 0.6704 0.7781 0.7116   0.189188
 C 0.6165 0.8244 0.6582   -0.107601
 C 0.829 0.5895 0.544   0.800379
 C 0.9765 0.6564 0.807   0.709587
 C 0.9405 0.7252 0.8942   -0.119135
 C 0.94 0.833 0.9258   -0.032167
 C 0.9015 0.8974 0.0114   -0.111741
 C 0.8761 0.8475 0.0634   0.076019
 C 0.873 0.7433 0.0342   -0.134901
 C 0.903 0.6763 0.9418   -0.049589
 C 0.8498 0.9099 0.1578   0.026613
 C 0.9322 0.3268 0.4968   0.789384
 C 0.8725 0.2243 0.4384   -0.160723
 C 0.805 0.1831 0.475   0.006964
 C 0.7499 0.0878 0.4182   -0.145288
 C 0.7634 0.0307 0.3242   -0.091626
 C 0.8296 0.0665 0.2884   0.189661
 C 0.8835 0.1662 0.3418   -0.108231
 C 0.671 0.0455 0.456   0.801005
 C 0.4765 0.1506 0.807   0.710921
 C 0.4405 0.169 0.8942   -0.119782
 C 0.44 0.0928 0.9258   -0.03144
 C 0.4015 0.114 0.0114   -0.113104
 C 0.3761 0.2159 0.0634   0.076562
 C 0.373 0.2909 0.0342   -0.134707
 C 0.403 0.2655 0.9418   -0.049921
 C 0.3498 0.2479 0.1578   0.027054
 C 0.4322 0.17 0.4968   0.789896
 C 0.3725 0.2141 0.4384   -0.160734
 C 0.305 0.2919 0.475   0.00734
 C 0.2499 0.3304 0.4182   -0.144936
 C 0.2634 0.2935 0.3242   -0.092222
 C 0.3296 0.2219 0.2884   0.189188
 C 0.3835 0.1756 0.3418   -0.107601
 C 0.171 0.4105 0.456   0.800378
 C 0.0235 0.3436 0.193   0.709587
 C 0.0595 0.2748 0.1058   -0.119135
 C 0.06 0.167 0.0742   -0.032167
 C 0.0985 0.1026 0.9886   -0.111741
 C 0.1239 0.1525 0.9366   0.076019
 C 0.127 0.2567 0.9658   -0.134901
 C 0.097 0.3237 0.0582   -0.049589
 C 0.1502 0.0901 0.8422   0.026613
 C 0.0678 0.6732 0.5032   0.789384
 C 0.1275 0.7757 0.5616   -0.160723
 C 0.195 0.8169 0.525   0.006963
 C 0.2501 0.9122 0.5818   -0.145289
 C 0.2366 0.9693 0.6758   -0.091626
 C 0.1704 0.9335 0.7116   0.18966
 C 0.1165 0.8338 0.6582   -0.108231
 C 0.329 0.9545 0.544   0.801005
 N 0.6492 0.815 0.8044   -0.229813
 N 0.8508 0.0106 0.1956   -0.229888
 N 0.3508 0.185 0.1956   -0.229813
 N 0.1492 0.9894 0.8044   -0.229888
 O 0.5206 0.7866 0.2244   -0.682686
 O 0.4933 0.9477 0.245   -0.780772
 O 0.552 0.7739 0.4158   -0.672512
 O 0.5405 0.9247 0.5402   -0.883914
 O 0.8384 0.5645 0.4606   -0.79242
 O 0.8754 0.5574 0.6006   -0.6789
 O 0.9794 0.5622 0.7756   -0.682082
 O 0.0067 0.7027 0.755   -0.780328
 O 0.948 0.3581 0.5842   -0.671986
 O 0.9595 0.3845 0.4598   -0.883534
 O 0.6616 0.1039 0.5394   -0.792449
 O 0.6246 0.9568 0.3994   -0.67924
 O 0.4794 0.2134 0.7756   -0.682686
 O 0.5067 0.0523 0.755   -0.780772
 O 0.448 0.2261 0.5842   -0.672512
 O 0.4595 0.0753 0.4598   -0.883914
 O 0.1616 0.4355 0.5394   -0.79242
 O 0.1246 0.4426 0.3994   -0.6789
 O 0.0206 0.4378 0.2244   -0.682082
 O 0.9933 0.2973 0.245   -0.780328
 O 0.052 0.6419 0.4158   -0.671986
 O 0.0405 0.6155 0.5402   -0.883534
 O 0.3384 0.8961 0.4606   -0.792448
 O 0.3754 0.0432 0.6006   -0.67924
