{'_ref': 'TBD', '_srcid': 'CAKYAQ_clean', 'submitters': [{'name': 'Dalar Nazarian Jeff Camp and David Sholl', 'email': 'dalar@gatech.edu jcamp6@gatech.edu'}], '_method': 'VASP DFT with PBE;DDEC'}
data_SmH8C16NO6
_symmetry_space_group_name_H-M   'P 1'
_cell_length_a   13.55150056
_cell_length_b   14.31400048
_cell_length_c   16.08430000
_cell_angle_alpha   116.42100017
_cell_angle_beta   98.74640174
_cell_angle_gamma   89.99999900
_symmetry_Int_Tables_number   1
_chemical_formula_structural   SmH8C16NO6
_chemical_formula_sum   'Sm4 H32 C64 N4 O24'
_cell_volume   2753.5135543
_cell_formula_units_Z   4
loop_
 _symmetry_equiv_pos_site_id
 _symmetry_equiv_pos_as_xyz
  1  'x, y, z'
loop_
 _atom_site_label
 _atom_site_fract_x
 _atom_site_fract_y
 _atom_site_fract_z
 _atom_site_charge
 Sm 0.95794 0.89511 0.36508   2.253001
 Sm 0.54206 0.53003 0.63492   2.252823
 Sm 0.04206 0.10489 0.63492   2.253002
 Sm 0.45794 0.46997 0.36508   2.252823
 H 0.0494 0.978 0.1106   0.108492
 H 0.0986 0.9396 0.9682   0.105394
 H 0.1293 0.645 0.9226   0.105669
 H 0.081 0.6847 0.0664   0.107137
 H 0.156 0.685 0.812   0.045675
 H 0.1992 0.6816 0.4596   0.112148
 H 0.2725 0.6811 0.711   0.117355
 H 0.0776 0.8799 0.6812   0.130976
 H 0.4506 0.8674 0.8894   0.108022
 H 0.4014 0.9714 0.0318   0.105846
 H 0.3707 0.7224 0.0774   0.106009
 H 0.419 0.6183 0.9336   0.107301
 H 0.344 0.873 0.188   0.045588
 H 0.3008 0.222 0.5404   0.112403
 H 0.2275 0.9701 0.289   0.117312
 H 0.4224 0.1987 0.3188   0.129688
 H 0.9506 0.022 0.8894   0.108492
 H 0.9014 0.0604 0.0318   0.105394
 H 0.8707 0.355 0.0774   0.105669
 H 0.919 0.3153 0.9336   0.107138
 H 0.844 0.315 0.188   0.045675
 H 0.8008 0.3184 0.5404   0.112148
 H 0.7275 0.3189 0.289   0.117355
 H 0.9224 0.1201 0.3188   0.130976
 H 0.5494 0.1326 0.1106   0.108022
 H 0.5986 0.0286 0.9682   0.105846
 H 0.6293 0.2776 0.9226   0.106009
 H 0.581 0.3817 0.0664   0.107302
 H 0.656 0.127 0.812   0.045587
 H 0.6992 0.778 0.4596   0.112402
 H 0.7725 0.0299 0.711   0.117312
 H 0.5776 0.8013 0.6812   0.129688
 C 0.021 0.8588 0.193   0.684402
 C 0.0575 0.8356 0.1024   -0.115136
 C 0.0649 0.9104 0.073   -0.042197
 C 0.0951 0.888 0.988   -0.090718
 C 0.1202 0.787 0.9326   -0.002917
 C 0.1137 0.7125 0.9604   -0.126611
 C 0.0836 0.7364 0.0466   -0.049386
 C 0.1454 0.7581 0.838   0.202207
 C 0.0713 0.8301 0.4994   0.777089
 C 0.129 0.787 0.5608   -0.156174
 C 0.1933 0.7085 0.5228   0.002591
 C 0.248 0.6708 0.5796   -0.147138
 C 0.236 0.7071 0.673   -0.106703
 C 0.1678 0.7838 0.7098   0.216195
 C 0.1184 0.8256 0.6554   -0.11108
 C 0.3237 0.5918 0.5428   0.80819
 C 0.479 0.6658 0.807   0.682136
 C 0.4425 0.7332 0.8976   -0.114454
 C 0.4351 0.8374 0.927   -0.04189
 C 0.4049 0.9 0.012   -0.09133
 C 0.3798 0.8544 0.0674   -0.004751
 C 0.3863 0.7521 0.0396   -0.125799
 C 0.4164 0.6898 0.9534   -0.049647
 C 0.3546 0.9201 0.162   0.202726
 C 0.4287 0.3307 0.5006   0.778448
 C 0.371 0.2262 0.4392   -0.156174
 C 0.3067 0.1857 0.4772   0.001268
 C 0.252 0.0912 0.4204   -0.145544
 C 0.264 0.0341 0.327   -0.107403
 C 0.3322 0.074 0.2902   0.215778
 C 0.3816 0.1702 0.3446   -0.108644
 C 0.1763 0.049 0.4572   0.806467
 C 0.979 0.1412 0.807   0.684402
 C 0.9425 0.1644 0.8976   -0.115136
 C 0.9351 0.0896 0.927   -0.042197
 C 0.9049 0.112 0.012   -0.090718
 C 0.8798 0.213 0.0674   -0.002917
 C 0.8863 0.2875 0.0396   -0.126611
 C 0.9164 0.2636 0.9534   -0.049386
 C 0.8546 0.2419 0.162   0.202207
 C 0.9287 0.1699 0.5006   0.777089
 C 0.871 0.213 0.4392   -0.156174
 C 0.8067 0.2915 0.4772   0.00259
 C 0.752 0.3292 0.4204   -0.147138
 C 0.764 0.2929 0.327   -0.106703
 C 0.8322 0.2162 0.2902   0.216195
 C 0.8816 0.1744 0.3446   -0.111081
 C 0.6763 0.4082 0.4572   0.80819
 C 0.521 0.3342 0.193   0.682136
 C 0.5575 0.2668 0.1024   -0.114454
 C 0.5649 0.1626 0.073   -0.04189
 C 0.5951 0.1 0.988   -0.09133
 C 0.6202 0.1456 0.9326   -0.004751
 C 0.6137 0.2479 0.9604   -0.125799
 C 0.5836 0.3102 0.0466   -0.049647
 C 0.6454 0.0799 0.838   0.202726
 C 0.5713 0.6693 0.4994   0.778448
 C 0.629 0.7738 0.5608   -0.156175
 C 0.6933 0.8143 0.5228   0.001267
 C 0.748 0.9088 0.5796   -0.145544
 C 0.736 0.9659 0.673   -0.107404
 C 0.6678 0.926 0.7098   0.215778
 C 0.6184 0.8298 0.6554   -0.108644
 C 0.8237 0.951 0.5428   0.806466
 N 0.1487 0.82023 0.80306   -0.373531
 N 0.3513 0.01717 0.19694   -0.373486
 N 0.8513 0.17977 0.19694   -0.373531
 N 0.6487 0.98283 0.80306   -0.373486
 O 0.9937 0.94868 0.24096   -0.704114
 O 0.0181 0.78803 0.21746   -0.717804
 O 0.0406 0.92127 0.53714   -0.874465
 O 0.0532 0.77474 0.41208   -0.660557
 O 0.371 0.56096 0.59792   -0.689807
 O 0.3335 0.56161 0.45742   -0.808153
 O 0.5063 0.70772 0.75904   -0.703138
 O 0.4819 0.57057 0.78254   -0.716554
 O 0.4594 0.38413 0.46286   -0.875146
 O 0.4468 0.36266 0.58792   -0.661109
 O 0.129 0.96304 0.40208   -0.688383
 O 0.1665 0.10419 0.54258   -0.808388
 O 0.0063 0.05132 0.75904   -0.704114
 O 0.9819 0.21197 0.78254   -0.717804
 O 0.9594 0.07873 0.46286   -0.874465
 O 0.9468 0.22526 0.58792   -0.660557
 O 0.629 0.43904 0.40208   -0.689807
 O 0.6665 0.43839 0.54258   -0.808153
 O 0.4937 0.29228 0.24096   -0.703138
 O 0.5181 0.42943 0.21746   -0.716554
 O 0.5406 0.61587 0.53714   -0.875146
 O 0.5532 0.63734 0.41208   -0.661109
 O 0.871 0.03696 0.59792   -0.688383
 O 0.8335 0.89581 0.45742   -0.808388
