{'_ref': 'TBD', '_srcid': 'CAKYAQ_clean', 'submitters': [{'name': 'Dalar Nazarian Jeff Camp and David Sholl', 'email': 'dalar@gatech.edu jcamp6@gatech.edu'}], '_method': 'VASP DFT with PBE;DDEC'}
data_RbY(CO2)4
_symmetry_space_group_name_H-M   'P 1'
_cell_length_a   9.15019988
_cell_length_b   9.30387344
_cell_length_c   9.30387381
_cell_angle_alpha   76.00684744
_cell_angle_beta   60.54508356
_cell_angle_gamma   60.54508655
_symmetry_Int_Tables_number   1
_chemical_formula_structural   RbY(CO2)4
_chemical_formula_sum   'Rb2 Y2 C8 O16'
_cell_volume   600.534657427
_cell_formula_units_Z   2
loop_
 _symmetry_equiv_pos_site_id
 _symmetry_equiv_pos_as_xyz
  1  'x, y, z'
loop_
 _atom_site_label
 _atom_site_fract_x
 _atom_site_fract_y
 _atom_site_fract_z
 _atom_site_charge
 Rb 0.625 0.25 0.25   0.951208
 Rb 0.375 0.75 0.75   0.951239
 Y 0.125 0.25 0.25   1.718401
 Y 0.875 0.75 0.75   1.718401
 C 0.564 0.016 0.026   0.391354
 C 0.106 0.484 0.474   0.391373
 C 0.08 0.526 0.984   0.391411
 C 0.09 0.974 0.516   0.391409
 C 0.436 0.984 0.974   0.391348
 C 0.894 0.516 0.526   0.391367
 C 0.92 0.474 0.016   0.391406
 C 0.91 0.026 0.484   0.391404
 O 0.4665 0.143 0.117   -0.484985
 O 0.7322 0.043 0.863   -0.573767
 O 0.2265 0.357 0.383   -0.485007
 O 0.1382 0.457 0.637   -0.573772
 O 0.1095 0.617 0.857   -0.485017
 O 0.2752 0.363 0.957   -0.573799
 O 0.0835 0.883 0.643   -0.485017
 O 0.0952 0.137 0.543   -0.573798
 O 0.5335 0.857 0.883   -0.484987
 O 0.2678 0.957 0.137   -0.573767
 O 0.7735 0.643 0.617   -0.485008
 O 0.8618 0.543 0.363   -0.573773
 O 0.8905 0.383 0.143   -0.485015
 O 0.7248 0.637 0.043   -0.573798
 O 0.9165 0.117 0.357   -0.485015
 O 0.9048 0.863 0.457   -0.573797
