{'_ref': 'TBD', '_srcid': 'CAKYAQ_clean', 'submitters': [{'name': 'Dalar Nazarian Jeff Camp and David Sholl', 'email': 'dalar@gatech.edu jcamp6@gatech.edu'}], '_method': 'VASP DFT with PBE;DDEC'}
data_NiH6(C7O3)2
_symmetry_space_group_name_H-M   'P 1'
_cell_length_a   8.52400000
_cell_length_b   17.21390026
_cell_length_c   17.21390000
_cell_angle_alpha   119.99999950
_cell_angle_beta   90.00000000
_cell_angle_gamma   90.00000000
_symmetry_Int_Tables_number   1
_chemical_formula_structural   NiH6(C7O3)2
_chemical_formula_sum   'Ni3 H18 C42 O18'
_cell_volume   2187.42228824
_cell_formula_units_Z   3
loop_
 _symmetry_equiv_pos_site_id
 _symmetry_equiv_pos_as_xyz
  1  'x, y, z'
loop_
 _atom_site_label
 _atom_site_fract_x
 _atom_site_fract_y
 _atom_site_fract_z
 _atom_site_charge
 Ni 0.66667 0.47466 0.47466   0.790103
 Ni 0.33333 0.0 0.52534   0.7901
 Ni 0.0 0.52534 0.0   0.758506
 H 0.3372 0.2345 0.5336   0.141324
 H 0.5474 0.1925 0.3065   0.113478
 H 0.4693 0.0439 0.236   0.115884
 H 0.00387 0.2991 0.7655   0.142137
 H 0.21407 0.114 0.8075   0.113247
 H 0.13597 0.1921 0.9561   0.115544
 H 0.67053 0.4664 0.7009   0.141831
 H 0.88073 0.6935 0.886   0.113206
 H 0.80263 0.764 0.8079   0.115981
 H 0.6628 0.7009 0.4664   0.141324
 H 0.4526 0.886 0.6935   0.113481
 H 0.5307 0.8079 0.764   0.115889
 H 0.99613 0.5336 0.2345   0.142135
 H 0.78593 0.3065 0.1925   0.113248
 H 0.86403 0.236 0.0439   0.115548
 H 0.32947 0.7655 0.2991   0.141833
 H 0.11927 0.8075 0.114   0.113207
 H 0.19737 0.9561 0.1921   0.115985
 C 0.4515 0.22816 0.42734   -0.104709
 C 0.3638 0.19608 0.4739   -0.113226
 C 0.3583 0.04792 0.34192   -0.010027
 C 0.4904 0.1711 0.33793   -0.036976
 C 0.3164 0.10707 0.4314   0.255302
 C 0.4435 0.0819 0.296   -0.123198
 C 0.5023 0.3241 0.47358   0.620606
 C 0.11817 0.19918 0.77184   -0.102532
 C 0.03047 0.27782 0.80392   -0.117773
 C 0.02497 0.294 0.95208   -0.009615
 C 0.15707 0.16683 0.8289   -0.038592
 C 0.98307 0.32433 0.89293   0.257619
 C 0.11017 0.2141 0.9181   -0.123884
 C 0.16897 0.14948 0.6759   0.620816
 C 0.78483 0.57266 0.80082   -0.104465
 C 0.69713 0.5261 0.72218   -0.113998
 C 0.69163 0.65808 0.706   -0.00916
 C 0.82373 0.66207 0.83317   -0.036136
 C 0.64973 0.5686 0.67567   0.254775
 C 0.77683 0.704 0.7859   -0.124129
 C 0.83563 0.52642 0.85052   0.619685
 C 0.5485 0.80082 0.57266   -0.104708
 C 0.6362 0.72218 0.5261   -0.113227
 C 0.6417 0.706 0.65808   -0.01004
 C 0.5096 0.83317 0.66207   -0.036979
 C 0.6836 0.67567 0.5686   0.255304
 C 0.5565 0.7859 0.704   -0.123199
 C 0.4977 0.85052 0.52642   0.620607
 C 0.88183 0.42734 0.22816   -0.102533
 C 0.96953 0.4739 0.19608   -0.117769
 C 0.97503 0.34192 0.04792   -0.009607
 C 0.84293 0.33793 0.1711   -0.038594
 C 0.01693 0.4314 0.10707   0.257613
 C 0.88983 0.296 0.0819   -0.123888
 C 0.83103 0.47358 0.3241   0.620809
 C 0.21517 0.77184 0.19918   -0.104469
 C 0.30287 0.80392 0.27782   -0.113996
 C 0.30837 0.95208 0.294   -0.009174
 C 0.17627 0.8289 0.16683   -0.036135
 C 0.35027 0.89293 0.32433   0.254774
 C 0.22317 0.9181 0.2141   -0.124131
 C 0.16437 0.6759 0.14948   0.619689
 O 0.4707 0.37235 0.55732   -0.386459
 O 0.2291 0.07668 0.47723   -0.368846
 O 0.5735 0.35116 0.42865   -0.497027
 O 0.13737 0.18497 0.62765   -0.386377
 O 0.89577 0.40055 0.92332   -0.362771
 O 0.24017 0.07749 0.64884   -0.496931
 O 0.80403 0.44268 0.81503   -0.383763
 O 0.56243 0.52277 0.59945   -0.368066
 O 0.90683 0.57135 0.92251   -0.492122
 O 0.5293 0.81503 0.44268   -0.386461
 O 0.7709 0.59945 0.52277   -0.368843
 O 0.4265 0.92251 0.57135   -0.497027
 O 0.86263 0.55732 0.37235   -0.386376
 O 0.10423 0.47723 0.07668   -0.362773
 O 0.75983 0.42865 0.35116   -0.496929
 O 0.19597 0.62765 0.18497   -0.383761
 O 0.43757 0.92332 0.40055   -0.368066
 O 0.09317 0.64884 0.07749   -0.492123
