{'_ref': 'TBD', '_srcid': 'CAKYAQ_clean', 'submitters': [{'name': 'Dalar Nazarian Jeff Camp and David Sholl', 'email': 'dalar@gatech.edu jcamp6@gatech.edu'}], '_method': 'VASP DFT with PBE;DDEC'}
data_Mn2H14C18O11
_symmetry_space_group_name_H-M   'P 1'
_cell_length_a   11.18650050
_cell_length_b   11.18650056
_cell_length_c   11.92470000
_cell_angle_alpha   69.75029837
_cell_angle_beta   69.75029825
_cell_angle_gamma   82.36490010
_symmetry_Int_Tables_number   1
_chemical_formula_structural   Mn2H14C18O11
_chemical_formula_sum   'Mn4 H28 C36 O22'
_cell_volume   1313.32610949
_cell_formula_units_Z   2
loop_
 _symmetry_equiv_pos_site_id
 _symmetry_equiv_pos_as_xyz
  1  'x, y, z'
loop_
 _atom_site_label
 _atom_site_fract_x
 _atom_site_fract_y
 _atom_site_fract_z
 _atom_site_charge
 Mn 0.42128 0.77388 0.59732   0.838078
 Mn 0.22612 0.57872 0.90268   0.838087
 Mn 0.57872 0.22612 0.40268   0.838076
 Mn 0.77388 0.42128 0.09732   0.838085
 H 0.8692 0.669 0.7506   0.104603
 H 0.1593 0.8641 0.452   0.124251
 H 0.8071 0.8937 0.4253   0.128665
 H 0.9394 0.051 0.2135   0.044407
 H 0.9498 0.9042 0.2177   0.085314
 H 0.4299 0.4983 0.7528   0.336016
 H 0.4563 0.5821 0.8046   0.077574
 H 0.331 0.1308 0.7494   0.104603
 H 0.1359 0.8407 0.048   0.124252
 H 0.1063 0.1929 0.0747   0.128665
 H 0.949 0.0606 0.2865   0.044411
 H 0.0958 0.0502 0.2823   0.085305
 H 0.5017 0.5701 0.7472   0.336193
 H 0.4179 0.5437 0.6954   0.077721
 H 0.1308 0.331 0.2494   0.104602
 H 0.8407 0.1359 0.548   0.124251
 H 0.1929 0.1063 0.5747   0.128665
 H 0.0606 0.949 0.7865   0.044407
 H 0.0502 0.0958 0.7823   0.085314
 H 0.5701 0.5017 0.2472   0.336017
 H 0.5437 0.4179 0.1954   0.077574
 H 0.669 0.8692 0.2506   0.104602
 H 0.8641 0.1593 0.952   0.124252
 H 0.8937 0.8071 0.9253   0.128664
 H 0.051 0.9394 0.7135   0.044411
 H 0.9042 0.9498 0.7177   0.085305
 H 0.4983 0.4299 0.2528   0.336193
 H 0.5821 0.4563 0.3046   0.077721
 C 0.68155 0.73575 0.6479   0.696466
 C 0.81829 0.77529 0.5959   -0.087656
 C 0.90023 0.72563 0.6666   -0.117868
 C 0.02905 0.75985 0.613   -0.085803
 C 0.12292 0.70992 0.6835   0.692061
 C 0.07191 0.84191 0.4893   -0.204673
 C 0.9908 0.8914 0.4205   0.197986
 C 0.86358 0.85898 0.4729   -0.192235
 C 0.9983 0.9765 0.2059   -0.281932
 C 0.26425 0.31845 0.8521   0.696466
 C 0.22471 0.18171 0.9041   -0.087658
 C 0.27437 0.09977 0.8334   -0.117868
 C 0.24015 0.97095 0.887   -0.0858
 C 0.29008 0.87708 0.8165   0.692062
 C 0.15809 0.92809 0.0107   -0.204672
 C 0.1086 0.0092 0.0795   0.19799
 C 0.14102 0.13642 0.0271   -0.192232
 C 0.0235 0.0017 0.2941   -0.281807
 C 0.31845 0.26425 0.3521   0.696468
 C 0.18171 0.22471 0.4041   -0.087655
 C 0.09977 0.27437 0.3334   -0.117862
 C 0.97095 0.24015 0.387   -0.085801
 C 0.87708 0.29008 0.3165   0.692062
 C 0.92809 0.15809 0.5107   -0.20467
 C 0.0092 0.1086 0.5795   0.197986
 C 0.13642 0.14102 0.5271   -0.192233
 C 0.0017 0.0235 0.7941   -0.281931
 C 0.73575 0.68155 0.1479   0.696468
 C 0.77529 0.81829 0.0959   -0.087656
 C 0.72563 0.90023 0.1666   -0.117862
 C 0.75985 0.02905 0.113   -0.085798
 C 0.70992 0.12292 0.1835   0.692063
 C 0.84191 0.07191 0.9893   -0.20467
 C 0.8914 0.9908 0.9205   0.19799
 C 0.85898 0.86358 0.9729   -0.19223
 C 0.9765 0.9983 0.7059   -0.281807
 O 0.608 0.80372 0.5905   -0.588667
 O 0.6476 0.63836 0.7426   -0.629684
 O 0.0839 0.64698 0.7992   -0.561621
 O 0.2361 0.73578 0.6213   -0.652139
 O 0.0681 0.9421 0.2938   0.22609
 O 0.19628 0.392 0.9095   -0.588667
 O 0.36164 0.3524 0.7574   -0.629674
 O 0.35302 0.9161 0.7008   -0.56162
 O 0.26422 0.7639 0.8787   -0.652138
 O 0.0579 0.9319 0.2062   0.226232
 O 0.418 0.582 0.75   -0.299098
 O 0.392 0.19628 0.4095   -0.588667
 O 0.3524 0.36164 0.2574   -0.629684
 O 0.9161 0.35302 0.2008   -0.561621
 O 0.7639 0.26422 0.3787   -0.652139
 O 0.9319 0.0579 0.7062   0.22609
 O 0.80372 0.608 0.0905   -0.588667
 O 0.63836 0.6476 0.2426   -0.629674
 O 0.64698 0.0839 0.2992   -0.56162
 O 0.73578 0.2361 0.1213   -0.652138
 O 0.9421 0.0681 0.7938   0.226232
 O 0.582 0.418 0.25   -0.299098
