{'_ref': 'TBD', '_srcid': 'CAKYAQ_clean', 'submitters': [{'name': 'Dalar Nazarian Jeff Camp and David Sholl', 'email': 'dalar@gatech.edu jcamp6@gatech.edu'}], '_method': 'VASP DFT with PBE;DDEC'}
data_CoH9C8N5O2
_symmetry_space_group_name_H-M   'P 1'
_cell_length_a   15.81890017
_cell_length_b   15.81890027
_cell_length_c   15.81890000
_cell_angle_alpha   100.84499822
_cell_angle_beta   113.94899819
_cell_angle_gamma   113.94900224
_symmetry_Int_Tables_number   1
_chemical_formula_structural   CoH9C8N5O2
_chemical_formula_sum   'Co8 H72 C64 N40 O16'
_cell_volume   2996.56378693
_cell_formula_units_Z   8
loop_
 _symmetry_equiv_pos_site_id
 _symmetry_equiv_pos_as_xyz
  1  'x, y, z'
loop_
 _atom_site_label
 _atom_site_fract_x
 _atom_site_fract_y
 _atom_site_fract_z
 _atom_site_charge
 Co 0.49315 0.59117 0.0228   0.835599
 Co 0.00685 0.02965 0.09802   0.835546
 Co 0.43163 0.0228 0.02965   0.835579
 Co 0.06837 0.09802 0.59117   0.835583
 Co 0.50685 0.40883 0.9772   0.8356
 Co 0.99315 0.97035 0.90198   0.835547
 Co 0.56837 0.9772 0.97035   0.83558
 Co 0.93163 0.90198 0.40883   0.835584
 H 0.5852 0.7858 0.9972   0.059942
 H 0.5245 0.5213 0.7318   0.126355
 H 0.6449 0.554 0.8075   0.100245
 H 0.6452 0.6835 0.7597   0.096353
 H 0.6933 0.7221 0.8772   0.097189
 H 0.5725 0.6894 0.8017   0.102883
 H 0.3019 0.8888 0.1079   0.044494
 H 0.2922 0.6229 0.1485   0.357194
 H 0.3648 0.6057 0.1203   0.329192
 H 0.9148 0.912 0.2006   0.059945
 H 0.9755 0.7073 0.9968   0.126353
 H 0.8551 0.6626 0.9091   0.100246
 H 0.8548 0.6145 0.0383   0.09635
 H 0.8067 0.6839 0.0288   0.097187
 H 0.9275 0.7292 0.1169   0.102879
 H 0.1981 0.306 0.5869   0.044504
 H 0.2078 0.3563 0.3307   0.357162
 H 0.1352 0.2555 0.2409   0.329194
 H 0.2114 0.9972 0.912   0.059941
 H 0.2105 0.7318 0.7073   0.126367
 H 0.2535 0.8075 0.6626   0.100245
 H 0.0762 0.7597 0.6145   0.096359
 H 0.1551 0.8772 0.6839   0.097183
 H 0.1123 0.8017 0.7292   0.10288
 H 0.2191 0.1079 0.306   0.044507
 H 0.5256 0.1485 0.3563   0.357158
 H 0.5146 0.1203 0.2555   0.329193
 H 0.2886 0.2006 0.7858   0.059945
 H 0.2895 0.9968 0.5213   0.126365
 H 0.2465 0.9091 0.554   0.100245
 H 0.4238 0.0383 0.6835   0.096358
 H 0.3449 0.0288 0.7221   0.097184
 H 0.3877 0.1169 0.6894   0.102878
 H 0.2809 0.5869 0.8888   0.044495
 H 0.9744 0.3307 0.6229   0.357185
 H 0.9854 0.2409 0.6057   0.329188
 H 0.4148 0.2142 0.0028   0.059942
 H 0.4755 0.4787 0.2682   0.126355
 H 0.3551 0.446 0.1925   0.100245
 H 0.3548 0.3165 0.2403   0.096353
 H 0.3067 0.2779 0.1228   0.097189
 H 0.4275 0.3106 0.1983   0.102883
 H 0.6981 0.1112 0.8921   0.044494
 H 0.7078 0.3771 0.8515   0.357193
 H 0.6352 0.3943 0.8797   0.329192
 H 0.0852 0.088 0.7994   0.059945
 H 0.0245 0.2927 0.0032   0.126353
 H 0.1449 0.3374 0.0909   0.100246
 H 0.1452 0.3855 0.9617   0.09635
 H 0.1933 0.3161 0.9712   0.097187
 H 0.0725 0.2708 0.8831   0.102879
 H 0.8019 0.694 0.4131   0.044504
 H 0.7922 0.6437 0.6693   0.357161
 H 0.8648 0.7445 0.7591   0.329194
 H 0.7886 0.0028 0.088   0.059941
 H 0.7895 0.2682 0.2927   0.126367
 H 0.7465 0.1925 0.3374   0.100245
 H 0.9238 0.2403 0.3855   0.096359
 H 0.8449 0.1228 0.3161   0.097183
 H 0.8877 0.1983 0.2708   0.10288
 H 0.7809 0.8921 0.694   0.044507
 H 0.4744 0.8515 0.6437   0.357157
 H 0.4854 0.8797 0.7445   0.329193
 H 0.7114 0.7994 0.2142   0.059945
 H 0.7105 0.0032 0.4787   0.126365
 H 0.7535 0.0909 0.446   0.100245
 H 0.5762 0.9617 0.3165   0.096358
 H 0.6551 0.9712 0.2779   0.097184
 H 0.6123 0.8831 0.3106   0.102878
 H 0.7191 0.4131 0.1112   0.044495
 H 0.0256 0.6693 0.3771   0.357183
 H 0.0146 0.7591 0.3943   0.329188
 C 0.53945 0.79004 0.01827   0.314522
 C 0.43175 0.75727 0.07202   -0.105749
 C 0.36086 0.72226 0.1066   0.501322
 C 0.55848 0.54337 0.87497   0.710422
 C 0.58829 0.56751 0.80022   -0.278997
 C 0.6284 0.6754 0.8106   -0.259175
 C 0.44964 0.84354 0.0544   0.400508
 C 0.33712 0.85621 0.09907   0.417967
 C 0.96055 0.97882 0.25059   0.314512
 C 0.06825 0.14027 0.32552   -0.105765
 C 0.13914 0.24574 0.3614   0.50133
 C 0.94152 0.81649 0.98489   0.710423
 C 0.91171 0.71193 0.97922   -0.278992
 C 0.8716 0.6822 0.047   -0.259176
 C 0.05036 0.10476 0.3939   0.400509
 C 0.16288 0.26195 0.51909   0.417882
 C 0.22823 0.01827 0.97882   0.314506
 C 0.31475 0.07202 0.14027   -0.105748
 C 0.38434 0.1066 0.24574   0.501319
 C 0.3316 0.87497 0.81649   0.710429
 C 0.23271 0.80022 0.71193   -0.279025
 C 0.1352 0.8106 0.6822   -0.259167
 C 0.21086 0.0544 0.10476   0.400509
 C 0.24286 0.09907 0.26195   0.41789
 C 0.27177 0.25059 0.79004   0.314499
 C 0.18525 0.32552 0.75727   -0.105759
 C 0.11566 0.3614 0.72226   0.501318
 C 0.1684 0.98489 0.54337   0.710431
 C 0.26729 0.97922 0.56751   -0.279024
 C 0.3648 0.047 0.6754   -0.259168
 C 0.28914 0.3939 0.84354   0.400513
 C 0.25714 0.51909 0.85621   0.417964
 C 0.46055 0.20996 0.98173   0.314522
 C 0.56825 0.24273 0.92798   -0.105749
 C 0.63914 0.27774 0.8934   0.501322
 C 0.44152 0.45663 0.12503   0.710422
 C 0.41171 0.43249 0.19978   -0.278997
 C 0.3716 0.3246 0.1894   -0.259175
 C 0.55036 0.15646 0.9456   0.400508
 C 0.66288 0.14379 0.90093   0.417967
 C 0.03945 0.02118 0.74941   0.314512
 C 0.93175 0.85973 0.67448   -0.105765
 C 0.86086 0.75426 0.6386   0.50133
 C 0.05848 0.18351 0.01511   0.710423
 C 0.08829 0.28807 0.02078   -0.278992
 C 0.1284 0.3178 0.953   -0.259176
 C 0.94964 0.89524 0.6061   0.400509
 C 0.83712 0.73805 0.48091   0.417882
 C 0.77177 0.98173 0.02118   0.314506
 C 0.68525 0.92798 0.85973   -0.105748
 C 0.61566 0.8934 0.75426   0.501319
 C 0.6684 0.12503 0.18351   0.710429
 C 0.76729 0.19978 0.28807   -0.279025
 C 0.8648 0.1894 0.3178   -0.259167
 C 0.78914 0.9456 0.89524   0.400509
 C 0.75714 0.90093 0.73805   0.41789
 C 0.72823 0.74941 0.20996   0.314499
 C 0.81475 0.67448 0.24273   -0.105759
 C 0.88434 0.6386 0.27774   0.501318
 C 0.8316 0.01511 0.45663   0.710431
 C 0.73271 0.02078 0.43249   -0.279024
 C 0.6352 0.953 0.3246   -0.259168
 C 0.71086 0.6061 0.15646   0.400513
 C 0.74286 0.48091 0.14379   0.417964
 N 0.49048 0.7223 0.0479   -0.393509
 N 0.33635 0.64055 0.12762   -0.667195
 N 0.31418 0.77498 0.11926   -0.590399
 N 0.51901 0.86503 0.02044   -0.513769
 N 0.4038 0.89723 0.06783   -0.51083
 N 0.00952 0.05742 0.23182   -0.393488
 N 0.16365 0.29127 0.3042   -0.667167
 N 0.18582 0.30508 0.4608   -0.590395
 N 0.98099 0.00143 0.34602   -0.513773
 N 0.0962 0.16403 0.49343   -0.510766
 N 0.3256 0.0479 0.05742   -0.393507
 N 0.48707 0.12762 0.29127   -0.667174
 N 0.34428 0.11926 0.30508   -0.590394
 N 0.15541 0.02044 0.00143   -0.513745
 N 0.1706 0.06783 0.16403   -0.510783
 N 0.1744 0.23182 0.7223   -0.393498
 N 0.01293 0.3042 0.64055   -0.667188
 N 0.15572 0.4608 0.77498   -0.590409
 N 0.34459 0.34602 0.86503   -0.513758
 N 0.3294 0.49343 0.89723   -0.510852
 N 0.50952 0.2777 0.9521   -0.393509
 N 0.66365 0.35945 0.87238   -0.667195
 N 0.68582 0.22502 0.88074   -0.590399
 N 0.48099 0.13497 0.97956   -0.513769
 N 0.5962 0.10277 0.93217   -0.51083
 N 0.99048 0.94258 0.76818   -0.393488
 N 0.83635 0.70873 0.6958   -0.667166
 N 0.81418 0.69492 0.5392   -0.590395
 N 0.01901 0.99857 0.65398   -0.513773
 N 0.9038 0.83597 0.50657   -0.510766
 N 0.6744 0.9521 0.94258   -0.393508
 N 0.51293 0.87238 0.70873   -0.667173
 N 0.65572 0.88074 0.69492   -0.590394
 N 0.84459 0.97956 0.99857   -0.513745
 N 0.8294 0.93217 0.83597   -0.510783
 N 0.8256 0.76818 0.2777   -0.393498
 N 0.98707 0.6958 0.35945   -0.667188
 N 0.84428 0.5392 0.22502   -0.590409
 N 0.65541 0.65398 0.13497   -0.513758
 N 0.6706 0.50657 0.10277   -0.510852
 O 0.53633 0.59896 0.91719   -0.572027
 O 0.55528 0.46655 0.88933   -0.602487
 O 0.96367 0.88086 0.06263   -0.572023
 O 0.94472 0.83405 0.91127   -0.60248
 O 0.31823 0.91719 0.88086   -0.572043
 O 0.42278 0.88933 0.83405   -0.602482
 O 0.18177 0.06263 0.59896   -0.572047
 O 0.07722 0.91127 0.46655   -0.602488
 O 0.46367 0.40104 0.08281   -0.572027
 O 0.44472 0.53345 0.11067   -0.602487
 O 0.03633 0.11914 0.93737   -0.572023
 O 0.05528 0.16595 0.08873   -0.60248
 O 0.68177 0.08281 0.11914   -0.572043
 O 0.57722 0.11067 0.16595   -0.602482
 O 0.81823 0.93737 0.40104   -0.572047
 O 0.92278 0.08873 0.53345   -0.602488
