{'_ref': 'TBD', '_srcid': 'CAKYAQ_clean', 'submitters': [{'name': 'Dalar Nazarian Jeff Camp and David Sholl', 'email': 'dalar@gatech.edu jcamp6@gatech.edu'}], '_method': 'VASP DFT with PBE;DDEC'}
data_ZnH24C24(N3O2)2
_symmetry_space_group_name_H-M   'P 1'
_cell_length_a   8.70760000
_cell_length_b   15.68600000
_cell_length_c   19.36800000
_cell_angle_alpha   90.00000000
_cell_angle_beta   90.00000000
_cell_angle_gamma   90.00000000
_symmetry_Int_Tables_number   1
_chemical_formula_structural   ZnH24C24(N3O2)2
_chemical_formula_sum   'Zn4 H96 C96 N24 O16'
_cell_volume   2645.4250266
_cell_formula_units_Z   4
loop_
 _symmetry_equiv_pos_site_id
 _symmetry_equiv_pos_as_xyz
  1  'x, y, z'
loop_
 _atom_site_label
 _atom_site_fract_x
 _atom_site_fract_y
 _atom_site_fract_z
 _atom_site_charge
 Zn 0.44295 0.03777 0.74239   0.920103
 Zn 0.05705 0.96223 0.24239   0.920103
 Zn 0.55705 0.53777 0.75761   0.920103
 Zn 0.94295 0.46223 0.25761   0.920103
 H 0.0715 0.1509 0.8614   0.08192
 H 0.9416 0.2384 0.9365   0.114818
 H 0.0189 0.2419 0.0517   0.069138
 H 0.5247 0.946 0.1551   0.096625
 H 0.7491 0.9689 0.0949   0.120604
 H 0.7455 0.0463 0.9953   0.068556
 H 0.5167 0.1597 0.6115   0.110589
 H 0.6607 0.2915 0.6205   0.155472
 H 0.7211 0.2194 0.8505   0.140266
 H 0.6027 0.1441 0.8497   0.154389
 H 0.7741 0.1278 0.8288   0.144544
 H 0.7865 0.3764 0.7202   0.102959
 H 0.759 0.3412 0.795   0.075985
 H 0.9771 0.2536 0.7848   0.072449
 H 0.0219 0.3496 0.7762   0.089528
 H 0.9816 0.2385 0.666   0.081537
 H 0.0339 0.3335 0.6593   0.084554
 H 0.2457 0.2507 0.6453   0.0832
 H 0.2111 0.1998 0.7132   0.094933
 H 0.3243 0.2607 0.8275   0.135755
 H 0.4743 0.3885 0.8577   0.100592
 H 0.4151 0.4615 0.6247   0.161416
 H 0.336 0.3752 0.6047   0.148493
 H 0.2375 0.4505 0.6343   0.14739
 H 0.4285 0.8491 0.3614   0.081921
 H 0.5584 0.7616 0.4365   0.114818
 H 0.4811 0.7581 0.5517   0.069138
 H 0.9753 0.054 0.6551   0.096627
 H 0.7509 0.0311 0.5949   0.120604
 H 0.7545 0.9537 0.4953   0.068556
 H 0.9833 0.8403 0.1115   0.110589
 H 0.8393 0.7085 0.1205   0.155472
 H 0.7789 0.7806 0.3505   0.140266
 H 0.8973 0.8559 0.3497   0.154389
 H 0.7259 0.8722 0.3288   0.144545
 H 0.7135 0.6236 0.2202   0.102959
 H 0.741 0.6588 0.295   0.075985
 H 0.5229 0.7464 0.2848   0.072449
 H 0.4781 0.6504 0.2762   0.089528
 H 0.5184 0.7615 0.166   0.081537
 H 0.4661 0.6665 0.1593   0.084554
 H 0.2543 0.7493 0.1453   0.0832
 H 0.2889 0.8002 0.2132   0.094933
 H 0.1757 0.7393 0.3275   0.135755
 H 0.0257 0.6115 0.3577   0.100592
 H 0.0849 0.5385 0.1247   0.161416
 H 0.164 0.6248 0.1047   0.148493
 H 0.2625 0.5495 0.1343   0.14739
 H 0.9285 0.6509 0.6386   0.081921
 H 0.0584 0.7384 0.5635   0.114818
 H 0.9811 0.7419 0.4483   0.069137
 H 0.4753 0.446 0.3449   0.096626
 H 0.2509 0.4689 0.4051   0.120604
 H 0.2545 0.5463 0.5047   0.068557
 H 0.4833 0.6597 0.8885   0.110589
 H 0.3393 0.7915 0.8795   0.155471
 H 0.2789 0.7194 0.6495   0.140266
 H 0.3973 0.6441 0.6503   0.154388
 H 0.2259 0.6278 0.6712   0.144546
 H 0.2135 0.8764 0.7798   0.102959
 H 0.241 0.8412 0.705   0.075985
 H 0.0229 0.7536 0.7152   0.072449
 H 0.9781 0.8496 0.7238   0.089528
 H 0.0184 0.7385 0.834   0.081537
 H 0.9661 0.8335 0.8407   0.084554
 H 0.7543 0.7507 0.8547   0.0832
 H 0.7889 0.6998 0.7868   0.094933
 H 0.6757 0.7607 0.6725   0.135755
 H 0.5257 0.8885 0.6423   0.100592
 H 0.5849 0.9615 0.8753   0.161416
 H 0.664 0.8752 0.8953   0.148493
 H 0.7625 0.9505 0.8657   0.147393
 H 0.5715 0.3491 0.1386   0.081921
 H 0.4416 0.2616 0.0635   0.114818
 H 0.5189 0.2581 0.9483   0.069137
 H 0.0247 0.554 0.8449   0.096627
 H 0.2491 0.5311 0.9051   0.120604
 H 0.2455 0.4537 0.0047   0.068557
 H 0.0167 0.3403 0.3885   0.110589
 H 0.1607 0.2085 0.3795   0.155471
 H 0.2211 0.2806 0.1495   0.140266
 H 0.1027 0.3559 0.1503   0.154388
 H 0.2741 0.3722 0.1712   0.144547
 H 0.2865 0.1236 0.2798   0.102959
 H 0.259 0.1588 0.205   0.075985
 H 0.4771 0.2464 0.2152   0.072449
 H 0.5219 0.1504 0.2238   0.089528
 H 0.4816 0.2615 0.334   0.081537
 H 0.5339 0.1665 0.3407   0.084554
 H 0.7457 0.2493 0.3547   0.0832
 H 0.7111 0.3002 0.2868   0.094933
 H 0.8243 0.2393 0.1725   0.135755
 H 0.9743 0.1115 0.1423   0.100592
 H 0.9151 0.0385 0.3753   0.161416
 H 0.836 0.1248 0.3953   0.148493
 H 0.7375 0.0495 0.3657   0.147393
 C 0.2976 0.0443 0.8793   0.692771
 C 0.2188 0.1023 0.931   -0.179032
 C 0.0996 0.1527 0.9077   -0.001147
 C 0.0229 0.2048 0.9517   -0.184184
 C 0.0705 0.2063 0.0211   0.171002
 C 0.2585 0.106 0.000799999999998   0.229561
 C 0.3929 0.0584 0.0284   0.242246
 C 0.3861 0.0115 0.0893   -0.205186
 C 0.5237 0.9776 0.1145   0.018284
 C 0.6569 0.9912 0.0787   -0.201998
 C 0.654 0.0376 0.0191   0.190351
 C 0.2377 0.9906 0.1259   0.675518
 C 0.5663 0.1794 0.651   0.033505
 C 0.6462 0.2518 0.6555   -0.165092
 C 0.6542 0.1872 0.756   0.331974
 C 0.6911 0.168 0.8273   -0.436384
 C 0.797 0.3265 0.7494   -0.031371
 C 0.9672 0.3027 0.7547   -0.14741
 C 0.0402 0.2832 0.6884   -0.154902
 C 0.2055 0.2556 0.6919   -0.019197
 C 0.3465 0.3065 0.7987   -0.143592
 C 0.4294 0.3774 0.8151   0.040859
 C 0.36 0.3904 0.7061   0.342329
 C 0.335 0.4221 0.6366   -0.448175
 C 0.2024 0.9557 0.3793   0.692771
 C 0.2812 0.8977 0.431   -0.179032
 C 0.4004 0.8473 0.4077   -0.001147
 C 0.4771 0.7952 0.4517   -0.184184
 C 0.4295 0.7937 0.5211   0.171002
 C 0.2415 0.894 0.5008   0.229561
 C 0.1071 0.9416 0.5284   0.242246
 C 0.1139 0.9885 0.5893   -0.205186
 C 0.9763 0.0224 0.6145   0.018284
 C 0.8431 0.0088 0.5787   -0.201998
 C 0.846 0.9624 0.5191   0.190351
 C 0.2623 0.0094 0.6259   0.675518
 C 0.9337 0.8206 0.151   0.033505
 C 0.8538 0.7482 0.1555   -0.165092
 C 0.8458 0.8128 0.256   0.331974
 C 0.8089 0.832 0.3273   -0.436385
 C 0.703 0.6735 0.2494   -0.031371
 C 0.5328 0.6973 0.2547   -0.14741
 C 0.4598 0.7168 0.1884   -0.154902
 C 0.2945 0.7444 0.1919   -0.019197
 C 0.1535 0.6935 0.2987   -0.143592
 C 0.0706 0.6226 0.3151   0.040859
 C 0.14 0.6096 0.2061   0.342329
 C 0.165 0.5779 0.1366   -0.448175
 C 0.7024 0.5443 0.6207   0.692771
 C 0.7812 0.6023 0.569   -0.179032
 C 0.9004 0.6527 0.5923   -0.001147
 C 0.9771 0.7048 0.5483   -0.184184
 C 0.9295 0.7063 0.4789   0.171002
 C 0.7415 0.606 0.4992   0.229561
 C 0.6071 0.5584 0.4716   0.242246
 C 0.6139 0.5115 0.4107   -0.205186
 C 0.4763 0.4776 0.3855   0.018284
 C 0.3431 0.4912 0.4213   -0.201998
 C 0.346 0.5376 0.4809   0.190351
 C 0.7623 0.4906 0.3741   0.675518
 C 0.4337 0.6794 0.849   0.033506
 C 0.3538 0.7518 0.8445   -0.165092
 C 0.3458 0.6872 0.744   0.331974
 C 0.3089 0.668 0.6727   -0.436385
 C 0.203 0.8265 0.7506   -0.031371
 C 0.0328 0.8027 0.7453   -0.14741
 C 0.9598 0.7832 0.8116   -0.154902
 C 0.7945 0.7556 0.8081   -0.019197
 C 0.6535 0.8065 0.7013   -0.143592
 C 0.5706 0.8774 0.6849   0.040859
 C 0.64 0.8904 0.7939   0.342329
 C 0.665 0.9221 0.8634   -0.448176
 C 0.7976 0.4557 0.1207   0.692771
 C 0.7188 0.3977 0.069   -0.179032
 C 0.5996 0.3473 0.0923   -0.001147
 C 0.5229 0.2952 0.0483   -0.184184
 C 0.5705 0.2937 0.9789   0.171002
 C 0.7585 0.394 0.9992   0.229561
 C 0.8929 0.4416 0.9716   0.242246
 C 0.8861 0.4885 0.9107   -0.205186
 C 0.0237 0.5224 0.8855   0.018283
 C 0.1569 0.5088 0.9213   -0.201998
 C 0.154 0.4624 0.9809   0.190351
 C 0.7377 0.5094 0.8741   0.675518
 C 0.0663 0.3206 0.349   0.033506
 C 0.1462 0.2482 0.3445   -0.165092
 C 0.1542 0.3128 0.244   0.331974
 C 0.1911 0.332 0.1727   -0.436385
 C 0.297 0.1735 0.2506   -0.031371
 C 0.4672 0.1973 0.2453   -0.14741
 C 0.5402 0.2168 0.3116   -0.154902
 C 0.7055 0.2444 0.3081   -0.019197
 C 0.8465 0.1935 0.2013   -0.143592
 C 0.9294 0.1226 0.1849   0.040859
 C 0.86 0.1096 0.2939   0.342329
 C 0.835 0.0779 0.3634   -0.448176
 N 0.5687 0.1389 0.7131   -0.464651
 N 0.7027 0.2569 0.7209   0.012789
 N 0.4358 0.4302 0.7578   -0.47145
 N 0.3026 0.316 0.7316   -0.008053
 N 0.5253 0.071 0.9937   -0.411532
 N 0.1873 0.1585 0.0452   -0.40547
 N 0.9313 0.8611 0.2131   -0.464651
 N 0.7973 0.7431 0.2209   0.012789
 N 0.0642 0.5698 0.2578   -0.47145
 N 0.1974 0.684 0.2316   -0.008053
 N 0.9747 0.929 0.4937   -0.411532
 N 0.3127 0.8415 0.5452   -0.40547
 N 0.4313 0.6389 0.7869   -0.464651
 N 0.2973 0.7569 0.7791   0.012789
 N 0.5642 0.9302 0.7422   -0.47145
 N 0.6974 0.816 0.7684   -0.008053
 N 0.4747 0.571 0.5063   -0.411532
 N 0.8127 0.6585 0.4548   -0.40547
 N 0.0687 0.3611 0.2869   -0.464651
 N 0.2027 0.2431 0.2791   0.012789
 N 0.9358 0.0698 0.2422   -0.47145
 N 0.8026 0.184 0.2684   -0.008053
 N 0.0253 0.429 0.0063   -0.411532
 N 0.6873 0.3415 0.9548   -0.40547
 O 0.2927 0.9659 0.8858   -0.611538
 O 0.3554 0.0831 0.8288   -0.630942
 O 0.1171 0.9833 0.0945   -0.577862
 O 0.2497 0.9799 0.1911   -0.63784
 O 0.2073 0.0341 0.3858   -0.611538
 O 0.1446 0.9169 0.3288   -0.630942
 O 0.3829 0.0167 0.5945   -0.577862
 O 0.2503 0.0201 0.6911   -0.63784
 O 0.7073 0.4659 0.6142   -0.611538
 O 0.6446 0.5831 0.6712   -0.630942
 O 0.8829 0.4833 0.4055   -0.577862
 O 0.7503 0.4799 0.3089   -0.63784
 O 0.7927 0.5341 0.1142   -0.611538
 O 0.8554 0.4169 0.1712   -0.630942
 O 0.6171 0.5167 0.9055   -0.577862
 O 0.7497 0.5201 0.8089   -0.63784
