{'_ref': 'TBD', '_srcid': 'CAKYAQ_clean', 'submitters': [{'name': 'Dalar Nazarian Jeff Camp and David Sholl', 'email': 'dalar@gatech.edu jcamp6@gatech.edu'}], '_method': 'VASP DFT with PBE;DDEC'}
data_Ni4H27C36(N4O)3
_symmetry_space_group_name_H-M   'P 1'
_cell_length_a   17.94650008
_cell_length_b   17.94650000
_cell_length_c   17.94650000
_cell_angle_alpha   60.00000000
_cell_angle_beta   60.00000015
_cell_angle_gamma   60.00000102
_symmetry_Int_Tables_number   1
_chemical_formula_structural   Ni4H27C36(N4O)3
_chemical_formula_sum   'Ni8 H54 C72 N24 O6'
_cell_volume   4087.18501896
_cell_formula_units_Z   2
loop_
 _symmetry_equiv_pos_site_id
 _symmetry_equiv_pos_as_xyz
  1  'x, y, z'
loop_
 _atom_site_label
 _atom_site_fract_x
 _atom_site_fract_y
 _atom_site_fract_z
 _atom_site_charge
 Ni 0.82873 0.05709 0.05709   0.699869
 Ni 0.05709 0.82873 0.05709   0.699869
 Ni 0.05709 0.05709 0.82873   0.699869
 Ni 0.05709 0.05709 0.05709   0.699868
 Ni 0.94291 0.17127 0.94291   0.699883
 Ni 0.17127 0.94291 0.94291   0.699883
 Ni 0.94291 0.94291 0.17127   0.699883
 Ni 0.94291 0.94291 0.94291   0.699882
 H 0.87564 0.12436 0.12436   0.450357
 H 0.12436 0.87564 0.87564   0.450357
 H 0.87564 0.12436 0.87564   0.450357
 H 0.12436 0.87564 0.12436   0.450357
 H 0.87564 0.87564 0.12436   0.450357
 H 0.12436 0.12436 0.87564   0.450357
 H 0.51465 0.64505 0.92015   0.106235
 H 0.39251 0.76539 0.92105   0.092132
 H 0.64505 0.51465 0.92015   0.106232
 H 0.76539 0.39251 0.92105   0.092132
 H 0.92015 0.92015 0.51465   0.106235
 H 0.92105 0.92105 0.39251   0.092132
 H 0.92015 0.92015 0.64505   0.106232
 H 0.92105 0.92105 0.76539   0.092132
 H 0.51465 0.92015 0.92015   0.106234
 H 0.39251 0.92105 0.92105   0.092131
 H 0.64505 0.92015 0.92015   0.106232
 H 0.76539 0.92105 0.92105   0.092131
 H 0.92015 0.51465 0.64505   0.106234
 H 0.92105 0.39251 0.76539   0.092131
 H 0.92015 0.64505 0.51465   0.106231
 H 0.92105 0.76539 0.39251   0.092131
 H 0.51465 0.92015 0.64505   0.106233
 H 0.39251 0.92105 0.76539   0.092131
 H 0.64505 0.92015 0.51465   0.106231
 H 0.76539 0.92105 0.39251   0.092131
 H 0.92015 0.64505 0.92015   0.106233
 H 0.92105 0.76539 0.92105   0.092131
 H 0.92015 0.51465 0.92015   0.106231
 H 0.92105 0.39251 0.92105   0.092131
 H 0.35495 0.48535 0.07985   0.106235
 H 0.23461 0.60749 0.07895   0.092132
 H 0.48535 0.35495 0.07985   0.106232
 H 0.60749 0.23461 0.07895   0.092132
 H 0.07985 0.07985 0.48535   0.106235
 H 0.07895 0.07895 0.60749   0.092132
 H 0.07985 0.07985 0.35495   0.106232
 H 0.07895 0.07895 0.23461   0.092132
 H 0.07985 0.48535 0.07985   0.106234
 H 0.07895 0.60749 0.07895   0.092132
 H 0.07985 0.35495 0.07985   0.106232
 H 0.07895 0.23461 0.07895   0.092132
 H 0.48535 0.07985 0.35495   0.106234
 H 0.60749 0.07895 0.23461   0.092132
 H 0.35495 0.07985 0.48535   0.106232
 H 0.23461 0.07895 0.60749   0.092132
 H 0.07985 0.48535 0.35495   0.106233
 H 0.07895 0.60749 0.23461   0.092131
 H 0.07985 0.35495 0.48535   0.106231
 H 0.07895 0.23461 0.60749   0.092131
 H 0.35495 0.07985 0.07985   0.106233
 H 0.23461 0.07895 0.07895   0.092131
 H 0.48535 0.07985 0.07985   0.106231
 H 0.60749 0.07895 0.07895   0.092131
 C 0.42254 0.57746 0.0   0.082453
 C 0.34176 0.65824 0.0   -0.119009
 C 0.57746 0.42254 0.0   0.082451
 C 0.65824 0.34176 0.0   -0.119009
 C 0.0 0.0 0.42254   0.082452
 C 0.0 0.0 0.34176   -0.119009
 C 0.0 0.0 0.57746   0.082452
 C 0.0 0.0 0.65824   -0.119009
 C 0.42254 0.0 0.0   0.082453
 C 0.34176 0.0 0.0   -0.119009
 C 0.57746 0.0 0.0   0.082451
 C 0.65824 0.0 0.0   -0.119009
 C 0.0 0.42254 0.57746   0.082452
 C 0.0 0.34176 0.65824   -0.119009
 C 0.0 0.57746 0.42254   0.082452
 C 0.0 0.65824 0.34176   -0.119009
 C 0.42254 0.0 0.57746   0.082452
 C 0.34176 0.0 0.65824   -0.119009
 C 0.57746 0.0 0.42254   0.082452
 C 0.65824 0.0 0.34176   -0.119009
 C 0.0 0.57746 0.0   0.082453
 C 0.0 0.65824 0.0   -0.119009
 C 0.0 0.42254 0.0   0.082451
 C 0.0 0.34176 0.0   -0.119009
 C 0.50871 0.58615 0.95257   -0.128913
 C 0.34055 0.74615 0.95665   0.016566
 C 0.58615 0.50871 0.95257   -0.128908
 C 0.74615 0.34055 0.95665   0.016565
 C 0.95257 0.95257 0.50871   -0.128912
 C 0.95665 0.95665 0.34055   0.016566
 C 0.95257 0.95257 0.58615   -0.128908
 C 0.95665 0.95665 0.74615   0.016566
 C 0.50871 0.95257 0.95257   -0.128912
 C 0.34055 0.95665 0.95665   0.016566
 C 0.58615 0.95257 0.95257   -0.128908
 C 0.74615 0.95665 0.95665   0.016566
 C 0.95257 0.50871 0.58615   -0.128912
 C 0.95665 0.34055 0.74615   0.016566
 C 0.95257 0.58615 0.50871   -0.128908
 C 0.95665 0.74615 0.34055   0.016566
 C 0.50871 0.95257 0.58615   -0.128912
 C 0.34055 0.95665 0.74615   0.016566
 C 0.58615 0.95257 0.50871   -0.128908
 C 0.74615 0.95665 0.34055   0.016566
 C 0.95257 0.58615 0.95257   -0.128912
 C 0.95665 0.74615 0.95665   0.016567
 C 0.95257 0.50871 0.95257   -0.128907
 C 0.95665 0.34055 0.95665   0.016566
 C 0.41385 0.49129 0.04743   -0.128913
 C 0.25385 0.65945 0.04335   0.016561
 C 0.49129 0.41385 0.04743   -0.128908
 C 0.65945 0.25385 0.04335   0.01656
 C 0.04743 0.04743 0.49129   -0.128912
 C 0.04335 0.04335 0.65945   0.016561
 C 0.04743 0.04743 0.41385   -0.128908
 C 0.04335 0.04335 0.25385   0.016561
 C 0.04743 0.49129 0.04743   -0.128912
 C 0.04335 0.65945 0.04335   0.016561
 C 0.04743 0.41385 0.04743   -0.128908
 C 0.04335 0.25385 0.04335   0.016561
 C 0.49129 0.04743 0.41385   -0.128912
 C 0.65945 0.04335 0.25385   0.016561
 C 0.41385 0.04743 0.49129   -0.128908
 C 0.25385 0.04335 0.65945   0.016561
 C 0.04743 0.49129 0.41385   -0.128912
 C 0.04335 0.65945 0.25385   0.016561
 C 0.04743 0.41385 0.49129   -0.128908
 C 0.04335 0.25385 0.65945   0.016561
 C 0.41385 0.04743 0.04743   -0.128912
 C 0.25385 0.04335 0.04335   0.016562
 C 0.49129 0.04743 0.04743   -0.128907
 C 0.65945 0.04335 0.04335   0.016561
 N 0.25193 0.80165 0.97321   -0.213595
 N 0.80165 0.25193 0.97321   -0.213595
 N 0.97321 0.97321 0.25193   -0.213595
 N 0.97321 0.97321 0.80165   -0.213595
 N 0.25193 0.97321 0.97321   -0.213595
 N 0.80165 0.97321 0.97321   -0.213595
 N 0.97321 0.25193 0.80165   -0.213595
 N 0.97321 0.80165 0.25193   -0.213595
 N 0.25193 0.97321 0.80165   -0.213595
 N 0.80165 0.97321 0.25193   -0.213595
 N 0.97321 0.80165 0.97321   -0.213595
 N 0.97321 0.25193 0.97321   -0.213595
 N 0.19835 0.74807 0.02679   -0.213564
 N 0.74807 0.19835 0.02679   -0.213564
 N 0.02679 0.02679 0.74807   -0.213565
 N 0.02679 0.02679 0.19835   -0.213564
 N 0.02679 0.74807 0.02679   -0.213565
 N 0.02679 0.19835 0.02679   -0.213564
 N 0.74807 0.02679 0.19835   -0.213564
 N 0.19835 0.02679 0.74807   -0.213564
 N 0.02679 0.74807 0.19835   -0.213564
 N 0.02679 0.19835 0.74807   -0.213564
 N 0.19835 0.02679 0.02679   -0.213564
 N 0.74807 0.02679 0.02679   -0.213565
 O 0.91307 0.08693 0.08693   -0.800163
 O 0.08693 0.91307 0.91307   -0.800163
 O 0.91307 0.08693 0.91307   -0.800163
 O 0.08693 0.91307 0.08693   -0.800163
 O 0.91307 0.91307 0.08693   -0.800163
 O 0.08693 0.08693 0.91307   -0.800163
