{'_ref': 'TBD', '_srcid': 'CAKYAQ_clean', 'submitters': [{'name': 'Dalar Nazarian Jeff Camp and David Sholl', 'email': 'dalar@gatech.edu jcamp6@gatech.edu'}], '_method': 'VASP DFT with PBE;DDEC'}
data_Zn5H18(C2N)18
_symmetry_space_group_name_H-M   'P 1'
_cell_length_a   17.75000000
_cell_length_b   17.75000007
_cell_length_c   19.19200000
_cell_angle_alpha   90.00000000
_cell_angle_beta   90.00000000
_cell_angle_gamma   119.99999987
_symmetry_Int_Tables_number   1
_chemical_formula_structural   Zn5H18(C2N)18
_chemical_formula_sum   'Zn10 H36 C72 N36'
_cell_volume   5236.57808376
_cell_formula_units_Z   2
loop_
 _symmetry_equiv_pos_site_id
 _symmetry_equiv_pos_as_xyz
  1  'x, y, z'
loop_
 _atom_site_label
 _atom_site_fract_x
 _atom_site_fract_y
 _atom_site_fract_z
 _atom_site_charge
 Zn 0.87288 0.50416 0.32784   0.007149
 Zn 0.63128 0.12712 0.32784   0.007158
 Zn 0.49584 0.36872 0.32784   0.007152
 Zn 0.36872 0.49584 0.67216   0.007149
 Zn 0.50416 0.87288 0.67216   0.007158
 Zn 0.12712 0.63128 0.67216   0.007152
 Zn 0.66667 0.33334 0.26447   0.450747
 Zn 0.66667 0.33334 0.07796   -0.005846
 Zn 0.33333 0.66666 0.73553   0.450747
 Zn 0.33333 0.66666 0.92204   -0.005846
 H 0.7946 0.1359 0.433   0.104481
 H 0.9206 0.1998 0.4994   0.112229
 H 0.9796 0.4432 0.4398   0.104587
 H 0.8595 0.4702 0.000500000000002   0.102184
 H 0.0854 0.6531 0.0897   0.114658
 H 0.0261 0.6191 0.2008   0.106573
 H 0.3413 0.2054 0.433   0.104481
 H 0.2792 0.0794 0.4994   0.112229
 H 0.4636 0.0204 0.4398   0.104587
 H 0.6107 0.1405 0.000500000000002   0.10219
 H 0.5677 0.9146 0.0897   0.114657
 H 0.593 0.9739 0.2008   0.106571
 H 0.8641 0.6587 0.433   0.104482
 H 0.8002 0.7208 0.4994   0.11223
 H 0.5568 0.5364 0.4398   0.104588
 H 0.5298 0.3893 0.000500000000002   0.102185
 H 0.3469 0.4323 0.0897   0.114657
 H 0.3809 0.407 0.2008   0.106571
 H 0.6587 0.8641 0.567   0.104482
 H 0.7208 0.8002 0.5006   0.112229
 H 0.5364 0.5568 0.5602   0.104587
 H 0.3893 0.5298 0.9995   0.102184
 H 0.4323 0.3469 0.9103   0.114658
 H 0.407 0.3809 0.7992   0.106573
 H 0.1359 0.7946 0.567   0.104482
 H 0.1998 0.9206 0.5006   0.112229
 H 0.4432 0.9796 0.5602   0.104587
 H 0.4702 0.8595 0.9995   0.10219
 H 0.6531 0.0854 0.9103   0.114657
 H 0.6191 0.0261 0.7992   0.106571
 H 0.2054 0.3413 0.567   0.104483
 H 0.0794 0.2792 0.5006   0.112229
 H 0.0204 0.4636 0.5602   0.104588
 H 0.1405 0.6107 0.9995   0.102185
 H 0.9146 0.5677 0.9103   0.114657
 H 0.9739 0.593 0.7992   0.106571
 C 0.8673 0.34375 0.39747   0.109598
 C 0.8117 0.2531 0.39544   0.086689
 C 0.8313 0.1973 0.4342   -0.133398
 C 0.9055 0.2358 0.4733   -0.122021
 C 0.9615 0.3284 0.47673   0.054621
 C 0.9426 0.3818 0.43856   -0.179763
 C 0.9053 0.5214 0.16716   0.089176
 C 0.85729 0.47929 0.10786   0.102417
 C 0.8929 0.4997 0.04036   -0.181899
 C 0.9781 0.5641 0.03483   0.050371
 C 0.02668 0.60819 0.09528   -0.111146
 C 0.99265 0.58876 0.16112   -0.134456
 C 0.47645 0.1327 0.39747   0.109596
 C 0.4414 0.1883 0.39544   0.086687
 C 0.366 0.1687 0.4342   -0.133397
 C 0.3303 0.0945 0.4733   -0.122022
 C 0.3669 0.0385 0.47673   0.054621
 C 0.4392 0.0574 0.43856   -0.17976
 C 0.6161 0.0947 0.16716   0.089167
 C 0.622 0.14271 0.10786   0.102466
 C 0.6068 0.1071 0.04036   -0.181902
 C 0.586 0.0219 0.03483   0.05037
 C 0.58151 0.97332 0.09528   -0.111152
 C 0.59611 0.00735 0.16112   -0.134452
 C 0.65625 0.52355 0.39747   0.109601
 C 0.7469 0.5586 0.39544   0.086693
 C 0.8027 0.634 0.4342   -0.133399
 C 0.7642 0.6697 0.4733   -0.12202
 C 0.6716 0.6331 0.47673   0.054622
 C 0.6182 0.5608 0.43856   -0.179764
 C 0.4786 0.3839 0.16716   0.089175
 C 0.52071 0.378 0.10786   0.102423
 C 0.5003 0.3932 0.04036   -0.181898
 C 0.4359 0.414 0.03483   0.050369
 C 0.39181 0.41849 0.09528   -0.111147
 C 0.41124 0.40389 0.16112   -0.134454
 C 0.52355 0.65625 0.60253   0.109598
 C 0.5586 0.7469 0.60456   0.086689
 C 0.634 0.8027 0.5658   -0.133398
 C 0.6697 0.7642 0.5267   -0.122021
 C 0.6331 0.6716 0.52327   0.05462
 C 0.5608 0.6182 0.56144   -0.179763
 C 0.3839 0.4786 0.83284   0.089176
 C 0.378 0.52071 0.89214   0.102417
 C 0.3932 0.5003 0.95964   -0.181898
 C 0.414 0.4359 0.96517   0.050372
 C 0.41849 0.39181 0.90472   -0.111146
 C 0.40389 0.41124 0.83888   -0.134456
 C 0.34375 0.8673 0.60253   0.109596
 C 0.2531 0.8117 0.60456   0.086687
 C 0.1973 0.8313 0.5658   -0.133397
 C 0.2358 0.9055 0.5267   -0.122022
 C 0.3284 0.9615 0.52327   0.054621
 C 0.3818 0.9426 0.56144   -0.17976
 C 0.5214 0.9053 0.83284   0.089167
 C 0.47929 0.85729 0.89214   0.102466
 C 0.4997 0.8929 0.95964   -0.181902
 C 0.5641 0.9781 0.96517   0.050371
 C 0.60819 0.02668 0.90472   -0.111152
 C 0.58876 0.99265 0.83888   -0.134452
 C 0.1327 0.47645 0.60253   0.109601
 C 0.1883 0.4414 0.60456   0.086693
 C 0.1687 0.366 0.5658   -0.133399
 C 0.0945 0.3303 0.5267   -0.12202
 C 0.0385 0.3669 0.52327   0.054622
 C 0.0574 0.4392 0.56144   -0.179764
 C 0.0947 0.6161 0.83284   0.089175
 C 0.14271 0.622 0.89214   0.102423
 C 0.1071 0.6068 0.95964   -0.181898
 C 0.0219 0.586 0.96517   0.050369
 C 0.97332 0.58151 0.90472   -0.111146
 C 0.00735 0.59611 0.83888   -0.134454
 N 0.74431 0.2378 0.35294   -0.091572
 N 0.75739 0.31416 0.33034   -0.030875
 N 0.83101 0.37886 0.35666   -0.097483
 N 0.85265 0.48536 0.22328   -0.094499
 N 0.77604 0.42367 0.19914   -0.025961
 N 0.77666 0.4183 0.13042   -0.089917
 N 0.49349 0.25569 0.35294   -0.091567
 N 0.55677 0.24261 0.33034   -0.03089
 N 0.54785 0.16899 0.35666   -0.097475
 N 0.63271 0.14735 0.22328   -0.094491
 N 0.64763 0.22396 0.19914   -0.025977
 N 0.64164 0.22334 0.13042   -0.090075
 N 0.7622 0.50651 0.35294   -0.091592
 N 0.68584 0.44323 0.33034   -0.030824
 N 0.62114 0.45215 0.35666   -0.097499
 N 0.51464 0.36729 0.22328   -0.094494
 N 0.57633 0.35237 0.19914   -0.025984
 N 0.5817 0.35836 0.13042   -0.089938
 N 0.50651 0.7622 0.64706   -0.091572
 N 0.44323 0.68584 0.66966   -0.030875
 N 0.45215 0.62114 0.64334   -0.097483
 N 0.36729 0.51464 0.77672   -0.094499
 N 0.35237 0.57633 0.80086   -0.025961
 N 0.35836 0.5817 0.86958   -0.089917
 N 0.2378 0.74431 0.64706   -0.091567
 N 0.31416 0.75739 0.66966   -0.03089
 N 0.37886 0.83101 0.64334   -0.097475
 N 0.48536 0.85265 0.77672   -0.094491
 N 0.42367 0.77604 0.80086   -0.025977
 N 0.4183 0.77666 0.86958   -0.090075
 N 0.25569 0.49349 0.64706   -0.091592
 N 0.24261 0.55677 0.66966   -0.030824
 N 0.16899 0.54785 0.64334   -0.097499
 N 0.14735 0.63271 0.77672   -0.094494
 N 0.22396 0.64763 0.80086   -0.025984
 N 0.22334 0.64164 0.86958   -0.089938
