{'_ref': 'TBD', '_srcid': 'CAKYAQ_clean', 'submitters': [{'name': 'Dalar Nazarian Jeff Camp and David Sholl', 'email': 'dalar@gatech.edu jcamp6@gatech.edu'}], '_method': 'VASP DFT with PBE;DDEC'}
data_Cu3H23C29N10Cl3O
_symmetry_space_group_name_H-M   'P 1'
_cell_length_a   12.28699994
_cell_length_b   12.91599992
_cell_length_c   18.19900000
_cell_angle_alpha   86.73300044
_cell_angle_beta   70.44300135
_cell_angle_gamma   80.14599837
_symmetry_Int_Tables_number   1
_chemical_formula_structural   Cu3H23C29N10Cl3O
_chemical_formula_sum   'Cu6 H46 C58 N20 Cl6 O2'
_cell_volume   2681.38913713
_cell_formula_units_Z   2
loop_
 _symmetry_equiv_pos_site_id
 _symmetry_equiv_pos_as_xyz
  1  'x, y, z'
loop_
 _atom_site_label
 _atom_site_fract_x
 _atom_site_fract_y
 _atom_site_fract_z
 _atom_site_charge
 Cu 0.4707 0.36855 0.83854   0.566545
 Cu 0.72428 0.22262 0.83746   0.495142
 Cu 0.64441 0.25428 0.67521   0.555093
 Cu 0.5293 0.63145 0.16146   0.566544
 Cu 0.27572 0.77738 0.16254   0.495141
 Cu 0.35559 0.74572 0.32479   0.555092
 H 0.2543 0.2719 0.8997   0.084119
 H 0.0562 0.3234 0.9652   0.102176
 H 0.1111 0.619 0.9768   0.115424
 H 0.3092 0.5675 0.9112   0.053323
 H 0.4847 0.109 0.6948   0.082828
 H 0.4205 0.0011 0.6258   0.122888
 H 0.6412 0.0941 0.4248   0.1206
 H 0.7054 0.2021 0.4938   0.080514
 H 0.9135 0.2254 0.562   0.073091
 H 0.0593 0.3251 0.5017   0.124681
 H 0.8196 0.5879 0.548   0.126811
 H 0.6738 0.4882 0.6083   0.081417
 H 0.8122 0.0404 0.587   0.111992
 H 0.9447 0.0302 0.7648   0.112612
 H 0.6943 0.2682 0.0206   0.114712
 H 0.3737 0.4212 0.0258   0.117774
 H 0.674 0.38 0.763   0.362334
 H 0.2925 0.5122 0.7665   0.087995
 H 0.5073 0.3989 0.5613   0.087673
 H 0.7303 0.0429 0.929   0.067878
 H 0.8223 0.9526 0.0137   0.120966
 H 0.0751 0.1207 0.9169   0.11434
 H 0.9344 0.2402 0.8805   0.061668
 H 0.7457 0.7281 0.1003   0.084119
 H 0.9438 0.6766 0.0348   0.102172
 H 0.8889 0.381 0.0232   0.115423
 H 0.6908 0.4325 0.0888   0.053324
 H 0.5153 0.891 0.3052   0.082828
 H 0.5795 0.9989 0.3742   0.12288
 H 0.3588 0.9059 0.5752   0.120591
 H 0.2946 0.7979 0.5062   0.080514
 H 0.0865 0.7746 0.438   0.073091
 H 0.9407 0.6749 0.4983   0.124675
 H 0.1804 0.4121 0.452   0.126806
 H 0.3262 0.5118 0.3917   0.081417
 H 0.1878 0.9596 0.413   0.111991
 H 0.0553 0.9698 0.2352   0.112612
 H 0.3057 0.7318 0.9794   0.114714
 H 0.6263 0.5788 0.9742   0.117773
 H 0.326 0.62 0.237   0.362333
 H 0.7075 0.4878 0.2335   0.087995
 H 0.4927 0.6011 0.4387   0.087673
 H 0.2697 0.9571 0.071   0.067877
 H 0.1777 0.0474 0.9863   0.12097
 H 0.9249 0.8793 0.0831   0.114343
 H 0.0656 0.7598 0.1195   0.061669
 C 0.2256 0.3415 0.9151   0.103492
 C 0.1069 0.3723 0.9544   -0.191088
 C 0.064 0.4763 0.9775   0.055767
 C 0.1398 0.5495 0.9613   -0.195513
 C 0.2585 0.5186 0.922   0.126551
 C 0.5161 0.106 0.6407   0.110791
 C 0.4776 0.0414 0.5993   -0.193222
 C 0.5245 0.0369 0.5185   0.065926
 C 0.6098 0.0971 0.4789   -0.196828
 C 0.6483 0.1618 0.5203   0.128437
 C 0.8947 0.298 0.5592   0.157538
 C 0.982 0.3578 0.5231   -0.198968
 C 0.9539 0.4664 0.5188   0.075976
 C 0.8384 0.5152 0.5508   -0.197355
 C 0.7511 0.4555 0.5869   0.138702
 C 0.8251 0.0569 0.6322   -0.062289
 C 0.9088 0.9995 0.6636   0.01091
 C 0.9 0.0512 0.7326   -0.06398
 C 0.6305 0.2972 0.0054   -0.060292
 C 0.5228 0.3527 0.0543   0.002037
 C 0.4494 0.3837 0.0083   -0.028018
 C 0.3581 0.4807 0.727   -0.02796
 C 0.3753 0.496 0.6433   -0.03322
 C 0.472 0.415 0.6139   -0.060619
 C 0.7952 0.066 0.9338   0.122298
 C 0.8539 0.007 0.9824   -0.231941
 C 0.9635 0.0336 0.9813   0.076482
 C 0.998 0.109 0.9316   -0.201413
 C 0.9177 0.174 0.9   0.124923
 C 0.7744 0.6585 0.0849   0.103485
 C 0.8931 0.6277 0.0456   -0.191064
 C 0.936 0.5237 0.0225   0.055611
 C 0.8602 0.4505 0.0387   -0.195493
 C 0.7415 0.4814 0.078   0.126544
 C 0.4839 0.894 0.3593   0.110784
 C 0.5224 0.9586 0.4007   -0.193201
 C 0.4755 0.9631 0.4815   0.065775
 C 0.3902 0.9029 0.5211   -0.196805
 C 0.3517 0.8382 0.4797   0.12843
 C 0.1053 0.702 0.4408   0.157534
 C 0.018 0.6422 0.4769   -0.198954
 C 0.0461 0.5336 0.4812   0.075882
 C 0.1616 0.4848 0.4492   -0.197341
 C 0.2489 0.5445 0.4131   0.138698
 C 0.1749 0.9431 0.3678   -0.062289
 C 0.0912 0.000500000000002 0.3364   0.01091
 C 0.1 0.9488 0.2674   -0.06398
 C 0.3695 0.7028 0.9946   -0.060295
 C 0.4772 0.6473 0.9457   0.002038
 C 0.5506 0.6163 0.9917   -0.028017
 C 0.6419 0.5193 0.273   -0.02796
 C 0.6247 0.504 0.3567   -0.03322
 C 0.528 0.585 0.3861   -0.060619
 C 0.2048 0.934 0.0662   0.122292
 C 0.1461 0.993 0.0176   -0.231919
 C 0.0365 0.9664 0.0187   0.076325
 C 0.002 0.891 0.0684   -0.201387
 C 0.0823 0.826 0.1   0.124916
 N 0.3014 0.4146 0.899   -0.322399
 N 0.6014 0.1662 0.6012   -0.306477
 N 0.7792 0.3469 0.5911   -0.36736
 N 0.8108 0.1405 0.7439   -0.248033
 N 0.7646 0.1441 0.6819   -0.181387
 N 0.5117 0.3474 0.9311   -0.231719
 N 0.6237 0.2939 0.9293   -0.225113
 N 0.5124 0.3592 0.6765   -0.223957
 N 0.4446 0.4181 0.7397   -0.190449
 N 0.8262 0.1472 0.8975   -0.247594
 N 0.6986 0.5854 0.101   -0.322396
 N 0.3986 0.8338 0.3988   -0.306474
 N 0.2208 0.6531 0.4089   -0.367358
 N 0.1892 0.8595 0.2561   -0.248033
 N 0.2354 0.8559 0.3181   -0.181387
 N 0.4883 0.6526 0.0689   -0.231719
 N 0.3763 0.7061 0.0707   -0.225112
 N 0.4876 0.6408 0.3235   -0.223957
 N 0.5554 0.5819 0.2603   -0.190449
 N 0.1738 0.8528 0.1025   -0.247591
 Cl 0.489 0.3685 0.1508   -0.091053
 Cl 0.007 0.9006 0.6178   -0.098388
 Cl 0.2994 0.5583 0.5957   -0.032398
 Cl 0.511 0.6315 0.8492   -0.091054
 Cl 0.993 0.0994 0.3822   -0.098389
 Cl 0.7006 0.4417 0.4043   -0.032398
 O 0.6357 0.3177 0.777   -0.735161
 O 0.3643 0.6823 0.223   -0.735161
