{'_ref': 'TBD', '_srcid': 'CAKYAQ_clean', 'submitters': [{'name': 'Dalar Nazarian Jeff Camp and David Sholl', 'email': 'dalar@gatech.edu jcamp6@gatech.edu'}], '_method': 'VASP DFT with PBE;DDEC'}
data_CuH6C7O4
_symmetry_space_group_name_H-M   'P 1'
_cell_length_a   8.57319964
_cell_length_b   8.57319952
_cell_length_c   14.33590000
_cell_angle_alpha   87.08439733
_cell_angle_beta   87.08439737
_cell_angle_gamma   81.74280183
_symmetry_Int_Tables_number   1
_chemical_formula_structural   CuH6C7O4
_chemical_formula_sum   'Cu4 H24 C28 O16'
_cell_volume   1040.40015265
_cell_formula_units_Z   4
loop_
 _symmetry_equiv_pos_site_id
 _symmetry_equiv_pos_as_xyz
  1  'x, y, z'
loop_
 _atom_site_label
 _atom_site_fract_x
 _atom_site_fract_y
 _atom_site_fract_z
 _atom_site_charge
 Cu 0.9771 0.6543 0.49   0.902703
 Cu 0.3457 0.0229 0.01   0.902703
 Cu 0.0229 0.3457 0.51   0.902704
 Cu 0.6543 0.9771 0.99   0.902704
 H 0.5377 0.3751 0.4174   0.105032
 H 0.5243 0.5639 0.4125   0.103442
 H 0.4006 0.2366 0.3025   0.111554
 H 0.2979 0.3355 0.2233   0.112624
 H 0.3641 0.7239 0.2867   0.110905
 H 0.7855 0.3013 0.2073   0.110719
 H 0.6249 0.4623 0.0826   0.105032
 H 0.4361 0.4757 0.0875   0.103442
 H 0.7634 0.5994 0.1975   0.111555
 H 0.6645 0.7021 0.2767   0.112625
 H 0.2761 0.6359 0.2133   0.110905
 H 0.6987 0.2145 0.2927   0.110718
 H 0.4623 0.6249 0.5826   0.105032
 H 0.4757 0.4361 0.5875   0.103442
 H 0.5994 0.7634 0.6975   0.111554
 H 0.7021 0.6645 0.7767   0.112624
 H 0.6359 0.2761 0.7133   0.110905
 H 0.2145 0.6987 0.7927   0.110719
 H 0.3751 0.5377 0.9174   0.105032
 H 0.5639 0.5243 0.9125   0.103442
 H 0.2366 0.4006 0.8025   0.111555
 H 0.3355 0.2979 0.7233   0.112625
 H 0.7239 0.3641 0.7867   0.110905
 H 0.3013 0.7855 0.7073   0.110718
 C 0.2377 0.4891 0.3855   0.649943
 C 0.3819 0.4807 0.3168   0.032189
 C 0.5306 0.4698 0.3745   -0.219114
 C 0.6795 0.4595 0.3071   0.035685
 C 0.8177 0.4577 0.3719   0.649868
 C 0.3937 0.3313 0.2597   -0.22119
 C 0.5109 0.7623 0.1145   0.649943
 C 0.5193 0.6181 0.1832   0.03219
 C 0.5302 0.4694 0.1255   -0.219114
 C 0.5405 0.3205 0.1929   0.035685
 C 0.5423 0.1823 0.1281   0.649868
 C 0.6687 0.6063 0.2403   -0.221191
 C 0.7623 0.5109 0.6145   0.649943
 C 0.6181 0.5193 0.6832   0.032189
 C 0.4694 0.5302 0.6255   -0.219114
 C 0.3205 0.5405 0.6929   0.035685
 C 0.1823 0.5423 0.6281   0.649868
 C 0.6063 0.6687 0.7403   -0.22119
 C 0.4891 0.2377 0.8855   0.649943
 C 0.4807 0.3819 0.8168   0.03219
 C 0.4698 0.5306 0.8745   -0.219114
 C 0.4595 0.6795 0.8071   0.035685
 C 0.4577 0.8177 0.8719   0.649868
 C 0.3313 0.3937 0.7597   -0.221191
 C 0.3719 0.6281 0.25   -0.217025
 C 0.6905 0.3095 0.25   -0.219343
 C 0.6281 0.3719 0.75   -0.217025
 C 0.3095 0.6905 0.75   -0.219343
 O 0.1688 0.6236 0.4067   -0.564761
 O 0.1989 0.3603 0.4181   -0.564793
 O 0.8847 0.3279 0.4049   -0.545754
 O 0.8483 0.5909 0.3923   -0.590869
 O 0.3764 0.8312 0.0933   -0.564761
 O 0.6397 0.8011 0.0819   -0.564793
 O 0.6721 0.1153 0.0951   -0.545754
 O 0.4091 0.1517 0.1077   -0.590869
 O 0.8312 0.3764 0.5933   -0.564761
 O 0.8011 0.6397 0.5819   -0.564793
 O 0.1153 0.6721 0.5951   -0.545754
 O 0.1517 0.4091 0.6077   -0.590869
 O 0.6236 0.1688 0.9067   -0.564761
 O 0.3603 0.1989 0.9181   -0.564793
 O 0.3279 0.8847 0.9049   -0.545754
 O 0.5909 0.8483 0.8923   -0.590869
