{'_ref': 'TBD', '_srcid': 'CAKYAQ_clean', 'submitters': [{'name': 'Dalar Nazarian Jeff Camp and David Sholl', 'email': 'dalar@gatech.edu jcamp6@gatech.edu'}], '_method': 'VASP DFT with PBE;DDEC'}
data_Co3H26C32(NO)10
_symmetry_space_group_name_H-M   'P 1'
_cell_length_a   6.71599973
_cell_length_b   11.92699967
_cell_length_c   13.13700000
_cell_angle_alpha   82.91099750
_cell_angle_beta   83.69599687
_cell_angle_gamma   87.90199906
_symmetry_Int_Tables_number   1
_chemical_formula_structural   Co3H26C32(NO)10
_chemical_formula_sum   'Co3 H26 C32 N10 O10'
_cell_volume   1037.65431613
_cell_formula_units_Z   1
loop_
 _symmetry_equiv_pos_site_id
 _symmetry_equiv_pos_as_xyz
  1  'x, y, z'
loop_
 _atom_site_label
 _atom_site_fract_x
 _atom_site_fract_y
 _atom_site_fract_z
 _atom_site_charge
 Co 0.2219 0.34631 0.33128   0.763858
 Co 0.7781 0.65369 0.66872   0.763858
 Co 0.5 0.5 0.5   1.00372
 H 0.026 0.5266 0.281   0.319668
 H 0.297 0.4568 0.1058   0.077974
 H 0.8286 0.0926 0.4779   0.077201
 H 0.4417 0.7794 0.7839   0.065483
 H 0.9481 0.2104 0.2238   0.073082
 H 0.8437 0.1912 0.0638   0.133383
 H 0.2765 0.9496 0.7848   0.126557
 H 0.000700000000002 0.302 0.918   0.116414
 H 0.8194 0.895 0.5535   0.077795
 H 0.4007 0.1044 0.6738   0.096694
 H 0.6014 0.2404 0.5793   0.134111
 H 0.2463 0.3659 0.8009   0.126897
 H 0.3379 0.522 0.9147   0.076156
 H 0.974 0.4734 0.719   0.319668
 H 0.703 0.5432 0.8942   0.077973
 H 0.1714 0.9074 0.5221   0.0772
 H 0.5583 0.2206 0.2161   0.065483
 H 0.0519 0.7896 0.7762   0.073081
 H 0.1563 0.8088 0.9362   0.133385
 H 0.7235 0.0504 0.2152   0.126558
 H 0.9993 0.698 0.082   0.116414
 H 0.1806 0.105 0.4465   0.077794
 H 0.5993 0.8956 0.3262   0.096694
 H 0.3986 0.7596 0.4207   0.134111
 H 0.7537 0.6341 0.1991   0.126897
 H 0.6621 0.478 0.0853   0.076156
 C 0.2103 0.4009 0.0963   0.121649
 C 0.4512 0.4887 0.7311   0.699476
 C 0.7327 0.1129 0.5294   -0.02281
 C 0.4874 0.8392 0.7357   0.15116
 C 0.9999 0.2578 0.1661   0.151565
 C 0.1734 0.3887 0.9976   -0.038195
 C 0.94 0.2431 0.0701   -0.186335
 C 0.8149 0.3018 0.46   0.682594
 C 0.39 0.9418 0.7386   -0.186927
 C 0.033 0.31 0.9838   -0.030491
 C 0.712 0.908 0.602   0.121336
 C 0.462 0.0333 0.6723   0.005476
 C 0.7008 0.2164 0.5312   -0.240279
 C 0.6337 0.0156 0.6013   -0.041871
 C 0.3139 0.4276 0.8159   -0.229912
 C 0.2848 0.4539 0.9044   -0.030119
 C 0.7897 0.5991 0.9037   0.121649
 C 0.5488 0.5113 0.2689   0.699476
 C 0.2673 0.8871 0.4706   -0.02281
 C 0.5126 0.1608 0.2643   0.15116
 C 0.000100000000003 0.7422 0.8339   0.151565
 C 0.8266 0.6113 0.0024   -0.038195
 C 0.06 0.7569 0.9299   -0.186335
 C 0.1851 0.6982 0.54   0.682594
 C 0.61 0.0582 0.2614   -0.186927
 C 0.967 0.69 0.0162   -0.030491
 C 0.288 0.092 0.398   0.121335
 C 0.538 0.9667 0.3277   0.005476
 C 0.2992 0.7836 0.4688   -0.240279
 C 0.3663 0.9844 0.3987   -0.041872
 C 0.6861 0.5724 0.1841   -0.229912
 C 0.7152 0.5461 0.0956   -0.03012
 N 0.1282 0.3368 0.1787   -0.26757
 N 0.6428 0.8202 0.6685   -0.275685
 N 0.307 0.3654 0.4802   -0.551646
 N 0.2257 0.3095 0.5545   0.559142
 N 0.146 0.2585 0.6265   -0.376818
 N 0.8718 0.6632 0.8213   -0.26757
 N 0.3572 0.1798 0.3315   -0.275686
 N 0.693 0.6346 0.5198   -0.551646
 N 0.7743 0.6905 0.4455   0.559142
 N 0.854 0.7415 0.3735   -0.376818
 O 0.9544 0.2689 0.3984   -0.552009
 O 0.7691 0.4054 0.463   -0.471337
 O 0.4921 0.4381 0.6515   -0.555971
 O 0.5173 0.5801 0.7449   -0.536019
 O 0.076 0.5085 0.335   -0.665538
 O 0.0456 0.7311 0.6016   -0.552009
 O 0.2309 0.5946 0.537   -0.471335
 O 0.5079 0.5619 0.3485   -0.55597
 O 0.4827 0.4199 0.2551   -0.536019
 O 0.924 0.4915 0.665   -0.665536
