{'_ref': 'TBD', '_srcid': 'CAKYAQ_clean', 'submitters': [{'name': 'Dalar Nazarian Jeff Camp and David Sholl', 'email': 'dalar@gatech.edu jcamp6@gatech.edu'}], '_method': 'VASP DFT with PBE;DDEC'}
data_Nd(C2N3)3
_symmetry_space_group_name_H-M   'P 1'
_cell_length_a   12.78700029
_cell_length_b   15.30200000
_cell_length_c   16.95310000
_cell_angle_alpha   90.00000000
_cell_angle_beta   108.35500175
_cell_angle_gamma   90.00000000
_symmetry_Int_Tables_number   1
_chemical_formula_structural   Nd(C2N3)3
_chemical_formula_sum   'Nd4 C24 N36'
_cell_volume   3148.39183698
_cell_formula_units_Z   4
loop_
 _symmetry_equiv_pos_site_id
 _symmetry_equiv_pos_as_xyz
  1  'x, y, z'
loop_
 _atom_site_label
 _atom_site_fract_x
 _atom_site_fract_y
 _atom_site_fract_z
 _atom_site_charge
 Nd 0.76983 0.84014 0.06783   2.281437
 Nd 0.23017 0.34014 0.43217   2.281437
 Nd 0.23017 0.15986 0.93217   2.281437
 Nd 0.76983 0.65986 0.56783   2.281437
 C 0.6701 0.0447 0.1141   0.67671
 C 0.5056 0.1077 0.0787   0.688622
 C 0.7866 0.8595 0.2843   0.705538
 C 0.7464 0.812 0.398   0.728286
 C 0.0556 0.9115 0.109   0.71539
 C 0.1726 0.004 0.0764   0.674136
 C 0.3299 0.5447 0.3859   0.67671
 C 0.4944 0.6077 0.4213   0.688622
 C 0.2134 0.3595 0.2157   0.705538
 C 0.2536 0.312 0.102   0.728286
 C 0.9444 0.4115 0.391   0.71539
 C 0.8274 0.504 0.4236   0.674136
 C 0.3299 0.9553 0.8859   0.67671
 C 0.4944 0.8923 0.9213   0.688621
 C 0.2134 0.1405 0.7157   0.705538
 C 0.2536 0.188 0.602   0.728286
 C 0.9444 0.0885 0.891   0.71539
 C 0.8274 0.996 0.9236   0.674136
 C 0.6701 0.4553 0.6141   0.67671
 C 0.5056 0.3923 0.5787   0.688622
 C 0.7866 0.6405 0.7843   0.705538
 C 0.7464 0.688 0.898   0.728287
 C 0.0556 0.5885 0.609   0.71539
 C 0.1726 0.496 0.5764   0.674136
 N 0.7339 0.996 0.1063   -0.75318
 N 0.6063 0.1013 0.1305   -0.569834
 N 0.4169 0.1179 0.037   -0.789722
 N 0.8129 0.8545 0.2268   -0.816844
 N 0.7525 0.8758 0.3481   -0.585838
 N 0.7376 0.764 0.4453   -0.828623
 N 0.9716 0.8871 0.1091   -0.809504
 N 0.1559 0.9352 0.1159   -0.58863
 N 0.1949 0.0646 0.0463   -0.727943
 N 0.2661 0.496 0.3937   -0.75318
 N 0.3937 0.6013 0.3695   -0.569834
 N 0.5831 0.6179 0.463   -0.789722
 N 0.1871 0.3545 0.2732   -0.816844
 N 0.2475 0.3758 0.1519   -0.585838
 N 0.2624 0.264 0.0547   -0.828623
 N 0.0284 0.3871 0.3909   -0.809504
 N 0.8441 0.4352 0.3841   -0.58863
 N 0.8051 0.5646 0.4537   -0.727943
 N 0.2661 0.004 0.8937   -0.75318
 N 0.3937 0.8987 0.8695   -0.569834
 N 0.5831 0.8821 0.963   -0.789722
 N 0.1871 0.1455 0.7732   -0.816844
 N 0.2475 0.1242 0.6519   -0.585838
 N 0.2624 0.236 0.5547   -0.828623
 N 0.0284 0.1129 0.8909   -0.809504
 N 0.8441 0.0648 0.8841   -0.58863
 N 0.8051 0.9354 0.9537   -0.727943
 N 0.7339 0.504 0.6063   -0.75318
 N 0.6063 0.3987 0.6305   -0.569834
 N 0.4169 0.3821 0.537   -0.789722
 N 0.8129 0.6455 0.7268   -0.816844
 N 0.7525 0.6242 0.8481   -0.585838
 N 0.7376 0.736 0.9453   -0.828623
 N 0.9716 0.6129 0.6091   -0.809504
 N 0.1559 0.5648 0.6159   -0.58863
 N 0.1949 0.4354 0.5463   -0.727943
