{'_ref': 'TBD', '_srcid': 'CAKYAQ_clean', 'submitters': [{'name': 'Dalar Nazarian Jeff Camp and David Sholl', 'email': 'dalar@gatech.edu jcamp6@gatech.edu'}], '_method': 'VASP DFT with PBE;DDEC'}
data_ZnH2(C3N5)2
_symmetry_space_group_name_H-M   'P 1'
_cell_length_a   11.56800000
_cell_length_b   14.16300000
_cell_length_c   14.16300018
_cell_angle_alpha   119.99999958
_cell_angle_beta   90.00000000
_cell_angle_gamma   90.00000000
_symmetry_Int_Tables_number   1
_chemical_formula_structural   ZnH2(C3N5)2
_chemical_formula_sum   'Zn6 H12 C36 N60'
_cell_volume   2009.55283563
_cell_formula_units_Z   6
loop_
 _symmetry_equiv_pos_site_id
 _symmetry_equiv_pos_as_xyz
  1  'x, y, z'
loop_
 _atom_site_label
 _atom_site_fract_x
 _atom_site_fract_y
 _atom_site_fract_z
 _atom_site_charge
 Zn 0.02883 0.68099 0.53273   0.606891
 Zn 0.362163 0.46727 0.14826   0.606822
 Zn 0.695497 0.85174 0.31901   0.606811
 Zn 0.52883 0.31901 0.46727   0.606891
 Zn 0.862163 0.53273 0.85174   0.606821
 Zn 0.195497 0.14826 0.68099   0.606811
 H 0.9068 0.0232 0.329   0.098543
 H 0.240133 0.671 0.6942   0.098569
 H 0.573467 0.3058 0.9768   0.098567
 H 0.4068 0.9768 0.671   0.098544
 H 0.740133 0.329 0.3058   0.098571
 H 0.073467 0.6942 0.0232   0.098568
 H 0.0763 0.1001 0.423   0.10109
 H 0.409633 0.577 0.6771   0.10105
 H 0.742967 0.3229 0.8999   0.101071
 H 0.5763 0.8999 0.577   0.10109
 H 0.909633 0.423 0.3229   0.10105
 H 0.242967 0.6771 0.1001   0.101071
 C 0.8604 0.8033 0.4525   0.252286
 C 0.193733 0.5475 0.3508   0.252301
 C 0.527067 0.6492 0.1967   0.252338
 C 0.3604 0.1967 0.5475   0.252286
 C 0.693733 0.4525 0.6492   0.252301
 C 0.027067 0.3508 0.8033   0.252338
 C 0.9316 0.8874 0.4491   0.107554
 C 0.264933 0.5509 0.4383   0.10754
 C 0.598267 0.5617 0.1126   0.107571
 C 0.4316 0.1126 0.5509   0.107554
 C 0.764933 0.4491 0.5617   0.10754
 C 0.098267 0.4383 0.8874   0.107571
 C 0.0322 0.9389 0.5087   0.122597
 C 0.365533 0.4913 0.4302   0.122662
 C 0.698867 0.5698 0.0611   0.122604
 C 0.5322 0.0611 0.4913   0.122597
 C 0.865533 0.5087 0.5698   0.122662
 C 0.198867 0.4302 0.9389   0.122604
 C 0.0913 0.9221 0.5917   0.244762
 C 0.424633 0.4083 0.3304   0.244762
 C 0.757967 0.6696 0.0779   0.244763
 C 0.5913 0.0779 0.4083   0.244762
 C 0.924633 0.5917 0.6696   0.244762
 C 0.257967 0.3304 0.9221   0.244763
 C 0.9379 0.9996 0.3742   0.099962
 C 0.271233 0.6258 0.6254   0.099947
 C 0.604567 0.3746 0.000399999999999   0.099981
 C 0.4379 0.000399999999999 0.6258   0.099961
 C 0.771233 0.3742 0.3746   0.099947
 C 0.104567 0.6254 0.9996   0.099981
 C 0.0395 0.047 0.4325   0.113293
 C 0.372833 0.5675 0.6145   0.113319
 C 0.706167 0.3855 0.953   0.113326
 C 0.5395 0.953 0.5675   0.113293
 C 0.872833 0.4325 0.3855   0.113319
 C 0.206167 0.6145 0.047   0.113326
 N 0.8789 0.7395 0.4943   -0.217424
 N 0.212233 0.5057 0.2452   -0.217455
 N 0.545567 0.7548 0.2605   -0.21744
 N 0.3789 0.2605 0.5057   -0.217424
 N 0.712233 0.4943 0.7548   -0.217455
 N 0.045567 0.2452 0.7395   -0.21744
 N 0.7811 0.6788 0.4731   -0.101466
 N 0.114433 0.5269 0.2057   -0.101407
 N 0.447767 0.7943 0.3212   -0.101425
 N 0.2811 0.3212 0.5269   -0.101466
 N 0.614433 0.4731 0.7943   -0.101407
 N 0.947767 0.2057 0.6788   -0.101425
 N 0.7074 0.7065 0.4225   -0.114158
 N 0.040733 0.5775 0.284   -0.114144
 N 0.374067 0.716 0.2935   -0.114184
 N 0.2074 0.2935 0.5775   -0.114158
 N 0.540733 0.4225 0.716   -0.114144
 N 0.874067 0.284 0.7065   -0.114184
 N 0.7551 0.7844 0.4075   -0.201357
 N 0.088433 0.5925 0.3769   -0.201363
 N 0.421767 0.6231 0.2156   -0.201355
 N 0.2551 0.2156 0.5925   -0.201357
 N 0.588433 0.4075 0.6231   -0.201363
 N 0.921767 0.3769 0.7844   -0.201355
 N 0.8856 0.9205 0.3834   -0.242898
 N 0.218933 0.6166 0.5371   -0.242923
 N 0.552267 0.4629 0.0795   -0.242954
 N 0.3856 0.0795 0.6166   -0.242897
 N 0.718933 0.3834 0.4629   -0.242922
 N 0.052267 0.5371 0.9205   -0.242954
 N 0.0841 0.0192 0.4997   -0.288622
 N 0.417433 0.5003 0.5195   -0.288684
 N 0.750767 0.4805 0.9808   -0.288636
 N 0.5841 0.9808 0.5003   -0.288622
 N 0.917433 0.4997 0.4805   -0.288684
 N 0.250767 0.5195 0.0192   -0.288636
 N 0.098 0.8341 0.6028   -0.222804
 N 0.431333 0.3972 0.2313   -0.222786
 N 0.764667 0.7687 0.1659   -0.222806
 N 0.598 0.1659 0.3972   -0.222804
 N 0.931333 0.6028 0.7687   -0.222785
 N 0.264667 0.2313 0.8341   -0.222806
 N 0.1686 0.8644 0.6911   -0.081751
 N 0.501933 0.3089 0.1733   -0.081774
 N 0.835267 0.8267 0.1356   -0.081755
 N 0.6686 0.1356 0.3089   -0.081752
 N 0.001933 0.6911 0.8267   -0.081775
 N 0.335267 0.1733 0.8644   -0.081756
 N 0.2002 0.9648 0.7301   -0.076446
 N 0.533533 0.2699 0.2347   -0.076418
 N 0.866867 0.7653 0.0352   -0.076447
 N 0.7002 0.0352 0.2699   -0.076436
 N 0.033533 0.7301 0.7653   -0.076408
 N 0.366867 0.2347 0.9648   -0.076437
 N 0.1545 0.0036 0.6686   -0.200012
 N 0.487833 0.3314 0.335   -0.200061
 N 0.821167 0.665 0.9964   -0.200041
 N 0.6545 0.9964 0.3314   -0.200013
 N 0.987833 0.6686 0.665   -0.200062
 N 0.321167 0.335 0.0036   -0.200042
