{'_ref': 'TBD', '_srcid': 'CAKYAQ_clean', 'submitters': [{'name': 'Dalar Nazarian Jeff Camp and David Sholl', 'email': 'dalar@gatech.edu jcamp6@gatech.edu'}], '_method': 'VASP DFT with PBE;DDEC'}
data_MnH2(CO)4
_symmetry_space_group_name_H-M   'P 1'
_cell_length_a   7.73099952
_cell_length_b   7.84549980
_cell_length_c   7.84550000
_cell_angle_alpha   116.47300164
_cell_angle_beta   103.02499882
_cell_angle_gamma   103.02500390
_symmetry_Int_Tables_number   1
_chemical_formula_structural   MnH2(CO)4
_chemical_formula_sum   'Mn2 H4 C8 O8'
_cell_volume   384.947500508
_cell_formula_units_Z   2
loop_
 _symmetry_equiv_pos_site_id
 _symmetry_equiv_pos_as_xyz
  1  'x, y, z'
loop_
 _atom_site_label
 _atom_site_fract_x
 _atom_site_fract_y
 _atom_site_fract_z
 _atom_site_charge
 Mn 0.75 0.14331 0.85669   1.19179
 Mn 0.25 0.85669 0.14331   1.191791
 H 0.947 0.313 0.501   0.136783
 H 0.025 0.613 0.523   0.141659
 H 0.447 0.501 0.313   0.136783
 H 0.525 0.523 0.613   0.141659
 C 0.9812 0.1186 0.2268   0.765265
 C 0.983 0.3158 0.388   -0.196128
 C 0.0276 0.4958 0.3992   -0.238765
 C 0.0803 0.5399 0.2463   0.743128
 C 0.4812 0.2268 0.1186   0.765264
 C 0.483 0.388 0.3158   -0.196128
 C 0.5276 0.3992 0.4958   -0.238764
 C 0.5803 0.2463 0.5399   0.743128
 O 0.0914 0.0451 0.2919   -0.614594
 O 0.8681 0.0289 0.0447   -0.66546
 O 0.009 0.4109 0.0597   -0.646597
 O 0.2008 0.7192 0.3224   -0.617082
 O 0.5914 0.2919 0.0451   -0.614594
 O 0.3681 0.0447 0.0289   -0.665461
 O 0.509 0.0597 0.4109   -0.646597
 O 0.7008 0.3224 0.7192   -0.617082
