{'_ref': 'TBD', '_srcid': 'CAKYAQ_clean', 'submitters': [{'name': 'Dalar Nazarian Jeff Camp and David Sholl', 'email': 'dalar@gatech.edu jcamp6@gatech.edu'}], '_method': 'VASP DFT with PBE;DDEC'}
data_MoH27C22NO4
_symmetry_space_group_name_H-M   'P 1'
_cell_length_a   14.70309993
_cell_length_b   20.83790016
_cell_length_c   20.83790000
_cell_angle_alpha   82.85010061
_cell_angle_beta   69.34150191
_cell_angle_gamma   69.34159940
_symmetry_Int_Tables_number   1
_chemical_formula_structural   MoH27C22NO4
_chemical_formula_sum   'Mo8 H216 C176 N8 O32'
_cell_volume   5589.72168327
_cell_formula_units_Z   8
loop_
 _symmetry_equiv_pos_site_id
 _symmetry_equiv_pos_as_xyz
  1  'x, y, z'
loop_
 _atom_site_label
 _atom_site_fract_x
 _atom_site_fract_y
 _atom_site_fract_z
 _atom_site_charge
 Mo 0.51022 0.94711 0.00341   0.899401
 Mo 0.96074 0.55289 0.49659   0.899632
 Mo 0.51363 0.99659 0.44711   0.900041
 Mo 0.45733 0.50341 0.05289   0.900428
 Mo 0.48978 0.05289 0.99659   0.900925
 Mo 0.03926 0.44711 0.50341   0.9013
 Mo 0.48637 0.00341 0.55289   0.901562
 Mo 0.54267 0.49659 0.94711   0.901984
 H 0.9867 0.9331 0.7373   0.109302
 H 0.7671 0.0412 0.0722   0.098508
 H 0.7748 0.945 0.0204   0.054069
 H 0.7574 0.063 0.9978   0.114401
 H 0.0278 0.9349 0.9181   0.094713
 H 0.9283 0.8648 0.0322   0.099256
 H 0.169 0.913 0.82   0.024109
 H 0.1196 0.0038 0.7198   0.097584
 H 0.1318 0.0187 0.7893   0.103526
 H 0.8642 0.0496 0.01   0.096954
 H 0.9762 0.9244 0.0254   0.097621
 H 0.8798 0.9214 0.0912   0.10782
 H 0.1657 0.8573 0.7129   0.096809
 H 0.7171 0.9479 0.8141   0.048795
 H 0.773 0.8921 0.7145   0.102178
 H 0.871 0.9171 0.6825   0.105846
 H 0.8704 0.8584 0.74   0.104612
 H 0.7087 0.0313 0.7201   0.103944
 H 0.7012 0.0625 0.7889   0.109388
 H 0.8073 0.0432 0.7258   0.108313
 H 0.5547 0.8917 0.2097   0.134866
 H 0.5414 0.089 0.1904   0.127887
 H 0.5677 0.893 0.3172   0.072591
 H 0.5446 0.0838 0.3004   0.07404
 H 0.2308 0.9768 0.7286   0.104242
 H 0.2654 0.8531 0.7301   0.111116
 H 0.1816 0.8223 0.7827   0.108567
 H 0.1571 0.5669 0.7627   0.108661
 H 0.3805 0.4588 0.4278   0.098786
 H 0.2402 0.555 0.4796   0.055956
 H 0.3182 0.437 0.5022   0.114391
 H 0.3808 0.5651 0.5819   0.094105
 H 0.3253 0.6352 0.4678   0.099313
 H 0.402 0.587 0.68   0.025591
 H 0.3432 0.4962 0.7802   0.09702
 H 0.4398 0.4813 0.7107   0.103192
 H 0.4238 0.4504 0.49   0.097702
 H 0.426 0.5756 0.4746   0.097681
 H 0.3924 0.5786 0.4088   0.107591
 H 0.2359 0.6427 0.7871   0.095075
 H 0.9791 0.5521 0.6859   0.049013
 H 0.8796 0.6079 0.7855   0.102923
 H 0.9706 0.5829 0.8175   0.105915
 H 0.9688 0.6416 0.76   0.104109
 H 0.9601 0.4687 0.7799   0.103855
 H 0.0526 0.4375 0.7111   0.109279
 H 0.0763 0.4568 0.7742   0.108408
 H 0.1561 0.6083 0.2903   0.134525
 H 0.3208 0.411 0.3096   0.127649
 H 0.2779 0.607 0.1828   0.072044
 H 0.4288 0.4162 0.1996   0.074105
 H 0.4362 0.5232 0.7714   0.104495
 H 0.3486 0.6469 0.7699   0.110183
 H 0.2866 0.6777 0.7173   0.108613
 H 0.724 0.2627 0.4331   0.108536
 H 0.8393 0.9278 0.5412   0.098711
 H 0.7952 0.9796 0.445   0.053944
 H 0.7552 0.0022 0.563   0.11493
 H 0.9459 0.0819 0.4349   0.094789
 H 0.9605 0.9678 0.3648   0.099448
 H 0.989 0.18 0.413   0.025181
 H 0.8394 0.2802 0.5038   0.096888
 H 0.9211 0.2107 0.5187   0.103186
 H 0.8742 0.99 0.5496   0.097977
 H 0.0016 0.9746 0.4244   0.096857
 H 0.971 0.9088 0.4214   0.108106
 H 0.8786 0.2871 0.3573   0.095724
 H 0.5312 0.1859 0.4479   0.049481
 H 0.4875 0.2855 0.3921   0.102631
 H 0.5535 0.3175 0.4171   0.105684
 H 0.6104 0.26 0.3584   0.104159
 H 0.4288 0.2799 0.5313   0.104308
 H 0.4901 0.2111 0.5625   0.109168
 H 0.5331 0.2742 0.5432   0.107053
 H 0.7644 0.7903 0.3917   0.134531
 H 0.7318 0.8096 0.589   0.126453
 H 0.8849 0.6828 0.393   0.072058
 H 0.845 0.6996 0.5838   0.073919
 H 0.9594 0.2714 0.4768   0.105282
 H 0.9955 0.2699 0.3531   0.111616
 H 0.9643 0.2173 0.3223   0.109178
 H 0.9198 0.2373 0.0669   0.109246
 H 0.8083 0.5722 0.9588   0.098496
 H 0.7198 0.5204 0.055   0.054398
 H 0.8204 0.4978 0.937   0.114582
 H 0.9627 0.4181 0.0651   0.093777
 H 0.7931 0.5322 0.1352   0.099909
 H 0.082 0.32 0.087   0.025837
 H 0.1234 0.2198 0.9962   0.096608
 H 0.1505 0.2893 0.9813   0.102537
 H 0.9138 0.51 0.9504   0.097495
 H 0.9006 0.5254 0.0756   0.098033
 H 0.8012 0.5912 0.0786   0.108364
 H 0.023 0.2129 0.1427   0.095871
 H 0.665 0.3141 0.0521   0.048831
 H 0.6651 0.2145 0.1079   0.10296
 H 0.7881 0.1825 0.0829   0.105583
 H 0.7288 0.24 0.1416   0.104115
 H 0.74 0.2201 0.9687   0.104847
 H 0.7637 0.2889 0.9375   0.109455
 H 0.8505 0.2258 0.9568   0.108071
 H 0.4464 0.7097 0.1083   0.13508
 H 0.6304 0.6904 0.911   0.126565
 H 0.4607 0.8172 0.107   0.072159
 H 0.6284 0.8004 0.9162   0.073795
 H 0.2076 0.2286 0.0232   0.104641
 H 0.1185 0.2301 0.1469   0.110737
 H 0.0039 0.2827 0.1777   0.109727
 H 0.0133 0.0669 0.2627   0.109302
 H 0.2329 0.9588 0.9278   0.098507
 H 0.2252 0.055 0.9796   0.054071
 H 0.2426 0.937 0.0022   0.114398
 H 0.9722 0.0651 0.0819   0.094713
 H 0.0717 0.1352 0.9678   0.099256
 H 0.831 0.087 0.18   0.024109
 H 0.8804 0.9962 0.2802   0.097584
 H 0.8682 0.9813 0.2107   0.103526
 H 0.1358 0.9504 0.99   0.096954
 H 0.0238 0.0756 0.9746   0.097621
 H 0.1202 0.0786 0.9088   0.10782
 H 0.8343 0.1427 0.2871   0.096809
 H 0.2829 0.0521 0.1859   0.048797
 H 0.227 0.1079 0.2855   0.102178
 H 0.129 0.0829 0.3175   0.105847
 H 0.1296 0.1416 0.26   0.104612
 H 0.2913 0.9687 0.2799   0.103944
 H 0.2988 0.9375 0.2111   0.109385
 H 0.1927 0.9568 0.2742   0.108314
 H 0.4453 0.1083 0.7903   0.134869
 H 0.4586 0.911 0.8096   0.127885
 H 0.4323 0.107 0.6828   0.072582
 H 0.4554 0.9162 0.6996   0.074032
 H 0.7692 0.0232 0.2714   0.104239
 H 0.7346 0.1469 0.2699   0.111116
 H 0.8184 0.1777 0.2173   0.108567
 H 0.8429 0.4331 0.2373   0.108661
 H 0.6195 0.5412 0.5722   0.098786
 H 0.7598 0.445 0.5204   0.055957
 H 0.6818 0.563 0.4978   0.114388
 H 0.6192 0.4349 0.4181   0.094105
 H 0.6747 0.3648 0.5322   0.099313
 H 0.598 0.413 0.32   0.025591
 H 0.6568 0.5038 0.2198   0.09702
 H 0.5602 0.5187 0.2893   0.103192
 H 0.5762 0.5496 0.51   0.097703
 H 0.574 0.4244 0.5254   0.097681
 H 0.6076 0.4214 0.5912   0.107591
 H 0.7641 0.3573 0.2129   0.095074
 H 0.0209 0.4479 0.3141   0.049016
 H 0.1204 0.3921 0.2145   0.102923
 H 0.0294 0.4171 0.1825   0.105915
 H 0.0312 0.3584 0.24   0.104109
 H 0.0399 0.5313 0.2201   0.103855
 H 0.9474 0.5625 0.2889   0.109277
 H 0.9237 0.5432 0.2258   0.108408
 H 0.8439 0.3917 0.7097   0.134528
 H 0.6792 0.589 0.6904   0.127646
 H 0.7221 0.393 0.8172   0.072035
 H 0.5712 0.5838 0.8004   0.074097
 H 0.5638 0.4768 0.2286   0.104491
 H 0.6514 0.3531 0.2301   0.110183
 H 0.7134 0.3223 0.2827   0.108613
 H 0.276 0.7373 0.5669   0.108537
 H 0.1607 0.0722 0.4588   0.09871
 H 0.2048 0.0204 0.555   0.053945
 H 0.2448 0.9978 0.437   0.114927
 H 0.0541 0.9181 0.5651   0.094789
 H 0.0395 0.0322 0.6352   0.099448
 H 0.011 0.82 0.587   0.025181
 H 0.1606 0.7198 0.4962   0.096888
 H 0.0789 0.7893 0.4813   0.103186
 H 0.1258 0.01 0.4504   0.097978
 H 0.9984 0.0254 0.5756   0.096857
 H 0.029 0.0912 0.5786   0.108106
 H 0.1214 0.7129 0.6427   0.095724
 H 0.4688 0.8141 0.5521   0.049483
 H 0.5125 0.7145 0.6079   0.102632
 H 0.4465 0.6825 0.5829   0.105684
 H 0.3896 0.74 0.6416   0.104159
 H 0.5712 0.7201 0.4687   0.104308
 H 0.5099 0.7889 0.4375   0.109165
 H 0.4669 0.7258 0.4568   0.107053
 H 0.2356 0.2097 0.6083   0.134534
 H 0.2682 0.1904 0.411   0.126451
 H 0.1151 0.3172 0.607   0.072048
 H 0.155 0.3004 0.4162   0.073911
 H 0.0406 0.7286 0.5232   0.105277
 H 0.0045 0.7301 0.6469   0.111616
 H 0.0357 0.7827 0.6777   0.109178
 H 0.0802 0.7627 0.9331   0.109246
 H 0.1917 0.4278 0.0412   0.098495
 H 0.2802 0.4796 0.945   0.054399
 H 0.1796 0.5022 0.063   0.114579
 H 0.0373 0.5819 0.9349   0.093777
 H 0.2069 0.4678 0.8648   0.09991
 H 0.918 0.68 0.913   0.025838
 H 0.8766 0.7802 0.0038   0.096608
 H 0.8495 0.7107 0.0187   0.102537
 H 0.0862 0.49 0.0496   0.097495
 H 0.0994 0.4746 0.9244   0.098034
 H 0.1988 0.4088 0.9214   0.108364
 H 0.977 0.7871 0.8573   0.09587
 H 0.335 0.6859 0.9479   0.048834
 H 0.3349 0.7855 0.8921   0.10296
 H 0.2119 0.8175 0.9171   0.105584
 H 0.2712 0.76 0.8584   0.104116
 H 0.26 0.7799 0.0313   0.104847
 H 0.2363 0.7111 0.0625   0.109452
 H 0.1495 0.7742 0.0432   0.108071
 H 0.5536 0.2903 0.8917   0.135083
 H 0.3696 0.3096 0.089   0.126563
 H 0.5393 0.1828 0.893   0.07215
 H 0.3716 0.1996 0.0838   0.073787
 H 0.7924 0.7714 0.9768   0.104637
 H 0.8815 0.7699 0.8531   0.110736
 H 0.9961 0.7173 0.8223   0.109727
 C 0.703 0.97121 0.92779   0.630718
 C 0.81581 0.95708 0.8903   -0.210467
 C 0.88176 0.95104 0.92664   0.083841
 C 0.9834 0.9392 0.8928   -0.205668
 C 0.0237 0.9334 0.823   0.06126
 C 0.959 0.938 0.7858   -0.216088
 C 0.8531 0.95001 0.81959   0.069305
 C 0.83778 0.95892 0.00412   0.068593
 C 0.8035 0.0351 0.0227   -0.34686
 C 0.9123 0.9132 0.0418   -0.336908
 C 0.1403 0.9202 0.7818   0.126825
 C 0.1571 0.9854 0.7524   -0.348527
 C 0.1917 0.8591 0.7497   -0.362461
 C 0.7802 0.956 0.7806   0.079105
 C 0.828 0.9009 0.7243   -0.342926
 C 0.7462 0.0301 0.7511   -0.351165
 C 0.53355 0.99377 0.12053   0.565735
 C 0.54373 0.99163 0.18831   -0.006522
 C 0.55272 0.93254 0.22682   -0.170103
 C 0.54367 0.04778 0.21608   -0.169588
 C 0.5588 0.9344 0.2916   0.158131
 C 0.547 0.04375 0.28145   0.14971
 C 0.102 0.52879 0.57221   0.627776
 C 0.16319 0.54292 0.6097   -0.209123
 C 0.25944 0.54896 0.57336   0.084066
 C 0.3154 0.5608 0.6072   -0.20498
 C 0.2801 0.5666 0.677   0.060107
 C 0.1828 0.562 0.7142   -0.213568
 C 0.1227 0.54999 0.68041   0.06899
 C 0.30082 0.54108 0.49588   0.067131
 C 0.3613 0.4649 0.4773   -0.347607
 C 0.3673 0.5868 0.4582   -0.337465
 C 0.3423 0.5798 0.7182   0.124735
 C 0.3949 0.5146 0.7476   -0.348223
 C 0.3005 0.6409 0.7503   -0.358963
 C 0.0168 0.544 0.7194   0.077932
 C 0.9532 0.5991 0.7757   -0.343592
 C 0.0274 0.4699 0.7489   -0.350466
 C 0.14785 0.50623 0.37947   0.565626
 C 0.22367 0.50837 0.31169   -0.005843
 C 0.21208 0.56746 0.27318   -0.16979
 C 0.30753 0.45222 0.28392   -0.169503
 C 0.2848 0.5656 0.2084   0.158974
 C 0.3722 0.45625 0.21855   0.149663
 C 0.63079 0.07221 0.47121   0.632574
 C 0.70611 0.1097 0.45708   -0.212138
 C 0.8084 0.07336 0.45104   0.083864
 C 0.8762 0.1072 0.4392   -0.205881
 C 0.8467 0.177 0.4334   0.061006
 C 0.7448 0.2142 0.438   -0.214857
 C 0.67269 0.18041 0.45001   0.069584
 C 0.8419 0.99588 0.45892   0.069488
 C 0.8262 0.9773 0.5351   -0.348635
 C 0.9541 0.9582 0.4132   -0.337047
 C 0.9221 0.2182 0.4202   0.126645
 C 0.9095 0.2476 0.4854   -0.348949
 C 0.9414 0.2503 0.3591   -0.362797
 C 0.5608 0.2194 0.456   0.077702
 C 0.5523 0.2757 0.4009   -0.342924
 C 0.4973 0.2489 0.5301   -0.349298
 C 0.65408 0.87947 0.49377   0.5678
 C 0.73204 0.81169 0.49163   -0.009672
 C 0.77954 0.77318 0.43254   -0.168591
 C 0.75975 0.78392 0.54778   -0.165673
 C 0.8504 0.7084 0.4344   0.158932
 C 0.82845 0.71855 0.54375   0.148327
 C 0.67421 0.42779 0.02879   0.629059
 C 0.77289 0.3903 0.04292   -0.210573
 C 0.8328 0.42664 0.04896   0.08479
 C 0.9226 0.3928 0.0608   -0.2063
 C 0.9571 0.323 0.0666   0.061688
 C 0.897 0.2858 0.062   -0.215224
 C 0.80311 0.31959 0.04999   0.069311
 C 0.7967 0.50412 0.04108   0.069173
 C 0.8386 0.5227 0.9649   -0.347596
 C 0.8255 0.5418 0.0868   -0.339212
 C 0.0605 0.2818 0.0798   0.125545
 C 0.1425 0.2524 0.0146   -0.347408
 C 0.0508 0.2497 0.1409   -0.36259
 C 0.7362 0.2806 0.044   0.079848
 C 0.7289 0.2243 0.0991   -0.34355
 C 0.7763 0.2511 0.9699   -0.352065
 C 0.52732 0.62053 0.00623   0.569294
 C 0.53536 0.68831 0.00837   -0.010048
 C 0.48526 0.72682 0.06746   -0.168891
 C 0.59145 0.71608 0.95222   -0.166555
 C 0.4932 0.7916 0.0656   0.156656
 C 0.59075 0.78145 0.95625   0.148634
 C 0.297 0.02879 0.07221   0.630717
 C 0.18419 0.04292 0.1097   -0.210468
 C 0.11824 0.04896 0.07336   0.083842
 C 0.0166 0.0608 0.1072   -0.205668
 C 0.9763 0.0666 0.177   0.06126
 C 0.041 0.062 0.2142   -0.216088
 C 0.1469 0.04999 0.18041   0.069305
 C 0.16222 0.04108 0.99588   0.068591
 C 0.1965 0.9649 0.9773   -0.346859
 C 0.0877 0.0868 0.9582   -0.336907
 C 0.8597 0.0798 0.2182   0.126824
 C 0.8429 0.0146 0.2476   -0.348526
 C 0.8083 0.1409 0.2503   -0.36246
 C 0.2198 0.044 0.2194   0.079103
 C 0.172 0.0991 0.2757   -0.342926
 C 0.2538 0.9699 0.2489   -0.351165
 C 0.46645 0.00623 0.87947   0.565732
 C 0.45627 0.00837 0.81169   -0.006515
 C 0.44728 0.06746 0.77318   -0.170104
 C 0.45633 0.95222 0.78392   -0.169597
 C 0.4412 0.0656 0.7084   0.15818
 C 0.453 0.95625 0.71855   0.14976
 C 0.898 0.47121 0.42779   0.627776
 C 0.83681 0.45708 0.3903   -0.209124
 C 0.74056 0.45104 0.42664   0.084066
 C 0.6846 0.4392 0.3928   -0.20498
 C 0.7199 0.4334 0.323   0.060107
 C 0.8172 0.438 0.2858   -0.213568
 C 0.8773 0.45001 0.31959   0.068991
 C 0.69918 0.45892 0.50412   0.06713
 C 0.6387 0.5351 0.5227   -0.347606
 C 0.6327 0.4132 0.5418   -0.337465
 C 0.6577 0.4202 0.2818   0.124735
 C 0.6051 0.4854 0.2524   -0.348222
 C 0.6995 0.3591 0.2497   -0.358962
 C 0.9832 0.456 0.2806   0.077931
 C 0.0468 0.4009 0.2243   -0.343592
 C 0.9726 0.5301 0.2511   -0.350465
 C 0.85215 0.49377 0.62053   0.565623
 C 0.77633 0.49163 0.68831   -0.005835
 C 0.78792 0.43254 0.72682   -0.16979
 C 0.69247 0.54778 0.71608   -0.169513
 C 0.7152 0.4344 0.7916   0.159024
 C 0.6278 0.54375 0.78145   0.149714
 C 0.36921 0.92779 0.52879   0.632574
 C 0.29389 0.8903 0.54292   -0.212139
 C 0.1916 0.92664 0.54896   0.083865
 C 0.1238 0.8928 0.5608   -0.205881
 C 0.1533 0.823 0.5666   0.061006
 C 0.2552 0.7858 0.562   -0.214857
 C 0.32731 0.81959 0.54999   0.069584
 C 0.1581 0.00412 0.54108   0.069486
 C 0.1738 0.0227 0.4649   -0.348634
 C 0.0459 0.0418 0.5868   -0.337047
 C 0.0779 0.7818 0.5798   0.126645
 C 0.0905 0.7524 0.5146   -0.348947
 C 0.0586 0.7497 0.6409   -0.362797
 C 0.4392 0.7806 0.544   0.077701
 C 0.4477 0.7243 0.5991   -0.342924
 C 0.5027 0.7511 0.4699   -0.349298
 C 0.34592 0.12053 0.50623   0.567797
 C 0.26796 0.18831 0.50837   -0.009663
 C 0.22046 0.22682 0.56746   -0.168592
 C 0.24025 0.21608 0.45222   -0.165683
 C 0.1496 0.2916 0.5656   0.158986
 C 0.17155 0.28145 0.45625   0.148381
 C 0.32579 0.57221 0.97121   0.629059
 C 0.22711 0.6097 0.95708   -0.210575
 C 0.1672 0.57336 0.95104   0.08479
 C 0.0774 0.6072 0.9392   -0.2063
 C 0.0429 0.677 0.9334   0.061688
 C 0.103 0.7142 0.938   -0.215224
 C 0.19689 0.68041 0.95001   0.069311
 C 0.2033 0.49588 0.95892   0.069171
 C 0.1614 0.4773 0.0351   -0.347596
 C 0.1745 0.4582 0.9132   -0.339212
 C 0.9395 0.7182 0.9202   0.125545
 C 0.8575 0.7476 0.9854   -0.347407
 C 0.9492 0.7503 0.8591   -0.36259
 C 0.2638 0.7194 0.956   0.079847
 C 0.2711 0.7757 0.9009   -0.34355
 C 0.2237 0.7489 0.0301   -0.352064
 C 0.47268 0.37947 0.99377   0.569291
 C 0.46464 0.31169 0.99163   -0.010041
 C 0.51474 0.27318 0.93254   -0.168891
 C 0.40855 0.28392 0.04778   -0.166564
 C 0.5068 0.2084 0.9344   0.156705
 C 0.40925 0.21855 0.04375   0.148684
 N 0.55338 0.98833 0.31971   -0.330628
 N 0.36142 0.51167 0.18029   -0.331493
 N 0.87309 0.68029 0.48833   -0.330826
 N 0.54171 0.81971 0.01167   -0.328511
 N 0.44662 0.01167 0.68029   -0.330815
 N 0.63858 0.48833 0.81971   -0.331683
 N 0.12691 0.31971 0.51167   -0.33103
 N 0.45829 0.18029 0.98833   -0.328698
 O 0.66822 0.92206 0.94706   -0.52864
 O 0.53837 0.9389 0.09652   -0.521748
 O 0.64678 0.03382 0.9399   -0.532204
 O 0.51674 0.05076 0.08934   -0.524098
 O 0.03734 0.57794 0.55294   -0.527161
 O 0.07379 0.5611 0.40348   -0.522002
 O 0.1205 0.46618 0.5601   -0.531441
 O 0.15684 0.44924 0.41066   -0.52448
 O 0.61528 0.05294 0.42206   -0.529291
 O 0.63489 0.90348 0.4389   -0.523032
 O 0.58668 0.0601 0.53382   -0.532292
 O 0.60608 0.91066 0.55076   -0.524592
 O 0.59028 0.44706 0.07794   -0.528081
 O 0.47727 0.59652 0.0611   -0.523788
 O 0.6806 0.4399 0.96618   -0.531132
 O 0.5675 0.58934 0.94924   -0.524994
 O 0.33178 0.07794 0.05294   -0.528765
 O 0.46163 0.0611 0.90348   -0.521874
 O 0.35322 0.96618 0.0601   -0.532075
 O 0.48326 0.94924 0.91066   -0.52397
 O 0.96266 0.42206 0.44706   -0.527298
 O 0.92621 0.4389 0.59652   -0.52214
 O 0.8795 0.53382 0.4399   -0.5313
 O 0.84316 0.55076 0.58934   -0.524339
 O 0.38472 0.94706 0.57794   -0.529417
 O 0.36511 0.09652 0.5611   -0.523158
 O 0.41332 0.9399 0.46618   -0.532163
 O 0.39392 0.08934 0.44924   -0.524463
 O 0.40972 0.55294 0.92206   -0.528208
 O 0.52273 0.40348 0.9389   -0.523917
 O 0.3194 0.5601 0.03382   -0.531001
 O 0.4325 0.41066 0.05076   -0.524862
