{'_ref': 'TBD', '_srcid': 'CAKYAQ_clean', 'submitters': [{'name': 'Dalar Nazarian Jeff Camp and David Sholl', 'email': 'dalar@gatech.edu jcamp6@gatech.edu'}], '_method': 'VASP DFT with PBE;DDEC'}
data_Zn2SiH16C22O7
_symmetry_space_group_name_H-M   'P 1'
_cell_length_a   14.59700005
_cell_length_b   17.66889996
_cell_length_c   19.08290000
_cell_angle_alpha   75.10169992
_cell_angle_beta   67.51370133
_cell_angle_gamma   65.60220012
_symmetry_Int_Tables_number   1
_chemical_formula_structural   Zn2SiH16C22O7
_chemical_formula_sum   'Zn8 Si4 H64 C88 O28'
_cell_volume   4112.60259529
_cell_formula_units_Z   4
loop_
 _symmetry_equiv_pos_site_id
 _symmetry_equiv_pos_as_xyz
  1  'x, y, z'
loop_
 _atom_site_label
 _atom_site_fract_x
 _atom_site_fract_y
 _atom_site_fract_z
 _atom_site_charge
 Zn 0.11136 0.9706 0.01184   1.189496
 Zn 0.02739 0.81978 0.06816   1.016864
 Zn 0.0938 0.5294 0.48816   1.189522
 Zn 0.91533 0.68022 0.43184   1.017294
 Zn 0.88864 0.0294 0.98816   1.189496
 Zn 0.97261 0.18022 0.93184   1.016865
 Zn 0.9062 0.4706 0.51184   1.189522
 Zn 0.08467 0.31978 0.56816   1.017295
 Si 0.70562 0.53305 0.00305   0.923973
 Si 0.24172 0.96695 0.49695   0.924313
 Si 0.29438 0.46695 0.99695   0.923973
 Si 0.75828 0.03305 0.50305   0.924313
 H 0.0479 0.8991 0.9471   0.480628
 H 0.6061 0.7101 0.9565   0.087192
 H 0.4366 0.8055 0.9675   0.106518
 H 0.3184 0.6211 0.0813   0.092863
 H 0.4897 0.5274 0.0724   0.077852
 H 0.66 0.5901 0.8557   0.077019
 H 0.7382 0.5468 0.7344   0.105155
 H 0.9665 0.3534 0.8084   0.109967
 H 0.8874 0.3976 0.9278   0.08004
 H 0.9062 0.5648 0.909   0.079476
 H 0.000399999999999 0.6371 0.9223   0.1074
 H 0.7787 0.7014 0.1254   0.106065
 H 0.6845 0.6291 0.1121   0.083712
 H 0.6671 0.411 0.07   0.177719
 H 0.781 0.402 0.0696   0.199058
 H 0.6757 0.4581 0.1273   0.176759
 H 0.8941 0.6009 0.5529   0.480663
 H 0.2727 0.7899 0.5435   0.085723
 H 0.2096 0.6945 0.5325   0.107584
 H 0.0208 0.8789 0.4187   0.090891
 H 0.0895 0.9726 0.4276   0.077986
 H 0.1058 0.9099 0.6443   0.075269
 H 0.0194 0.9532 0.7656   0.10605
 H 0.1283 0.1466 0.6916   0.110404
 H 0.2128 0.1024 0.5722   0.079332
 H 0.38 0.9352 0.591   0.079496
 H 0.5598 0.8629 0.5777   0.108479
 H 0.6055 0.7986 0.3746   0.106482
 H 0.4257 0.8709 0.3879   0.083762
 H 0.1481 0.089 0.43   0.176483
 H 0.2526 0.098 0.4304   0.198262
 H 0.2611 0.0419 0.3727   0.176961
 H 0.9521 0.1009 0.0529   0.480628
 H 0.3939 0.2899 0.0435   0.087192
 H 0.5634 0.1945 0.0325   0.106518
 H 0.6816 0.3789 0.9187   0.092863
 H 0.5103 0.4726 0.9276   0.077852
 H 0.34 0.4099 0.1443   0.077019
 H 0.2618 0.4532 0.2656   0.105155
 H 0.0335 0.6466 0.1916   0.109968
 H 0.1126 0.6024 0.0722   0.08004
 H 0.0938 0.4352 0.091   0.079476
 H 0.9996 0.3629 0.0777   0.1074
 H 0.2213 0.2986 0.8746   0.106065
 H 0.3155 0.3709 0.8879   0.083712
 H 0.3329 0.589 0.93   0.177718
 H 0.219 0.598 0.9304   0.199058
 H 0.3243 0.5419 0.8727   0.176758
 H 0.1059 0.3991 0.4471   0.480663
 H 0.7273 0.2101 0.4565   0.085722
 H 0.7904 0.3055 0.4675   0.107584
 H 0.9792 0.1211 0.5813   0.090891
 H 0.9105 0.0274 0.5724   0.077985
 H 0.8942 0.0901 0.3557   0.075269
 H 0.9806 0.0468 0.2344   0.10605
 H 0.8717 0.8534 0.3084   0.110405
 H 0.7872 0.8976 0.4278   0.079332
 H 0.62 0.0648 0.409   0.079496
 H 0.4402 0.1371 0.4223   0.108478
 H 0.3945 0.2014 0.6254   0.106483
 H 0.5743 0.1291 0.6121   0.083762
 H 0.8519 0.911 0.57   0.176483
 H 0.7474 0.902 0.5696   0.198261
 H 0.7389 0.9581 0.6273   0.176961
 C 0.56627 0.60801 0.01445   -0.35329
 C 0.54748 0.69202 0.98282   -0.007095
 C 0.44696 0.74884 0.98864   -0.078213
 C 0.3596 0.72249 0.02611   -0.131472
 C 0.37677 0.63983 0.05643   -0.054069
 C 0.4794 0.5839 0.0507   -0.001298
 C 0.24961 0.78419 0.03199   0.729522
 C 0.76703 0.49955 0.90519   -0.34918
 C 0.7232 0.5423 0.8459   -0.008791
 C 0.76966 0.51674 0.77334   -0.074614
 C 0.86205 0.44722 0.75788   -0.15384
 C 0.90464 0.40236 0.81736   -0.048217
 C 0.8572 0.4289 0.8885   0.014627
 C 0.91384 0.42036 0.67916   0.701036
 C 0.7865 0.5901 0.0093   -0.378479
 C 0.8804 0.5925 0.9529   0.005907
 C 0.9363 0.6355 0.9609   -0.07954
 C 0.8984 0.6761 0.0251   -0.116414
 C 0.8046 0.6737 0.0815   -0.084153
 C 0.7487 0.6307 0.0735   -0.011451
 C 0.9622 0.7295 0.0255   0.653038
 C 0.7076 0.4401 0.0761   -0.752334
 C 0.18873 0.89199 0.48555   -0.355196
 C 0.22232 0.80798 0.51718   -0.002695
 C 0.18444 0.75116 0.51136   -0.081451
 C 0.1082 0.77751 0.47389   -0.132903
 C 0.07303 0.86017 0.44357   -0.052564
 C 0.114 0.9161 0.4493   0.000564
 C 0.06579 0.71581 0.46801   0.733077
 C 0.17177 0.000450000000001 0.59481   -0.352881
 C 0.1114 0.9577 0.6541   -0.004606
 C 0.05974 0.98326 0.72666   -0.077367
 C 0.06715 0.05278 0.74212   -0.150075
 C 0.12436 0.09764 0.68264   -0.051949
 C 0.1746 0.0711 0.6115   0.01819
 C 0.01336 0.07964 0.82084   0.70081
 C 0.3859 0.9099 0.4907   -0.375339
 C 0.4258 0.9075 0.5471   0.00472
 C 0.5327 0.8645 0.5391   -0.082106
 C 0.5996 0.8239 0.4749   -0.115191
 C 0.5598 0.8263 0.4185   -0.084531
 C 0.4529 0.8693 0.4265   -0.012655
 C 0.7172 0.7705 0.4745   0.652589
 C 0.2238 0.0599 0.4239   -0.750531
 C 0.43373 0.39199 0.98555   -0.35329
 C 0.45252 0.30798 0.01718   -0.007095
 C 0.55304 0.25116 0.01136   -0.078213
 C 0.6404 0.27751 0.97389   -0.131472
 C 0.62323 0.36017 0.94357   -0.054069
 C 0.5206 0.4161 0.9493   -0.001298
 C 0.75039 0.21581 0.96801   0.729523
 C 0.23297 0.50045 0.09481   -0.34918
 C 0.2768 0.4577 0.1541   -0.008791
 C 0.23034 0.48326 0.22666   -0.074614
 C 0.13795 0.55278 0.24212   -0.15384
 C 0.09536 0.59764 0.18264   -0.048217
 C 0.1428 0.5711 0.1115   0.014627
 C 0.08616 0.57964 0.32084   0.701037
 C 0.2135 0.4099 0.9907   -0.378479
 C 0.1196 0.4075 0.0471   0.005906
 C 0.0637 0.3645 0.0391   -0.07954
 C 0.1016 0.3239 0.9749   -0.116414
 C 0.1954 0.3263 0.9185   -0.084153
 C 0.2513 0.3693 0.9265   -0.011451
 C 0.0378 0.2705 0.9745   0.653038
 C 0.2924 0.5599 0.9239   -0.752333
 C 0.81127 0.10801 0.51445   -0.355196
 C 0.77768 0.19202 0.48282   -0.002695
 C 0.81556 0.24884 0.48864   -0.081451
 C 0.8918 0.22249 0.52611   -0.132903
 C 0.92697 0.13983 0.55643   -0.052564
 C 0.886 0.0839 0.5507   0.000564
 C 0.93421 0.28419 0.53199   0.733078
 C 0.82823 0.99955 0.40519   -0.352881
 C 0.8886 0.0423 0.3459   -0.004606
 C 0.94026 0.01674 0.27334   -0.077366
 C 0.93285 0.94722 0.25788   -0.150075
 C 0.87564 0.90236 0.31736   -0.051949
 C 0.8254 0.9289 0.3885   0.01819
 C 0.98664 0.92036 0.17916   0.70081
 C 0.6141 0.0901 0.5093   -0.375339
 C 0.5742 0.0925 0.4529   0.00472
 C 0.4673 0.1355 0.4609   -0.082106
 C 0.4004 0.1761 0.5251   -0.115191
 C 0.4402 0.1737 0.5815   -0.084531
 C 0.5471 0.1307 0.5735   -0.012655
 C 0.2828 0.2295 0.5255   0.652589
 C 0.7762 0.9401 0.5761   -0.750531
 O 0.01877 0.91872 0.99254   -1.010364
 O 0.23739 0.86006 0.01656   -0.660712
 O 0.17805 0.75337 0.05399   -0.576428
 O 0.86892 0.46068 0.62948   -0.663436
 O 0.000689999999999 0.35875 0.66927   -0.577234
 O 0.036 0.7362 0.9698   -0.613997
 O 0.93277 0.75903 0.08463   -0.597155
 O 0.93003 0.58128 0.50746   -1.010777
 O 0.11401 0.63994 0.48344   -0.661802
 O 0.98541 0.74663 0.44601   -0.578135
 O 0.95908 0.03932 0.87052   -0.664235
 O 0.02871 0.14125 0.83073   -0.576898
 O 0.742 0.7638 0.5302   -0.614022
 O 0.77643 0.74097 0.41537   -0.597113
 O 0.98123 0.08128 0.00746   -1.010364
 O 0.76261 0.13994 0.98344   -0.660712
 O 0.82195 0.24663 0.94601   -0.576428
 O 0.13108 0.53932 0.37052   -0.663436
 O 0.99931 0.64125 0.33073   -0.577234
 O 0.964 0.2638 0.0302   -0.613997
 O 0.06723 0.24097 0.91537   -0.597155
 O 0.06997 0.41872 0.49254   -1.010777
 O 0.88599 0.36006 0.51656   -0.661802
 O 0.01459 0.25337 0.55399   -0.578135
 O 0.04092 0.96068 0.12948   -0.664235
 O 0.97129 0.85875 0.16927   -0.576898
 O 0.258 0.2362 0.4698   -0.614022
 O 0.22357 0.25903 0.58463   -0.597113
