{'_ref': 'TBD', '_srcid': 'CAKYAQ_clean', 'submitters': [{'name': 'Dalar Nazarian Jeff Camp and David Sholl', 'email': 'dalar@gatech.edu jcamp6@gatech.edu'}], '_method': 'VASP DFT with PBE;DDEC'}
data_Ni2H28C40N8O9
_symmetry_space_group_name_H-M   'P 1'
_cell_length_a   14.24799982
_cell_length_b   15.22549963
_cell_length_c   18.12500000
_cell_angle_alpha   85.06980008
_cell_angle_beta   79.41599923
_cell_angle_gamma   62.10200037
_symmetry_Int_Tables_number   1
_chemical_formula_structural   Ni2H28C40N8O9
_chemical_formula_sum   'Ni4 H56 C80 N16 O18'
_cell_volume   3415.82990539
_cell_formula_units_Z   2
loop_
 _symmetry_equiv_pos_site_id
 _symmetry_equiv_pos_as_xyz
  1  'x, y, z'
loop_
 _atom_site_label
 _atom_site_fract_x
 _atom_site_fract_y
 _atom_site_fract_z
 _atom_site_charge
 Ni 0.2314 0.78708 0.22649   0.888376
 Ni 0.98152 0.78708 0.27351   0.888436
 Ni 0.7686 0.21292 0.77351   0.888376
 Ni 0.01848 0.21292 0.72649   0.888436
 H 0.1422 0.9816 0.0544   0.090876
 H 0.64 0.5372 0.9605   0.091241
 H 0.1101 0.0666 0.9419   0.093167
 H 0.3708 0.838 0.0926   0.096035
 H 0.493 0.0534 0.117   0.121694
 H 0.4917 0.6438 0.0408   0.088487
 H 0.2937 0.6762 0.3819   0.104798
 H 0.627 0.5216 0.4135   0.120698
 H 0.6667 0.4546 0.5308   0.132713
 H 0.5827 0.0948 0.011   0.129044
 H 0.3707 0.043 0.2131   0.142003
 H 0.4911 0.628 0.1923   0.09675
 H 0.2772 0.958 0.2909   0.110689
 H 0.5955 0.5184 0.2857   0.145973
 H 0.8762 0.9816 0.4456   0.090651
 H 0.8228 0.5372 0.5395   0.091601
 H 0.8233 0.0666 0.5581   0.093638
 H 0.7912 0.838 0.4074   0.095803
 H 0.4536 0.0534 0.383   0.121646
 H 0.8645 0.6438 0.4592   0.088646
 H 0.0301 0.6762 0.1181   0.10446
 H 0.8514 0.5216 0.0865   0.1212
 H 0.8787 0.4546 0.9692   0.13222
 H 0.3225 0.0948 0.489   0.12967
 H 0.5863 0.043 0.2869   0.142142
 H 0.8809 0.628 0.3077   0.096687
 H 0.7648 0.958 0.2091   0.110327
 H 0.8861 0.5184 0.2143   0.145582
 H 0.8578 0.0184 0.9456   0.090876
 H 0.36 0.4628 0.0395   0.091241
 H 0.8899 0.9334 0.0581   0.093167
 H 0.6292 0.162 0.9074   0.096035
 H 0.507 0.9466 0.883   0.121694
 H 0.5083 0.3562 0.9592   0.088487
 H 0.7063 0.3238 0.6181   0.104799
 H 0.373 0.4784 0.5865   0.120699
 H 0.3333 0.5454 0.4692   0.132712
 H 0.4173 0.9052 0.989   0.129043
 H 0.6293 0.957 0.7869   0.142003
 H 0.5089 0.372 0.8077   0.09675
 H 0.7228 0.042 0.7091   0.110689
 H 0.4045 0.4816 0.7143   0.145973
 H 0.1238 0.0184 0.5544   0.090651
 H 0.1772 0.4628 0.4605   0.091601
 H 0.1767 0.9334 0.4419   0.093638
 H 0.2088 0.162 0.5926   0.095803
 H 0.5464 0.9466 0.617   0.121646
 H 0.1355 0.3562 0.5408   0.088646
 H 0.9699 0.3238 0.8819   0.104461
 H 0.1486 0.4784 0.9135   0.121201
 H 0.1213 0.5454 0.0308   0.132219
 H 0.6775 0.9052 0.511   0.12967
 H 0.4137 0.957 0.7131   0.142142
 H 0.1191 0.372 0.6923   0.096687
 H 0.2352 0.042 0.7909   0.110328
 H 0.1139 0.4816 0.7857   0.145582
 C 0.0183 0.9502 0.0689   -0.104419
 C 0.08428 0.98904 0.03303   -0.063126
 C 0.40961 0.56518 0.04903   -0.107588
 C 0.44606 0.97588 0.063   0.117048
 C 0.47679 0.53902 0.4303   0.114117
 C 0.31367 0.63266 0.10398   0.630323
 C 0.04063 0.89394 0.14164   0.678378
 C 0.5834 0.522 0.97639   -0.070727
 C 0.06552 0.03956 0.9648   -0.083044
 C 0.35883 0.87854 0.13244   0.147329
 C 0.49534 0.03172 0.0699   -0.131418
 C 0.49443 0.58614 0.02466   -0.084524
 C 0.35525 0.6513 0.34571   0.174289
 C 0.57537 0.51286 0.4483   -0.140222
 C 0.59922 0.47296 0.5188   -0.130215
 C 0.54932 0.05616 0.0064   -0.136443
 C 0.35944 0.99232 0.198   -0.195874
 C 0.46373 0.62434 0.2425   0.037594
 C 0.3082 0.9442 0.2407   0.044302
 C 0.52254 0.56332 0.2936   -0.19909
 C 0.0315 0.9502 0.4311   -0.102828
 C 0.92668 0.98904 0.46697   -0.062214
 C 0.02521 0.56518 0.45097   -0.107284
 C 0.57806 0.97588 0.437   0.118172
 C 0.98419 0.53902 0.0697   0.114953
 C 0.05367 0.63266 0.39602   0.630072
 C 0.06543 0.89394 0.35836   0.677177
 C 0.8946 0.522 0.52361   -0.070552
 C 0.89492 0.03956 0.5352   -0.085224
 C 0.76263 0.87854 0.36756   0.146814
 C 0.47294 0.03172 0.4301   -0.131692
 C 0.91943 0.58614 0.47534   -0.085441
 C 0.99345 0.6513 0.15429   0.175054
 C 0.91177 0.51286 0.0517   -0.14105
 C 0.92782 0.47296 0.9812   -0.130107
 C 0.39452 0.05616 0.4936   -0.137765
 C 0.64824 0.99232 0.302   -0.196103
 C 0.91193 0.62434 0.2575   0.038402
 C 0.7476 0.9442 0.2593   0.045115
 C 0.91414 0.56332 0.2064   -0.1984
 C 0.9817 0.0498 0.9311   -0.10441
 C 0.91572 0.01096 0.96697   -0.063129
 C 0.59039 0.43482 0.95097   -0.107587
 C 0.55394 0.02412 0.937   0.117052
 C 0.52321 0.46098 0.5697   0.11413
 C 0.68633 0.36734 0.89602   0.630323
 C 0.95937 0.10606 0.85836   0.678377
 C 0.4166 0.478 0.02361   -0.070727
 C 0.93448 0.96044 0.0352   -0.083036
 C 0.64117 0.12146 0.86756   0.14733
 C 0.50466 0.96828 0.9301   -0.13142
 C 0.50557 0.41386 0.97534   -0.084525
 C 0.64475 0.3487 0.65429   0.17429
 C 0.42463 0.48714 0.5517   -0.140227
 C 0.40078 0.52704 0.4812   -0.130201
 C 0.45068 0.94384 0.9936   -0.136438
 C 0.64056 0.00768 0.802   -0.195874
 C 0.53627 0.37566 0.7575   0.037594
 C 0.6918 0.0558 0.7593   0.044302
 C 0.47746 0.43668 0.7064   -0.19909
 C 0.9685 0.0498 0.5689   -0.102823
 C 0.07332 0.01096 0.53303   -0.062216
 C 0.97479 0.43482 0.54903   -0.107284
 C 0.42194 0.02412 0.563   0.118176
 C 0.01581 0.46098 0.9303   0.114965
 C 0.94633 0.36734 0.60398   0.630072
 C 0.93457 0.10606 0.64164   0.677176
 C 0.1054 0.478 0.47639   -0.070552
 C 0.10508 0.96044 0.4648   -0.085219
 C 0.23737 0.12146 0.63244   0.146814
 C 0.52706 0.96828 0.5699   -0.131693
 C 0.08057 0.41386 0.52466   -0.085441
 C 0.00655 0.3487 0.84571   0.175054
 C 0.08823 0.48714 0.9483   -0.141054
 C 0.07218 0.52704 0.0188   -0.130094
 C 0.60548 0.94384 0.5064   -0.137761
 C 0.35176 0.00768 0.698   -0.196103
 C 0.08807 0.37566 0.7425   0.038402
 C 0.2524 0.0558 0.7407   0.045115
 C 0.08586 0.43668 0.7936   -0.1984
 N 0.39114 0.9498 0.12781   0.036987
 N 0.30893 0.8734 0.19946   -0.284781
 N 0.45185 0.5817 0.35931   0.049423
 N 0.35769 0.68058 0.2746   -0.31422
 N 0.65906 0.9498 0.37219   0.037289
 N 0.81767 0.8734 0.30054   -0.284854
 N 0.96645 0.5817 0.14069   0.048625
 N 0.96173 0.68058 0.2254   -0.315177
 N 0.60886 0.0502 0.87219   0.036987
 N 0.69107 0.1266 0.80054   -0.284781
 N 0.54815 0.4183 0.64069   0.049422
 N 0.64231 0.31942 0.7254   -0.31422
 N 0.34094 0.0502 0.62781   0.037288
 N 0.18233 0.1266 0.69946   -0.284854
 N 0.03355 0.4183 0.85931   0.048624
 N 0.03827 0.31942 0.7746   -0.315178
 O 0.11803 0.89026 0.16794   -0.573998
 O 0.24034 0.60646 0.12632   -0.531119
 O 0.9804 0.85638 0.17003   -0.566402
 O 0.31416 0.70854 0.12549   -0.571179
 O 0.99171 0.89026 0.33206   -0.573618
 O 0.1532 0.60646 0.37368   -0.530685
 O 0.16322 0.85638 0.32997   -0.566098
 O 0.9773 0.70854 0.37451   -0.57144
 O 0.88197 0.10974 0.83206   -0.573998
 O 0.75966 0.39354 0.87368   -0.531119
 O 0.0196 0.14362 0.82997   -0.566402
 O 0.68584 0.29146 0.87451   -0.571179
 O 0.00829 0.10974 0.66794   -0.573618
 O 0.8468 0.39354 0.62632   -0.530685
 O 0.83678 0.14362 0.67003   -0.566098
 O 0.0227 0.29146 0.62549   -0.57144
 O 0.14898 0.70204 0.25   -0.387833
 O 0.85102 0.29796 0.75   -0.387833
