{'_ref': 'TBD', '_srcid': 'CAKYAQ_clean', 'submitters': [{'name': 'Dalar Nazarian Jeff Camp and David Sholl', 'email': 'dalar@gatech.edu jcamp6@gatech.edu'}], '_method': 'VASP DFT with PBE;DDEC'}
data_GdPH11C7NO5
_symmetry_space_group_name_H-M   'P 1'
_cell_length_a   5.51499995
_cell_length_b   13.39300000
_cell_length_c   20.81050000
_cell_angle_alpha   90.00000000
_cell_angle_beta   95.38199564
_cell_angle_gamma   90.00000000
_symmetry_Int_Tables_number   1
_chemical_formula_structural   GdPH11C7NO5
_chemical_formula_sum   'Gd4 P4 H44 C28 N4 O20'
_cell_volume   1530.33697271
_cell_formula_units_Z   4
loop_
 _symmetry_equiv_pos_site_id
 _symmetry_equiv_pos_as_xyz
  1  'x, y, z'
loop_
 _atom_site_label
 _atom_site_fract_x
 _atom_site_fract_y
 _atom_site_fract_z
 _atom_site_charge
 Gd 0.87244 0.63255 0.52777   2.217736
 Gd 0.12756 0.13255 0.97223   2.217736
 Gd 0.12756 0.36745 0.47223   2.217736
 Gd 0.87244 0.86745 0.02777   2.217736
 P 0.5907 0.52121 0.41416   1.579489
 P 0.4093 0.02121 0.08584   1.579489
 P 0.4093 0.47879 0.58584   1.579489
 P 0.5907 0.97879 0.91416   1.579489
 H 0.8324 0.5822 0.3367   0.121898
 H 0.7435 0.4745 0.3177   0.162915
 H 0.6212 0.7277 0.2992   0.040366
 H 0.4095 0.697 0.3409   0.085396
 H 0.2555 0.8051 0.2559   0.076868
 H 0.1265 0.7008 0.2485   0.070948
 H 0.5184 0.76 0.175   0.114372
 H 0.2473 0.5739 0.1679   0.081616
 H 0.4513 0.5985 0.1224   0.079483
 H 0.6253 0.4969 0.2095   0.068179
 H 0.75 0.6026 0.2149   0.042106
 H 0.1676 0.0822 0.1633   0.121898
 H 0.2565 0.9745 0.1823   0.162914
 H 0.3788 0.2277 0.2008   0.040365
 H 0.5905 0.197 0.1591   0.085396
 H 0.7445 0.3051 0.2441   0.076867
 H 0.8735 0.2008 0.2515   0.070947
 H 0.4816 0.26 0.325   0.114372
 H 0.7527 0.0739 0.3321   0.081616
 H 0.5487 0.0985 0.3776   0.079483
 H 0.3747 0.9969 0.2905   0.068178
 H 0.25 0.1026 0.2851   0.042106
 H 0.1676 0.4178 0.6633   0.121898
 H 0.2565 0.5255 0.6823   0.162915
 H 0.3788 0.2723 0.7008   0.040366
 H 0.5905 0.303 0.6591   0.085396
 H 0.7445 0.1949 0.7441   0.076868
 H 0.8735 0.2992 0.7515   0.070948
 H 0.4816 0.24 0.825   0.114372
 H 0.7527 0.4261 0.8321   0.081616
 H 0.5487 0.4015 0.8776   0.079484
 H 0.3747 0.5031 0.7905   0.068179
 H 0.25 0.3974 0.7851   0.042106
 H 0.8324 0.9178 0.8367   0.121898
 H 0.7435 0.0255 0.8177   0.162914
 H 0.6212 0.7723 0.7992   0.040365
 H 0.4095 0.803 0.8409   0.085396
 H 0.2555 0.6949 0.7559   0.076867
 H 0.1265 0.7992 0.7485   0.070948
 H 0.5184 0.74 0.675   0.114372
 H 0.2473 0.9261 0.6679   0.081616
 H 0.4513 0.9015 0.6224   0.079484
 H 0.6253 0.0031 0.7095   0.068178
 H 0.75 0.8974 0.7149   0.042106
 C 0.6911 0.5388 0.3329   -0.403391
 C 0.4689 0.6913 0.2987   0.027139
 C 0.2807 0.7351 0.2467   -0.148552
 C 0.364 0.7247 0.1776   -0.160275
 C 0.4 0.6089 0.1652   -0.159595
 C 0.5976 0.5672 0.2172   0.048227
 C 0.1713 0.7639 0.125   0.702881
 C 0.3089 0.0388 0.1671   -0.403391
 C 0.5311 0.1913 0.2013   0.027139
 C 0.7193 0.2351 0.2533   -0.148551
 C 0.636 0.2247 0.3224   -0.160275
 C 0.6 0.1089 0.3348   -0.159595
 C 0.4024 0.0672 0.2828   0.048228
 C 0.8287 0.2639 0.375   0.702881
 C 0.3089 0.4612 0.6671   -0.403391
 C 0.5311 0.3087 0.7013   0.027139
 C 0.7193 0.2649 0.7533   -0.148552
 C 0.636 0.2753 0.8224   -0.160274
 C 0.6 0.3911 0.8348   -0.159595
 C 0.4024 0.4328 0.7828   0.048227
 C 0.8287 0.2361 0.875   0.702881
 C 0.6911 0.9612 0.8329   -0.403391
 C 0.4689 0.8087 0.7987   0.027139
 C 0.2807 0.7649 0.7467   -0.148551
 C 0.364 0.7753 0.6776   -0.160275
 C 0.4 0.8911 0.6652   -0.159595
 C 0.5976 0.9328 0.7172   0.048228
 C 0.1713 0.7361 0.625   0.702881
 N 0.5088 0.5813 0.2825   -0.273353
 N 0.4912 0.0813 0.2175   -0.273353
 N 0.4912 0.4187 0.7175   -0.273353
 N 0.5088 0.9187 0.7825   -0.273353
 O 0.5407 0.6227 0.4444   -0.964375
 O 0.8214 0.4808 0.4548   -1.077483
 O 0.3746 0.4503 0.40878   -0.902143
 O 0.0019 0.8191 0.1408   -0.678032
 O 0.1989 0.7489 0.0677   -0.752418
 O 0.4593 0.1227 0.0556   -0.964375
 O 0.1786 0.9808 0.0452   -1.077483
 O 0.6254 0.9503 0.09122   -0.902143
 O 0.9981 0.3191 0.3592   -0.678032
 O 0.8011 0.2489 0.4323   -0.752418
 O 0.4593 0.3773 0.5556   -0.964375
 O 0.1786 0.5192 0.5452   -1.077483
 O 0.6254 0.5497 0.59122   -0.902143
 O 0.9981 0.1809 0.8592   -0.678032
 O 0.8011 0.2511 0.9323   -0.752418
 O 0.5407 0.8773 0.9444   -0.964375
 O 0.8214 0.0192 0.9548   -1.077483
 O 0.3746 0.0497 0.90878   -0.902143
 O 0.0019 0.6809 0.6408   -0.678032
 O 0.1989 0.7511 0.5677   -0.752418
