{'_ref': 'TBD', '_srcid': 'CAKYAQ_clean', 'submitters': [{'name': 'Dalar Nazarian Jeff Camp and David Sholl', 'email': 'dalar@gatech.edu jcamp6@gatech.edu'}], '_method': 'VASP DFT with PBE;DDEC'}
data_ZnH3C7NO4
_symmetry_space_group_name_H-M   'P 1'
_cell_length_a   10.44650000
_cell_length_b   11.78590000
_cell_length_c   14.60480000
_cell_angle_alpha   90.00000000
_cell_angle_beta   90.00000000
_cell_angle_gamma   90.00000000
_symmetry_Int_Tables_number   1
_chemical_formula_structural   ZnH3C7NO4
_chemical_formula_sum   'Zn4 H12 C28 N4 O16'
_cell_volume   1798.16348625
_cell_formula_units_Z   4
loop_
 _symmetry_equiv_pos_site_id
 _symmetry_equiv_pos_as_xyz
  1  'x, y, z'
loop_
 _atom_site_label
 _atom_site_fract_x
 _atom_site_fract_y
 _atom_site_fract_z
 _atom_site_charge
 Zn 0.8315 0.802 0.82664   0.994934
 Zn 0.6685 0.198 0.32664   0.994933
 Zn 0.1685 0.302 0.67336   0.994934
 Zn 0.3315 0.698 0.17336   0.994933
 H 0.4698 0.4798 0.2076   0.093083
 H 0.8029 0.4787 0.067   0.121905
 H 0.5399 0.7263 0.0309   0.092555
 H 0.0302 0.5202 0.7076   0.093083
 H 0.6971 0.5213 0.567   0.121905
 H 0.9601 0.2737 0.5309   0.092555
 H 0.5302 0.9798 0.2924   0.093083
 H 0.1971 0.9787 0.433   0.121905
 H 0.4601 0.2263 0.4691   0.092555
 H 0.9698 0.0202 0.7924   0.093083
 H 0.3029 0.0213 0.933   0.121905
 H 0.0399 0.7737 0.9691   0.092555
 C 0.52557 0.51438 0.16443   0.184271
 C 0.64175 0.46267 0.14568   -0.174216
 C 0.72224 0.51182 0.08082   0.0801
 C 0.5659 0.6583 0.06039   0.228272
 C 0.7679 0.66632 0.96637   0.672616
 C 0.6824 0.61058 0.03649   -0.191689
 C 0.6833 0.35929 0.19905   0.668235
 C 0.97443 0.48562 0.66443   0.184271
 C 0.85825 0.53733 0.64568   -0.174217
 C 0.77776 0.48818 0.58082   0.0801
 C 0.9341 0.3417 0.56039   0.228272
 C 0.7321 0.33368 0.46637   0.672617
 C 0.8176 0.38942 0.53649   -0.191689
 C 0.8167 0.64071 0.69905   0.668235
 C 0.47443 0.01438 0.33557   0.184271
 C 0.35825 0.96267 0.35432   -0.174216
 C 0.27776 0.01182 0.41918   0.0801
 C 0.4341 0.1583 0.43961   0.228272
 C 0.2321 0.16632 0.53363   0.672616
 C 0.3176 0.11058 0.46351   -0.191688
 C 0.3167 0.85929 0.30095   0.668235
 C 0.02557 0.98562 0.83557   0.184271
 C 0.14175 0.03733 0.85432   -0.174217
 C 0.22224 0.98818 0.91918   0.0801
 C 0.0659 0.8417 0.93961   0.228272
 C 0.2679 0.83368 0.03363   0.672616
 C 0.1824 0.88942 0.96351   -0.191689
 C 0.1833 0.14071 0.80095   0.668235
 N 0.48822 0.61224 0.12373   -0.397607
 N 0.01178 0.38776 0.62373   -0.397607
 N 0.51178 0.11224 0.37627   -0.397607
 N 0.98822 0.88776 0.87627   -0.397607
 O 0.71643 0.74936 0.92233   -0.621512
 O 0.87788 0.63223 0.95605   -0.560331
 O 0.59435 0.3099 0.2437   -0.618709
 O 0.79682 0.33189 0.19835   -0.571907
 O 0.78357 0.25064 0.42233   -0.621512
 O 0.62212 0.36777 0.45605   -0.560331
 O 0.90565 0.6901 0.7437   -0.618709
 O 0.70318 0.66811 0.69835   -0.571907
 O 0.28357 0.24936 0.57767   -0.621512
 O 0.12212 0.13223 0.54395   -0.560331
 O 0.40565 0.8099 0.2563   -0.618709
 O 0.20318 0.83189 0.30165   -0.571907
 O 0.21643 0.75064 0.07767   -0.621512
 O 0.37788 0.86777 0.04395   -0.560331
 O 0.09435 0.1901 0.7563   -0.618709
 O 0.29682 0.16811 0.80165   -0.571907
