{'_ref': 'TBD', '_srcid': 'CAKYAQ_clean', 'submitters': [{'name': 'Dalar Nazarian Jeff Camp and David Sholl', 'email': 'dalar@gatech.edu jcamp6@gatech.edu'}], '_method': 'VASP DFT with PBE;DDEC'}
data_CuH12C18NO4
_symmetry_space_group_name_H-M   'P 1'
_cell_length_a   11.78199954
_cell_length_b   13.00540030
_cell_length_c   13.00540000
_cell_angle_alpha   97.82829809
_cell_angle_beta   105.47300068
_cell_angle_gamma   105.47299916
_symmetry_Int_Tables_number   1
_chemical_formula_structural   CuH12C18NO4
_chemical_formula_sum   'Cu4 H48 C72 N4 O16'
_cell_volume   1804.25167344
_cell_formula_units_Z   4
loop_
 _symmetry_equiv_pos_site_id
 _symmetry_equiv_pos_as_xyz
  1  'x, y, z'
loop_
 _atom_site_label
 _atom_site_fract_x
 _atom_site_fract_y
 _atom_site_fract_z
 _atom_site_charge
 Cu 0.12588 0.23121 0.67759   0.806114
 Cu 0.37412 0.32241 0.76879   0.806118
 Cu 0.87412 0.76879 0.32241   0.806114
 Cu 0.62588 0.67759 0.23121   0.806118
 H 0.121 0.1941 0.3399   0.108737
 H 0.4747 0.3835 0.4829   0.097901
 H 0.4967 0.4047 0.3183   0.114679
 H 0.0296 0.1527 0.1369   0.115886
 H 0.0478 0.1762 0.9714   0.111921
 H 0.4059 0.3602 0.1134   0.112948
 H 0.9188 0.0096 0.5902   0.079232
 H 0.8927 0.301 0.6146   0.061772
 H 0.7065 0.9333 0.5313   0.117903
 H 0.6802 0.2333 0.5471   0.125576
 H 0.5403 0.0211 0.6177   0.11108
 H 0.5072 0.1079 0.5511   0.109132
 H 0.379 0.6601 0.8059   0.108737
 H 0.0253 0.5171 0.6165   0.0979
 H 0.0033 0.6817 0.5953   0.114679
 H 0.4704 0.8631 0.8473   0.115886
 H 0.4522 0.0286 0.8238   0.111921
 H 0.0941 0.8866 0.6398   0.112948
 H 0.5812 0.4098 0.9904   0.079232
 H 0.6073 0.3854 0.699   0.061772
 H 0.7935 0.4687 0.0667   0.117903
 H 0.8198 0.4529 0.7667   0.125576
 H 0.9597 0.3823 0.9789   0.11108
 H 0.9928 0.4489 0.8921   0.109132
 H 0.879 0.8059 0.6601   0.108737
 H 0.5253 0.6165 0.5171   0.097901
 H 0.5033 0.5953 0.6817   0.114679
 H 0.9704 0.8473 0.8631   0.115886
 H 0.9522 0.8238 0.0286   0.111921
 H 0.5941 0.6398 0.8866   0.112948
 H 0.0812 0.9904 0.4098   0.079232
 H 0.1073 0.699 0.3854   0.061772
 H 0.2935 0.0667 0.4687   0.117903
 H 0.3198 0.7667 0.4529   0.125576
 H 0.4597 0.9789 0.3823   0.11108
 H 0.4928 0.8921 0.4489   0.109132
 H 0.621 0.3399 0.1941   0.108737
 H 0.9747 0.4829 0.3835   0.0979
 H 0.9967 0.3183 0.4047   0.114679
 H 0.5296 0.1369 0.1527   0.115887
 H 0.5478 0.9714 0.1762   0.111921
 H 0.9059 0.1134 0.3602   0.112948
 H 0.4188 0.5902 0.0096   0.079232
 H 0.3927 0.6146 0.301   0.061772
 H 0.2065 0.5313 0.9333   0.117903
 H 0.1802 0.5471 0.2333   0.125576
 H 0.0403 0.6177 0.0211   0.11108
 H 0.0072 0.5511 0.1079   0.109132
 C 0.2787 0.27867 0.53753   0.633701
 C 0.2938 0.2879 0.4279   -0.119737
 C 0.1957 0.2363 0.3345   -0.085957
 C 0.4076 0.35 0.4196   -0.058747
 C 0.2061 0.2463 0.2311   0.041461
 C 0.4213 0.3617 0.3215   -0.123211
 C 0.321 0.309 0.223   0.035117
 C 0.1048 0.1954 0.133   -0.135229
 C 0.116 0.2082 0.0342   -0.058344
 C 0.3308 0.3193 0.1189   -0.085728
 C 0.231 0.2699 0.0255   -0.113329
 C 0.2415 0.2813 0.9155   0.636171
 C 0.8699 0.0554 0.5856   0.177036
 C 0.8548 0.2257 0.5987   0.185051
 C 0.7426 0.009 0.5488   -0.224551
 C 0.7262 0.1854 0.559   -0.235539
 C 0.6683 0.0776 0.538   0.153877
 C 0.5391 0.04646 0.55066   -0.179133
 C 0.2213 0.46247 0.72133   0.633701
 C 0.2062 0.5721 0.7121   -0.119737
 C 0.3043 0.6655 0.7637   -0.085957
 C 0.0924 0.5804 0.65   -0.058747
 C 0.2939 0.7689 0.7537   0.041461
 C 0.0787 0.6785 0.6383   -0.123211
 C 0.179 0.777 0.691   0.035117
 C 0.3952 0.867 0.8046   -0.135229
 C 0.384 0.9658 0.7918   -0.058344
 C 0.1692 0.8811 0.6807   -0.085728
 C 0.269 0.9745 0.7301   -0.113329
 C 0.2585 0.0845 0.7187   0.636171
 C 0.6301 0.4144 0.9446   0.177036
 C 0.6452 0.4013 0.7743   0.185051
 C 0.7574 0.4512 0.991   -0.224551
 C 0.7738 0.441 0.8146   -0.235539
 C 0.8317 0.462 0.9224   0.153878
 C 0.9609 0.44934 0.95354   -0.179134
 C 0.7213 0.72133 0.46247   0.633701
 C 0.7062 0.7121 0.5721   -0.119737
 C 0.8043 0.7637 0.6655   -0.085957
 C 0.5924 0.65 0.5804   -0.058747
 C 0.7939 0.7537 0.7689   0.041461
 C 0.5787 0.6383 0.6785   -0.123211
 C 0.679 0.691 0.777   0.035117
 C 0.8952 0.8046 0.867   -0.135229
 C 0.884 0.7918 0.9658   -0.058344
 C 0.6692 0.6807 0.8811   -0.085728
 C 0.769 0.7301 0.9745   -0.11333
 C 0.7585 0.7187 0.0845   0.636171
 C 0.1301 0.9446 0.4144   0.177036
 C 0.1452 0.7743 0.4013   0.185051
 C 0.2574 0.991 0.4512   -0.224551
 C 0.2738 0.8146 0.441   -0.235539
 C 0.3317 0.9224 0.462   0.153877
 C 0.4609 0.95354 0.44934   -0.179134
 C 0.7787 0.53753 0.27867   0.633701
 C 0.7938 0.4279 0.2879   -0.119737
 C 0.6957 0.3345 0.2363   -0.085957
 C 0.9076 0.4196 0.35   -0.058747
 C 0.7061 0.2311 0.2463   0.041461
 C 0.9213 0.3215 0.3617   -0.123211
 C 0.821 0.223 0.309   0.035117
 C 0.6048 0.133 0.1954   -0.135229
 C 0.616 0.0342 0.2082   -0.058344
 C 0.8308 0.1189 0.3193   -0.085728
 C 0.731 0.0255 0.2699   -0.113329
 C 0.7415 0.9155 0.2813   0.636171
 C 0.3699 0.5856 0.0554   0.177036
 C 0.3548 0.5987 0.2257   0.185051
 C 0.2426 0.5488 0.009   -0.224551
 C 0.2262 0.559 0.1854   -0.235539
 C 0.1683 0.538 0.0776   0.153877
 C 0.0391 0.55066 0.04646   -0.179134
 N 0.9259 0.16345 0.61495   -0.343419
 N 0.5741 0.38505 0.83655   -0.34342
 N 0.0741 0.83655 0.38505   -0.343419
 N 0.4259 0.61495 0.16345   -0.34342
 O 0.1709 0.23465 0.54033   -0.545952
 O 0.3764 0.31699 0.61939   -0.540206
 O 0.1422 0.24923 0.83657   -0.552528
 O 0.3501 0.32145 0.91037   -0.533685
 O 0.3291 0.45967 0.76535   -0.545952
 O 0.1236 0.38061 0.68301   -0.540206
 O 0.3578 0.16343 0.75077   -0.552528
 O 0.1499 0.08963 0.67855   -0.533685
 O 0.8291 0.76535 0.45967   -0.545952
 O 0.6236 0.68301 0.38061   -0.540206
 O 0.8578 0.75077 0.16343   -0.552528
 O 0.6499 0.67855 0.08963   -0.533685
 O 0.6709 0.54033 0.23465   -0.545952
 O 0.8764 0.61939 0.31699   -0.540206
 O 0.6422 0.83657 0.24923   -0.552528
 O 0.8501 0.91037 0.32145   -0.533685
