{'_ref': 'TBD', '_srcid': 'CAKYAQ_clean', 'submitters': [{'name': 'Dalar Nazarian Jeff Camp and David Sholl', 'email': 'dalar@gatech.edu jcamp6@gatech.edu'}], '_method': 'VASP DFT with PBE;DDEC'}
data_FeH16(C12N5)2
_symmetry_space_group_name_H-M   'P 1'
_cell_length_a   8.93709983
_cell_length_b   16.21550000
_cell_length_c   16.21550015
_cell_angle_alpha   116.70349919
_cell_angle_beta   100.58599962
_cell_angle_gamma   100.58620182
_symmetry_Int_Tables_number   1
_chemical_formula_structural   FeH16(C12N5)2
_chemical_formula_sum   'Fe3 H48 C72 N30'
_cell_volume   1966.42545767
_cell_formula_units_Z   3
loop_
 _symmetry_equiv_pos_site_id
 _symmetry_equiv_pos_as_xyz
  1  'x, y, z'
loop_
 _atom_site_label
 _atom_site_fract_x
 _atom_site_fract_y
 _atom_site_fract_z
 _atom_site_charge
 Fe 0.5 0.5 0.0   0.095423
 Fe 0.0 0.5 0.5   0.098371
 Fe 0.5 0.0 0.5   0.098694
 H 0.0987 0.6635 0.9805   0.134321
 H 0.2578 0.8246 0.0879   0.098864
 H 0.526 0.8542 0.1645   0.109525
 H 0.6297 0.726 0.1313   0.078233
 H 0.7637 0.3517 0.7274   0.120599
 H 0.5708 0.2177 0.6031   0.083649
 H 0.7705 0.0473 0.6646   0.077578
 H 0.975 0.1769 0.7864   0.123177
 H 0.4352 0.317 0.3365   0.133388
 H 0.4332 0.2633 0.1754   0.099475
 H 0.6718 0.3103 0.1458   0.110015
 H 0.9037 0.4053 0.274   0.078015
 H 0.412 0.3757 0.6483   0.121047
 H 0.3531 0.3854 0.7823   0.083302
 H 0.7232 0.6173 0.9527   0.07786
 H 0.7981 0.6095 0.8231   0.123609
 H 0.1182 0.0195 0.683   0.133151
 H 0.1699 0.9121 0.7367   0.099801
 H 0.3615 0.8355 0.6897   0.109465
 H 0.4984 0.8687 0.5947   0.077524
 H 0.0363 0.2726 0.6243   0.121312
 H 0.9677 0.3969 0.6146   0.083535
 H 0.1059 0.3354 0.3827   0.07831
 H 0.1886 0.2136 0.3905   0.123889
 H 0.9013 0.3365 0.0195   0.134321
 H 0.7422 0.1754 0.9121   0.098866
 H 0.474 0.1458 0.8355   0.109525
 H 0.3703 0.274 0.8687   0.078235
 H 0.2363 0.6483 0.2726   0.1206
 H 0.4292 0.7823 0.3969   0.08365
 H 0.2295 0.9527 0.3354   0.077578
 H 0.025 0.8231 0.2136   0.123179
 H 0.5648 0.683 0.6635   0.133388
 H 0.5668 0.7367 0.8246   0.099478
 H 0.3282 0.6897 0.8542   0.110015
 H 0.0963 0.5947 0.726   0.078017
 H 0.588 0.6243 0.3517   0.121047
 H 0.6469 0.6146 0.2177   0.083303
 H 0.2768 0.3827 0.0473   0.07786
 H 0.2019 0.3905 0.1769   0.123611
 H 0.8818 0.9805 0.317   0.133151
 H 0.8301 0.0879 0.2633   0.099804
 H 0.6385 0.1645 0.3103   0.109465
 H 0.5016 0.1313 0.4053   0.077525
 H 0.9637 0.7274 0.3757   0.121312
 H 0.0323 0.6031 0.3854   0.083536
 H 0.8941 0.6646 0.6173   0.07831
 H 0.8114 0.7864 0.6095   0.123891
 C 0.1899 0.5022 0.9327   0.231925
 C 0.0331 0.3635 0.8416   0.341638
 C 0.2743 0.6038 0.9946   0.135316
 C 0.2084 0.6776 0.012   -0.157276
 C 0.3016 0.7726 0.0754   -0.020654
 C 0.4593 0.7898 0.12   -0.181306
 C 0.5206 0.713 0.0999   0.108859
 C 0.8968 0.2808 0.7704   0.042516
 C 0.7699 0.2894 0.7141   -0.161854
 C 0.655 0.2091 0.6405   0.08903
 C 0.7716 0.1101 0.6756   0.09711
 C 0.8928 0.1871 0.7492   -0.180865
 C 0.6877 0.4305 0.4978   0.232332
 C 0.6696 0.4781 0.6365   0.343562
 C 0.6705 0.3908 0.3962   0.135325
 C 0.5308 0.3344 0.3224   -0.155842
 C 0.529 0.3028 0.2274   -0.022676
 C 0.6695 0.3302 0.2102   -0.182148
 C 0.8076 0.3869 0.287   0.11068
 C 0.616 0.4896 0.7192   0.043016
 C 0.4805 0.4247 0.7106   -0.162667
 C 0.4459 0.4314 0.7909   0.090721
 C 0.6615 0.5655 0.8899   0.0977
 C 0.7057 0.5621 0.8129   -0.183386
 C 0.2572 0.0673 0.5695   0.231479
 C 0.1915 0.1584 0.5219   0.342311
 C 0.2797 0.0054 0.6092   0.135122
 C 0.1964 0.988 0.6656   -0.155499
 C 0.2262 0.9246 0.6972   -0.02391
 C 0.3393 0.88 0.6698   -0.179871
 C 0.4207 0.9001 0.6131   0.110385
 C 0.1264 0.2296 0.5104   0.043886
 C 0.0558 0.2859 0.5753   -0.163537
 C 0.0145 0.3595 0.5686   0.090711
 C 0.096 0.3244 0.4345   0.096696
 C 0.1436 0.2508 0.4379   -0.183393
 C 0.8101 0.4978 0.0673   0.231926
 C 0.9669 0.6365 0.1584   0.341638
 C 0.7257 0.3962 0.0054   0.135316
 C 0.7916 0.3224 0.988   -0.157277
 C 0.6984 0.2274 0.9246   -0.020656
 C 0.5407 0.2102 0.88   -0.181306
 C 0.4794 0.287 0.9001   0.10886
 C 0.1032 0.7192 0.2296   0.042515
 C 0.2301 0.7106 0.2859   -0.161854
 C 0.345 0.7909 0.3595   0.089031
 C 0.2284 0.8899 0.3244   0.09711
 C 0.1072 0.8129 0.2508   -0.180866
 C 0.3123 0.5695 0.5022   0.232332
 C 0.3304 0.5219 0.3635   0.343562
 C 0.3295 0.6092 0.6038   0.135325
 C 0.4692 0.6656 0.6776   -0.155843
 C 0.471 0.6972 0.7726   -0.022677
 C 0.3305 0.6698 0.7898   -0.182148
 C 0.1924 0.6131 0.713   0.110681
 C 0.384 0.5104 0.2808   0.043016
 C 0.5195 0.5753 0.2894   -0.162667
 C 0.5541 0.5686 0.2091   0.090721
 C 0.3385 0.4345 0.1101   0.0977
 C 0.2943 0.4379 0.1871   -0.183387
 C 0.7428 0.9327 0.4305   0.23148
 C 0.8085 0.8416 0.4781   0.342311
 C 0.7203 0.9946 0.3908   0.135122
 C 0.8036 0.012 0.3344   -0.155499
 C 0.7738 0.0754 0.3028   -0.023911
 C 0.6607 0.12 0.3302   -0.179871
 C 0.5793 0.0999 0.3869   0.110385
 C 0.8736 0.7704 0.4896   0.043886
 C 0.9442 0.7141 0.4247   -0.163537
 C 0.9855 0.6405 0.4314   0.090712
 C 0.904 0.6756 0.5655   0.096696
 C 0.8564 0.7492 0.5621   -0.183394
 N 0.2731 0.4415 0.9328   -0.026478
 N 0.1697 0.3501 0.8736   -0.392342
 N 0.0369 0.4564 0.8765   -0.497319
 N 0.4316 0.6197 0.0372   -0.152048
 N 0.6526 0.1176 0.6171   -0.14985
 N 0.8316 0.4913 0.5585   -0.027971
 N 0.8196 0.5235 0.6499   -0.392579
 N 0.5805 0.4201 0.5436   -0.498228
 N 0.8119 0.4175 0.3803   -0.153371
 N 0.535 0.4995 0.8824   -0.150877
 N 0.3403 0.0672 0.5087   -0.027985
 N 0.2961 0.1264 0.4765   -0.392018
 N 0.1604 0.1235 0.5799   -0.497076
 N 0.3944 0.9628 0.5825   -0.152562
 N 0.0355 0.3829 0.5005   -0.150628
 N 0.7269 0.5585 0.0672   -0.026478
 N 0.8303 0.6499 0.1264   -0.392342
 N 0.9631 0.5436 0.1235   -0.497319
 N 0.5684 0.3803 0.9628   -0.152048
 N 0.3474 0.8824 0.3829   -0.14985
 N 0.1684 0.5087 0.4415   -0.027971
 N 0.1804 0.4765 0.3501   -0.392578
 N 0.4195 0.5799 0.4564   -0.498228
 N 0.1881 0.5825 0.6197   -0.153371
 N 0.465 0.5005 0.1176   -0.150877
 N 0.6597 0.9328 0.4913   -0.027985
 N 0.7039 0.8736 0.5235   -0.392018
 N 0.8396 0.8765 0.4201   -0.497076
 N 0.6056 0.0372 0.4175   -0.152562
 N 0.9645 0.6171 0.4995   -0.150628
