{'_ref': 'TBD', '_srcid': 'CAKYAQ_clean', 'submitters': [{'name': 'Dalar Nazarian Jeff Camp and David Sholl', 'email': 'dalar@gatech.edu jcamp6@gatech.edu'}], '_method': 'VASP DFT with PBE;DDEC'}
data_FeH16(C12N5)2
_symmetry_space_group_name_H-M   'P 1'
_cell_length_a   16.14500022
_cell_length_b   17.97750000
_cell_length_c   17.97749953
_cell_angle_alpha   111.44320155
_cell_angle_beta   107.41899947
_cell_angle_gamma   107.41889852
_symmetry_Int_Tables_number   1
_chemical_formula_structural   FeH16(C12N5)2
_chemical_formula_sum   'Fe6 H96 C144 N60'
_cell_volume   4113.89035427
_cell_formula_units_Z   6
loop_
 _symmetry_equiv_pos_site_id
 _symmetry_equiv_pos_as_xyz
  1  'x, y, z'
loop_
 _atom_site_label
 _atom_site_fract_x
 _atom_site_fract_y
 _atom_site_fract_z
 _atom_site_charge
 Fe 0.0 0.5 0.0   0.330363
 Fe 0.5 0.5 0.5   0.332867
 Fe 0.0 0.0 0.5   0.331003
 Fe 0.0 0.5 0.5   0.332848
 Fe 0.5 0.5 0.0   0.330983
 Fe 0.5 0.0 0.5   0.330361
 H 0.8489 0.2575 0.0527   0.128926
 H 0.6939 0.1858 0.9348   0.103551
 H 0.6601 0.2485 0.8421   0.109374
 H 0.7801 0.376 0.8694   0.064889
 H 0.3276 0.566 0.274   0.123946
 H 0.4562 0.5775 0.3816   0.072904
 H 0.2827 0.4214 0.4273   0.06972
 H 0.1512 0.4063 0.3215   0.112269
 H 0.5914 0.7952 0.7425   0.129181
 H 0.5081 0.749 0.8142   0.103391
 H 0.4116 0.5936 0.7515   0.10915
 H 0.4041 0.4934 0.624   0.065144
 H 0.7616 0.708 0.434   0.124481
 H 0.8787 0.8041 0.4225   0.072641
 H 0.8613 0.0059 0.5786   0.069449
 H 0.7449 0.9152 0.5937   0.112221
 H 0.7962 0.9473 0.2048   0.129032
 H 0.7591 0.0652 0.251   0.103672
 H 0.818 0.1579 0.4064   0.108986
 H 0.9107 0.1306 0.5066   0.065386
 H 0.0536 0.726 0.292   0.124277
 H 0.0746 0.6184 0.1959   0.072011
 H 0.8554 0.5727 0.9941   0.06942
 H 0.8297 0.6785 0.0848   0.111822
 H 0.1511 0.7425 0.9473   0.128926
 H 0.3061 0.8142 0.0652   0.103552
 H 0.3399 0.7515 0.1579   0.109374
 H 0.2199 0.624 0.1306   0.064889
 H 0.6724 0.434 0.726   0.123946
 H 0.5438 0.4225 0.6184   0.072904
 H 0.7173 0.5786 0.5727   0.06972
 H 0.8488 0.5937 0.6785   0.112269
 H 0.4086 0.2048 0.2575   0.129181
 H 0.4919 0.251 0.1858   0.103391
 H 0.5884 0.4064 0.2485   0.10915
 H 0.5959 0.5066 0.376   0.065145
 H 0.2384 0.292 0.566   0.124482
 H 0.1213 0.1959 0.5775   0.072641
 H 0.1387 0.9941 0.4214   0.069449
 H 0.2551 0.0848 0.4063   0.112221
 H 0.2038 0.0527 0.7952   0.129032
 H 0.2409 0.9348 0.749   0.103673
 H 0.182 0.8421 0.5936   0.108986
 H 0.0893 0.8694 0.4934   0.065387
 H 0.9464 0.274 0.708   0.124277
 H 0.9254 0.3816 0.8041   0.072011
 H 0.1446 0.4273 0.0059   0.06942
 H 0.1703 0.3215 0.9152   0.111822
 H 0.9086 0.2575 0.2048   0.129183
 H 0.9919 0.1858 0.251   0.103394
 H 0.0884 0.2485 0.4064   0.109153
 H 0.0959 0.376 0.5066   0.065139
 H 0.7384 0.566 0.292   0.124484
 H 0.6213 0.5775 0.1959   0.072644
 H 0.6387 0.4214 0.9941   0.06945
 H 0.7551 0.4063 0.0848   0.112224
 H 0.7038 0.7952 0.0527   0.129034
 H 0.7409 0.749 0.9348   0.103672
 H 0.682 0.5936 0.8421   0.108986
 H 0.5893 0.4934 0.8694   0.065394
 H 0.4464 0.708 0.274   0.124279
 H 0.4254 0.8041 0.3816   0.072012
 H 0.6446 0.0059 0.4273   0.069419
 H 0.6703 0.9152 0.3215   0.111824
 H 0.6511 0.9473 0.7425   0.128928
 H 0.8061 0.0652 0.8142   0.103552
 H 0.8399 0.1579 0.7515   0.109373
 H 0.7199 0.1306 0.624   0.06489
 H 0.1724 0.726 0.434   0.12395
 H 0.0438 0.6184 0.4225   0.072906
 H 0.2173 0.5727 0.5786   0.069728
 H 0.3488 0.6785 0.5937   0.112273
 H 0.0914 0.7425 0.7952   0.129183
 H 0.0081 0.8142 0.749   0.103395
 H 0.9116 0.7515 0.5936   0.109153
 H 0.9041 0.624 0.4934   0.06514
 H 0.2616 0.434 0.708   0.124485
 H 0.3787 0.4225 0.8041   0.072645
 H 0.3613 0.5786 0.0059   0.06945
 H 0.2449 0.5937 0.9152   0.112224
 H 0.2962 0.2048 0.9473   0.129034
 H 0.2591 0.251 0.0652   0.103673
 H 0.318 0.4064 0.1579   0.108986
 H 0.4107 0.5066 0.1306   0.065395
 H 0.5536 0.292 0.726   0.124279
 H 0.5746 0.1959 0.6184   0.072013
 H 0.3554 0.9941 0.5727   0.069419
 H 0.3297 0.0848 0.6785   0.111824
 H 0.3489 0.0527 0.2575   0.128928
 H 0.1939 0.9348 0.1858   0.103553
 H 0.1601 0.8421 0.2485   0.109373
 H 0.2801 0.8694 0.376   0.064891
 H 0.8276 0.274 0.566   0.123951
 H 0.9562 0.3816 0.5775   0.072907
 H 0.7827 0.4273 0.4214   0.069728
 H 0.6512 0.3215 0.4063   0.112273
 C 0.004 0.4072 0.0959   0.234446
 C 0.1412 0.4639 0.2027   0.344655
 C 0.9028 0.3568 0.0254   0.131496
 C 0.8331 0.2797 0.014   -0.147409
 C 0.7421 0.238 0.9453   -0.020959
 C 0.7222 0.2755 0.8898   -0.17763
 C 0.7947 0.3517 0.9063   0.123211
 C 0.2233 0.4791 0.2796   0.056956
 C 0.3162 0.5336 0.3031   -0.179777
 C 0.3934 0.5409 0.369   0.116012
 C 0.2932 0.4509 0.3954   0.108694
 C 0.2133 0.4403 0.3307   -0.166391
 C 0.5968 0.6887 0.5928   0.232921
 C 0.6773 0.7388 0.5361   0.343879
 C 0.546 0.6686 0.6432   0.131846
 C 0.5534 0.7343 0.7203   -0.146202
 C 0.5041 0.7073 0.762   -0.022311
 C 0.4467 0.6143 0.7245   -0.177002
 C 0.443 0.5546 0.6483   0.122242
 C 0.7442 0.8005 0.5209   0.055475
 C 0.7826 0.7695 0.4664   -0.179662
 C 0.8525 0.8281 0.4591   0.115768
 C 0.8423 0.9445 0.5491   0.107634
 C 0.773 0.8904 0.5597   -0.165399
 C 0.9081 0.9041 0.3113   0.234093
 C 0.9385 0.7973 0.2612   0.345129
 C 0.8774 0.9746 0.3314   0.132293
 C 0.8191 0.986 0.2657   -0.147448
 C 0.7968 0.0547 0.2927   -0.021704
 C 0.8324 0.1102 0.3857   -0.177167
 C 0.8884 0.0937 0.4454   0.122285
 C 0.9437 0.7204 0.1995   0.055101
 C 0.0131 0.6969 0.2305   -0.179241
 C 0.0244 0.631 0.1719   0.116836
 C 0.8978 0.6046 0.0555   0.108853
 C 0.8826 0.6693 0.1096   -0.16593
 C 0.996 0.5928 0.9041   0.234446
 C 0.8588 0.5361 0.7973   0.344655
 C 0.0972 0.6432 0.9746   0.131496
 C 0.1669 0.7203 0.986   -0.147409
 C 0.2579 0.762 0.0547   -0.020959
 C 0.2778 0.7245 0.1102   -0.17763
 C 0.2053 0.6483 0.0937   0.123211
 C 0.7767 0.5209 0.7204   0.056956
 C 0.6838 0.4664 0.6969   -0.179777
 C 0.6066 0.4591 0.631   0.116011
 C 0.7068 0.5491 0.6046   0.108695
 C 0.7867 0.5597 0.6693   -0.166391
 C 0.4032 0.3113 0.4072   0.232922
 C 0.3227 0.2612 0.4639   0.343879
 C 0.454 0.3314 0.3568   0.131846
 C 0.4466 0.2657 0.2797   -0.146202
 C 0.4959 0.2927 0.238   -0.022311
 C 0.5533 0.3857 0.2755   -0.177002
 C 0.557 0.4454 0.3517   0.122242
 C 0.2558 0.1995 0.4791   0.055475
 C 0.2174 0.2305 0.5336   -0.179662
 C 0.1475 0.1719 0.5409   0.115768
 C 0.1577 0.0555 0.4509   0.107634
 C 0.227 0.1096 0.4403   -0.165399
 C 0.0919 0.0959 0.6887   0.234093
 C 0.0615 0.2027 0.7388   0.345129
 C 0.1226 0.0254 0.6686   0.132293
 C 0.1809 0.014 0.7343   -0.147447
 C 0.2032 0.9453 0.7073   -0.021704
 C 0.1676 0.8898 0.6143   -0.177167
 C 0.1116 0.9063 0.5546   0.122285
 C 0.0563 0.2796 0.8005   0.055101
 C 0.9869 0.3031 0.7695   -0.179241
 C 0.9756 0.369 0.8281   0.116836
 C 0.1022 0.3954 0.9445   0.108853
 C 0.1174 0.3307 0.8904   -0.16593
 C 0.9032 0.4072 0.3113   0.232921
 C 0.8227 0.4639 0.2612   0.343879
 C 0.954 0.3568 0.3314   0.131836
 C 0.9466 0.2797 0.2657   -0.146202
 C 0.9959 0.238 0.2927   -0.02231
 C 0.0533 0.2755 0.3857   -0.177006
 C 0.057 0.3517 0.4454   0.122243
 C 0.7558 0.4791 0.1995   0.055499
 C 0.7174 0.5336 0.2305   -0.179673
 C 0.6475 0.5409 0.1719   0.115762
 C 0.6577 0.4509 0.0555   0.107634
 C 0.727 0.4403 0.1096   -0.165414
 C 0.5919 0.6887 0.0959   0.234088
 C 0.5615 0.7388 0.2027   0.345143
 C 0.6226 0.6686 0.0254   0.132294
 C 0.6809 0.7343 0.014   -0.147448
 C 0.7032 0.7073 0.9453   -0.021702
 C 0.6676 0.6143 0.8898   -0.177169
 C 0.6116 0.5546 0.9063   0.122282
 C 0.5563 0.8005 0.2796   0.055117
 C 0.4869 0.7695 0.3031   -0.179248
 C 0.4756 0.8281 0.369   0.11683
 C 0.6022 0.9445 0.3954   0.108858
 C 0.6174 0.8904 0.3307   -0.165948
 C 0.496 0.9041 0.5928   0.234402
 C 0.3588 0.7973 0.5361   0.344651
 C 0.5972 0.9746 0.6432   0.131508
 C 0.6669 0.986 0.7203   -0.147414
 C 0.7579 0.0547 0.762   -0.020957
 C 0.7778 0.1102 0.7245   -0.17763
 C 0.7053 0.0937 0.6483   0.123211
 C 0.2767 0.7204 0.5209   0.05696
 C 0.1838 0.6969 0.4664   -0.179779
 C 0.1066 0.631 0.4591   0.116005
 C 0.2068 0.6046 0.5491   0.108652
 C 0.2867 0.6693 0.5597   -0.166376
 C 0.0968 0.5928 0.6887   0.232921
 C 0.1773 0.5361 0.7388   0.343879
 C 0.046 0.6432 0.6686   0.131836
 C 0.0534 0.7203 0.7343   -0.146201
 C 0.0041 0.762 0.7073   -0.022311
 C 0.9467 0.7245 0.6143   -0.177006
 C 0.943 0.6483 0.5546   0.122243
 C 0.2442 0.5209 0.8005   0.055499
 C 0.2826 0.4664 0.7695   -0.179673
 C 0.3525 0.4591 0.8281   0.115762
 C 0.3423 0.5491 0.9445   0.107635
 C 0.273 0.5597 0.8904   -0.165414
 C 0.4081 0.3113 0.9041   0.234089
 C 0.4385 0.2612 0.7973   0.345143
 C 0.3774 0.3314 0.9746   0.132295
 C 0.3191 0.2657 0.986   -0.147448
 C 0.2968 0.2927 0.0547   -0.021703
 C 0.3324 0.3857 0.1102   -0.177169
 C 0.3884 0.4454 0.0937   0.122282
 C 0.4437 0.1995 0.7204   0.055117
 C 0.5131 0.2305 0.6969   -0.179248
 C 0.5244 0.1719 0.631   0.11683
 C 0.3978 0.0555 0.6046   0.108858
 C 0.3826 0.1096 0.6693   -0.165948
 C 0.504 0.0959 0.4072   0.234402
 C 0.6412 0.2027 0.4639   0.344651
 C 0.4028 0.0254 0.3568   0.131508
 C 0.3331 0.014 0.2797   -0.147414
 C 0.2421 0.9453 0.238   -0.020957
 C 0.2222 0.8898 0.2755   -0.17763
 C 0.2947 0.9063 0.3517   0.123211
 C 0.7233 0.2796 0.4791   0.05696
 C 0.8162 0.3031 0.5336   -0.179779
 C 0.8934 0.369 0.5409   0.116005
 C 0.7932 0.3954 0.4509   0.108652
 C 0.7133 0.3307 0.4403   -0.166376
 N 0.0624 0.478 0.095   -0.069189
 N 0.1511 0.5129 0.1639   -0.389461
 N 0.0507 0.3961 0.1631   -0.507303
 N 0.8849 0.3925 0.9726   -0.2109
 N 0.385 0.4999 0.4163   -0.197832
 N 0.5844 0.617 0.522   -0.068465
 N 0.6382 0.651 0.4871   -0.389548
 N 0.6546 0.767 0.6039   -0.505949
 N 0.4924 0.5801 0.6075   -0.210634
 N 0.8851 0.9164 0.5001   -0.196283
 N 0.9674 0.905 0.383   -0.068098
 N 0.9872 0.8361 0.349   -0.39026
 N 0.8876 0.8369 0.233   -0.507295
 N 0.9123 0.0274 0.4199   -0.210578
 N 0.9687 0.5837 0.0836   -0.196772
 N 0.9376 0.522 0.905   -0.069189
 N 0.8489 0.4871 0.8361   -0.389461
 N 0.9493 0.6039 0.8369   -0.507303
 N 0.1151 0.6075 0.0274   -0.2109
 N 0.615 0.5001 0.5837   -0.197832
 N 0.4156 0.383 0.478   -0.068465
 N 0.3618 0.349 0.5129   -0.389548
 N 0.3454 0.233 0.3961   -0.505949
 N 0.5076 0.4199 0.3925   -0.210634
 N 0.1149 0.0836 0.4999   -0.196283
 N 0.0326 0.095 0.617   -0.068098
 N 0.0128 0.1639 0.651   -0.39026
 N 0.1124 0.1631 0.767   -0.507295
 N 0.0877 0.9726 0.5801   -0.210578
 N 0.0313 0.4163 0.9164   -0.196772
 N 0.9156 0.478 0.383   -0.068458
 N 0.8618 0.5129 0.349   -0.38955
 N 0.8454 0.3961 0.233   -0.505947
 N 0.0076 0.3925 0.4199   -0.210618
 N 0.6149 0.4999 0.0836   -0.196275
 N 0.5326 0.617 0.095   -0.068087
 N 0.5128 0.651 0.1639   -0.390278
 N 0.6124 0.767 0.1631   -0.507293
 N 0.5877 0.5801 0.9726   -0.21058
 N 0.5313 0.9164 0.4163   -0.196764
 N 0.4376 0.905 0.522   -0.069179
 N 0.3489 0.8361 0.4871   -0.389462
 N 0.4493 0.8369 0.6039   -0.507271
 N 0.6151 0.0274 0.6075   -0.210905
 N 0.115 0.5837 0.5001   -0.197811
 N 0.0844 0.522 0.617   -0.068459
 N 0.1382 0.4871 0.651   -0.38955
 N 0.1546 0.6039 0.767   -0.505947
 N 0.9924 0.6075 0.5801   -0.210618
 N 0.3851 0.5001 0.9164   -0.196276
 N 0.4674 0.383 0.905   -0.068087
 N 0.4872 0.349 0.8361   -0.390278
 N 0.3876 0.233 0.8369   -0.507293
 N 0.4123 0.4199 0.0274   -0.21058
 N 0.4687 0.0836 0.5837   -0.196764
 N 0.5624 0.095 0.478   -0.069179
 N 0.6511 0.1639 0.5129   -0.389462
 N 0.5507 0.1631 0.3961   -0.507271
 N 0.3849 0.9726 0.3925   -0.210906
 N 0.885 0.4163 0.4999   -0.197812
