{'_ref': 'TBD', '_srcid': 'CAKYAQ_clean', 'submitters': [{'name': 'Dalar Nazarian Jeff Camp and David Sholl', 'email': 'dalar@gatech.edu jcamp6@gatech.edu'}], '_method': 'VASP DFT with PBE;DDEC'}
data_CuH6C11N3O4
_symmetry_space_group_name_H-M   'P 1'
_cell_length_a   4.71600000
_cell_length_b   10.88809966
_cell_length_c   27.83300000
_cell_angle_alpha   90.00000000
_cell_angle_beta   90.00000000
_cell_angle_gamma   96.10300175
_symmetry_Int_Tables_number   1
_chemical_formula_structural   CuH6C11N3O4
_chemical_formula_sum   'Cu4 H24 C44 N12 O16'
_cell_volume   1421.07658509
_cell_formula_units_Z   4
loop_
 _symmetry_equiv_pos_site_id
 _symmetry_equiv_pos_as_xyz
  1  'x, y, z'
loop_
 _atom_site_label
 _atom_site_fract_x
 _atom_site_fract_y
 _atom_site_fract_z
 _atom_site_charge
 Cu 0.61102 0.4208 0.81124   0.896123
 Cu 0.38898 0.0792 0.31124   0.896123
 Cu 0.38898 0.5792 0.18876   0.896123
 Cu 0.61102 0.9208 0.68876   0.896123
 H 0.963 0.3079 0.8806   0.115857
 H 0.598 0.6309 0.8905   0.088488
 H 0.776 0.6563 0.9709   0.1346
 H 0.148 0.3386 0.9595   0.135392
 H 0.699 0.48 0.702   0.12097
 H 0.519 0.378 0.63   0.090457
 H 0.037 0.1921 0.3806   0.115857
 H 0.402 0.8691 0.3905   0.088488
 H 0.224 0.8437 0.4709   0.1346
 H 0.852 0.1614 0.4595   0.135392
 H 0.301 0.02 0.202   0.12097
 H 0.481 0.122 0.13   0.090457
 H 0.037 0.6921 0.1194   0.115857
 H 0.402 0.3691 0.1095   0.088488
 H 0.224 0.3437 0.0291   0.134599
 H 0.852 0.6614 0.0405   0.135391
 H 0.301 0.52 0.298   0.12097
 H 0.481 0.622 0.37   0.090457
 H 0.963 0.8079 0.6194   0.115857
 H 0.598 0.1309 0.6095   0.088488
 H 0.776 0.1563 0.5291   0.134599
 H 0.148 0.8386 0.5405   0.135391
 H 0.699 0.98 0.798   0.12097
 H 0.519 0.878 0.87   0.090457
 C 0.3186 0.1833 0.7992   0.646152
 C 0.3596 0.237 0.7485   0.037426
 C 0.5846 0.4022 0.7038   0.1057
 C 0.4746 0.3418 0.6632   0.119705
 C 0.2489 0.1807 0.7073   0.131273
 C 0.0732 0.0587 0.7034   0.644955
 C 0.91423 0.37531 0.89903   0.168724
 C 0.70064 0.56644 0.9044   0.162553
 C 0.80929 0.58481 0.95221   -0.198556
 C 0.02683 0.39359 0.9464   -0.194181
 C 0.96465 0.49629 0.97323   0.077436
 C 0.6814 0.3167 0.2992   0.646152
 C 0.6404 0.263 0.2485   0.037426
 C 0.4154 0.0978 0.2038   0.1057
 C 0.5254 0.1582 0.1632   0.119705
 C 0.7511 0.3193 0.2073   0.131273
 C 0.9268 0.4413 0.2034   0.644955
 C 0.08577 0.12469 0.39903   0.168724
 C 0.29936 0.93356 0.4044   0.162553
 C 0.19071 0.91519 0.45221   -0.198556
 C 0.97317 0.10641 0.4464   -0.194181
 C 0.03535 0.00371 0.47323   0.077436
 C 0.6814 0.8167 0.2008   0.646152
 C 0.6404 0.763 0.2515   0.037426
 C 0.4154 0.5978 0.2962   0.105699
 C 0.5254 0.6582 0.3368   0.119705
 C 0.7511 0.8193 0.2927   0.131273
 C 0.9268 0.9413 0.2966   0.644955
 C 0.08577 0.62469 0.10097   0.168724
 C 0.29936 0.43356 0.0956   0.162553
 C 0.19071 0.41519 0.04779   -0.198555
 C 0.97317 0.60641 0.0536   -0.194181
 C 0.03535 0.50371 0.02677   0.077436
 C 0.3186 0.6833 0.7008   0.646152
 C 0.3596 0.737 0.7515   0.037426
 C 0.5846 0.9022 0.7962   0.105699
 C 0.4746 0.8418 0.8368   0.119705
 C 0.2489 0.6807 0.7927   0.131273
 C 0.0732 0.5587 0.7966   0.644955
 C 0.91423 0.87531 0.60097   0.168724
 C 0.70064 0.06644 0.5956   0.162553
 C 0.80929 0.08481 0.54779   -0.198555
 C 0.02683 0.89359 0.5536   -0.194181
 C 0.96465 0.99629 0.52677   0.077436
 N 0.5238 0.3478 0.7466   -0.235167
 N 0.3105 0.236 0.6647   -0.369453
 N 0.74002 0.45917 0.87974   -0.32911
 N 0.4762 0.1522 0.2466   -0.235167
 N 0.6895 0.264 0.1647   -0.369453
 N 0.25998 0.04083 0.37974   -0.32911
 N 0.4762 0.6522 0.2534   -0.235167
 N 0.6895 0.764 0.3353   -0.369453
 N 0.25998 0.54083 0.12026   -0.32911
 N 0.5238 0.8478 0.7534   -0.235167
 N 0.3105 0.736 0.8353   -0.369453
 N 0.74002 0.95917 0.62026   -0.32911
 O 0.4522 0.24842 0.82918   -0.610304
 O 0.15303 0.09051 0.80531   -0.574946
 O 0.81032 0.05838 0.70753   -0.554188
 O 0.19682 0.96728 0.69633   -0.609905
 O 0.5478 0.25158 0.32918   -0.610304
 O 0.84697 0.40949 0.30531   -0.574946
 O 0.18968 0.44162 0.20753   -0.554188
 O 0.80318 0.53272 0.19633   -0.609905
 O 0.5478 0.75158 0.17082   -0.610304
 O 0.84697 0.90949 0.19469   -0.574946
 O 0.18968 0.94162 0.29247   -0.554188
 O 0.80318 0.03272 0.30367   -0.609905
 O 0.4522 0.74842 0.67082   -0.610304
 O 0.15303 0.59051 0.69469   -0.574946
 O 0.81032 0.55838 0.79247   -0.554188
 O 0.19682 0.46728 0.80367   -0.609905
