{'_ref': 'TBD', '_srcid': 'CAKYAQ_clean', 'submitters': [{'name': 'Dalar Nazarian Jeff Camp and David Sholl', 'email': 'dalar@gatech.edu jcamp6@gatech.edu'}], '_method': 'VASP DFT with PBE;DDEC'}
data_Zn2H5C9O8
_symmetry_space_group_name_H-M   'P 1'
_cell_length_a   6.92799969
_cell_length_b   17.56478830
_cell_length_c   17.56480020
_cell_angle_alpha   118.29891308
_cell_angle_beta   97.55489713
_cell_angle_gamma   97.55472047
_symmetry_Int_Tables_number   1
_chemical_formula_structural   Zn2H5C9O8
_chemical_formula_sum   'Zn12 H30 C54 O48'
_cell_volume   1819.08089303
_cell_formula_units_Z   6
loop_
 _symmetry_equiv_pos_site_id
 _symmetry_equiv_pos_as_xyz
  1  'x, y, z'
loop_
 _atom_site_label
 _atom_site_fract_x
 _atom_site_fract_y
 _atom_site_fract_z
 _atom_site_charge
 Zn 0.45397 0.7091 0.71875   1.103478
 Zn 0.09384 0.53554 0.66158   1.105363
 Zn 0.73522 0.28125 0.99035   1.103521
 Zn 0.43226 0.33842 0.87396   1.104843
 Zn 0.74487 0.00965 0.2909   1.103826
 Zn 0.5583 0.12604 0.46446   1.105363
 Zn 0.24487 0.2909 0.00965   1.10382
 Zn 0.0583 0.46446 0.12604   1.105364
 Zn 0.95397 0.71875 0.7091   1.103479
 Zn 0.59384 0.66158 0.53554   1.105354
 Zn 0.23522 0.99035 0.28125   1.103519
 Zn 0.93226 0.87396 0.33842   1.104845
 H 0.1478 0.6433 0.6008   0.43733
 H 0.9975 0.4091 0.6997   0.409209
 H 0.5781 0.9951 0.7896   0.124968
 H 0.324 0.8552 0.5281   0.120175
 H 0.4496 0.1224 0.6569   0.109205
 H 0.547 0.3992 0.0425   0.43697
 H 0.2978 0.3003 0.7094   0.408708
 H 0.7885 0.2104 0.2055   0.124662
 H 0.7959 0.4719 0.3271   0.120397
 H 0.7927 0.3431 0.4655   0.108648
 H 0.5045 0.9575 0.3567   0.437182
 H 0.5884 0.2906 0.5909   0.410477
 H 0.583 0.7945 0.0049   0.125295
 H 0.4688 0.6729 0.1448   0.120365
 H 0.3272 0.5345 0.8776   0.108307
 H 0.0045 0.3567 0.9575   0.437176
 H 0.0884 0.5909 0.2906   0.410477
 H 0.083 0.0049 0.7945   0.125291
 H 0.9688 0.1448 0.6729   0.120361
 H 0.8272 0.8776 0.5345   0.108317
 H 0.6478 0.6008 0.6433   0.437324
 H 0.4975 0.6997 0.4091   0.409204
 H 0.0781 0.7896 0.9951   0.12495
 H 0.824 0.5281 0.8552   0.12017
 H 0.9496 0.6569 0.1224   0.109198
 H 0.047 0.0425 0.3992   0.436969
 H 0.7978 0.7094 0.3003   0.408703
 H 0.2885 0.2055 0.2104   0.124649
 H 0.2959 0.3271 0.4719   0.120393
 H 0.2927 0.4655 0.3431   0.108651
 C 0.5246 0.07156 0.73564   -0.169286
 C 0.45235 0.91243 0.65912   -0.166477
 C 0.37479 0.9883 0.57887   -0.193453
 C 0.52708 0.99351 0.73713   0.039304
 C 0.37503 0.90944 0.57985   0.053402
 C 0.4553 0.82649 0.65791   0.662614
 C 0.44987 0.06971 0.6573   0.049498
 C 0.28455 0.98619 0.49566   0.658284
 C 0.59643 0.1597 0.81949   0.664287
 C 0.78896 0.26436 0.33592   -0.168201
 C 0.79323 0.34088 0.25331   -0.164536
 C 0.79592 0.42113 0.40943   -0.19328
 C 0.78995 0.26287 0.25638   0.039042
 C 0.79518 0.42015 0.32959   0.052258
 C 0.79739 0.34209 0.16858   0.660067
 C 0.79257 0.3427 0.41241   0.049569
 C 0.78889 0.50434 0.49053   0.658037
 C 0.77694 0.18051 0.34021   0.663409
 C 0.45304 0.66408 0.92844   -0.167778
 C 0.53992 0.74669 0.08757   -0.16449
 C 0.38649 0.59057 0.0117   -0.193477
 C 0.53357 0.74362 0.00649   0.03815
 C 0.46559 0.67041 0.09056   0.051966
 C 0.62881 0.83142 0.17351   0.662289
 C 0.38016 0.58759 0.93029   0.049842
 C 0.29836 0.50947 0.01381   0.658144
 C 0.43673 0.65979 0.8403   0.664773
 C 0.95304 0.92844 0.66408   -0.167774
 C 0.03992 0.08757 0.74669   -0.16449
 C 0.88649 0.0117 0.59057   -0.193481
 C 0.03357 0.00649 0.74362   0.038152
 C 0.96559 0.09056 0.67041   0.051973
 C 0.12881 0.17351 0.83142   0.662285
 C 0.88016 0.93029 0.58759   0.049839
 C 0.79836 0.01381 0.50947   0.658159
 C 0.93673 0.8403 0.65979   0.66477
 C 0.0246 0.73564 0.07156   -0.169291
 C 0.95235 0.65912 0.91243   -0.166488
 C 0.87479 0.57887 0.9883   -0.193447
 C 0.02708 0.73713 0.99351   0.039317
 C 0.87503 0.57985 0.90944   0.053413
 C 0.9553 0.65791 0.82649   0.662616
 C 0.94987 0.6573 0.06971   0.049505
 C 0.78455 0.49566 0.98619   0.658285
 C 0.09643 0.81949 0.1597   0.664297
 C 0.28896 0.33592 0.26436   -0.168201
 C 0.29323 0.25331 0.34088   -0.164528
 C 0.29592 0.40943 0.42113   -0.193277
 C 0.28995 0.25638 0.26287   0.039026
 C 0.29518 0.32959 0.42015   0.052266
 C 0.29739 0.16858 0.34209   0.660073
 C 0.29257 0.41241 0.3427   0.04957
 C 0.28889 0.49053 0.50434   0.658066
 C 0.27694 0.34021 0.18051   0.663409
 O 0.1649 0.65783 0.66277   -0.997839
 O 0.49953 0.82972 0.73187   -0.55411
 O 0.41706 0.75637 0.58391   -0.594571
 O 0.66638 0.15971 0.88983   -0.55697
 O 0.58555 0.22888 0.81667   -0.586759
 O 0.02427 0.41307 0.65724   -0.598148
 O 0.29898 0.05659 0.49285   -0.57226
 O 0.19204 0.90882 0.4308   -0.547216
 O 0.50213 0.33723 0.99506   -0.997202
 O 0.76766 0.26813 0.09785   -0.553307
 O 0.83315 0.41609 0.17246   -0.593745
 O 0.77655 0.11017 0.26988   -0.556374
 O 0.76888 0.18333 0.41221   -0.586786
 O 0.36703 0.34276 0.75583   -0.597644
 O 0.80613 0.50715 0.56374   -0.5726
 O 0.76124 0.5692 0.47802   -0.546698
 O 0.50707 0.00494 0.34217   -0.99768
 O 0.66981 0.90215 0.17028   -0.554374
 O 0.66069 0.82754 0.24363   -0.59471
 O 0.50667 0.73012 0.84029   -0.557103
 O 0.35667 0.58779 0.77112   -0.587318
 O 0.6112 0.24417 0.58693   -0.599518
 O 0.24239 0.43626 0.94341   -0.572232
 O 0.28322 0.52198 0.09118   -0.547067
 O 0.00707 0.34217 0.00494   -0.997676
 O 0.16981 0.17028 0.90215   -0.554371
 O 0.16069 0.24363 0.82754   -0.594708
 O 0.00667 0.84029 0.73012   -0.557107
 O 0.85667 0.77112 0.58779   -0.587318
 O 0.1112 0.58693 0.24417   -0.599518
 O 0.74239 0.94341 0.43626   -0.572244
 O 0.78322 0.09118 0.52198   -0.547072
 O 0.6649 0.66277 0.65783   -0.99782
 O 0.99953 0.73187 0.82972   -0.554109
 O 0.91706 0.58391 0.75637   -0.594578
 O 0.16638 0.88983 0.15971   -0.556973
 O 0.08555 0.81667 0.22888   -0.586767
 O 0.52427 0.65724 0.41307   -0.598146
 O 0.79898 0.49285 0.05659   -0.572257
 O 0.69204 0.4308 0.90882   -0.547222
 O 0.00213 0.99506 0.33723   -0.997201
 O 0.26766 0.09785 0.26813   -0.553308
 O 0.33315 0.17246 0.41609   -0.593749
 O 0.27655 0.26988 0.11017   -0.556375
 O 0.26888 0.41221 0.18333   -0.586784
 O 0.86703 0.75583 0.34276   -0.597644
 O 0.30613 0.56374 0.50715   -0.572626
 O 0.26124 0.47802 0.5692   -0.546707
