{'_ref': 'TBD', '_srcid': 'CAKYAQ_clean', 'submitters': [{'name': 'Dalar Nazarian Jeff Camp and David Sholl', 'email': 'dalar@gatech.edu jcamp6@gatech.edu'}], '_method': 'VASP DFT with PBE;DDEC'}
data_DyH2C7(NO3)2
_symmetry_space_group_name_H-M   'P 1'
_cell_length_a   7.95500000
_cell_length_b   9.64999962
_cell_length_c   15.84500000
_cell_angle_alpha   90.00000000
_cell_angle_beta   90.00000000
_cell_angle_gamma   96.55499849
_symmetry_Int_Tables_number   1
_chemical_formula_structural   DyH2C7(NO3)2
_chemical_formula_sum   'Dy4 H8 C28 N8 O24'
_cell_volume   1208.40163533
_cell_formula_units_Z   4
loop_
 _symmetry_equiv_pos_site_id
 _symmetry_equiv_pos_as_xyz
  1  'x, y, z'
loop_
 _atom_site_label
 _atom_site_fract_x
 _atom_site_fract_y
 _atom_site_fract_z
 _atom_site_charge
 Dy 0.92438 0.1331 0.3271   2.160367
 Dy 0.57562 0.3669 0.8271   2.160365
 Dy 0.07562 0.8669 0.6729   2.160365
 Dy 0.42438 0.6331 0.1729   2.160363
 H 0.9686 0.68496 0.38791   0.169257
 H 0.61737 0.34707 0.25147   0.039042
 H 0.5314 0.81504 0.88791   0.169257
 H 0.88263 0.15293 0.75147   0.039042
 H 0.0314 0.31504 0.61209   0.169258
 H 0.38263 0.65293 0.74853   0.039042
 H 0.4686 0.18496 0.11209   0.169258
 H 0.11737 0.84707 0.24853   0.039042
 C 0.9161 0.4733 0.3681   0.28104
 C 0.7461 0.7952 0.2834   0.717818
 C 0.8977 0.6142 0.3589   -0.164761
 C 0.7718 0.647 0.3054   0.196619
 C 0.0584 0.4231 0.4188   0.601791
 C 0.6926 0.4168 0.279   0.496639
 C 0.9102 0.0096 0.5151   0.600105
 C 0.5839 0.0267 0.8681   0.28104
 C 0.7539 0.7048 0.7834   0.717818
 C 0.6023 0.8858 0.8589   -0.164761
 C 0.7282 0.853 0.8054   0.196619
 C 0.4416 0.0769 0.9188   0.601791
 C 0.8074 0.0832 0.779   0.496639
 C 0.5898 0.4904 0.0151   0.600105
 C 0.0839 0.5267 0.6319   0.28104
 C 0.2539 0.2048 0.7166   0.717818
 C 0.1023 0.3858 0.6411   -0.164761
 C 0.2282 0.353 0.6946   0.196619
 C 0.9416 0.5769 0.5812   0.601791
 C 0.3074 0.5832 0.721   0.496639
 C 0.0898 0.9904 0.4849   0.600103
 C 0.4161 0.9733 0.1319   0.28104
 C 0.2461 0.2952 0.2166   0.717818
 C 0.3977 0.1142 0.1411   -0.164761
 C 0.2718 0.147 0.1946   0.196619
 C 0.5584 0.9231 0.0812   0.601791
 C 0.1926 0.9168 0.221   0.496639
 C 0.4102 0.5096 0.9849   0.600103
 N 0.8138 0.375 0.3278   -0.588315
 N 0.6665 0.5483 0.2659   -0.535107
 N 0.6862 0.125 0.8278   -0.588315
 N 0.8335 0.9517 0.7659   -0.535107
 N 0.1862 0.625 0.6722   -0.588315
 N 0.3335 0.4517 0.7341   -0.535107
 N 0.3138 0.875 0.1722   -0.588314
 N 0.1665 0.0483 0.2341   -0.535107
 O 0.0505 0.2918 0.4294   -0.684925
 O 0.8527 0.8904 0.3105   -0.731295
 O 0.8126 0.0567 0.4631   -0.658021
 O 0.6207 0.8124 0.2383   -0.705834
 O 0.8739 0.9771 0.5904   -0.632114
 O 0.1734 0.5108 0.4435   -0.562303
 O 0.4495 0.2082 0.9294   -0.684925
 O 0.6473 0.6096 0.8105   -0.731295
 O 0.6874 0.4433 0.9631   -0.658021
 O 0.8793 0.6876 0.7383   -0.705834
 O 0.6261 0.5229 0.0904   -0.632114
 O 0.3266 0.9892 0.9435   -0.562303
 O 0.9495 0.7082 0.5706   -0.684925
 O 0.1473 0.1096 0.6895   -0.731295
 O 0.1874 0.9433 0.5369   -0.658021
 O 0.3793 0.1876 0.7617   -0.705834
 O 0.1261 0.0229 0.4096   -0.632114
 O 0.8266 0.4892 0.5565   -0.562304
 O 0.5505 0.7918 0.0706   -0.684925
 O 0.3527 0.3904 0.1895   -0.731295
 O 0.3126 0.5567 0.0369   -0.658021
 O 0.1207 0.3124 0.2617   -0.705834
 O 0.3739 0.4771 0.9096   -0.632114
 O 0.6734 0.0108 0.0565   -0.562304
