{'_ref': 'TBD', '_srcid': 'CAKYAQ_clean', 'submitters': [{'name': 'Dalar Nazarian Jeff Camp and David Sholl', 'email': 'dalar@gatech.edu jcamp6@gatech.edu'}], '_method': 'VASP DFT with PBE;DDEC'}
data_LaP4C10(NO6)2
_symmetry_space_group_name_H-M   'P 1'
_cell_length_a   5.98870000
_cell_length_b   12.24270008
_cell_length_c   17.74830000
_cell_angle_alpha   90.00000000
_cell_angle_beta   90.00000000
_cell_angle_gamma   103.62400225
_symmetry_Int_Tables_number   1
_chemical_formula_structural   LaP4C10(NO6)2
_chemical_formula_sum   'La2 P8 C20 N4 O24'
_cell_volume   1264.65281124
_cell_formula_units_Z   2
loop_
 _symmetry_equiv_pos_site_id
 _symmetry_equiv_pos_as_xyz
  1  'x, y, z'
loop_
 _atom_site_label
 _atom_site_fract_x
 _atom_site_fract_y
 _atom_site_fract_z
 _atom_site_charge
 La 0.3046 0.692 0.75   2.286744
 La 0.6954 0.308 0.25   2.286744
 P 0.3517 0.4447 0.8686   1.080658
 P 0.832 0.761 0.8741   1.377731
 P 0.6987 0.5017 0.1146   1.0719
 P 0.1403 0.2013 0.1158   1.25993
 P 0.6483 0.5553 0.3686   1.080658
 P 0.168 0.239 0.3741   1.377731
 P 0.3013 0.4983 0.6146   1.071901
 P 0.8597 0.7987 0.6158   1.25993
 C 0.2601 0.2911 0.8835   -0.043801
 C 0.8806 0.6876 0.9584   0.020131
 C 0.9094 0.1424 0.8951   0.069235
 C 0.6686 0.1156 0.924   -0.021931
 C 0.5708 0.9918 0.937   0.094941
 C 0.7932 0.6512 0.0964   -0.023348
 C 0.137 0.217 0.0147   -0.004287
 C 0.175 0.779 0.0546   -0.01333
 C 0.2072 0.8752 0.9996   0.023763
 C 0.424 0.964 0.0061   0.049577
 C 0.7399 0.7089 0.3835   -0.043805
 C 0.1194 0.3124 0.4584   0.020131
 C 0.0906 0.8576 0.3951   0.069233
 C 0.3314 0.8844 0.424   -0.021931
 C 0.4292 0.0082 0.437   0.094941
 C 0.2068 0.3488 0.5964   -0.023351
 C 0.863 0.783 0.5147   -0.004287
 C 0.825 0.221 0.5546   -0.013333
 C 0.7928 0.1248 0.4996   0.023763
 C 0.576 0.036 0.5061   0.049577
 N 0.0675 0.2365 0.9354   0.112731
 N 0.9761 0.6821 0.0367   0.111994
 N 0.9325 0.7635 0.4354   0.112732
 N 0.0239 0.3179 0.5367   0.111995
 O 0.6032 0.4682 0.842   -0.491799
 O 0.1959 0.4719 0.8062   -0.567226
 O 0.3259 0.5009 0.9439   -0.475383
 O 0.9144 0.8884 0.8883   -0.612603
 O 0.9738 0.7258 0.8095   -0.856667
 O 0.574 0.727 0.8552   -0.877356
 O 0.4392 0.4702 0.1312   -0.486704
 O 0.8349 0.4789 0.1844   -0.617892
 O 0.7539 0.4389 0.0446   -0.459717
 O 0.986 0.087 0.1368   -0.573619
 O 0.0407 0.2957 0.1502   -0.644839
 O 0.3893 0.2143 0.1437   -0.788829
 O 0.3968 0.5318 0.342   -0.491799
 O 0.8041 0.5281 0.3062   -0.567226
 O 0.6741 0.4991 0.4439   -0.475383
 O 0.0856 0.1116 0.3883   -0.612603
 O 0.0262 0.2742 0.3095   -0.856667
 O 0.426 0.273 0.3552   -0.877356
 O 0.5608 0.5298 0.6312   -0.486704
 O 0.1651 0.5211 0.6844   -0.617892
 O 0.2461 0.5611 0.5446   -0.459717
 O 0.014 0.913 0.6368   -0.573619
 O 0.9593 0.7043 0.6502   -0.644839
 O 0.6107 0.7857 0.6437   -0.788829
