{'_ref': 'TBD', '_srcid': 'CAKYAQ_clean', 'submitters': [{'name': 'Dalar Nazarian Jeff Camp and David Sholl', 'email': 'dalar@gatech.edu jcamp6@gatech.edu'}], '_method': 'VASP DFT with PBE;DDEC'}
data_LaP4C10(NO6)2
_symmetry_space_group_name_H-M   'P 1'
_cell_length_a   5.84900000
_cell_length_b   13.34440029
_cell_length_c   18.78200000
_cell_angle_alpha   90.00000000
_cell_angle_beta   90.00000000
_cell_angle_gamma   97.71099957
_symmetry_Int_Tables_number   1
_chemical_formula_structural   LaP4C10(NO6)2
_chemical_formula_sum   'La2 P8 C20 N4 O24'
_cell_volume   1452.7053281
_cell_formula_units_Z   2
loop_
 _symmetry_equiv_pos_site_id
 _symmetry_equiv_pos_as_xyz
  1  'x, y, z'
loop_
 _atom_site_label
 _atom_site_fract_x
 _atom_site_fract_y
 _atom_site_fract_z
 _atom_site_charge
 La 0.6649 0.3711 0.75   2.310383
 La 0.3351 0.6289 0.25   2.310383
 P 0.856 0.5601 0.9147   1.137415
 P 0.137 0.2669 0.8664   1.353277
 P 0.22 0.4576 0.0955   1.188495
 P 0.8937 0.7197 0.1349   1.310172
 P 0.144 0.4399 0.4147   1.137414
 P 0.863 0.7331 0.3664   1.353277
 P 0.78 0.5424 0.5955   1.188494
 P 0.1063 0.2803 0.6349   1.310172
 C 0.739 0.6752 0.9376   0.018246
 C 0.155 0.306 0.9583   -0.067962
 C 0.682 0.8357 0.9945   0.019876
 C 0.442 0.845 0.0187   -0.003014
 C 0.396 0.953 0.0215   0.05782
 C 0.336 0.3403 0.0793   -0.010333
 C 0.982 0.734 0.0429   -0.122263
 C 0.351 0.1704 0.0183   0.065171
 C 0.585 0.1374 0.0192   0.001353
 C 0.596 0.0303 0.0413   0.054643
 C 0.261 0.3248 0.4376   0.018241
 C 0.845 0.694 0.4583   -0.067962
 C 0.318 0.1643 0.4945   0.019875
 C 0.558 0.155 0.5187   -0.003014
 C 0.604 0.047 0.5215   0.057821
 C 0.664 0.6597 0.5793   -0.010337
 C 0.018 0.266 0.5429   -0.122263
 C 0.649 0.8296 0.5183   0.065171
 C 0.415 0.8626 0.5192   0.001353
 C 0.404 0.9697 0.5413   0.054641
 N 0.751 0.7326 0.0073   0.136166
 N 0.337 0.2817 0.0103   0.106353
 N 0.249 0.2674 0.5073   0.136166
 N 0.663 0.7183 0.5103   0.106354
 O 0.119 0.577 0.9257   -0.447361
 O 0.794 0.537 0.8364   -0.702258
 O 0.742 0.4751 0.9634   -0.458066
 O 0.193 0.1574 0.862   -0.534827
 O 0.316 0.339 0.8242   -0.840664
 O 0.891 0.271 0.8387   -0.809261
 O 0.955 0.437 0.0909   -0.480641
 O 0.3 0.4967 0.1696   -0.753008
 O 0.316 0.5338 0.0376   -0.405593
 O 0.92 0.8269 0.1674   -0.547588
 O 0.642 0.6692 0.1372   -0.741466
 O 0.052 0.6526 0.1716   -0.83506
 O 0.881 0.423 0.4257   -0.447361
 O 0.206 0.463 0.3364   -0.702258
 O 0.258 0.5249 0.4634   -0.458066
 O 0.807 0.8426 0.362   -0.534827
 O 0.684 0.661 0.3242   -0.840664
 O 0.109 0.729 0.3387   -0.809261
 O 0.045 0.563 0.5909   -0.480641
 O 0.7 0.5033 0.6696   -0.753008
 O 0.684 0.4662 0.5376   -0.405593
 O 0.08 0.1731 0.6674   -0.547588
 O 0.358 0.3308 0.6372   -0.741466
 O 0.948 0.3474 0.6716   -0.83506
