{'_ref': 'TBD', '_srcid': 'CAKYAQ_clean', 'submitters': [{'name': 'Dalar Nazarian Jeff Camp and David Sholl', 'email': 'dalar@gatech.edu jcamp6@gatech.edu'}], '_method': 'VASP DFT with PBE;DDEC'}
data_LaP4C10(NO6)2
_symmetry_space_group_name_H-M   'P 1'
_cell_length_a   5.82000000
_cell_length_b   12.50349984
_cell_length_c   18.18740000
_cell_angle_alpha   90.00000000
_cell_angle_beta   90.00000000
_cell_angle_gamma   101.92299930
_symmetry_Int_Tables_number   1
_chemical_formula_structural   LaP4C10(NO6)2
_chemical_formula_sum   'La2 P8 C20 N4 O24'
_cell_volume   1294.9507155
_cell_formula_units_Z   2
loop_
 _symmetry_equiv_pos_site_id
 _symmetry_equiv_pos_as_xyz
  1  'x, y, z'
loop_
 _atom_site_label
 _atom_site_fract_x
 _atom_site_fract_y
 _atom_site_fract_z
 _atom_site_charge
 La 0.6237 0.3305 0.75   2.346268
 La 0.3763 0.6695 0.25   2.346268
 P 0.82 0.5348 0.9111   1.190924
 P 0.086 0.2521 0.8874   1.379951
 P 0.203 0.4468 0.1014   1.161474
 P 0.927 0.7932 0.1196   1.359844
 P 0.18 0.4652 0.4111   1.190924
 P 0.914 0.7479 0.3874   1.379951
 P 0.797 0.5532 0.6014   1.161474
 P 0.073 0.2068 0.6196   1.359844
 C 0.681 0.6516 0.9268   0.036882
 C 0.167 0.3091 0.9771   0.025532
 C 0.726 0.8471 0.9122   0.043228
 C 0.49 0.8763 0.9008   0.022177
 C 0.476 0.9834 0.9348   0.115692
 C 0.279 0.3115 0.1057   -0.087202
 C 0.913 0.7688 0.0217   -0.06622
 C 0.49 0.2093 0.0137   0.057525
 C 0.357 0.097 0.0373   0.05122
 C 0.459 0.000999999999998 0.0151   0.044129
 C 0.319 0.3484 0.4268   0.036882
 C 0.833 0.6909 0.4771   0.025532
 C 0.274 0.1529 0.4122   0.043228
 C 0.51 0.1237 0.4008   0.022177
 C 0.524 0.0166 0.4348   0.115692
 C 0.721 0.6885 0.6057   -0.087201
 C 0.087 0.2312 0.5217   -0.06622
 C 0.51 0.7907 0.5137   0.057525
 C 0.643 0.903 0.5373   0.05122
 C 0.541 0.999 0.5151   0.044129
 N 0.713 0.7571 0.968   0.107214
 N 0.364 0.3003 0.0285   0.124523
 N 0.287 0.2429 0.468   0.107214
 N 0.636 0.6997 0.5285   0.124523
 O 0.086 0.5701 0.9108   -0.463509
 O 0.741 0.5004 0.8318   -0.733884
 O 0.722 0.4507 0.9699   -0.502244
 O 0.069 0.127 0.8934   -0.630467
 O 0.29 0.3049 0.837   -0.851701
 O 0.849 0.2815 0.8659   -0.857997
 O 0.955 0.4326 0.1341   -0.524713
 O 0.398 0.5169 0.1514   -0.662546
 O 0.233 0.4922 0.0241   -0.457373
 O 0.959 0.918 0.132   -0.567224
 O 0.694 0.732 0.1532   -0.799275
 O 0.14 0.7516 0.1513   -0.862227
 O 0.914 0.4299 0.4108   -0.463509
 O 0.259 0.4996 0.3318   -0.733884
 O 0.278 0.5493 0.4699   -0.502244
 O 0.931 0.873 0.3934   -0.630467
 O 0.71 0.6951 0.337   -0.851701
 O 0.151 0.7185 0.3659   -0.857997
 O 0.045 0.5674 0.6341   -0.524713
 O 0.602 0.4831 0.6514   -0.662546
 O 0.767 0.5078 0.5241   -0.457373
 O 0.041 0.082 0.632   -0.567224
 O 0.306 0.268 0.6532   -0.799275
 O 0.86 0.2484 0.6513   -0.862227
