{'_ref': 'TBD', '_srcid': 'CAKYAQ_clean', 'submitters': [{'name': 'Dalar Nazarian Jeff Camp and David Sholl', 'email': 'dalar@gatech.edu jcamp6@gatech.edu'}], '_method': 'VASP DFT with PBE;DDEC'}
data_Zn2H24C39NO7
_symmetry_space_group_name_H-M   'P 1'
_cell_length_a   11.98870000
_cell_length_b   17.98070000
_cell_length_c   18.63650000
_cell_angle_alpha   90.00000000
_cell_angle_beta   90.00000000
_cell_angle_gamma   90.00000000
_symmetry_Int_Tables_number   1
_chemical_formula_structural   Zn2H24C39NO7
_chemical_formula_sum   'Zn8 H96 C156 N4 O28'
_cell_volume   4017.38118693
_cell_formula_units_Z   4
loop_
 _symmetry_equiv_pos_site_id
 _symmetry_equiv_pos_as_xyz
  1  'x, y, z'
loop_
 _atom_site_label
 _atom_site_fract_x
 _atom_site_fract_y
 _atom_site_fract_z
 _atom_site_charge
 Zn 0.61039 0.80242 0.99103   0.988302
 Zn 0.88961 0.80242 0.00897   0.988302
 Zn 0.38961 0.69758 0.99103   0.988302
 Zn 0.11039 0.69758 0.00897   0.988302
 Zn 0.38961 0.19758 0.00897   0.988302
 Zn 0.11039 0.19758 0.99103   0.988302
 Zn 0.61039 0.30242 0.00897   0.988302
 Zn 0.88961 0.30242 0.99103   0.988302
 H 0.126 0.2567 0.2073   0.119927
 H 0.4495 0.9897 0.0774   0.104554
 H 0.1166 0.1704 0.7646   0.085666
 H 0.3509 0.0797 0.1384   0.094855
 H 0.1139 0.1693 0.6415   0.103422
 H 0.1453 0.1962 0.4099   0.110743
 H 0.1035 0.9349 0.1736   0.102234
 H 0.2042 0.8448 0.1153   0.089156
 H 0.2097 0.163 0.1431   0.104946
 H 0.1419 0.1945 0.5324   0.095358
 H 0.9914 0.1064 0.3391   0.120077
 H 0.0745 0.0115 0.2738   0.103704
 H 0.374 0.2567 0.7927   0.119927
 H 0.0505 0.9897 0.9226   0.104554
 H 0.3834 0.1704 0.2354   0.085666
 H 0.1491 0.0797 0.8616   0.094855
 H 0.3861 0.1693 0.3585   0.103422
 H 0.3547 0.1962 0.5901   0.110742
 H 0.3965 0.9349 0.8264   0.102234
 H 0.2958 0.8448 0.8847   0.089156
 H 0.2903 0.163 0.8569   0.104946
 H 0.3581 0.1945 0.4676   0.095357
 H 0.5086 0.1064 0.6609   0.120077
 H 0.4255 0.0115 0.7262   0.103704
 H 0.874 0.2433 0.2073   0.119927
 H 0.5505 0.5103 0.0774   0.104554
 H 0.8834 0.3296 0.7646   0.085666
 H 0.6491 0.4203 0.1384   0.094855
 H 0.8861 0.3307 0.6415   0.103422
 H 0.8547 0.3038 0.4099   0.110743
 H 0.8965 0.5651 0.1736   0.102234
 H 0.7958 0.6552 0.1153   0.089156
 H 0.7903 0.337 0.1431   0.104946
 H 0.8581 0.3055 0.5324   0.095358
 H 0.0086 0.3936 0.3391   0.120077
 H 0.9255 0.4885 0.2738   0.103704
 H 0.626 0.2433 0.7927   0.119927
 H 0.9495 0.5103 0.9226   0.104554
 H 0.6166 0.3296 0.2354   0.085666
 H 0.8509 0.4203 0.8616   0.094855
 H 0.6139 0.3307 0.3585   0.103422
 H 0.6453 0.3038 0.5901   0.110742
 H 0.6035 0.5651 0.8264   0.102234
 H 0.7042 0.6552 0.8847   0.089156
 H 0.7097 0.337 0.8569   0.104946
 H 0.6419 0.3055 0.4676   0.095357
 H 0.4914 0.3936 0.6609   0.120077
 H 0.5745 0.4885 0.7262   0.103704
 H 0.874 0.7433 0.7927   0.119927
 H 0.5505 0.0103 0.9226   0.104554
 H 0.8834 0.8296 0.2354   0.085666
 H 0.6491 0.9203 0.8616   0.094855
 H 0.8861 0.8307 0.3585   0.103422
 H 0.8547 0.8038 0.5901   0.110743
 H 0.8965 0.0651 0.8264   0.102234
 H 0.7958 0.1552 0.8847   0.089156
 H 0.7903 0.837 0.8569   0.104946
 H 0.8581 0.8055 0.4676   0.095358
 H 0.0086 0.8936 0.6609   0.120077
 H 0.9255 0.9885 0.7262   0.103704
 H 0.626 0.7433 0.2073   0.119927
 H 0.9495 0.0103 0.0774   0.104554
 H 0.6166 0.8296 0.7646   0.085666
 H 0.8509 0.9203 0.1384   0.094855
 H 0.6139 0.8307 0.6415   0.103422
 H 0.6453 0.8038 0.4099   0.110742
 H 0.6035 0.0651 0.1736   0.102234
 H 0.7042 0.1552 0.1153   0.089156
 H 0.7097 0.837 0.1431   0.104946
 H 0.6419 0.8055 0.5324   0.095357
 H 0.4914 0.8936 0.3391   0.120077
 H 0.5745 0.9885 0.2738   0.103704
 H 0.126 0.7567 0.7927   0.119927
 H 0.4495 0.4897 0.9226   0.104554
 H 0.1166 0.6704 0.2354   0.085666
 H 0.3509 0.5797 0.8616   0.094855
 H 0.1139 0.6693 0.3585   0.103422
 H 0.1453 0.6962 0.5901   0.110743
 H 0.1035 0.4349 0.8264   0.102234
 H 0.2042 0.3448 0.8847   0.089156
 H 0.2097 0.663 0.8569   0.104946
 H 0.1419 0.6945 0.4676   0.095358
 H 0.9914 0.6064 0.6609   0.120077
 H 0.0745 0.5115 0.7262   0.103704
 H 0.374 0.7567 0.2073   0.119927
 H 0.0505 0.4897 0.0774   0.104554
 H 0.3834 0.6704 0.7646   0.085666
 H 0.1491 0.5797 0.1384   0.094855
 H 0.3861 0.6693 0.6415   0.103422
 H 0.3547 0.6962 0.4099   0.110742
 H 0.3965 0.4349 0.1736   0.102234
 H 0.2958 0.3448 0.1153   0.089156
 H 0.2903 0.663 0.1431   0.104946
 H 0.3581 0.6945 0.5324   0.095357
 H 0.5086 0.6064 0.3391   0.120077
 H 0.4255 0.5115 0.2738   0.103704
 C 0.4015 0.8493 0.0524   0.69161
 C 0.3373 0.9077 0.09   -0.158623
 C 0.1163 0.2075 0.2214   -0.156027
 C 0.0519 0.1915 0.2804   0.1404
 C 0.3803 0.9783 0.0971   -0.005325
 C 0.0691 0.2025 0.7401   -0.017621
 C 0.3205 0.0324 0.1336   -0.12294
 C 0.2164 0.0177 0.1633   0.059265
 C 0.155 0.0767 0.2022   0.027758
 C 0.0679 0.2023 0.6659   -0.143839
 C 0.0858 0.2179 0.4341   -0.177746
 C 0.1734 0.9463 0.155   -0.141099
 C 0.2337 0.8925 0.1196   -0.018726
 C 0.1667 0.151 0.183   -0.057442
 C 0.0838 0.2176 0.5079   -0.080251
 C 0.036 0.1179 0.2998   -0.172769
 C 0.0866 0.0608 0.2607   -0.098019
 C 0.0985 0.8493 0.9476   0.69161
 C 0.1627 0.9077 0.91   -0.158623
 C 0.3837 0.2075 0.7786   -0.156027
 C 0.4481 0.1915 0.7196   0.1404
 C 0.1197 0.9783 0.9029   -0.005325
 C 0.4309 0.2025 0.2599   -0.017621
 C 0.1795 0.0324 0.8664   -0.12294
 C 0.2836 0.0177 0.8367   0.059265
 C 0.345 0.0767 0.7978   0.027758
 C 0.4321 0.2023 0.3341   -0.143839
 C 0.4142 0.2179 0.5659   -0.177746
 C 0.3266 0.9463 0.845   -0.141099
 C 0.2663 0.8925 0.8804   -0.018726
 C 0.3333 0.151 0.817   -0.057442
 C 0.4162 0.2176 0.4921   -0.080252
 C 0.464 0.1179 0.7002   -0.172769
 C 0.4134 0.0608 0.7393   -0.098019
 C 0.5985 0.6507 0.0524   0.69161
 C 0.6627 0.5923 0.09   -0.158623
 C 0.8837 0.2925 0.2214   -0.156027
 C 0.9481 0.3085 0.2804   0.1404
 C 0.6197 0.5217 0.0971   -0.005325
 C 0.9309 0.2975 0.7401   -0.017621
 C 0.6795 0.4676 0.1336   -0.12294
 C 0.7836 0.4823 0.1633   0.059265
 C 0.845 0.4233 0.2022   0.027758
 C 0.9321 0.2977 0.6659   -0.143839
 C 0.9142 0.2821 0.4341   -0.177746
 C 0.8266 0.5537 0.155   -0.141099
 C 0.7663 0.6075 0.1196   -0.018726
 C 0.8333 0.349 0.183   -0.057442
 C 0.9162 0.2824 0.5079   -0.080252
 C 0.964 0.3821 0.2998   -0.172769
 C 0.9134 0.4392 0.2607   -0.098019
 C 0.9015 0.6507 0.9476   0.69161
 C 0.8373 0.5923 0.91   -0.158623
 C 0.6163 0.2925 0.7786   -0.156027
 C 0.5519 0.3085 0.7196   0.1404
 C 0.8803 0.5217 0.9029   -0.005325
 C 0.5691 0.2975 0.2599   -0.017621
 C 0.8205 0.4676 0.8664   -0.12294
 C 0.7164 0.4823 0.8367   0.059265
 C 0.655 0.4233 0.7978   0.027758
 C 0.5679 0.2977 0.3341   -0.143839
 C 0.5858 0.2821 0.5659   -0.177746
 C 0.6734 0.5537 0.845   -0.141099
 C 0.7337 0.6075 0.8804   -0.018726
 C 0.6667 0.349 0.817   -0.057442
 C 0.5838 0.2824 0.4921   -0.080252
 C 0.536 0.3821 0.7002   -0.172769
 C 0.5866 0.4392 0.7393   -0.098019
 C 0.5985 0.1507 0.9476   0.69161
 C 0.6627 0.0923 0.91   -0.158623
 C 0.8837 0.7925 0.7786   -0.156027
 C 0.9481 0.8085 0.7196   0.1404
 C 0.6197 0.0217 0.9029   -0.005325
 C 0.9309 0.7975 0.2599   -0.017621
 C 0.6795 0.9676 0.8664   -0.12294
 C 0.7836 0.9823 0.8367   0.059265
 C 0.845 0.9233 0.7978   0.027758
 C 0.9321 0.7977 0.3341   -0.143839
 C 0.9142 0.7821 0.5659   -0.177746
 C 0.8266 0.0537 0.845   -0.141099
 C 0.7663 0.1075 0.8804   -0.018726
 C 0.8333 0.849 0.817   -0.057442
 C 0.9162 0.7824 0.4921   -0.080251
 C 0.964 0.8821 0.7002   -0.172768
 C 0.9134 0.9392 0.7393   -0.098019
 C 0.9015 0.1507 0.0524   0.69161
 C 0.8373 0.0923 0.09   -0.158623
 C 0.6163 0.7925 0.2214   -0.156027
 C 0.5519 0.8085 0.2804   0.1404
 C 0.8803 0.0217 0.0971   -0.005325
 C 0.5691 0.7975 0.7401   -0.017621
 C 0.8205 0.9676 0.1336   -0.12294
 C 0.7164 0.9823 0.1633   0.059265
 C 0.655 0.9233 0.2022   0.027758
 C 0.5679 0.7977 0.6659   -0.143839
 C 0.5858 0.7821 0.4341   -0.177746
 C 0.6734 0.0537 0.155   -0.141099
 C 0.7337 0.1075 0.1196   -0.018726
 C 0.6667 0.849 0.183   -0.057442
 C 0.5838 0.7824 0.5079   -0.080252
 C 0.536 0.8821 0.2998   -0.172768
 C 0.5866 0.9392 0.2607   -0.098019
 C 0.4015 0.3493 0.9476   0.69161
 C 0.3373 0.4077 0.91   -0.158623
 C 0.1163 0.7075 0.7786   -0.156028
 C 0.0519 0.6915 0.7196   0.1404
 C 0.3803 0.4783 0.9029   -0.005325
 C 0.0691 0.7025 0.2599   -0.017621
 C 0.3205 0.5324 0.8664   -0.12294
 C 0.2164 0.5177 0.8367   0.059265
 C 0.155 0.5767 0.7978   0.027758
 C 0.0679 0.7023 0.3341   -0.143839
 C 0.0858 0.7179 0.5659   -0.177746
 C 0.1734 0.4463 0.845   -0.141099
 C 0.2337 0.3925 0.8804   -0.018726
 C 0.1667 0.651 0.817   -0.057442
 C 0.0838 0.7176 0.4921   -0.080252
 C 0.036 0.6179 0.7002   -0.172768
 C 0.0866 0.5608 0.7393   -0.098019
 C 0.0985 0.3493 0.0524   0.69161
 C 0.1627 0.4077 0.09   -0.158623
 C 0.3837 0.7075 0.2214   -0.156027
 C 0.4481 0.6915 0.2804   0.1404
 C 0.1197 0.4783 0.0971   -0.005325
 C 0.4309 0.7025 0.7401   -0.017621
 C 0.1795 0.5324 0.1336   -0.12294
 C 0.2836 0.5177 0.1633   0.059265
 C 0.345 0.5767 0.2022   0.027758
 C 0.4321 0.7023 0.6659   -0.143839
 C 0.4142 0.7179 0.4341   -0.177746
 C 0.3266 0.4463 0.155   -0.141099
 C 0.2663 0.3925 0.1196   -0.018726
 C 0.3333 0.651 0.183   -0.057442
 C 0.4162 0.7176 0.5079   -0.080252
 C 0.464 0.6179 0.2998   -0.172768
 C 0.4134 0.5608 0.2607   -0.098019
 C 0.0 0.25 0.3958   0.160331
 C 0.0 0.25 0.6268   0.050675
 C 0.0 0.25 0.8587   0.691478
 C 0.0 0.25 0.5471   0.010493
 C 0.0 0.25 0.7782   -0.153459
 C 0.5 0.25 0.6042   0.160331
 C 0.5 0.25 0.3732   0.050675
 C 0.5 0.25 0.1413   0.691478
 C 0.5 0.25 0.4529   0.010492
 C 0.5 0.25 0.2218   -0.153459
 C 0.0 0.75 0.6042   0.160331
 C 0.0 0.75 0.3732   0.050675
 C 0.0 0.75 0.1413   0.691478
 C 0.0 0.75 0.4529   0.010493
 C 0.0 0.75 0.2218   -0.153459
 C 0.5 0.75 0.3958   0.160331
 C 0.5 0.75 0.6268   0.050675
 C 0.5 0.75 0.8587   0.691478
 C 0.5 0.75 0.5471   0.010492
 C 0.5 0.75 0.7782   -0.153459
 N 0.0 0.25 0.3196   -0.089037
 N 0.5 0.25 0.6804   -0.089037
 N 0.0 0.75 0.6804   -0.089037
 N 0.5 0.75 0.3196   -0.089037
 O 0.4948 0.86769 0.02658   -0.591286
 O 0.0777 0.21632 0.8895   -0.582842
 O 0.3598 0.78542 0.049   -0.608891
 O 0.0052 0.86769 0.97342   -0.591286
 O 0.4223 0.21632 0.1105   -0.582842
 O 0.1402 0.78542 0.951   -0.608891
 O 0.5052 0.63231 0.02658   -0.591286
 O 0.9223 0.28368 0.8895   -0.582842
 O 0.6402 0.71458 0.049   -0.608891
 O 0.9948 0.63231 0.97342   -0.591286
 O 0.5777 0.28368 0.1105   -0.582842
 O 0.8598 0.71458 0.951   -0.608891
 O 0.5052 0.13231 0.97342   -0.591286
 O 0.9223 0.78368 0.1105   -0.582842
 O 0.6402 0.21458 0.951   -0.608891
 O 0.9948 0.13231 0.02658   -0.591286
 O 0.5777 0.78368 0.8895   -0.582842
 O 0.8598 0.21458 0.049   -0.608891
 O 0.4948 0.36769 0.97342   -0.591286
 O 0.0777 0.71632 0.1105   -0.582842
 O 0.3598 0.28542 0.951   -0.608891
 O 0.0052 0.36769 0.02658   -0.591286
 O 0.4223 0.71632 0.8895   -0.582842
 O 0.1402 0.28542 0.049   -0.608891
 O 0.75 0.8532 0.0   -0.687543
 O 0.25 0.6468 0.0   -0.687543
 O 0.25 0.1468 0.0   -0.687543
 O 0.75 0.3532 0.0   -0.687543
