{'_ref': 'TBD', '_srcid': 'CAKYAQ_clean', 'submitters': [{'name': 'Dalar Nazarian Jeff Camp and David Sholl', 'email': 'dalar@gatech.edu jcamp6@gatech.edu'}], '_method': 'VASP DFT with PBE;DDEC'}
data_FeHC4O3
_symmetry_space_group_name_H-M   'P 1'
_cell_length_a   6.85379990
_cell_length_b   15.15758981
_cell_length_c   15.15759979
_cell_angle_alpha   117.77003903
_cell_angle_beta   98.66889822
_cell_angle_gamma   98.66870133
_symmetry_Int_Tables_number   1
_chemical_formula_structural   FeHC4O3
_chemical_formula_sum   'Fe6 H6 C24 O18'
_cell_volume   1332.73216914
_cell_formula_units_Z   6
loop_
 _symmetry_equiv_pos_site_id
 _symmetry_equiv_pos_as_xyz
  1  'x, y, z'
loop_
 _atom_site_label
 _atom_site_fract_x
 _atom_site_fract_y
 _atom_site_fract_z
 _atom_site_charge
 Fe 0.4761 0.588 0.272   1.04384
 Fe 0.2041 0.728 0.316   1.043592
 Fe 0.8881 0.684 0.412   1.043678
 Fe 0.5239 0.412 0.728   1.043841
 Fe 0.7959 0.272 0.684   1.043592
 Fe 0.1119 0.316 0.588   1.043678
 H 0.1828 0.5419 0.5617   0.159359
 H 0.6211 0.4383 0.9802   0.15919
 H 0.6409 0.0198 0.4581   0.159299
 H 0.8172 0.4581 0.4383   0.159358
 H 0.3789 0.5617 0.0198   0.159189
 H 0.3591 0.9802 0.5419   0.159298
 C 0.2838 0.6119 0.4398   0.641808
 C 0.3824 0.5452 0.4657   -0.229588
 C 0.5625 0.5344 0.4285   0.352203
 C 0.3248 0.522 0.5363   -0.164674
 C 0.844 0.5602 0.1721   0.642756
 C 0.9167 0.5343 0.0795   -0.231946
 C 0.134 0.5715 0.1059   0.351887
 C 0.7885 0.4637 0.9857   -0.163121
 C 0.6719 0.8279 0.3881   0.642624
 C 0.8372 0.9205 0.4548   -0.23083
 C 0.0281 0.8941 0.4656   0.352119
 C 0.8028 0.0143 0.478   -0.163964
 C 0.7162 0.3881 0.5602   0.641809
 C 0.6176 0.4548 0.5343   -0.229593
 C 0.4375 0.4656 0.5715   0.352219
 C 0.6752 0.478 0.4637   -0.164657
 C 0.156 0.4398 0.8279   0.642757
 C 0.0833 0.4657 0.9205   -0.231951
 C 0.866 0.4285 0.8941   0.351902
 C 0.2115 0.5363 0.0143   -0.163104
 C 0.3281 0.1721 0.6119   0.642625
 C 0.1628 0.0795 0.5452   -0.230835
 C 0.9719 0.1059 0.5344   0.352134
 C 0.1972 0.9857 0.522   -0.163948
 O 0.3265 0.6457 0.3793   -0.585969
 O 0.0949 0.6196 0.4711   -0.625813
 O 0.6386 0.5696 0.3768   -0.591403
 O 0.9472 0.6207 0.2664   -0.586346
 O 0.6238 0.5289 0.1485   -0.62531
 O 0.2618 0.6232 0.1928   -0.590632
 O 0.6808 0.7336 0.3543   -0.586011
 O 0.4753 0.8515 0.3804   -0.62559
 O 0.069 0.8072 0.4304   -0.591196
 O 0.6735 0.3543 0.6207   -0.585969
 O 0.9051 0.3804 0.5289   -0.625813
 O 0.3614 0.4304 0.6232   -0.591404
 O 0.0528 0.3793 0.7336   -0.586346
 O 0.3762 0.4711 0.8515   -0.62531
 O 0.7382 0.3768 0.8072   -0.590633
 O 0.3192 0.2664 0.6457   -0.586012
 O 0.5247 0.1485 0.6196   -0.62559
 O 0.931 0.1928 0.5696   -0.591197
