{'_ref': 'TBD', '_srcid': 'CAKYAQ_clean', 'submitters': [{'name': 'Dalar Nazarian Jeff Camp and David Sholl', 'email': 'dalar@gatech.edu jcamp6@gatech.edu'}], '_method': 'VASP DFT with PBE;DDEC'}
data_FeHC4O3
_symmetry_space_group_name_H-M   'P 1'
_cell_length_a   6.84300004
_cell_length_b   15.15899985
_cell_length_c   15.15900000
_cell_angle_alpha   117.77739908
_cell_angle_beta   98.65419677
_cell_angle_gamma   98.65420116
_symmetry_Int_Tables_number   1
_chemical_formula_structural   FeHC4O3
_chemical_formula_sum   'Fe6 H6 C24 O18'
_cell_volume   1330.98230957
_cell_formula_units_Z   6
loop_
 _symmetry_equiv_pos_site_id
 _symmetry_equiv_pos_as_xyz
  1  'x, y, z'
loop_
 _atom_site_label
 _atom_site_fract_x
 _atom_site_fract_y
 _atom_site_fract_z
 _atom_site_charge
 Fe 0.8919 0.6849 0.4138   1.021592
 Fe 0.4781 0.5862 0.2711   1.021716
 Fe 0.207 0.7289 0.3151   1.021395
 Fe 0.1081 0.3151 0.5862   1.021592
 Fe 0.5219 0.4138 0.7289   1.021716
 Fe 0.793 0.2711 0.6849   1.021395
 H 0.6465 0.0186 0.462   0.154369
 H 0.1845 0.538 0.5566   0.154542
 H 0.6279 0.4434 0.9814   0.154521
 H 0.3535 0.9814 0.538   0.154368
 H 0.8155 0.462 0.4434   0.154541
 H 0.3721 0.5566 0.0186   0.15452
 C 0.6634 0.8221 0.3843   0.62279
 C 0.8315 0.9124 0.4572   -0.223065
 C 0.0332 0.8968 0.4647   0.348574
 C 0.8047 0.008 0.4771   -0.173091
 C 0.2791 0.6157 0.4378   0.622371
 C 0.3743 0.5428 0.4552   -0.221738
 C 0.5685 0.5353 0.4321   0.349323
 C 0.3276 0.5229 0.5309   -0.174505
 C 0.8413 0.5622 0.1779   0.622502
 C 0.9191 0.5448 0.0876   -0.221785
 C 0.1364 0.5679 0.1032   0.348817
 C 0.7967 0.4691 0.992   -0.174159
 C 0.3366 0.1779 0.6157   0.62279
 C 0.1685 0.0876 0.5428   -0.223069
 C 0.9668 0.1032 0.5353   0.348586
 C 0.1953 0.992 0.5229   -0.173077
 C 0.7209 0.3843 0.5622   0.622372
 C 0.6257 0.4572 0.5448   -0.221742
 C 0.4315 0.4647 0.5679   0.349335
 C 0.6724 0.4771 0.4691   -0.174492
 C 0.1587 0.4378 0.8221   0.622503
 C 0.0809 0.4552 0.9124   -0.221789
 C 0.8636 0.4321 0.8968   0.348828
 C 0.2033 0.5309 0.008   -0.174146
 O 0.6796 0.7287 0.352   -0.571538
 O 0.4791 0.8583 0.3835   -0.591624
 O 0.071 0.8086 0.4314   -0.588013
 O 0.3276 0.648 0.3767   -0.571004
 O 0.0956 0.6165 0.4748   -0.591858
 O 0.6396 0.5686 0.3772   -0.588805
 O 0.9509 0.6233 0.2713   -0.571434
 O 0.6208 0.5252 0.1417   -0.591461
 O 0.2624 0.6228 0.1914   -0.588461
 O 0.3204 0.2713 0.648   -0.571538
 O 0.5209 0.1417 0.6165   -0.591624
 O 0.929 0.1914 0.5686   -0.588014
 O 0.6724 0.352 0.6233   -0.571004
 O 0.9044 0.3835 0.5252   -0.591858
 O 0.3604 0.4314 0.6228   -0.588807
 O 0.0491 0.3767 0.7287   -0.571434
 O 0.3792 0.4748 0.8583   -0.591461
 O 0.7376 0.3772 0.8086   -0.588462
