{'_ref': 'TBD', '_srcid': 'CAKYAQ_clean', 'submitters': [{'name': 'Dalar Nazarian Jeff Camp and David Sholl', 'email': 'dalar@gatech.edu jcamp6@gatech.edu'}], '_method': 'VASP DFT with PBE;DDEC'}
data_CuH4(C2N3)2
_symmetry_space_group_name_H-M   'P 1'
_cell_length_a   11.84470000
_cell_length_b   11.84470000
_cell_length_c   18.97820000
_cell_angle_alpha   90.00000000
_cell_angle_beta   90.00000000
_cell_angle_gamma   90.00000000
_symmetry_Int_Tables_number   1
_chemical_formula_structural   CuH4(C2N3)2
_chemical_formula_sum   'Cu12 H48 C48 N72'
_cell_volume   2662.5829709
_cell_formula_units_Z   12
loop_
 _symmetry_equiv_pos_site_id
 _symmetry_equiv_pos_as_xyz
  1  'x, y, z'
loop_
 _atom_site_label
 _atom_site_fract_x
 _atom_site_fract_y
 _atom_site_fract_z
 _atom_site_charge
 Cu 0.0 0.75 0.125   0.358743
 Cu 0.5 0.25 0.625   0.358743
 Cu 0.5 0.75 0.375   0.358743
 Cu 0.0 0.25 0.875   0.358743
 Cu 0.75 0.75 0.25   0.492801
 Cu 0.75 0.25 0.75   0.492801
 Cu 0.5 0.5 0.5   0.4928
 Cu 0.0 0.5 0.0   0.4928
 Cu 0.25 0.25 0.75   0.492804
 Cu 0.25 0.75 0.25   0.492804
 Cu 0.0 0.0 0.0   0.492806
 Cu 0.5 0.0 0.5   0.492806
 H 0.8967 0.75 0.3958   0.119548
 H 0.6033 0.25 0.8958   0.119548
 H 0.5 0.6467 0.6458   0.119548
 H 0.0 0.3533 0.1458   0.119548
 H 0.6033 0.75 0.1042   0.119548
 H 0.8967 0.25 0.6042   0.119548
 H 0.0 0.6467 0.8542   0.119548
 H 0.5 0.3533 0.3542   0.119548
 H 0.3967 0.25 0.8958   0.119541
 H 0.1033 0.75 0.3958   0.119541
 H 0.0 0.1467 0.1458   0.119541
 H 0.5 0.8533 0.6458   0.119541
 H 0.1033 0.25 0.6042   0.119541
 H 0.3967 0.75 0.1042   0.119541
 H 0.5 0.1467 0.3542   0.119541
 H 0.0 0.8533 0.8542   0.119541
 H 0.6696 0.9955 0.1772   0.114893
 H 0.8304 0.0045 0.6772   0.114893
 H 0.2545 0.4196 0.4272   0.114893
 H 0.2455 0.5804 0.9272   0.114893
 H 0.8304 0.9955 0.3228   0.114893
 H 0.6696 0.0045 0.8228   0.114893
 H 0.2455 0.4196 0.0728   0.114893
 H 0.2545 0.5804 0.5728   0.114893
 H 0.1696 0.4955 0.6772   0.114889
 H 0.3304 0.5045 0.1772   0.114889
 H 0.7545 0.9196 0.9272   0.114889
 H 0.7455 0.0804 0.4272   0.114889
 H 0.3304 0.4955 0.8228   0.114889
 H 0.1696 0.5045 0.3228   0.114889
 H 0.7455 0.9196 0.5728   0.114889
 H 0.7545 0.0804 0.0728   0.114889
 H 0.3304 0.0045 0.8228   0.114892
 H 0.1696 0.9955 0.3228   0.114892
 H 0.7455 0.5804 0.5728   0.114892
 H 0.7545 0.4196 0.0728   0.114892
 H 0.1696 0.0045 0.6772   0.114892
 H 0.3304 0.9955 0.1772   0.114892
 H 0.7545 0.5804 0.9272   0.114892
 H 0.7455 0.4196 0.4272   0.114892
 H 0.8304 0.5045 0.3228   0.114888
 H 0.6696 0.4955 0.8228   0.114888
 H 0.2455 0.0804 0.0728   0.114888
 H 0.2545 0.9196 0.5728   0.114888
 H 0.6696 0.5045 0.1772   0.114888
 H 0.8304 0.4955 0.6772   0.114888
 H 0.2545 0.0804 0.4272   0.114888
 H 0.2455 0.9196 0.9272   0.114888
 C 0.943 0.75 0.3562   -0.068883
 C 0.557 0.25 0.8562   -0.068883
 C 0.5 0.693 0.6062   -0.068882
 C 0.0 0.307 0.1062   -0.068882
 C 0.557 0.75 0.1438   -0.068883
 C 0.943 0.25 0.6438   -0.068883
 C 0.0 0.693 0.8938   -0.068882
 C 0.5 0.307 0.3938   -0.068882
 C 0.443 0.25 0.8562   -0.068822
 C 0.057 0.75 0.3562   -0.068822
 C 0.0 0.193 0.1062   -0.068823
 C 0.5 0.807 0.6062   -0.068823
 C 0.057 0.25 0.6438   -0.068822
 C 0.443 0.75 0.1438   -0.068822
 C 0.5 0.193 0.3938   -0.068823
 C 0.0 0.807 0.8938   -0.068823
 C 0.7335 0.9694 0.1539   -0.053332
 C 0.7665 0.0306 0.6539   -0.053332
 C 0.2806 0.4835 0.4039   -0.053332
 C 0.2194 0.5165 0.9039   -0.053332
 C 0.7665 0.9694 0.3461   -0.053332
 C 0.7335 0.0306 0.8461   -0.053332
 C 0.2194 0.4835 0.0961   -0.053332
 C 0.2806 0.5165 0.5961   -0.053332
 C 0.2335 0.4694 0.6539   -0.053308
 C 0.2665 0.5306 0.1539   -0.053308
 C 0.7806 0.9835 0.9039   -0.053308
 C 0.7194 0.0165 0.4039   -0.053308
 C 0.2665 0.4694 0.8461   -0.053308
 C 0.2335 0.5306 0.3461   -0.053308
 C 0.7194 0.9835 0.5961   -0.053308
 C 0.7806 0.0165 0.0961   -0.053308
 C 0.2665 0.0306 0.8461   -0.053332
 C 0.2335 0.9694 0.3461   -0.053332
 C 0.7194 0.5165 0.5961   -0.053332
 C 0.7806 0.4835 0.0961   -0.053332
 C 0.2335 0.0306 0.6539   -0.053332
 C 0.2665 0.9694 0.1539   -0.053332
 C 0.7806 0.5165 0.9039   -0.053332
 C 0.7194 0.4835 0.4039   -0.053332
 C 0.7665 0.5306 0.3461   -0.053307
 C 0.7335 0.4694 0.8461   -0.053307
 C 0.2194 0.0165 0.0961   -0.053307
 C 0.2806 0.9835 0.5961   -0.053307
 C 0.7335 0.5306 0.1539   -0.053306
 C 0.7665 0.4694 0.6539   -0.053306
 C 0.2806 0.0165 0.4039   -0.053307
 C 0.2194 0.9835 0.9039   -0.053307
 N 0.0 0.75 0.2487   -0.076325
 N 0.5 0.25 0.7487   -0.076325
 N 0.5 0.75 0.4987   -0.076325
 N 0.0 0.25 0.9987   -0.076325
 N 0.5 0.75 0.2513   -0.076325
 N 0.0 0.25 0.7513   -0.076325
 N 0.0 0.75 0.0013   -0.076325
 N 0.5 0.25 0.5013   -0.076325
 N 0.8782 0.8718 0.125   0.021922
 N 0.6218 0.1282 0.625   0.021922
 N 0.3782 0.6282 0.375   0.021922
 N 0.1218 0.3718 0.875   0.021922
 N 0.6218 0.8718 0.375   0.021922
 N 0.8782 0.1282 0.875   0.021922
 N 0.1218 0.6282 0.125   0.021922
 N 0.3782 0.3718 0.625   0.021922
 N 0.1218 0.1282 0.875   0.021922
 N 0.3782 0.8718 0.375   0.021922
 N 0.6218 0.3718 0.625   0.021921
 N 0.8782 0.6282 0.125   0.021921
 N 0.3782 0.1282 0.625   0.021922
 N 0.1218 0.8718 0.125   0.021922
 N 0.8782 0.3718 0.875   0.021921
 N 0.6218 0.6282 0.375   0.021921
 N 0.9085 0.75 0.2894   -0.122224
 N 0.5915 0.25 0.7894   -0.122224
 N 0.5 0.6585 0.5394   -0.122223
 N 0.0 0.3415 0.0394   -0.122223
 N 0.5915 0.75 0.2106   -0.122224
 N 0.9085 0.25 0.7106   -0.122224
 N 0.0 0.6585 0.9606   -0.122223
 N 0.5 0.3415 0.4606   -0.122223
 N 0.4085 0.25 0.7894   -0.122234
 N 0.0915 0.75 0.2894   -0.122234
 N 0.0 0.1585 0.0394   -0.122234
 N 0.5 0.8415 0.5394   -0.122234
 N 0.0915 0.25 0.7106   -0.122234
 N 0.4085 0.75 0.2106   -0.122234
 N 0.5 0.1585 0.4606   -0.122234
 N 0.0 0.8415 0.9606   -0.122234
 N 0.7947 0.8784 0.1721   -0.185723
 N 0.7053 0.1216 0.6721   -0.185723
 N 0.3716 0.5447 0.4221   -0.185723
 N 0.1284 0.4553 0.9221   -0.185723
 N 0.7053 0.8784 0.3279   -0.185723
 N 0.7947 0.1216 0.8279   -0.185723
 N 0.1284 0.5447 0.0779   -0.185723
 N 0.3716 0.4553 0.5779   -0.185723
 N 0.2947 0.3784 0.6721   -0.185728
 N 0.2053 0.6216 0.1721   -0.185728
 N 0.8716 0.0447 0.9221   -0.185728
 N 0.6284 0.9553 0.4221   -0.185728
 N 0.2053 0.3784 0.8279   -0.185728
 N 0.2947 0.6216 0.3279   -0.185728
 N 0.6284 0.0447 0.5779   -0.185728
 N 0.8716 0.9553 0.0779   -0.185728
 N 0.2053 0.1216 0.8279   -0.185724
 N 0.2947 0.8784 0.3279   -0.185724
 N 0.6284 0.4553 0.5779   -0.185723
 N 0.8716 0.5447 0.0779   -0.185723
 N 0.2947 0.1216 0.6721   -0.185724
 N 0.2053 0.8784 0.1721   -0.185724
 N 0.8716 0.4553 0.9221   -0.185723
 N 0.6284 0.5447 0.4221   -0.185723
 N 0.7053 0.6216 0.3279   -0.185728
 N 0.7947 0.3784 0.8279   -0.185728
 N 0.1284 0.9553 0.0779   -0.185729
 N 0.3716 0.0447 0.5779   -0.185729
 N 0.7947 0.6216 0.1721   -0.185728
 N 0.7053 0.3784 0.6721   -0.185728
 N 0.3716 0.9553 0.4221   -0.185729
 N 0.1284 0.0447 0.9221   -0.185729
