{'_ref': 'TBD', '_srcid': 'CAKYAQ_clean', 'submitters': [{'name': 'Dalar Nazarian Jeff Camp and David Sholl', 'email': 'dalar@gatech.edu jcamp6@gatech.edu'}], '_method': 'VASP DFT with PBE;DDEC'}
data_CuH4(C2N3)2
_symmetry_space_group_name_H-M   'P 1'
_cell_length_a   17.44160000
_cell_length_b   17.44160000
_cell_length_c   17.44160000
_cell_angle_alpha   90.00000000
_cell_angle_beta   90.00000000
_cell_angle_gamma   90.00000000
_symmetry_Int_Tables_number   1
_chemical_formula_structural   CuH4(C2N3)2
_chemical_formula_sum   'Cu24 H96 C96 N144'
_cell_volume   5305.89885522
_cell_formula_units_Z   24
loop_
 _symmetry_equiv_pos_site_id
 _symmetry_equiv_pos_as_xyz
  1  'x, y, z'
loop_
 _atom_site_label
 _atom_site_fract_x
 _atom_site_fract_y
 _atom_site_fract_z
 _atom_site_charge
 Cu 0.0 0.5 0.0   0.533856
 Cu 0.75 0.75 0.5   0.533856
 Cu 0.25 0.0 0.75   0.533856
 Cu 0.5 0.25 0.25   0.533856
 Cu 0.0 0.0 0.5   0.533856
 Cu 0.5 0.75 0.75   0.533856
 Cu 0.75 0.25 0.0   0.533856
 Cu 0.25 0.5 0.25   0.533856
 Cu 0.5 0.0 0.0   0.533856
 Cu 0.75 0.5 0.75   0.533856
 Cu 0.0 0.75 0.25   0.533856
 Cu 0.25 0.25 0.5   0.533856
 Cu 0.5 0.5 0.5   0.533856
 Cu 0.75 0.0 0.25   0.533856
 Cu 0.0 0.25 0.75   0.533856
 Cu 0.25 0.75 0.0   0.533856
 Cu 0.125 0.625 0.125   0.386564
 Cu 0.625 0.625 0.625   0.386564
 Cu 0.125 0.125 0.625   0.386564
 Cu 0.625 0.125 0.125   0.386564
 Cu 0.375 0.375 0.375   0.386564
 Cu 0.375 0.875 0.875   0.386564
 Cu 0.875 0.375 0.875   0.386564
 Cu 0.875 0.875 0.375   0.386564
 H 0.07562 0.33255 0.07562   0.116357
 H 0.67438 0.91745 0.57562   0.116357
 H 0.17438 0.83255 0.67438   0.116357
 H 0.57562 0.41745 0.17438   0.116357
 H 0.07562 0.07562 0.33255   0.116357
 H 0.57562 0.67438 0.91745   0.116357
 H 0.67438 0.17438 0.83255   0.116357
 H 0.17438 0.57562 0.41745   0.116357
 H 0.33255 0.07562 0.07562   0.116357
 H 0.91745 0.57562 0.67438   0.116357
 H 0.83255 0.67438 0.17438   0.116357
 H 0.41745 0.17438 0.57562   0.116357
 H 0.08255 0.32562 0.42438   0.116357
 H 0.66745 0.92438 0.92438   0.116357
 H 0.58255 0.42438 0.82562   0.116357
 H 0.16745 0.82562 0.32562   0.116357
 H 0.82562 0.32562 0.16745   0.116357
 H 0.42438 0.82562 0.58255   0.116357
 H 0.92438 0.92438 0.66745   0.116357
 H 0.32562 0.42438 0.08255   0.116357
 H 0.82562 0.58255 0.42438   0.116357
 H 0.32562 0.16745 0.82562   0.116357
 H 0.42438 0.08255 0.32562   0.116357
 H 0.92438 0.66745 0.92438   0.116357
 H 0.07562 0.83255 0.57562   0.116352
 H 0.67438 0.41745 0.07562   0.116352
 H 0.17438 0.33255 0.17438   0.116352
 H 0.57562 0.91745 0.67438   0.116352
 H 0.07562 0.57562 0.83255   0.116357
 H 0.57562 0.17438 0.41745   0.116357
 H 0.67438 0.67438 0.33255   0.116357
 H 0.17438 0.07562 0.91745   0.116357
 H 0.33255 0.57562 0.57562   0.116357
 H 0.91745 0.07562 0.17438   0.116357
 H 0.83255 0.17438 0.67438   0.116357
 H 0.41745 0.67438 0.07562   0.116357
 H 0.08255 0.82562 0.92438   0.116357
 H 0.66745 0.42438 0.42438   0.116357
 H 0.58255 0.92438 0.32562   0.116357
 H 0.16745 0.32562 0.82562   0.116357
 H 0.82562 0.82562 0.66745   0.116352
 H 0.42438 0.32562 0.08255   0.116352
 H 0.92438 0.42438 0.16745   0.116352
 H 0.32562 0.92438 0.58255   0.116352
 H 0.82562 0.08255 0.92438   0.116357
 H 0.32562 0.66745 0.32562   0.116357
 H 0.42438 0.58255 0.82562   0.116357
 H 0.92438 0.16745 0.42438   0.116357
 H 0.57562 0.33255 0.57562   0.116357
 H 0.17438 0.91745 0.07562   0.116357
 H 0.67438 0.83255 0.17438   0.116357
 H 0.07562 0.41745 0.67438   0.116357
 H 0.57562 0.07562 0.83255   0.116351
 H 0.07562 0.67438 0.41745   0.116351
 H 0.17438 0.17438 0.33255   0.116351
 H 0.67438 0.57562 0.91745   0.116351
 H 0.83255 0.07562 0.57562   0.116351
 H 0.41745 0.57562 0.17438   0.116351
 H 0.33255 0.67438 0.67438   0.116351
 H 0.91745 0.17438 0.07562   0.116351
 H 0.58255 0.32562 0.92438   0.116351
 H 0.16745 0.92438 0.42438   0.116351
 H 0.08255 0.42438 0.32562   0.116351
 H 0.66745 0.82562 0.82562   0.116351
 H 0.32562 0.32562 0.66745   0.116357
 H 0.92438 0.82562 0.08255   0.116357
 H 0.42438 0.92438 0.16745   0.116357
 H 0.82562 0.42438 0.58255   0.116357
 H 0.32562 0.58255 0.92438   0.116351
 H 0.82562 0.16745 0.32562   0.116351
 H 0.92438 0.08255 0.82562   0.116351
 H 0.42438 0.66745 0.42438   0.116351
 H 0.57562 0.83255 0.07562   0.116351
 H 0.17438 0.41745 0.57562   0.116351
 H 0.67438 0.33255 0.67438   0.116351
 H 0.07562 0.91745 0.17438   0.116351
 H 0.57562 0.57562 0.33255   0.116351
 H 0.07562 0.17438 0.91745   0.116351
 H 0.17438 0.67438 0.83255   0.116351
 H 0.67438 0.07562 0.41745   0.116351
 H 0.83255 0.57562 0.07562   0.116351
 H 0.41745 0.07562 0.67438   0.116351
 H 0.33255 0.17438 0.17438   0.116351
 H 0.91745 0.67438 0.57562   0.116351
 H 0.58255 0.82562 0.42438   0.116351
 H 0.16745 0.42438 0.92438   0.116351
 H 0.08255 0.92438 0.82562   0.116351
 H 0.66745 0.32562 0.32562   0.116351
 H 0.32562 0.82562 0.16745   0.116351
 H 0.92438 0.32562 0.58255   0.116351
 H 0.42438 0.42438 0.66745   0.116351
 H 0.82562 0.92438 0.08255   0.116351
 H 0.32562 0.08255 0.42438   0.116351
 H 0.82562 0.66745 0.82562   0.116351
 H 0.92438 0.58255 0.32562   0.116351
 H 0.42438 0.16745 0.92438   0.116351
 C 0.0977 0.3758 0.0977   -0.056675
 C 0.6523 0.8742 0.5977   -0.056675
 C 0.1523 0.8758 0.6523   -0.056675
 C 0.5977 0.3742 0.1523   -0.056675
 C 0.0977 0.0977 0.3758   -0.056674
 C 0.5977 0.6523 0.8742   -0.056674
 C 0.6523 0.1523 0.8758   -0.056674
 C 0.1523 0.5977 0.3742   -0.056674
 C 0.3758 0.0977 0.0977   -0.056674
 C 0.8742 0.5977 0.6523   -0.056674
 C 0.8758 0.6523 0.1523   -0.056674
 C 0.3742 0.1523 0.5977   -0.056674
 C 0.1258 0.3477 0.4023   -0.056675
 C 0.6242 0.9023 0.9023   -0.056675
 C 0.6258 0.4023 0.8477   -0.056675
 C 0.1242 0.8477 0.3477   -0.056675
 C 0.8477 0.3477 0.1242   -0.056675
 C 0.4023 0.8477 0.6258   -0.056675
 C 0.9023 0.9023 0.6242   -0.056675
 C 0.3477 0.4023 0.1258   -0.056675
 C 0.8477 0.6258 0.4023   -0.056674
 C 0.3477 0.1242 0.8477   -0.056674
 C 0.4023 0.1258 0.3477   -0.056674
 C 0.9023 0.6242 0.9023   -0.056674
 C 0.0977 0.8758 0.5977   -0.056631
 C 0.6523 0.3742 0.0977   -0.056631
 C 0.1523 0.3758 0.1523   -0.056631
 C 0.5977 0.8742 0.6523   -0.056631
 C 0.0977 0.5977 0.8758   -0.056674
 C 0.5977 0.1523 0.3742   -0.056674
 C 0.6523 0.6523 0.3758   -0.056674
 C 0.1523 0.0977 0.8742   -0.056674
 C 0.3758 0.5977 0.5977   -0.056675
 C 0.8742 0.0977 0.1523   -0.056675
 C 0.8758 0.1523 0.6523   -0.056675
 C 0.3742 0.6523 0.0977   -0.056675
 C 0.1258 0.8477 0.9023   -0.056675
 C 0.6242 0.4023 0.4023   -0.056675
 C 0.6258 0.9023 0.3477   -0.056675
 C 0.1242 0.3477 0.8477   -0.056675
 C 0.8477 0.8477 0.6242   -0.056631
 C 0.4023 0.3477 0.1258   -0.056631
 C 0.9023 0.4023 0.1242   -0.056631
 C 0.3477 0.9023 0.6258   -0.056631
 C 0.8477 0.1258 0.9023   -0.056674
 C 0.3477 0.6242 0.3477   -0.056674
 C 0.4023 0.6258 0.8477   -0.056674
 C 0.9023 0.1242 0.4023   -0.056674
 C 0.5977 0.3758 0.5977   -0.056674
 C 0.1523 0.8742 0.0977   -0.056674
 C 0.6523 0.8758 0.1523   -0.056674
 C 0.0977 0.3742 0.6523   -0.056674
 C 0.5977 0.0977 0.8758   -0.056631
 C 0.0977 0.6523 0.3742   -0.056631
 C 0.1523 0.1523 0.3758   -0.056631
 C 0.6523 0.5977 0.8742   -0.056631
 C 0.8758 0.0977 0.5977   -0.05663
 C 0.3742 0.5977 0.1523   -0.05663
 C 0.3758 0.6523 0.6523   -0.05663
 C 0.8742 0.1523 0.0977   -0.05663
 C 0.6258 0.3477 0.9023   -0.05663
 C 0.1242 0.9023 0.4023   -0.05663
 C 0.1258 0.4023 0.3477   -0.05663
 C 0.6242 0.8477 0.8477   -0.05663
 C 0.3477 0.3477 0.6242   -0.056674
 C 0.9023 0.8477 0.1258   -0.056674
 C 0.4023 0.9023 0.1242   -0.056674
 C 0.8477 0.4023 0.6258   -0.056674
 C 0.3477 0.6258 0.9023   -0.056631
 C 0.8477 0.1242 0.3477   -0.056631
 C 0.9023 0.1258 0.8477   -0.056631
 C 0.4023 0.6242 0.4023   -0.056631
 C 0.5977 0.8758 0.0977   -0.05663
 C 0.1523 0.3742 0.5977   -0.05663
 C 0.6523 0.3758 0.6523   -0.05663
 C 0.0977 0.8742 0.1523   -0.05663
 C 0.5977 0.5977 0.3758   -0.056631
 C 0.0977 0.1523 0.8742   -0.056631
 C 0.1523 0.6523 0.8758   -0.056631
 C 0.6523 0.0977 0.3742   -0.056631
 C 0.8758 0.5977 0.0977   -0.056631
 C 0.3742 0.0977 0.6523   -0.056631
 C 0.3758 0.1523 0.1523   -0.056631
 C 0.8742 0.6523 0.5977   -0.056631
 C 0.6258 0.8477 0.4023   -0.05663
 C 0.1242 0.4023 0.9023   -0.05663
 C 0.1258 0.9023 0.8477   -0.05663
 C 0.6242 0.3477 0.3477   -0.05663
 C 0.3477 0.8477 0.1242   -0.05663
 C 0.9023 0.3477 0.6258   -0.05663
 C 0.4023 0.4023 0.6242   -0.05663
 C 0.8477 0.9023 0.1258   -0.05663
 C 0.3477 0.1258 0.4023   -0.056631
 C 0.8477 0.6242 0.8477   -0.056631
 C 0.9023 0.6258 0.3477   -0.056631
 C 0.4023 0.1242 0.9023   -0.056631
 N 0.08042 0.4489 0.08042   -0.153281
 N 0.66958 0.8011 0.58042   -0.153281
 N 0.16958 0.9489 0.66958   -0.153281
 N 0.58042 0.3011 0.16958   -0.153281
 N 0.08042 0.08042 0.4489   -0.153281
 N 0.58042 0.66958 0.8011   -0.153281
 N 0.66958 0.16958 0.9489   -0.153281
 N 0.16958 0.58042 0.3011   -0.153281
 N 0.4489 0.08042 0.08042   -0.153281
 N 0.8011 0.58042 0.66958   -0.153281
 N 0.9489 0.66958 0.16958   -0.153281
 N 0.3011 0.16958 0.58042   -0.153281
 N 0.1989 0.33042 0.41958   -0.153281
 N 0.5511 0.91958 0.91958   -0.153281
 N 0.6989 0.41958 0.83042   -0.153281
 N 0.0511 0.83042 0.33042   -0.153281
 N 0.83042 0.33042 0.0511   -0.153281
 N 0.41958 0.83042 0.6989   -0.153281
 N 0.91958 0.91958 0.5511   -0.153281
 N 0.33042 0.41958 0.1989   -0.153281
 N 0.83042 0.6989 0.41958   -0.153281
 N 0.33042 0.0511 0.83042   -0.153281
 N 0.41958 0.1989 0.33042   -0.153281
 N 0.91958 0.5511 0.91958   -0.153281
 N 0.08042 0.9489 0.58042   -0.153288
 N 0.66958 0.3011 0.08042   -0.153288
 N 0.16958 0.4489 0.16958   -0.153288
 N 0.58042 0.8011 0.66958   -0.153288
 N 0.08042 0.58042 0.9489   -0.153281
 N 0.58042 0.16958 0.3011   -0.153281
 N 0.66958 0.66958 0.4489   -0.153281
 N 0.16958 0.08042 0.8011   -0.153281
 N 0.4489 0.58042 0.58042   -0.153281
 N 0.8011 0.08042 0.16958   -0.153281
 N 0.9489 0.16958 0.66958   -0.153281
 N 0.3011 0.66958 0.08042   -0.153281
 N 0.1989 0.83042 0.91958   -0.153281
 N 0.5511 0.41958 0.41958   -0.153281
 N 0.6989 0.91958 0.33042   -0.153281
 N 0.0511 0.33042 0.83042   -0.153281
 N 0.83042 0.83042 0.5511   -0.153288
 N 0.41958 0.33042 0.1989   -0.153288
 N 0.91958 0.41958 0.0511   -0.153288
 N 0.33042 0.91958 0.6989   -0.153288
 N 0.83042 0.1989 0.91958   -0.153281
 N 0.33042 0.5511 0.33042   -0.153281
 N 0.41958 0.6989 0.83042   -0.153281
 N 0.91958 0.0511 0.41958   -0.153281
 N 0.58042 0.4489 0.58042   -0.153281
 N 0.16958 0.8011 0.08042   -0.153281
 N 0.66958 0.9489 0.16958   -0.153281
 N 0.08042 0.3011 0.66958   -0.153281
 N 0.58042 0.08042 0.9489   -0.153288
 N 0.08042 0.66958 0.3011   -0.153288
 N 0.16958 0.16958 0.4489   -0.153288
 N 0.66958 0.58042 0.8011   -0.153288
 N 0.9489 0.08042 0.58042   -0.153287
 N 0.3011 0.58042 0.16958   -0.153287
 N 0.4489 0.66958 0.66958   -0.153287
 N 0.8011 0.16958 0.08042   -0.153287
 N 0.6989 0.33042 0.91958   -0.153288
 N 0.0511 0.91958 0.41958   -0.153288
 N 0.1989 0.41958 0.33042   -0.153288
 N 0.5511 0.83042 0.83042   -0.153288
 N 0.33042 0.33042 0.5511   -0.153281
 N 0.91958 0.83042 0.1989   -0.153281
 N 0.41958 0.91958 0.0511   -0.153281
 N 0.83042 0.41958 0.6989   -0.153281
 N 0.33042 0.6989 0.91958   -0.153288
 N 0.83042 0.0511 0.33042   -0.153288
 N 0.91958 0.1989 0.83042   -0.153288
 N 0.41958 0.5511 0.41958   -0.153288
 N 0.58042 0.9489 0.08042   -0.153287
 N 0.16958 0.3011 0.58042   -0.153287
 N 0.66958 0.4489 0.66958   -0.153287
 N 0.08042 0.8011 0.16958   -0.153287
 N 0.58042 0.58042 0.4489   -0.153288
 N 0.08042 0.16958 0.8011   -0.153288
 N 0.16958 0.66958 0.9489   -0.153288
 N 0.66958 0.08042 0.3011   -0.153288
 N 0.9489 0.58042 0.08042   -0.153288
 N 0.3011 0.08042 0.66958   -0.153288
 N 0.4489 0.16958 0.16958   -0.153288
 N 0.8011 0.66958 0.58042   -0.153288
 N 0.6989 0.83042 0.41958   -0.153287
 N 0.0511 0.41958 0.91958   -0.153287
 N 0.1989 0.91958 0.83042   -0.153287
 N 0.5511 0.33042 0.33042   -0.153287
 N 0.33042 0.83042 0.0511   -0.153287
 N 0.91958 0.33042 0.6989   -0.153287
 N 0.41958 0.41958 0.5511   -0.153287
 N 0.83042 0.91958 0.1989   -0.153287
 N 0.33042 0.1989 0.41958   -0.153288
 N 0.83042 0.5511 0.83042   -0.153288
 N 0.91958 0.6989 0.33042   -0.153288
 N 0.41958 0.0511 0.91958   -0.153288
 N 0.125 0.4922 0.125   -0.055214
 N 0.625 0.7578 0.625   -0.055214
 N 0.125 0.9922 0.625   -0.055214
 N 0.625 0.2578 0.125   -0.055214
 N 0.125 0.125 0.4922   -0.055214
 N 0.625 0.625 0.7578   -0.055214
 N 0.625 0.125 0.9922   -0.055214
 N 0.125 0.625 0.2578   -0.055214
 N 0.4922 0.125 0.125   -0.055214
 N 0.7578 0.625 0.625   -0.055214
 N 0.9922 0.625 0.125   -0.055214
 N 0.2578 0.125 0.625   -0.055214
 N 0.2422 0.375 0.375   -0.055214
 N 0.5078 0.875 0.875   -0.055214
 N 0.7422 0.375 0.875   -0.055214
 N 0.0078 0.875 0.375   -0.055214
 N 0.875 0.375 0.0078   -0.055214
 N 0.375 0.875 0.7422   -0.055214
 N 0.875 0.875 0.5078   -0.055214
 N 0.375 0.375 0.2422   -0.055214
 N 0.875 0.7422 0.375   -0.055214
 N 0.375 0.0078 0.875   -0.055214
 N 0.375 0.2422 0.375   -0.055214
 N 0.875 0.5078 0.875   -0.055214
 N 0.125 0.625 0.9922   -0.055214
 N 0.625 0.125 0.2578   -0.055214
 N 0.625 0.625 0.4922   -0.055214
 N 0.125 0.125 0.7578   -0.055214
 N 0.4922 0.625 0.625   -0.055214
 N 0.7578 0.125 0.125   -0.055214
 N 0.9922 0.125 0.625   -0.055214
 N 0.2578 0.625 0.125   -0.055214
 N 0.2422 0.875 0.875   -0.055214
 N 0.5078 0.375 0.375   -0.055214
 N 0.7422 0.875 0.375   -0.055214
 N 0.0078 0.375 0.875   -0.055214
 N 0.875 0.2422 0.875   -0.055214
 N 0.375 0.5078 0.375   -0.055214
 N 0.375 0.7422 0.875   -0.055214
 N 0.875 0.0078 0.375   -0.055214
 N 0.625 0.4922 0.625   -0.055214
 N 0.125 0.7578 0.125   -0.055214
 N 0.625 0.9922 0.125   -0.055214
 N 0.125 0.2578 0.625   -0.055214
 N 0.375 0.375 0.5078   -0.055214
 N 0.875 0.875 0.2422   -0.055214
 N 0.375 0.875 0.0078   -0.055214
 N 0.875 0.375 0.7422   -0.055214
