{'_ref': 'TBD', '_srcid': 'CAKYAQ_clean', 'submitters': [{'name': 'Dalar Nazarian Jeff Camp and David Sholl', 'email': 'dalar@gatech.edu jcamp6@gatech.edu'}], '_method': 'VASP DFT with PBE;DDEC'}
data_CuH8C6N8O
_symmetry_space_group_name_H-M   'P 1'
_cell_length_a   7.90250000
_cell_length_b   12.35500000
_cell_length_c   12.35500000
_cell_angle_alpha   90.00000000
_cell_angle_beta   90.00000000
_cell_angle_gamma   90.00000000
_symmetry_Int_Tables_number   1
_chemical_formula_structural   CuH8C6N8O
_chemical_formula_sum   'Cu4 H32 C24 N32 O4'
_cell_volume   1206.28521256
_cell_formula_units_Z   4
loop_
 _symmetry_equiv_pos_site_id
 _symmetry_equiv_pos_as_xyz
  1  'x, y, z'
loop_
 _atom_site_label
 _atom_site_fract_x
 _atom_site_fract_y
 _atom_site_fract_z
 _atom_site_charge
 Cu 0.96648 0.32318 0.01525   0.694211
 Cu 0.46648 0.67682 0.98475   0.694211
 Cu 0.21648 0.98475 0.32318   0.694211
 Cu 0.71648 0.01525 0.67682   0.694211
 H 0.8181 0.0981 0.1067   0.136943
 H 0.8528 0.0554 0.224   0.135745
 H 0.7984 0.2281 0.294   0.04462
 H 0.6404 0.1846 0.2302   0.044411
 H 0.5341 0.3653 0.1584   0.041682
 H 0.645 0.3912 0.2608   0.06665
 H 0.8107 0.5095 0.1588   0.132669
 H 0.6211 0.5465 0.157   0.12934
 H 0.3181 0.9019 0.8933   0.136943
 H 0.3528 0.9446 0.776   0.135745
 H 0.2984 0.7719 0.706   0.04462
 H 0.1404 0.8154 0.7698   0.044411
 H 0.0341 0.6347 0.8416   0.041682
 H 0.145 0.6088 0.7392   0.06665
 H 0.3107 0.4905 0.8412   0.132669
 H 0.1211 0.4535 0.843   0.12934
 H 0.0681 0.8933 0.0981   0.136946
 H 0.1028 0.776 0.0554   0.135746
 H 0.0484 0.706 0.2281   0.04462
 H 0.8904 0.7698 0.1846   0.044411
 H 0.7841 0.8416 0.3653   0.041682
 H 0.895 0.7392 0.3912   0.066655
 H 0.0607 0.8412 0.5095   0.13267
 H 0.8711 0.843 0.5465   0.129341
 H 0.5681 0.1067 0.9019   0.136946
 H 0.6028 0.224 0.9446   0.135746
 H 0.5484 0.294 0.7719   0.04462
 H 0.3904 0.2302 0.8154   0.044411
 H 0.2841 0.1584 0.6347   0.041682
 H 0.395 0.2608 0.6088   0.066655
 H 0.5607 0.1588 0.4905   0.13267
 H 0.3711 0.157 0.4535   0.129341
 C 0.0459 0.1458 0.165   0.360414
 C 0.8628 0.118 0.1771   -0.312317
 C 0.7568 0.2083 0.2229   0.171265
 C 0.647 0.3845 0.1825   0.170528
 C 0.6987 0.4907 0.1328   -0.314304
 C 0.7009 0.4893 0.0123   0.366181
 C 0.5459 0.8542 0.835   0.360414
 C 0.3628 0.882 0.8229   -0.312317
 C 0.2568 0.7917 0.7771   0.171265
 C 0.147 0.6155 0.8175   0.170528
 C 0.1987 0.5093 0.8672   -0.314304
 C 0.2009 0.5107 0.9877   0.366181
 C 0.2959 0.835 0.1458   0.360414
 C 0.1128 0.8229 0.118   -0.312319
 C 0.0068 0.7771 0.2083   0.171265
 C 0.897 0.8175 0.3845   0.170527
 C 0.9487 0.8672 0.4907   -0.314304
 C 0.9509 0.9877 0.4893   0.366181
 C 0.7959 0.165 0.8542   0.360414
 C 0.6128 0.1771 0.882   -0.312319
 C 0.5068 0.2229 0.7917   0.171265
 C 0.397 0.1825 0.6155   0.170527
 C 0.4487 0.1328 0.5093   -0.314304
 C 0.4509 0.0123 0.5107   0.366181
 N 0.1037 0.2254 0.1007   -0.254856
 N 0.2751 0.225 0.1081   -0.082269
 N 0.3202 0.146 0.1726   -0.102379
 N 0.1775 0.0952 0.2104   -0.29461
 N 0.7974 0.4222 0.9543   -0.27669
 N 0.7666 0.444 0.8491   -0.092801
 N 0.6578 0.5224 0.8432   -0.111689
 N 0.614 0.5518 0.9465   -0.277407
 N 0.6037 0.7746 0.8993   -0.254856
 N 0.7751 0.775 0.8919   -0.082268
 N 0.8202 0.854 0.8274   -0.102379
 N 0.6775 0.9048 0.7896   -0.29461
 N 0.2974 0.5778 0.0457   -0.276691
 N 0.2666 0.556 0.1509   -0.092801
 N 0.1578 0.4776 0.1568   -0.111687
 N 0.114 0.4482 0.0535   -0.277408
 N 0.3537 0.8993 0.2254   -0.254856
 N 0.5251 0.8919 0.225   -0.082268
 N 0.5702 0.8274 0.146   -0.102377
 N 0.4275 0.7896 0.0952   -0.294611
 N 0.0474 0.0457 0.4222   -0.276691
 N 0.0166 0.1509 0.444   -0.092799
 N 0.9078 0.1568 0.5224   -0.111688
 N 0.864 0.0535 0.5518   -0.277407
 N 0.8537 0.1007 0.7746   -0.254856
 N 0.0251 0.1081 0.775   -0.082267
 N 0.0702 0.1726 0.854   -0.102377
 N 0.9275 0.2104 0.9048   -0.294611
 N 0.5474 0.9543 0.5778   -0.276691
 N 0.5166 0.8491 0.556   -0.092799
 N 0.4078 0.8432 0.4776   -0.111686
 N 0.364 0.9465 0.4482   -0.277408
 O 0.765 0.301 0.1513   -0.375344
 O 0.265 0.699 0.8487   -0.375344
 O 0.015 0.8487 0.301   -0.375343
 O 0.515 0.1513 0.699   -0.375343
