{'_ref': 'TBD', '_srcid': 'CAKYAQ_clean', 'submitters': [{'name': 'Dalar Nazarian Jeff Camp and David Sholl', 'email': 'dalar@gatech.edu jcamp6@gatech.edu'}], '_method': 'VASP DFT with PBE;DDEC'}
data_CuH8C6N8O
_symmetry_space_group_name_H-M   'P 1'
_cell_length_a   7.92260000
_cell_length_b   12.37510000
_cell_length_c   12.37510000
_cell_angle_alpha   90.00000000
_cell_angle_beta   90.00000000
_cell_angle_gamma   90.00000000
_symmetry_Int_Tables_number   1
_chemical_formula_structural   CuH8C6N8O
_chemical_formula_sum   'Cu4 H32 C24 N32 O4'
_cell_volume   1213.29152414
_cell_formula_units_Z   4
loop_
 _symmetry_equiv_pos_site_id
 _symmetry_equiv_pos_as_xyz
  1  'x, y, z'
loop_
 _atom_site_label
 _atom_site_fract_x
 _atom_site_fract_y
 _atom_site_fract_z
 _atom_site_charge
 Cu 0.07073 0.82295 0.51425   0.687566
 Cu 0.82073 0.48575 0.82295   0.687566
 Cu 0.57073 0.17705 0.48575   0.687566
 Cu 0.32073 0.51425 0.17705   0.687566
 H 0.218 0.5972 0.607   0.135906
 H 0.968 0.393 0.5972   0.135907
 H 0.718 0.4028 0.393   0.135907
 H 0.468 0.607 0.4028   0.135909
 H 0.1838 0.5564 0.7248   0.135168
 H 0.9338 0.2752 0.5564   0.135168
 H 0.6838 0.4436 0.2752   0.135168
 H 0.4338 0.7248 0.4436   0.135168
 H 0.2411 0.7284 0.7924   0.043023
 H 0.9911 0.2076 0.7284   0.043023
 H 0.7411 0.2716 0.2076   0.043023
 H 0.4911 0.7924 0.2716   0.043023
 H 0.3969 0.6844 0.7274   0.042686
 H 0.1469 0.2726 0.6844   0.042686
 H 0.8969 0.3156 0.2726   0.042686
 H 0.6469 0.7274 0.3156   0.042686
 H 0.5019 0.8659 0.6575   0.042362
 H 0.2519 0.3425 0.8659   0.042362
 H 0.0019 0.1341 0.3425   0.042362
 H 0.7519 0.6575 0.1341   0.042362
 H 0.3914 0.8912 0.7598   0.066148
 H 0.1414 0.2402 0.8912   0.066149
 H 0.8914 0.1088 0.2402   0.066149
 H 0.6414 0.7598 0.1088   0.06615
 H 0.2264 0.0087 0.6594   0.131923
 H 0.9764 0.3406 0.0087   0.131923
 H 0.7264 0.9913 0.3406   0.131923
 H 0.4764 0.6594 0.9913   0.131923
 H 0.4154 0.0455 0.6572   0.130675
 H 0.1654 0.3428 0.0455   0.130675
 H 0.9154 0.9545 0.3428   0.130675
 H 0.6654 0.6572 0.9545   0.130675
 C 0.9915 0.6458 0.6649   0.362218
 C 0.7415 0.3351 0.6458   0.362218
 C 0.4915 0.3542 0.3351   0.362218
 C 0.2415 0.6649 0.3542   0.362218
 C 0.1739 0.6182 0.677   -0.312928
 C 0.9239 0.323 0.6182   -0.312928
 C 0.6739 0.3818 0.323   -0.312928
 C 0.4239 0.677 0.3818   -0.312929
 C 0.2808 0.7084 0.721   0.172748
 C 0.0308 0.279 0.7084   0.172748
 C 0.7808 0.2916 0.279   0.172748
 C 0.5308 0.721 0.2916   0.172748
 C 0.3892 0.8846 0.6817   0.173439
 C 0.1392 0.3183 0.8846   0.173439
 C 0.8892 0.1154 0.3183   0.173439
 C 0.6392 0.6817 0.1154   0.173439
 C 0.3378 0.99 0.633   -0.316385
 C 0.0878 0.367 0.99   -0.316385
 C 0.8378 0.01 0.367   -0.316385
 C 0.5878 0.633 0.01   -0.316385
 C 0.3344 0.99 0.5127   0.3633
 C 0.0844 0.4873 0.99   0.3633
 C 0.8344 0.01 0.4873   0.3633
 C 0.5844 0.5127 0.01   0.3633
 N 0.9351 0.7248 0.6   -0.251586
 N 0.6851 0.4 0.7248   -0.251586
 N 0.4351 0.2752 0.4   -0.251586
 N 0.1851 0.6 0.2752   -0.251586
 N 0.7649 0.7242 0.6071   -0.086143
 N 0.5149 0.3929 0.7242   -0.086143
 N 0.2649 0.2758 0.3929   -0.086143
 N 0.0149 0.6071 0.2758   -0.086143
 N 0.7194 0.6461 0.6725   -0.105434
 N 0.4694 0.3275 0.6461   -0.105434
 N 0.2194 0.3539 0.3275   -0.105434
 N 0.9694 0.6725 0.3539   -0.105434
 N 0.8616 0.5964 0.7102   -0.288751
 N 0.6116 0.2898 0.5964   -0.288751
 N 0.3616 0.4036 0.2898   -0.288751
 N 0.1116 0.7102 0.4036   -0.288751
 N 0.239 0.9229 0.4542   -0.268693
 N 0.989 0.5458 0.9229   -0.268693
 N 0.739 0.0771 0.5458   -0.268693
 N 0.489 0.4542 0.0771   -0.268693
 N 0.2693 0.9458 0.351   -0.095157
 N 0.0193 0.649 0.9458   -0.095157
 N 0.7693 0.0542 0.649   -0.095157
 N 0.5193 0.351 0.0542   -0.095157
 N 0.378 0.0239 0.3458   -0.118975
 N 0.128 0.6542 0.0239   -0.118975
 N 0.878 0.9761 0.6542   -0.118975
 N 0.628 0.3458 0.9761   -0.118975
 N 0.4206 0.0523 0.4481   -0.268578
 N 0.1706 0.5519 0.0523   -0.268578
 N 0.9206 0.9477 0.5519   -0.268578
 N 0.6706 0.4481 0.9477   -0.268578
 O 0.2727 0.8002 0.6509   -0.374534
 O 0.0227 0.3491 0.8002   -0.374534
 O 0.7727 0.1998 0.3491   -0.374534
 O 0.5227 0.6509 0.1998   -0.374534
