{'_ref': 'TBD', '_srcid': 'CAKYAQ_clean', 'submitters': [{'name': 'Dalar Nazarian Jeff Camp and David Sholl', 'email': 'dalar@gatech.edu jcamp6@gatech.edu'}], '_method': 'VASP DFT with PBE;DDEC'}
data_PrH3C6SO6
_symmetry_space_group_name_H-M   'P 1'
_cell_length_a   11.52880000
_cell_length_b   12.35646933
_cell_length_c   21.86100000
_cell_angle_alpha   90.00000000
_cell_angle_beta   90.00000000
_cell_angle_gamma   117.80773097
_symmetry_Int_Tables_number   1
_chemical_formula_structural   PrH3C6SO6
_chemical_formula_sum   'Pr8 H24 C48 S8 O48'
_cell_volume   2754.5789131
_cell_formula_units_Z   8
loop_
 _symmetry_equiv_pos_site_id
 _symmetry_equiv_pos_as_xyz
  1  'x, y, z'
loop_
 _atom_site_label
 _atom_site_fract_x
 _atom_site_fract_y
 _atom_site_fract_z
 _atom_site_charge
 Pr 0.95752 0.0 0.34657   2.259433
 Pr 0.04248 0.0 0.84657   2.259433
 Pr 0.95752 0.0 0.15343   2.259421
 Pr 0.04248 0.0 0.65343   2.259421
 Pr 0.08946 0.81312 0.25   2.156673
 Pr 0.91054 0.18688 0.75   2.156673
 Pr 0.27634 0.18688 0.25   2.156218
 Pr 0.72366 0.81312 0.75   2.156218
 H 0.9857 0.5612 0.3863   0.100597
 H 0.9881 0.2212 0.4733   0.088354
 H 0.0143 0.4388 0.8863   0.100597
 H 0.0119 0.7788 0.9733   0.088354
 H 0.4245 0.4388 0.1137   0.100606
 H 0.7669 0.7788 0.0267   0.088152
 H 0.5755 0.5612 0.6137   0.100606
 H 0.2331 0.2212 0.5267   0.088152
 H 0.0143 0.4388 0.6137   0.100597
 H 0.0119 0.7788 0.5267   0.088354
 H 0.9857 0.5612 0.1137   0.100597
 H 0.9881 0.2212 0.0267   0.088354
 H 0.5755 0.5612 0.8863   0.100605
 H 0.2331 0.2212 0.9733   0.088152
 H 0.4245 0.4388 0.3863   0.100605
 H 0.7669 0.7788 0.4733   0.088152
 H 0.1933 0.0 0.3457   0.48139
 H 0.8067 0.0 0.8457   0.48139
 H 0.1933 0.0 0.1543   0.48139
 H 0.8067 0.0 0.6543   0.48139
 H 0.8469 0.8116 0.25   0.496556
 H 0.1531 0.1884 0.75   0.496556
 H 0.0353 0.1884 0.25   0.496602
 H 0.9647 0.8116 0.75   0.496602
 C 0.002 0.7756 0.4048   0.773054
 C 0.000399999999999 0.6834 0.449   -0.168785
 C 0.9925 0.576 0.4282   -0.002738
 C 0.9942 0.4874 0.4675   0.081315
 C 0.9889 0.3754 0.4476   -0.229036
 C 0.9916 0.2936 0.4877   0.014485
 C 0.998 0.2244 0.9048   0.773054
 C 0.9996 0.3166 0.949   -0.168785
 C 0.0075 0.424 0.9282   -0.002738
 C 0.0058 0.5126 0.9675   0.081315
 C 0.0111 0.6246 0.9476   -0.229036
 C 0.0084 0.7064 0.9877   0.014485
 C 0.2264 0.2244 0.0952   0.775125
 C 0.317 0.3166 0.051   -0.169405
 C 0.4165 0.424 0.0718   -0.002273
 C 0.5068 0.5126 0.0325   0.080928
 C 0.6135 0.6246 0.0524   -0.229607
 C 0.698 0.7064 0.0123   0.015348
 C 0.7736 0.7756 0.5952   0.775125
 C 0.683 0.6834 0.551   -0.169405
 C 0.5835 0.576 0.5718   -0.002273
 C 0.4932 0.4874 0.5325   0.080928
 C 0.3865 0.3754 0.5524   -0.229607
 C 0.302 0.2936 0.5123   0.015348
 C 0.998 0.2244 0.5952   0.773055
 C 0.9996 0.3166 0.551   -0.168792
 C 0.0075 0.424 0.5718   -0.002737
 C 0.0058 0.5126 0.5325   0.08129
 C 0.0111 0.6246 0.5524   -0.229037
 C 0.0084 0.7064 0.5123   0.01448
 C 0.002 0.7756 0.0952   0.773055
 C 0.000399999999999 0.6834 0.051   -0.168792
 C 0.9925 0.576 0.0718   -0.002737
 C 0.9942 0.4874 0.0325   0.08129
 C 0.9889 0.3754 0.0524   -0.229037
 C 0.9916 0.2936 0.0123   0.01448
 C 0.7736 0.7756 0.9048   0.775124
 C 0.683 0.6834 0.949   -0.169415
 C 0.5835 0.576 0.9282   -0.002271
 C 0.4932 0.4874 0.9675   0.080899
 C 0.3865 0.3754 0.9476   -0.229607
 C 0.302 0.2936 0.9877   0.015341
 C 0.2264 0.2244 0.4048   0.775124
 C 0.317 0.3166 0.449   -0.169415
 C 0.4165 0.424 0.4282   -0.002271
 C 0.5068 0.5126 0.4675   0.080899
 C 0.6135 0.6246 0.4476   -0.229607
 C 0.698 0.7064 0.4877   0.015341
 S 0.98012 0.34036 0.36795   1.400204
 S 0.01988 0.65964 0.86795   1.400204
 S 0.63976 0.65964 0.13205   1.400682
 S 0.36024 0.34036 0.63205   1.400682
 S 0.01988 0.65964 0.63205   1.400199
 S 0.98012 0.34036 0.13205   1.400199
 S 0.36024 0.34036 0.86795   1.400677
 S 0.63976 0.65964 0.36795   1.400677
 O 0.9997 0.7488 0.3485   -0.791292
 O 0.0064 0.8732 0.4235   -0.648162
 O 0.9681 0.2192 0.363   -0.834618
 O 0.8681 0.349 0.3438   -0.624888
 O 0.1025 0.4342 0.3423   -0.624807
 O 0.000300000000003 0.2512 0.8485   -0.791292
 O 0.9936 0.1268 0.9235   -0.648162
 O 0.0319 0.7808 0.863   -0.834618
 O 0.1319 0.651 0.8438   -0.624888
 O 0.8975 0.5658 0.8423   -0.624807
 O 0.2509 0.2512 0.1515   -0.791782
 O 0.1332 0.1268 0.0765   -0.64896
 O 0.7489 0.7808 0.137   -0.834384
 O 0.5191 0.651 0.1562   -0.624944
 O 0.6683 0.5658 0.1577   -0.625512
 O 0.7491 0.7488 0.6515   -0.791782
 O 0.8668 0.8732 0.5765   -0.64896
 O 0.2511 0.2192 0.637   -0.834384
 O 0.4809 0.349 0.6562   -0.624944
 O 0.3317 0.4342 0.6577   -0.625512
 O 0.000300000000003 0.2512 0.6515   -0.791296
 O 0.9936 0.1268 0.5765   -0.64816
 O 0.0319 0.7808 0.637   -0.834618
 O 0.1319 0.651 0.6562   -0.624892
 O 0.8975 0.5658 0.6577   -0.624811
 O 0.9997 0.7488 0.1515   -0.791296
 O 0.0064 0.8732 0.0765   -0.64816
 O 0.9681 0.2192 0.137   -0.834618
 O 0.8681 0.349 0.1562   -0.624892
 O 0.1025 0.4342 0.1577   -0.624811
 O 0.7491 0.7488 0.8485   -0.791786
 O 0.8668 0.8732 0.9235   -0.648959
 O 0.2511 0.2192 0.863   -0.834384
 O 0.4809 0.349 0.8438   -0.624947
 O 0.3317 0.4342 0.8423   -0.625518
 O 0.2509 0.2512 0.3485   -0.791786
 O 0.1332 0.1268 0.4235   -0.648959
 O 0.7489 0.7808 0.363   -0.834384
 O 0.5191 0.651 0.3438   -0.624947
 O 0.6683 0.5658 0.3423   -0.625518
 O 0.1597 0.0 0.3111   -1.260313
 O 0.8403 0.0 0.8111   -1.260313
 O 0.1597 0.0 0.1889   -1.260313
 O 0.8403 0.0 0.6889   -1.260313
 O 0.9163 0.8798 0.25   -1.200834
 O 0.0837 0.1202 0.75   -1.200834
 O 0.0365 0.1202 0.25   -1.201426
 O 0.9635 0.8798 0.75   -1.201426
