{'_ref': 'TBD', '_srcid': 'CAKYAQ_clean', 'submitters': [{'name': 'Dalar Nazarian Jeff Camp and David Sholl', 'email': 'dalar@gatech.edu jcamp6@gatech.edu'}], '_method': 'VASP DFT with PBE;DDEC'}
data_GdH12(C7O2)3
_symmetry_space_group_name_H-M   'P 1'
_cell_length_a   8.80600023
_cell_length_b   15.60310044
_cell_length_c   19.23820000
_cell_angle_alpha   67.85200054
_cell_angle_beta   76.76960249
_cell_angle_gamma   73.60919952
_symmetry_Int_Tables_number   1
_chemical_formula_structural   GdH12(C7O2)3
_chemical_formula_sum   'Gd4 H48 C84 O24'
_cell_volume   2326.37996718
_cell_formula_units_Z   4
loop_
 _symmetry_equiv_pos_site_id
 _symmetry_equiv_pos_as_xyz
  1  'x, y, z'
loop_
 _atom_site_label
 _atom_site_fract_x
 _atom_site_fract_y
 _atom_site_fract_z
 _atom_site_charge
 Gd 0.90772 0.72371 0.78112   2.243595
 Gd 0.41255 0.77629 0.71888   2.243742
 Gd 0.09228 0.27629 0.21888   2.243592
 Gd 0.58745 0.22371 0.28112   2.24374
 H 0.9338 0.4382 0.7394   0.10486
 H 0.9561 0.3493 0.6623   0.110275
 H 0.601 0.5459 0.5531   0.097248
 H 0.5913 0.6403 0.6241   0.060386
 H 0.0381 0.3774 0.513   0.104288
 H 0.0619 0.3059 0.4237   0.097956
 H 0.5929 0.3006 0.4766   0.102694
 H 0.5664 0.3744 0.5656   0.109927
 H 0.5556 0.4401 0.8127   0.110105
 H 0.6366 0.2892 0.8024   0.10087
 H 0.2479 0.3392 0.7028   0.10271
 H 0.1639 0.4891 0.7153   0.091888
 H 0.1114 0.0618 0.7606   0.104766
 H 0.9677 0.1507 0.8377   0.110349
 H 0.7 0.9541 0.9469   0.096922
 H 0.8557 0.8597 0.8759   0.06026
 H 0.9285 0.1226 0.987   0.104276
 H 0.7915 0.1941 0.0763   0.098543
 H 0.3701 0.1994 0.0234   0.102009
 H 0.5064 0.1256 0.9344   0.109939
 H 0.8084 0.0599 0.6873   0.109429
 H 0.7282 0.2108 0.6976   0.101298
 H 0.2899 0.1608 0.7972   0.102927
 H 0.3683 0.0109 0.7847   0.091536
 H 0.0662 0.5618 0.2606   0.10486
 H 0.0439 0.6507 0.3377   0.110275
 H 0.399 0.4541 0.4469   0.097249
 H 0.4087 0.3597 0.3759   0.060387
 H 0.9619 0.6226 0.487   0.104289
 H 0.9381 0.6941 0.5763   0.097956
 H 0.4071 0.6994 0.5234   0.102694
 H 0.4336 0.6256 0.4344   0.109927
 H 0.4444 0.5599 0.1873   0.110105
 H 0.3634 0.7108 0.1976   0.10087
 H 0.7521 0.6608 0.2972   0.10271
 H 0.8361 0.5109 0.2847   0.091888
 H 0.8886 0.9382 0.2394   0.104766
 H 0.0323 0.8493 0.1623   0.110349
 H 0.3 0.0459 0.0531   0.096922
 H 0.1443 0.1403 0.1241   0.06026
 H 0.0715 0.8774 0.013   0.104276
 H 0.2085 0.8059 0.9237   0.098543
 H 0.6299 0.8006 0.9766   0.102009
 H 0.4936 0.8744 0.0656   0.109939
 H 0.1916 0.9401 0.3127   0.109429
 H 0.2718 0.7892 0.3024   0.101298
 H 0.7101 0.8392 0.2028   0.102927
 H 0.6317 0.9891 0.2153   0.091536
 C 0.76654 0.61142 0.7311   0.742995
 C 0.76417 0.54969 0.68757   -0.169908
 C 0.86932 0.46166 0.6999   -0.011529
 C 0.88068 0.4079 0.65494   -0.157676
 C 0.78217 0.43934 0.59912   0.072545
 C 0.67212 0.52506 0.5895   -0.142696
 C 0.66467 0.58081 0.63245   0.010774
 C 0.79838 0.38601 0.54683   0.059813
 C 0.94664 0.36333 0.50499   -0.152968
 C 0.9607 0.32051 0.45209   -0.007405
 C 0.82937 0.29848 0.43978   -0.178105
 C 0.68285 0.31752 0.48318   -0.014572
 C 0.66718 0.36133 0.53631   -0.153539
 C 0.8456 0.25764 0.37856   0.812095
 C 0.29634 0.57595 0.77297   0.790232
 C 0.35133 0.47904 0.7657   -0.163438
 C 0.49201 0.4194 0.79098   -0.02575
 C 0.54028 0.32973 0.78471   -0.151456
 C 0.44874 0.29832 0.7526   0.06004
 C 0.30975 0.3591 0.726   -0.164961
 C 0.26022 0.44866 0.7329   -0.01813
 C 0.10906 0.88858 0.7689   0.743738
 C 0.00143 0.95031 0.81243   -0.169489
 C 0.03088 0.03834 0.8001   -0.012115
 C 0.94352 0.0921 0.84506   -0.156806
 C 0.82063 0.06066 0.90088   0.07107
 C 0.78668 0.97494 0.9105   -0.141936
 C 0.87793 0.91919 0.86755   0.01055
 C 0.73122 0.11399 0.95317   0.061129
 C 0.81496 0.13667 0.99501   -0.153336
 C 0.7333 0.17949 0.04791   -0.008543
 C 0.56763 0.20152 0.06022   -0.178209
 C 0.48355 0.18248 0.01682   -0.01387
 C 0.56482 0.13867 0.96369   -0.153864
 C 0.4818 0.24236 0.12144   0.811146
 C 0.64526 0.92405 0.72703   0.79064
 C 0.59607 0.02096 0.7343   -0.164274
 C 0.70239 0.0806 0.70902   -0.023973
 C 0.65472 0.17027 0.71529   -0.152962
 C 0.49966 0.20168 0.7474   0.060727
 C 0.39485 0.1409 0.774   -0.166002
 C 0.44178 0.05134 0.7671   -0.016579
 C 0.23346 0.38858 0.2689   0.742995
 C 0.23583 0.45031 0.31243   -0.169908
 C 0.13068 0.53834 0.3001   -0.01153
 C 0.11932 0.5921 0.34506   -0.157676
 C 0.21783 0.56066 0.40088   0.072545
 C 0.32788 0.47494 0.4105   -0.142696
 C 0.33533 0.41919 0.36755   0.010774
 C 0.20162 0.61399 0.45317   0.059813
 C 0.05336 0.63667 0.49501   -0.152969
 C 0.0393 0.67949 0.54791   -0.007405
 C 0.17063 0.70152 0.56022   -0.178105
 C 0.31715 0.68248 0.51682   -0.014573
 C 0.33282 0.63867 0.46369   -0.153539
 C 0.1544 0.74236 0.62144   0.812095
 C 0.70366 0.42405 0.22703   0.790231
 C 0.64867 0.52096 0.2343   -0.163438
 C 0.50799 0.5806 0.20902   -0.02575
 C 0.45972 0.67027 0.21529   -0.151456
 C 0.55126 0.70168 0.2474   0.06004
 C 0.69025 0.6409 0.274   -0.164961
 C 0.73978 0.55134 0.2671   -0.01813
 C 0.89094 0.11142 0.2311   0.743738
 C 0.99857 0.04969 0.18757   -0.169489
 C 0.96912 0.96166 0.1999   -0.012115
 C 0.05648 0.9079 0.15494   -0.156807
 C 0.17937 0.93934 0.09912   0.07107
 C 0.21332 0.02506 0.0895   -0.141936
 C 0.12207 0.08081 0.13245   0.01055
 C 0.26878 0.88601 0.04683   0.061129
 C 0.18504 0.86333 0.00499   -0.153337
 C 0.2667 0.82051 0.95209   -0.008543
 C 0.43237 0.79848 0.93978   -0.178209
 C 0.51645 0.81752 0.98318   -0.013871
 C 0.43518 0.86133 0.03631   -0.153864
 C 0.5182 0.75764 0.87856   0.811146
 C 0.35474 0.07595 0.27297   0.79064
 C 0.40393 0.97904 0.2657   -0.164273
 C 0.29761 0.9194 0.29098   -0.023973
 C 0.34528 0.82973 0.28471   -0.152962
 C 0.50034 0.79832 0.2526   0.060727
 C 0.60515 0.8591 0.226   -0.166002
 C 0.55822 0.94866 0.2329   -0.016579
 O 0.85635 0.57886 0.7814   -0.656698
 O 0.68867 0.69685 0.71289   -0.849228
 O 0.98471 0.23773 0.34483   -0.703291
 O 0.72096 0.24712 0.36384   -0.796337
 O 0.14882 0.61028 0.77768   -0.759952
 O 0.40117 0.6165 0.77332   -0.70783
 O 0.21661 0.92114 0.7186   -0.656789
 O 0.09841 0.80315 0.78711   -0.849473
 O 0.56727 0.26227 0.15517   -0.702994
 O 0.33192 0.25288 0.13616   -0.795259
 O 0.53678 0.88972 0.72232   -0.760739
 O 0.79099 0.8835 0.72668   -0.70761
 O 0.14365 0.42114 0.2186   -0.656698
 O 0.31133 0.30315 0.28711   -0.849228
 O 0.01529 0.76227 0.65517   -0.703291
 O 0.27904 0.75288 0.63616   -0.796337
 O 0.85118 0.38972 0.22232   -0.759952
 O 0.59883 0.3835 0.22668   -0.70783
 O 0.78339 0.07886 0.2814   -0.656789
 O 0.90159 0.19685 0.21289   -0.849472
 O 0.43273 0.73773 0.84483   -0.702994
 O 0.66808 0.74712 0.86384   -0.795259
 O 0.46322 0.11028 0.27768   -0.760738
 O 0.20901 0.1165 0.27332   -0.70761
