{'_ref': 'TBD', '_srcid': 'CAKYAQ_clean', 'submitters': [{'name': 'Dalar Nazarian Jeff Camp and David Sholl', 'email': 'dalar@gatech.edu jcamp6@gatech.edu'}], '_method': 'VASP DFT with PBE;DDEC'}
data_CdH10(C9O2)2
_symmetry_space_group_name_H-M   'P 1'
_cell_length_a   10.45950020
_cell_length_b   14.39199988
_cell_length_c   14.76340000
_cell_angle_alpha   69.60800146
_cell_angle_beta   82.47600219
_cell_angle_gamma   88.04300000
_symmetry_Int_Tables_number   1
_chemical_formula_structural   CdH10(C9O2)2
_chemical_formula_sum   'Cd3 H30 C54 O12'
_cell_volume   2065.01280232
_cell_formula_units_Z   3
loop_
 _symmetry_equiv_pos_site_id
 _symmetry_equiv_pos_as_xyz
  1  'x, y, z'
loop_
 _atom_site_label
 _atom_site_fract_x
 _atom_site_fract_y
 _atom_site_fract_z
 _atom_site_charge
 Cd 0.91459 0.88767 0.81152   1.075543
 Cd 0.08541 0.11233 0.18848   1.075543
 Cd 0.0 0.0 0.0   1.231335
 H 0.7963 0.5097 0.4412   0.111824
 H 0.2037 0.4903 0.5588   0.111825
 H 0.5536 0.5041 0.6802   0.104954
 H 0.4464 0.4959 0.3198   0.104954
 H 0.5196 0.7176 0.4204   0.105359
 H 0.4804 0.2824 0.5796   0.105359
 H 0.9012 0.6658 0.3162   0.108579
 H 0.0988 0.3342 0.6838   0.108579
 H 0.9658 0.7503 0.1519   0.091295
 H 0.0342 0.2497 0.8481   0.091295
 H 0.5945 0.7618 0.0995   0.108027
 H 0.4055 0.2382 0.9005   0.108027
 H 0.5285 0.687 0.2656   0.1006
 H 0.4715 0.313 0.7344   0.1006
 H 0.7693 0.3397 0.5172   0.102328
 H 0.2307 0.6603 0.4828   0.102328
 H 0.8372 0.1839 0.6101   0.110424
 H 0.1628 0.8161 0.3899   0.110424
 H 0.7962 0.2645 0.8482   0.110924
 H 0.2038 0.7355 0.1518   0.110924
 H 0.7228 0.4195 0.7564   0.120006
 H 0.2772 0.5805 0.2436   0.120006
 H 0.3384 0.5377 0.7071   0.099781
 H 0.6616 0.4623 0.2929   0.099781
 H 0.173 0.6112 0.7787   0.110321
 H 0.827 0.3888 0.2213   0.110321
 H 0.2882 0.8804 0.5881   0.10997
 H 0.7118 0.1196 0.4119   0.10997
 H 0.4579 0.8078 0.5182   0.112421
 H 0.5421 0.1922 0.4818   0.112421
 C 0.6657 0.6216 0.4141   0.053743
 C 0.3343 0.3784 0.5859   0.053743
 C 0.7254 0.5367 0.4706   -0.163331
 C 0.2746 0.4633 0.5294   -0.163332
 C 0.6825 0.4911 0.5696   0.049858
 C 0.3175 0.5089 0.4304   0.049858
 C 0.5817 0.5337 0.6125   -0.153816
 C 0.4183 0.4663 0.3875   -0.153816
 C 0.5215 0.6189 0.5581   0.060131
 C 0.4785 0.3811 0.4419   0.060131
 C 0.5625 0.6611 0.4586   -0.159415
 C 0.4375 0.3389 0.5414   -0.159415
 C 0.7082 0.6694 0.3084   0.073678
 C 0.2918 0.3306 0.6916   0.073678
 C 0.8381 0.6874 0.2726   -0.136836
 C 0.1619 0.3126 0.7274   -0.136836
 C 0.8769 0.7362 0.1747   -0.031727
 C 0.1231 0.2638 0.8253   -0.031727
 C 0.7863 0.765 0.1091   -0.177215
 C 0.2137 0.235 0.8909   -0.177215
 C 0.6568 0.7444 0.1438   -0.020791
 C 0.3432 0.2556 0.8562   -0.020791
 C 0.6178 0.6986 0.2426   -0.144898
 C 0.3822 0.3014 0.7574   -0.144898
 C 0.7377 0.3954 0.6273   0.061647
 C 0.2623 0.6046 0.3727   0.061647
 C 0.7733 0.3246 0.5847   -0.138855
 C 0.2267 0.6754 0.4153   -0.138855
 C 0.8147 0.2319 0.64   -0.025382
 C 0.1853 0.7681 0.36   -0.025382
 C 0.8236 0.2085 0.7384   -0.162138
 C 0.1764 0.7915 0.2616   -0.162138
 C 0.7898 0.2793 0.781   -0.028237
 C 0.2102 0.7207 0.219   -0.028237
 C 0.7465 0.3719 0.7261   -0.151789
 C 0.2535 0.6281 0.2739   -0.151789
 C 0.4157 0.6648 0.6049   0.051584
 C 0.5843 0.3352 0.3951   0.051584
 C 0.3294 0.6077 0.6826   -0.14323
 C 0.6706 0.3923 0.3174   -0.14323
 C 0.2304 0.6515 0.7251   -0.04067
 C 0.7696 0.3485 0.2749   -0.040669
 C 0.2142 0.7526 0.6907   -0.120724
 C 0.7858 0.2474 0.3093   -0.120724
 C 0.2988 0.8105 0.613   -0.040925
 C 0.7012 0.1895 0.387   -0.040925
 C 0.3995 0.7671 0.5709   -0.148044
 C 0.6005 0.2329 0.4291   -0.148044
 C 0.8291 0.8154 0.0035   0.686999
 C 0.1709 0.1846 0.9965   0.686999
 C 0.8702 0.108 0.7972   0.721138
 C 0.1298 0.892 0.2028   0.721138
 C 0.108 0.8002 0.7372   0.656743
 C 0.892 0.1998 0.2628   0.656743
 O 0.7574 0.8138 0.9423   -0.554714
 O 0.2426 0.1862 0.0577   -0.554714
 O 0.9399 0.8574 0.97685   -0.679003
 O 0.0601 0.1426 0.02315   -0.679003
 O 0.882 0.0927 0.8843   -0.660206
 O 0.118 0.9073 0.1157   -0.660206
 O 0.8901 0.0473 0.753   -0.608091
 O 0.1099 0.9527 0.247   -0.608091
 O 0.094 0.8917 0.7003   -0.615928
 O 0.906 0.1083 0.2997   -0.615928
 O 0.0364 0.7481 0.8098   -0.60758
 O 0.9636 0.2519 0.1902   -0.60758
