{'_ref': 'TBD', '_srcid': 'CAKYAQ_clean', 'submitters': [{'name': 'Dalar Nazarian Jeff Camp and David Sholl', 'email': 'dalar@gatech.edu jcamp6@gatech.edu'}], '_method': 'VASP DFT with PBE;DDEC'}
data_CdH7C5NO4
_symmetry_space_group_name_H-M   'P 1'
_cell_length_a   7.26600000
_cell_length_b   10.77680000
_cell_length_c   11.58570000
_cell_angle_alpha   90.00000000
_cell_angle_beta   90.00000000
_cell_angle_gamma   90.00000000
_symmetry_Int_Tables_number   1
_chemical_formula_structural   CdH7C5NO4
_chemical_formula_sum   'Cd4 H28 C20 N4 O16'
_cell_volume   907.209303608
_cell_formula_units_Z   4
loop_
 _symmetry_equiv_pos_site_id
 _symmetry_equiv_pos_as_xyz
  1  'x, y, z'
loop_
 _atom_site_label
 _atom_site_fract_x
 _atom_site_fract_y
 _atom_site_fract_z
 _atom_site_charge
 Cd 0.11049 0.06645 0.95915   0.998646
 Cd 0.38951 0.93355 0.45915   0.998646
 Cd 0.88951 0.56645 0.54085   0.998646
 Cd 0.61049 0.43355 0.04085   0.998646
 H 0.1493 0.2768 0.2333   0.095653
 H 0.8711 0.2322 0.3184   0.095386
 H 0.0055 0.1212 0.341   0.083609
 H 0.8604 0.007 0.1948   0.117225
 H 0.726 0.1179 0.1723   0.128491
 H 0.3063 0.147 0.1444   0.336953
 H 0.1831 0.052 0.1888   0.319232
 H 0.3507 0.7232 0.7333   0.095653
 H 0.6289 0.7678 0.8184   0.095386
 H 0.4945 0.8788 0.841   0.083609
 H 0.6396 0.993 0.6948   0.117225
 H 0.774 0.8821 0.6723   0.128491
 H 0.1937 0.853 0.6444   0.336953
 H 0.3169 0.948 0.6888   0.319232
 H 0.8507 0.7768 0.2667   0.095653
 H 0.1289 0.7322 0.1816   0.095386
 H 0.9945 0.6212 0.159   0.083609
 H 0.1396 0.507 0.3052   0.117225
 H 0.274 0.6179 0.3277   0.128491
 H 0.6937 0.647 0.3556   0.336953
 H 0.8169 0.552 0.3112   0.319232
 H 0.6493 0.2232 0.7667   0.095653
 H 0.3711 0.2678 0.6816   0.095386
 H 0.5055 0.3788 0.659   0.083609
 H 0.3604 0.493 0.8052   0.117225
 H 0.226 0.3821 0.8277   0.128491
 H 0.8063 0.353 0.8556   0.336953
 H 0.6831 0.448 0.8112   0.319232
 C 0.963 0.288 0.0995   0.63748
 C 0.07 0.2171 0.19334   0.044434
 C 0.9359 0.1641 0.2817   -0.132679
 C 0.7956 0.075 0.23157   -0.308873
 C 0.663 0.0224 0.3189   0.701263
 C 0.537 0.712 0.5995   0.63748
 C 0.43 0.7829 0.69334   0.044434
 C 0.5641 0.8359 0.7817   -0.132679
 C 0.7044 0.925 0.73157   -0.308873
 C 0.837 0.9776 0.8189   0.701263
 C 0.037 0.788 0.4005   0.63748
 C 0.93 0.7171 0.30666   0.044434
 C 0.0641 0.6641 0.2183   -0.132679
 C 0.2044 0.575 0.26843   -0.308873
 C 0.337 0.5224 0.1811   0.701263
 C 0.463 0.212 0.9005   0.63748
 C 0.57 0.2829 0.80666   0.044434
 C 0.4359 0.3359 0.7183   -0.132679
 C 0.2956 0.425 0.76843   -0.308873
 C 0.163 0.4776 0.6811   0.701263
 N 0.1891 0.11999 0.14387   -0.675105
 N 0.3109 0.88001 0.64387   -0.675105
 N 0.8109 0.61999 0.35613   -0.675105
 N 0.6891 0.38001 0.85613   -0.675105
 O 0.9713 0.25266 0.99656   -0.590389
 O 0.8685 0.37727 0.13511   -0.604631
 O 0.5261 0.96154 0.281   -0.630286
 O 0.6842 0.03756 0.42501   -0.616406
 O 0.5287 0.74734 0.49656   -0.590389
 O 0.6315 0.62273 0.63511   -0.604631
 O 0.9739 0.03846 0.781   -0.630287
 O 0.8158 0.96244 0.92501   -0.616407
 O 0.0287 0.75266 0.50344   -0.59039
 O 0.1315 0.87727 0.36489   -0.604631
 O 0.4739 0.46154 0.219   -0.630286
 O 0.3158 0.53756 0.07499   -0.616406
 O 0.4713 0.24734 0.00344   -0.59039
 O 0.3685 0.12273 0.86489   -0.604631
 O 0.0261 0.53846 0.719   -0.630287
 O 0.1842 0.46244 0.57499   -0.616407
