{'_ref': 'TBD', '_srcid': 'CAKYAQ_clean', 'submitters': [{'name': 'Dalar Nazarian Jeff Camp and David Sholl', 'email': 'dalar@gatech.edu jcamp6@gatech.edu'}], '_method': 'VASP DFT with PBE;DDEC'}
data_CdC5NO4
_symmetry_space_group_name_H-M   'P 1'
_cell_length_a   7.24700000
_cell_length_b   10.71800000
_cell_length_c   11.54500000
_cell_angle_alpha   90.00000000
_cell_angle_beta   90.00000000
_cell_angle_gamma   90.00000000
_symmetry_Int_Tables_number   1
_chemical_formula_structural   CdC5NO4
_chemical_formula_sum   'Cd4 C20 N4 O16'
_cell_volume   896.73877957
_cell_formula_units_Z   4
loop_
 _symmetry_equiv_pos_site_id
 _symmetry_equiv_pos_as_xyz
  1  'x, y, z'
loop_
 _atom_site_label
 _atom_site_fract_x
 _atom_site_fract_y
 _atom_site_fract_z
 _atom_site_charge
 Cd 0.3612 0.6839 0.2101   1.117695
 Cd 0.8612 0.3161 0.2899   1.117695
 Cd 0.1388 0.1839 0.7899   1.117695
 Cd 0.6388 0.8161 0.7101   1.117695
 C 0.72 0.536 0.149   0.594572
 C 0.821 0.468 0.055   0.104501
 C 0.684 0.418 0.961   0.031585
 C 0.55 0.315 0.018   -0.106442
 C 0.412 0.274 0.928   0.626569
 C 0.22 0.464 0.351   0.594572
 C 0.321 0.532 0.445   0.104501
 C 0.184 0.582 0.539   0.031585
 C 0.05 0.685 0.482   -0.106442
 C 0.912 0.726 0.572   0.626569
 C 0.78 0.036 0.851   0.594571
 C 0.679 0.968 0.945   0.1045
 C 0.816 0.918 0.039   0.031585
 C 0.95 0.815 0.982   -0.106442
 C 0.088 0.774 0.072   0.626568
 C 0.28 0.964 0.649   0.594571
 C 0.179 0.032 0.555   0.1045
 C 0.316 0.082 0.461   0.031585
 C 0.45 0.185 0.518   -0.106442
 C 0.588 0.226 0.428   0.626568
 N 0.938 0.377 0.107   -0.233287
 N 0.438 0.623 0.393   -0.233287
 N 0.562 0.877 0.893   -0.233287
 N 0.062 0.123 0.607   -0.233287
 O 0.719 0.501 0.253   -0.508732
 O 0.616 0.632 0.113   -0.565035
 O 0.271 0.208 0.964   -0.555963
 O 0.431 0.288 0.824   -0.505463
 O 0.219 0.499 0.247   -0.508732
 O 0.116 0.368 0.387   -0.565035
 O 0.771 0.792 0.536   -0.555963
 O 0.931 0.712 0.676   -0.505463
 O 0.781 0.000999999999998 0.747   -0.508732
 O 0.884 0.132 0.887   -0.565034
 O 0.229 0.708 0.036   -0.555962
 O 0.069 0.788 0.176   -0.505462
 O 0.281 0.999 0.753   -0.508732
 O 0.384 0.868 0.613   -0.565034
 O 0.729 0.292 0.464   -0.555962
 O 0.569 0.212 0.324   -0.505462
