{'_ref': 'TBD', '_srcid': 'CAKYAQ_clean', 'submitters': [{'name': 'Dalar Nazarian Jeff Camp and David Sholl', 'email': 'dalar@gatech.edu jcamp6@gatech.edu'}], '_method': 'VASP DFT with PBE;DDEC'}
data_Ba3P4H8C4(NO6)2
_symmetry_space_group_name_H-M   'P 1'
_cell_length_a   7.18619968
_cell_length_b   13.48360031
_cell_length_c   13.48360000
_cell_angle_alpha   60.56899916
_cell_angle_beta   82.46710190
_cell_angle_gamma   82.46710068
_symmetry_Int_Tables_number   1
_chemical_formula_structural   Ba3P4H8C4(NO6)2
_chemical_formula_sum   'Ba6 P8 H16 C8 N4 O24'
_cell_volume   1124.70872054
_cell_formula_units_Z   2
loop_
 _symmetry_equiv_pos_site_id
 _symmetry_equiv_pos_as_xyz
  1  'x, y, z'
loop_
 _atom_site_label
 _atom_site_fract_x
 _atom_site_fract_y
 _atom_site_fract_z
 _atom_site_charge
 Ba 0.10959 0.33181 0.15129   1.722295
 Ba 0.39041 0.84871 0.66819   1.722295
 Ba 0.89041 0.66819 0.84871   1.722296
 Ba 0.60959 0.15129 0.33181   1.722295
 Ba 0.25 0.10062 0.89938   1.637545
 Ba 0.75 0.89938 0.10062   1.637543
 P 0.64534 0.43978 0.14568   1.436265
 P 0.10205 0.80278 0.96584   1.518999
 P 0.85466 0.85432 0.56022   1.436265
 P 0.39795 0.03416 0.19722   1.518999
 P 0.35466 0.56022 0.85432   1.436265
 P 0.89795 0.19722 0.03416   1.518999
 P 0.14534 0.14568 0.43978   1.436265
 P 0.60205 0.96584 0.80278   1.518999
 H 0.622 0.606 0.124   0.155459
 H 0.473 0.558 0.21   0.168496
 H 0.27 0.728 0.126   0.142655
 H 0.399 0.792 0.014   0.170611
 H 0.878 0.876 0.394   0.155459
 H 0.027 0.79 0.442   0.168498
 H 0.23 0.874 0.272   0.142655
 H 0.101 0.986 0.208   0.17061
 H 0.378 0.394 0.876   0.155459
 H 0.527 0.442 0.79   0.168499
 H 0.73 0.272 0.874   0.142655
 H 0.601 0.208 0.986   0.170611
 H 0.122 0.124 0.606   0.155459
 H 0.973 0.21 0.558   0.1685
 H 0.77 0.126 0.728   0.142654
 H 0.899 0.014 0.792   0.17061
 C 0.5312 0.5692 0.1442   -0.402147
 C 0.3075 0.73885 0.04885   -0.475806
 C 0.9688 0.8558 0.4308   -0.402148
 C 0.1925 0.95115 0.26115   -0.475806
 C 0.4688 0.4308 0.8558   -0.402149
 C 0.6925 0.26115 0.95115   -0.475806
 C 0.0312 0.1442 0.5692   -0.402149
 C 0.8075 0.04885 0.73885   -0.475806
 N 0.39 0.62832 0.05732   0.159952
 N 0.11 0.94268 0.37168   0.159952
 N 0.61 0.37168 0.94268   0.159952
 N 0.89 0.05732 0.62832   0.159952
 O 0.7901 0.47637 0.04397   -0.885133
 O 0.49 0.37629 0.14009   -0.822546
 O 0.7382 0.37257 0.25857   -0.855117
 O 0.1475 0.80695 0.85155   -0.929512
 O 0.0709 0.91848 0.96148   -0.978412
 O 0.9369 0.73059 0.03399   -0.944833
 O 0.7099 0.95603 0.52363   -0.885133
 O 0.01 0.85991 0.62371   -0.822545
 O 0.7618 0.74143 0.62743   -0.855118
 O 0.3525 0.14845 0.19305   -0.929512
 O 0.4291 0.03852 0.08152   -0.978412
 O 0.5631 0.96601 0.26941   -0.944833
 O 0.2099 0.52363 0.95603   -0.885133
 O 0.51 0.62371 0.85991   -0.822546
 O 0.2618 0.62743 0.74143   -0.855117
 O 0.8525 0.19305 0.14845   -0.929512
 O 0.9291 0.08152 0.03852   -0.978412
 O 0.0631 0.26941 0.96601   -0.944833
 O 0.2901 0.04397 0.47637   -0.885133
 O 0.99 0.14009 0.37629   -0.822545
 O 0.2382 0.25857 0.37257   -0.855118
 O 0.6475 0.85155 0.80695   -0.929512
 O 0.5709 0.96148 0.91848   -0.978412
 O 0.4369 0.03399 0.73059   -0.944833
