{'_ref': 'TBD', '_srcid': 'CAKYAQ_clean', 'submitters': [{'name': 'Dalar Nazarian Jeff Camp and David Sholl', 'email': 'dalar@gatech.edu jcamp6@gatech.edu'}], '_method': 'VASP DFT with PBE;DDEC'}
data_Dy2Mn3H18C42(NO4)6
_symmetry_space_group_name_H-M   'P 1'
_cell_length_a   15.27700000
_cell_length_b   15.27699992
_cell_length_c   15.77600000
_cell_angle_alpha   90.00000000
_cell_angle_beta   90.00000000
_cell_angle_gamma   120.00000018
_symmetry_Int_Tables_number   1
_chemical_formula_structural   Dy2Mn3H18C42(NO4)6
_chemical_formula_sum   'Dy4 Mn6 H36 C84 N12 O48'
_cell_volume   3188.62673765
_cell_formula_units_Z   2
loop_
 _symmetry_equiv_pos_site_id
 _symmetry_equiv_pos_as_xyz
  1  'x, y, z'
loop_
 _atom_site_label
 _atom_site_fract_x
 _atom_site_fract_y
 _atom_site_fract_z
 _atom_site_charge
 Dy 0.33333 0.66666 0.75   2.133032
 Dy 0.66667 0.33334 0.75   2.133032
 Dy 0.66667 0.33334 0.25   2.133033
 Dy 0.33333 0.66666 0.25   2.133033
 Mn 0.5 0.0 0.0   1.26496
 Mn 0.5 0.5 0.0   1.265646
 Mn 0.0 0.5 0.0   1.265924
 Mn 0.5 0.0 0.5   1.26496
 Mn 0.0 0.5 0.5   1.265646
 Mn 0.5 0.5 0.5   1.265925
 H 0.7108 0.9438 0.8444   0.116817
 H 0.233 0.2892 0.8444   0.116866
 H 0.0562 0.767 0.8444   0.116818
 H 0.2892 0.0562 0.8444   0.116807
 H 0.767 0.7108 0.8444   0.116865
 H 0.9438 0.233 0.8444   0.116816
 H 0.767 0.0562 0.6556   0.116817
 H 0.9438 0.7108 0.6556   0.116866
 H 0.2892 0.233 0.6556   0.116819
 H 0.233 0.9438 0.6556   0.116806
 H 0.0562 0.2892 0.6556   0.116864
 H 0.7108 0.767 0.6556   0.116816
 H 0.2892 0.0562 0.1556   0.116807
 H 0.767 0.7108 0.1556   0.116864
 H 0.9438 0.233 0.1556   0.116816
 H 0.7108 0.9438 0.1556   0.116815
 H 0.233 0.2892 0.1556   0.116863
 H 0.0562 0.767 0.1556   0.116816
 H 0.233 0.9438 0.3444   0.116807
 H 0.0562 0.2892 0.3444   0.116864
 H 0.7108 0.767 0.3444   0.116816
 H 0.767 0.0562 0.3444   0.116815
 H 0.9438 0.7108 0.3444   0.116863
 H 0.2892 0.233 0.3444   0.116815
 H 0.7999 0.89995 0.75   0.086203
 H 0.10005 0.2001 0.75   0.086237
 H 0.10005 0.89995 0.75   0.086301
 H 0.2001 0.10005 0.75   0.086293
 H 0.89995 0.7999 0.75   0.086228
 H 0.89995 0.10005 0.75   0.086194
 H 0.2001 0.10005 0.25   0.086301
 H 0.89995 0.7999 0.25   0.086237
 H 0.89995 0.10005 0.25   0.086203
 H 0.7999 0.89995 0.25   0.086194
 H 0.10005 0.2001 0.25   0.086228
 H 0.10005 0.89995 0.25   0.086293
 C 0.50577 0.86245 0.85897   0.686934
 C 0.57177 0.83865 0.80277   0.138915
 C 0.6767 0.89153 0.80576   -0.126846
 C 0.35668 0.49423 0.85897   0.68695
 C 0.26688 0.42823 0.80277   0.139045
 C 0.21483 0.3233 0.80576   -0.126902
 C 0.13755 0.64332 0.85897   0.687028
 C 0.16135 0.73312 0.80277   0.138918
 C 0.10847 0.78517 0.80576   -0.126903
 C 0.49423 0.13755 0.85897   0.686934
 C 0.42823 0.16135 0.80277   0.138919
 C 0.3233 0.10847 0.80576   -0.126849
 C 0.64332 0.50577 0.85897   0.68695
 C 0.73312 0.57177 0.80277   0.139045
 C 0.78517 0.6767 0.80576   -0.126904
 C 0.86245 0.35668 0.85897   0.687023
 C 0.83865 0.26688 0.80277   0.138925
 C 0.89153 0.21483 0.80576   -0.126865
 C 0.64332 0.13755 0.64103   0.686933
 C 0.73312 0.16135 0.69723   0.138916
 C 0.78517 0.10847 0.69424   -0.126846
 C 0.86245 0.50577 0.64103   0.68695
 C 0.83865 0.57177 0.69723   0.139045
 C 0.89153 0.6767 0.69424   -0.126903
 C 0.49423 0.35668 0.64103   0.687027
 C 0.42823 0.26688 0.69723   0.138919
 C 0.3233 0.21483 0.69424   -0.126904
 C 0.35668 0.86245 0.64103   0.686934
 C 0.26688 0.83865 0.69723   0.138919
 C 0.21483 0.89153 0.69424   -0.126848
 C 0.13755 0.49423 0.64103   0.68695
 C 0.16135 0.42823 0.69723   0.139044
 C 0.10847 0.3233 0.69424   -0.126903
 C 0.50577 0.64332 0.64103   0.687022
 C 0.57177 0.73312 0.69723   0.138925
 C 0.6767 0.78517 0.69424   -0.126864
 C 0.49423 0.13755 0.14103   0.686935
 C 0.42823 0.16135 0.19723   0.138919
 C 0.3233 0.10847 0.19424   -0.126848
 C 0.64332 0.50577 0.14103   0.686951
 C 0.73312 0.57177 0.19723   0.139044
 C 0.78517 0.6767 0.19424   -0.126902
 C 0.86245 0.35668 0.14103   0.687023
 C 0.83865 0.26688 0.19723   0.138925
 C 0.89153 0.21483 0.19424   -0.126863
 C 0.50577 0.86245 0.14103   0.686934
 C 0.57177 0.83865 0.19723   0.138915
 C 0.6767 0.89153 0.19424   -0.126846
 C 0.35668 0.49423 0.14103   0.68695
 C 0.26688 0.42823 0.19723   0.139044
 C 0.21483 0.3233 0.19424   -0.126902
 C 0.13755 0.64332 0.14103   0.687028
 C 0.16135 0.73312 0.19723   0.138918
 C 0.10847 0.78517 0.19424   -0.126903
 C 0.35668 0.86245 0.35897   0.686935
 C 0.26688 0.83865 0.30277   0.138919
 C 0.21483 0.89153 0.30576   -0.126849
 C 0.13755 0.49423 0.35897   0.68695
 C 0.16135 0.42823 0.30277   0.139044
 C 0.10847 0.3233 0.30576   -0.126903
 C 0.50577 0.64332 0.35897   0.687023
 C 0.57177 0.73312 0.30277   0.138925
 C 0.6767 0.78517 0.30576   -0.126864
 C 0.64332 0.13755 0.35897   0.686934
 C 0.73312 0.16135 0.30277   0.138915
 C 0.78517 0.10847 0.30576   -0.126844
 C 0.86245 0.50577 0.35897   0.68695
 C 0.83865 0.57177 0.30277   0.139044
 C 0.89153 0.6767 0.30576   -0.1269
 C 0.49423 0.35668 0.35897   0.687027
 C 0.42823 0.26688 0.30277   0.138918
 C 0.3233 0.21483 0.30576   -0.126901
 C 0.72956 0.86478 0.75   -0.021378
 C 0.13522 0.27044 0.75   -0.021312
 C 0.13522 0.86479 0.75   -0.021437
 C 0.27043 0.13521 0.75   -0.021434
 C 0.86478 0.72956 0.75   -0.021309
 C 0.86478 0.13522 0.75   -0.021375
 C 0.27043 0.13521 0.25   -0.021437
 C 0.86478 0.72956 0.25   -0.021313
 C 0.86478 0.13522 0.25   -0.021378
 C 0.72956 0.86478 0.25   -0.021375
 C 0.13522 0.27044 0.25   -0.02131
 C 0.13522 0.86479 0.25   -0.021434
 N 0.51997 0.75999 0.75   -0.426314
 N 0.24002 0.48004 0.75   -0.42656
 N 0.24002 0.75999 0.75   -0.426308
 N 0.48003 0.24001 0.75   -0.426308
 N 0.75998 0.51996 0.75   -0.42656
 N 0.75998 0.24001 0.75   -0.426314
 N 0.48003 0.24001 0.25   -0.426308
 N 0.75998 0.51996 0.25   -0.42656
 N 0.75998 0.24001 0.25   -0.426314
 N 0.51997 0.75999 0.25   -0.426314
 N 0.24002 0.48004 0.25   -0.42656
 N 0.24002 0.75999 0.25   -0.426308
 O 0.54973 0.93568 0.90625   -0.632185
 O 0.41351 0.80139 0.85452   -0.674783
 O 0.38595 0.45027 0.90625   -0.632254
 O 0.38788 0.58649 0.85452   -0.674734
 O 0.06432 0.61405 0.90625   -0.632292
 O 0.19861 0.61212 0.85452   -0.674767
 O 0.45027 0.06432 0.90625   -0.632183
 O 0.58649 0.19861 0.85452   -0.674783
 O 0.61405 0.54973 0.90625   -0.632254
 O 0.61212 0.41351 0.85452   -0.674734
 O 0.93568 0.38595 0.90625   -0.632291
 O 0.80139 0.38788 0.85452   -0.674766
 O 0.61405 0.06432 0.59375   -0.632185
 O 0.61212 0.19861 0.64548   -0.674783
 O 0.93568 0.54973 0.59375   -0.632255
 O 0.80139 0.41351 0.64548   -0.674734
 O 0.45027 0.38595 0.59375   -0.632291
 O 0.58649 0.38788 0.64548   -0.674766
 O 0.38595 0.93568 0.59375   -0.632182
 O 0.38788 0.80139 0.64548   -0.674783
 O 0.06432 0.45027 0.59375   -0.632255
 O 0.19861 0.58649 0.64548   -0.674733
 O 0.54973 0.61405 0.59375   -0.632291
 O 0.41351 0.61212 0.64548   -0.674766
 O 0.45027 0.06432 0.09375   -0.632183
 O 0.58649 0.19861 0.14548   -0.674784
 O 0.61405 0.54973 0.09375   -0.632255
 O 0.61212 0.41351 0.14548   -0.674734
 O 0.93568 0.38595 0.09375   -0.632292
 O 0.80139 0.38788 0.14548   -0.674766
 O 0.54973 0.93568 0.09375   -0.632185
 O 0.41351 0.80139 0.14548   -0.674783
 O 0.38595 0.45027 0.09375   -0.632254
 O 0.38788 0.58649 0.14548   -0.674734
 O 0.06432 0.61405 0.09375   -0.632292
 O 0.19861 0.61212 0.14548   -0.674767
 O 0.38595 0.93568 0.40625   -0.632182
 O 0.38788 0.80139 0.35452   -0.674783
 O 0.06432 0.45027 0.40625   -0.632255
 O 0.19861 0.58649 0.35452   -0.674734
 O 0.54973 0.61405 0.40625   -0.632292
 O 0.41351 0.61212 0.35452   -0.674766
 O 0.61405 0.06432 0.40625   -0.632185
 O 0.61212 0.19861 0.35452   -0.674783
 O 0.93568 0.54973 0.40625   -0.632255
 O 0.80139 0.41351 0.35452   -0.674734
 O 0.45027 0.38595 0.40625   -0.632291
 O 0.58649 0.38788 0.35452   -0.674766
