{'_ref': 'TBD', '_srcid': 'CAKYAQ_clean', 'submitters': [{'name': 'Dalar Nazarian Jeff Camp and David Sholl', 'email': 'dalar@gatech.edu jcamp6@gatech.edu'}], '_method': 'VASP DFT with PBE;DDEC'}
data_AgH5(C2N)2
_symmetry_space_group_name_H-M   'P 1'
_cell_length_a   11.11370000
_cell_length_b   12.68360035
_cell_length_c   19.72600000
_cell_angle_alpha   90.00000000
_cell_angle_beta   90.00000000
_cell_angle_gamma   101.83500025
_symmetry_Int_Tables_number   1
_chemical_formula_structural   AgH5(C2N)2
_chemical_formula_sum   'Ag16 H80 C64 N32'
_cell_volume   2721.50163523
_cell_formula_units_Z   16
loop_
 _symmetry_equiv_pos_site_id
 _symmetry_equiv_pos_as_xyz
  1  'x, y, z'
loop_
 _atom_site_label
 _atom_site_fract_x
 _atom_site_fract_y
 _atom_site_fract_z
 _atom_site_charge
 Ag 0.6423 0.65442 0.0476   0.296918
 Ag 0.76515 0.24512 0.16705   0.306104
 Ag 0.8589 0.84004 0.02988   0.294004
 Ag 0.48587 0.76418 0.76511   0.30564
 Ag 0.8577 0.34558 0.5476   0.296918
 Ag 0.73485 0.75488 0.66705   0.306103
 Ag 0.6411 0.15996 0.52988   0.294005
 Ag 0.01413 0.23582 0.26511   0.305639
 Ag 0.3577 0.34558 0.9524   0.296918
 Ag 0.23485 0.75488 0.83295   0.306103
 Ag 0.1411 0.15996 0.97012   0.294004
 Ag 0.51413 0.23582 0.23489   0.305639
 Ag 0.1423 0.65442 0.4524   0.296918
 Ag 0.26515 0.24512 0.33295   0.306103
 Ag 0.3589 0.84004 0.47012   0.294004
 Ag 0.98587 0.76418 0.73489   0.305639
 H 0.6837 0.6241 0.2135   0.103912
 H 0.732 0.4591 0.2629   0.10464
 H 0.7095 0.4598 0.0032   0.124246
 H 0.8086 0.3941 0.0299   0.130637
 H 0.665 0.3415 0.034   0.134558
 H 0.8005 0.0245 0.2557   0.097363
 H 0.8443 0.8621 0.2004   0.104671
 H 0.7701 0.1577 0.0376   0.125929
 H 0.8668 0.0923 0.0076   0.113791
 H 0.7229 0.0405 0.0058   0.121711
 H 0.4493 0.6155 0.5241   0.104036
 H 0.4879 0.5836 0.6454   0.110569
 H 0.3492 0.9365 0.5942   0.125887
 H 0.4413 0.9496 0.6574   0.127977
 H 0.301 0.8893 0.6668   0.131622
 H 0.5385 0.8801 0.0146   0.108557
 H 0.4838 0.9284 0.8984   0.105647
 H 0.6002 0.6139 0.8285   0.126814
 H 0.5593 0.5542 0.8988   0.120366
 H 0.698 0.6178 0.8885   0.129237
 H 0.8163 0.3759 0.7135   0.103913
 H 0.768 0.5409 0.7629   0.10464
 H 0.7905 0.5402 0.5032   0.124246
 H 0.6914 0.6059 0.5299   0.130638
 H 0.835 0.6585 0.534   0.134558
 H 0.6995 0.9755 0.7557   0.097363
 H 0.6557 0.1379 0.7004   0.104671
 H 0.7299 0.8423 0.5376   0.125929
 H 0.6332 0.9077 0.5076   0.113791
 H 0.7771 0.9595 0.5058   0.121711
 H 0.0507 0.3845 0.0241   0.104037
 H 0.0121 0.4164 0.1454   0.110569
 H 0.1508 0.0635 0.0942   0.125887
 H 0.0587 0.0504 0.1574   0.127977
 H 0.199 0.1107 0.1668   0.131622
 H 0.9615 0.1199 0.5146   0.108557
 H 0.0162 0.0716 0.3984   0.105647
 H 0.8998 0.3861 0.3285   0.126814
 H 0.9407 0.4458 0.3988   0.120366
 H 0.802 0.3822 0.3885   0.129237
 H 0.3163 0.3759 0.7865   0.103912
 H 0.268 0.5409 0.7371   0.10464
 H 0.2905 0.5402 0.9968   0.124246
 H 0.1914 0.6059 0.9701   0.130637
 H 0.335 0.6585 0.966   0.134558
 H 0.1995 0.9755 0.7443   0.097362
 H 0.1557 0.1379 0.7996   0.104671
 H 0.2299 0.8423 0.9624   0.125929
 H 0.1332 0.9077 0.9924   0.113791
 H 0.2771 0.9595 0.9942   0.121712
 H 0.5507 0.3845 0.4759   0.104038
 H 0.5121 0.4164 0.3546   0.11057
 H 0.6508 0.0635 0.4058   0.125888
 H 0.5587 0.0504 0.3426   0.127977
 H 0.699 0.1107 0.3332   0.131621
 H 0.4615 0.1199 0.9854   0.108558
 H 0.5162 0.0716 0.1016   0.105647
 H 0.3998 0.3861 0.1715   0.126814
 H 0.4407 0.4458 0.1012   0.120366
 H 0.302 0.3822 0.1115   0.129237
 H 0.1837 0.6241 0.2865   0.103912
 H 0.232 0.4591 0.2371   0.10464
 H 0.2095 0.4598 0.4968   0.124246
 H 0.3086 0.3941 0.4701   0.130638
 H 0.165 0.3415 0.466   0.134558
 H 0.3005 0.0245 0.2443   0.097363
 H 0.3443 0.8621 0.2996   0.104671
 H 0.2701 0.1577 0.4624   0.125929
 H 0.3668 0.0923 0.4924   0.113791
 H 0.2229 0.0405 0.4942   0.121712
 H 0.9493 0.6155 0.9759   0.104039
 H 0.9879 0.5836 0.8546   0.11057
 H 0.8492 0.9365 0.9058   0.125888
 H 0.9413 0.9496 0.8426   0.127977
 H 0.801 0.8893 0.8332   0.131621
 H 0.0385 0.8801 0.4854   0.108558
 H 0.9838 0.9284 0.6016   0.105648
 H 0.1002 0.6139 0.6715   0.126814
 H 0.0593 0.5542 0.6012   0.120366
 H 0.198 0.6178 0.6115   0.129237
 C 0.7206 0.4562 0.1065   0.408694
 C 0.698 0.5635 0.1887   -0.051864
 C 0.7249 0.473 0.2159   -0.047166
 C 0.7264 0.4088 0.0374   -0.434977
 C 0.7985 0.0367 0.0998   0.403859
 C 0.8037 0.0132 0.2082   -0.058497
 C 0.8275 0.9237 0.1778   -0.039111
 C 0.7888 0.086 0.0319   -0.419021
 C 0.4052 0.7973 0.6181   0.414528
 C 0.4406 0.6622 0.5606   -0.050147
 C 0.4619 0.6447 0.6273   -0.058239
 C 0.3713 0.9022 0.6356   -0.426557
 C 0.5781 0.7174 0.9046   0.407695
 C 0.5444 0.8398 0.9746   -0.051633
 C 0.5145 0.8663 0.9105   -0.047967
 C 0.6118 0.6172 0.8778   -0.42495
 C 0.7794 0.5438 0.6065   0.408694
 C 0.802 0.4365 0.6887   -0.051864
 C 0.7751 0.527 0.7159   -0.047166
 C 0.7736 0.5912 0.5374   -0.434977
 C 0.7015 0.9633 0.5998   0.403859
 C 0.6963 0.9868 0.7082   -0.058497
 C 0.6725 0.0763 0.6778   -0.039111
 C 0.7112 0.914 0.5319   -0.419021
 C 0.0948 0.2027 0.1181   0.414528
 C 0.0594 0.3378 0.0606   -0.050147
 C 0.0381 0.3553 0.1273   -0.058239
 C 0.1287 0.0978 0.1356   -0.426557
 C 0.9219 0.2826 0.4046   0.407695
 C 0.9556 0.1602 0.4746   -0.051633
 C 0.9855 0.1337 0.4105   -0.047967
 C 0.8882 0.3828 0.3778   -0.42495
 C 0.2794 0.5438 0.8935   0.408694
 C 0.302 0.4365 0.8113   -0.051864
 C 0.2751 0.527 0.7841   -0.047166
 C 0.2736 0.5912 0.9626   -0.434977
 C 0.2015 0.9633 0.9002   0.403859
 C 0.1963 0.9868 0.7918   -0.058497
 C 0.1725 0.0763 0.8222   -0.039111
 C 0.2112 0.914 0.9681   -0.419022
 C 0.5948 0.2027 0.3819   0.414528
 C 0.5594 0.3378 0.4394   -0.050147
 C 0.5381 0.3553 0.3727   -0.058239
 C 0.6287 0.0978 0.3644   -0.426557
 C 0.4219 0.2826 0.0954   0.407695
 C 0.4556 0.1602 0.0254   -0.051634
 C 0.4855 0.1337 0.0895   -0.047967
 C 0.3882 0.3828 0.1222   -0.42495
 C 0.2206 0.4562 0.3935   0.408694
 C 0.198 0.5635 0.3113   -0.051864
 C 0.2249 0.473 0.2841   -0.047166
 C 0.2264 0.4088 0.4626   -0.434977
 C 0.2985 0.0367 0.4002   0.403859
 C 0.3037 0.0132 0.2918   -0.058497
 C 0.3275 0.9237 0.3222   -0.039111
 C 0.2888 0.086 0.4681   -0.419022
 C 0.9052 0.7973 0.8819   0.414528
 C 0.9406 0.6622 0.9394   -0.050148
 C 0.9619 0.6447 0.8727   -0.058239
 C 0.8713 0.9022 0.8644   -0.426557
 C 0.0781 0.7174 0.5954   0.407695
 C 0.0444 0.8398 0.5254   -0.051634
 C 0.0145 0.8663 0.5895   -0.047967
 C 0.1118 0.6172 0.6222   -0.42495
 N 0.6947 0.5529 0.1189   -0.387059
 N 0.7403 0.4043 0.1637   -0.388726
 N 0.785 0.0854 0.1587   -0.378542
 N 0.8232 0.9375 0.1082   -0.39292
 N 0.4044 0.7591 0.5554   -0.374692
 N 0.4391 0.7311 0.664   -0.391185
 N 0.5358 0.7891 0.867   -0.377996
 N 0.5847 0.7445 0.9708   -0.388366
 N 0.8053 0.4471 0.6189   -0.387059
 N 0.7597 0.5957 0.6637   -0.388726
 N 0.715 0.9146 0.6587   -0.378542
 N 0.6768 0.0625 0.6082   -0.39292
 N 0.0956 0.2409 0.0554   -0.374692
 N 0.0609 0.2689 0.164   -0.391185
 N 0.9642 0.2109 0.367   -0.377996
 N 0.9153 0.2555 0.4708   -0.388366
 N 0.3053 0.4471 0.8811   -0.387059
 N 0.2597 0.5957 0.8363   -0.388726
 N 0.215 0.9146 0.8413   -0.378542
 N 0.1768 0.0625 0.8918   -0.39292
 N 0.5956 0.2409 0.4446   -0.374692
 N 0.5609 0.2689 0.336   -0.391185
 N 0.4642 0.2109 0.133   -0.377996
 N 0.4153 0.2555 0.0292   -0.388366
 N 0.1947 0.5529 0.3811   -0.387059
 N 0.2403 0.4043 0.3363   -0.388726
 N 0.285 0.0854 0.3413   -0.378542
 N 0.3232 0.9375 0.3918   -0.392921
 N 0.9044 0.7591 0.9446   -0.374691
 N 0.9391 0.7311 0.836   -0.391185
 N 0.0358 0.7891 0.633   -0.377996
 N 0.0847 0.7445 0.5292   -0.388366
