{'_ref': 'TBD', '_srcid': 'CAKYAQ_clean', 'submitters': [{'name': 'Dalar Nazarian Jeff Camp and David Sholl', 'email': 'dalar@gatech.edu jcamp6@gatech.edu'}], '_method': 'VASP DFT with PBE;DDEC'}
data_Cd4H9(C3O2)9
_symmetry_space_group_name_H-M   'P 1'
_cell_length_a   10.35030000
_cell_length_b   10.35030000
_cell_length_c   52.55700000
_cell_angle_alpha   90.00000000
_cell_angle_beta   90.00000000
_cell_angle_gamma   90.00000000
_symmetry_Int_Tables_number   1
_chemical_formula_structural   Cd4H9(C3O2)9
_chemical_formula_sum   'Cd16 H36 C108 O72'
_cell_volume   5630.3636162
_cell_formula_units_Z   4
loop_
 _symmetry_equiv_pos_site_id
 _symmetry_equiv_pos_as_xyz
  1  'x, y, z'
loop_
 _atom_site_label
 _atom_site_fract_x
 _atom_site_fract_y
 _atom_site_fract_z
 _atom_site_charge
 Cd 0.64155 0.94028 0.97639   1.16929
 Cd 0.85467 0.75707 0.17117   1.098448
 Cd 0.35845 0.05972 0.47639   1.16929
 Cd 0.14533 0.24293 0.67117   1.098448
 Cd 0.05972 0.64155 0.22639   1.169289
 Cd 0.24293 0.85467 0.42117   1.098448
 Cd 0.94028 0.35845 0.72639   1.169289
 Cd 0.75707 0.14533 0.92117   1.098448
 Cd 0.35845 0.94028 0.02361   1.16929
 Cd 0.14533 0.75707 0.82883   1.098448
 Cd 0.64155 0.05972 0.52361   1.16929
 Cd 0.85467 0.24293 0.32883   1.098448
 Cd 0.94028 0.64155 0.77361   1.169289
 Cd 0.75707 0.85467 0.57883   1.098448
 Cd 0.05972 0.35845 0.27361   1.169289
 Cd 0.24293 0.14533 0.07883   1.098448
 H 0.6641 0.8801 0.0869   0.112143
 H 0.0511 0.8729 0.0927   0.113929
 H 0.8827 0.9455 0.0251   0.107897
 H 0.6069 0.5209 0.9684   0.114507
 H 0.3359 0.1199 0.5869   0.112143
 H 0.9489 0.1271 0.5927   0.113929
 H 0.1173 0.0545 0.5251   0.107897
 H 0.3931 0.4791 0.4684   0.114507
 H 0.1199 0.6641 0.3369   0.112143
 H 0.1271 0.0511 0.3427   0.113929
 H 0.0545 0.8827 0.2751   0.107897
 H 0.4791 0.6069 0.2184   0.114507
 H 0.8801 0.3359 0.8369   0.112143
 H 0.8729 0.9489 0.8427   0.113929
 H 0.9455 0.1173 0.7751   0.107897
 H 0.5209 0.3931 0.7184   0.114507
 H 0.3359 0.8801 0.9131   0.112143
 H 0.9489 0.8729 0.9073   0.113929
 H 0.1173 0.9455 0.9749   0.107896
 H 0.3931 0.5209 0.0316   0.114507
 H 0.6641 0.1199 0.4131   0.112143
 H 0.0511 0.1271 0.4073   0.113929
 H 0.8827 0.0545 0.4749   0.107896
 H 0.6069 0.4791 0.5316   0.114507
 H 0.8801 0.6641 0.6631   0.112143
 H 0.8729 0.0511 0.6573   0.113929
 H 0.9455 0.8827 0.7249   0.107896
 H 0.5209 0.6069 0.7816   0.114507
 H 0.1199 0.3359 0.1631   0.112143
 H 0.1271 0.9489 0.1573   0.113929
 H 0.0545 0.1173 0.2249   0.107896
 H 0.4791 0.3931 0.2816   0.114507
 H 0.5 0.1841 0.0   0.076676
 H 0.5 0.8159 0.5   0.076676
 H 0.8159 0.5 0.25   0.076676
 H 0.1841 0.5 0.75   0.076676
 C 0.6318 0.9493 0.03949   0.705315
 C 0.7551 0.9198 0.05405   -0.172731
 C 0.7452 0.8883 0.07941   0.031031
 C 0.8577 0.868 0.09429   -0.154688
 C 0.9767 0.8815 0.08296   0.02067
 C 0.9875 0.908 0.05699   -0.187127
 C 0.8762 0.9275 0.04242   0.046822
 C 0.8479 0.8334 0.12208   0.6606
 C 0.1179 0.9195 0.04559   0.637198
 C 0.6341 0.2703 0.96013   0.694773
 C 0.5664 0.3422 0.98115   -0.164021
 C 0.5644 0.4755 0.98121   0.02865
 C 0.3682 0.0507 0.53949   0.705315
 C 0.2449 0.0802 0.55405   -0.172731
 C 0.2548 0.1117 0.57941   0.031031
 C 0.1423 0.132 0.59429   -0.154688
 C 0.0233 0.1185 0.58296   0.02067
 C 0.0125 0.092 0.55699   -0.187127
 C 0.1238 0.0725 0.54242   0.046822
 C 0.1521 0.1666 0.62208   0.6606
 C 0.8821 0.0805 0.54559   0.637198
 C 0.3659 0.7297 0.46013   0.694773
 C 0.4336 0.6578 0.48115   -0.164021
 C 0.4356 0.5245 0.48121   0.02865
 C 0.0507 0.6318 0.28949   0.705315
 C 0.0802 0.7551 0.30405   -0.172731
 C 0.1117 0.7452 0.32941   0.031031
 C 0.132 0.8577 0.34429   -0.154688
 C 0.1185 0.9767 0.33296   0.02067
 C 0.092 0.9875 0.30699   -0.187127
 C 0.0725 0.8762 0.29242   0.046822
 C 0.1666 0.8479 0.37208   0.6606
 C 0.0805 0.1179 0.29559   0.637198
 C 0.7297 0.6341 0.21013   0.694773
 C 0.6578 0.5664 0.23115   -0.164021
 C 0.5245 0.5644 0.23121   0.02865
 C 0.9493 0.3682 0.78949   0.705315
 C 0.9198 0.2449 0.80405   -0.172731
 C 0.8883 0.2548 0.82941   0.031031
 C 0.868 0.1423 0.84429   -0.154688
 C 0.8815 0.0233 0.83296   0.02067
 C 0.908 0.0125 0.80699   -0.187127
 C 0.9275 0.1238 0.79242   0.046822
 C 0.8334 0.1521 0.87208   0.6606
 C 0.9195 0.8821 0.79559   0.637198
 C 0.2703 0.3659 0.71013   0.694773
 C 0.3422 0.4336 0.73115   -0.164021
 C 0.4755 0.4356 0.73121   0.02865
 C 0.3682 0.9493 0.96051   0.705315
 C 0.2449 0.9198 0.94595   -0.172731
 C 0.2548 0.8883 0.92059   0.031031
 C 0.1423 0.868 0.90571   -0.154688
 C 0.0233 0.8815 0.91704   0.02067
 C 0.0125 0.908 0.94301   -0.187127
 C 0.1238 0.9275 0.95758   0.046822
 C 0.1521 0.8334 0.87792   0.6606
 C 0.8821 0.9195 0.95441   0.637198
 C 0.3659 0.2703 0.03987   0.694773
 C 0.4336 0.3422 0.01885   -0.164021
 C 0.4356 0.4755 0.01879   0.02865
 C 0.6318 0.0507 0.46051   0.705315
 C 0.7551 0.0802 0.44595   -0.172731
 C 0.7452 0.1117 0.42059   0.031031
 C 0.8577 0.132 0.40571   -0.154688
 C 0.9767 0.1185 0.41704   0.02067
 C 0.9875 0.092 0.44301   -0.187127
 C 0.8762 0.0725 0.45758   0.046822
 C 0.8479 0.1666 0.37792   0.6606
 C 0.1179 0.0805 0.45441   0.637198
 C 0.6341 0.7297 0.53987   0.694773
 C 0.5664 0.6578 0.51885   -0.164021
 C 0.5644 0.5245 0.51879   0.02865
 C 0.9493 0.6318 0.71051   0.705315
 C 0.9198 0.7551 0.69595   -0.172731
 C 0.8883 0.7452 0.67059   0.031031
 C 0.868 0.8577 0.65571   -0.154688
 C 0.8815 0.9767 0.66704   0.02067
 C 0.908 0.9875 0.69301   -0.187127
 C 0.9275 0.8762 0.70758   0.046822
 C 0.8334 0.8479 0.62792   0.6606
 C 0.9195 0.1179 0.70441   0.637198
 C 0.2703 0.6341 0.78987   0.694773
 C 0.3422 0.5664 0.76885   -0.164021
 C 0.4755 0.5644 0.76879   0.02865
 C 0.0507 0.3682 0.21051   0.705315
 C 0.0802 0.2449 0.19595   -0.172731
 C 0.1117 0.2548 0.17059   0.031031
 C 0.132 0.1423 0.15571   -0.154688
 C 0.1185 0.0233 0.16704   0.02067
 C 0.092 0.0125 0.19301   -0.187127
 C 0.0725 0.1238 0.20758   0.046822
 C 0.1666 0.1521 0.12792   0.6606
 C 0.0805 0.8821 0.20441   0.637198
 C 0.7297 0.3659 0.28987   0.694773
 C 0.6578 0.4336 0.26885   -0.164021
 C 0.5245 0.4356 0.26879   0.02865
 C 0.5 0.274 0.0   0.052388
 C 0.5 0.5416 0.0   -0.147037
 C 0.5 0.689 0.0   0.70743
 C 0.5 0.726 0.5   0.052388
 C 0.5 0.4584 0.5   -0.147037
 C 0.5 0.311 0.5   0.70743
 C 0.726 0.5 0.25   0.052388
 C 0.4584 0.5 0.25   -0.147037
 C 0.311 0.5 0.25   0.70743
 C 0.274 0.5 0.75   0.052388
 C 0.5416 0.5 0.75   -0.147037
 C 0.689 0.5 0.75   0.70743
 O 0.6405 0.9963 0.01767   -0.640321
 O 0.5286 0.9282 0.05044   -0.555791
 O 0.742 0.8164 0.1321   -0.559885
 O 0.9484 0.8176 0.13398   -0.546385
 O 0.1318 0.9126 0.02165   -0.509521
 O 0.2149 0.9352 0.06019   -0.598914
 O 0.6582 0.1515 0.96322   -0.655821
 O 0.6685 0.3291 0.94072   -0.552383
 O 0.5912 0.7421 0.9885   -0.588413
 O 0.3595 0.0037 0.51767   -0.640321
 O 0.4714 0.0718 0.55044   -0.555791
 O 0.258 0.1836 0.6321   -0.559885
 O 0.0516 0.1824 0.63398   -0.546385
 O 0.8682 0.0874 0.52165   -0.509521
 O 0.7851 0.0648 0.56019   -0.598914
 O 0.3418 0.8485 0.46322   -0.655821
 O 0.3315 0.6709 0.44072   -0.552383
 O 0.4088 0.2579 0.4885   -0.588413
 O 0.0037 0.6405 0.26767   -0.640321
 O 0.0718 0.5286 0.30044   -0.555791
 O 0.1836 0.742 0.3821   -0.559885
 O 0.1824 0.9484 0.38398   -0.546385
 O 0.0874 0.1318 0.27165   -0.509521
 O 0.0648 0.2149 0.31019   -0.598914
 O 0.8485 0.6582 0.21322   -0.655821
 O 0.6709 0.6685 0.19072   -0.552382
 O 0.2579 0.5912 0.2385   -0.588413
 O 0.9963 0.3595 0.76767   -0.640321
 O 0.9282 0.4714 0.80044   -0.555791
 O 0.8164 0.258 0.8821   -0.559885
 O 0.8176 0.0516 0.88398   -0.546385
 O 0.9126 0.8682 0.77165   -0.509521
 O 0.9352 0.7851 0.81019   -0.598914
 O 0.1515 0.3418 0.71322   -0.655821
 O 0.3291 0.3315 0.69072   -0.552382
 O 0.7421 0.4088 0.7385   -0.588413
 O 0.3595 0.9963 0.98233   -0.640321
 O 0.4714 0.9282 0.94956   -0.555791
 O 0.258 0.8164 0.8679   -0.559885
 O 0.0516 0.8176 0.86602   -0.546385
 O 0.8682 0.9126 0.97835   -0.509521
 O 0.7851 0.9352 0.93981   -0.598914
 O 0.3418 0.1515 0.03678   -0.655821
 O 0.3315 0.3291 0.05928   -0.552382
 O 0.4088 0.7421 0.0115   -0.588413
 O 0.6405 0.0037 0.48233   -0.640321
 O 0.5286 0.0718 0.44956   -0.555791
 O 0.742 0.1836 0.3679   -0.559885
 O 0.9484 0.1824 0.36602   -0.546385
 O 0.1318 0.0874 0.47835   -0.509521
 O 0.2149 0.0648 0.43981   -0.598914
 O 0.6582 0.8485 0.53678   -0.655821
 O 0.6685 0.6709 0.55928   -0.552382
 O 0.5912 0.2579 0.5115   -0.588413
 O 0.9963 0.6405 0.73233   -0.640321
 O 0.9282 0.5286 0.69956   -0.555791
 O 0.8164 0.742 0.6179   -0.559885
 O 0.8176 0.9484 0.61602   -0.546385
 O 0.9126 0.1318 0.72835   -0.509521
 O 0.9352 0.2149 0.68981   -0.598914
 O 0.1515 0.6582 0.78678   -0.655821
 O 0.3291 0.6685 0.80928   -0.552382
 O 0.7421 0.5912 0.7615   -0.588413
 O 0.0037 0.3595 0.23233   -0.640321
 O 0.0718 0.4714 0.19956   -0.555791
 O 0.1836 0.258 0.1179   -0.559885
 O 0.1824 0.0516 0.11602   -0.546385
 O 0.0874 0.8682 0.22835   -0.509521
 O 0.0648 0.7851 0.18981   -0.598914
 O 0.8485 0.3418 0.28678   -0.655821
 O 0.6709 0.3315 0.30928   -0.552382
 O 0.2579 0.4088 0.2615   -0.588413
