{'_ref': 'TBD', '_srcid': 'CAKYAQ_clean', 'submitters': [{'name': 'Dalar Nazarian Jeff Camp and David Sholl', 'email': 'dalar@gatech.edu jcamp6@gatech.edu'}], '_method': 'VASP DFT with PBE;DDEC'}
data_CdH10C4(BrN)2
_symmetry_space_group_name_H-M   'P 1'
_cell_length_a   6.97490039
_cell_length_b   8.33359965
_cell_length_c   8.33360000
_cell_angle_alpha   113.74499995
_cell_angle_beta   90.82519811
_cell_angle_gamma   90.82520242
_symmetry_Int_Tables_number   1
_chemical_formula_structural   CdH10C4(BrN)2
_chemical_formula_sum   'Cd2 H20 C8 Br4 N4'
_cell_volume   443.239055917
_cell_formula_units_Z   2
loop_
 _symmetry_equiv_pos_site_id
 _symmetry_equiv_pos_as_xyz
  1  'x, y, z'
loop_
 _atom_site_label
 _atom_site_fract_x
 _atom_site_fract_y
 _atom_site_fract_z
 _atom_site_charge
 Cd 0.75 0.92885 0.07115   0.688421
 Cd 0.25 0.07115 0.92885   0.68842
 H 0.051 0.012 0.302   0.240609
 H 0.8611 0.2304 0.4568   0.077471
 H 0.7555 0.1016 0.5228   0.055763
 H 0.8562 0.7863 0.4003   0.067284
 H 0.0208 0.7324 0.2634   0.070038
 H 0.449 0.698 0.988   0.240609
 H 0.6389 0.5432 0.7696   0.07748
 H 0.7445 0.4772 0.8984   0.055763
 H 0.6438 0.5997 0.2137   0.067288
 H 0.4792 0.7366 0.2676   0.070037
 H 0.949 0.988 0.698   0.240608
 H 0.1389 0.7696 0.5432   0.077477
 H 0.2445 0.8984 0.4772   0.055759
 H 0.1438 0.2137 0.5997   0.067287
 H 0.9792 0.2676 0.7366   0.070036
 H 0.551 0.302 0.012   0.240608
 H 0.3611 0.4568 0.2304   0.077487
 H 0.2555 0.5228 0.1016   0.05576
 H 0.3562 0.4003 0.7863   0.067291
 H 0.5208 0.2634 0.7324   0.070034
 C 0.8777 0.1287 0.4843   0.001488
 C 0.9741 0.82682 0.36718   0.00567
 C 0.6223 0.5157 0.8713   0.001485
 C 0.5259 0.63282 0.17318   0.00567
 C 0.1223 0.8713 0.5157   0.001491
 C 0.0259 0.17318 0.63282   0.005674
 C 0.3777 0.4843 0.1287   0.001488
 C 0.4741 0.36718 0.82682   0.005674
 Br 0.42677 0.1025 0.24818   -0.477686
 Br 0.07323 0.75182 0.8975   -0.477686
 Br 0.57323 0.8975 0.75182   -0.477684
 Br 0.92677 0.24818 0.1025   -0.477685
 N 0.9336 0.9794 0.3256   -0.384857
 N 0.5664 0.6744 0.0206   -0.384856
 N 0.0664 0.0206 0.6744   -0.384857
 N 0.4336 0.3256 0.9794   -0.384856
