{'_ref': 'TBD', '_srcid': 'CAKYAQ_clean', 'submitters': [{'name': 'Dalar Nazarian Jeff Camp and David Sholl', 'email': 'dalar@gatech.edu jcamp6@gatech.edu'}], '_method': 'VASP DFT with PBE;DDEC'}
data_CdH8C4(BrN)2
_symmetry_space_group_name_H-M   'P 1'
_cell_length_a   6.97490039
_cell_length_b   8.33359965
_cell_length_c   8.33360000
_cell_angle_alpha   113.74499995
_cell_angle_beta   90.82519811
_cell_angle_gamma   90.82520242
_symmetry_Int_Tables_number   1
_chemical_formula_structural   CdH8C4(BrN)2
_chemical_formula_sum   'Cd2 H16 C8 Br4 N4'
_cell_volume   443.239055917
_cell_formula_units_Z   2
loop_
 _symmetry_equiv_pos_site_id
 _symmetry_equiv_pos_as_xyz
  1  'x, y, z'
loop_
 _atom_site_label
 _atom_site_fract_x
 _atom_site_fract_y
 _atom_site_fract_z
 _atom_site_charge
 Cd 0.75 0.92887 0.07113   0.691996
 Cd 0.25 0.07113 0.92887   0.691996
 H 0.8569 0.7867 0.4019   0.090956
 H 0.0206 0.7319 0.2643   0.077588
 H 0.1403 0.7695 0.5423   0.088056
 H 0.2446 0.8987 0.4763   0.081198
 H 0.6431 0.5981 0.2133   0.090961
 H 0.4794 0.7357 0.2681   0.07759
 H 0.3597 0.4577 0.2305   0.088062
 H 0.2554 0.5237 0.1013   0.081198
 H 0.1431 0.2133 0.5981   0.090957
 H 0.9794 0.2681 0.7357   0.077589
 H 0.8597 0.2305 0.4577   0.088058
 H 0.7554 0.1013 0.5237   0.081198
 H 0.3569 0.4019 0.7867   0.090962
 H 0.5206 0.2643 0.7319   0.07759
 H 0.6403 0.5423 0.7695   0.088064
 H 0.7446 0.4763 0.8987   0.081199
 C 0.9746 0.8268 0.368   -0.025542
 C 0.1229 0.8711 0.5151   -0.029636
 C 0.5254 0.632 0.1732   -0.025544
 C 0.3771 0.4849 0.1289   -0.029637
 C 0.0254 0.1732 0.632   -0.025543
 C 0.8771 0.1289 0.4849   -0.029636
 C 0.4746 0.368 0.8268   -0.025544
 C 0.6229 0.5151 0.8711   -0.029638
 Br 0.42672 0.1025 0.24814   -0.459452
 Br 0.07328 0.75186 0.8975   -0.459454
 Br 0.57328 0.8975 0.75186   -0.459455
 Br 0.92672 0.24814 0.1025   -0.459457
 N 0.9334 0.97936 0.32524   -0.16917
 N 0.5666 0.67476 0.02064   -0.169169
 N 0.0666 0.02064 0.67476   -0.16917
 N 0.4334 0.32524 0.97936   -0.169169
