{'_ref': 'TBD', '_srcid': 'CAKYAQ_clean', 'submitters': [{'name': 'Dalar Nazarian Jeff Camp and David Sholl', 'email': 'dalar@gatech.edu jcamp6@gatech.edu'}], '_method': 'VASP DFT with PBE;DDEC'}
data_Dy3H40C68N7O19
_symmetry_space_group_name_H-M   'P 1'
_cell_length_a   10.28599968
_cell_length_b   19.16100003
_cell_length_c   19.78700000
_cell_angle_alpha   77.52000088
_cell_angle_beta   76.72000108
_cell_angle_gamma   81.01999969
_symmetry_Int_Tables_number   1
_chemical_formula_structural   Dy3H40C68N7O19
_chemical_formula_sum   'Dy6 H80 C136 N14 O38'
_cell_volume   3682.52781808
_cell_formula_units_Z   2
loop_
 _symmetry_equiv_pos_site_id
 _symmetry_equiv_pos_as_xyz
  1  'x, y, z'
loop_
 _atom_site_label
 _atom_site_fract_x
 _atom_site_fract_y
 _atom_site_fract_z
 _atom_site_charge
 Dy 0.367 0.94167 0.57157   2.195185
 Dy 0.81608 0.48064 0.56761   2.182961
 Dy 0.85156 0.58003 0.96141   2.221902
 Dy 0.633 0.05833 0.42843   2.195185
 Dy 0.18392 0.51936 0.43239   2.182961
 Dy 0.14844 0.41997 0.03859   2.221902
 H 0.8842 0.0035 0.5704   0.114747
 H 0.5901 0.000300000000003 0.743   0.100037
 H 0.746 0.9966 0.8109   0.100521
 H 0.9724 0.9921 0.7601   0.104166
 H 0.7066 0.7326 0.5289   0.099249
 H 0.005 0.7155 0.3613   0.08548
 H 0.9562 0.8357 0.3153   0.101891
 H 0.7786 0.9043 0.3737   0.08875
 H 0.9834 0.4857 0.253   0.097014
 H 0.6589 0.5807 0.1779   0.101051
 H 0.5505 0.5986 0.2906   0.098565
 H 0.6593 0.5585 0.3843   0.106817
 H 0.6115 0.4177 0.0031   0.106498
 H 0.527 0.2245 0.9924   0.103434
 H 0.7486 0.177 0.9962   0.104317
 H 0.9009 0.2508 0.0039   0.105788
 H 0.1592 0.8726 0.4993   0.075781
 H 0.0358 0.7767 0.51   0.122022
 H 0.0387 0.6849 0.6046   0.112387
 H 0.1273 0.6263 0.7261   0.093463
 H 0.2192 0.6384 0.8042   0.116443
 H 0.3597 0.7122 0.8523   0.087278
 H 0.4637 0.8104 0.8358   0.118827
 H 0.4749 0.8922 0.7303   0.063787
 H 0.6495 0.4022 0.4798   0.061144
 H 0.5497 0.3018 0.4803   0.132269
 H 0.5546 0.2061 0.5724   0.111226
 H 0.6187 0.154 0.6931   0.095391
 H 0.6876 0.1692 0.7863   0.110872
 H 0.7654 0.2507 0.8468   0.083359
 H 0.8295 0.3606 0.8451   0.126616
 H 0.8376 0.4484 0.7424   0.076017
 H 0.9936 0.7423 0.8853   0.071834
 H 0.0035 0.8393 0.7926   0.127929
 H 0.8852 0.8455 0.7055   0.093085
 H 0.7388 0.785 0.6521   0.117649
 H 0.6026 0.6998 0.6663   0.119375
 H 0.4934 0.5929 0.7438   0.085147
 H 0.4814 0.5061 0.8433   0.131563
 H 0.6304 0.4989 0.9164   0.054693
 H 0.1158 0.9965 0.4296   0.114747
 H 0.4099 0.9997 0.257   0.100036
 H 0.254 0.0034 0.1891   0.10052
 H 0.0276 0.0079 0.2399   0.104165
 H 0.2934 0.2674 0.4711   0.099248
 H 0.995 0.2845 0.6387   0.08548
 H 0.0438 0.1643 0.6847   0.101889
 H 0.2214 0.0957 0.6263   0.08875
 H 0.0166 0.5143 0.747   0.097014
 H 0.3411 0.4193 0.8221   0.10105
 H 0.4495 0.4014 0.7094   0.098565
 H 0.3407 0.4415 0.6157   0.106817
 H 0.3885 0.5823 0.9969   0.106498
 H 0.473 0.7755 0.0076   0.103434
 H 0.2514 0.823 0.0038   0.104315
 H 0.0991 0.7492 0.9961   0.105787
 H 0.8408 0.1274 0.5007   0.075781
 H 0.9642 0.2233 0.49   0.122022
 H 0.9613 0.3151 0.3954   0.112387
 H 0.8727 0.3737 0.2739   0.093463
 H 0.7808 0.3616 0.1958   0.116443
 H 0.6403 0.2878 0.1477   0.087278
 H 0.5363 0.1896 0.1642   0.118828
 H 0.5251 0.1078 0.2697   0.063787
 H 0.3505 0.5978 0.5202   0.061144
 H 0.4503 0.6982 0.5197   0.132268
 H 0.4454 0.7939 0.4276   0.111226
 H 0.3813 0.846 0.3069   0.095391
 H 0.3124 0.8308 0.2137   0.110872
 H 0.2346 0.7493 0.1532   0.083359
 H 0.1705 0.6394 0.1549   0.126616
 H 0.1624 0.5516 0.2576   0.076017
 H 0.0064 0.2577 0.1147   0.071835
 H 0.9965 0.1607 0.2074   0.127929
 H 0.1148 0.1545 0.2945   0.093085
 H 0.2612 0.215 0.3479   0.117649
 H 0.3974 0.3002 0.3337   0.119375
 H 0.5066 0.4071 0.2562   0.085147
 H 0.5186 0.4939 0.1567   0.131563
 H 0.3696 0.5011 0.0836   0.054693
 C 0.9511 0.99386 0.66059   -0.129639
 C 0.8565 0.000830000000001 0.61897   -0.013782
 C 0.72 0.0039 0.64973   -0.148903
 C 0.6807 0.000399999999999 0.72181   -0.044507
 C 0.7742 0.9969 0.76274   -0.125382
 C 0.9095 0.994 0.73246   -0.041505
 C 0.098 0.9851 0.62725   0.641224
 C 0.6191 0.01349 0.60281   0.772695
 C 0.7262 0.82594 0.45872   -0.173483
 C 0.7568 0.75349 0.48589   0.007188
 C 0.8603 0.71222 0.4501   -0.173525
 C 0.935 0.7432 0.3858   -0.009052
 C 0.9052 0.815 0.3581   -0.13708
 C 0.8001 0.8564 0.3934   0.008861
 C 0.6172 0.87065 0.49839   0.758423
 C 0.8951 0.63468 0.4788   0.792995
 C 0.8347 0.51976 0.32763   -0.167259
 C 0.896 0.50841 0.26059   -0.010136
 C 0.8309 0.52996 0.204   -0.15955
 C 0.7028 0.5645 0.2155   -0.014398
 C 0.6377 0.5756 0.2831   -0.127025
 C 0.7033 0.5523 0.33897   -0.013482
 C 0.9077 0.49766 0.38773   0.78175
 C 0.8958 0.51504 0.13197   0.784798
 C 0.7722 0.34212 0.00333   -0.168799
 C 0.6396 0.36945 0.00144   -0.00956
 C 0.5494 0.32508 0.99708   -0.117984
 C 0.5887 0.2539 0.9952   -0.034249
 C 0.7215 0.2254 0.9976   -0.131978
 C 0.8125 0.2696 0.0019   -0.029598
 C 0.87 0.39125 0.0064   0.777728
 C 0.4073 0.358 0.99571   0.635899
 C 0.1601 0.8349 0.5378   0.223255
 C 0.0852 0.7773 0.5437   -0.171
 C 0.0877 0.7232 0.5999   -0.00681
 C 0.1597 0.7227 0.6503   -0.03571
 C 0.2321 0.783 0.6413   0.197528
 C 0.1681 0.668 0.719   -0.05075
 C 0.2233 0.6749 0.7644   -0.100957
 C 0.2964 0.7354 0.7625   -0.004894
 C 0.3601 0.7461 0.8108   -0.026947
 C 0.4229 0.803 0.8009   -0.170961
 C 0.428 0.8526 0.7371   0.212789
 C 0.3014 0.788 0.6951   0.169836
 C 0.6461 0.365 0.5189   0.250012
 C 0.5879 0.3039 0.518   -0.161844
 C 0.5887 0.2481 0.573   -0.015377
 C 0.6396 0.2534 0.6298   -0.014595
 C 0.6896 0.31857 0.6287   0.183851
 C 0.6457 0.1984 0.6922   -0.083013
 C 0.6868 0.2068 0.7477   -0.118611
 C 0.7298 0.273 0.7493   0.00142
 C 0.7669 0.2863 0.8065   -0.015826
 C 0.8063 0.3511 0.8055   -0.179416
 C 0.8112 0.404 0.7431   0.227796
 C 0.7361 0.3286 0.6889   0.17682
 C 0.9466 0.7436 0.85   0.221088
 C 0.9526 0.8026 0.7943   -0.200084
 C 0.883 0.806 0.7425   -0.0165
 C 0.8084 0.7502 0.7449   -0.027298
 C 0.8059 0.6927 0.80359   0.185544
 C 0.7322 0.7492 0.6924   -0.117698
 C 0.6525 0.6982 0.7004   -0.074288
 C 0.6427 0.6408 0.76075   -0.028308
 C 0.5501 0.5906 0.7748   0.026421
 C 0.5435 0.5393 0.833   -0.179274
 C 0.6314 0.5366 0.8778   0.235428
 C 0.722 0.6372 0.81048   0.201385
 C 0.0489 0.00614 0.33941   -0.12964
 C 0.1435 0.99917 0.38103   -0.013782
 C 0.28 0.9961 0.35027   -0.148903
 C 0.3193 0.9996 0.27819   -0.044507
 C 0.2258 0.0031 0.23726   -0.125382
 C 0.0905 0.006 0.26754   -0.041504
 C 0.902 0.0149 0.37275   0.641224
 C 0.3809 0.98651 0.39719   0.772695
 C 0.2738 0.17406 0.54128   -0.173483
 C 0.2432 0.24651 0.51411   0.007188
 C 0.1397 0.28778 0.5499   -0.173525
 C 0.065 0.2568 0.6142   -0.009052
 C 0.0948 0.185 0.6419   -0.13708
 C 0.1999 0.1436 0.6066   0.008861
 C 0.3828 0.12935 0.50161   0.758423
 C 0.1049 0.36532 0.5212   0.792995
 C 0.1653 0.48024 0.67237   -0.167259
 C 0.104 0.49159 0.73941   -0.010136
 C 0.1691 0.47004 0.796   -0.15955
 C 0.2972 0.4355 0.7845   -0.014398
 C 0.3623 0.4244 0.7169   -0.127025
 C 0.2967 0.4477 0.66103   -0.013482
 C 0.0923 0.50234 0.61227   0.78175
 C 0.1042 0.48496 0.86803   0.784798
 C 0.2278 0.65788 0.99667   -0.168799
 C 0.3604 0.63055 0.99856   -0.00956
 C 0.4506 0.67492 0.00292   -0.117984
 C 0.4113 0.7461 0.0048   -0.034249
 C 0.2785 0.7746 0.0024   -0.131977
 C 0.1875 0.7304 0.9981   -0.029598
 C 0.13 0.60875 0.9936   0.777728
 C 0.5927 0.642 0.00429   0.635899
 C 0.8399 0.1651 0.4622   0.223255
 C 0.9148 0.2227 0.4563   -0.171
 C 0.9123 0.2768 0.4001   -0.00681
 C 0.8403 0.2773 0.3497   -0.03571
 C 0.7679 0.217 0.3587   0.197528
 C 0.8319 0.332 0.281   -0.05075
 C 0.7767 0.3251 0.2356   -0.100957
 C 0.7036 0.2646 0.2375   -0.004894
 C 0.6399 0.2539 0.1892   -0.026947
 C 0.5771 0.197 0.1991   -0.170961
 C 0.572 0.1474 0.2629   0.212789
 C 0.6986 0.212 0.3049   0.169836
 C 0.3539 0.635 0.4811   0.250012
 C 0.4121 0.6961 0.482   -0.161843
 C 0.4113 0.7519 0.427   -0.015376
 C 0.3604 0.7466 0.3702   -0.014595
 C 0.3104 0.68143 0.3713   0.183851
 C 0.3543 0.8016 0.3078   -0.083014
 C 0.3132 0.7932 0.2523   -0.118611
 C 0.2702 0.727 0.2507   0.00142
 C 0.2331 0.7137 0.1935   -0.015826
 C 0.1937 0.6489 0.1945   -0.179416
 C 0.1888 0.596 0.2569   0.227796
 C 0.2639 0.6714 0.3111   0.17682
 C 0.0534 0.2564 0.15   0.221088
 C 0.0474 0.1974 0.2057   -0.200085
 C 0.117 0.194 0.2575   -0.0165
 C 0.1916 0.2498 0.2551   -0.027298
 C 0.1941 0.3073 0.19641   0.185544
 C 0.2678 0.2508 0.3076   -0.117698
 C 0.3475 0.3018 0.2996   -0.074288
 C 0.3573 0.3592 0.23925   -0.028308
 C 0.4499 0.4094 0.2252   0.026421
 C 0.4565 0.4607 0.167   -0.179274
 C 0.3686 0.4634 0.1222   0.235428
 C 0.278 0.3628 0.18952   0.201385
 N 0.7796 0.39223 0.68583   -0.490445
 N 0.696 0.37274 0.57178   -0.514915
 N 0.2319 0.83748 0.58494   -0.496209
 N 0.3697 0.8464 0.68577   -0.464521
 N 0.8766 0.689 0.85502   -0.467036
 N 0.717 0.58518 0.86854   -0.524207
 N 0.5555 0.5519 0.60901   0.822727
 N 0.2204 0.60777 0.31417   -0.490446
 N 0.304 0.62726 0.42822   -0.514915
 N 0.7681 0.16252 0.41506   -0.496209
 N 0.6303 0.1536 0.31423   -0.464521
 N 0.1234 0.311 0.14498   -0.467036
 N 0.283 0.41482 0.13146   -0.524207
 N 0.4445 0.4481 0.39099   0.822727
 O 0.134 0.98955 0.56234   -0.639177
 O 0.185 0.97172 0.66688   -0.70627
 O 0.5178 0.97891 0.6261   -0.72711
 O 0.6456 0.05436 0.5446   -0.709464
 O 0.5301 0.84107 0.5456   -0.670472
 O 0.613 0.93888 0.48239   -0.840003
 O 0.8119 0.60501 0.52838   -0.710268
 O 0.0054 0.60331 0.45133   -0.810812
 O 0.8364 0.48807 0.4488   -0.75378
 O 0.0333 0.49048 0.37365   -0.725828
 O 0.8538 0.55527 0.08046   -0.756539
 O 0.9874 0.46357 0.12768   -0.755216
 O 0.8406 0.45763 0.98797   -0.758588
 O 0.9761 0.3628 0.02788   -0.726642
 O 0.3137 0.31836 0.01224   -0.679699
 O 0.3823 0.42597 0.98211   -0.661848
 O 0.5829 0.52963 0.55249   -0.524583
 O 0.64 0.5321 0.64893   -0.588431
 O 0.4543 0.5932 0.6261   -0.420885
 O 0.866 0.01045 0.43766   -0.639177
 O 0.815 0.02828 0.33312   -0.70627
 O 0.4822 0.02109 0.3739   -0.72711
 O 0.3544 0.94564 0.4554   -0.709464
 O 0.4699 0.15893 0.4544   -0.670472
 O 0.387 0.06112 0.51761   -0.840003
 O 0.1881 0.39499 0.47162   -0.710268
 O 0.9946 0.39669 0.54867   -0.810812
 O 0.1636 0.51193 0.5512   -0.75378
 O 0.9667 0.50952 0.62635   -0.725828
 O 0.1462 0.44473 0.91954   -0.756539
 O 0.0126 0.53643 0.87232   -0.755216
 O 0.1594 0.54237 0.01203   -0.758588
 O 0.0239 0.6372 0.97212   -0.726642
 O 0.6863 0.68164 0.98776   -0.679699
 O 0.6177 0.57403 0.01789   -0.661848
 O 0.4171 0.47037 0.44751   -0.524583
 O 0.36 0.4679 0.35107   -0.588431
 O 0.5457 0.4068 0.3739   -0.420885
