{'_ref': 'TBD', '_srcid': 'CAKYAQ_clean', 'submitters': [{'name': 'Dalar Nazarian Jeff Camp and David Sholl', 'email': 'dalar@gatech.edu jcamp6@gatech.edu'}], '_method': 'VASP DFT with PBE;DDEC'}
data_CoH6C12NO5
_symmetry_space_group_name_H-M   'P 1'
_cell_length_a   10.15199967
_cell_length_b   17.95300000
_cell_length_c   18.06200000
_cell_angle_alpha   90.00000000
_cell_angle_beta   94.62000167
_cell_angle_gamma   90.00000000
_symmetry_Int_Tables_number   1
_chemical_formula_structural   CoH6C12NO5
_chemical_formula_sum   'Co4 H24 C48 N4 O20'
_cell_volume   3281.26318297
_cell_formula_units_Z   4
loop_
 _symmetry_equiv_pos_site_id
 _symmetry_equiv_pos_as_xyz
  1  'x, y, z'
loop_
 _atom_site_label
 _atom_site_fract_x
 _atom_site_fract_y
 _atom_site_fract_z
 _atom_site_charge
 Co 0.5093 0.69537 0.62858   1.140549
 Co 0.27432 0.75069 0.48809   0.971814
 Co 0.4907 0.19537 0.37142   1.140549
 Co 0.72568 0.25069 0.51191   0.971814
 H 0.6205 0.0528 0.7751   0.306668
 H 0.8646 0.1099 0.101   0.29396
 H 0.0229 0.1214 0.8028   0.116888
 H 0.1141 0.1429 0.9228   0.112582
 H 0.7663 0.0926 0.0021   0.100269
 H 0.6751 0.0712 0.8821   0.097864
 H 0.5895 0.9185 0.6974   0.135082
 H 0.4584 0.9655 0.4873   0.11248
 H 0.6265 0.1276 0.6223   0.102981
 H 0.1654 0.1601 0.1833   0.135907
 H 0.035 0.2046 0.3819   0.108643
 H 0.7744 0.1636 0.2063   0.128661
 H 0.3795 0.5528 0.2249   0.306668
 H 0.1354 0.6099 0.899   0.293961
 H 0.9771 0.6214 0.1972   0.116888
 H 0.8859 0.6429 0.0772   0.112584
 H 0.2337 0.5926 0.9979   0.10027
 H 0.3249 0.5712 0.1179   0.097864
 H 0.4105 0.4185 0.3026   0.135082
 H 0.5416 0.4655 0.5127   0.11248
 H 0.3735 0.6276 0.3777   0.102982
 H 0.8346 0.6601 0.8167   0.135907
 H 0.965 0.7046 0.6181   0.108643
 H 0.2256 0.6636 0.7937   0.12866
 C 0.83999 0.09417 0.83054   -0.10778
 C 0.97149 0.11565 0.84275   -0.050896
 C 0.02611 0.1285 0.91467   -0.046082
 C 0.94923 0.11986 0.97439   -0.105909
 C 0.81773 0.09838 0.96218   -0.07221
 C 0.76311 0.08553 0.89026   -0.087497
 C 0.7866 0.08465 0.75237   0.551758
 C 0.00899 0.14279 0.04803   0.51446
 C 0.616 0.02569 0.66965   0.18545
 C 0.5757 0.95293 0.65909   -0.105887
 C 0.5125 0.93065 0.58912   -0.132006
 C 0.4991 0.9804 0.53288   0.013035
 C 0.5457 0.05503 0.54157   -0.144673
 C 0.6012 0.0784 0.61359   -0.099882
 C 0.4649 0.8516 0.58063   0.736991
 C 0.5311 0.10798 0.48021   0.69292
 C 0.9678 0.16142 0.18176   0.208371
 C 0.0947 0.16782 0.21215   -0.121201
 C 0.1168 0.18617 0.28708   -0.095088
 C 0.0168 0.19448 0.33164   -0.026392
 C 0.8843 0.18773 0.30116   -0.13368
 C 0.8607 0.16994 0.22678   -0.140458
 C 0.2594 0.1906 0.32087   0.62461
 C 0.772 0.1987 0.34966   0.734987
 C 0.16001 0.59417 0.16946   -0.10778
 C 0.02851 0.61565 0.15725   -0.050896
 C 0.97389 0.6285 0.08533   -0.046081
 C 0.05077 0.61986 0.02561   -0.105909
 C 0.18227 0.59838 0.03782   -0.07221
 C 0.23689 0.58553 0.10974   -0.087497
 C 0.2134 0.58465 0.24763   0.551758
 C 0.99101 0.64279 0.95197   0.514461
 C 0.384 0.52569 0.33035   0.185451
 C 0.4243 0.45293 0.34091   -0.105888
 C 0.4875 0.43065 0.41088   -0.132006
 C 0.5009 0.4804 0.46712   0.013035
 C 0.4543 0.55503 0.45843   -0.144673
 C 0.3988 0.5784 0.38641   -0.099882
 C 0.5351 0.3516 0.41937   0.73699
 C 0.4689 0.60798 0.51979   0.69292
 C 0.0322 0.66142 0.81824   0.208371
 C 0.9053 0.66782 0.78785   -0.121201
 C 0.8832 0.68617 0.71292   -0.095088
 C 0.9832 0.69448 0.66836   -0.026393
 C 0.1157 0.68773 0.69884   -0.13368
 C 0.1393 0.66994 0.77322   -0.140458
 C 0.7406 0.6906 0.67913   0.624609
 C 0.228 0.6987 0.65034   0.734986
 N 0.6791 0.0441 0.7412   -0.435806
 N 0.9312 0.1431 0.1063   -0.426069
 N 0.3209 0.5441 0.2588   -0.435806
 N 0.0688 0.6431 0.8937   -0.42607
 O 0.8519 0.1101 0.7023   -0.541199
 O 0.1229 0.1704 0.059   -0.504188
 O 0.5013 0.8078 0.6311   -0.580711
 O 0.4004 0.8358 0.5214   -0.632323
 O 0.4845 0.0861 0.418   -0.52187
 O 0.5638 0.1758 0.4904   -0.682405
 O 0.353 0.1796 0.2803   -0.539979
 O 0.2776 0.2047 0.3885   -0.561976
 O 0.7994 0.2261 0.4117   -0.641778
 O 0.6591 0.1787 0.323   -0.588987
 O 0.1481 0.6101 0.2977   -0.541199
 O 0.8771 0.6704 0.941   -0.504188
 O 0.4987 0.3078 0.3689   -0.580711
 O 0.5996 0.3358 0.4786   -0.632323
 O 0.5155 0.5861 0.582   -0.52187
 O 0.4362 0.6758 0.5096   -0.682405
 O 0.647 0.6796 0.7197   -0.539979
 O 0.7224 0.7047 0.6115   -0.561976
 O 0.2006 0.7261 0.5883   -0.641778
 O 0.3409 0.6787 0.677   -0.588987
