{'_ref': 'TBD', '_srcid': 'CAKYAQ_clean', 'submitters': [{'name': 'Dalar Nazarian Jeff Camp and David Sholl', 'email': 'dalar@gatech.edu jcamp6@gatech.edu'}], '_method': 'VASP DFT with PBE;DDEC'}
data_AlC9O5
_symmetry_space_group_name_H-M   'P 1'
_cell_length_a   10.18102000
_cell_length_b   21.49172000
_cell_length_c   21.49172000
_cell_angle_alpha   90.00000000
_cell_angle_beta   90.00000000
_cell_angle_gamma   90.00000000
_symmetry_Int_Tables_number   1
_chemical_formula_structural   AlC9O5
_chemical_formula_sum   'Al16 C144 O80'
_cell_volume   4702.55234263
_cell_formula_units_Z   16
loop_
 _symmetry_equiv_pos_site_id
 _symmetry_equiv_pos_as_xyz
  1  'x, y, z'
loop_
 _atom_site_label
 _atom_site_fract_x
 _atom_site_fract_y
 _atom_site_fract_z
 _atom_site_charge
 Al 0.0 0.31655 0.0   1.754433
 Al 0.0 0.68345 0.5   1.754433
 Al 0.5 0.18345 0.0   1.754433
 Al 0.75 0.25 0.93345   1.754432
 Al 0.25 0.25 0.06655   1.754432
 Al 0.25 0.75 0.43345   1.754433
 Al 0.75 0.75 0.56655   1.754433
 Al 0.5 0.81655 0.5   1.754432
 Al 0.0 0.68345 0.0   1.754433
 Al 0.0 0.31655 0.5   1.754433
 Al 0.5 0.81655 0.0   1.754433
 Al 0.25 0.75 0.06655   1.754432
 Al 0.75 0.75 0.93345   1.754432
 Al 0.75 0.25 0.56655   1.754433
 Al 0.25 0.25 0.43345   1.754433
 Al 0.5 0.18345 0.5   1.754432
 C 0.42131 0.44403 0.07936   0.107403
 C 0.42131 0.55597 0.42064   0.107403
 C 0.57869 0.55597 0.57936   0.107403
 C 0.92131 0.05597 0.92064   0.107403
 C 0.07869 0.05597 0.07936   0.107403
 C 0.32869 0.17064 0.80597   0.107403
 C 0.67131 0.17064 0.19403   0.107403
 C 0.82869 0.67064 0.30597   0.107403
 C 0.17131 0.67064 0.69403   0.107403
 C 0.17131 0.32936 0.80597   0.107403
 C 0.82869 0.32936 0.19403   0.107403
 C 0.67131 0.82936 0.30597   0.107403
 C 0.32869 0.82936 0.69403   0.107403
 C 0.57869 0.44403 0.92064   0.107403
 C 0.07869 0.94403 0.42064   0.107403
 C 0.92131 0.94403 0.57936   0.107403
 C 0.57869 0.55597 0.92064   0.107403
 C 0.57869 0.44403 0.57936   0.107403
 C 0.42131 0.44403 0.42064   0.107403
 C 0.07869 0.94403 0.07936   0.107403
 C 0.92131 0.94403 0.92064   0.107403
 C 0.67131 0.82936 0.19403   0.107403
 C 0.32869 0.82936 0.80597   0.107403
 C 0.17131 0.32936 0.69403   0.107403
 C 0.82869 0.32936 0.30597   0.107403
 C 0.82869 0.67064 0.19403   0.107403
 C 0.17131 0.67064 0.80597   0.107403
 C 0.32869 0.17064 0.69403   0.107403
 C 0.67131 0.17064 0.30597   0.107403
 C 0.42131 0.55597 0.07936   0.107403
 C 0.92131 0.05597 0.57936   0.107403
 C 0.07869 0.05597 0.42064   0.107403
 C 0.29803 0.44557 0.05494   -0.179338
 C 0.29803 0.55443 0.44506   -0.179338
 C 0.70197 0.55443 0.55494   -0.179338
 C 0.79803 0.05443 0.94506   -0.179338
 C 0.20197 0.05443 0.05494   -0.179338
 C 0.45197 0.19506 0.80443   -0.179338
 C 0.54803 0.19506 0.19557   -0.179338
 C 0.95197 0.69506 0.30443   -0.179338
 C 0.04803 0.69506 0.69557   -0.179338
 C 0.04803 0.30494 0.80443   -0.179338
 C 0.95197 0.30494 0.19557   -0.179338
 C 0.54803 0.80494 0.30443   -0.179338
 C 0.45197 0.80494 0.69557   -0.179338
 C 0.70197 0.44557 0.94506   -0.179338
 C 0.20197 0.94557 0.44506   -0.179338
 C 0.79803 0.94557 0.55494   -0.179338
 C 0.70197 0.55443 0.94506   -0.179338
 C 0.70197 0.44557 0.55494   -0.179338
 C 0.29803 0.44557 0.44506   -0.179338
 C 0.20197 0.94557 0.05494   -0.179338
 C 0.79803 0.94557 0.94506   -0.179338
 C 0.54803 0.80494 0.19557   -0.179339
 C 0.45197 0.80494 0.80443   -0.179339
 C 0.04803 0.30494 0.69557   -0.179339
 C 0.95197 0.30494 0.30443   -0.179339
 C 0.95197 0.69506 0.19557   -0.179338
 C 0.04803 0.69506 0.80443   -0.179339
 C 0.45197 0.19506 0.69557   -0.179338
 C 0.54803 0.19506 0.30443   -0.179338
 C 0.29803 0.55443 0.05494   -0.179339
 C 0.79803 0.05443 0.55494   -0.179339
 C 0.20197 0.05443 0.44506   -0.179339
 C 0.2272 0.38696 0.04596   0.745698
 C 0.2272 0.61304 0.45404   0.745698
 C 0.7728 0.61304 0.54596   0.745698
 C 0.7272 0.11304 0.95404   0.745698
 C 0.2728 0.11304 0.04596   0.745698
 C 0.5228 0.20404 0.86304   0.745698
 C 0.4772 0.20404 0.13696   0.745698
 C 0.0228 0.70404 0.36304   0.745698
 C 0.9772 0.70404 0.63696   0.745698
 C 0.9772 0.29596 0.86304   0.745698
 C 0.0228 0.29596 0.13696   0.745698
 C 0.4772 0.79596 0.36304   0.745698
 C 0.5228 0.79596 0.63696   0.745698
 C 0.7728 0.38696 0.95404   0.745698
 C 0.2728 0.88696 0.45404   0.745698
 C 0.7272 0.88696 0.54596   0.745698
 C 0.7728 0.61304 0.95404   0.745698
 C 0.7728 0.38696 0.54596   0.745698
 C 0.2272 0.38696 0.45404   0.745698
 C 0.2728 0.88696 0.04596   0.745698
 C 0.7272 0.88696 0.95404   0.745698
 C 0.4772 0.79596 0.13696   0.745698
 C 0.5228 0.79596 0.86304   0.745698
 C 0.9772 0.29596 0.63696   0.745698
 C 0.0228 0.29596 0.36304   0.745698
 C 0.0228 0.70404 0.13696   0.745698
 C 0.9772 0.70404 0.86304   0.745698
 C 0.5228 0.20404 0.63696   0.745698
 C 0.4772 0.20404 0.36304   0.745698
 C 0.2272 0.61304 0.04596   0.745698
 C 0.7272 0.11304 0.54596   0.745698
 C 0.2728 0.11304 0.45404   0.745698
 C 0.63143 0.5 0.11474   0.030718
 C 0.63143 0.5 0.38526   0.030718
 C 0.36857 0.5 0.61474   0.030718
 C 0.13143 0.0 0.88526   0.030718
 C 0.86857 0.0 0.11474   0.030718
 C 0.11857 0.13526 0.75   0.030719
 C 0.88143 0.13526 0.25   0.030719
 C 0.61857 0.63526 0.25   0.030719
 C 0.38143 0.63526 0.75   0.030719
 C 0.38143 0.36474 0.75   0.030719
 C 0.61857 0.36474 0.25   0.030719
 C 0.88143 0.86474 0.25   0.030719
 C 0.11857 0.86474 0.75   0.030719
 C 0.36857 0.5 0.88526   0.030719
 C 0.86857 0.0 0.38526   0.030719
 C 0.13143 0.0 0.61474   0.030719
 C 0.2347 0.5 0.03658   0.117524
 C 0.2347 0.5 0.46342   0.117524
 C 0.7653 0.5 0.53658   0.117524
 C 0.7347 0.0 0.96342   0.117524
 C 0.2653 0.0 0.03658   0.117524
 C 0.5153 0.21342 0.75   0.117524
 C 0.4847 0.21342 0.25   0.117524
 C 0.0153 0.71342 0.25   0.117524
 C 0.9847 0.71342 0.75   0.117524
 C 0.9847 0.28658 0.75   0.117524
 C 0.0153 0.28658 0.25   0.117524
 C 0.4847 0.78658 0.25   0.117524
 C 0.5153 0.78658 0.75   0.117524
 C 0.7653 0.5 0.96342   0.117524
 C 0.2653 0.0 0.46342   0.117524
 C 0.7347 0.0 0.53658   0.117524
 C 0.49306 0.5 0.08734   -0.048401
 C 0.49306 0.5 0.41266   -0.048401
 C 0.50694 0.5 0.58734   -0.048401
 C 0.99306 0.0 0.91266   -0.048401
 C 0.00694 0.0 0.08734   -0.048401
 C 0.25694 0.16266 0.75   -0.048402
 C 0.74306 0.16266 0.25   -0.048402
 C 0.75694 0.66266 0.25   -0.048402
 C 0.24306 0.66266 0.75   -0.048402
 C 0.24306 0.33734 0.75   -0.048401
 C 0.75694 0.33734 0.25   -0.048401
 C 0.74306 0.83734 0.25   -0.048401
 C 0.25694 0.83734 0.75   -0.048401
 C 0.50694 0.5 0.91266   -0.048401
 C 0.00694 0.0 0.41266   -0.048402
 C 0.99306 0.0 0.58734   -0.048401
 O 0.125 0.25996 0.00996   -0.758209
 O 0.125 0.74004 0.49004   -0.758209
 O 0.875 0.74004 0.50996   -0.758209
 O 0.625 0.24004 0.99004   -0.758209
 O 0.375 0.24004 0.00996   -0.758209
 O 0.875 0.25996 0.99004   -0.758209
 O 0.375 0.75996 0.49004   -0.758209
 O 0.625 0.75996 0.50996   -0.758209
 O 0.875 0.74004 0.99004   -0.758209
 O 0.875 0.25996 0.50996   -0.758209
 O 0.125 0.25996 0.49004   -0.758209
 O 0.375 0.75996 0.00996   -0.758209
 O 0.625 0.75996 0.99004   -0.758209
 O 0.125 0.74004 0.00996   -0.758209
 O 0.625 0.24004 0.50996   -0.758209
 O 0.375 0.24004 0.49004   -0.758209
 O 0.13185 0.38146 0.01131   -0.577452
 O 0.13185 0.61854 0.48869   -0.577452
 O 0.86815 0.61854 0.51131   -0.577452
 O 0.63185 0.11854 0.98869   -0.577452
 O 0.36815 0.11854 0.01131   -0.577452
 O 0.61815 0.23869 0.86854   -0.577452
 O 0.38185 0.23869 0.13146   -0.577452
 O 0.11815 0.73869 0.36854   -0.577452
 O 0.88185 0.73869 0.63146   -0.577452
 O 0.88185 0.26131 0.86854   -0.577452
 O 0.11815 0.26131 0.13146   -0.577452
 O 0.38185 0.76131 0.36854   -0.577452
 O 0.61815 0.76131 0.63146   -0.577452
 O 0.86815 0.38146 0.98869   -0.577452
 O 0.36815 0.88146 0.48869   -0.577452
 O 0.63185 0.88146 0.51131   -0.577452
 O 0.86815 0.61854 0.98869   -0.577452
 O 0.86815 0.38146 0.51131   -0.577452
 O 0.13185 0.38146 0.48869   -0.577452
 O 0.36815 0.88146 0.01131   -0.577452
 O 0.63185 0.88146 0.98869   -0.577452
 O 0.38185 0.76131 0.13146   -0.577452
 O 0.61815 0.76131 0.86854   -0.577452
 O 0.88185 0.26131 0.63146   -0.577452
 O 0.11815 0.26131 0.36854   -0.577452
 O 0.11815 0.73869 0.13146   -0.577452
 O 0.88185 0.73869 0.86854   -0.577452
 O 0.61815 0.23869 0.63146   -0.577452
 O 0.38185 0.23869 0.36854   -0.577452
 O 0.13185 0.61854 0.01131   -0.577452
 O 0.63185 0.11854 0.51131   -0.577452
 O 0.36815 0.11854 0.48869   -0.577452
 O 0.2842 0.33663 0.06896   -0.644343
 O 0.2842 0.66337 0.43104   -0.644343
 O 0.7158 0.66337 0.56896   -0.644343
 O 0.7842 0.16337 0.93104   -0.644343
 O 0.2158 0.16337 0.06896   -0.644343
 O 0.4658 0.18104 0.91337   -0.644343
 O 0.5342 0.18104 0.08663   -0.644343
 O 0.9658 0.68104 0.41337   -0.644343
 O 0.0342 0.68104 0.58663   -0.644343
 O 0.0342 0.31896 0.91337   -0.644343
 O 0.9658 0.31896 0.08663   -0.644343
 O 0.5342 0.81896 0.41337   -0.644343
 O 0.4658 0.81896 0.58663   -0.644343
 O 0.7158 0.33663 0.93104   -0.644343
 O 0.2158 0.83663 0.43104   -0.644343
 O 0.7842 0.83663 0.56896   -0.644343
 O 0.7158 0.66337 0.93104   -0.644343
 O 0.7158 0.33663 0.56896   -0.644343
 O 0.2842 0.33663 0.43104   -0.644343
 O 0.2158 0.83663 0.06896   -0.644343
 O 0.7842 0.83663 0.93104   -0.644343
 O 0.5342 0.81896 0.08663   -0.644343
 O 0.4658 0.81896 0.91337   -0.644343
 O 0.0342 0.31896 0.58663   -0.644343
 O 0.9658 0.31896 0.41337   -0.644343
 O 0.9658 0.68104 0.08663   -0.644343
 O 0.0342 0.68104 0.91337   -0.644343
 O 0.4658 0.18104 0.58663   -0.644343
 O 0.5342 0.18104 0.41337   -0.644343
 O 0.2842 0.66337 0.06896   -0.644343
 O 0.7842 0.16337 0.56896   -0.644343
 O 0.2158 0.16337 0.43104   -0.644343
