{'_ref': 'TBD', '_srcid': 'CAKYAQ_clean', 'submitters': [{'name': 'Dalar Nazarian Jeff Camp and David Sholl', 'email': 'dalar@gatech.edu jcamp6@gatech.edu'}], '_method': 'VASP DFT with PBE;DDEC'}
data_Al(C3O2)3
_symmetry_space_group_name_H-M   'P 1'
_cell_length_a   10.56979993
_cell_length_b   16.00229969
_cell_length_c   16.00230000
_cell_angle_alpha   83.73820139
_cell_angle_beta   70.71550096
_cell_angle_gamma   70.71550078
_symmetry_Int_Tables_number   1
_chemical_formula_structural   Al(C3O2)3
_chemical_formula_sum   'Al8 C72 O48'
_cell_volume   2411.42996041
_cell_formula_units_Z   8
loop_
 _symmetry_equiv_pos_site_id
 _symmetry_equiv_pos_as_xyz
  1  'x, y, z'
loop_
 _atom_site_label
 _atom_site_fract_x
 _atom_site_fract_y
 _atom_site_fract_z
 _atom_site_charge
 Al 0.76272 0.69264 0.17386   1.676413
 Al 0.12922 0.80736 0.32614   1.67672
 Al 0.93658 0.82614 0.19264   1.676636
 Al 0.45536 0.67386 0.30736   1.675714
 Al 0.23728 0.30736 0.82614   1.676413
 Al 0.87078 0.19264 0.67386   1.67672
 Al 0.06342 0.17386 0.80736   1.676636
 Al 0.54464 0.32614 0.69264   1.675714
 C 0.84607 0.40894 0.49766   -0.146414
 C 0.94651 0.50762 0.3498   0.045593
 C 0.7949 0.3481 0.57044   0.73338
 C 0.27845 0.38382 0.39748   0.100348
 C 0.98607 0.40012 0.46528   -0.028728
 C 0.74363 0.46823 0.45831   0.111635
 C 0.71952 0.58082 0.33006   0.713865
 C 0.8019 0.51235 0.38733   -0.16725
 C 0.0381 0.45247 0.39209   0.113835
 C 0.25267 0.09106 0.00234   -0.145235
 C 0.30393 0.99238 0.1502   0.045832
 C 0.21344 0.1519 0.92956   0.732914
 C 0.55975 0.11618 0.10252   0.100778
 C 0.35147 0.09988 0.03472   -0.028207
 C 0.17017 0.03177 0.04169   0.110268
 C 0.1304 0.91918 0.16994   0.714106
 C 0.20158 0.98765 0.11267   -0.166941
 C 0.38266 0.04753 0.10791   0.11322
 C 0.34373 0.50234 0.90894   -0.146069
 C 0.29631 0.6502 0.00762   0.046287
 C 0.36534 0.42956 0.8481   0.73484
 C 0.67593 0.60252 0.88382   0.099893
 C 0.45135 0.53472 0.90012   -0.029011
 C 0.20194 0.54169 0.96823   0.111484
 C 0.04958 0.66994 0.08082   0.713336
 C 0.18923 0.61267 0.01235   -0.168458
 C 0.43019 0.60791 0.95247   0.115199
 C 0.25501 0.99766 0.59106   -0.14496
 C 0.45413 0.8498 0.49238   0.045384
 C 0.143 0.07044 0.6519   0.735172
 C 0.66227 0.89748 0.61618   0.099443
 C 0.38619 0.96528 0.59988   -0.029557
 C 0.21186 0.95831 0.53177   0.1112
 C 0.30034 0.83006 0.41918   0.713346
 C 0.31425 0.88733 0.48765   -0.168092
 C 0.49057 0.89209 0.54753   0.114269
 C 0.15393 0.59106 0.50234   -0.146413
 C 0.05349 0.49238 0.6502   0.045596
 C 0.2051 0.6519 0.42956   0.733381
 C 0.72155 0.61618 0.60252   0.100353
 C 0.01393 0.59988 0.53472   -0.028726
 C 0.25637 0.53177 0.54169   0.111639
 C 0.28048 0.41918 0.66994   0.713867
 C 0.1981 0.48765 0.61267   -0.167248
 C 0.9619 0.54753 0.60791   0.113835
 C 0.74733 0.90894 0.99766   -0.145235
 C 0.69607 0.00762 0.8498   0.045835
 C 0.78656 0.8481 0.07044   0.732915
 C 0.44025 0.88382 0.89748   0.100782
 C 0.64853 0.90012 0.96528   -0.028205
 C 0.82983 0.96823 0.95831   0.110272
 C 0.8696 0.08082 0.83006   0.714107
 C 0.79842 0.01235 0.88733   -0.166939
 C 0.61734 0.95247 0.89209   0.11322
 C 0.65627 0.49766 0.09106   -0.146068
 C 0.70369 0.3498 0.99238   0.046289
 C 0.63466 0.57044 0.1519   0.734841
 C 0.32407 0.39748 0.11618   0.099897
 C 0.54865 0.46528 0.09988   -0.029009
 C 0.79806 0.45831 0.03177   0.111488
 C 0.95042 0.33006 0.91918   0.713338
 C 0.81077 0.38733 0.98765   -0.168456
 C 0.56981 0.39209 0.04753   0.115199
 C 0.74499 0.00234 0.40894   -0.144959
 C 0.54587 0.1502 0.50762   0.045387
 C 0.857 0.92956 0.3481   0.735174
 C 0.33773 0.10252 0.38382   0.099447
 C 0.61381 0.03472 0.40012   -0.029555
 C 0.78814 0.04169 0.46823   0.111204
 C 0.69966 0.16994 0.58082   0.713348
 C 0.68575 0.11267 0.51235   -0.168091
 C 0.50943 0.10791 0.45247   0.114269
 O 0.883 0.28155 0.59059   -0.602496
 O 0.7844 0.60471 0.25445   -0.625567
 O 0.58838 0.60627 0.37217   -0.573198
 O 0.67007 0.38657 0.61611   -0.575495
 O 0.57608 0.73715 0.23867   -0.722663
 O 0.18645 0.43633 0.35105   -0.052918
 O 0.25514 0.21845 0.90941   -0.602728
 O 0.14356 0.89529 0.24555   -0.62575
 O 0.06682 0.89373 0.12783   -0.573554
 O 0.17275 0.11343 0.88389   -0.575395
 O 0.0519 0.76285 0.26133   -0.722868
 O 0.47383 0.06367 0.14895   -0.053182
 O 0.47359 0.40941 0.78155   -0.602923
 O 0.03885 0.74555 0.10471   -0.624949
 O 0.96055 0.62783 0.10627   -0.573276
 O 0.28618 0.38389 0.88657   -0.57655
 O 0.81475 0.76133 0.23715   -0.722851
 O 0.5375 0.64895 0.93633   -0.053425
 O 0.16455 0.09059 0.71845   -0.603378
 O 0.38911 0.75445 0.39529   -0.625273
 O 0.19465 0.87217 0.39373   -0.572751
 O 0.05664 0.11611 0.61343   -0.57656
 O 0.31323 0.73867 0.26285   -0.722555
 O 0.62278 0.85105 0.56367   -0.051917
 O 0.117 0.71845 0.40941   -0.602496
 O 0.2156 0.39529 0.74555   -0.625567
 O 0.41162 0.39373 0.62783   -0.573198
 O 0.32993 0.61343 0.38389   -0.575495
 O 0.42392 0.26285 0.76133   -0.722663
 O 0.81355 0.56367 0.64895   -0.052918
 O 0.74486 0.78155 0.09059   -0.602728
 O 0.85644 0.10471 0.75445   -0.625751
 O 0.93318 0.10627 0.87217   -0.573554
 O 0.82725 0.88657 0.11611   -0.575395
 O 0.9481 0.23715 0.73867   -0.722869
 O 0.52617 0.93633 0.85105   -0.053182
 O 0.52641 0.59059 0.21845   -0.602923
 O 0.96115 0.25445 0.89529   -0.624949
 O 0.03945 0.37217 0.89373   -0.573276
 O 0.71382 0.61611 0.11343   -0.57655
 O 0.18525 0.23867 0.76285   -0.722851
 O 0.4625 0.35105 0.06367   -0.053425
 O 0.83545 0.90941 0.28155   -0.603378
 O 0.61089 0.24555 0.60471   -0.625273
 O 0.80535 0.12783 0.60627   -0.572751
 O 0.94336 0.88389 0.38657   -0.57656
 O 0.68677 0.26133 0.73715   -0.722555
 O 0.37722 0.14895 0.43633   -0.051917
