{'_ref': 'TBD', '_srcid': 'CAKYAQ_clean', 'submitters': [{'name': 'Dalar Nazarian Jeff Camp and David Sholl', 'email': 'dalar@gatech.edu jcamp6@gatech.edu'}], '_method': 'VASP DFT with PBE;DDEC'}
data_PrH18(C2O)6
_symmetry_space_group_name_H-M   'P 1'
_cell_length_a   7.74469966
_cell_length_b   10.19349981
_cell_length_c   12.14640000
_cell_angle_alpha   80.75099837
_cell_angle_beta   80.28699776
_cell_angle_gamma   82.81799715
_symmetry_Int_Tables_number   1
_chemical_formula_structural   PrH18(C2O)6
_chemical_formula_sum   'Pr2 H36 C24 O12'
_cell_volume   928.135188795
_cell_formula_units_Z   2
loop_
 _symmetry_equiv_pos_site_id
 _symmetry_equiv_pos_as_xyz
  1  'x, y, z'
loop_
 _atom_site_label
 _atom_site_fract_x
 _atom_site_fract_y
 _atom_site_fract_z
 _atom_site_charge
 Pr 0.73908 0.00999 0.55898   2.221157
 Pr 0.26092 0.99001 0.44102   2.221157
 H 0.1356 0.5851 0.4553   0.089997
 H 0.0791 0.4828 0.3877   0.066198
 H 0.8087 0.7766 0.2386   0.115485
 H 0.9987 0.7087 0.2499   0.122795
 H 0.9563 0.8418 0.884   0.074348
 H 0.1571 0.816 0.894   0.063688
 H 0.8908 0.6899 0.0465   0.06228
 H 0.0914 0.6576 0.0555   0.060526
 H 0.9076 0.9123 0.079   0.058682
 H 0.1044 0.8723 0.0962   0.062049
 H 0.4604 0.4488 0.4237   0.130166
 H 0.3748 0.358 0.3593   0.138125
 H 0.2452 0.4145 0.5816   0.057135
 H 0.1686 0.3076 0.5294   0.055643
 H 0.1556 0.593 0.8617   0.058122
 H 0.9574 0.6244 0.8457   0.059942
 H 0.1613 0.63 0.6735   0.135025
 H 0.2247 0.7587 0.7021   0.131485
 H 0.8644 0.4149 0.5447   0.089997
 H 0.9209 0.5172 0.6123   0.066197
 H 0.1913 0.2234 0.7614   0.115481
 H 0.0013 0.2913 0.7501   0.122794
 H 0.0437 0.1582 0.116   0.074351
 H 0.8429 0.184 0.106   0.063691
 H 0.1092 0.3101 0.9535   0.06229
 H 0.9086 0.3424 0.9445   0.060536
 H 0.0924 0.0877 0.921   0.058693
 H 0.8956 0.1277 0.9038   0.062059
 H 0.5396 0.5512 0.5763   0.130156
 H 0.6252 0.642 0.6407   0.138126
 H 0.7548 0.5855 0.4184   0.057127
 H 0.8314 0.6924 0.4706   0.05564
 H 0.8444 0.407 0.1383   0.058133
 H 0.0426 0.3756 0.1543   0.05995
 H 0.8387 0.37 0.3265   0.135021
 H 0.7753 0.2413 0.2979   0.131484
 C 0.5068 0.2499 0.4819   0.782942
 C 0.9507 0.8885 0.3071   0.831873
 C 0.0912 0.4988 0.4625   -0.146605
 C 0.9315 0.793 0.2284   -0.358182
 C 0.0481 0.7744 0.9075   -0.132403
 C 0.0026 0.7278 0.0326   -0.121405
 C 0.9901 0.8391 0.1053   -0.049478
 C 0.3971 0.3704 0.4329   -0.362354
 C 0.2216 0.3913 0.5116   -0.041702
 C 0.0685 0.6627 0.8355   -0.053239
 C 0.1238 0.7083 0.7108   -0.350948
 C 0.9825 0.7936 0.6516   0.783931
 C 0.4932 0.7501 0.5181   0.782942
 C 0.0493 0.1115 0.6929   0.831872
 C 0.9088 0.5012 0.5375   -0.146619
 C 0.0685 0.207 0.7716   -0.358179
 C 0.9519 0.2256 0.0925   -0.132402
 C 0.9974 0.2722 0.9674   -0.12141
 C 0.0099 0.1609 0.8947   -0.049484
 C 0.6029 0.6296 0.5671   -0.362352
 C 0.7784 0.6087 0.4884   -0.041699
 C 0.9315 0.3373 0.1645   -0.053246
 C 0.8762 0.2917 0.2892   -0.350945
 C 0.0175 0.2064 0.3484   0.783929
 O 0.8115 0.9376 0.3634   -0.746049
 O 0.6128 0.2603 0.5452   -0.655263
 O 0.488 0.1351 0.458   -0.874611
 O 0.8237 0.7987 0.6956   -0.663772
 O 0.1031 0.9136 0.3121   -0.76173
 O 0.0291 0.8593 0.5544   -0.843858
 O 0.1885 0.0624 0.6366   -0.746049
 O 0.3872 0.7397 0.4548   -0.655263
 O 0.512 0.8649 0.542   -0.874611
 O 0.1763 0.2013 0.3044   -0.663772
 O 0.8969 0.0864 0.6879   -0.76173
 O 0.9709 0.1407 0.4456   -0.843858
