{'_ref': 'TBD', '_srcid': 'CAKYAQ_clean', 'submitters': [{'name': 'Dalar Nazarian Jeff Camp and David Sholl', 'email': 'dalar@gatech.edu jcamp6@gatech.edu'}], '_method': 'VASP DFT with PBE;DDEC'}
data_CuH24C33(N2Cl)2
_symmetry_space_group_name_H-M   'P 1'
_cell_length_a   11.75259971
_cell_length_b   11.75260006
_cell_length_c   11.83230000
_cell_angle_alpha   91.78120153
_cell_angle_beta   91.78120158
_cell_angle_gamma   105.18700139
_symmetry_Int_Tables_number   1
_chemical_formula_structural   CuH24C33(N2Cl)2
_chemical_formula_sum   'Cu2 H48 C66 N8 Cl4'
_cell_volume   1575.1767585
_cell_formula_units_Z   2
loop_
 _symmetry_equiv_pos_site_id
 _symmetry_equiv_pos_as_xyz
  1  'x, y, z'
loop_
 _atom_site_label
 _atom_site_fract_x
 _atom_site_fract_y
 _atom_site_fract_z
 _atom_site_charge
 Cu 0.12945 0.73122 0.53017   0.634969
 Cu 0.73122 0.12945 0.03017   0.634969
 H 0.1256 0.5654 0.7251   0.074278
 H 0.0315 0.5219 0.8932   0.119857
 H 0.8898 0.7982 0.8503   0.134018
 H 0.9868 0.8326 0.6828   0.090166
 H 0.617 0.6358 0.0886   0.109909
 H 0.7431 0.6989 0.9424   0.100436
 H 0.9744 0.532 0.075   0.085342
 H 0.8507 0.4719 0.2241   0.105707
 H 0.9609 0.2137 0.932   0.080867
 H 0.1579 0.3043 0.9722   0.13634
 H 0.0771 0.3557 0.2973   0.132616
 H 0.8817 0.2665 0.2464   0.086044
 H 0.4602 0.5488 0.3558   0.11742
 H 0.258 0.4794 0.3143   0.09617
 H 0.3259 0.3031 0.0344   0.100327
 H 0.5281 0.3725 0.0766   0.116097
 H 0.7918 0.372 0.9387   0.054723
 H 0.783 0.4618 0.7678   0.12535
 H 0.7023 0.1375 0.612   0.124093
 H 0.7116 0.057 0.7866   0.077587
 H 0.5309 0.3027 0.3414   0.120518
 H 0.574 0.226 0.5117   0.083159
 H 0.8574 0.5068 0.571   0.104972
 H 0.8153 0.5855 0.3999   0.118046
 H 0.5654 0.1256 0.2251   0.074278
 H 0.5219 0.0315 0.3932   0.119855
 H 0.7982 0.8898 0.3503   0.134018
 H 0.8326 0.9868 0.1828   0.090166
 H 0.6358 0.617 0.5886   0.109908
 H 0.6989 0.7431 0.4424   0.100435
 H 0.532 0.9744 0.575   0.08534
 H 0.4719 0.8507 0.7241   0.105706
 H 0.2137 0.9609 0.432   0.080867
 H 0.3043 0.1579 0.4722   0.136342
 H 0.3557 0.0771 0.7973   0.13262
 H 0.2665 0.8817 0.7464   0.086044
 H 0.5488 0.4602 0.8558   0.117419
 H 0.4794 0.258 0.8143   0.09617
 H 0.3031 0.3259 0.5344   0.10033
 H 0.3725 0.5281 0.5766   0.116097
 H 0.372 0.7918 0.4387   0.054723
 H 0.4618 0.783 0.2678   0.12535
 H 0.1375 0.7023 0.112   0.124091
 H 0.057 0.7116 0.2866   0.077587
 H 0.3027 0.5309 0.8414   0.120519
 H 0.226 0.574 0.0117   0.083156
 H 0.5068 0.8574 0.071   0.104972
 H 0.5855 0.8153 0.8999   0.118046
 C 0.07558 0.612 0.75016   0.154014
 C 0.01947 0.58541 0.85092   -0.223973
 C 0.94468 0.6521 0.89067   0.119962
 C 0.936 0.74754 0.8257   -0.190076
 C 0.99481 0.76791 0.7256   0.155751
 C 0.7188 0.54396 0.17021   0.183016
 C 0.68918 0.61384 0.0858   -0.187978
 C 0.76459 0.65121 0.9983   -0.041815
 C 0.87174 0.62014 0.99066   -0.03722
 C 0.90165 0.55297 0.07713   -0.063999
 C 0.82747 0.51607 0.16605   -0.182567
 C 0.98496 0.24286 0.00712   0.158918
 C 0.10335 0.29565 0.03094   -0.215975
 C 0.14316 0.33648 0.1415   0.124197
 C 0.05607 0.32631 0.22172   -0.197053
 C 0.93892 0.2731 0.19032   0.15603
 C 0.51351 0.46683 0.22054   0.1619
 C 0.43267 0.49869 0.29067   -0.16916
 C 0.31236 0.45766 0.26585   -0.058402
 C 0.27062 0.38402 0.16927   -0.029751
 C 0.35285 0.35307 0.09978   -0.069068
 C 0.47339 0.39409 0.1248   -0.161888
 C 0.77239 0.32389 0.87125   0.14314
 C 0.76709 0.37837 0.7694   -0.2106
 C 0.73811 0.30895 0.66931   0.13739
 C 0.71951 0.18781 0.67817   -0.207876
 C 0.72591 0.14015 0.7827   0.16586
 C 0.66825 0.45253 0.35434   0.16035
 C 0.59672 0.34458 0.38798   -0.197134
 C 0.62256 0.29934 0.48946   -0.07624
 C 0.7187 0.3594 0.55989   -0.018365
 C 0.79078 0.46584 0.52488   -0.06242
 C 0.76599 0.51283 0.42274   -0.153159
 C 0.612 0.07558 0.25016   0.154013
 C 0.58541 0.01947 0.35092   -0.223973
 C 0.6521 0.94468 0.39067   0.119962
 C 0.74754 0.936 0.3257   -0.190075
 C 0.76791 0.99481 0.2256   0.155751
 C 0.54396 0.7188 0.67021   0.183016
 C 0.61384 0.68918 0.5858   -0.187979
 C 0.65121 0.76459 0.4983   -0.041815
 C 0.62014 0.87174 0.49066   -0.03722
 C 0.55297 0.90165 0.57713   -0.063998
 C 0.51607 0.82747 0.66605   -0.182568
 C 0.24286 0.98496 0.50712   0.158919
 C 0.29565 0.10335 0.53094   -0.215973
 C 0.33648 0.14316 0.6415   0.124197
 C 0.32631 0.05607 0.72172   -0.197052
 C 0.2731 0.93892 0.69032   0.15603
 C 0.46683 0.51351 0.72054   0.1619
 C 0.49869 0.43267 0.79067   -0.16916
 C 0.45766 0.31236 0.76585   -0.058403
 C 0.38402 0.27062 0.66927   -0.029751
 C 0.35307 0.35285 0.59978   -0.069068
 C 0.39409 0.47339 0.6248   -0.161888
 C 0.32389 0.77239 0.37125   0.14314
 C 0.37837 0.76709 0.2694   -0.210601
 C 0.30895 0.73811 0.16931   0.137389
 C 0.18781 0.71951 0.17817   -0.207872
 C 0.14015 0.72591 0.2827   0.165859
 C 0.45253 0.66825 0.85434   0.16035
 C 0.34458 0.59672 0.88798   -0.197135
 C 0.29934 0.62256 0.98946   -0.07624
 C 0.3594 0.7187 0.05989   -0.018365
 C 0.46584 0.79078 0.02488   -0.06242
 C 0.51283 0.76599 0.92274   -0.153159
 N 0.06248 0.70104 0.68593   -0.299457
 N 0.90203 0.23063 0.08524   -0.330808
 N 0.75148 0.20684 0.87896   -0.266596
 N 0.63676 0.50174 0.25357   -0.140734
 N 0.70104 0.06248 0.18593   -0.299457
 N 0.23063 0.90203 0.58524   -0.330808
 N 0.20684 0.75148 0.37896   -0.266596
 N 0.50174 0.63676 0.75357   -0.140734
 Cl 0.1157 0.53382 0.49537   -0.534928
 Cl 0.96471 0.80453 0.45594   -0.622295
 Cl 0.53382 0.1157 0.99537   -0.534928
 Cl 0.80453 0.96471 0.95594   -0.622295
