{'_ref': 'TBD', '_srcid': 'CAKYAQ_clean', 'submitters': [{'name': 'Dalar Nazarian Jeff Camp and David Sholl', 'email': 'dalar@gatech.edu jcamp6@gatech.edu'}], '_method': 'VASP DFT with PBE;DDEC'}
data_NaU2H6(C6O5)3
_symmetry_space_group_name_H-M   'P 1'
_cell_length_a   7.97140000
_cell_length_b   9.74029962
_cell_length_c   21.31200000
_cell_angle_alpha   90.00000000
_cell_angle_beta   90.00000000
_cell_angle_gamma   114.15399941
_symmetry_Int_Tables_number   1
_chemical_formula_structural   NaU2H6(C6O5)3
_chemical_formula_sum   'Na2 U4 H12 C36 O30'
_cell_volume   1509.87047961
_cell_formula_units_Z   2
loop_
 _symmetry_equiv_pos_site_id
 _symmetry_equiv_pos_as_xyz
  1  'x, y, z'
loop_
 _atom_site_label
 _atom_site_fract_x
 _atom_site_fract_y
 _atom_site_fract_z
 _atom_site_charge
 Na 0.8899 0.0 0.5   0.964608
 Na 0.1101 0.0 0.0   0.964608
 U 0.45905 0.8568 0.61808   1.617786
 U 0.54095 0.1432 0.11808   1.617786
 U 0.39775 0.8568 0.88192   1.618439
 U 0.60225 0.1432 0.38192   1.618439
 H 0.9845 0.6636 0.543   0.091232
 H 0.9829 0.3992 0.5469   0.138184
 H 0.8551 0.445 0.72   0.152708
 H 0.0155 0.3364 0.043   0.091232
 H 0.0171 0.6008 0.0469   0.138184
 H 0.1449 0.555 0.22   0.152708
 H 0.6791 0.6636 0.957   0.090999
 H 0.4163 0.3992 0.9531   0.137899
 H 0.5899 0.445 0.78   0.152154
 H 0.3209 0.3364 0.457   0.090999
 H 0.5837 0.6008 0.4531   0.137899
 H 0.4101 0.555 0.28   0.152154
 C 0.6282 0.659 0.5863   0.614011
 C 0.7199 0.556 0.5746   0.030982
 C 0.9534 0.673 0.7223   0.056814
 C 0.7241 0.3342 0.5778   0.020797
 C 0.6355 0.173 0.589   0.560333
 C 0.8882 0.5746 0.5553   -0.120492
 C 0.8866 0.4252 0.5577   -0.120952
 C 0.123 0.7404 0.6871   0.518061
 C 0.8389 0.5298 0.7331   -0.117081
 C 0.3718 0.341 0.0863   0.614011
 C 0.2801 0.444 0.0746   0.030982
 C 0.0466 0.327 0.2223   0.056814
 C 0.2759 0.6658 0.0778   0.020797
 C 0.3645 0.827 0.089   0.560333
 C 0.1118 0.4254 0.0553   -0.120492
 C 0.1134 0.5748 0.0577   -0.120952
 C 0.877 0.2596 0.1871   0.518061
 C 0.1611 0.4702 0.2331   -0.117081
 C 0.0308 0.659 0.9137   0.6152
 C 0.8361 0.556 0.9254   0.030943
 C 0.7196 0.673 0.7777   0.056902
 C 0.6101 0.3342 0.9222   0.020591
 C 0.5375 0.173 0.911   0.560971
 C 0.6864 0.5746 0.9447   -0.120408
 C 0.5386 0.4252 0.9423   -0.120159
 C 0.6174 0.7404 0.8129   0.517771
 C 0.6909 0.5298 0.7669   -0.116717
 C 0.9692 0.341 0.4137   0.6152
 C 0.1639 0.444 0.4254   0.030943
 C 0.2804 0.327 0.2777   0.056902
 C 0.3899 0.6658 0.4222   0.020591
 C 0.4625 0.827 0.411   0.560971
 C 0.3136 0.4254 0.4447   -0.120408
 C 0.4614 0.5748 0.4423   -0.120159
 C 0.3826 0.2596 0.3129   0.517771
 C 0.3091 0.4702 0.2669   -0.116717
 O 0.4779 0.614 0.6109   -0.536365
 O 0.7109 0.7998 0.57   -0.745011
 O 0.4802 0.1138 0.6167   -0.591517
 O 0.1929 0.8788 0.6717   -0.593906
 O 0.7162 0.0888 0.5745   -0.707739
 O 0.2007 0.6556 0.669   -0.577423
 O 0.6142 0.4098 0.5898   -0.102743
 O 0.5221 0.386 0.1109   -0.536365
 O 0.2891 0.2002 0.07   -0.745011
 O 0.5198 0.8862 0.1167   -0.591517
 O 0.8071 0.1212 0.1717   -0.593906
 O 0.2838 0.9112 0.0745   -0.707739
 O 0.7993 0.3444 0.169   -0.577423
 O 0.3858 0.5902 0.0898   -0.102743
 O 0.1361 0.614 0.8891   -0.537478
 O 0.0889 0.7998 0.93   -0.745578
 O 0.6336 0.1138 0.8833   -0.592174
 O 0.6859 0.8788 0.8283   -0.593777
 O 0.3726 0.0888 0.9255   -0.708192
 O 0.4549 0.6556 0.831   -0.57699
 O 0.7956 0.4098 0.9102   -0.103013
 O 0.8639 0.386 0.3891   -0.537478
 O 0.9111 0.2002 0.43   -0.745578
 O 0.3664 0.8862 0.3833   -0.592174
 O 0.3141 0.1212 0.3283   -0.593777
 O 0.6274 0.9112 0.4255   -0.708192
 O 0.5451 0.3444 0.331   -0.57699
 O 0.2044 0.5902 0.4102   -0.103013
 O 0.8839 0.7678 0.75   -0.139673
 O 0.1161 0.2322 0.25   -0.139673
