{'_ref': 'TBD', '_srcid': 'CAKYAQ_clean', 'submitters': [{'name': 'Dalar Nazarian Jeff Camp and David Sholl', 'email': 'dalar@gatech.edu jcamp6@gatech.edu'}], '_method': 'VASP DFT with PBE;DDEC'}
data_CuC14(NF)8
_symmetry_space_group_name_H-M   'P 1'
_cell_length_a   13.87210046
_cell_length_b   15.89910025
_cell_length_c   17.67430000
_cell_angle_alpha   63.27039912
_cell_angle_beta   78.89420015
_cell_angle_gamma   64.64310105
_symmetry_Int_Tables_number   1
_chemical_formula_structural   CuC14(NF)8
_chemical_formula_sum   'Cu4 C56 N32 F32'
_cell_volume   3146.15468646
_cell_formula_units_Z   4
loop_
 _symmetry_equiv_pos_site_id
 _symmetry_equiv_pos_as_xyz
  1  'x, y, z'
loop_
 _atom_site_label
 _atom_site_fract_x
 _atom_site_fract_y
 _atom_site_fract_z
 _atom_site_charge
 Cu 0.7567 0.48423 0.0   0.517701
 Cu 0.2433 0.51577 0.0   0.517701
 Cu 0.5 0.5 0.0   0.533725
 Cu 0.0 0.5 0.0   0.524245
 C 0.6846 0.26185 0.1999   0.393031
 C 0.708 0.17479 0.28402   -0.202564
 C 0.6722 0.09822 0.30716   0.201639
 C 0.6951 0.01639 0.38582   0.143559
 C 0.7525 0.01251 0.44458   -0.061051
 C 0.7869 0.0839 0.4208   0.166106
 C 0.7645 0.168 0.3442   0.209646
 C 0.8191 0.70799 0.79282   0.403314
 C 0.8022 0.78145 0.7051   -0.201042
 C 0.7017 0.84067 0.66706   0.20063
 C 0.6863 0.90821 0.58498   0.152471
 C 0.7697 0.92926 0.53228   -0.086834
 C 0.8687 0.8713 0.5688   0.152525
 C 0.8847 0.80082 0.65176   0.193414
 C 0.3154 0.53825 0.1999   0.389228
 C 0.292 0.54119 0.28402   -0.20312
 C 0.3278 0.59462 0.30716   0.20284
 C 0.3049 0.59779 0.38582   0.146145
 C 0.2475 0.54291 0.44458   -0.061581
 C 0.2131 0.4953 0.4208   0.167027
 C 0.2355 0.4878 0.3442   0.209715
 C 0.1809 0.49919 0.79282   0.404177
 C 0.1978 0.51345 0.7051   -0.202797
 C 0.2983 0.49227 0.66706   0.201377
 C 0.3137 0.50681 0.58498   0.150524
 C 0.2303 0.53846 0.53228   -0.084719
 C 0.1313 0.5599 0.5688   0.153887
 C 0.1153 0.54742 0.65176   0.19299
 C 0.3154 0.73815 0.8001   0.393033
 C 0.292 0.82521 0.71598   -0.202564
 C 0.3278 0.90178 0.69284   0.201639
 C 0.3049 0.98361 0.61418   0.143559
 C 0.2475 0.98749 0.55542   -0.061051
 C 0.2131 0.9161 0.5792   0.166106
 C 0.2355 0.832 0.6558   0.209646
 C 0.1809 0.29201 0.20718   0.403314
 C 0.1978 0.21855 0.2949   -0.201042
 C 0.2983 0.15933 0.33294   0.20063
 C 0.3137 0.09179 0.41502   0.152471
 C 0.2303 0.07074 0.46772   -0.086834
 C 0.1313 0.1287 0.4312   0.152525
 C 0.1153 0.19918 0.34824   0.193414
 C 0.6846 0.46175 0.8001   0.38923
 C 0.708 0.45881 0.71598   -0.20312
 C 0.6722 0.40538 0.69284   0.202839
 C 0.6951 0.40221 0.61418   0.146145
 C 0.7525 0.45709 0.55542   -0.061581
 C 0.7869 0.5047 0.5792   0.167027
 C 0.7645 0.5122 0.6558   0.209715
 C 0.8191 0.50081 0.20718   0.404176
 C 0.8022 0.48655 0.2949   -0.202797
 C 0.7017 0.50773 0.33294   0.201377
 C 0.6863 0.49319 0.41502   0.150524
 C 0.7697 0.46154 0.46772   -0.084719
 C 0.8687 0.4401 0.4312   0.153887
 C 0.8847 0.45258 0.34824   0.19299
 N 0.6065 0.38641 0.09138   -0.019434
 N 0.7055 0.3793 0.0888   0.010317
 N 0.7574 0.30282 0.15616   -0.306489
 N 0.5911 0.313 0.1604   -0.287695
 N 0.801 0.59257 0.90866   -0.008376
 N 0.8899 0.6026 0.9092   -0.01145
 N 0.9046 0.67365 0.8385   -0.29276
 N 0.753 0.66001 0.83518   -0.294517
 N 0.3935 0.52221 0.09138   -0.025972
 N 0.2945 0.5319 0.0888   0.010914
 N 0.2426 0.54102 0.15616   -0.303876
 N 0.4089 0.5266 0.1604   -0.282205
 N 0.199 0.49877 0.90866   -0.005971
 N 0.1101 0.4882 0.9092   -0.013285
 N 0.0954 0.48785 0.8385   -0.294369
 N 0.247 0.50481 0.83518   -0.293706
 N 0.3935 0.61359 0.90862   -0.019434
 N 0.2945 0.6207 0.9112   0.010317
 N 0.2426 0.69718 0.84384   -0.306488
 N 0.4089 0.687 0.8396   -0.287695
 N 0.199 0.40743 0.09134   -0.008377
 N 0.1101 0.3974 0.0908   -0.011451
 N 0.0954 0.32635 0.1615   -0.292759
 N 0.247 0.33999 0.16482   -0.294518
 N 0.6065 0.47779 0.90862   -0.025972
 N 0.7055 0.4681 0.9112   0.010913
 N 0.7574 0.45898 0.84384   -0.303875
 N 0.5911 0.4734 0.8396   -0.282204
 N 0.801 0.50123 0.09134   -0.005972
 N 0.8899 0.5118 0.0908   -0.013286
 N 0.9046 0.51215 0.1615   -0.294367
 N 0.753 0.49519 0.16482   -0.293706
 F 0.6203 0.09705 0.2523   -0.114975
 F 0.6609 0.94212 0.40396   -0.115896
 F 0.8385 0.08971 0.47858   -0.16735
 F 0.8012 0.24068 0.32524   -0.109255
 F 0.6153 0.82785 0.7139   -0.129559
 F 0.5849 0.96412 0.55576   -0.126963
 F 0.9515 0.88564 0.52192   -0.109415
 F 0.9825 0.75417 0.68246   -0.103974
 F 0.3797 0.65065 0.2523   -0.11503
 F 0.3391 0.65392 0.40396   -0.117672
 F 0.1615 0.43171 0.47858   -0.168721
 F 0.1988 0.43408 0.32524   -0.109475
 F 0.3847 0.45825 0.7139   -0.129489
 F 0.4151 0.48012 0.55576   -0.126839
 F 0.0485 0.59244 0.52192   -0.110525
 F 0.0175 0.56337 0.68246   -0.103215
 F 0.3797 0.90295 0.7477   -0.114971
 F 0.3391 0.05788 0.59604   -0.115898
 F 0.1615 0.91029 0.52142   -0.167351
 F 0.1988 0.75932 0.67476   -0.109255
 F 0.3847 0.17215 0.2861   -0.129558
 F 0.4151 0.03588 0.44424   -0.126965
 F 0.0485 0.11436 0.47808   -0.109415
 F 0.0175 0.24583 0.31754   -0.103974
 F 0.6203 0.34935 0.7477   -0.115026
 F 0.6609 0.34608 0.59604   -0.117673
 F 0.8385 0.56829 0.52142   -0.168722
 F 0.8012 0.56592 0.67476   -0.109475
 F 0.6153 0.54175 0.2861   -0.129488
 F 0.5849 0.51988 0.44424   -0.126842
 F 0.9515 0.40756 0.47808   -0.110525
 F 0.9825 0.43663 0.31754   -0.103215
