{'_ref': 'TBD', '_srcid': 'CAKYAQ_clean', 'submitters': [{'name': 'Dalar Nazarian Jeff Camp and David Sholl', 'email': 'dalar@gatech.edu jcamp6@gatech.edu'}], '_method': 'VASP DFT with PBE;DDEC'}
data_MnH6(C3O)4
_symmetry_space_group_name_H-M   'P 1'
_cell_length_a   11.66709969
_cell_length_b   11.66709968
_cell_length_c   20.98690000
_cell_angle_alpha   95.85660132
_cell_angle_beta   95.85660132
_cell_angle_gamma   104.27600092
_symmetry_Int_Tables_number   1
_chemical_formula_structural   MnH6(C3O)4
_chemical_formula_sum   'Mn6 H36 C72 O24'
_cell_volume   2730.01400019
_cell_formula_units_Z   6
loop_
 _symmetry_equiv_pos_site_id
 _symmetry_equiv_pos_as_xyz
  1  'x, y, z'
loop_
 _atom_site_label
 _atom_site_fract_x
 _atom_site_fract_y
 _atom_site_fract_z
 _atom_site_charge
 Mn 0.52093 0.03203 0.81289   1.090975
 Mn 0.96797 0.47907 0.68711   1.090968
 Mn 0.47907 0.96797 0.18711   1.090959
 Mn 0.03203 0.52093 0.31289   1.090951
 Mn 0.75207 0.24793 0.75   1.002689
 Mn 0.24793 0.75207 0.25   1.002689
 H 0.6477 0.0373 0.6083   0.106336
 H 0.3036 0.0362 0.6063   0.110165
 H 0.2754 0.0062 0.496   0.089412
 H 0.7367 0.5015 0.9157   0.075755
 H 0.7201 0.6305 0.002   0.103653
 H 0.403 0.306 0.9172   0.10581
 H 0.9998 0.2244 0.5285   0.109371
 H 0.8886 0.9802 0.6442   0.113601
 H 0.9295 0.8367 0.575   0.113345
 H 0.9627 0.3523 0.8917   0.106335
 H 0.9638 0.6964 0.8937   0.110157
 H 0.9938 0.7246 0.004   0.089406
 H 0.4985 0.2633 0.5843   0.07575
 H 0.3695 0.2799 0.498   0.103642
 H 0.694 0.597 0.5828   0.105754
 H 0.7756 0.0002 0.9715   0.109367
 H 0.0198 0.1114 0.8558   0.113562
 H 0.1633 0.0705 0.925   0.113309
 H 0.3523 0.9627 0.3917   0.106332
 H 0.6964 0.9638 0.3937   0.110164
 H 0.7246 0.9938 0.504   0.089419
 H 0.2633 0.4985 0.0843   0.075752
 H 0.2799 0.3695 0.998   0.103635
 H 0.597 0.694 0.0828   0.105771
 H 0.0002 0.7756 0.4715   0.109331
 H 0.1114 0.0198 0.3558   0.1136
 H 0.0705 0.1633 0.425   0.113303
 H 0.0373 0.6477 0.1083   0.106332
 H 0.0362 0.3036 0.1063   0.110156
 H 0.0062 0.2754 0.996   0.089412
 H 0.5015 0.7367 0.4157   0.075747
 H 0.6305 0.7201 0.502   0.103624
 H 0.306 0.403 0.4172   0.105717
 H 0.2244 0.9998 0.0285   0.109328
 H 0.9802 0.8886 0.1442   0.113561
 H 0.8367 0.9295 0.075   0.113268
 C 0.49538 0.0517 0.69048   0.682526
 C 0.48072 0.03866 0.61818   -0.12293
 C 0.57278 0.02848 0.58549   -0.058537
 C 0.55719 0.00475 0.51726   0.03811
 C 0.36679 0.02921 0.58386   -0.05199
 C 0.3498 0.00984 0.51806   -0.114876
 C 0.5854 0.30146 0.85438   0.714685
 C 0.57048 0.38942 0.90863   -0.139757
 C 0.66599 0.48861 0.93399   -0.031525
 C 0.65582 0.56618 0.9852   -0.144172
 C 0.46598 0.3713 0.93438   -0.083357
 C 0.45179 0.45053 0.98704   0.042341
 C 0.91032 0.21166 0.63845   0.708798
 C 0.94063 0.11827 0.59277   -0.137454
 C 0.98536 0.14606 0.53741   -0.078785
 C 0.0105 0.05882 0.49292   0.042263
 C 0.91941 5.00000000017e-05 0.60645   -0.047418
 C 0.94353 0.91435 0.56502   -0.140476
 C 0.9483 0.50462 0.80952   0.682525
 C 0.96134 0.51928 0.88182   -0.122933
 C 0.97152 0.42722 0.91451   -0.058538
 C 0.99525 0.44281 0.98274   0.038103
 C 0.97079 0.63321 0.91614   -0.051989
 C 0.99016 0.6502 0.98194   -0.114874
 C 0.69854 0.4146 0.64562   0.714678
 C 0.61058 0.42952 0.59137   -0.139761
 C 0.51139 0.33401 0.56601   -0.031538
 C 0.43382 0.34418 0.5148   -0.144173
 C 0.6287 0.53402 0.56562   -0.083341
 C 0.54947 0.54821 0.51296   0.042333
 C 0.78834 0.08968 0.86155   0.708798
 C 0.88173 0.05937 0.90723   -0.137457
 C 0.85394 0.01464 0.96259   -0.078792
 C 0.94118 0.9895 0.00708   0.042261
 C 0.99995 0.08059 0.89355   -0.047408
 C 0.08565 0.05647 0.93498   -0.140468
 C 0.50462 0.9483 0.30952   0.682527
 C 0.51928 0.96134 0.38182   -0.122942
 C 0.42722 0.97152 0.41451   -0.058544
 C 0.44281 0.99525 0.48274   0.038034
 C 0.63321 0.97079 0.41614   -0.051987
 C 0.6502 0.99016 0.48194   -0.11494
 C 0.4146 0.69854 0.14562   0.714686
 C 0.42952 0.61058 0.09137   -0.139781
 C 0.33401 0.51139 0.06601   -0.031495
 C 0.34418 0.43382 0.0148   -0.144366
 C 0.53402 0.6287 0.06562   -0.083342
 C 0.54821 0.54947 0.01296   0.042125
 C 0.08968 0.78834 0.36155   0.708795
 C 0.05937 0.88173 0.40723   -0.137455
 C 0.01464 0.85394 0.46259   -0.078798
 C 0.9895 0.94118 0.50708   0.042232
 C 0.08059 0.99995 0.39355   -0.047415
 C 0.05647 0.08565 0.43498   -0.140505
 C 0.0517 0.49538 0.19048   0.682526
 C 0.03866 0.48072 0.11818   -0.122944
 C 0.02848 0.57278 0.08549   -0.058546
 C 0.00475 0.55719 0.01726   0.03803
 C 0.02921 0.36679 0.08386   -0.051987
 C 0.00984 0.3498 0.01806   -0.114937
 C 0.30146 0.5854 0.35438   0.71468
 C 0.38942 0.57048 0.40863   -0.139784
 C 0.48861 0.66599 0.43399   -0.031507
 C 0.56618 0.65582 0.4852   -0.144367
 C 0.3713 0.46598 0.43438   -0.083325
 C 0.45053 0.45179 0.48704   0.042119
 C 0.21166 0.91032 0.13845   0.708795
 C 0.11827 0.94063 0.09277   -0.137458
 C 0.14606 0.98536 0.03741   -0.078804
 C 0.05882 0.0105 0.99292   0.04223
 C 5.00000000017e-05 0.91941 0.10645   -0.047405
 C 0.91435 0.94353 0.06502   -0.140497
 O 0.60035 0.08687 0.72176   -0.62225
 O 0.40607 0.02089 0.71835   -0.571349
 O 0.67237 0.33121 0.82439   -0.55761
 O 0.5076 0.2034 0.84405   -0.647839
 O 0.85093 0.17607 0.68158   -0.544912
 O 0.94784 0.31786 0.62836   -0.652779
 O 0.91313 0.39965 0.77824   -0.62225
 O 0.97911 0.59393 0.78165   -0.571348
 O 0.66879 0.32763 0.67561   -0.557609
 O 0.7966 0.4924 0.65595   -0.647837
 O 0.82393 0.14907 0.81842   -0.544908
 O 0.68214 0.05216 0.87164   -0.652779
 O 0.39965 0.91313 0.27824   -0.622249
 O 0.59393 0.97911 0.28165   -0.571348
 O 0.32763 0.66879 0.17561   -0.557611
 O 0.4924 0.7966 0.15595   -0.647838
 O 0.14907 0.82393 0.31842   -0.544912
 O 0.05216 0.68214 0.37164   -0.652777
 O 0.08687 0.60035 0.22176   -0.622249
 O 0.02089 0.40607 0.21835   -0.571348
 O 0.33121 0.67237 0.32439   -0.55761
 O 0.2034 0.5076 0.34405   -0.647836
 O 0.17607 0.85093 0.18158   -0.544908
 O 0.31786 0.94784 0.12836   -0.652777
