{'_ref': 'TBD', '_srcid': 'CAKYAQ_clean', 'submitters': [{'name': 'Dalar Nazarian Jeff Camp and David Sholl', 'email': 'dalar@gatech.edu jcamp6@gatech.edu'}], '_method': 'VASP DFT with PBE;DDEC'}
data_Cu4H24C29S4(N2O)4
_symmetry_space_group_name_H-M   'P 1'
_cell_length_a   10.72370000
_cell_length_b   13.44810000
_cell_length_c   13.44810000
_cell_angle_alpha   90.00000000
_cell_angle_beta   90.00000000
_cell_angle_gamma   90.00000000
_symmetry_Int_Tables_number   1
_chemical_formula_structural   Cu4H24C29S4(N2O)4
_chemical_formula_sum   'Cu8 H48 C58 S8 N16 O8'
_cell_volume   1939.39608966
_cell_formula_units_Z   2
loop_
 _symmetry_equiv_pos_site_id
 _symmetry_equiv_pos_as_xyz
  1  'x, y, z'
loop_
 _atom_site_label
 _atom_site_fract_x
 _atom_site_fract_y
 _atom_site_fract_z
 _atom_site_charge
 Cu 0.75711 0.34711 0.72878   0.284953
 Cu 0.75711 0.15289 0.77122   0.284953
 Cu 0.25711 0.27122 0.84711   0.284953
 Cu 0.25711 0.22878 0.65289   0.284953
 Cu 0.24289 0.65289 0.27122   0.284953
 Cu 0.24289 0.84711 0.22878   0.284953
 Cu 0.74289 0.72878 0.15289   0.284954
 Cu 0.74289 0.77122 0.34711   0.284953
 H 0.5306 0.4836 0.7694   0.094209
 H 0.5052 0.6743 0.544   0.115347
 H 0.6749 0.5946 0.4733   0.085282
 H 0.7741 0.47 0.556   0.081244
 H 0.3844 0.7507 0.6397   0.066425
 H 0.2787 0.6721 0.6193   0.065445
 H 0.5306 0.0164 0.7306   0.094209
 H 0.5052 0.8257 0.956   0.115347
 H 0.6749 0.9054 0.0267   0.085282
 H 0.7741 0.03 0.944   0.081244
 H 0.3844 0.7493 0.8603   0.066425
 H 0.2787 0.8279 0.8807   0.065445
 H 0.0306 0.2306 0.9836   0.094208
 H 0.0052 0.456 0.1743   0.115347
 H 0.1749 0.5267 0.0946   0.085282
 H 0.2741 0.444 0.97   0.081244
 H 0.8844 0.3603 0.2507   0.066425
 H 0.7787 0.3807 0.1721   0.065445
 H 0.0306 0.2694 0.5164   0.094208
 H 0.0052 0.044 0.3257   0.115347
 H 0.1749 0.9733 0.4054   0.085282
 H 0.2741 0.056 0.53   0.081244
 H 0.8844 0.1397 0.2493   0.066425
 H 0.7787 0.1193 0.3279   0.065445
 H 0.4694 0.5164 0.2306   0.094208
 H 0.4948 0.3257 0.456   0.115347
 H 0.3251 0.4054 0.5267   0.085282
 H 0.2259 0.53 0.444   0.081243
 H 0.6156 0.2493 0.3603   0.066425
 H 0.7213 0.3279 0.3807   0.065445
 H 0.4694 0.9836 0.2694   0.094208
 H 0.4948 0.1743 0.044   0.115347
 H 0.3251 0.0946 0.9733   0.085282
 H 0.2259 0.97 0.056   0.081243
 H 0.6156 0.2507 0.1397   0.066425
 H 0.7213 0.1721 0.1193   0.065445
 H 0.9694 0.7694 0.0164   0.094208
 H 0.9948 0.544 0.8257   0.115347
 H 0.8251 0.4733 0.9054   0.085282
 H 0.7259 0.556 0.03   0.081243
 H 0.1156 0.6397 0.7493   0.066425
 H 0.2213 0.6193 0.8279   0.065445
 H 0.9694 0.7306 0.4836   0.094207
 H 0.9948 0.956 0.6743   0.115347
 H 0.8251 0.0267 0.5946   0.085282
 H 0.7259 0.944 0.47   0.081243
 H 0.1156 0.8603 0.7507   0.066425
 H 0.2213 0.8807 0.6721   0.065445
 C 0.5421 0.2883 0.8754   0.301104
 C 0.5618 0.5081 0.7097   0.026368
 C 0.5019 0.5879 0.6662   0.209251
 C 0.5439 0.6215 0.5763   -0.166919
 C 0.6454 0.5744 0.5352   -0.084331
 C 0.7034 0.4986 0.5841   0.073854
 C 0.3308 0.7015 0.6705   0.072375
 C 0.5421 0.2117 0.6246   0.301104
 C 0.5618 0.9919 0.7903   0.026368
 C 0.5019 0.9121 0.8338   0.209252
 C 0.5439 0.8785 0.9237   -0.166918
 C 0.6454 0.9256 0.9648   -0.084331
 C 0.7034 0.0014 0.9159   0.073854
 C 0.3308 0.7985 0.8295   0.072375
 C 0.0421 0.1246 0.7883   0.301104
 C 0.0618 0.2903 0.0081   0.026368
 C 0.0019 0.3338 0.0879   0.209251
 C 0.0439 0.4237 0.1215   -0.166919
 C 0.1454 0.4648 0.0744   -0.084331
 C 0.2034 0.4159 0.9986   0.073854
 C 0.8308 0.3295 0.2015   0.072375
 C 0.0421 0.3754 0.7117   0.301104
 C 0.0618 0.2097 0.4919   0.026368
 C 0.0019 0.1662 0.4121   0.209252
 C 0.0439 0.0763 0.3785   -0.166918
 C 0.1454 0.0352 0.4256   -0.084331
 C 0.2034 0.0841 0.5014   0.073854
 C 0.8308 0.1705 0.2985   0.072375
 C 0.4579 0.7117 0.1246   0.301104
 C 0.4382 0.4919 0.2903   0.02637
 C 0.4981 0.4121 0.3338   0.209251
 C 0.4561 0.3785 0.4237   -0.166917
 C 0.3546 0.4256 0.4648   -0.084331
 C 0.2966 0.5014 0.4159   0.073855
 C 0.6692 0.2985 0.3295   0.072375
 C 0.4579 0.7883 0.3754   0.301104
 C 0.4382 0.0081 0.2097   0.02637
 C 0.4981 0.0879 0.1662   0.209252
 C 0.4561 0.1215 0.0763   -0.166917
 C 0.3546 0.0744 0.0352   -0.084331
 C 0.2966 0.9986 0.0841   0.073855
 C 0.6692 0.2015 0.1705   0.072375
 C 0.9579 0.8754 0.2117   0.301104
 C 0.9382 0.7097 0.9919   0.02637
 C 0.9981 0.6662 0.9121   0.209251
 C 0.9561 0.5763 0.8785   -0.166917
 C 0.8546 0.5352 0.9256   -0.084331
 C 0.7966 0.5841 0.0014   0.073855
 C 0.1692 0.6705 0.7985   0.072375
 C 0.9579 0.6246 0.2883   0.301105
 C 0.9382 0.7903 0.5081   0.02637
 C 0.9981 0.8338 0.5879   0.209252
 C 0.9561 0.9237 0.6215   -0.166917
 C 0.8546 0.9648 0.5744   -0.084331
 C 0.7966 0.9159 0.4986   0.073855
 C 0.1692 0.8295 0.7015   0.072375
 C 0.25 0.75 0.75   -0.044042
 C 0.75 0.25 0.25   -0.044042
 S 0.69656 0.29168 0.88706   -0.304177
 S 0.69656 0.20832 0.61294   -0.304177
 S 0.19656 0.11294 0.79168   -0.304177
 S 0.19656 0.38706 0.70832   -0.304177
 S 0.30344 0.70832 0.11294   -0.304177
 S 0.30344 0.79168 0.38706   -0.304177
 S 0.80344 0.88706 0.20832   -0.304177
 S 0.80344 0.61294 0.29168   -0.304177
 N 0.4356 0.2851 0.8693   -0.421166
 N 0.6618 0.4645 0.6706   -0.226506
 N 0.4356 0.2149 0.6307   -0.421166
 N 0.6618 0.0355 0.8294   -0.226506
 N 0.9356 0.1307 0.7851   -0.421166
 N 0.1618 0.3294 0.9645   -0.226507
 N 0.9356 0.3693 0.7149   -0.421166
 N 0.1618 0.1706 0.5355   -0.226506
 N 0.5644 0.7149 0.1307   -0.421166
 N 0.3382 0.5355 0.3294   -0.226507
 N 0.5644 0.7851 0.3693   -0.421166
 N 0.3382 0.9645 0.1706   -0.226507
 N 0.0644 0.8693 0.2149   -0.421166
 N 0.8382 0.6706 0.0355   -0.226507
 N 0.0644 0.6307 0.2851   -0.421166
 N 0.8382 0.8294 0.4645   -0.226507
 O 0.4043 0.6264 0.7175   -0.261749
 O 0.4043 0.8736 0.7825   -0.261749
 O 0.9043 0.2825 0.1264   -0.261749
 O 0.9043 0.2175 0.3736   -0.261749
 O 0.5957 0.3736 0.2825   -0.261749
 O 0.5957 0.1264 0.2175   -0.261749
 O 0.0957 0.7175 0.8736   -0.261749
 O 0.0957 0.7825 0.6264   -0.261749
