{'_ref': 'TBD', '_srcid': 'CAKYAQ_clean', 'submitters': [{'name': 'Dalar Nazarian Jeff Camp and David Sholl', 'email': 'dalar@gatech.edu jcamp6@gatech.edu'}], '_method': 'VASP DFT with PBE;DDEC'}
data_PrH2C5O6
_symmetry_space_group_name_H-M   'P 1'
_cell_length_a   9.14319964
_cell_length_b   9.14319981
_cell_length_c   14.77297899
_cell_angle_alpha   100.12088065
_cell_angle_beta   100.12187888
_cell_angle_gamma   115.60199970
_symmetry_Int_Tables_number   1
_chemical_formula_structural   PrH2C5O6
_chemical_formula_sum   'Pr4 H8 C20 O24'
_cell_volume   1051.42815407
_cell_formula_units_Z   4
loop_
 _symmetry_equiv_pos_site_id
 _symmetry_equiv_pos_as_xyz
  1  'x, y, z'
loop_
 _atom_site_label
 _atom_site_fract_x
 _atom_site_fract_y
 _atom_site_fract_z
 _atom_site_charge
 Pr 0.74081 0.99081 0.48162   2.176436
 Pr 0.50919 0.75919 0.01838   2.176435
 Pr 0.25919 0.00919 0.51838   2.176437
 Pr 0.49081 0.24081 0.98162   2.176436
 H 0.882 0.438 0.57   0.134725
 H 0.688 0.632 0.57   0.135574
 H 0.062 0.618 0.93   0.13473
 H 0.868 0.812 0.93   0.135574
 H 0.118 0.562 0.43   0.134725
 H 0.312 0.368 0.43   0.135574
 H 0.938 0.382 0.07   0.13473
 H 0.132 0.188 0.07   0.135574
 C 0.61881 0.30741 0.55842   0.757438
 C 0.77862 0.45882 0.56484   -0.176016
 C 0.93961 0.75101 0.55842   0.760644
 C 0.78622 0.60602 0.56484   -0.178425
 C 0.19259 0.88119 0.94158   0.757465
 C 0.04118 0.72138 0.93516   -0.17603
 C 0.74899 0.56039 0.94158   0.760599
 C 0.89398 0.71378 0.93516   -0.178411
 C 0.38119 0.69259 0.44158   0.757438
 C 0.22138 0.54118 0.43516   -0.176016
 C 0.06039 0.24899 0.44158   0.760644
 C 0.21378 0.39398 0.43516   -0.178425
 C 0.80741 0.11881 0.05842   0.757465
 C 0.95882 0.27862 0.06484   -0.17603
 C 0.25101 0.43961 0.05842   0.760599
 C 0.10602 0.28622 0.06484   -0.178411
 C 0.5745 0.9255 0.25   0.575138
 C 0.6755 0.8245 0.25   0.575067
 C 0.4255 0.0745 0.75   0.575138
 C 0.3245 0.1755 0.75   0.575067
 O 0.56749 0.99029 0.32958   -0.629926
 O 0.61485 0.16691 0.53316   -0.812716
 O 0.49319 0.31805 0.57584   -0.648422
 O 0.76209 0.83929 0.32958   -0.629923
 O 0.91831 0.86625 0.53316   -0.81455
 O 0.08265 0.75779 0.57584   -0.649949
 O 0.50971 0.93251 0.17042   -0.629892
 O 0.33309 0.88515 0.96684   -0.812725
 O 0.18195 0.00681 0.92416   -0.648397
 O 0.66071 0.73791 0.17042   -0.629937
 O 0.63375 0.58169 0.96684   -0.814537
 O 0.74221 0.41735 0.92416   -0.649967
 O 0.43251 0.00971 0.67042   -0.629926
 O 0.38515 0.83309 0.46684   -0.812716
 O 0.50681 0.68195 0.42416   -0.648422
 O 0.23791 0.16071 0.67042   -0.629923
 O 0.08169 0.13375 0.46684   -0.81455
 O 0.91735 0.24221 0.42416   -0.649949
 O 0.49029 0.06749 0.82958   -0.629892
 O 0.66691 0.11485 0.03316   -0.812725
 O 0.81805 0.99319 0.07584   -0.648397
 O 0.33929 0.26209 0.82958   -0.629937
 O 0.36625 0.41831 0.03316   -0.814537
 O 0.25779 0.58265 0.07584   -0.649967
