{'_ref': 'TBD', '_srcid': 'CAKYAQ_clean', 'submitters': [{'name': 'Dalar Nazarian Jeff Camp and David Sholl', 'email': 'dalar@gatech.edu jcamp6@gatech.edu'}], '_method': 'VASP DFT with PBE;DDEC'}
data_NdH2C5O6
_symmetry_space_group_name_H-M   'P 1'
_cell_length_a   9.13039988
_cell_length_b   9.13040000
_cell_length_c   14.70985128
_cell_angle_alpha   100.16872753
_cell_angle_beta   100.16872667
_cell_angle_gamma   115.53900250
_symmetry_Int_Tables_number   1
_chemical_formula_structural   NdH2C5O6
_chemical_formula_sum   'Nd4 H8 C20 O24'
_cell_volume   1044.0760145
_cell_formula_units_Z   4
loop_
 _symmetry_equiv_pos_site_id
 _symmetry_equiv_pos_as_xyz
  1  'x, y, z'
loop_
 _atom_site_label
 _atom_site_fract_x
 _atom_site_fract_y
 _atom_site_fract_z
 _atom_site_charge
 Nd 0.7594 0.0094 0.0188   2.278152
 Nd 0.9906 0.2406 0.4812   2.278144
 Nd 0.2406 0.9906 0.9812   2.278135
 Nd 0.0094 0.7594 0.5188   2.278128
 H 0.376 0.438 0.074   0.133717
 H 0.198 0.636 0.074   0.132566
 H 0.562 0.624 0.426   0.133717
 H 0.364 0.802 0.426   0.132566
 H 0.624 0.562 0.926   0.133717
 H 0.802 0.364 0.926   0.132566
 H 0.438 0.376 0.574   0.133717
 H 0.636 0.198 0.574   0.132566
 C 0.11928 0.30628 0.05836   0.768306
 C 0.27869 0.45909 0.06498   -0.172177
 C 0.43908 0.75208 0.05836   0.769028
 C 0.28629 0.60589 0.06498   -0.171071
 C 0.69372 0.88072 0.44164   0.768307
 C 0.54091 0.72131 0.43502   -0.172178
 C 0.24792 0.56092 0.44164   0.769027
 C 0.39411 0.71371 0.43502   -0.171074
 C 0.88072 0.69372 0.94164   0.768307
 C 0.72131 0.54091 0.93502   -0.172177
 C 0.56092 0.24792 0.94164   0.769028
 C 0.71371 0.39411 0.93502   -0.171071
 C 0.30628 0.11928 0.55836   0.768307
 C 0.45909 0.27869 0.56498   -0.172178
 C 0.75208 0.43908 0.55836   0.769027
 C 0.60589 0.28629 0.56498   -0.171074
 C 0.9253 0.0747 0.25   0.578641
 C 0.8247 0.1753 0.25   0.579136
 C 0.0747 0.9253 0.75   0.57864
 C 0.1753 0.8247 0.75   0.579136
 O 0.93233 0.00911 0.17004   -0.647051
 O 0.99338 0.31544 0.07602   -0.669099
 O 0.11693 0.16689 0.03262   -0.842264
 O 0.73771 0.16093 0.17004   -0.647355
 O 0.58264 0.76058 0.07602   -0.669585
 O 0.41569 0.86573 0.03262   -0.842041
 O 0.99089 0.06767 0.32996   -0.647051
 O 0.68456 0.00662 0.42398   -0.669099
 O 0.83311 0.88307 0.46738   -0.842265
 O 0.83907 0.26229 0.32996   -0.647355
 O 0.23942 0.41736 0.42398   -0.669585
 O 0.13427 0.58431 0.46738   -0.84204
 O 0.06767 0.99089 0.82996   -0.647051
 O 0.00662 0.68456 0.92398   -0.669098
 O 0.88307 0.83311 0.96738   -0.842265
 O 0.26229 0.83907 0.82996   -0.647354
 O 0.41736 0.23942 0.92398   -0.669585
 O 0.58431 0.13427 0.96738   -0.842041
 O 0.00911 0.93233 0.67004   -0.647051
 O 0.31544 0.99338 0.57602   -0.669099
 O 0.16689 0.11693 0.53262   -0.842265
 O 0.16093 0.73771 0.67004   -0.647354
 O 0.76058 0.58264 0.57602   -0.669585
 O 0.86573 0.41569 0.53262   -0.84204
