{'_ref': 'TBD', '_srcid': 'CAKYAQ_clean', 'submitters': [{'name': 'Dalar Nazarian Jeff Camp and David Sholl', 'email': 'dalar@gatech.edu jcamp6@gatech.edu'}], '_method': 'VASP DFT with PBE;DDEC'}
data_H28C41N4
_symmetry_space_group_name_H-M   'P 1'
_cell_length_a   8.87900000
_cell_length_b   20.37825372
_cell_length_c   20.37825372
_cell_angle_alpha   87.27967996
_cell_angle_beta   77.41693487
_cell_angle_gamma   77.41693487
_symmetry_Int_Tables_number   1
_chemical_formula_structural   H28C41N4
_chemical_formula_sum   'H56 C82 N8'
_cell_volume   3512.2133287
_cell_formula_units_Z   2
loop_
 _symmetry_equiv_pos_site_id
 _symmetry_equiv_pos_as_xyz
  1  'x, y, z'
loop_
 _atom_site_label
 _atom_site_fract_x
 _atom_site_fract_y
 _atom_site_fract_z
 _atom_site_charge
 H 0.3859 0.1211 0.0153   0.102854
 H 0.6141 0.8789 0.9847   0.102854
 H 0.5223 0.3789 0.4847   0.102791
 H 0.4777 0.6211 0.5153   0.102791
 H 0.007 0.0153 0.3789   0.10257
 H 0.993 0.9847 0.6211   0.10257
 H 0.4012 0.4847 0.1211   0.102675
 H 0.5988 0.5153 0.8789   0.102675
 H 0.5874 0.148 0.9394   0.040094
 H 0.4126 0.852 0.0606   0.040094
 H 0.6748 0.352 0.5606   0.03955
 H 0.3252 0.648 0.4394   0.03955
 H 0.2354 0.9394 0.352   0.039268
 H 0.7646 0.0606 0.648   0.039268
 H 0.5268 0.5606 0.148   0.039699
 H 0.4732 0.4394 0.852   0.039699
 H 0.7366 0.9607 0.9245   0.09169
 H 0.2634 0.0393 0.0755   0.09169
 H 0.6218 0.5393 0.5755   0.092309
 H 0.3782 0.4607 0.4245   0.092309
 H 0.1973 0.9245 0.5393   0.091711
 H 0.8027 0.0755 0.4607   0.091711
 H 0.6611 0.5755 0.9607   0.091208
 H 0.3389 0.4245 0.0393   0.091208
 H 0.9853 0.0445 0.7857   0.112863
 H 0.0147 0.9555 0.2143   0.112863
 H 0.8155 0.4555 0.7143   0.112553
 H 0.1845 0.5445 0.2857   0.112553
 H 0.5298 0.7857 0.4555   0.112871
 H 0.4702 0.2143 0.5445   0.112871
 H 0.771 0.7143 0.0445   0.113044
 H 0.229 0.2857 0.9555   0.113044
 H 0.1359 0.1145 0.7249   0.109368
 H 0.8641 0.8855 0.2751   0.109368
 H 0.9753 0.3855 0.7751   0.109122
 H 0.0247 0.6145 0.2249   0.109122
 H 0.7504 0.7249 0.3855   0.109897
 H 0.2496 0.2751 0.6145   0.109897
 H 0.8608 0.7751 0.1145   0.108376
 H 0.1392 0.2249 0.8855   0.108376
 H 0.8926 0.2804 0.8552   0.110354
 H 0.1074 0.7196 0.1448   0.110354
 H 0.0282 0.2196 0.6448   0.111327
 H 0.9718 0.7804 0.3552   0.111327
 H 0.673 0.8552 0.2196   0.110588
 H 0.327 0.1448 0.7804   0.110588
 H 0.7478 0.6448 0.2804   0.111247
 H 0.2522 0.3552 0.7196   0.111247
 H 0.7417 0.2099 0.9153   0.111347
 H 0.2583 0.7901 0.0847   0.111347
 H 0.8669 0.2901 0.5847   0.110559
 H 0.1331 0.7099 0.4153   0.110559
 H 0.4516 0.9153 0.2901   0.110904
 H 0.5484 0.0847 0.7099   0.110904
 H 0.657 0.5847 0.2099   0.110388
 H 0.343 0.4153 0.7901   0.110388
 C 0.875 0.75 0.25   -0.016892
 C 0.125 0.25 0.75   -0.016892
 C 0.4369 0.0683 0.0081   -0.13857
 C 0.5631 0.9317 0.9919   -0.13857
 C 0.5133 0.4317 0.4919   -0.137808
 C 0.4867 0.5683 0.5081   -0.137808
 C 0.0052 0.0081 0.4317   -0.137435
 C 0.9948 0.9919 0.5683   -0.137435
 C 0.445 0.4919 0.0683   -0.137838
 C 0.555 0.5081 0.9317   -0.137838
 C 0.5709 0.0476 0.965   0.045594
 C 0.4291 0.9524 0.035   0.045594
 C 0.5835 0.4524 0.535   0.046034
 C 0.4165 0.5476 0.465   0.046034
 C 0.1185 0.965 0.4524   0.043666
 C 0.8815 0.035 0.5476   0.043666
 C 0.5359 0.535 0.0476   0.044911
 C 0.4641 0.465 0.9524   0.044911
 C 0.6395 0.0956 0.9316   0.162143
 C 0.3605 0.9044 0.0684   0.162143
 C 0.6667 0.4044 0.5684   0.161394
 C 0.3333 0.5956 0.4316   0.161394
 C 0.2351 0.9316 0.4044   0.164701
 C 0.7649 0.0684 0.5956   0.164701
 C 0.5711 0.5684 0.0956   0.163188
 C 0.4289 0.4316 0.9044   0.163188
 C 0.6333 0.9787 0.9573   -0.072653
 C 0.3667 0.0213 0.0427   -0.072653
 C 0.5693 0.5213 0.5427   -0.074264
 C 0.4307 0.4787 0.4573   -0.074264
 C 0.112 0.9573 0.5213   -0.072443
 C 0.888 0.0427 0.4787   -0.072443
 C 0.5906 0.5427 0.9787   -0.072154
 C 0.4094 0.4573 0.0213   -0.072154
 C 0.8527 0.1214 0.8548   0.263577
 C 0.1473 0.8786 0.1452   0.263577
 C 0.8289 0.3786 0.6452   0.26031
 C 0.1711 0.6214 0.3548   0.26031
 C 0.4741 0.8548 0.3786   0.260636
 C 0.5259 0.1452 0.6214   0.260636
 C 0.7075 0.6452 0.1214   0.262101
 C 0.2925 0.3548 0.8786   0.262101
 C 0.9661 0.0958 0.8016   -0.160617
 C 0.0339 0.9042 0.1984   -0.160617
 C 0.8635 0.4042 0.6984   -0.158809
 C 0.1365 0.5958 0.3016   -0.158809
 C 0.5619 0.8016 0.4042   -0.159358
 C 0.4381 0.1984 0.5958   -0.159358
 C 0.7677 0.6984 0.0958   -0.162256
 C 0.2323 0.3016 0.9042   -0.162256
 C 0.0543 0.136 0.7676   -0.139965
 C 0.9457 0.864 0.2324   -0.139965
 C 0.9579 0.364 0.7324   -0.141732
 C 0.0421 0.636 0.2676   -0.141732
 C 0.6903 0.7676 0.364   -0.141361
 C 0.3097 0.2324 0.636   -0.141361
 C 0.8219 0.7324 0.136   -0.13809
 C 0.1781 0.2676 0.864   -0.138091
 C 0.0343 0.2026 0.788   0.060824
 C 0.9657 0.7974 0.212   0.060824
 C 0.0249 0.2974 0.712   0.063495
 C 0.9751 0.7026 0.288   0.063495
 C 0.7369 0.788 0.2974   0.062637
 C 0.2631 0.212 0.7026   0.062637
 C 0.8223 0.712 0.2026   0.060379
 C 0.1777 0.288 0.7974   0.060379
 C 0.9159 0.2286 0.84   -0.103866
 C 0.0841 0.7714 0.16   -0.103866
 C 0.9845 0.2714 0.66   -0.109587
 C 0.0155 0.7286 0.34   -0.109587
 C 0.6445 0.84 0.2714   -0.107541
 C 0.3555 0.16 0.7286   -0.107541
 C 0.7559 0.66 0.2286   -0.108532
 C 0.2441 0.34 0.7714   -0.108532
 C 0.8277 0.1885 0.8737   -0.184203
 C 0.1723 0.8115 0.1263   -0.184203
 C 0.8899 0.3115 0.6263   -0.178799
 C 0.1101 0.6885 0.3737   -0.178799
 C 0.5162 0.8737 0.3115   -0.180292
 C 0.4838 0.1263 0.6885   -0.180292
 C 0.7014 0.6263 0.1885   -0.178543
 C 0.2986 0.3737 0.8115   -0.178543
 N 0.7683 0.0773 0.8893   -0.406292
 N 0.2317 0.9227 0.1107   -0.406292
 N 0.7349 0.4227 0.6107   -0.404382
 N 0.2651 0.5773 0.3893   -0.404382
 N 0.3456 0.8893 0.4227   -0.406438
 N 0.6544 0.1107 0.5773   -0.406438
 N 0.6576 0.6107 0.0773   -0.406101
 N 0.3424 0.3893 0.9227   -0.406101
