{'_ref': 'TBD', '_srcid': 'CAKYAQ_clean', 'submitters': [{'name': 'Dalar Nazarian Jeff Camp and David Sholl', 'email': 'dalar@gatech.edu jcamp6@gatech.edu'}], '_method': 'VASP DFT with PBE;DDEC'}
data_GaH5C8O5
_symmetry_space_group_name_H-M   'P 1'
_cell_length_a   6.73399963
_cell_length_b   11.06199977
_cell_length_c   11.18087299
_cell_angle_alpha   119.64876091
_cell_angle_beta   107.52604264
_cell_angle_gamma   89.99999785
_symmetry_Int_Tables_number   1
_chemical_formula_structural   GaH5C8O5
_chemical_formula_sum   'Ga2 H10 C16 O10'
_cell_volume   678.991469369
_cell_formula_units_Z   2
loop_
 _symmetry_equiv_pos_site_id
 _symmetry_equiv_pos_as_xyz
  1  'x, y, z'
loop_
 _atom_site_label
 _atom_site_fract_x
 _atom_site_fract_y
 _atom_site_fract_z
 _atom_site_charge
 Ga 0.0 0.5 0.0   1.647834
 Ga 0.5 0.5 0.0   1.647828
 H 0.2337 0.8974 0.3852   0.098236
 H 0.2663 0.5122 0.6148   0.098232
 H 0.3485 0.1026 0.6148   0.098194
 H 0.1515 0.4878 0.3852   0.098198
 H 0.7663 0.1026 0.6148   0.098236
 H 0.7337 0.4878 0.3852   0.098231
 H 0.6515 0.8974 0.3852   0.098193
 H 0.8485 0.5122 0.6148   0.098198
 H 0.75 0.347 0.0   0.49876
 H 0.25 0.653 0.0   0.49876
 C 0.1362 0.9377 0.4306   -0.057304
 C 0.3638 0.5071 0.5694   -0.057292
 C 0.2056 0.0623 0.5694   -0.055952
 C 0.2944 0.4929 0.4306   -0.055964
 C 0.8638 0.0623 0.5694   -0.057305
 C 0.6362 0.4929 0.4306   -0.057293
 C 0.7944 0.9377 0.4306   -0.055952
 C 0.7056 0.5071 0.5694   -0.055964
 C 0.9313 0.8761 0.3626   -0.13673
 C 0.8558 0.7397 0.2116   0.762203
 C 0.5687 0.5135 0.6374   -0.136733
 C 0.6442 0.5281 0.7884   0.7622
 C 0.0687 0.1239 0.6374   -0.13673
 C 0.1442 0.2603 0.7884   0.762203
 C 0.4313 0.4865 0.3626   -0.136733
 C 0.3558 0.4719 0.2116   0.7622
 O 0.9898 0.6905 0.158   -0.635306
 O 0.5102 0.5325 0.842   -0.635299
 O 0.3318 0.3095 0.842   -0.634128
 O 0.1682 0.4675 0.158   -0.634128
 O 0.0102 0.3095 0.842   -0.635306
 O 0.4898 0.4675 0.158   -0.635299
 O 0.6682 0.6905 0.158   -0.634128
 O 0.8318 0.5325 0.842   -0.634128
 O 0.75 0.4208 0.0   -1.025015
 O 0.25 0.5792 0.0   -1.025015
