{'_ref': 'TBD', '_srcid': 'CAKYAQ_clean', 'submitters': [{'name': 'Dalar Nazarian Jeff Camp and David Sholl', 'email': 'dalar@gatech.edu jcamp6@gatech.edu'}], '_method': 'VASP DFT with PBE;DDEC'}
data_DyH9(C3O2)3
_symmetry_space_group_name_H-M   'P 1'
_cell_length_a   9.59830016
_cell_length_b   13.87890000
_cell_length_c   15.34430000
_cell_angle_alpha   90.00000000
_cell_angle_beta   93.45100162
_cell_angle_gamma   90.00000000
_symmetry_Int_Tables_number   1
_chemical_formula_structural   DyH9(C3O2)3
_chemical_formula_sum   'Dy4 H36 C36 O24'
_cell_volume   2040.36661148
_cell_formula_units_Z   4
loop_
 _symmetry_equiv_pos_site_id
 _symmetry_equiv_pos_as_xyz
  1  'x, y, z'
loop_
 _atom_site_label
 _atom_site_fract_x
 _atom_site_fract_y
 _atom_site_fract_z
 _atom_site_charge
 Dy 0.04247 0.88872 0.91421   2.208056
 Dy 0.45753 0.38872 0.58579   2.208056
 Dy 0.95753 0.11128 0.08579   2.208056
 Dy 0.54247 0.61128 0.41421   2.208056
 H 0.3955 0.0911 0.7431   0.082637
 H 0.3103 0.1622 0.799   0.097731
 H 0.5154 0.2352 0.8553   0.102613
 H 0.7358 0.1882 0.8122   0.0833
 H 0.6683 0.1071 0.752   0.096105
 H 0.6627 0.1104 0.9363   0.086101
 H 0.5521 0.9634 0.8258   0.092901
 H 0.5522 0.9618 0.9281   0.074769
 H 0.4094 0.0966 0.9255   0.090551
 H 0.1045 0.5911 0.7569   0.082637
 H 0.1897 0.6622 0.701   0.097732
 H 0.9846 0.7352 0.6447   0.102613
 H 0.7642 0.6882 0.6878   0.0833
 H 0.8317 0.6071 0.748   0.096105
 H 0.8373 0.6104 0.5637   0.086101
 H 0.9479 0.4634 0.6742   0.092901
 H 0.9478 0.4618 0.5719   0.074769
 H 0.0906 0.5966 0.5745   0.090551
 H 0.6045 0.9089 0.2569   0.082637
 H 0.6897 0.8378 0.201   0.097731
 H 0.4846 0.7648 0.1447   0.102613
 H 0.2642 0.8118 0.1878   0.0833
 H 0.3317 0.8929 0.248   0.096105
 H 0.3373 0.8896 0.0637   0.086101
 H 0.4479 0.0366 0.1742   0.092901
 H 0.4478 0.0382 0.0719   0.074769
 H 0.5906 0.9034 0.0745   0.090551
 H 0.8955 0.4089 0.2431   0.082637
 H 0.8103 0.3378 0.299   0.097732
 H 0.0154 0.2648 0.3553   0.102613
 H 0.2358 0.3118 0.3122   0.0833
 H 0.1683 0.3929 0.252   0.096105
 H 0.1627 0.3896 0.4363   0.086101
 H 0.0521 0.5366 0.3258   0.092901
 H 0.0522 0.5382 0.4281   0.074769
 H 0.9094 0.4034 0.4255   0.090551
 C 0.397 0.1265 0.7976   -0.116332
 C 0.5196 0.1971 0.8018   -0.146831
 C 0.6594 0.1425 0.806   -0.108812
 C 0.6681 0.0727 0.8826   -0.192751
 C 0.5467 0.0035 0.8772   -0.109758
 C 0.4079 0.0568 0.8727   -0.145709
 C 0.2809 0.9911 0.8777   0.70042
 C 0.5037 0.2654 0.7244   0.712664
 C 0.8059 0.0187 0.8882   0.781107
 C 0.103 0.6265 0.7024   -0.116332
 C 0.9804 0.6971 0.6982   -0.146831
 C 0.8406 0.6425 0.694   -0.108812
 C 0.8319 0.5727 0.6174   -0.192751
 C 0.9533 0.5035 0.6228   -0.109758
 C 0.0921 0.5568 0.6273   -0.145709
 C 0.2191 0.4911 0.6223   0.70042
 C 0.9963 0.7654 0.7756   0.712664
 C 0.6941 0.5187 0.6118   0.781107
 C 0.603 0.8735 0.2024   -0.116332
 C 0.4804 0.8029 0.1982   -0.146831
 C 0.3406 0.8575 0.194   -0.108812
 C 0.3319 0.9273 0.1174   -0.192751
 C 0.4533 0.9965 0.1228   -0.109758
 C 0.5921 0.9432 0.1273   -0.145709
 C 0.7191 0.0089 0.1223   0.70042
 C 0.4963 0.7346 0.2756   0.712664
 C 0.1941 0.9813 0.1118   0.781107
 C 0.897 0.3735 0.2976   -0.116332
 C 0.0196 0.3029 0.3018   -0.146831
 C 0.1594 0.3575 0.306   -0.108812
 C 0.1681 0.4273 0.3826   -0.192751
 C 0.0467 0.4965 0.3772   -0.109758
 C 0.9079 0.4432 0.3727   -0.145709
 C 0.7809 0.5089 0.3777   0.70042
 C 0.0037 0.2346 0.2244   0.712664
 C 0.3059 0.4813 0.3882   0.781107
 O 0.295 0.9055 0.8975   -0.686472
 O 0.1609 0.0298 0.8647   -0.701995
 O 0.8938 0.0375 0.9507   -0.915538
 O 0.8326 0.9556 0.8348   -0.637296
 O 0.4229 0.3362 0.7324   -0.697857
 O 0.5661 0.2521 0.6578   -0.749604
 O 0.205 0.4055 0.6025   -0.686472
 O 0.3391 0.5298 0.6353   -0.701995
 O 0.6062 0.5375 0.5493   -0.915538
 O 0.6674 0.4556 0.6652   -0.637296
 O 0.0771 0.8362 0.7676   -0.697857
 O 0.9339 0.7521 0.8422   -0.749604
 O 0.705 0.0945 0.1025   -0.686472
 O 0.8391 0.9702 0.1353   -0.701995
 O 0.1062 0.9625 0.0493   -0.915538
 O 0.1674 0.0444 0.1652   -0.637296
 O 0.5771 0.6638 0.2676   -0.697857
 O 0.4339 0.7479 0.3422   -0.749604
 O 0.795 0.5945 0.3975   -0.686472
 O 0.6609 0.4702 0.3647   -0.701995
 O 0.3938 0.4625 0.4507   -0.915538
 O 0.3326 0.5444 0.3348   -0.637296
 O 0.9229 0.1638 0.2324   -0.697857
 O 0.0661 0.2479 0.1578   -0.749604
