{'_ref': 'TBD', '_srcid': 'CAKYAQ_clean', 'submitters': [{'name': 'Dalar Nazarian Jeff Camp and David Sholl', 'email': 'dalar@gatech.edu jcamp6@gatech.edu'}], '_method': 'VASP DFT with PBE;DDEC'}
data_ErH9(C3O2)3
_symmetry_space_group_name_H-M   'P 1'
_cell_length_a   9.56310001
_cell_length_b   13.87410000
_cell_length_c   15.30000000
_cell_angle_alpha   90.00000000
_cell_angle_beta   93.38200177
_cell_angle_gamma   90.00000000
_symmetry_Int_Tables_number   1
_chemical_formula_structural   ErH9(C3O2)3
_chemical_formula_sum   'Er4 H36 C36 O24'
_cell_volume   2026.45948839
_cell_formula_units_Z   4
loop_
 _symmetry_equiv_pos_site_id
 _symmetry_equiv_pos_as_xyz
  1  'x, y, z'
loop_
 _atom_site_label
 _atom_site_fract_x
 _atom_site_fract_y
 _atom_site_fract_z
 _atom_site_charge
 Er 0.54267 0.88905 0.91423   1.49066
 Er 0.95733 0.38905 0.58577   1.49066
 Er 0.45733 0.11095 0.08577   1.49066
 Er 0.04267 0.61095 0.41423   1.49066
 H 0.237 0.1887 0.8116   0.093693
 H 0.1694 0.107 0.752   0.096973
 H 0.0131 0.235 0.8556   0.110602
 H 0.8089 0.1653 0.7951   0.103065
 H 0.8954 0.0947 0.7388   0.092063
 H 0.9071 0.0955 0.925   0.098727
 H 0.0527 0.9627 0.9284   0.078553
 H 0.0533 0.9637 0.8259   0.094965
 H 0.1643 0.1123 0.9363   0.093015
 H 0.263 0.6887 0.6884   0.093694
 H 0.3306 0.607 0.748   0.096973
 H 0.4869 0.735 0.6444   0.110602
 H 0.6911 0.6653 0.7049   0.103065
 H 0.6046 0.5947 0.7612   0.092063
 H 0.5929 0.5955 0.575   0.098727
 H 0.4473 0.4627 0.5716   0.078553
 H 0.4467 0.4637 0.6741   0.094966
 H 0.3357 0.6123 0.5637   0.093015
 H 0.763 0.8113 0.1884   0.093693
 H 0.8306 0.893 0.248   0.096973
 H 0.9869 0.765 0.1444   0.110602
 H 0.1911 0.8347 0.2049   0.103065
 H 0.1046 0.9053 0.2612   0.092062
 H 0.0929 0.9045 0.075   0.098727
 H 0.9473 0.0373 0.0716   0.078553
 H 0.9467 0.0363 0.1741   0.094965
 H 0.8357 0.8877 0.0637   0.093015
 H 0.737 0.3113 0.3116   0.093694
 H 0.6694 0.393 0.252   0.096973
 H 0.5131 0.265 0.3556   0.110602
 H 0.3089 0.3347 0.2951   0.103065
 H 0.3954 0.4053 0.2388   0.092062
 H 0.4071 0.4045 0.425   0.098727
 H 0.5527 0.5373 0.4284   0.078553
 H 0.5533 0.5363 0.3259   0.094966
 H 0.6643 0.3877 0.4363   0.093015
 C 0.1606 0.1428 0.8059   -0.118522
 C 0.0189 0.1974 0.8017   -0.139687
 C 0.8956 0.1292 0.7939   -0.125583
 C 0.9062 0.0556 0.8722   -0.147738
 C 0.0469 0.0042 0.8772   -0.118484
 C 0.1696 0.0743 0.8826   -0.170477
 C 0.3066 0.0195 0.8881   0.709435
 C 0.0037 0.2652 0.7248   0.658225
 C 0.7805 0.9912 0.8774   0.648671
 C 0.3394 0.6428 0.6941   -0.118523
 C 0.4811 0.6974 0.6983   -0.139687
 C 0.6044 0.6292 0.7061   -0.125583
 C 0.5938 0.5556 0.6278   -0.147738
 C 0.4531 0.5042 0.6228   -0.118484
 C 0.3304 0.5743 0.6174   -0.170477
 C 0.1934 0.5195 0.6119   0.709435
 C 0.4963 0.7652 0.7752   0.658225
 C 0.7195 0.4912 0.6226   0.648671
 C 0.8394 0.8572 0.1941   -0.118522
 C 0.9811 0.8026 0.1983   -0.139687
 C 0.1044 0.8708 0.2061   -0.125583
 C 0.0938 0.9444 0.1278   -0.147738
 C 0.9531 0.9958 0.1228   -0.118484
 C 0.8304 0.9257 0.1174   -0.170477
 C 0.6934 0.9805 0.1119   0.709435
 C 0.9963 0.7348 0.2752   0.658225
 C 0.2195 0.0088 0.1226   0.648671
 C 0.6606 0.3572 0.3059   -0.118522
 C 0.5189 0.3026 0.3017   -0.139687
 C 0.3956 0.3708 0.2939   -0.125583
 C 0.4062 0.4444 0.3722   -0.147738
 C 0.5469 0.4958 0.3772   -0.118484
 C 0.6696 0.4257 0.3826   -0.170477
 C 0.8066 0.4805 0.3881   0.709435
 C 0.5037 0.2348 0.2248   0.658225
 C 0.2805 0.5088 0.3774   0.648671
 O 0.336 0.9557 0.8348   -0.567593
 O 0.3942 0.0375 0.9517   -0.713527
 O 0.0676 0.2537 0.656   -0.603644
 O 0.9223 0.3367 0.7304   -0.54158
 O 0.7939 0.9057 0.8988   -0.563919
 O 0.6588 0.0291 0.8635   -0.557893
 O 0.164 0.4557 0.6652   -0.567593
 O 0.1058 0.5375 0.5483   -0.713527
 O 0.4324 0.7537 0.844   -0.603644
 O 0.5777 0.8367 0.7696   -0.54158
 O 0.7061 0.4057 0.6012   -0.563919
 O 0.8412 0.5291 0.6365   -0.557893
 O 0.664 0.0443 0.1652   -0.567593
 O 0.6058 0.9625 0.0483   -0.713527
 O 0.9324 0.7463 0.344   -0.603644
 O 0.0777 0.6633 0.2696   -0.54158
 O 0.2061 0.0943 0.1012   -0.563919
 O 0.3412 0.9709 0.1365   -0.557893
 O 0.836 0.5443 0.3348   -0.567593
 O 0.8942 0.4625 0.4517   -0.713527
 O 0.5676 0.2463 0.156   -0.603644
 O 0.4223 0.1633 0.2304   -0.54158
 O 0.2939 0.5943 0.3988   -0.563919
 O 0.1588 0.4709 0.3635   -0.557893
