{'_ref': 'TBD', '_srcid': 'CAKYAQ_clean', 'submitters': [{'name': 'Dalar Nazarian Jeff Camp and David Sholl', 'email': 'dalar@gatech.edu jcamp6@gatech.edu'}], '_method': 'VASP DFT with PBE;DDEC'}
data_Cd2H38C38N5O8
_symmetry_space_group_name_H-M   'P 1'
_cell_length_a   15.86349968
_cell_length_b   15.86349966
_cell_length_c   20.06000000
_cell_angle_alpha   84.22629984
_cell_angle_beta   84.22629985
_cell_angle_gamma   71.39960017
_symmetry_Int_Tables_number   1
_chemical_formula_structural   Cd2H38C38N5O8
_chemical_formula_sum   'Cd8 H152 C152 N20 O32'
_cell_volume   4747.57700863
_cell_formula_units_Z   4
loop_
 _symmetry_equiv_pos_site_id
 _symmetry_equiv_pos_as_xyz
  1  'x, y, z'
loop_
 _atom_site_label
 _atom_site_fract_x
 _atom_site_fract_y
 _atom_site_fract_z
 _atom_site_charge
 Cd 0.72085 0.67837 0.81164   0.936806
 Cd 0.82758 0.82352 0.73118   1.088599
 Cd 0.32163 0.27915 0.68836   0.936806
 Cd 0.17648 0.17242 0.76882   1.0886
 Cd 0.27915 0.32163 0.18836   0.936806
 Cd 0.17242 0.17648 0.26882   1.088599
 Cd 0.67837 0.72085 0.31164   0.936806
 Cd 0.82352 0.82758 0.23118   1.0886
 H 0.9666 0.8302 0.8935   0.077593
 H 0.0569 0.7513 0.897   0.055627
 H 0.0658 0.7896 0.9979   0.033276
 H 0.9671 0.8547 0.9996   0.084726
 H 0.0151 0.6619 0.0408   0.129101
 H 0.8262 0.6878 0.0654   0.112784
 H 0.7991 0.6831 0.9932   0.092711
 H 0.8861 0.6139 0.0196   0.099973
 H 0.8354 0.855 0.9387   0.110591
 H 0.7691 0.8137 0.9829   0.131802
 H 0.823 0.8634 0.0165   0.099231
 H 0.0646 0.6312 0.8871   0.100452
 H 0.0312 0.5904 0.9552   0.09734
 H 0.9901 0.5855 0.8883   0.101991
 H 0.9746 0.6348 0.6219   0.061781
 H 0.9386 0.5976 0.5648   0.069818
 H 0.0727 0.5035 0.545   0.064701
 H 0.1075 0.5369 0.6053   0.067544
 H 0.0325 0.3897 0.6143   0.129745
 H 0.8941 0.4125 0.7358   0.11972
 H 0.9872 0.3402 0.7239   0.109552
 H 0.9684 0.399 0.7853   0.12593
 H 0.8496 0.5144 0.5841   0.103981
 H 0.9034 0.4256 0.6227   0.11018
 H 0.8115 0.4841 0.6543   0.114017
 H 0.5493 0.7541 0.5917   0.128291
 H 0.6629 0.7257 0.6591   0.082442
 H 0.5307 0.6529 0.8143   0.081338
 H 0.4035 0.6875 0.7514   0.107239
 H 0.1017 0.8073 0.5474   0.125813
 H 0.9552 0.8286 0.5843   0.077478
 H 0.021 0.767 0.7689   0.077886
 H 0.172 0.737 0.7339   0.106877
 H 0.3634 0.8072 0.4343   0.14298
 H 0.4746 0.7984 0.3507   0.095443
 H 0.6437 0.6073 0.4509   0.089397
 H 0.5388 0.6058 0.536   0.127738
 H 0.2632 0.7478 0.5148   0.334701
 H 0.1698 0.0334 0.6065   0.077593
 H 0.2487 0.9431 0.603   0.055627
 H 0.2104 0.9342 0.5021   0.033279
 H 0.1453 0.0329 0.5004   0.084726
 H 0.3381 0.9849 0.4592   0.129101
 H 0.3122 0.1738 0.4346   0.112784
 H 0.3169 0.2009 0.5068   0.092711
 H 0.3861 0.1139 0.4804   0.099973
 H 0.145 0.1646 0.5613   0.110589
 H 0.1863 0.2309 0.5171   0.131801
 H 0.1366 0.177 0.4835   0.099231
 H 0.3688 0.9354 0.6129   0.100452
 H 0.4096 0.9688 0.5448   0.09734
 H 0.4145 0.0099 0.6117   0.101992
 H 0.3652 0.0254 0.8781   0.061781
 H 0.4024 0.0614 0.9352   0.069818
 H 0.4965 0.9273 0.955   0.064701
 H 0.4631 0.8925 0.8947   0.067543
 H 0.6103 0.9675 0.8857   0.129742
 H 0.5875 0.1059 0.7642   0.11972
 H 0.6598 0.0128 0.7761   0.109552
 H 0.601 0.0316 0.7147   0.125931
 H 0.4856 0.1504 0.9159   0.103981
 H 0.5744 0.0966 0.8773   0.11018
 H 0.5159 0.1885 0.8457   0.114017
 H 0.2459 0.4507 0.9083   0.128292
 H 0.2743 0.3371 0.8409   0.082442
 H 0.3471 0.4693 0.6857   0.081338
 H 0.3125 0.5965 0.7486   0.10724
 H 0.1927 0.8983 0.9526   0.125815
 H 0.1714 0.0448 0.9157   0.077478
 H 0.233 0.979 0.7311   0.077886
 H 0.263 0.828 0.7661   0.106878
 H 0.1928 0.6366 0.0657   0.142981
 H 0.2016 0.5254 0.1493   0.095443
 H 0.3927 0.3563 0.0491   0.089397
 H 0.3942 0.4612 0.964   0.127739
 H 0.2522 0.7368 0.9852   0.334701
 H 0.0334 0.1698 0.1065   0.077593
 H 0.9431 0.2487 0.103   0.055627
 H 0.9342 0.2104 0.0021   0.033276
 H 0.0329 0.1453 0.000399999999999   0.084728
 H 0.9849 0.3381 0.9592   0.129099
 H 0.1738 0.3122 0.9346   0.112785
 H 0.2009 0.3169 0.0068   0.09271
 H 0.1139 0.3861 0.9804   0.099973
 H 0.1646 0.145 0.0613   0.110591
 H 0.2309 0.1863 0.0171   0.131799
 H 0.177 0.1366 0.9835   0.099232
 H 0.9354 0.3688 0.1129   0.100452
 H 0.9688 0.4096 0.0448   0.09734
 H 0.0099 0.4145 0.1117   0.10199
 H 0.0254 0.3652 0.3781   0.06178
 H 0.0614 0.4024 0.4352   0.06981
 H 0.9273 0.4965 0.455   0.064693
 H 0.8925 0.4631 0.3947   0.067542
 H 0.9675 0.6103 0.3857   0.129742
 H 0.1059 0.5875 0.2642   0.119717
 H 0.0128 0.6598 0.2761   0.109551
 H 0.0316 0.601 0.2147   0.125926
 H 0.1504 0.4856 0.4159   0.103975
 H 0.0966 0.5744 0.3773   0.110178
 H 0.1885 0.5159 0.3457   0.114017
 H 0.4507 0.2459 0.4083   0.128292
 H 0.3371 0.2743 0.3409   0.082443
 H 0.4693 0.3471 0.1857   0.081338
 H 0.5965 0.3125 0.2486   0.107239
 H 0.8983 0.1927 0.4526   0.125814
 H 0.0448 0.1714 0.4157   0.07748
 H 0.979 0.233 0.2311   0.077886
 H 0.828 0.263 0.2661   0.106877
 H 0.6366 0.1928 0.5657   0.14298
 H 0.5254 0.2016 0.6493   0.095437
 H 0.3563 0.3927 0.5491   0.089397
 H 0.4612 0.3942 0.464   0.127739
 H 0.7368 0.2522 0.4852   0.334701
 H 0.8302 0.9666 0.3935   0.077593
 H 0.7513 0.0569 0.397   0.055627
 H 0.7896 0.0658 0.4979   0.033279
 H 0.8547 0.9671 0.4996   0.084728
 H 0.6619 0.0151 0.5408   0.1291
 H 0.6878 0.8262 0.5654   0.112785
 H 0.6831 0.7991 0.4932   0.09271
 H 0.6139 0.8861 0.5196   0.099973
 H 0.855 0.8354 0.4387   0.110589
 H 0.8137 0.7691 0.4829   0.131798
 H 0.8634 0.823 0.5165   0.099231
 H 0.6312 0.0646 0.3871   0.100452
 H 0.5904 0.0312 0.4552   0.09734
 H 0.5855 0.9901 0.3883   0.10199
 H 0.6348 0.9746 0.1219   0.06178
 H 0.5976 0.9386 0.0648   0.06981
 H 0.5035 0.0727 0.045   0.064693
 H 0.5369 0.1075 0.1053   0.067542
 H 0.3897 0.0325 0.1143   0.129739
 H 0.4125 0.8941 0.2358   0.119717
 H 0.3402 0.9872 0.2239   0.109551
 H 0.399 0.9684 0.2853   0.125927
 H 0.5144 0.8496 0.0841   0.103975
 H 0.4256 0.9034 0.1227   0.110178
 H 0.4841 0.8115 0.1543   0.114017
 H 0.7541 0.5493 0.0917   0.128292
 H 0.7257 0.6629 0.1591   0.082443
 H 0.6529 0.5307 0.3143   0.081338
 H 0.6875 0.4035 0.2514   0.10724
 H 0.8073 0.1017 0.0474   0.125816
 H 0.8286 0.9552 0.0843   0.07748
 H 0.767 0.021 0.2689   0.077886
 H 0.737 0.172 0.2339   0.106878
 H 0.8072 0.3634 0.9343   0.142981
 H 0.7984 0.4746 0.8507   0.095437
 H 0.6073 0.6437 0.9509   0.089397
 H 0.6058 0.5388 0.036   0.127739
 H 0.7478 0.2632 0.0148   0.334702
 C 0.90135 0.73655 0.9917   0.212096
 C 0.94513 0.70693 0.92353   -0.041655
 C 0.99796 0.77576 0.919   -0.164062
 C 0.00485 0.79485 0.9906   -0.121414
 C 0.97217 0.72197 0.03848   -0.241686
 C 0.84827 0.67467 0.0201   -0.412559
 C 0.825 0.8256 0.9815   -0.368695
 C 0.94968 0.76588 0.1035   0.681343
 C 0.88205 0.71905 0.8703   0.690802
 C 0.01371 0.62111 0.9126   -0.31622
 C 0.99123 0.46763 0.6961   0.191728
 C 0.91216 0.53656 0.66195   -0.039023
 C 0.96917 0.58117 0.60595   -0.164021
 C 0.06136 0.51516 0.5922   -0.104635
 C 0.05671 0.42631 0.6386   -0.24553
 C 0.95704 0.39844 0.7393   -0.373246
 C 0.03381 0.51061 0.7454   -0.125656
 C 0.84965 0.60245 0.7033   0.695151
 C 0.14977 0.37337 0.6595   0.719839
 C 0.86483 0.48543 0.6276   -0.318635
 C 0.38628 0.72248 0.62701   0.096718
 C 0.376 0.725 0.5583   0.065783
 C 0.2486 0.7484 0.6173   0.276283
 C 0.46168 0.71528 0.6638   0.087136
 C 0.54282 0.73362 0.6364   -0.207857
 C 0.60892 0.71992 0.6783   0.181243
 C 0.53208 0.67768 0.7703   0.155518
 C 0.45671 0.69311 0.7305   -0.186922
 C 0.15231 0.76591 0.63625   0.041884
 C 0.08677 0.79637 0.59273   -0.185116
 C 0.99861 0.81101 0.6152   0.191387
 C 0.03688 0.77408 0.72331   0.185772
 C 0.12901 0.75561 0.70272   -0.151126
 C 0.44033 0.71373 0.50012   0.083353
 C 0.42017 0.76717 0.43955   -0.215684
 C 0.48603 0.75883 0.3887   0.197833
 C 0.58601 0.64581 0.4471   0.183351
 C 0.52497 0.64797 0.4998   -0.215734
 C 0.26345 0.09865 0.5083   0.212096
 C 0.29307 0.05487 0.57647   -0.041655
 C 0.22424 0.00204 0.581   -0.164062
 C 0.20515 0.99515 0.5094   -0.121415
 C 0.27803 0.02783 0.46152   -0.241686
 C 0.32533 0.15173 0.4799   -0.412559
 C 0.1744 0.175 0.5185   -0.368693
 C 0.23412 0.05032 0.3965   0.681343
 C 0.28095 0.11795 0.6297   0.690802
 C 0.37889 0.98629 0.5874   -0.31622
 C 0.53237 0.00877 0.8039   0.191729
 C 0.46344 0.08784 0.83805   -0.039023
 C 0.41883 0.03083 0.89405   -0.164021
 C 0.48484 0.93864 0.9078   -0.104635
 C 0.57369 0.94329 0.8614   -0.245529
 C 0.60156 0.04296 0.7607   -0.373246
 C 0.48939 0.96619 0.7546   -0.125674
 C 0.39755 0.15035 0.7967   0.695151
 C 0.62663 0.85023 0.8405   0.719839
 C 0.51457 0.13517 0.8724   -0.318635
 C 0.27752 0.61372 0.87299   0.096718
 C 0.275 0.624 0.9417   0.065783
 C 0.2516 0.7514 0.8827   0.276283
 C 0.28472 0.53832 0.8362   0.087136
 C 0.26638 0.45718 0.8636   -0.207864
 C 0.28008 0.39108 0.8217   0.181238
 C 0.32232 0.46792 0.7297   0.155517
 C 0.30689 0.54329 0.7695   -0.186927
 C 0.23409 0.84769 0.86375   0.041884
 C 0.20363 0.91323 0.90727   -0.185116
 C 0.18899 0.00139 0.8848   0.191387
 C 0.22592 0.96312 0.77669   0.185772
 C 0.24439 0.87099 0.79728   -0.151127
 C 0.28627 0.55967 0.99988   0.083353
 C 0.23283 0.57983 0.06045   -0.215685
 C 0.24117 0.51397 0.1113   0.197833
 C 0.35419 0.41399 0.0529   0.183351
 C 0.35203 0.47503 0.0002   -0.215734
 C 0.09865 0.26345 0.0083   0.212096
 C 0.05487 0.29307 0.07647   -0.041655
 C 0.00204 0.22424 0.081   -0.164062
 C 0.99515 0.20515 0.0094   -0.121414
 C 0.02783 0.27803 0.96152   -0.241685
 C 0.15173 0.32533 0.9799   -0.412559
 C 0.175 0.1744 0.0185   -0.368694
 C 0.05032 0.23412 0.8965   0.681343
 C 0.11795 0.28095 0.1297   0.690802
 C 0.98629 0.37889 0.0874   -0.316219
 C 0.00877 0.53237 0.3039   0.191728
 C 0.08784 0.46344 0.33805   -0.039024
 C 0.03083 0.41883 0.39405   -0.164019
 C 0.93864 0.48484 0.4078   -0.104633
 C 0.94329 0.57369 0.3614   -0.24553
 C 0.04296 0.60156 0.2607   -0.373244
 C 0.96619 0.48939 0.2546   -0.125655
 C 0.15035 0.39755 0.2967   0.695151
 C 0.85023 0.62663 0.3405   0.719839
 C 0.13517 0.51457 0.3724   -0.318632
 C 0.61372 0.27752 0.37299   0.096718
 C 0.624 0.275 0.4417   0.065783
 C 0.7514 0.2516 0.3827   0.276283
 C 0.53832 0.28472 0.3362   0.087136
 C 0.45718 0.26638 0.3636   -0.207857
 C 0.39108 0.28008 0.3217   0.181242
 C 0.46792 0.32232 0.2297   0.155519
 C 0.54329 0.30689 0.2695   -0.186922
 C 0.84769 0.23409 0.36375   0.041884
 C 0.91323 0.20363 0.40727   -0.185116
 C 0.00139 0.18899 0.3848   0.191387
 C 0.96312 0.22592 0.27669   0.185772
 C 0.87099 0.24439 0.29728   -0.151126
 C 0.55967 0.28627 0.49988   0.083353
 C 0.57983 0.23283 0.56045   -0.215685
 C 0.51397 0.24117 0.6113   0.197835
 C 0.41399 0.35419 0.5529   0.183352
 C 0.47503 0.35203 0.5002   -0.215734
 C 0.73655 0.90135 0.4917   0.212096
 C 0.70693 0.94513 0.42353   -0.041655
 C 0.77576 0.99796 0.419   -0.164061
 C 0.79485 0.00485 0.4906   -0.121416
 C 0.72197 0.97217 0.53848   -0.241685
 C 0.67467 0.84827 0.5201   -0.412559
 C 0.8256 0.825 0.4815   -0.368692
 C 0.76588 0.94968 0.6035   0.681343
 C 0.71905 0.88205 0.3703   0.690802
 C 0.62111 0.01371 0.4126   -0.31622
 C 0.46763 0.99123 0.1961   0.191729
 C 0.53656 0.91216 0.16195   -0.039024
 C 0.58117 0.96917 0.10595   -0.164019
 C 0.51516 0.06136 0.0922   -0.104633
 C 0.42631 0.05671 0.1386   -0.245529
 C 0.39844 0.95704 0.2393   -0.373244
 C 0.51061 0.03381 0.2454   -0.125674
 C 0.60245 0.84965 0.2033   0.695151
 C 0.37337 0.14977 0.1595   0.719839
 C 0.48543 0.86483 0.1276   -0.318632
 C 0.72248 0.38628 0.12701   0.096718
 C 0.725 0.376 0.0583   0.065783
 C 0.7484 0.2486 0.1173   0.276283
 C 0.71528 0.46168 0.1638   0.087136
 C 0.73362 0.54282 0.1364   -0.207864
 C 0.71992 0.60892 0.1783   0.181238
 C 0.67768 0.53208 0.2703   0.155517
 C 0.69311 0.45671 0.2305   -0.186927
 C 0.76591 0.15231 0.13625   0.041884
 C 0.79637 0.08677 0.09273   -0.185116
 C 0.81101 0.99861 0.1152   0.191387
 C 0.77408 0.03688 0.22331   0.185772
 C 0.75561 0.12901 0.20272   -0.151127
 C 0.71373 0.44033 0.000120000000003   0.083353
 C 0.76717 0.42017 0.93955   -0.215685
 C 0.75883 0.48603 0.8887   0.197835
 C 0.64581 0.58601 0.9471   0.183352
 C 0.64797 0.52497 0.9998   -0.215734
 N 0.30684 0.73932 0.66082   -0.359906
 N 0.28891 0.74201 0.55152   -0.296844
 N 0.60376 0.6992 0.74333   -0.333475
 N 0.97358 0.80024 0.68225   -0.370407
 N 0.56708 0.69582 0.39082   -0.346644
 N 0.26068 0.69316 0.83918   -0.359906
 N 0.25799 0.71109 0.94848   -0.296844
 N 0.3008 0.39624 0.75667   -0.333475
 N 0.19976 0.02642 0.81775   -0.370408
 N 0.30418 0.43292 0.10918   -0.346644
 N 0.69316 0.26068 0.33918   -0.359906
 N 0.71109 0.25799 0.44848   -0.296844
 N 0.39624 0.3008 0.25667   -0.333475
 N 0.02642 0.19976 0.31775   -0.370407
 N 0.43292 0.30418 0.60918   -0.346645
 N 0.73932 0.30684 0.16082   -0.359906
 N 0.74201 0.28891 0.05152   -0.296844
 N 0.6992 0.60376 0.24333   -0.333475
 N 0.80024 0.97358 0.18225   -0.370407
 N 0.69582 0.56708 0.89082   -0.346645
 O 0.88376 0.7828 0.8308   -0.599479
 O 0.83459 0.66693 0.86881   -0.613537
 O 0.00632 0.79806 0.12517   -0.676619
 O 0.88075 0.76053 0.13701   -0.59421
 O 0.83885 0.68081 0.70141   -0.63216
 O 0.80206 0.56722 0.7466   -0.640644
 O 0.15855 0.31431 0.70739   -0.680983
 O 0.21334 0.3852 0.62537   -0.600003
 O 0.2172 0.11624 0.6692   -0.599479
 O 0.33307 0.16541 0.63119   -0.613537
 O 0.20194 0.99368 0.37483   -0.676619
 O 0.23947 0.11925 0.36299   -0.59421
 O 0.31919 0.16115 0.79859   -0.63216
 O 0.43278 0.19794 0.7534   -0.640644
 O 0.68569 0.84145 0.79261   -0.680982
 O 0.6148 0.78666 0.87463   -0.600003
 O 0.11624 0.2172 0.1692   -0.599479
 O 0.16541 0.33307 0.13119   -0.613537
 O 0.99368 0.20194 0.87483   -0.676619
 O 0.11925 0.23947 0.86299   -0.59421
 O 0.16115 0.31919 0.29859   -0.63216
 O 0.19794 0.43278 0.2534   -0.640644
 O 0.84145 0.68569 0.29261   -0.680982
 O 0.78666 0.6148 0.37463   -0.600003
 O 0.7828 0.88376 0.3308   -0.599479
 O 0.66693 0.83459 0.36881   -0.613536
 O 0.79806 0.00632 0.62517   -0.676619
 O 0.76053 0.88075 0.63701   -0.59421
 O 0.68081 0.83885 0.20141   -0.63216
 O 0.56722 0.80206 0.2466   -0.640644
 O 0.31431 0.15855 0.20739   -0.680982
 O 0.3852 0.21334 0.12537   -0.600003
