{'_ref': 'TBD', '_srcid': 'CAKYAQ_clean', 'submitters': [{'name': 'Dalar Nazarian Jeff Camp and David Sholl', 'email': 'dalar@gatech.edu jcamp6@gatech.edu'}], '_method': 'VASP DFT with PBE;DDEC'}
data_Ho2H6C21(NO4)3
_symmetry_space_group_name_H-M   'P 1'
_cell_length_a   12.12599985
_cell_length_b   12.67870031
_cell_length_c   21.56800000
_cell_angle_alpha   82.75870047
_cell_angle_beta   74.71700042
_cell_angle_gamma   61.43180187
_symmetry_Int_Tables_number   1
_chemical_formula_structural   Ho2H6C21(NO4)3
_chemical_formula_sum   'Ho8 H24 C84 N12 O48'
_cell_volume   2809.20169866
_cell_formula_units_Z   4
loop_
 _symmetry_equiv_pos_site_id
 _symmetry_equiv_pos_as_xyz
  1  'x, y, z'
loop_
 _atom_site_label
 _atom_site_fract_x
 _atom_site_fract_y
 _atom_site_fract_z
 _atom_site_charge
 Ho 0.76999 0.73928 0.47432   2.173806
 Ho 0.49073 0.73928 0.02568   2.174451
 Ho 0.23001 0.26072 0.52568   2.173732
 Ho 0.50927 0.26072 0.97432   2.174371
 Ho 0.78511 0.42978 0.25   1.94244
 Ho 0.21489 0.57022 0.75   1.94244
 Ho 0.24689 0.50622 0.25   2.045022
 Ho 0.75311 0.49378 0.75   2.045022
 H 0.0291 0.8694 0.4148   0.128053
 H 0.42 0.701 0.3806   0.126285
 H 0.0637 0.0422 0.4056   0.129432
 H 0.3681 0.8072 0.4798   0.141603
 H 0.5927 0.8788 0.3367   0.132881
 H 0.4203 0.0598 0.3467   0.133142
 H 0.1015 0.8694 0.0852   0.128682
 H 0.879 0.701 0.1194   0.125953
 H 0.8941 0.0422 0.0944   0.132459
 H 0.8247 0.8072 0.0202   0.141432
 H 0.5285 0.8788 0.1633   0.131484
 H 0.5199 0.0598 0.1533   0.134036
 H 0.9709 0.1306 0.5852   0.128055
 H 0.58 0.299 0.6194   0.126285
 H 0.9363 0.9578 0.5944   0.129439
 H 0.6319 0.1928 0.5202   0.141603
 H 0.4073 0.1212 0.6633   0.13288
 H 0.5797 0.9402 0.6533   0.133142
 H 0.8985 0.1306 0.9148   0.128684
 H 0.121 0.299 0.8806   0.125953
 H 0.1059 0.9578 0.9056   0.132467
 H 0.1753 0.1928 0.9798   0.141432
 H 0.4715 0.1212 0.8367   0.131484
 H 0.4801 0.9402 0.8467   0.134036
 C 0.7195 0.635 0.3521   0.75108
 C 0.2788 0.3044 0.3613   0.711225
 C 0.0053 0.7164 0.348   0.692305
 C 0.122 0.7208 0.3597   0.140747
 C 0.1118 0.8086 0.3949   -0.139322
 C 0.2227 0.809 0.4015   0.086569
 C 0.3413 0.7094 0.3746   -0.132379
 C 0.3434 0.6252 0.34   0.141288
 C 0.4623 0.5174 0.3041   0.708784
 C 0.0302 0.2456 0.456   0.656417
 C 0.1266 0.1128 0.4587   0.147772
 C 0.1263 0.0234 0.4298   -0.177794
 C 0.2166 0.9048 0.4357   0.086035
 C 0.3048 0.8864 0.4729   -0.149931
 C 0.2994 0.9812 0.4986   0.229321
 C 0.3717 0.0024 0.5397   0.57341
 C 0.6584 0.7152 0.2997   0.119649
 C 0.5991 0.8378 0.3009   -0.120219
 C 0.3575 0.223 0.3042   0.150907
 C 0.4198 0.1004 0.3066   -0.132371
 C 0.6455 0.635 0.1479   0.750034
 C 0.4168 0.3044 0.1387   0.713438
 C 0.2783 0.7164 0.152   0.692147
 C 0.1572 0.7208 0.1403   0.144239
 C 0.0796 0.8086 0.1051   -0.14364
 C 0.9683 0.809 0.0985   0.087443
 C 0.9493 0.7094 0.1254   -0.132141
 C 0.0314 0.6252 0.16   0.142084
 C 0.0203 0.5174 0.1959   0.704314
 C 0.7242 0.2456 0.044   0.655251
 C 0.7606 0.1128 0.0413   0.14766
 C 0.8503 0.0234 0.0702   -0.180307
 C 0.8786 0.9048 0.0643   0.087274
 C 0.8088 0.8864 0.0271   -0.148857
 C 0.7194 0.9812 0.0014   0.22624
 C 0.6259 0.0024 0.9603   0.576966
 C 0.6264 0.7152 0.2003   0.120258
 C 0.5631 0.8378 0.1991   -0.119232
 C 0.4195 0.223 0.1958   0.149769
 C 0.4798 0.1004 0.1934   -0.133086
 C 0.2805 0.365 0.6479   0.751079
 C 0.7212 0.6956 0.6387   0.711229
 C 0.9947 0.2836 0.652   0.692305
 C 0.878 0.2792 0.6403   0.140746
 C 0.8882 0.1914 0.6051   -0.139337
 C 0.7773 0.191 0.5985   0.086563
 C 0.6587 0.2906 0.6254   -0.132379
 C 0.6566 0.3748 0.66   0.141288
 C 0.5377 0.4826 0.6959   0.708784
 C 0.9698 0.7544 0.544   0.656384
 C 0.8734 0.8872 0.5413   0.147785
 C 0.8737 0.9766 0.5702   -0.177871
 C 0.7834 0.0952 0.5643   0.086024
 C 0.6952 0.1136 0.5271   -0.14993
 C 0.7006 0.0188 0.5014   0.229322
 C 0.6283 0.9976 0.4603   0.573412
 C 0.3416 0.2848 0.7003   0.119649
 C 0.4009 0.1622 0.6991   -0.120219
 C 0.6425 0.777 0.6958   0.150907
 C 0.5802 0.8996 0.6934   -0.132371
 C 0.3545 0.365 0.8521   0.750032
 C 0.5832 0.6956 0.8613   0.713442
 C 0.7217 0.2836 0.848   0.692146
 C 0.8428 0.2792 0.8597   0.144238
 C 0.9204 0.1914 0.8949   -0.143659
 C 0.0317 0.191 0.9015   0.087438
 C 0.0507 0.2906 0.8746   -0.132142
 C 0.9686 0.3748 0.84   0.142084
 C 0.9797 0.4826 0.8041   0.704314
 C 0.2758 0.7544 0.956   0.655216
 C 0.2394 0.8872 0.9587   0.147674
 C 0.1497 0.9766 0.9298   -0.180391
 C 0.1214 0.0952 0.9357   0.087264
 C 0.1912 0.1136 0.9729   -0.148856
 C 0.2806 0.0188 0.9986   0.226242
 C 0.3741 0.9976 0.0397   0.576969
 C 0.3736 0.2848 0.7997   0.120258
 C 0.4369 0.1622 0.8009   -0.119232
 C 0.5805 0.777 0.8042   0.149768
 C 0.5202 0.8996 0.8066   -0.133085
 C 0.5491 0.9018 0.25   0.073681
 C 0.4815 0.037 0.25   0.079225
 C 0.4509 0.0982 0.75   0.073681
 C 0.5185 0.963 0.75   0.079225
 N 0.2346 0.6324 0.3306   -0.423777
 N 0.2115 0.0886 0.4938   -0.491431
 N 0.133 0.6324 0.1694   -0.425893
 N 0.6999 0.0886 0.0062   -0.491129
 N 0.7654 0.3676 0.6694   -0.423777
 N 0.7885 0.9114 0.5062   -0.491435
 N 0.867 0.3676 0.8306   -0.425893
 N 0.3001 0.9114 0.9938   -0.491133
 N 0.6728 0.6544 0.25   -0.416502
 N 0.3575 0.285 0.25   -0.431557
 N 0.3272 0.3456 0.75   -0.416502
 N 0.6425 0.715 0.75   -0.431557
 O 0.0313 0.6488 0.3021   -0.657027
 O 0.8958 0.7772 0.382   -0.712171
 O 0.4481 0.4518 0.2743   -0.63947
 O 0.5694 0.5092 0.3099   -0.749745
 O 0.0418 0.3144 0.4888   -0.737976
 O 0.9531 0.2778 0.4226   -0.515619
 O 0.4033 0.0894 0.5315   -0.651613
 O 0.3858 0.9124 0.5804   -0.509125
 O 0.7797 0.5266 0.3423   -0.645866
 O 0.6911 0.691 0.4038   -0.802972
 O 0.2181 0.414 0.3524   -0.657518
 O 0.2872 0.2496 0.4144   -0.759979
 O 0.3199 0.6488 0.1979   -0.65764
 O 0.327 0.7772 0.118   -0.711825
 O 0.1001 0.4518 0.2257   -0.636216
 O 0.9214 0.5092 0.1901   -0.748731
 O 0.6438 0.3144 0.0112   -0.73717
 O 0.7691 0.2778 0.0774   -0.51532
 O 0.5073 0.0894 0.9685   -0.65254
 O 0.7018 0.9124 0.9196   -0.51039
 O 0.6937 0.5266 0.1577   -0.645681
 O 0.6179 0.691 0.0962   -0.802793
 O 0.3679 0.414 0.1476   -0.65869
 O 0.4632 0.2496 0.0856   -0.760785
 O 0.9687 0.3512 0.6979   -0.657028
 O 0.1042 0.2228 0.618   -0.712175
 O 0.5519 0.5482 0.7257   -0.63947
 O 0.4306 0.4908 0.6901   -0.749745
 O 0.9582 0.6856 0.5112   -0.737975
 O 0.0469 0.7222 0.5774   -0.515615
 O 0.5967 0.9106 0.4685   -0.651622
 O 0.6142 0.0876 0.4196   -0.509154
 O 0.2203 0.4734 0.6577   -0.645866
 O 0.3089 0.309 0.5962   -0.80297
 O 0.7819 0.586 0.6476   -0.657518
 O 0.7128 0.7504 0.5856   -0.760006
 O 0.6801 0.3512 0.8021   -0.65764
 O 0.673 0.2228 0.882   -0.711828
 O 0.8999 0.5482 0.7743   -0.636216
 O 0.0786 0.4908 0.8099   -0.748731
 O 0.3562 0.6856 0.9888   -0.73717
 O 0.2309 0.7222 0.9226   -0.515316
 O 0.4927 0.9106 0.0315   -0.652549
 O 0.2982 0.0876 0.0804   -0.510419
 O 0.3063 0.4734 0.8423   -0.645681
 O 0.3821 0.309 0.9038   -0.80279
 O 0.6321 0.586 0.8524   -0.65869
 O 0.5368 0.7504 0.9144   -0.760811
