{'_ref': 'TBD', '_srcid': 'CAKYAQ_clean', 'submitters': [{'name': 'Dalar Nazarian Jeff Camp and David Sholl', 'email': 'dalar@gatech.edu jcamp6@gatech.edu'}], '_method': 'VASP DFT with PBE;DDEC'}
data_Dy2H6C21(NO4)3
_symmetry_space_group_name_H-M   'P 1'
_cell_length_a   12.10250040
_cell_length_b   12.68049991
_cell_length_c   21.69500000
_cell_angle_alpha   82.75900034
_cell_angle_beta   74.68499859
_cell_angle_gamma   61.49670181
_symmetry_Int_Tables_number   1
_chemical_formula_structural   Dy2H6C21(NO4)3
_chemical_formula_sum   'Dy8 H24 C84 N12 O48'
_cell_volume   2821.97412975
_cell_formula_units_Z   4
loop_
 _symmetry_equiv_pos_site_id
 _symmetry_equiv_pos_as_xyz
  1  'x, y, z'
loop_
 _atom_site_label
 _atom_site_fract_x
 _atom_site_fract_y
 _atom_site_fract_z
 _atom_site_charge
 Dy 0.50848 0.26032 0.47428   2.287136
 Dy 0.2312 0.26032 0.02572   2.286868
 Dy 0.49152 0.73968 0.52572   2.287137
 Dy 0.7688 0.73968 0.97428   2.286868
 Dy 0.75308 0.49384 0.25   2.127148
 Dy 0.24692 0.50616 0.75   2.127148
 Dy 0.21334 0.57332 0.25   2.194463
 Dy 0.78666 0.42668 0.75   2.194463
 H 0.899 0.1294 0.4148   0.135398
 H 0.1219 0.3008 0.3804   0.12988
 H 0.1041 0.959 0.4071   0.121081
 H 0.1695 0.1956 0.482   0.130872
 H 0.4741 0.12 0.3362   0.14623
 H 0.473 0.9428 0.3454   0.135108
 H 0.9716 0.1294 0.0852   0.135197
 H 0.5773 0.3008 0.1196   0.130744
 H 0.9369 0.959 0.0929   0.119714
 H 0.6349 0.1956 0.018   0.130968
 H 0.4059 0.12 0.1638   0.145793
 H 0.5842 0.9428 0.1546   0.135327
 H 0.101 0.8706 0.5852   0.135398
 H 0.8781 0.6992 0.6196   0.12988
 H 0.8959 0.041 0.5929   0.121081
 H 0.8305 0.8044 0.518   0.130872
 H 0.5259 0.88 0.6638   0.14623
 H 0.527 0.0572 0.6546   0.135108
 H 0.0284 0.8706 0.9148   0.135197
 H 0.4227 0.6992 0.8804   0.130744
 H 0.0631 0.041 0.9071   0.119714
 H 0.3651 0.8044 0.982   0.130968
 H 0.5941 0.88 0.8362   0.145793
 H 0.4158 0.0572 0.8454   0.135327
 C 0.3528 0.3646 0.3519   0.761263
 C 0.5828 0.6984 0.3623   0.718346
 C 0.722 0.2842 0.347   0.685266
 C 0.8426 0.2786 0.3595   0.144284
 C 0.9197 0.1912 0.3952   -0.124961
 C 0.0303 0.1946 0.4021   0.088653
 C 0.0512 0.2922 0.375   -0.142373
 C 0.9667 0.3754 0.3403   0.143373
 C 0.9835 0.481 0.3064   0.729257
 C 0.2766 0.7568 0.456   0.658254
 C 0.2395 0.889 0.4586   0.151536
 C 0.148 0.978 0.4305   -0.175207
 C 0.1207 0.0974 0.4364   0.08453
 C 0.1879 0.1162 0.4737   -0.169678
 C 0.2821 0.0198 0.4982   0.205322
 C 0.3834 0.0274 0.5241   0.587666
 C 0.3741 0.2858 0.2998   0.125814
 C 0.4387 0.1614 0.3009   -0.101399
 C 0.5815 0.779 0.3041   0.14275
 C 0.5168 0.9024 0.3056   -0.133992
 C 0.2826 0.3646 0.1481   0.762122
 C 0.7188 0.6984 0.1377   0.7215
 C 0.9938 0.2842 0.153   0.682407
 C 0.8788 0.2786 0.1405   0.144731
 C 0.8891 0.1912 0.1048   -0.125523
 C 0.7751 0.1946 0.0979   0.091168
 C 0.6566 0.2922 0.125   -0.144687
 C 0.6579 0.3754 0.1597   0.142704
 C 0.5355 0.481 0.1936   0.726977
 C 0.9666 0.7568 0.044   0.660484
 C 0.8715 0.889 0.0414   0.149038
 C 0.874 0.978 0.0695   -0.1722
 C 0.7819 0.0974 0.0636   0.084199
 C 0.6959 0.1162 0.0263   -0.17022
 C 0.6981 0.0198 0.0018   0.205089
 C 0.5892 0.0274 0.9759   0.58599
 C 0.3401 0.2858 0.2002   0.126096
 C 0.3999 0.1614 0.1991   -0.101031
 C 0.6395 0.779 0.1959   0.14147
 C 0.5808 0.9024 0.1944   -0.134024
 C 0.6472 0.6354 0.6481   0.761263
 C 0.4172 0.3016 0.6377   0.718346
 C 0.278 0.7158 0.653   0.685266
 C 0.1574 0.7214 0.6405   0.144284
 C 0.0803 0.8088 0.6048   -0.124961
 C 0.9697 0.8054 0.5979   0.088653
 C 0.9488 0.7078 0.625   -0.142373
 C 0.0333 0.6246 0.6597   0.143373
 C 0.0165 0.519 0.6936   0.729257
 C 0.7234 0.2432 0.544   0.658254
 C 0.7605 0.111 0.5414   0.151537
 C 0.852 0.022 0.5695   -0.175208
 C 0.8793 0.9026 0.5636   0.08453
 C 0.8121 0.8838 0.5263   -0.169678
 C 0.7179 0.9802 0.5018   0.205322
 C 0.6166 0.9726 0.4759   0.587665
 C 0.6259 0.7142 0.7002   0.125814
 C 0.5613 0.8386 0.6991   -0.101399
 C 0.4185 0.221 0.6959   0.14275
 C 0.4832 0.0976 0.6944   -0.133992
 C 0.7174 0.6354 0.8519   0.762122
 C 0.2812 0.3016 0.8623   0.7215
 C 0.0062 0.7158 0.847   0.682407
 C 0.1212 0.7214 0.8595   0.144731
 C 0.1109 0.8088 0.8952   -0.125523
 C 0.2249 0.8054 0.9021   0.091168
 C 0.3434 0.7078 0.875   -0.144687
 C 0.3421 0.6246 0.8403   0.142704
 C 0.4645 0.519 0.8064   0.726977
 C 0.0334 0.2432 0.956   0.660484
 C 0.1285 0.111 0.9586   0.149038
 C 0.126 0.022 0.9305   -0.1722
 C 0.2181 0.9026 0.9364   0.084198
 C 0.3041 0.8838 0.9737   -0.17022
 C 0.3019 0.9802 0.9982   0.205089
 C 0.4108 0.9726 0.0241   0.58599
 C 0.6599 0.7142 0.7998   0.126096
 C 0.6001 0.8386 0.8009   -0.101031
 C 0.3605 0.221 0.8041   0.14147
 C 0.4192 0.0976 0.8056   -0.134024
 C 0.4509 0.0982 0.25   0.075565
 C 0.5159 0.9682 0.25   0.077748
 C 0.5491 0.9018 0.75   0.075565
 C 0.4841 0.0318 0.75   0.077748
 N 0.867 0.3674 0.3316   -0.423214
 N 0.3004 0.912 0.4937   -0.466488
 N 0.7656 0.3674 0.1684   -0.421779
 N 0.7876 0.912 0.0063   -0.464733
 N 0.133 0.6326 0.6684   -0.423214
 N 0.6996 0.088 0.5063   -0.466488
 N 0.2344 0.6326 0.8316   -0.421779
 N 0.2124 0.088 0.9937   -0.464733
 N 0.3275 0.345 0.25   -0.448397
 N 0.6417 0.7166 0.25   -0.426658
 N 0.6725 0.655 0.75   -0.448397
 N 0.3583 0.2834 0.75   -0.426658
 O 0.6804 0.3512 0.3017   -0.660639
 O 0.6745 0.2218 0.3815   -0.706875
 O 0.8999 0.5482 0.2753   -0.692357
 O 0.0767 0.4938 0.311   -0.768951
 O 0.3533 0.6854 0.4898   -0.767913
 O 0.2265 0.725 0.4234   -0.623999
 O 0.4111 0.9458 0.5695   -0.622953
 O 0.4315 0.105 0.5027   -0.652772
 O 0.3054 0.4746 0.3422   -0.665131
 O 0.3818 0.3098 0.4029   -0.782781
 O 0.6293 0.5884 0.3524   -0.682183
 O 0.5356 0.7518 0.4134   -0.74806
 O 0.9684 0.3512 0.1983   -0.658954
 O 0.1037 0.2218 0.1185   -0.70612
 O 0.5519 0.5482 0.2247   -0.690922
 O 0.4295 0.4938 0.189   -0.768408
 O 0.9613 0.6854 0.0102   -0.769708
 O 0.0485 0.725 0.0766   -0.623939
 O 0.6431 0.9458 0.9305   -0.622135
 O 0.4635 0.105 0.9973   -0.652389
 O 0.22 0.4746 0.1578   -0.665846
 O 0.3084 0.3098 0.0971   -0.783174
 O 0.7823 0.5884 0.1476   -0.683628
 O 0.7126 0.7518 0.0866   -0.74913
 O 0.3196 0.6488 0.6983   -0.660639
 O 0.3255 0.7782 0.6185   -0.706875
 O 0.1001 0.4518 0.7247   -0.692357
 O 0.9233 0.5062 0.689   -0.768951
 O 0.6467 0.3146 0.5102   -0.767913
 O 0.7735 0.275 0.5766   -0.623999
 O 0.5889 0.0542 0.4305   -0.622953
 O 0.5685 0.895 0.4973   -0.652772
 O 0.6946 0.5254 0.6578   -0.665131
 O 0.6182 0.6902 0.5971   -0.782781
 O 0.3707 0.4116 0.6476   -0.682183
 O 0.4644 0.2482 0.5866   -0.74806
 O 0.0316 0.6488 0.8017   -0.658954
 O 0.8963 0.7782 0.8815   -0.706121
 O 0.4481 0.4518 0.7753   -0.690922
 O 0.5705 0.5062 0.811   -0.768408
 O 0.0387 0.3146 0.9898   -0.769708
 O 0.9515 0.275 0.9234   -0.623939
 O 0.3569 0.0542 0.0695   -0.622135
 O 0.5365 0.895 0.0027   -0.652389
 O 0.78 0.5254 0.8422   -0.665846
 O 0.6916 0.6902 0.9029   -0.783174
 O 0.2177 0.4116 0.8524   -0.683628
 O 0.2874 0.2482 0.9134   -0.74913
