{'_ref': 'TBD', '_srcid': 'CAKYAQ_clean', 'submitters': [{'name': 'Dalar Nazarian Jeff Camp and David Sholl', 'email': 'dalar@gatech.edu jcamp6@gatech.edu'}], '_method': 'VASP DFT with PBE;DDEC'}
data_Li5H58(C14N3)3
_symmetry_space_group_name_H-M   'P 1'
_cell_length_a   11.20489974
_cell_length_b   16.72599986
_cell_length_c   17.15200000
_cell_angle_alpha   64.59199829
_cell_angle_beta   80.09499779
_cell_angle_gamma   85.22499931
_symmetry_Int_Tables_number   1
_chemical_formula_structural   Li5H58(C14N3)3
_chemical_formula_sum   'Li10 H116 C84 N18'
_cell_volume   2860.14720102
_cell_formula_units_Z   2
loop_
 _symmetry_equiv_pos_site_id
 _symmetry_equiv_pos_as_xyz
  1  'x, y, z'
loop_
 _atom_site_label
 _atom_site_fract_x
 _atom_site_fract_y
 _atom_site_fract_z
 _atom_site_charge
 Li 0.6758 0.6227 0.8847   0.824742
 Li 0.8945 0.6616 0.8572   0.809606
 Li 0.9665 0.6454 0.7142   0.849325
 Li 0.9606 0.8075 0.6023   0.858261
 Li 0.0486 0.5999 0.5927   0.841133
 Li 0.3242 0.3773 0.1153   0.824742
 Li 0.1055 0.3384 0.1428   0.809606
 Li 0.0335 0.3546 0.2858   0.849325
 Li 0.0394 0.1925 0.3977   0.858261
 Li 0.9514 0.4001 0.4073   0.841133
 H 0.4489 0.7149 0.8743   0.099403
 H 0.4491 0.6679 0.8102   0.08001
 H 0.3413 0.6499 0.89   0.074259
 H 0.4869 0.6284 0.0224   0.090542
 H 0.3775 0.565 0.0373   0.044956
 H 0.3782 0.4941 0.9401   0.04397
 H 0.488 0.5108 0.8616   0.07308
 H 0.1019 0.71 0.9038   0.082767
 H 0.99 0.711 0.9753   0.096352
 H 0.1101 0.6555 0.0055   0.067731
 H 0.1523 0.5726 0.8853   0.08139
 H 0.1631 0.5285 0.9872   0.029751
 H 0.9886 0.5331 0.092   0.054129
 H 0.866 0.5808 0.0578   0.069293
 H 0.7389 0.887 0.5949   0.082586
 H 0.7334 0.9739 0.5058   0.076126
 H 0.7708 0.8805 0.5032   0.091628
 H 0.8637 0.0493 0.5439   0.039496
 H 0.8776 0.9657 0.6341   0.077531
 H 0.9557 0.9412 0.4078   0.058091
 H 0.911 0.0346 0.4079   0.039163
 H 0.2694 0.5259 0.5472   0.096681
 H 0.2746 0.5225 0.4548   0.071199
 H 0.2529 0.6149 0.4622   0.085309
 H 0.0679 0.6396 0.3987   0.064833
 H 0.0935 0.5482 0.3895   0.03772
 H 0.1219 0.4131 0.5155   0.053656
 H 0.1147 0.4147 0.609   0.074234
 H 0.76 0.695 0.96   0.345762
 H 0.7623 0.8419 0.9567   0.115381
 H 0.7057 0.9893 0.8882   0.080676
 H 0.6172 0.0419 0.7611   0.09529
 H 0.5897 0.9445 0.7026   0.075288
 H 0.6468 0.798 0.7677   0.091073
 H 0.848 0.524 0.848   0.348635
 H 0.6982 0.7008 0.7099   0.112216
 H 0.5656 0.6915 0.6241   0.084409
 H 0.5243 0.5562 0.6277   0.102312
 H 0.6191 0.429 0.7176   0.086959
 H 0.7546 0.4354 0.8027   0.122973
 H 0.903 0.785 0.746   0.346392
 H 0.9657 0.8827 0.7929   0.114338
 H 0.1293 0.9522 0.8028   0.083243
 H 0.3248 0.9201 0.7565   0.093786
 H 0.36 0.8181 0.695   0.080465
 H 0.1974 0.7465 0.6847   0.110422
 H 0.854 0.694 0.582   0.353495
 H 0.8259 0.7595 0.4341   0.120798
 H 0.9131 0.8368 0.2903   0.087354
 H 0.1156 0.8768 0.2544   0.103456
 H 0.2336 0.8362 0.364   0.080949
 H 0.1517 0.7566 0.5098   0.116056
 H 0.183 0.611 0.683   0.337962
 H 0.3287 0.5116 0.7541   0.101134
 H 0.3859 0.3672 0.832   0.07862
 H 0.2544 0.253 0.8692   0.098101
 H 0.0611 0.285 0.8273   0.081735
 H 0.000700000000002 0.4296 0.7515   0.105838
 H 0.5511 0.2851 0.1257   0.099403
 H 0.5509 0.3321 0.1898   0.08001
 H 0.6587 0.3501 0.11   0.074259
 H 0.5131 0.3716 0.9776   0.090542
 H 0.6225 0.435 0.9627   0.044955
 H 0.6218 0.5059 0.0599   0.04397
 H 0.512 0.4892 0.1384   0.07308
 H 0.8981 0.29 0.0962   0.082767
 H 0.01 0.289 0.0247   0.096352
 H 0.8899 0.3445 0.9945   0.06773
 H 0.8477 0.4274 0.1147   0.08139
 H 0.8369 0.4715 0.0128   0.029751
 H 0.0114 0.4669 0.908   0.054128
 H 0.134 0.4192 0.9422   0.069293
 H 0.2611 0.113 0.4051   0.082586
 H 0.2666 0.0261 0.4942   0.076125
 H 0.2292 0.1195 0.4968   0.091628
 H 0.1363 0.9507 0.4561   0.039496
 H 0.1224 0.0343 0.3659   0.077531
 H 0.0443 0.0588 0.5922   0.058091
 H 0.089 0.9654 0.5921   0.039163
 H 0.7306 0.4741 0.4528   0.096681
 H 0.7254 0.4775 0.5452   0.071199
 H 0.7471 0.3851 0.5378   0.085309
 H 0.9321 0.3604 0.6013   0.064834
 H 0.9065 0.4518 0.6105   0.037719
 H 0.8781 0.5869 0.4845   0.053656
 H 0.8853 0.5853 0.391   0.074234
 H 0.24 0.305 0.04   0.345762
 H 0.2377 0.1581 0.0433   0.115383
 H 0.2943 0.0107 0.1118   0.080678
 H 0.3828 0.9581 0.2389   0.095291
 H 0.4103 0.0555 0.2974   0.075288
 H 0.3532 0.202 0.2323   0.091073
 H 0.152 0.476 0.152   0.348634
 H 0.3018 0.2992 0.2901   0.112216
 H 0.4344 0.3085 0.3759   0.084409
 H 0.4757 0.4438 0.3723   0.102312
 H 0.3809 0.571 0.2824   0.086959
 H 0.2454 0.5646 0.1973   0.122972
 H 0.097 0.215 0.254   0.346392
 H 0.0343 0.1173 0.2071   0.114338
 H 0.8707 0.0478 0.1972   0.083245
 H 0.6752 0.0799 0.2435   0.093787
 H 0.64 0.1819 0.305   0.080464
 H 0.8026 0.2535 0.3153   0.110422
 H 0.146 0.306 0.418   0.353495
 H 0.1741 0.2405 0.5659   0.120798
 H 0.0869 0.1632 0.7097   0.087356
 H 0.8844 0.1232 0.7456   0.103457
 H 0.7664 0.1638 0.636   0.08095
 H 0.8483 0.2434 0.4902   0.116056
 H 0.817 0.389 0.317   0.337962
 H 0.6713 0.4884 0.2459   0.101134
 H 0.6141 0.6328 0.168   0.078621
 H 0.7456 0.747 0.1308   0.098104
 H 0.9389 0.715 0.1727   0.081734
 H 0.9993 0.5704 0.2485   0.105838
 C 0.4283 0.6608 0.8707   -0.12263
 C 0.4658 0.5742 0.0183   0.004204
 C 0.4665 0.5043 0.9225   0.017414
 C 0.0561 0.6749 0.9613   -0.121673
 C 0.107 0.5405 0.9447   0.017593
 C 0.9365 0.5452 0.0469   0.011919
 C 0.7761 0.9176 0.5337   -0.104916
 C 0.912 0.995 0.5715   0.020434
 C 0.9586 0.9804 0.4373   0.025334
 C 0.2364 0.5514 0.4921   -0.113624
 C 0.0532 0.5751 0.4287   0.023394
 C 0.0812 0.4414 0.5534   0.009629
 C 0.7111 0.7995 0.8717   0.454398
 C 0.7272 0.8613 0.9049   -0.300646
 C 0.693 0.9498 0.8639   -0.026923
 C 0.641 0.9815 0.7884   -0.215248
 C 0.625 0.9239 0.7545   -0.020489
 C 0.659 0.8359 0.794   -0.312897
 C 0.7429 0.5689 0.7668   0.391703
 C 0.6834 0.6447 0.7119   -0.285985
 C 0.6038 0.6392 0.6608   -0.026085
 C 0.5793 0.5596 0.6626   -0.201263
 C 0.6358 0.4846 0.7158   -0.018394
 C 0.7165 0.4883 0.7669   -0.283745
 C 0.0625 0.806 0.7375   0.42129
 C 0.0455 0.8685 0.7728   -0.265792
 C 0.1433 0.91 0.7788   -0.018827
 C 0.2588 0.8915 0.7512   -0.199526
 C 0.2796 0.8308 0.7153   -0.033533
 C 0.1821 0.7885 0.709   -0.30444
 C 0.9794 0.7486 0.4899   0.377818
 C 0.9093 0.7744 0.421   -0.25965
 C 0.9613 0.8207 0.3354   -0.01333
 C 0.0814 0.8443 0.3137   -0.19675
 C 0.1506 0.8203 0.3786   0.010238
 C 0.1014 0.7728 0.4659   -0.348107
 C 0.1569 0.4887 0.7437   0.448634
 C 0.2727 0.4658 0.7693   -0.308609
 C 0.3074 0.3798 0.8154   -0.019682
 C 0.2303 0.3126 0.8373   -0.222636
 C 0.1153 0.3318 0.8126   -0.030471
 C 0.0797 0.4179 0.7673   -0.288362
 C 0.5717 0.3392 0.1293   -0.12263
 C 0.5342 0.4258 0.9817   0.004203
 C 0.5335 0.4957 0.0775   0.017413
 C 0.9439 0.3251 0.0387   -0.121672
 C 0.893 0.4595 0.0553   0.017593
 C 0.0635 0.4548 0.9531   0.011919
 C 0.2239 0.0824 0.4663   -0.104916
 C 0.088 0.005 0.4285   0.020434
 C 0.0414 0.0196 0.5627   0.025333
 C 0.7636 0.4486 0.5079   -0.113624
 C 0.9468 0.4249 0.5713   0.023394
 C 0.9188 0.5586 0.4466   0.009628
 C 0.2889 0.2005 0.1283   0.454399
 C 0.2728 0.1387 0.0951   -0.300646
 C 0.307 0.0502 0.1361   -0.026923
 C 0.359 0.0185 0.2116   -0.215248
 C 0.375 0.0761 0.2455   -0.020488
 C 0.341 0.1641 0.206   -0.312897
 C 0.2571 0.4311 0.2332   0.391702
 C 0.3166 0.3553 0.2881   -0.285985
 C 0.3962 0.3608 0.3392   -0.026085
 C 0.4207 0.4404 0.3374   -0.201263
 C 0.3642 0.5154 0.2842   -0.018394
 C 0.2835 0.5117 0.2331   -0.283745
 C 0.9375 0.194 0.2625   0.42129
 C 0.9545 0.1315 0.2272   -0.265792
 C 0.8567 0.09 0.2212   -0.018828
 C 0.7412 0.1085 0.2488   -0.199526
 C 0.7204 0.1692 0.2847   -0.033533
 C 0.8179 0.2115 0.291   -0.30444
 C 0.0206 0.2514 0.5101   0.377818
 C 0.0907 0.2256 0.579   -0.25965
 C 0.0387 0.1793 0.6646   -0.01333
 C 0.9186 0.1557 0.6863   -0.19675
 C 0.8494 0.1797 0.6214   0.010238
 C 0.8986 0.2272 0.5341   -0.348107
 C 0.8431 0.5113 0.2563   0.448634
 C 0.7273 0.5342 0.2307   -0.308609
 C 0.6926 0.6202 0.1846   -0.019681
 C 0.7697 0.6874 0.1627   -0.222637
 C 0.8847 0.6682 0.1874   -0.030471
 C 0.9203 0.5821 0.2327   -0.288362
 N 0.4968 0.5855 0.9271   -0.426856
 N 0.0053 0.5965 0.96026   -0.392612
 N 0.9033 0.93481 0.52978   -0.452069
 N 0.1051 0.5375 0.51   -0.42816
 N 0.7417 0.7112 0.9093   -1.18058
 N 0.8201 0.5768 0.8183   -1.23026
 N 0.9675 0.7613 0.73153   -1.269377
 N 0.9333 0.7028 0.5773   -1.268165
 N 0.1195 0.5744 0.6974   -1.195764
 N 0.5032 0.4145 0.0729   -0.426856
 N 0.9947 0.4035 0.03974   -0.392612
 N 0.0967 0.06519 0.47022   -0.452069
 N 0.8949 0.4625 0.49   -0.42816
 N 0.2583 0.2888 0.0907   -1.180581
 N 0.1799 0.4232 0.1817   -1.23026
 N 0.0325 0.2387 0.26847   -1.269377
 N 0.0667 0.2972 0.4227   -1.268165
 N 0.8805 0.4256 0.3026   -1.195764
