{'_ref': 'TBD', '_srcid': 'CAKYAQ_clean', 'submitters': [{'name': 'Dalar Nazarian Jeff Camp and David Sholl', 'email': 'dalar@gatech.edu jcamp6@gatech.edu'}], '_method': 'VASP DFT with PBE;DDEC'}
data_CdH12C18(NO2)2
_symmetry_space_group_name_H-M   'P 1'
_cell_length_a   11.68290000
_cell_length_b   12.94910000
_cell_length_c   21.29000000
_cell_angle_alpha   90.00000000
_cell_angle_beta   90.00000000
_cell_angle_gamma   90.00000000
_symmetry_Int_Tables_number   1
_chemical_formula_structural   CdH12C18(NO2)2
_chemical_formula_sum   'Cd4 H48 C72 N8 O16'
_cell_volume   3220.8159299
_cell_formula_units_Z   4
loop_
 _symmetry_equiv_pos_site_id
 _symmetry_equiv_pos_as_xyz
  1  'x, y, z'
loop_
 _atom_site_label
 _atom_site_fract_x
 _atom_site_fract_y
 _atom_site_fract_z
 _atom_site_charge
 Cd 0.0 0.38953 0.93978   0.972108
 Cd 0.0 0.61047 0.06022   0.972108
 Cd 0.0 0.11047 0.43978   0.972108
 Cd 0.0 0.88953 0.56022   0.972108
 H 0.2146 0.5229 0.8928   0.083045
 H 0.4111 0.5266 0.89   0.124245
 H 0.4124 0.2623 0.9857   0.127941
 H 0.2163 0.2686 0.9865   0.090071
 H 0.2146 0.4771 0.1072   0.083045
 H 0.4111 0.4734 0.11   0.124245
 H 0.4124 0.7377 0.0143   0.12794
 H 0.2163 0.7314 0.0135   0.090071
 H 0.7854 0.9771 0.3928   0.083045
 H 0.5889 0.9734 0.39   0.124245
 H 0.5876 0.2377 0.4857   0.127941
 H 0.7837 0.2314 0.4865   0.090071
 H 0.7854 0.0229 0.6072   0.083045
 H 0.5889 0.0266 0.61   0.124245
 H 0.5876 0.7623 0.5143   0.12794
 H 0.7837 0.7686 0.5135   0.090071
 H 0.7854 0.4771 0.1072   0.083045
 H 0.5889 0.4734 0.11   0.124245
 H 0.5876 0.7377 0.0143   0.127937
 H 0.7837 0.7314 0.0135   0.090071
 H 0.7854 0.5229 0.8928   0.083045
 H 0.5889 0.5266 0.89   0.124245
 H 0.5876 0.2623 0.9857   0.127936
 H 0.7837 0.2686 0.9865   0.090071
 H 0.2146 0.0229 0.6072   0.083045
 H 0.4111 0.0266 0.61   0.124245
 H 0.4124 0.7623 0.5143   0.127937
 H 0.2163 0.7686 0.5135   0.090071
 H 0.2146 0.9771 0.3928   0.083045
 H 0.4111 0.9734 0.39   0.124245
 H 0.4124 0.2377 0.4857   0.127936
 H 0.2163 0.2314 0.4865   0.090071
 H 0.0 0.1428 0.1117   0.102779
 H 0.0 0.0833 0.2134   0.11206
 H 0.0 0.381 0.2743   0.106128
 H 0.0 0.4349 0.1701   0.093989
 H 0.0 0.8572 0.8883   0.102779
 H 0.0 0.9167 0.7866   0.11206
 H 0.0 0.619 0.7257   0.106128
 H 0.0 0.5651 0.8299   0.093989
 H 0.0 0.3572 0.6117   0.102779
 H 0.0 0.4167 0.7134   0.112061
 H 0.0 0.119 0.7743   0.106129
 H 0.0 0.0651 0.6701   0.093989
 H 0.0 0.6428 0.3883   0.10278
 H 0.0 0.5833 0.2866   0.112061
 H 0.0 0.881 0.2257   0.106129
 H 0.0 0.9349 0.3299   0.093989
 C 0.2555 0.4682 0.9123   0.18242
 C 0.3735 0.4707 0.9103   -0.203595
 C 0.4366 0.3947 0.93675   0.097601
 C 0.3742 0.3181 0.9658   -0.20691
 C 0.2568 0.3223 0.9658   0.1724
 C 0.2555 0.5318 0.0877   0.18242
 C 0.3735 0.5293 0.0897   -0.203595
 C 0.4366 0.6053 0.06325   0.097601
 C 0.3742 0.6819 0.0342   -0.20691
 C 0.2568 0.6777 0.0342   0.1724
 C 0.7445 0.0318 0.4123   0.18242
 C 0.6265 0.0293 0.4103   -0.203595
 C 0.5634 0.1053 0.43675   0.097601
 C 0.6258 0.1819 0.4658   -0.20691
 C 0.7432 0.1777 0.4658   0.1724
 C 0.7445 0.9682 0.5877   0.18242
 C 0.6265 0.9707 0.5897   -0.203595
 C 0.5634 0.8947 0.56325   0.097601
 C 0.6258 0.8181 0.5342   -0.20691
 C 0.7432 0.8223 0.5342   0.1724
 C 0.7445 0.5318 0.0877   0.18242
 C 0.6265 0.5293 0.0897   -0.203595
 C 0.5634 0.6053 0.06325   0.097599
 C 0.6258 0.6819 0.0342   -0.20691
 C 0.7432 0.6777 0.0342   0.172399
 C 0.7445 0.4682 0.9123   0.18242
 C 0.6265 0.4707 0.9103   -0.203595
 C 0.5634 0.3947 0.93675   0.097599
 C 0.6258 0.3181 0.9658   -0.206909
 C 0.7432 0.3223 0.9658   0.172399
 C 0.2555 0.9682 0.5877   0.18242
 C 0.3735 0.9707 0.5897   -0.203595
 C 0.4366 0.8947 0.56325   0.097599
 C 0.3742 0.8181 0.5342   -0.20691
 C 0.2568 0.8223 0.5342   0.172399
 C 0.2555 0.0318 0.4123   0.18242
 C 0.3735 0.0293 0.4103   -0.203595
 C 0.4366 0.1053 0.43675   0.097599
 C 0.3742 0.1819 0.4658   -0.206909
 C 0.2568 0.1777 0.4658   0.172399
 C 0.0 0.3302 0.0645   0.647452
 C 0.0 0.2941 0.131   -0.139963
 C 0.0 0.1913 0.1452   -0.063814
 C 0.0 0.1554 0.2052   -0.092795
 C 0.0 0.2287 0.2565   -0.103365
 C 0.0 0.331 0.2417   -0.067475
 C 0.0 0.3631 0.1792   -0.064044
 C 0.0 0.1913 0.3216   0.64773
 C 0.0 0.6698 0.9355   0.647452
 C 0.0 0.7059 0.869   -0.139963
 C 0.0 0.8087 0.8548   -0.063815
 C 0.0 0.8446 0.7948   -0.092795
 C 0.0 0.7713 0.7435   -0.103365
 C 0.0 0.669 0.7583   -0.067475
 C 0.0 0.6369 0.8208   -0.064044
 C 0.0 0.8087 0.6784   0.64773
 C 0.0 0.1698 0.5645   0.647452
 C 0.0 0.2059 0.631   -0.139963
 C 0.0 0.3087 0.6452   -0.063814
 C 0.0 0.3446 0.7052   -0.092795
 C 0.0 0.2713 0.7565   -0.103365
 C 0.0 0.169 0.7417   -0.067475
 C 0.0 0.1369 0.6792   -0.064044
 C 0.0 0.3087 0.8216   0.64773
 C 0.0 0.8302 0.4355   0.647452
 C 0.0 0.7941 0.369   -0.139963
 C 0.0 0.6913 0.3548   -0.063814
 C 0.0 0.6554 0.2948   -0.092795
 C 0.0 0.7287 0.2435   -0.103365
 C 0.0 0.831 0.2583   -0.067475
 C 0.0 0.8631 0.3208   -0.064044
 C 0.0 0.6913 0.1784   0.64773
 N 0.1976 0.3956 0.93926   -0.307882
 N 0.1976 0.6044 0.06074   -0.307882
 N 0.8024 0.1044 0.43926   -0.307882
 N 0.8024 0.8956 0.56074   -0.307882
 N 0.8024 0.6044 0.06074   -0.307882
 N 0.8024 0.3956 0.93926   -0.307882
 N 0.1976 0.8956 0.56074   -0.307882
 N 0.1976 0.1044 0.43926   -0.307882
 O 0.0 0.2648 0.02116   -0.583758
 O 0.0 0.4258 0.05211   -0.649324
 O 0.0 0.0974 0.33188   -0.607129
 O 0.0 0.2543 0.36662   -0.629245
 O 0.0 0.7352 0.97884   -0.583758
 O 0.0 0.5742 0.94789   -0.649324
 O 0.0 0.9026 0.66812   -0.607129
 O 0.0 0.7457 0.63338   -0.629245
 O 0.0 0.2352 0.52116   -0.583758
 O 0.0 0.0742 0.55211   -0.649324
 O 0.0 0.4026 0.83188   -0.607129
 O 0.0 0.2457 0.86662   -0.629245
 O 0.0 0.7648 0.47884   -0.583758
 O 0.0 0.9258 0.44789   -0.649324
 O 0.0 0.5974 0.16812   -0.607129
 O 0.0 0.7543 0.13338   -0.629245
