{'_ref': 'TBD', '_srcid': 'CAKYAQ_clean', 'submitters': [{'name': 'Dalar Nazarian Jeff Camp and David Sholl', 'email': 'dalar@gatech.edu jcamp6@gatech.edu'}], '_method': 'VASP DFT with PBE;DDEC'}
data_Co3H46C70(N4O7)2
_symmetry_space_group_name_H-M   'P 1'
_cell_length_a   9.35210009
_cell_length_b   11.34710018
_cell_length_c   18.80780000
_cell_angle_alpha   79.46000195
_cell_angle_beta   79.46200115
_cell_angle_gamma   66.51200261
_symmetry_Int_Tables_number   1
_chemical_formula_structural   Co3H46C70(N4O7)2
_chemical_formula_sum   'Co3 H46 C70 N8 O14'
_cell_volume   1786.17545703
_cell_formula_units_Z   1
loop_
 _symmetry_equiv_pos_site_id
 _symmetry_equiv_pos_as_xyz
  1  'x, y, z'
loop_
 _atom_site_label
 _atom_site_fract_x
 _atom_site_fract_y
 _atom_site_fract_z
 _atom_site_charge
 Co 0.60536 0.81047 0.71808   0.719466
 Co 0.39464 0.18953 0.28192   0.719466
 Co 0.0 0.0 0.0   0.967388
 H 0.5752 0.5694 0.1942   0.111304
 H 0.4822 0.5419 0.3174   0.130301
 H 0.0995 0.8554 0.2863   0.109553
 H 0.4508 0.7448 0.3924   0.120173
 H 0.5245 0.7654 0.4995   0.073072
 H 0.206 0.6348 0.6166   0.080594
 H 0.1336 0.6103 0.511   0.120371
 H 0.7733 0.8659 0.9982   0.095105
 H 0.768 0.6668 0.000500000000002   0.124477
 H 0.2314 0.518 0.9956   0.139293
 H 0.2236 0.72 0.9956   0.085642
 H 0.6624 0.8812 0.5516   0.069785
 H 0.8196 0.9516 0.4628   0.118246
 H 0.0344 0.9842 0.6161   0.127758
 H 0.8717 0.9104 0.7013   0.087579
 H 0.3503 0.0095 0.6251   0.062039
 H 0.1516 0.2071 0.6223   0.117871
 H 0.2686 0.2502 0.8064   0.129331
 H 0.4723 0.0571 0.7993   0.080165
 H 0.9924 0.376 0.8254   0.129185
 H 0.7847 0.5705 0.8244   0.08372
 H 0.8368 0.622 0.6136   0.070002
 H 0.048 0.437 0.608   0.125232
 H 0.4248 0.4306 0.8058   0.111308
 H 0.5178 0.4581 0.6826   0.130302
 H 0.9005 0.1446 0.7137   0.109559
 H 0.5492 0.2552 0.6076   0.120173
 H 0.4755 0.2346 0.5005   0.073079
 H 0.794 0.3652 0.3834   0.080596
 H 0.8664 0.3897 0.489   0.120384
 H 0.2267 0.1341 0.0018   0.095105
 H 0.232 0.3332 0.9995   0.124475
 H 0.7686 0.482 0.0044   0.139295
 H 0.7764 0.28 0.0044   0.085642
 H 0.3376 0.1188 0.4484   0.06979
 H 0.1804 0.0484 0.5372   0.118264
 H 0.9656 0.0158 0.3839   0.127768
 H 0.1283 0.0896 0.2987   0.087578
 H 0.6497 0.9905 0.3749   0.062048
 H 0.8484 0.7929 0.3777   0.117881
 H 0.7314 0.7498 0.1936   0.129334
 H 0.5277 0.9429 0.2007   0.080166
 H 0.0076 0.624 0.1746   0.129186
 H 0.2153 0.4295 0.1756   0.083723
 H 0.1632 0.378 0.3864   0.07001
 H 0.952 0.563 0.392   0.125245
 C 0.2441 0.8161 0.1928   -0.069596
 C 0.3907 0.7299 0.1652   -0.084789
 C 0.4783 0.6277 0.2122   -0.052849
 C 0.4233 0.6111 0.2863   -0.204296
 C 0.284 0.6965 0.3118   0.247993
 C 0.1951 0.7976 0.2669   -0.206008
 C 0.131 0.9212 0.145   0.657189
 C 0.461 0.7435 0.0863   0.633675
 C 0.283 0.6788 0.4424   0.310605
 C 0.4009 0.7234 0.4375   -0.270884
 C 0.444 0.7358 0.502   0.011305
 C 0.3716 0.7057 0.5692   -0.193126
 C 0.2551 0.6577 0.5717   0.017336
 C 0.2109 0.6434 0.5087   -0.263345
 C 0.4059 0.7314 0.6388   0.642971
 C 0.8675 0.7944 0.9984   0.184573
 C 0.8637 0.6744 0.9996   -0.182844
 C 0.9988 0.5656 0.9993   0.085345
 C 0.135 0.5873 0.9969   -0.183415
 C 0.1295 0.7097 0.9966   0.206695
 C 0.7404 0.9006 0.5654   0.161169
 C 0.834 0.9442 0.5113   -0.195062
 C 0.9479 0.9769 0.5282   0.093973
 C 0.9595 0.9629 0.601   -0.157392
 C 0.8608 0.9175 0.6524   0.172105
 C 0.3341 0.0589 0.6624   0.195931
 C 0.2127 0.1778 0.6605   -0.196856
 C 0.1814 0.254 0.7153   0.10912
 C 0.2827 0.2037 0.7681   -0.176754
 C 0.4037 0.0858 0.7641   0.187455
 C 0.9974 0.4575 0.6536   -0.183503
 C 0.0483 0.3804 0.7173   0.10623
 C 0.9646 0.425 0.7811   -0.168995
 C 0.8389 0.5428 0.78   0.177441
 C 0.8699 0.5729 0.6571   0.190508
 C 0.7559 0.1839 0.8072   -0.069595
 C 0.6093 0.2701 0.8348   -0.08479
 C 0.5217 0.3723 0.7878   -0.052854
 C 0.5767 0.3889 0.7137   -0.204294
 C 0.716 0.3035 0.6882   0.247988
 C 0.8049 0.2024 0.7331   -0.206024
 C 0.869 0.0788 0.855   0.657189
 C 0.539 0.2565 0.9137   0.633675
 C 0.717 0.3212 0.5576   0.310601
 C 0.5991 0.2766 0.5625   -0.270889
 C 0.556 0.2642 0.498   0.011296
 C 0.6284 0.2943 0.4308   -0.193127
 C 0.7449 0.3423 0.4283   0.017335
 C 0.7891 0.3566 0.4913   -0.263349
 C 0.5941 0.2686 0.3612   0.642971
 C 0.1325 0.2056 0.0016   0.184574
 C 0.1363 0.3256 0.000399999999999   -0.182846
 C 0.0012 0.4344 0.000700000000002   0.085367
 C 0.865 0.4127 0.0031   -0.18342
 C 0.8705 0.2903 0.0034   0.206696
 C 0.2596 0.0994 0.4346   0.16117
 C 0.166 0.0558 0.4887   -0.195077
 C 0.0521 0.0231 0.4718   0.09396
 C 0.0405 0.0371 0.399   -0.157397
 C 0.1392 0.0825 0.3476   0.172106
 C 0.6659 0.9411 0.3376   0.195929
 C 0.7873 0.8222 0.3395   -0.196859
 C 0.8186 0.746 0.2847   0.109121
 C 0.7173 0.7963 0.2319   -0.176756
 C 0.5963 0.9142 0.2359   0.187455
 C 0.0026 0.5425 0.3464   -0.18351
 C 0.9517 0.6196 0.2827   0.106224
 C 0.0354 0.575 0.2189   -0.169
 C 0.1611 0.4572 0.22   0.17744
 C 0.1301 0.4271 0.3429   0.190506
 N 0.4296 0.0098 0.71345   -0.350191
 N 0.7913 0.6183 0.71942   -0.356109
 N 0.7534 0.884 0.63602   -0.335824
 N 0.9991 0.8138 0.99765   -0.391077
 N 0.5704 0.9902 0.28655   -0.350191
 N 0.2087 0.3817 0.28058   -0.356108
 N 0.2466 0.116 0.36398   -0.335824
 N 0.000900000000001 0.1862 0.00235   -0.391077
 O 0.155 0.9131 0.07906   -0.581279
 O 0.0135 0.004 0.17683   -0.616982
 O 0.5001 0.8373 0.0647   -0.538526
 O 0.4835 0.6537 0.05086   -0.546285
 O 0.2163 0.6742 0.38371   -0.28501
 O 0.5163 0.771 0.63463   -0.603393
 O 0.3214 0.7134 0.6961   -0.591196
 O 0.845 0.0869 0.92094   -0.581279
 O 0.9865 0.996 0.82317   -0.616984
 O 0.4999 0.1627 0.9353   -0.538531
 O 0.5165 0.3463 0.94914   -0.546287
 O 0.7837 0.3258 0.61629   -0.28501
 O 0.4837 0.229 0.36537   -0.603394
 O 0.6786 0.2866 0.3039   -0.591198
