{'_ref': 'TBD', '_srcid': 'CAKYAQ_clean', 'submitters': [{'name': 'Dalar Nazarian Jeff Camp and David Sholl', 'email': 'dalar@gatech.edu jcamp6@gatech.edu'}], '_method': 'VASP DFT with PBE;DDEC'}
data_LaP2H13C6(NO3)2
_symmetry_space_group_name_H-M   'P 1'
_cell_length_a   5.76300049
_cell_length_b   10.21299980
_cell_length_c   11.64900000
_cell_angle_alpha   84.24200266
_cell_angle_beta   89.05100218
_cell_angle_gamma   82.87599956
_symmetry_Int_Tables_number   1
_chemical_formula_structural   LaP2H13C6(NO3)2
_chemical_formula_sum   'La2 P4 H26 C12 N4 O12'
_cell_volume   676.899737255
_cell_formula_units_Z   2
loop_
 _symmetry_equiv_pos_site_id
 _symmetry_equiv_pos_as_xyz
  1  'x, y, z'
loop_
 _atom_site_label
 _atom_site_fract_x
 _atom_site_fract_y
 _atom_site_fract_z
 _atom_site_charge
 La 0.21771 0.14523 0.47195   2.246468
 La 0.78229 0.85477 0.52805   2.246468
 P 0.7208 0.17009 0.66127   1.544475
 P 0.6702 0.16013 0.30946   1.512349
 P 0.2792 0.82991 0.33873   1.544475
 P 0.3298 0.83987 0.69054   1.512349
 H 0.5115 0.9828 0.1597   0.250521
 H 0.0233 0.2722 0.7276   0.139687
 H 0.7944 0.3722 0.7181   0.141151
 H 0.6792 0.39 0.479   0.077812
 H 0.6949 0.5103 0.5511   0.059982
 H 0.0467 0.5305 0.6533   0.068665
 H 0.2671 0.4244 0.6464   0.089811
 H 0.9052 0.0323 0.1902   0.175024
 H 0.8145 0.1685 0.1231   0.165267
 H 0.8256 0.9843 0.9794   0.094158
 H 0.8282 0.8689 0.0792   0.128633
 H 0.3514 0.1901 0.0855   0.14036
 H 0.5327 0.1834 0.9835   0.119062
 H 0.4885 0.0172 0.8403   0.250521
 H 0.9767 0.7278 0.2724   0.139684
 H 0.2056 0.6278 0.2819   0.141153
 H 0.3208 0.61 0.521   0.077812
 H 0.3051 0.4897 0.4489   0.059983
 H 0.9533 0.4695 0.3467   0.068666
 H 0.7329 0.5756 0.3536   0.089811
 H 0.0948 0.9677 0.8098   0.175023
 H 0.1855 0.8315 0.8769   0.165267
 H 0.1744 0.0157 0.0206   0.094154
 H 0.1718 0.1311 0.9208   0.128627
 H 0.6486 0.8099 0.9145   0.140364
 H 0.4673 0.8166 0.0165   0.119063
 C 0.8908 0.3061 0.6783   -0.435336
 C 0.7832 0.4502 0.5024   0.012731
 C 0.1334 0.4708 0.6037   0.006749
 C 0.7668 0.0955 0.1741   -0.495903
 C 0.7275 0.9361 0.0325   -0.102867
 C 0.4403 0.131 0.0362   -0.102275
 C 0.1092 0.6939 0.3217   -0.435336
 C 0.2168 0.5498 0.4976   0.012732
 C 0.8666 0.5292 0.3963   0.006751
 C 0.2332 0.9045 0.8259   -0.495903
 C 0.2725 0.0639 0.9675   -0.102872
 C 0.5597 0.869 0.9638   -0.102283
 N 0.9797 0.3725 0.57   -0.342897
 N 0.5993 0.029 0.1085   0.154921
 N 0.0203 0.6275 0.43   -0.342897
 N 0.4007 0.971 0.8915   0.154921
 O 0.4959 0.2225 0.5971   -0.92492
 O 0.8837 0.0729 0.5933   -1.018037
 O 0.686 0.1097 0.7851   -0.890247
 O 0.8871 0.2186 0.3424   -0.89806
 O 0.4447 0.2578 0.2984   -0.908619
 O 0.6074 0.0418 0.3917   -1.008659
 O 0.5041 0.7775 0.4029   -0.92492
 O 0.1163 0.9271 0.4067   -1.018037
 O 0.314 0.8903 0.2149   -0.890247
 O 0.1129 0.7814 0.6576   -0.89806
 O 0.5553 0.7422 0.7016   -0.908619
 O 0.3926 0.9582 0.6083   -1.008659
