{'_ref': 'TBD', '_srcid': 'CAKYAQ_clean', 'submitters': [{'name': 'Dalar Nazarian Jeff Camp and David Sholl', 'email': 'dalar@gatech.edu jcamp6@gatech.edu'}], '_method': 'VASP DFT with PBE;DDEC'}
data_Cu2H6C4IN3
_symmetry_space_group_name_H-M   'P 1'
_cell_length_a   15.41909992
_cell_length_b   15.41909971
_cell_length_c   15.41905835
_cell_angle_alpha   106.00638411
_cell_angle_beta   111.23079579
_cell_angle_gamma   111.23100206
_symmetry_Int_Tables_number   1
_chemical_formula_structural   Cu2H6C4IN3
_chemical_formula_sum   'Cu16 H48 C32 I8 N24'
_cell_volume   2814.30272759
_cell_formula_units_Z   8
loop_
 _symmetry_equiv_pos_site_id
 _symmetry_equiv_pos_as_xyz
  1  'x, y, z'
loop_
 _atom_site_label
 _atom_site_fract_x
 _atom_site_fract_y
 _atom_site_fract_z
 _atom_site_charge
 Cu 0.66109 0.91549 0.10854   0.13015
 Cu 0.3235 0.02908 0.09752   0.296299
 Cu 0.83891 0.94745 0.2544   0.130152
 Cu 0.1765 0.27402 0.70558   0.296316
 Cu 0.19305 0.10854 0.94745   0.130148
 Cu 0.06844 0.09752 0.27402   0.296276
 Cu 0.30695 0.2544 0.91549   0.130152
 Cu 0.43156 0.70558 0.02908   0.296282
 Cu 0.33891 0.08451 0.89146   0.13015
 Cu 0.6765 0.97092 0.90248   0.296299
 Cu 0.16109 0.05255 0.7456   0.130152
 Cu 0.8235 0.72598 0.29442   0.296316
 Cu 0.80695 0.89146 0.05255   0.130148
 Cu 0.93156 0.90248 0.72598   0.296276
 Cu 0.69305 0.7456 0.08451   0.130152
 Cu 0.56844 0.29442 0.97092   0.296282
 H 0.2443 0.7159 0.0118   0.132653
 H 0.2029 0.7798 0.9591   0.137204
 H 0.2354 0.8088 0.0786   0.144553
 H 0.6659 0.1318 0.2033   0.1417
 H 0.5774 0.1622 0.2046   0.138389
 H 0.5878 0.1335 0.1023   0.139934
 H 0.2557 0.2675 0.4716   0.132652
 H 0.2971 0.2562 0.5769   0.137212
 H 0.2646 0.3432 0.5734   0.144542
 H 0.8341 0.0374 0.4659   0.1417
 H 0.9226 0.1272 0.5848   0.13839
 H 0.9122 0.0145 0.5457   0.139929
 H 0.2959 0.0118 0.2675   0.132658
 H 0.1793 0.9591 0.2562   0.137217
 H 0.2698 0.0786 0.3432   0.144531
 H 0.0715 0.2033 0.0374   0.141705
 H 0.0424 0.2046 0.1272   0.138402
 H 0.9688 0.1023 0.0145   0.139946
 H 0.2041 0.4716 0.7159   0.132654
 H 0.3207 0.5769 0.7798   0.137205
 H 0.2302 0.5734 0.8088   0.144538
 H 0.4285 0.4659 0.1318   0.141701
 H 0.4576 0.5848 0.1622   0.138401
 H 0.5312 0.5457 0.1335   0.139938
 H 0.7557 0.2841 0.9882   0.132652
 H 0.7971 0.2202 0.0409   0.137205
 H 0.7646 0.1912 0.9214   0.144553
 H 0.3341 0.8682 0.7967   0.1417
 H 0.4226 0.8378 0.7954   0.138389
 H 0.4122 0.8665 0.8977   0.139934
 H 0.7443 0.7325 0.5284   0.132652
 H 0.7029 0.7438 0.4231   0.137212
 H 0.7354 0.6568 0.4266   0.144542
 H 0.1659 0.9626 0.5341   0.1417
 H 0.0774 0.8728 0.4152   0.138391
 H 0.0878 0.9855 0.4543   0.139929
 H 0.7041 0.9882 0.7325   0.132658
 H 0.8207 0.0409 0.7438   0.137218
 H 0.7302 0.9214 0.6568   0.144531
 H 0.9285 0.7967 0.9626   0.141705
 H 0.9576 0.7954 0.8728   0.138403
 H 0.0312 0.8977 0.9855   0.139946
 H 0.7959 0.5284 0.2841   0.132654
 H 0.6793 0.4231 0.2202   0.137205
 H 0.7698 0.4266 0.1912   0.144538
 H 0.5715 0.5341 0.8682   0.141701
 H 0.5424 0.4152 0.8378   0.138402
 H 0.4688 0.4543 0.8665   0.139938
 C 0.5118 0.0048 0.118   0.419167
 C 0.3677 0.863 0.0613   0.40741
 C 0.2526 0.7851 0.0245   -0.424195
 C 0.5927 0.1178 0.1607   -0.433078
 C 0.9882 0.1062 0.493   0.419184
 C 0.1323 0.1936 0.4953   0.407424
 C 0.2474 0.2719 0.5325   -0.424217
 C 0.9073 0.068 0.5251   -0.433088
 C 0.1132 0.118 0.1062   0.419176
 C 0.1983 0.0613 0.1936   0.407409
 C 0.2394 0.0245 0.2719   -0.424193
 C 0.0429 0.1607 0.068   -0.433097
 C 0.3868 0.493 0.0048   0.419185
 C 0.3017 0.4953 0.863   0.407412
 C 0.2606 0.5325 0.7851   -0.424201
 C 0.4571 0.5251 0.1178   -0.433107
 C 0.4882 0.9952 0.882   0.419167
 C 0.6323 0.137 0.9387   0.40741
 C 0.7474 0.2149 0.9755   -0.424195
 C 0.4073 0.8822 0.8393   -0.433078
 C 0.0118 0.8938 0.507   0.419184
 C 0.8677 0.8064 0.5047   0.407424
 C 0.7526 0.7281 0.4675   -0.424217
 C 0.0927 0.932 0.4749   -0.433088
 C 0.8868 0.882 0.8938   0.419176
 C 0.8017 0.9387 0.8064   0.407409
 C 0.7606 0.9755 0.7281   -0.424193
 C 0.9571 0.8393 0.932   -0.433097
 C 0.6132 0.507 0.9952   0.419185
 C 0.6983 0.5047 0.137   0.407412
 C 0.7394 0.4675 0.2149   -0.424201
 C 0.5429 0.4749 0.8822   -0.433107
 I 0.6652 0.82474 0.24564   -0.26593
 I 0.8348 0.08044 0.15954   -0.265933
 I 0.4209 0.24564 0.08044   -0.265964
 I 0.0791 0.15954 0.82474   -0.265934
 I 0.3348 0.17526 0.75436   -0.26593
 I 0.1652 0.91956 0.84046   -0.265933
 I 0.5791 0.75436 0.91956   -0.265964
 I 0.9209 0.84046 0.17526   -0.265934
 N 0.5352 0.9285 0.1009   -0.200328
 N 0.4077 0.9666 0.0935   -0.475424
 N 0.4415 0.8368 0.0633   -0.288454
 N 0.9648 0.0657 0.3933   -0.200341
 N 0.0923 0.1858 0.5589   -0.475459
 N 0.0585 0.1218 0.3953   -0.28847
 N 0.1724 0.1009 0.0657   -0.200321
 N 0.1269 0.0935 0.1858   -0.475451
 N 0.2265 0.0633 0.1218   -0.28846
 N 0.3276 0.3933 0.9285   -0.200327
 N 0.3731 0.5589 0.9666   -0.475462
 N 0.2735 0.3953 0.8368   -0.288462
 N 0.4648 0.0715 0.8991   -0.200328
 N 0.5923 0.0334 0.9065   -0.475424
 N 0.5585 0.1632 0.9367   -0.288454
 N 0.0352 0.9343 0.6067   -0.200341
 N 0.9077 0.8142 0.4411   -0.475459
 N 0.9415 0.8782 0.6047   -0.28847
 N 0.8276 0.8991 0.9343   -0.200321
 N 0.8731 0.9065 0.8142   -0.475451
 N 0.7735 0.9367 0.8782   -0.28846
 N 0.6724 0.6067 0.0715   -0.200327
 N 0.6269 0.4411 0.0334   -0.475462
 N 0.7265 0.6047 0.1632   -0.288462
