{'_ref': 'TBD', '_srcid': 'CAKYAQ_clean', 'submitters': [{'name': 'Dalar Nazarian Jeff Camp and David Sholl', 'email': 'dalar@gatech.edu jcamp6@gatech.edu'}], '_method': 'VASP DFT with PBE;DDEC'}
data_Al3P3O13
_symmetry_space_group_name_H-M   'P 1'
_cell_length_a   8.66800000
_cell_length_b   9.18600004
_cell_length_c   17.55800000
_cell_angle_alpha   90.00000000
_cell_angle_beta   90.00000000
_cell_angle_gamma   107.74999697
_symmetry_Int_Tables_number   1
_chemical_formula_structural   Al3P3O13
_chemical_formula_sum   'Al12 P12 O52'
_cell_volume   1331.48987697
_cell_formula_units_Z   4
loop_
 _symmetry_equiv_pos_site_id
 _symmetry_equiv_pos_as_xyz
  1  'x, y, z'
loop_
 _atom_site_label
 _atom_site_fract_x
 _atom_site_fract_y
 _atom_site_fract_z
 _atom_site_charge
 Al 0.9167 0.715 0.7027   1.889823
 Al 0.8573 0.8449 0.8887   1.916586
 Al 0.4642 0.8196 0.6764   1.958268
 Al 0.5833 0.785 0.2027   1.889823
 Al 0.6427 0.6551 0.3887   1.916585
 Al 0.0358 0.6804 0.1764   1.958267
 Al 0.0833 0.285 0.2973   1.889823
 Al 0.1427 0.1551 0.1113   1.916585
 Al 0.5358 0.1804 0.3236   1.958267
 Al 0.4167 0.215 0.7973   1.889822
 Al 0.3573 0.3449 0.6113   1.916584
 Al 0.9642 0.3196 0.8236   1.958267
 P 0.6403 0.6525 0.5742   1.984982
 P 0.1836 0.5346 0.7056   2.024252
 P 0.7247 0.5104 0.8305   1.887099
 P 0.8597 0.8475 0.0742   1.984982
 P 0.3164 0.9654 0.2056   2.024252
 P 0.7753 0.9896 0.3305   1.887099
 P 0.3597 0.3475 0.4258   1.984982
 P 0.8164 0.4654 0.2944   2.024252
 P 0.2753 0.4896 0.1695   1.887099
 P 0.1403 0.1525 0.9258   1.984982
 P 0.6836 0.0346 0.7944   2.024252
 P 0.2247 0.0104 0.6695   1.887099
 O 0.9517 0.8192 0.7934   -0.768716
 O 0.7965 0.7066 0.6193   -0.867052
 O 0.7483 0.5617 0.7474   -0.883347
 O 0.0474 0.5994 0.6869   -0.955488
 O 0.5607 0.3908 0.8423   -0.785838
 O 0.5348 0.7541 0.5947   -0.980943
 O 0.1354 0.4239 0.7726   -0.992444
 O 0.8586 0.4413 0.8543   -0.948989
 O 0.3369 0.6657 0.7274   -0.978472
 O 0.7342 0.6445 0.8837   -0.832532
 O 0.5483 0.4886 0.5939   -0.89038
 O 0.684 0.6728 0.491   -0.827909
 O 0.2205 0.4496 0.6371   -0.948899
 O 0.5483 0.6808 0.2934   -0.768716
 O 0.7035 0.7934 0.1193   -0.867052
 O 0.7517 0.9383 0.2474   -0.883347
 O 0.4526 0.9006 0.1869   -0.955488
 O 0.9393 0.1092 0.3423   -0.785839
 O 0.9652 0.7459 0.0947   -0.980943
 O 0.3646 0.0761 0.2726   -0.992444
 O 0.6414 0.0587 0.3543   -0.948989
 O 0.1631 0.8343 0.2274   -0.978472
 O 0.7658 0.8555 0.3837   -0.832532
 O 0.9517 0.0114 0.0939   -0.890381
 O 0.816 0.8272 0.991   -0.82791
 O 0.2795 0.0504 0.1371   -0.948899
 O 0.0483 0.1808 0.2066   -0.768716
 O 0.2035 0.2934 0.3807   -0.867052
 O 0.2517 0.4383 0.2526   -0.883347
 O 0.9526 0.4006 0.3131   -0.955488
 O 0.4393 0.6092 0.1577   -0.785839
 O 0.4652 0.2459 0.4053   -0.980943
 O 0.8646 0.5761 0.2274   -0.992444
 O 0.1414 0.5587 0.1457   -0.948989
 O 0.6631 0.3343 0.2726   -0.978472
 O 0.2658 0.3555 0.1163   -0.832532
 O 0.4517 0.5114 0.4061   -0.89038
 O 0.316 0.3272 0.509   -0.827909
 O 0.7795 0.5504 0.3629   -0.948899
 O 0.4517 0.3192 0.7066   -0.768715
 O 0.2965 0.2066 0.8807   -0.867052
 O 0.2483 0.0617 0.7526   -0.883347
 O 0.5474 0.0994 0.8131   -0.955488
 O 0.0607 0.8908 0.6577   -0.785839
 O 0.0348 0.2541 0.9053   -0.980942
 O 0.6354 0.9239 0.7274   -0.992444
 O 0.3586 0.9413 0.6457   -0.948989
 O 0.8369 0.1657 0.7726   -0.978472
 O 0.2342 0.1445 0.6163   -0.832532
 O 0.0483 0.9886 0.9061   -0.890381
 O 0.184 0.1728 0.009   -0.827909
 O 0.7205 0.9496 0.8629   -0.9489
