{'_ref': 'TBD', '_srcid': 'CAKYAQ_clean', 'submitters': [{'name': 'Dalar Nazarian Jeff Camp and David Sholl', 'email': 'dalar@gatech.edu jcamp6@gatech.edu'}], '_method': 'VASP DFT with PBE;DDEC'}
data_MnH12(C3N)6
_symmetry_space_group_name_H-M   'P 1'
_cell_length_a   5.56550005
_cell_length_b   9.37019957
_cell_length_c   11.75430000
_cell_angle_alpha   94.32099830
_cell_angle_beta   96.73400044
_cell_angle_gamma   100.83700261
_symmetry_Int_Tables_number   1
_chemical_formula_structural   MnH12(C3N)6
_chemical_formula_sum   'Mn1 H12 C18 N6'
_cell_volume   594.911672703
_cell_formula_units_Z   1
loop_
 _symmetry_equiv_pos_site_id
 _symmetry_equiv_pos_as_xyz
  1  'x, y, z'
loop_
 _atom_site_label
 _atom_site_fract_x
 _atom_site_fract_y
 _atom_site_fract_z
 _atom_site_charge
 Mn 0.0 0.0 0.0   0.662886
 H 0.1806 0.3245 0.9132   0.111757
 H 0.345 0.5688 0.9099   0.117102
 H 0.2886 0.9129 0.7911   0.06365
 H 0.2806 0.8984 0.5961   0.121464
 H 0.7487 0.1157 0.7749   0.071373
 H 0.7314 0.1126 0.58   0.122207
 H 0.8194 0.6755 0.0868   0.111758
 H 0.655 0.4312 0.0901   0.117101
 H 0.7114 0.0871 0.2089   0.063649
 H 0.7194 0.1016 0.4039   0.121487
 H 0.2513 0.8843 0.2251   0.071372
 H 0.2686 0.8874 0.42   0.12223
 C 0.1073 0.3944 0.94825   -0.155459
 C 0.5727 0.1664 0.02026   0.534121
 C 0.2061 0.5417 0.94623   -0.192059
 C 0.0035 0.003 0.5632   0.080413
 C 0.899 0.3503 0.00237   0.226933
 C 0.1702 0.9521 0.7481   0.159805
 C 0.1685 0.9441 0.6299   -0.209037
 C 0.8585 0.0702 0.7389   0.157002
 C 0.8465 0.0688 0.6207   -0.212635
 C 0.8927 0.6056 0.05175   -0.155463
 C 0.4273 0.8336 0.97974   0.534119
 C 0.7939 0.4583 0.05377   -0.192043
 C 0.9965 0.997 0.4368   0.080573
 C 0.101 0.6497 0.99763   0.226947
 C 0.8298 0.0479 0.2519   0.159813
 C 0.8315 0.0559 0.3701   -0.209062
 C 0.1415 0.9298 0.2611   0.15701
 C 0.1535 0.9312 0.3793   -0.21266
 N 0.0147 0.0116 0.80387   -0.261633
 N 0.3676 0.13198 0.03802   -0.573775
 N 0.8004 0.198 0.00188   -0.492766
 N 0.9853 0.9884 0.19613   -0.261637
 N 0.6324 0.86802 0.96198   -0.573774
 N 0.1996 0.802 0.99812   -0.492767
