{'_ref': 'TBD', '_srcid': 'CAKYAQ_clean', 'submitters': [{'name': 'Dalar Nazarian Jeff Camp and David Sholl', 'email': 'dalar@gatech.edu jcamp6@gatech.edu'}], '_method': 'VASP DFT with PBE;DDEC'}
data_Zn2H16C23I2(N3O2)2
_symmetry_space_group_name_H-M   'P 1'
_cell_length_a   7.66200000
_cell_length_b   9.90560042
_cell_length_c   36.85700000
_cell_angle_alpha   96.24499728
_cell_angle_beta   90.00000000
_cell_angle_gamma   90.00000000
_symmetry_Int_Tables_number   1
_chemical_formula_structural   Zn2H16C23I2(N3O2)2
_chemical_formula_sum   'Zn8 H64 C92 I8 N24 O16'
_cell_volume   2780.7252808
_cell_formula_units_Z   4
loop_
 _symmetry_equiv_pos_site_id
 _symmetry_equiv_pos_as_xyz
  1  'x, y, z'
loop_
 _atom_site_label
 _atom_site_fract_x
 _atom_site_fract_y
 _atom_site_fract_z
 _atom_site_charge
 Zn 0.45754 0.16822 0.02738   0.798771
 Zn 0.66216 0.72786 0.33186   0.745695
 Zn 0.95754 0.83178 0.47262   0.798771
 Zn 0.16216 0.27214 0.16814   0.745695
 Zn 0.54246 0.83178 0.97262   0.798771
 Zn 0.33784 0.27214 0.66814   0.745695
 Zn 0.04246 0.16822 0.52738   0.798771
 Zn 0.83784 0.72786 0.83186   0.745695
 H 0.7972 0.7257 0.0922   0.135604
 H 0.7012 0.8779 0.196   0.136529
 H 0.5814 0.489 0.162   0.128773
 H 0.9125 0.5095 0.0659   0.132185
 H 0.8198 0.3083 0.0261   0.096719
 H 0.4619 0.3781 0.1023   0.093871
 H 0.3638 0.534 0.2157   0.133372
 H 0.3692 0.5539 0.2823   0.102355
 H 0.7504 0.7743 0.2518   0.078789
 H 0.7876 0.9688 0.0822   0.138346
 H 0.9669 0.1726 0.092   0.104106
 H 0.953 0.0103 0.1843   0.103619
 H 0.7214 0.5049 0.4274   0.08246
 H 0.8034 0.3549 0.467   0.090782
 H 0.8149 0.0567 0.3846   0.083429
 H 0.7211 0.2049 0.345   0.090601
 H 0.2972 0.2743 0.4078   0.135604
 H 0.2012 0.1221 0.304   0.136529
 H 0.0814 0.511 0.338   0.128773
 H 0.4125 0.4905 0.4341   0.132185
 H 0.3198 0.6917 0.4739   0.096719
 H 0.9619 0.6219 0.3977   0.093871
 H 0.8638 0.466 0.2843   0.133372
 H 0.8692 0.4461 0.2177   0.102355
 H 0.2504 0.2257 0.2482   0.078789
 H 0.2876 0.0312 0.4178   0.138346
 H 0.4669 0.8274 0.408   0.104106
 H 0.453 0.9897 0.3157   0.103619
 H 0.2214 0.4951 0.0726   0.08246
 H 0.3034 0.6451 0.033   0.090782
 H 0.3149 0.9433 0.1154   0.083429
 H 0.2211 0.7951 0.155   0.090602
 H 0.2028 0.2743 0.9078   0.135604
 H 0.2988 0.1221 0.804   0.136529
 H 0.4186 0.511 0.838   0.128773
 H 0.0875 0.4905 0.9341   0.132185
 H 0.1802 0.6917 0.9739   0.096719
 H 0.5381 0.6219 0.8977   0.093871
 H 0.6362 0.466 0.7843   0.133372
 H 0.6308 0.4461 0.7177   0.102355
 H 0.2496 0.2257 0.7482   0.078789
 H 0.2124 0.0312 0.9178   0.138346
 H 0.0331 0.8274 0.908   0.104106
 H 0.047 0.9897 0.8157   0.103619
 H 0.2786 0.4951 0.5726   0.08246
 H 0.1966 0.6451 0.533   0.090782
 H 0.1851 0.9433 0.6154   0.083429
 H 0.2789 0.7951 0.655   0.090601
 H 0.7028 0.7257 0.5922   0.135604
 H 0.7988 0.8779 0.696   0.136529
 H 0.9186 0.489 0.662   0.128773
 H 0.5875 0.5095 0.5659   0.132185
 H 0.6802 0.3083 0.5261   0.096719
 H 0.0381 0.3781 0.6023   0.093871
 H 0.1362 0.534 0.7157   0.133372
 H 0.1308 0.5539 0.7823   0.102355
 H 0.7496 0.7743 0.7518   0.078789
 H 0.7124 0.9688 0.5822   0.138346
 H 0.5331 0.1726 0.592   0.104106
 H 0.547 0.0103 0.6843   0.103619
 H 0.7786 0.5049 0.9274   0.08246
 H 0.6966 0.3549 0.967   0.090782
 H 0.6851 0.0567 0.8846   0.083429
 H 0.7789 0.2049 0.845   0.090602
 C 0.6859 0.5913 0.12335   0.193242
 C 0.7558 0.7145 0.11542   -0.215741
 C 0.7613 0.8192 0.14323   0.190923
 C 0.6982 0.8055 0.17769   -0.255218
 C 0.6307 0.6813 0.18422   0.189113
 C 0.6253 0.5727 0.15719   -0.2178
 C 0.812 0.4586 0.06832   -0.130761
 C 0.7591 0.3477 0.04644   0.048027
 C 0.5618 0.3851 0.08829   0.155545
 C 0.4416 0.5849 0.23099   -0.115953
 C 0.446 0.5964 0.26766   0.042774
 C 0.6541 0.717 0.25133   0.150767
 C 0.8428 0.0021 0.1038   -0.103951
 C 0.9413 0.1146 0.10956   0.05983
 C 0.9345 0.0262 0.1602   0.142153
 C 0.7118 0.3712 0.38175   -0.129759
 C 0.7379 0.414 0.41884   -0.079411
 C 0.787 0.3248 0.44245   -0.027859
 C 0.8125 0.1893 0.43006   -0.142374
 C 0.7922 0.1467 0.39325   -0.039665
 C 0.739 0.2356 0.36946   -0.075487
 C 0.6594 0.4698 0.35575   0.64161
 C 0.8695 0.0907 0.45538   0.673016
 C 0.1859 0.4087 0.37665   0.193242
 C 0.2558 0.2855 0.38458   -0.215741
 C 0.2613 0.1808 0.35677   0.190923
 C 0.1982 0.1945 0.32231   -0.255218
 C 0.1307 0.3187 0.31578   0.189113
 C 0.1253 0.4273 0.34281   -0.2178
 C 0.312 0.5414 0.43168   -0.130761
 C 0.2591 0.6523 0.45356   0.048027
 C 0.0618 0.6149 0.41171   0.155545
 C 0.9416 0.4151 0.26901   -0.115953
 C 0.946 0.4036 0.23234   0.042774
 C 0.1541 0.283 0.24867   0.150767
 C 0.3428 0.9979 0.3962   -0.103951
 C 0.4413 0.8854 0.39044   0.05983
 C 0.4345 0.9738 0.3398   0.142152
 C 0.2118 0.6288 0.11825   -0.12976
 C 0.2379 0.586 0.08116   -0.079411
 C 0.287 0.6752 0.05755   -0.027858
 C 0.3125 0.8107 0.06994   -0.142374
 C 0.2922 0.8533 0.10675   -0.039665
 C 0.239 0.7644 0.13054   -0.075487
 C 0.1594 0.5302 0.14425   0.64161
 C 0.3695 0.9093 0.04462   0.673016
 C 0.3141 0.4087 0.87665   0.193242
 C 0.2442 0.2855 0.88458   -0.215741
 C 0.2387 0.1808 0.85677   0.190923
 C 0.3018 0.1945 0.82231   -0.255218
 C 0.3693 0.3187 0.81578   0.189113
 C 0.3747 0.4273 0.84281   -0.2178
 C 0.188 0.5414 0.93168   -0.130761
 C 0.2409 0.6523 0.95356   0.048027
 C 0.4382 0.6149 0.91171   0.155545
 C 0.5584 0.4151 0.76901   -0.115953
 C 0.554 0.4036 0.73234   0.042774
 C 0.3459 0.283 0.74867   0.150767
 C 0.1572 0.9979 0.8962   -0.103951
 C 0.0587 0.8854 0.89044   0.05983
 C 0.0655 0.9738 0.8398   0.142153
 C 0.2882 0.6288 0.61825   -0.129759
 C 0.2621 0.586 0.58116   -0.079411
 C 0.213 0.6752 0.55755   -0.027859
 C 0.1875 0.8107 0.56994   -0.142374
 C 0.2078 0.8533 0.60675   -0.039665
 C 0.261 0.7644 0.63054   -0.075487
 C 0.3406 0.5302 0.64425   0.64161
 C 0.1305 0.9093 0.54462   0.673016
 C 0.8141 0.5913 0.62335   0.193242
 C 0.7442 0.7145 0.61542   -0.215741
 C 0.7387 0.8192 0.64323   0.190923
 C 0.8018 0.8055 0.67769   -0.255218
 C 0.8693 0.6813 0.68422   0.189113
 C 0.8747 0.5727 0.65719   -0.2178
 C 0.688 0.4586 0.56832   -0.130761
 C 0.7409 0.3477 0.54644   0.048027
 C 0.9382 0.3851 0.58829   0.155545
 C 0.0584 0.5849 0.73099   -0.115953
 C 0.054 0.5964 0.76766   0.042774
 C 0.8459 0.717 0.75133   0.150767
 C 0.6572 0.0021 0.6038   -0.103951
 C 0.5587 0.1146 0.60956   0.05983
 C 0.5655 0.0262 0.6602   0.142152
 C 0.7882 0.3712 0.88175   -0.12976
 C 0.7621 0.414 0.91884   -0.079411
 C 0.713 0.3248 0.94245   -0.027858
 C 0.6875 0.1893 0.93006   -0.142374
 C 0.7078 0.1467 0.89325   -0.039665
 C 0.761 0.2356 0.86946   -0.075487
 C 0.8406 0.4698 0.85575   0.64161
 C 0.6305 0.0907 0.95538   0.673016
 I 0.19335 0.2589 0.99723   -0.452688
 I 0.97949 0.81627 0.32507   -0.526997
 I 0.69335 0.7411 0.50277   -0.452688
 I 0.47949 0.18373 0.17493   -0.526997
 I 0.80665 0.7411 0.00277   -0.452686
 I 0.02051 0.18373 0.67493   -0.526997
 I 0.30665 0.2589 0.49723   -0.452686
 I 0.52051 0.81627 0.82507   -0.526997
 N 0.6034 0.3018 0.05848   -0.344295
 N 0.6864 0.4805 0.09493   0.033123
 N 0.5803 0.6798 0.2802   -0.344205
 N 0.5751 0.6634 0.22091   0.039932
 N 0.999 0.1317 0.14522   -0.356165
 N 0.8404 0.9464 0.13643   0.038224
 N 0.1034 0.6982 0.44152   -0.344295
 N 0.1864 0.5195 0.40507   0.033123
 N 0.0803 0.3202 0.2198   -0.344205
 N 0.0751 0.3366 0.27909   0.039932
 N 0.499 0.8683 0.35478   -0.356165
 N 0.3404 0.0536 0.36357   0.038224
 N 0.3966 0.6982 0.94152   -0.344295
 N 0.3136 0.5195 0.90507   0.033123
 N 0.4197 0.3202 0.7198   -0.344205
 N 0.4249 0.3366 0.77909   0.039932
 N 0.000999999999998 0.8683 0.85478   -0.356165
 N 0.1596 0.0536 0.86357   0.038224
 N 0.8966 0.3018 0.55848   -0.344295
 N 0.8136 0.4805 0.59493   0.033123
 N 0.9197 0.6798 0.7802   -0.344205
 N 0.9249 0.6634 0.72091   0.039932
 N 0.501 0.1317 0.64522   -0.356165
 N 0.6596 0.9464 0.63643   0.038224
 O 0.6774 0.5963 0.3672   -0.583105
 O 0.6112 0.4291 0.32505   -0.587211
 O 0.864 0.1243 0.48908   -0.591469
 O 0.9173 0.9737 0.44156   -0.55417
 O 0.1774 0.4037 0.1328   -0.583105
 O 0.1112 0.5709 0.17495   -0.587211
 O 0.364 0.8757 0.01092   -0.591469
 O 0.4173 0.0263 0.05844   -0.55417
 O 0.3226 0.4037 0.6328   -0.583105
 O 0.3888 0.5709 0.67495   -0.587211
 O 0.136 0.8757 0.51092   -0.591469
 O 0.0827 0.0263 0.55844   -0.55417
 O 0.8226 0.5963 0.8672   -0.583105
 O 0.8888 0.4291 0.82505   -0.587211
 O 0.636 0.1243 0.98908   -0.591469
 O 0.5827 0.9737 0.94156   -0.55417
