{'_ref': 'TBD', '_srcid': 'CAKYAQ_clean', 'submitters': [{'name': 'Dalar Nazarian Jeff Camp and David Sholl', 'email': 'dalar@gatech.edu jcamp6@gatech.edu'}], '_method': 'VASP DFT with PBE;DDEC'}
data_Cu2H24(C11O4)3
_symmetry_space_group_name_H-M   'P 1'
_cell_length_a   10.67530000
_cell_length_b   17.84400000
_cell_length_c   27.35300000
_cell_angle_alpha   90.00000000
_cell_angle_beta   90.00000000
_cell_angle_gamma   90.00000000
_symmetry_Int_Tables_number   1
_chemical_formula_structural   Cu2H24(C11O4)3
_chemical_formula_sum   'Cu8 H96 C132 O48'
_cell_volume   5210.47442518
_cell_formula_units_Z   4
loop_
 _symmetry_equiv_pos_site_id
 _symmetry_equiv_pos_as_xyz
  1  'x, y, z'
loop_
 _atom_site_label
 _atom_site_fract_x
 _atom_site_fract_y
 _atom_site_fract_z
 _atom_site_charge
 Cu 0.43887 0.93979 0.51322   0.884411
 Cu 0.43887 0.06021 0.98678   0.884411
 Cu 0.06113 0.43979 0.98678   0.884412
 Cu 0.06113 0.56021 0.51322   0.884412
 Cu 0.56113 0.06021 0.48678   0.884412
 Cu 0.56113 0.93979 0.01322   0.884412
 Cu 0.93887 0.56021 0.01322   0.884413
 Cu 0.93887 0.43979 0.48678   0.884413
 H 0.2594 0.1801 0.4245   0.089226
 H 0.0795 0.2368 0.3938   0.130291
 H 0.8853 0.0519 0.4272   0.140876
 H 0.0643 0.9994 0.4621   0.097953
 H 0.9388 0.2357 0.3362   0.064596
 H 0.8776 0.2833 0.3781   0.073827
 H 0.8065 0.1703 0.2766   0.071247
 H 0.7123 0.1379 0.3157   0.072796
 H 0.4835 0.2291 0.1966   0.13593
 H 0.4644 0.1797 0.1202   0.105588
 H 0.6872 0.0102 0.1592   0.092004
 H 0.7313 0.0698 0.2317   0.127578
 H 0.2594 0.8199 0.0755   0.089226
 H 0.0795 0.7632 0.1062   0.130291
 H 0.8853 0.9481 0.0728   0.140876
 H 0.0643 0.000599999999999 0.0379   0.097953
 H 0.9388 0.7643 0.1638   0.064596
 H 0.8776 0.7167 0.1219   0.073827
 H 0.8065 0.8297 0.2234   0.071247
 H 0.7123 0.8621 0.1843   0.072795
 H 0.4835 0.7709 0.3034   0.13593
 H 0.4644 0.8203 0.3798   0.105589
 H 0.6872 0.9898 0.3408   0.092003
 H 0.7313 0.9302 0.2683   0.127578
 H 0.2406 0.6801 0.0755   0.089226
 H 0.4205 0.7368 0.1062   0.130292
 H 0.6147 0.5519 0.0728   0.140876
 H 0.4357 0.4994 0.0379   0.097954
 H 0.5612 0.7357 0.1638   0.064596
 H 0.6224 0.7833 0.1219   0.073826
 H 0.6935 0.6703 0.2234   0.071247
 H 0.7877 0.6379 0.1843   0.072796
 H 0.0165 0.7291 0.3034   0.135929
 H 0.0356 0.6797 0.3798   0.105589
 H 0.8128 0.5102 0.3408   0.092004
 H 0.7687 0.5698 0.2683   0.127578
 H 0.2406 0.3199 0.4245   0.089226
 H 0.4205 0.2632 0.3938   0.130292
 H 0.6147 0.4481 0.4272   0.140876
 H 0.4357 0.5006 0.4621   0.097954
 H 0.5612 0.2643 0.3362   0.064596
 H 0.6224 0.2167 0.3781   0.073826
 H 0.6935 0.3297 0.2766   0.071247
 H 0.7877 0.3621 0.3157   0.072795
 H 0.0165 0.2709 0.1966   0.135929
 H 0.0356 0.3203 0.1202   0.105589
 H 0.8128 0.4898 0.1592   0.092003
 H 0.7687 0.4302 0.2317   0.127578
 H 0.7406 0.8199 0.5755   0.089226
 H 0.9205 0.7632 0.6062   0.130291
 H 0.1147 0.9481 0.5728   0.140876
 H 0.9357 0.000599999999999 0.5379   0.097953
 H 0.0612 0.7643 0.6638   0.064596
 H 0.1224 0.7167 0.6219   0.073827
 H 0.1935 0.8297 0.7234   0.071247
 H 0.2877 0.8621 0.6843   0.072796
 H 0.5165 0.7709 0.8034   0.13593
 H 0.5356 0.8203 0.8798   0.105588
 H 0.3128 0.9898 0.8408   0.092004
 H 0.2687 0.9302 0.7683   0.127578
 H 0.7406 0.1801 0.9245   0.089226
 H 0.9205 0.2368 0.8938   0.130291
 H 0.1147 0.0519 0.9272   0.140876
 H 0.9357 0.9994 0.9621   0.097953
 H 0.0612 0.2357 0.8362   0.064596
 H 0.1224 0.2833 0.8781   0.073827
 H 0.1935 0.1703 0.7766   0.071247
 H 0.2877 0.1379 0.8157   0.072795
 H 0.5165 0.2291 0.6966   0.13593
 H 0.5356 0.1797 0.6202   0.105589
 H 0.3128 0.0102 0.6592   0.092003
 H 0.2687 0.0698 0.7317   0.127578
 H 0.7594 0.3199 0.9245   0.089226
 H 0.5795 0.2632 0.8938   0.130292
 H 0.3853 0.4481 0.9272   0.140876
 H 0.5643 0.5006 0.9621   0.097954
 H 0.4388 0.2643 0.8362   0.064596
 H 0.3776 0.2167 0.8781   0.073826
 H 0.3065 0.3297 0.7766   0.071247
 H 0.2123 0.3621 0.8157   0.072796
 H 0.9835 0.2709 0.6966   0.135929
 H 0.9644 0.3203 0.6202   0.105589
 H 0.1872 0.4898 0.6592   0.092004
 H 0.2313 0.4302 0.7317   0.127578
 H 0.7594 0.6801 0.5755   0.089226
 H 0.5795 0.7368 0.6062   0.130292
 H 0.3853 0.5519 0.5728   0.140876
 H 0.5643 0.4994 0.5379   0.097954
 H 0.4388 0.7357 0.6638   0.064596
 H 0.3776 0.7833 0.6219   0.073826
 H 0.3065 0.6703 0.7234   0.071247
 H 0.2123 0.6379 0.6843   0.072795
 H 0.9835 0.7291 0.8034   0.135929
 H 0.9644 0.6797 0.8798   0.105589
 H 0.1872 0.5102 0.8408   0.092003
 H 0.2313 0.5698 0.7683   0.127578
 C 0.2983 0.05275 0.4676   0.695241
 C 0.181 0.08596 0.44655   -0.191291
 C 0.1837 0.15446 0.42591   0.029636
 C 0.0762 0.18847 0.4064   -0.294756
 C 0.9639 0.14794 0.40634   0.307819
 C 0.9602 0.0785 0.4269   -0.248641
 C 0.0681 0.04653 0.4477   0.012207
 C 0.8662 0.23985 0.35729   0.075806
 C 0.7315 0.18099 0.29539   0.071824
 C 0.6164 0.15903 0.21988   0.304703
 C 0.531 0.18754 0.18783   -0.243814
 C 0.5147 0.15584 0.14323   0.02295
 C 0.5706 0.08992 0.13166   -0.192155
 C 0.6509 0.05635 0.16609   0.021208
 C 0.6758 0.09104 0.20945   -0.276797
 C 0.5476 0.05385 0.08293   0.68769
 C 0.2983 0.94725 0.0324   0.695241
 C 0.181 0.91404 0.05345   -0.191291
 C 0.1837 0.84554 0.07409   0.029636
 C 0.0762 0.81153 0.0936   -0.294756
 C 0.9639 0.85206 0.09366   0.307819
 C 0.9602 0.9215 0.0731   -0.248641
 C 0.0681 0.95347 0.0523   0.012207
 C 0.8662 0.76015 0.14271   0.075806
 C 0.7315 0.81901 0.20461   0.071824
 C 0.6164 0.84097 0.28012   0.304703
 C 0.531 0.81246 0.31217   -0.243814
 C 0.5147 0.84416 0.35677   0.02295
 C 0.5706 0.91008 0.36834   -0.192155
 C 0.6509 0.94365 0.33391   0.021208
 C 0.6758 0.90896 0.29055   -0.276798
 C 0.5476 0.94615 0.41707   0.687689
 C 0.2017 0.55275 0.0324   0.695241
 C 0.319 0.58596 0.05345   -0.191291
 C 0.3163 0.65446 0.07409   0.029636
 C 0.4238 0.68847 0.0936   -0.294756
 C 0.5361 0.64794 0.09366   0.307819
 C 0.5398 0.5785 0.0731   -0.248641
 C 0.4319 0.54653 0.0523   0.012207
 C 0.6338 0.73985 0.14271   0.075806
 C 0.7685 0.68099 0.20461   0.071824
 C 0.8836 0.65903 0.28012   0.304703
 C 0.969 0.68754 0.31217   -0.243814
 C 0.9853 0.65584 0.35677   0.02295
 C 0.9294 0.58992 0.36834   -0.192154
 C 0.8491 0.55635 0.33391   0.021208
 C 0.8242 0.59104 0.29055   -0.276797
 C 0.9524 0.55385 0.41707   0.68769
 C 0.2017 0.44725 0.4676   0.695241
 C 0.319 0.41404 0.44655   -0.191291
 C 0.3163 0.34554 0.42591   0.029636
 C 0.4238 0.31153 0.4064   -0.294756
 C 0.5361 0.35206 0.40634   0.307819
 C 0.5398 0.4215 0.4269   -0.248641
 C 0.4319 0.45347 0.4477   0.012206
 C 0.6338 0.26015 0.35729   0.075806
 C 0.7685 0.31901 0.29539   0.071825
 C 0.8836 0.34097 0.21988   0.304702
 C 0.969 0.31246 0.18783   -0.243814
 C 0.9853 0.34416 0.14323   0.02295
 C 0.9294 0.41008 0.13166   -0.192155
 C 0.8491 0.44365 0.16609   0.021208
 C 0.8242 0.40896 0.20945   -0.276798
 C 0.9524 0.44615 0.08293   0.687689
 C 0.7017 0.94725 0.5324   0.695241
 C 0.819 0.91404 0.55345   -0.191291
 C 0.8163 0.84554 0.57409   0.029636
 C 0.9238 0.81153 0.5936   -0.294756
 C 0.0361 0.85206 0.59366   0.307819
 C 0.0398 0.9215 0.5731   -0.248641
 C 0.9319 0.95347 0.5523   0.012207
 C 0.1338 0.76015 0.64271   0.075806
 C 0.2685 0.81901 0.70461   0.071824
 C 0.3836 0.84097 0.78012   0.304703
 C 0.469 0.81246 0.81217   -0.243814
 C 0.4853 0.84416 0.85677   0.02295
 C 0.4294 0.91008 0.86834   -0.192154
 C 0.3491 0.94365 0.83391   0.021208
 C 0.3242 0.90896 0.79055   -0.276797
 C 0.4524 0.94615 0.91707   0.687689
 C 0.7017 0.05275 0.9676   0.695241
 C 0.819 0.08596 0.94655   -0.191291
 C 0.8163 0.15446 0.92591   0.029636
 C 0.9238 0.18847 0.9064   -0.294756
 C 0.0361 0.14794 0.90634   0.307819
 C 0.0398 0.0785 0.9269   -0.248641
 C 0.9319 0.04653 0.9477   0.012207
 C 0.1338 0.23985 0.85729   0.075806
 C 0.2685 0.18099 0.79539   0.071824
 C 0.3836 0.15903 0.71988   0.304703
 C 0.469 0.18754 0.68783   -0.243814
 C 0.4853 0.15584 0.64323   0.02295
 C 0.4294 0.08992 0.63166   -0.192155
 C 0.3491 0.05635 0.66609   0.021208
 C 0.3242 0.09104 0.70945   -0.276798
 C 0.4524 0.05385 0.58293   0.687689
 C 0.7983 0.44725 0.9676   0.695241
 C 0.681 0.41404 0.94655   -0.191291
 C 0.6837 0.34554 0.92591   0.029636
 C 0.5762 0.31153 0.9064   -0.294756
 C 0.4639 0.35206 0.90634   0.307819
 C 0.4602 0.4215 0.9269   -0.248641
 C 0.5681 0.45347 0.9477   0.012207
 C 0.3662 0.26015 0.85729   0.075806
 C 0.2315 0.31901 0.79539   0.071824
 C 0.1164 0.34097 0.71988   0.304703
 C 0.031 0.31246 0.68783   -0.243814
 C 0.0147 0.34416 0.64323   0.02295
 C 0.0706 0.41008 0.63166   -0.192154
 C 0.1509 0.44365 0.66609   0.021208
 C 0.1758 0.40896 0.70945   -0.276797
 C 0.0476 0.44615 0.58293   0.687689
 C 0.7983 0.55275 0.5324   0.695241
 C 0.681 0.58596 0.55345   -0.191291
 C 0.6837 0.65446 0.57409   0.029636
 C 0.5762 0.68847 0.5936   -0.294756
 C 0.4639 0.64794 0.59366   0.307819
 C 0.4602 0.5785 0.5731   -0.248641
 C 0.5681 0.54653 0.5523   0.012206
 C 0.3662 0.73985 0.64271   0.075806
 C 0.2315 0.68099 0.70461   0.071825
 C 0.1164 0.65903 0.78012   0.304702
 C 0.031 0.68754 0.81217   -0.243814
 C 0.0147 0.65584 0.85677   0.02295
 C 0.0706 0.58992 0.86834   -0.192154
 C 0.1509 0.55635 0.83391   0.021208
 C 0.1758 0.59104 0.79055   -0.276798
 C 0.0476 0.55385 0.91707   0.687689
 C 0.75 0.25 0.32653   -0.044269
 C 0.75 0.75 0.17347   -0.044269
 C 0.25 0.75 0.67347   -0.044269
 C 0.25 0.25 0.82653   -0.044269
 O 0.28977 0.9897 0.48674   -0.558877
 O 0.39577 0.0906 0.46335   -0.57922
 O 0.85593 0.17387 0.38694   -0.276801
 O 0.62748 0.19797 0.26311   -0.288428
 O 0.59378 0.98977 0.07572   -0.572036
 O 0.48397 0.0909 0.05328   -0.570456
 O 0.28977 0.0103 0.01326   -0.558877
 O 0.39577 0.9094 0.03665   -0.57922
 O 0.85593 0.82613 0.11306   -0.276801
 O 0.62748 0.80203 0.23689   -0.288428
 O 0.59378 0.01023 0.42428   -0.572036
 O 0.48397 0.9091 0.44672   -0.570456
 O 0.21023 0.4897 0.01326   -0.558877
 O 0.10423 0.5906 0.03665   -0.579221
 O 0.64407 0.67387 0.11306   -0.276801
 O 0.87252 0.69797 0.23689   -0.288428
 O 0.90622 0.48977 0.42428   -0.572036
 O 0.01603 0.5909 0.44672   -0.570456
 O 0.21023 0.5103 0.48674   -0.558877
 O 0.10423 0.4094 0.46335   -0.579221
 O 0.64407 0.32613 0.38694   -0.276801
 O 0.87252 0.30203 0.26311   -0.288428
 O 0.90622 0.51023 0.07572   -0.572036
 O 0.01603 0.4091 0.05328   -0.570456
 O 0.71023 0.0103 0.51326   -0.558877
 O 0.60423 0.9094 0.53665   -0.57922
 O 0.14407 0.82613 0.61306   -0.276801
 O 0.37252 0.80203 0.73689   -0.288428
 O 0.40622 0.01023 0.92428   -0.572035
 O 0.51603 0.9091 0.94672   -0.570456
 O 0.71023 0.9897 0.98674   -0.558878
 O 0.60423 0.0906 0.96335   -0.57922
 O 0.14407 0.17387 0.88694   -0.276801
 O 0.37252 0.19797 0.76311   -0.288428
 O 0.40622 0.98977 0.57572   -0.572036
 O 0.51603 0.0909 0.55328   -0.570456
 O 0.78977 0.5103 0.98674   -0.558878
 O 0.89577 0.4094 0.96335   -0.57922
 O 0.35593 0.32613 0.88694   -0.276801
 O 0.12748 0.30203 0.76311   -0.288428
 O 0.09378 0.51023 0.57572   -0.572036
 O 0.98397 0.4091 0.55328   -0.570456
 O 0.78977 0.4897 0.51326   -0.558878
 O 0.89577 0.5906 0.53665   -0.57922
 O 0.35593 0.67387 0.61306   -0.276801
 O 0.12748 0.69797 0.73689   -0.288428
 O 0.09378 0.48977 0.92428   -0.572036
 O 0.98397 0.5909 0.94672   -0.570456
