{'_ref': 'TBD', '_srcid': 'CAKYAQ_clean', 'submitters': [{'name': 'Dalar Nazarian Jeff Camp and David Sholl', 'email': 'dalar@gatech.edu jcamp6@gatech.edu'}], '_method': 'VASP DFT with PBE;DDEC'}
data_CdH12(C5N2)3
_symmetry_space_group_name_H-M   'P 1'
_cell_length_a   9.07230000
_cell_length_b   9.07230000
_cell_length_c   27.01000000
_cell_angle_alpha   90.00000000
_cell_angle_beta   90.00000000
_cell_angle_gamma   90.00000000
_symmetry_Int_Tables_number   1
_chemical_formula_structural   CdH12(C5N2)3
_chemical_formula_sum   'Cd4 H48 C60 N24'
_cell_volume   2223.1020031
_cell_formula_units_Z   4
loop_
 _symmetry_equiv_pos_site_id
 _symmetry_equiv_pos_as_xyz
  1  'x, y, z'
loop_
 _atom_site_label
 _atom_site_fract_x
 _atom_site_fract_y
 _atom_site_fract_z
 _atom_site_charge
 Cd 0.12298 0.68143 0.07739   0.064505
 Cd 0.87702 0.31857 0.57739   0.064505
 Cd 0.31857 0.12298 0.82739   0.064504
 Cd 0.68143 0.87702 0.32739   0.064504
 H 0.5834 0.1602 0.0649   0.129897
 H 0.9784 0.2081 0.9991   0.128362
 H 0.6871 0.9148 0.946   0.132607
 H 0.4676 0.8649 0.0777   0.085904
 H 0.1756 0.8483 0.9716   0.058458
 H 0.3821 0.9917 0.9406   0.124362
 H 0.0868 0.1918 0.9228   0.078128
 H 0.0924 0.8271 0.8472   0.089957
 H 0.8866 0.8087 0.9054   0.126127
 H 0.04 0.3344 0.0684   0.05552
 H 0.7559 0.5979 0.1315   0.093863
 H 0.6168 0.4021 0.0918   0.113908
 H 0.4166 0.8398 0.5649   0.129897
 H 0.0216 0.7919 0.4991   0.128362
 H 0.3129 0.0852 0.446   0.132607
 H 0.5324 0.1351 0.5777   0.085904
 H 0.8244 0.1517 0.4716   0.058458
 H 0.6179 0.0083 0.4406   0.124362
 H 0.9132 0.8082 0.4228   0.078128
 H 0.9076 0.1729 0.3472   0.089957
 H 0.1134 0.1913 0.4054   0.126127
 H 0.96 0.6656 0.5684   0.05552
 H 0.2441 0.4021 0.6315   0.093863
 H 0.3832 0.5979 0.5918   0.113908
 H 0.8398 0.5834 0.8149   0.129896
 H 0.7919 0.9784 0.7491   0.128362
 H 0.0852 0.6871 0.696   0.132607
 H 0.1351 0.4676 0.8277   0.085901
 H 0.1517 0.1756 0.7216   0.058457
 H 0.0083 0.3821 0.6906   0.124362
 H 0.8082 0.0868 0.6728   0.078125
 H 0.1729 0.0924 0.5972   0.089958
 H 0.1913 0.8866 0.6554   0.126125
 H 0.6656 0.04 0.8184   0.055519
 H 0.4021 0.7559 0.8815   0.093862
 H 0.5979 0.6168 0.8418   0.113908
 H 0.1602 0.4166 0.3149   0.129896
 H 0.2081 0.0216 0.2491   0.128362
 H 0.9148 0.3129 0.196   0.132607
 H 0.8649 0.5324 0.3277   0.085901
 H 0.8483 0.8244 0.2216   0.058457
 H 0.9917 0.6179 0.1906   0.124362
 H 0.1918 0.9132 0.1728   0.078125
 H 0.8271 0.9076 0.0972   0.089958
 H 0.8087 0.1134 0.1554   0.126125
 H 0.3344 0.96 0.3184   0.055519
 H 0.5979 0.2441 0.3815   0.093862
 H 0.4021 0.3832 0.3418   0.113908
 C 0.616 0.0262 0.00629   0.171184
 C 0.6499 0.1347 0.04016   -0.313098
 C 0.7848 0.205 0.03658   0.180149
 C 0.8859 0.164 0.000489999999999   -0.317185
 C 0.8466 0.0562 0.96659   0.168304
 C 0.7125 0.9867 0.96894   -0.297879
 C 0.4202 0.8779 0.04753   0.095208
 C 0.2612 0.8695 0.98912   0.00295
 C 0.3743 0.949 0.97174   -0.137972
 C 0.0624 0.0988 0.91093   0.084192
 C 0.0649 0.8993 0.86986   -0.006893
 C 0.9506 0.8881 0.90201   -0.165205
 C 0.9523 0.3768 0.07902   0.114495
 C 0.7962 0.5201 0.11369   0.014573
 C 0.7188 0.4129 0.09167   -0.160221
 C 0.384 0.9738 0.50629   0.171184
 C 0.3501 0.8653 0.54016   -0.313098
 C 0.2152 0.795 0.53658   0.180149
 C 0.1141 0.836 0.50049   -0.317185
 C 0.1534 0.9438 0.46659   0.168304
 C 0.2875 0.0133 0.46894   -0.297879
 C 0.5798 0.1221 0.54753   0.095208
 C 0.7388 0.1305 0.48912   0.00295
 C 0.6257 0.051 0.47174   -0.137972
 C 0.9376 0.9012 0.41093   0.084192
 C 0.9351 0.1007 0.36986   -0.006893
 C 0.0494 0.1119 0.40201   -0.165205
 C 0.0477 0.6232 0.57902   0.114495
 C 0.2038 0.4799 0.61369   0.014573
 C 0.2812 0.5871 0.59167   -0.160221
 C 0.9738 0.616 0.75629   0.171184
 C 0.8653 0.6499 0.79016   -0.313098
 C 0.795 0.7848 0.78658   0.180149
 C 0.836 0.8859 0.75049   -0.317185
 C 0.9438 0.8466 0.71659   0.168304
 C 0.0133 0.7125 0.71894   -0.297879
 C 0.1221 0.4202 0.79753   0.09521
 C 0.1305 0.2612 0.73912   0.00295
 C 0.051 0.3743 0.72174   -0.137972
 C 0.9012 0.0624 0.66093   0.084193
 C 0.1007 0.0649 0.61986   -0.006891
 C 0.1119 0.9506 0.65201   -0.165202
 C 0.6232 0.9523 0.82902   0.114497
 C 0.4799 0.7962 0.86369   0.014573
 C 0.5871 0.7188 0.84167   -0.160222
 C 0.0262 0.384 0.25629   0.171184
 C 0.1347 0.3501 0.29016   -0.313098
 C 0.205 0.2152 0.28658   0.180149
 C 0.164 0.1141 0.25049   -0.317185
 C 0.0562 0.1534 0.21659   0.168304
 C 0.9867 0.2875 0.21894   -0.297879
 C 0.8779 0.5798 0.29753   0.09521
 C 0.8695 0.7388 0.23912   0.00295
 C 0.949 0.6257 0.22174   -0.137972
 C 0.0988 0.9376 0.16093   0.084193
 C 0.8993 0.9351 0.11986   -0.006891
 C 0.8881 0.0494 0.15201   -0.165202
 C 0.3768 0.0477 0.32902   0.114497
 C 0.5201 0.2038 0.36369   0.014573
 C 0.4129 0.2812 0.34167   -0.160222
 N 0.2899 0.824 0.03672   -0.285564
 N 0.4763 0.9546 0.00915   0.046935
 N 0.1336 0.0319 0.87564   -0.209571
 N 0.9482 0.0168 0.92843   0.04473
 N 0.9454 0.4973 0.10586   -0.351457
 N 0.8191 0.3219 0.06874   0.04073
 N 0.7101 0.176 0.53672   -0.285564
 N 0.5237 0.0454 0.50915   0.046935
 N 0.8664 0.9681 0.37564   -0.209571
 N 0.0518 0.9832 0.42843   0.04473
 N 0.0546 0.5027 0.60586   -0.351457
 N 0.1809 0.6781 0.56874   0.04073
 N 0.176 0.2899 0.78672   -0.285564
 N 0.0454 0.4763 0.75915   0.046934
 N 0.9681 0.1336 0.62564   -0.209571
 N 0.9832 0.9482 0.67843   0.044729
 N 0.5027 0.9454 0.85586   -0.351457
 N 0.6781 0.8191 0.81874   0.04073
 N 0.824 0.7101 0.28672   -0.285564
 N 0.9546 0.5237 0.25915   0.046934
 N 0.0319 0.8664 0.12564   -0.209571
 N 0.0168 0.0518 0.17843   0.044729
 N 0.4973 0.0546 0.35586   -0.351457
 N 0.3219 0.1809 0.31874   0.04073
