{'_ref': 'TBD', '_srcid': 'CAKYAQ_clean', 'submitters': [{'name': 'Dalar Nazarian Jeff Camp and David Sholl', 'email': 'dalar@gatech.edu jcamp6@gatech.edu'}], '_method': 'VASP DFT with PBE;DDEC'}
data_CuH10C16(NO)4
_symmetry_space_group_name_H-M   'P 1'
_cell_length_a   13.31910000
_cell_length_b   14.00870044
_cell_length_c   14.82970000
_cell_angle_alpha   93.11599957
_cell_angle_beta   90.00000000
_cell_angle_gamma   90.00000000
_symmetry_Int_Tables_number   1
_chemical_formula_structural   CuH10C16(NO)4
_chemical_formula_sum   'Cu4 H40 C64 N16 O16'
_cell_volume   2762.88320999
_cell_formula_units_Z   4
loop_
 _symmetry_equiv_pos_site_id
 _symmetry_equiv_pos_as_xyz
  1  'x, y, z'
loop_
 _atom_site_label
 _atom_site_fract_x
 _atom_site_fract_y
 _atom_site_fract_z
 _atom_site_charge
 Cu 0.0 0.5 0.5   0.827162
 Cu 0.5 0.5 0.0   0.827162
 Cu 0.0 0.0 0.0   0.868648
 Cu 0.5 0.0 0.5   0.868648
 H 0.6912 0.7018 0.8896   0.120688
 H 0.6953 0.9113 0.7144   0.130871
 H 0.4557 0.7414 0.7276   0.117846
 H 0.7063 0.9163 0.9964   0.142005
 H 0.7002 0.9916 0.9221   0.154818
 H 0.7759 0.0066 0.0026   0.17442
 H 0.7942 0.7476 0.6596   0.120095
 H 0.8378 0.6351 0.55   0.088938
 H 0.0851 0.5808 0.6722   0.093314
 H 0.0509 0.6904 0.7865   0.151581
 H 0.1912 0.2982 0.6104   0.120688
 H 0.1953 0.0887 0.7856   0.13087
 H 0.9557 0.2586 0.7724   0.117846
 H 0.2063 0.0837 0.5036   0.142005
 H 0.2002 0.0084 0.5779   0.154818
 H 0.2759 0.9934 0.4974   0.17442
 H 0.2942 0.2524 0.8404   0.120095
 H 0.3378 0.3649 0.95   0.088938
 H 0.5851 0.4192 0.8278   0.093314
 H 0.5509 0.3096 0.7135   0.151581
 H 0.3088 0.2982 0.1104   0.120688
 H 0.3047 0.0887 0.2856   0.130869
 H 0.5443 0.2586 0.2724   0.117846
 H 0.2937 0.0837 0.0036   0.142004
 H 0.2998 0.0084 0.0779   0.154818
 H 0.2241 0.9934 0.9974   0.174419
 H 0.2058 0.2524 0.3404   0.120095
 H 0.1622 0.3649 0.45   0.088938
 H 0.9149 0.4192 0.3278   0.093314
 H 0.9491 0.3096 0.2135   0.151581
 H 0.8088 0.7018 0.3896   0.120688
 H 0.8047 0.9113 0.2144   0.130869
 H 0.0443 0.7414 0.2276   0.117846
 H 0.7937 0.9163 0.4964   0.142004
 H 0.7998 0.9916 0.4221   0.154818
 H 0.7241 0.0066 0.5026   0.174419
 H 0.7058 0.7476 0.1596   0.120095
 H 0.6622 0.6351 0.05   0.088938
 H 0.4149 0.5808 0.1722   0.093314
 H 0.4491 0.6904 0.2865   0.151582
 C 0.508 0.6332 0.8619   0.678596
 C 0.5629 0.71068 0.81716   -0.092501
 C 0.65925 0.73546 0.84558   -0.138195
 C 0.70676 0.811 0.80732   0.10232
 C 0.66193 0.86093 0.73973   -0.138128
 C 0.5679 0.8348 0.71099   -0.08087
 C 0.519 0.7595 0.74866   -0.007134
 C 0.5214 0.8855 0.6334   0.633014
 C 0.7443 0.9599 0.9622   -0.414802
 C 0.82454 0.90485 0.90705   0.339013
 C 0.89832 0.80725 0.80925   0.241899
 C 0.9181 0.73375 0.7363   0.065985
 C 0.8545 0.7147 0.6638   -0.189712
 C 0.8812 0.6473 0.5984   0.176693
 C 0.0257 0.6154 0.6697   0.183927
 C 0.0061 0.6811 0.7388   -0.162223
 C 0.008 0.3668 0.6381   0.678596
 C 0.0629 0.28932 0.68284   -0.092501
 C 0.15925 0.26454 0.65442   -0.138195
 C 0.20676 0.189 0.69268   0.10232
 C 0.16193 0.13907 0.76027   -0.138128
 C 0.0679 0.1652 0.78901   -0.080871
 C 0.019 0.2405 0.75134   -0.007134
 C 0.0214 0.1145 0.8666   0.633014
 C 0.2443 0.0401 0.5378   -0.414802
 C 0.32454 0.09515 0.59295   0.339013
 C 0.39832 0.19275 0.69075   0.241899
 C 0.4181 0.26625 0.7637   0.065986
 C 0.3545 0.2853 0.8362   -0.189712
 C 0.3812 0.3527 0.9016   0.176693
 C 0.5257 0.3846 0.8303   0.183927
 C 0.5061 0.3189 0.7612   -0.162223
 C 0.492 0.3668 0.1381   0.678597
 C 0.4371 0.28932 0.18284   -0.092501
 C 0.34075 0.26454 0.15442   -0.138195
 C 0.29324 0.189 0.19268   0.10232
 C 0.33807 0.13907 0.26027   -0.138128
 C 0.4321 0.1652 0.28901   -0.08087
 C 0.481 0.2405 0.25134   -0.007134
 C 0.4786 0.1145 0.3666   0.633014
 C 0.2557 0.0401 0.0378   -0.414802
 C 0.17546 0.09515 0.09295   0.339013
 C 0.10168 0.19275 0.19075   0.241899
 C 0.0819 0.26625 0.2637   0.065986
 C 0.1455 0.2853 0.3362   -0.189712
 C 0.1188 0.3527 0.4016   0.176693
 C 0.9743 0.3846 0.3303   0.183927
 C 0.9939 0.3189 0.2612   -0.162223
 C 0.992 0.6332 0.3619   0.678597
 C 0.9371 0.71068 0.31716   -0.092501
 C 0.84075 0.73546 0.34558   -0.138195
 C 0.79324 0.811 0.30732   0.10232
 C 0.83807 0.86093 0.23973   -0.138128
 C 0.9321 0.8348 0.21099   -0.080871
 C 0.981 0.7595 0.24866   -0.007134
 C 0.9786 0.8855 0.1334   0.633013
 C 0.7557 0.9599 0.4622   -0.414802
 C 0.67546 0.90485 0.40705   0.339013
 C 0.60168 0.80725 0.30925   0.241899
 C 0.5819 0.73375 0.2363   0.065986
 C 0.6455 0.7147 0.1638   -0.189712
 C 0.6188 0.6473 0.0984   0.176693
 C 0.4743 0.6154 0.1697   0.183927
 C 0.4939 0.6811 0.2388   -0.162223
 N 0.80573 0.83886 0.83875   -0.093156
 N 0.92146 0.91223 0.91735   -0.223103
 N 0.96873 0.8512 0.8557   -0.269742
 N 0.9671 0.59795 0.60067   -0.317425
 N 0.30573 0.16114 0.66125   -0.093156
 N 0.42146 0.08777 0.58265   -0.223103
 N 0.46873 0.1488 0.6443   -0.269742
 N 0.4671 0.40205 0.89933   -0.317425
 N 0.19427 0.16114 0.16125   -0.093156
 N 0.07854 0.08777 0.08265   -0.223103
 N 0.03127 0.1488 0.1443   -0.269742
 N 0.0329 0.40205 0.39933   -0.317425
 N 0.69427 0.83886 0.33875   -0.093156
 N 0.57854 0.91223 0.41735   -0.223103
 N 0.53127 0.8512 0.3557   -0.269742
 N 0.5329 0.59795 0.10067   -0.317425
 O 0.55682 0.58667 0.91489   -0.624275
 O 0.4197 0.6195 0.8439   -0.612204
 O 0.57176 0.95225 0.60292   -0.589109
 O 0.43813 0.8608 0.6025   -0.611344
 O 0.05682 0.41333 0.58511   -0.624275
 O 0.9197 0.3805 0.6561   -0.612204
 O 0.07176 0.04775 0.89708   -0.589109
 O 0.93813 0.1392 0.8975   -0.611344
 O 0.44318 0.41333 0.08511   -0.624275
 O 0.5803 0.3805 0.1561   -0.612204
 O 0.42824 0.04775 0.39708   -0.589109
 O 0.56187 0.1392 0.3975   -0.611344
 O 0.94318 0.58667 0.41489   -0.624275
 O 0.0803 0.6195 0.3439   -0.612205
 O 0.92824 0.95225 0.10292   -0.589109
 O 0.06187 0.8608 0.1025   -0.611344
