{'_ref': 'TBD', '_srcid': 'CAKYAQ_clean', 'submitters': [{'name': 'Dalar Nazarian Jeff Camp and David Sholl', 'email': 'dalar@gatech.edu jcamp6@gatech.edu'}], '_method': 'VASP DFT with PBE;DDEC'}
data_CdH6(C3O2)2
_symmetry_space_group_name_H-M   'P 1'
_cell_length_a   11.80550000
_cell_length_b   15.26680010
_cell_length_c   17.06910000
_cell_angle_alpha   90.00000000
_cell_angle_beta   90.00000000
_cell_angle_gamma   92.45200179
_symmetry_Int_Tables_number   1
_chemical_formula_structural   CdH6(C3O2)2
_chemical_formula_sum   'Cd12 H72 C72 O48'
_cell_volume   3073.58487489
_cell_formula_units_Z   12
loop_
 _symmetry_equiv_pos_site_id
 _symmetry_equiv_pos_as_xyz
  1  'x, y, z'
loop_
 _atom_site_label
 _atom_site_fract_x
 _atom_site_fract_y
 _atom_site_fract_z
 _atom_site_charge
 Cd 0.30332 0.27177 0.87901   1.250494
 Cd 0.56699 0.19389 0.82545   1.103507
 Cd 0.74489 0.99161 0.6912   1.11762
 Cd 0.19668 0.22823 0.37901   1.250494
 Cd 0.93301 0.30611 0.32545   1.103507
 Cd 0.75511 0.50839 0.1912   1.11762
 Cd 0.69668 0.72823 0.12099   1.250494
 Cd 0.43301 0.80611 0.17455   1.103507
 Cd 0.25511 0.00839 0.3088   1.11762
 Cd 0.80332 0.77177 0.62099   1.250494
 Cd 0.06699 0.69389 0.67455   1.103507
 Cd 0.24489 0.49161 0.8088   1.11762
 H 0.6566 0.3915 0.8241   0.098877
 H 0.5693 0.4312 0.9389   0.081552
 H 0.5475 0.5246 0.9053   0.070397
 H 0.913 0.148 0.6948   0.091075
 H 0.9201 0.3299 0.7347   0.083274
 H 0.9653 0.2561 0.7892   0.089802
 H 0.108 0.2258 0.6995   0.101938
 H 0.0302 0.3595 0.6008   0.08766
 H 0.1299 0.2986 0.5816   0.083472
 H 0.6124 0.5588 0.76   0.077287
 H 0.6695 0.4832 0.714   0.090605
 H 0.827 0.4916 0.799   0.100661
 H 0.7228 0.6305 0.8769   0.077406
 H 0.8438 0.5981 0.8971   0.084889
 H 0.7649 0.4607 0.936   0.109949
 H 0.8136 0.1837 0.5817   0.086029
 H 0.8237 0.2836 0.6037   0.085752
 H 0.0071 0.1791 0.5675   0.099713
 H 0.8434 0.1085 0.3241   0.098877
 H 0.9307 0.0688 0.4389   0.081552
 H 0.9525 0.9754 0.4053   0.070397
 H 0.587 0.352 0.1948   0.091075
 H 0.5799 0.1701 0.2347   0.083274
 H 0.5347 0.2439 0.2892   0.089802
 H 0.392 0.2742 0.1995   0.101938
 H 0.4698 0.1405 0.1008   0.08766
 H 0.3701 0.2014 0.0816   0.083472
 H 0.8876 0.9412 0.26   0.077287
 H 0.8305 0.0168 0.214   0.090605
 H 0.673 0.0084 0.299   0.100661
 H 0.7772 0.8695 0.3769   0.077406
 H 0.6562 0.9019 0.3971   0.084889
 H 0.7351 0.0393 0.436   0.109949
 H 0.6864 0.3163 0.0817   0.086029
 H 0.6763 0.2164 0.1037   0.085752
 H 0.4929 0.3209 0.0675   0.099713
 H 0.3434 0.6085 0.1759   0.098877
 H 0.4307 0.5688 0.0611   0.081552
 H 0.4525 0.4754 0.0947   0.070396
 H 0.087 0.852 0.3052   0.091075
 H 0.0799 0.6701 0.2653   0.083274
 H 0.0347 0.7439 0.2108   0.089801
 H 0.892 0.7742 0.3005   0.101938
 H 0.9698 0.6405 0.3992   0.08766
 H 0.8701 0.7014 0.4184   0.083472
 H 0.3876 0.4412 0.24   0.077287
 H 0.3305 0.5168 0.286   0.090605
 H 0.173 0.5084 0.201   0.100661
 H 0.2772 0.3695 0.1231   0.077406
 H 0.1562 0.4019 0.1029   0.084889
 H 0.2351 0.5393 0.064   0.109949
 H 0.1864 0.8163 0.4183   0.086029
 H 0.1763 0.7164 0.3963   0.085752
 H 0.9929 0.8209 0.4325   0.099713
 H 0.1566 0.8915 0.6759   0.098877
 H 0.0693 0.9312 0.5611   0.081552
 H 0.0475 0.0246 0.5947   0.070396
 H 0.413 0.648 0.8052   0.091075
 H 0.4201 0.8299 0.7653   0.083274
 H 0.4653 0.7561 0.7108   0.089801
 H 0.608 0.7258 0.8005   0.101938
 H 0.5302 0.8595 0.8992   0.08766
 H 0.6299 0.7986 0.9184   0.083472
 H 0.1124 0.0588 0.74   0.077287
 H 0.1695 0.9832 0.786   0.090605
 H 0.327 0.9916 0.701   0.100661
 H 0.2228 0.1305 0.6231   0.077406
 H 0.3438 0.0981 0.6029   0.084889
 H 0.2649 0.9607 0.564   0.109949
 H 0.3136 0.6837 0.9183   0.086029
 H 0.3237 0.7836 0.8963   0.085752
 H 0.5071 0.6791 0.9325   0.099713
 C 0.4883 0.4089 0.7982   0.737671
 C 0.6081 0.442 0.8227   -0.189798
 C 0.5995 0.4771 0.9046   -0.095415
 C 0.7636 0.195 0.7369   0.698917
 C 0.8767 0.2045 0.6927   -0.173862
 C 0.955 0.2735 0.7351   -0.109658
 C 0.0705 0.2815 0.6938   -0.168865
 C 0.0565 0.3006 0.6068   -0.113146
 C 0.6613 0.5097 0.7652   -0.106495
 C 0.7785 0.5421 0.7963   -0.17616
 C 0.8371 0.6115 0.7435   0.741557
 C 0.769 0.5795 0.8783   -0.10532
 C 0.7154 0.5107 0.9352   -0.177373
 C 0.7061 0.5431 0.0184   0.735751
 C 0.8613 0.2285 0.6072   -0.117205
 C 0.141 0.3523 0.735   0.71993
 C 0.9741 0.2368 0.5657   -0.158748
 C 0.9614 0.2607 0.4792   0.698806
 C 0.0117 0.0911 0.2982   0.737671
 C 0.8919 0.058 0.3227   -0.189798
 C 0.9005 0.0229 0.4046   -0.095415
 C 0.7364 0.305 0.2369   0.698917
 C 0.6233 0.2955 0.1927   -0.173862
 C 0.545 0.2265 0.2351   -0.109658
 C 0.4295 0.2185 0.1938   -0.168865
 C 0.4435 0.1994 0.1068   -0.113146
 C 0.8387 0.9903 0.2652   -0.106495
 C 0.7215 0.9579 0.2963   -0.17616
 C 0.6629 0.8885 0.2435   0.741557
 C 0.731 0.9205 0.3783   -0.10532
 C 0.7846 0.9893 0.4352   -0.177373
 C 0.7939 0.9569 0.5184   0.735751
 C 0.6387 0.2715 0.1072   -0.117205
 C 0.359 0.1477 0.235   0.71993
 C 0.5259 0.2632 0.0657   -0.158748
 C 0.5386 0.2393 0.9792   0.698806
 C 0.5117 0.5911 0.2018   0.737671
 C 0.3919 0.558 0.1773   -0.189798
 C 0.4005 0.5229 0.0954   -0.095415
 C 0.2364 0.805 0.2631   0.698917
 C 0.1233 0.7955 0.3073   -0.173862
 C 0.045 0.7265 0.2649   -0.109658
 C 0.9295 0.7185 0.3062   -0.168865
 C 0.9435 0.6994 0.3932   -0.113146
 C 0.3387 0.4903 0.2348   -0.106495
 C 0.2215 0.4579 0.2037   -0.17616
 C 0.1629 0.3885 0.2565   0.741557
 C 0.231 0.4205 0.1217   -0.10532
 C 0.2846 0.4893 0.0648   -0.177373
 C 0.2939 0.4569 0.9816   0.735751
 C 0.1387 0.7715 0.3928   -0.117205
 C 0.859 0.6477 0.265   0.71993
 C 0.0259 0.7632 0.4343   -0.158748
 C 0.0386 0.7393 0.5208   0.698806
 C 0.9883 0.9089 0.7018   0.737671
 C 0.1081 0.942 0.6773   -0.189798
 C 0.0995 0.9771 0.5954   -0.095415
 C 0.2636 0.695 0.7631   0.698917
 C 0.3767 0.7045 0.8073   -0.173862
 C 0.455 0.7735 0.7649   -0.109658
 C 0.5705 0.7815 0.8062   -0.168865
 C 0.5565 0.8006 0.8932   -0.113146
 C 0.1613 0.0097 0.7348   -0.106495
 C 0.2785 0.0421 0.7037   -0.17616
 C 0.3371 0.1115 0.7565   0.741557
 C 0.269 0.0795 0.6217   -0.10532
 C 0.2154 0.0107 0.5648   -0.177373
 C 0.2061 0.0431 0.4816   0.735751
 C 0.3613 0.7285 0.8928   -0.117205
 C 0.641 0.8523 0.765   0.71993
 C 0.4741 0.7368 0.9343   -0.158748
 C 0.4614 0.7607 0.0208   0.698806
 O 0.4598 0.3283 0.8091   -0.712873
 O 0.7163 0.2607 0.7586   -0.56321
 O 0.7201 0.1199 0.7492   -0.650442
 O 0.4233 0.4657 0.7734   -0.627785
 O 0.7794 0.6535 0.6978   -0.646071
 O 0.9424 0.6236 0.754   -0.654433
 O 0.697 0.6228 0.0299   -0.665946
 O 0.7048 0.4843 0.0694   -0.626823
 O 0.1735 0.3402 0.8036   -0.723816
 O 0.1624 0.4245 0.7013   -0.578481
 O 0.0494 0.2907 0.443   -0.701526
 O 0.8686 0.2523 0.4452   -0.561141
 O 0.0402 0.1717 0.3091   -0.712873
 O 0.7837 0.2393 0.2586   -0.56321
 O 0.7799 0.3801 0.2492   -0.650442
 O 0.0767 0.0343 0.2734   -0.627785
 O 0.7206 0.8465 0.1978   -0.646071
 O 0.5576 0.8764 0.254   -0.654433
 O 0.803 0.8772 0.5299   -0.665946
 O 0.7952 0.0157 0.5694   -0.626823
 O 0.3265 0.1598 0.3036   -0.723816
 O 0.3376 0.0755 0.2013   -0.578481
 O 0.4506 0.2093 0.943   -0.701526
 O 0.6314 0.2477 0.9452   -0.561141
 O 0.5402 0.6717 0.1909   -0.712873
 O 0.2837 0.7393 0.2414   -0.56321
 O 0.2799 0.8801 0.2508   -0.650442
 O 0.5767 0.5343 0.2266   -0.627785
 O 0.2206 0.3465 0.3022   -0.646071
 O 0.0576 0.3764 0.246   -0.654433
 O 0.303 0.3772 0.9701   -0.665946
 O 0.2952 0.5157 0.9306   -0.626823
 O 0.8265 0.6598 0.1964   -0.723816
 O 0.8376 0.5755 0.2987   -0.578481
 O 0.9506 0.7093 0.557   -0.701526
 O 0.1314 0.7477 0.5548   -0.561141
 O 0.9598 0.8283 0.6909   -0.712873
 O 0.2163 0.7607 0.7414   -0.56321
 O 0.2201 0.6199 0.7508   -0.650442
 O 0.9233 0.9657 0.7266   -0.627785
 O 0.2794 0.1535 0.8022   -0.646071
 O 0.4424 0.1236 0.746   -0.654433
 O 0.197 0.1228 0.4701   -0.665946
 O 0.2048 0.9843 0.4306   -0.626823
 O 0.6735 0.8402 0.6964   -0.723816
 O 0.6624 0.9245 0.7987   -0.578481
 O 0.5494 0.7907 0.057   -0.701526
 O 0.3686 0.7523 0.0548   -0.561141
