{'_ref': 'TBD', '_srcid': 'CAKYAQ_clean', 'submitters': [{'name': 'Dalar Nazarian Jeff Camp and David Sholl', 'email': 'dalar@gatech.edu jcamp6@gatech.edu'}], '_method': 'VASP DFT with PBE;DDEC'}
data_K2ThH75C56(NO2)4
_symmetry_space_group_name_H-M   'P 1'
_cell_length_a   16.68400000
_cell_length_b   17.03399998
_cell_length_c   20.54500000
_cell_angle_alpha   94.16100127
_cell_angle_beta   90.00000000
_cell_angle_gamma   90.00000000
_symmetry_Int_Tables_number   1
_chemical_formula_structural   K2ThH75C56(NO2)4
_chemical_formula_sum   'K8 Th4 H300 C224 N16 O32'
_cell_volume   5823.4010367
_cell_formula_units_Z   4
loop_
 _symmetry_equiv_pos_site_id
 _symmetry_equiv_pos_as_xyz
  1  'x, y, z'
loop_
 _atom_site_label
 _atom_site_fract_x
 _atom_site_fract_y
 _atom_site_fract_z
 _atom_site_charge
 K 0.6725 0.8949 0.9001   0.860654
 K 0.8326 0.4141 0.13778   0.880665
 K 0.6725 0.1051 0.5999   0.860654
 K 0.8326 0.5859 0.36222   0.880665
 K 0.3275 0.1051 0.0999   0.860654
 K 0.1674 0.5859 0.86222   0.880665
 K 0.3275 0.8949 0.4001   0.860654
 K 0.1674 0.4141 0.63778   0.880665
 Th 0.79544 0.72439 0.94643   2.045642
 Th 0.79544 0.27561 0.55357   2.045642
 Th 0.20456 0.27561 0.05357   2.045642
 Th 0.20456 0.72439 0.44643   2.045642
 H 0.8752 0.9991 0.8399   0.10737
 H 0.8347 0.0459 0.9565   0.113344
 H 0.9368 0.9775 0.079   0.066257
 H 0.9185 0.9027 0.1177   0.058191
 H 0.0351 0.8837 0.0573   0.090109
 H 0.9875 0.8959 0.9921   0.119594
 H 0.9699 0.8213 0.0316   0.081559
 H 0.811 0.0372 0.074   0.063144
 H 0.7317 0.9883 0.0589   0.051775
 H 0.7405 0.0236 0.1723   0.091595
 H 0.8236 0.9791 0.1756   0.094129
 H 0.7438 0.9307 0.1605   0.101516
 H 0.869 0.7652 0.103   0.136384
 H 0.7508 0.6722 0.0993   0.130881
 H 0.5599 0.8497 0.0695   0.065298
 H 0.4932 0.7844 0.0739   0.053343
 H 0.5275 0.8346 0.1777   0.092831
 H 0.6184 0.8112 0.1651   0.098659
 H 0.5526 0.7447 0.1694   0.088035
 H 0.6244 0.6187 0.0304   0.081554
 H 0.6041 0.6491 0.1031   0.056312
 H 0.5017 0.5695 0.0606   0.094666
 H 0.4891 0.6254 0.0031   0.094866
 H 0.4687 0.6561 0.0758   0.09485
 H 0.4707 0.7909 0.9564   0.123135
 H 0.4989 0.7561 0.8342   0.110561
 H 0.6154 0.5644 0.7601   0.036146
 H 0.6029 0.4946 0.8509   0.098146
 H 0.5768 0.5742 0.8897   0.130121
 H 0.6686 0.5509 0.8847   0.121715
 H 0.5689 0.7082 0.7351   0.049602
 H 0.6348 0.7735 0.7514   0.046116
 H 0.6563 0.7131 0.6465   0.083782
 H 0.6653 0.6301 0.676   0.094353
 H 0.7305 0.6964 0.6917   0.116889
 H 0.7971 0.5761 0.8195   0.144922
 H 0.9239 0.6572 0.8225   0.128081
 H 0.8224 0.8695 0.7459   0.059247
 H 0.9066 0.9125 0.7477   0.064369
 H 0.897 0.8266 0.652   0.10026
 H 0.8831 0.7542 0.6949   0.102487
 H 0.9671 0.7976 0.6965   0.088755
 H 0.997 0.7951 0.8706   0.073683
 H 0.0041 0.7708 0.7953   0.057278
 H 0.1004 0.8624 0.827   0.08702
 H 0.0333 0.9233 0.8515   0.095112
 H 0.0417 0.8979 0.7761   0.090075
 H 0.6656 0.0909 0.9209   0.069551
 H 0.6202 0.135 0.8665   0.058651
 H 0.7149 0.1296 0.8657   0.074307
 H 0.7072 0.0696 0.7584   0.042052
 H 0.6123 0.0689 0.7594   0.026916
 H 0.88 0.2186 0.0221   0.119096
 H 0.7471 0.1882 0.0353   0.091191
 H 0.6496 0.2806 0.0212   0.092987
 H 0.6848 0.3999 0.9811   0.110121
 H 0.9688 0.2984 0.9443   0.118431
 H 0.017 0.428 0.9332   0.087261
 H 0.9241 0.5128 0.9093   0.106381
 H 0.7871 0.4628 0.9091   0.120921
 H 0.6418 0.5 0.1001   0.081886
 H 0.5736 0.4897 0.1525   0.051118
 H 0.5974 0.418 0.1027   0.055903
 H 0.6181 0.4172 0.2533   0.065173
 H 0.6019 0.3548 0.1939   0.036336
 H 0.665 0.2994 0.2598   0.049556
 H 0.7225 0.3709 0.2756   0.037443
 H 0.7856 0.1996 0.1746   0.067807
 H 0.6923 0.2112 0.1857   0.048696
 H 0.7501 0.205 0.2463   0.051203
 H 0.8539 0.3343 0.2965   0.075716
 H 0.9073 0.3798 0.3508   0.062733
 H 0.9484 0.3245 0.2951   0.053095
 H 0.0231 0.4334 0.2567   0.05496
 H 0.9862 0.4871 0.3151   0.02446
 H 0.8752 0.000900000000001 0.6601   0.10737
 H 0.8347 0.9541 0.5435   0.113344
 H 0.9368 0.0225 0.421   0.066257
 H 0.9185 0.0973 0.3823   0.058191
 H 0.0351 0.1163 0.4427   0.090109
 H 0.9875 0.1041 0.5079   0.119594
 H 0.9699 0.1787 0.4684   0.081559
 H 0.811 0.9628 0.426   0.063144
 H 0.7317 0.0117 0.4411   0.051775
 H 0.7405 0.9764 0.3277   0.091594
 H 0.8236 0.0209 0.3244   0.094129
 H 0.7438 0.0693 0.3395   0.101516
 H 0.869 0.2348 0.397   0.136384
 H 0.7508 0.3278 0.4007   0.13088
 H 0.5599 0.1503 0.4305   0.065298
 H 0.4932 0.2156 0.4261   0.053343
 H 0.5275 0.1654 0.3223   0.092831
 H 0.6184 0.1888 0.3349   0.098659
 H 0.5526 0.2553 0.3306   0.088035
 H 0.6244 0.3813 0.4696   0.081554
 H 0.6041 0.3509 0.3969   0.056311
 H 0.5017 0.4305 0.4394   0.094666
 H 0.4891 0.3746 0.4969   0.094866
 H 0.4687 0.3439 0.4242   0.09485
 H 0.4707 0.2091 0.5436   0.123135
 H 0.4989 0.2439 0.6658   0.110561
 H 0.6154 0.4356 0.7399   0.036147
 H 0.6029 0.5054 0.6491   0.098146
 H 0.5768 0.4258 0.6103   0.130121
 H 0.6686 0.4491 0.6153   0.121715
 H 0.5689 0.2918 0.7649   0.049602
 H 0.6348 0.2265 0.7486   0.046116
 H 0.6563 0.2869 0.8535   0.083783
 H 0.6653 0.3699 0.824   0.094353
 H 0.7305 0.3036 0.8083   0.116889
 H 0.7971 0.4239 0.6805   0.144922
 H 0.9239 0.3428 0.6775   0.128081
 H 0.8224 0.1305 0.7541   0.059247
 H 0.9066 0.0875 0.7523   0.064369
 H 0.897 0.1734 0.848   0.10026
 H 0.8831 0.2458 0.8051   0.102487
 H 0.9671 0.2024 0.8035   0.088755
 H 0.997 0.2049 0.6294   0.073683
 H 0.0041 0.2292 0.7047   0.057278
 H 0.1004 0.1376 0.673   0.08702
 H 0.0333 0.0767 0.6485   0.095112
 H 0.0417 0.1021 0.7239   0.090075
 H 0.6656 0.9091 0.5791   0.069551
 H 0.6202 0.865 0.6335   0.058651
 H 0.7149 0.8704 0.6343   0.074308
 H 0.7072 0.9304 0.7416   0.042051
 H 0.6123 0.9311 0.7406   0.026916
 H 0.88 0.7814 0.4779   0.119096
 H 0.7471 0.8118 0.4647   0.091191
 H 0.6496 0.7194 0.4788   0.092987
 H 0.6848 0.6001 0.5189   0.110121
 H 0.9688 0.7016 0.5557   0.118431
 H 0.017 0.572 0.5668   0.087261
 H 0.9241 0.4872 0.5907   0.106381
 H 0.7871 0.5372 0.5909   0.120921
 H 0.6418 0.5 0.3999   0.081886
 H 0.5736 0.5103 0.3475   0.051118
 H 0.5974 0.582 0.3973   0.055903
 H 0.6181 0.5828 0.2467   0.065174
 H 0.6019 0.6452 0.3061   0.036336
 H 0.665 0.7006 0.2402   0.049555
 H 0.7225 0.6291 0.2244   0.037443
 H 0.7856 0.8004 0.3254   0.067807
 H 0.6923 0.7888 0.3143   0.048696
 H 0.7501 0.795 0.2537   0.051202
 H 0.8539 0.6657 0.2035   0.075716
 H 0.9073 0.6202 0.1492   0.062732
 H 0.9484 0.6755 0.2049   0.053095
 H 0.0231 0.5666 0.2433   0.054959
 H 0.9862 0.5129 0.1849   0.02446
 H 0.1248 0.000900000000001 0.1601   0.10737
 H 0.1653 0.9541 0.0435   0.113343
 H 0.0632 0.0225 0.921   0.066256
 H 0.0815 0.0973 0.8823   0.058191
 H 0.9649 0.1163 0.9427   0.090109
 H 0.0125 0.1041 0.0079   0.119593
 H 0.0301 0.1787 0.9684   0.081558
 H 0.189 0.9628 0.926   0.063144
 H 0.2683 0.0117 0.9411   0.051775
 H 0.2595 0.9764 0.8277   0.091595
 H 0.1764 0.0209 0.8244   0.094129
 H 0.2562 0.0693 0.8395   0.101516
 H 0.131 0.2348 0.897   0.136384
 H 0.2492 0.3278 0.9007   0.130881
 H 0.4401 0.1503 0.9305   0.065298
 H 0.5068 0.2156 0.9261   0.053342
 H 0.4725 0.1654 0.8223   0.09283
 H 0.3816 0.1888 0.8349   0.098659
 H 0.4474 0.2553 0.8306   0.088035
 H 0.3756 0.3813 0.9696   0.081554
 H 0.3959 0.3509 0.8969   0.056312
 H 0.4983 0.4305 0.9394   0.094667
 H 0.5109 0.3746 0.9969   0.094866
 H 0.5313 0.3439 0.9242   0.09485
 H 0.5293 0.2091 0.0436   0.123135
 H 0.5011 0.2439 0.1658   0.110561
 H 0.3846 0.4356 0.2399   0.036146
 H 0.3971 0.5054 0.1491   0.098146
 H 0.4232 0.4258 0.1103   0.130121
 H 0.3314 0.4491 0.1153   0.121715
 H 0.4311 0.2918 0.2649   0.049602
 H 0.3652 0.2265 0.2486   0.046116
 H 0.3437 0.2869 0.3535   0.083782
 H 0.3347 0.3699 0.324   0.094353
 H 0.2695 0.3036 0.3083   0.116889
 H 0.2029 0.4239 0.1805   0.144922
 H 0.0761 0.3428 0.1775   0.128081
 H 0.1776 0.1305 0.2541   0.059247
 H 0.0934 0.0875 0.2523   0.064369
 H 0.103 0.1734 0.348   0.10026
 H 0.1169 0.2458 0.3051   0.102487
 H 0.0329 0.2024 0.3035   0.088755
 H 0.003 0.2049 0.1294   0.073683
 H 0.9959 0.2292 0.2047   0.057278
 H 0.8996 0.1376 0.173   0.087021
 H 0.9667 0.0767 0.1485   0.095112
 H 0.9583 0.1021 0.2239   0.090075
 H 0.3344 0.9091 0.0791   0.069551
 H 0.3798 0.865 0.1335   0.058651
 H 0.2851 0.8704 0.1343   0.074307
 H 0.2928 0.9304 0.2416   0.042051
 H 0.3877 0.9311 0.2406   0.026916
 H 0.12 0.7814 0.9779   0.119096
 H 0.2529 0.8118 0.9647   0.091192
 H 0.3504 0.7194 0.9788   0.092986
 H 0.3152 0.6001 0.0189   0.110121
 H 0.0312 0.7016 0.0557   0.11843
 H 0.983 0.572 0.0668   0.087261
 H 0.0759 0.4872 0.0907   0.106381
 H 0.2129 0.5372 0.0909   0.120921
 H 0.3582 0.5 0.8999   0.081886
 H 0.4264 0.5103 0.8475   0.051118
 H 0.4026 0.582 0.8973   0.055903
 H 0.3819 0.5828 0.7467   0.065173
 H 0.3981 0.6452 0.8061   0.036336
 H 0.335 0.7006 0.7402   0.049556
 H 0.2775 0.6291 0.7244   0.037443
 H 0.2144 0.8004 0.8254   0.067807
 H 0.3077 0.7888 0.8143   0.048696
 H 0.2499 0.795 0.7537   0.051203
 H 0.1461 0.6657 0.7035   0.075716
 H 0.0927 0.6202 0.6492   0.062732
 H 0.0516 0.6755 0.7049   0.053095
 H 0.9769 0.5666 0.7433   0.054959
 H 0.0138 0.5129 0.6849   0.024459
 H 0.1248 0.9991 0.3399   0.10737
 H 0.1653 0.0459 0.4565   0.113343
 H 0.0632 0.9775 0.579   0.066256
 H 0.0815 0.9027 0.6177   0.058191
 H 0.9649 0.8837 0.5573   0.090109
 H 0.0125 0.8959 0.4921   0.119593
 H 0.0301 0.8213 0.5316   0.081558
 H 0.189 0.0372 0.574   0.063144
 H 0.2683 0.9883 0.5589   0.051775
 H 0.2595 0.0236 0.6723   0.091594
 H 0.1764 0.9791 0.6756   0.094129
 H 0.2562 0.9307 0.6605   0.101516
 H 0.131 0.7652 0.603   0.136384
 H 0.2492 0.6722 0.5993   0.13088
 H 0.4401 0.8497 0.5695   0.065298
 H 0.5068 0.7844 0.5739   0.053342
 H 0.4725 0.8346 0.6777   0.09283
 H 0.3816 0.8112 0.6651   0.098659
 H 0.4474 0.7447 0.6694   0.088035
 H 0.3756 0.6187 0.5304   0.081554
 H 0.3959 0.6491 0.6031   0.056311
 H 0.4983 0.5695 0.5606   0.094667
 H 0.5109 0.6254 0.5031   0.094866
 H 0.5313 0.6561 0.5758   0.09485
 H 0.5293 0.7909 0.4564   0.123135
 H 0.5011 0.7561 0.3342   0.110561
 H 0.3846 0.5644 0.2601   0.036147
 H 0.3971 0.4946 0.3509   0.098146
 H 0.4232 0.5742 0.3897   0.130121
 H 0.3314 0.5509 0.3847   0.121715
 H 0.4311 0.7082 0.2351   0.049602
 H 0.3652 0.7735 0.2514   0.046116
 H 0.3437 0.7131 0.1465   0.083783
 H 0.3347 0.6301 0.176   0.094353
 H 0.2695 0.6964 0.1917   0.116889
 H 0.2029 0.5761 0.3195   0.144922
 H 0.0761 0.6572 0.3225   0.128081
 H 0.1776 0.8695 0.2459   0.059247
 H 0.0934 0.9125 0.2477   0.064369
 H 0.103 0.8266 0.152   0.10026
 H 0.1169 0.7542 0.1949   0.102487
 H 0.0329 0.7976 0.1965   0.088755
 H 0.003 0.7951 0.3706   0.073683
 H 0.9959 0.7708 0.2953   0.057278
 H 0.8996 0.8624 0.327   0.087021
 H 0.9667 0.9233 0.3515   0.095112
 H 0.9583 0.8979 0.2761   0.090075
 H 0.3344 0.0909 0.4209   0.069551
 H 0.3798 0.135 0.3665   0.058651
 H 0.2851 0.1296 0.3657   0.074308
 H 0.2928 0.0696 0.2584   0.042051
 H 0.3877 0.0689 0.2594   0.026915
 H 0.12 0.2186 0.5221   0.119096
 H 0.2529 0.1882 0.5353   0.091192
 H 0.3504 0.2806 0.5212   0.092986
 H 0.3152 0.3999 0.4811   0.110121
 H 0.0312 0.2984 0.4443   0.11843
 H 0.983 0.428 0.4332   0.087261
 H 0.0759 0.5128 0.4093   0.106381
 H 0.2129 0.4628 0.4091   0.120921
 H 0.3582 0.5 0.6001   0.081886
 H 0.4264 0.4897 0.6525   0.051118
 H 0.4026 0.418 0.6027   0.055903
 H 0.3819 0.4172 0.7533   0.065174
 H 0.3981 0.3548 0.6939   0.036336
 H 0.335 0.2994 0.7598   0.049555
 H 0.2775 0.3709 0.7756   0.037443
 H 0.2144 0.1996 0.6746   0.067807
 H 0.3077 0.2112 0.6857   0.048695
 H 0.2499 0.205 0.7463   0.051203
 H 0.1461 0.3343 0.7965   0.075716
 H 0.0927 0.3798 0.8508   0.062732
 H 0.0516 0.3245 0.7951   0.053095
 H 0.9769 0.4334 0.7567   0.054959
 H 0.0138 0.4871 0.8151   0.024459
 C 0.8686 0.8891 0.8704   0.155604
 C 0.8654 0.967 0.8743   -0.237511
 C 0.8441 0.9939 0.9398   -0.319961
 C 0.8407 0.9259 0.9732   0.167816
 C 0.8357 0.9178 0.0452   0.021974
 C 0.9205 0.9221 0.074   -0.085468
 C 0.9839 0.8767 0.0353   -0.311274
 C 0.7842 0.9871 0.0801   -0.090387
 C 0.7719 0.9794 0.154   -0.305925
 C 0.7953 0.841 0.0558   0.178892
 C 0.8184 0.7743 0.0849   -0.287621
 C 0.7529 0.7221 0.0826   -0.286397
 C 0.691 0.76 0.0501   0.125393
 C 0.6019 0.7379 0.0401   0.029476
 C 0.5497 0.7965 0.0829   -0.08427
 C 0.5633 0.7968 0.1552   -0.300061
 C 0.5886 0.6531 0.0574   -0.104813
 C 0.5046 0.6234 0.0484   -0.300715
 C 0.5859 0.743 0.9687   0.201593
 C 0.517 0.7677 0.9374   -0.347698
 C 0.5339 0.7491 0.8692   -0.283297
 C 0.6072 0.7205 0.8648   0.144416
 C 0.6483 0.6768 0.8069   0.006859
 C 0.625 0.5908 0.8011   -0.012181
 C 0.6177 0.549 0.8619   -0.361832
 C 0.6261 0.7166 0.744   -0.073254
 C 0.6739 0.6863 0.6841   -0.313998
 C 0.7373 0.6871 0.8162   0.15971
 C 0.8012 0.6311 0.8191   -0.298604
 C 0.8713 0.6769 0.8213   -0.258344
 C 0.8508 0.7543 0.8215   0.138825
 C 0.8977 0.8302 0.8187   0.030597
 C 0.8802 0.8614 0.7503   -0.092568
 C 0.9096 0.8047 0.6931   -0.307971
 C 0.9891 0.8139 0.8271   -0.099204
 C 0.0461 0.8802 0.8198   -0.290071
 C 0.6659 0.1022 0.8753   0.024806
 C 0.6602 0.0391 0.7703   0.114586
 C 0.8402 0.2549 0.012   -0.156226
 C 0.7614 0.2378 0.0217   -0.088479
 C 0.7035 0.2916 0.012   -0.095475
 C 0.7246 0.3625 0.9885   -0.145313
 C 0.8047 0.3791 0.9755   0.028983
 C 0.8623 0.3265 0.9871   0.03711
 C 0.9495 0.3415 0.9752   -0.204105
 C 0.9638 0.4166 0.9442   -0.086407
 C 0.9086 0.4684 0.9308   -0.103621
 C 0.8198 0.4592 0.949   -0.205786
 C 0.7989 0.5301 0.9972   0.746709
 C 0.0017 0.3402 0.0376   0.745125
 C 0.6175 0.4637 0.1286   0.007153
 C 0.6436 0.3867 0.2167   0.081202
 C 0.696 0.34 0.24   0.09774
 C 0.745 0.2242 0.2031   0.016016
 C 0.9047 0.3609 0.3051   0.022694
 C 0.9777 0.4676 0.2696   0.101486
 C 0.8686 0.1109 0.6296   0.155604
 C 0.8654 0.033 0.6257   -0.237511
 C 0.8441 0.0061 0.5602   -0.319961
 C 0.8407 0.0741 0.5268   0.167816
 C 0.8357 0.0822 0.4548   0.021974
 C 0.9205 0.0779 0.426   -0.085468
 C 0.9839 0.1233 0.4647   -0.311274
 C 0.7842 0.0129 0.4199   -0.090387
 C 0.7719 0.0206 0.346   -0.305924
 C 0.7953 0.159 0.4442   0.178892
 C 0.8184 0.2257 0.4151   -0.287621
 C 0.7529 0.2779 0.4174   -0.286397
 C 0.691 0.24 0.4499   0.125393
 C 0.6019 0.2621 0.4599   0.029476
 C 0.5497 0.2035 0.4171   -0.08427
 C 0.5633 0.2032 0.3448   -0.300061
 C 0.5886 0.3469 0.4426   -0.104813
 C 0.5046 0.3766 0.4516   -0.300715
 C 0.5859 0.257 0.5313   0.201593
 C 0.517 0.2323 0.5626   -0.347698
 C 0.5339 0.2509 0.6308   -0.283297
 C 0.6072 0.2795 0.6352   0.144416
 C 0.6483 0.3232 0.6931   0.006859
 C 0.625 0.4092 0.6989   -0.012181
 C 0.6177 0.451 0.6381   -0.361832
 C 0.6261 0.2834 0.756   -0.073254
 C 0.6739 0.3137 0.8159   -0.313998
 C 0.7373 0.3129 0.6838   0.15971
 C 0.8012 0.3689 0.6809   -0.298604
 C 0.8713 0.3231 0.6787   -0.258344
 C 0.8508 0.2457 0.6785   0.138825
 C 0.8977 0.1698 0.6813   0.030597
 C 0.8802 0.1386 0.7497   -0.092568
 C 0.9096 0.1953 0.8069   -0.307971
 C 0.9891 0.1861 0.6729   -0.099204
 C 0.0461 0.1198 0.6802   -0.290071
 C 0.6659 0.8978 0.6247   0.024805
 C 0.6602 0.9609 0.7297   0.114586
 C 0.8402 0.7451 0.488   -0.156226
 C 0.7614 0.7622 0.4783   -0.088479
 C 0.7035 0.7084 0.488   -0.095475
 C 0.7246 0.6375 0.5115   -0.145313
 C 0.8047 0.6209 0.5245   0.028983
 C 0.8623 0.6735 0.5129   0.03711
 C 0.9495 0.6585 0.5248   -0.204105
 C 0.9638 0.5834 0.5558   -0.086407
 C 0.9086 0.5316 0.5692   -0.103621
 C 0.8198 0.5408 0.551   -0.205786
 C 0.7989 0.4699 0.5028   0.746709
 C 0.0017 0.6598 0.4624   0.745125
 C 0.6175 0.5363 0.3714   0.007153
 C 0.6436 0.6133 0.2833   0.081201
 C 0.696 0.66 0.26   0.09774
 C 0.745 0.7758 0.2969   0.016016
 C 0.9047 0.6391 0.1949   0.022694
 C 0.9777 0.5324 0.2304   0.101486
 C 0.1314 0.1109 0.1296   0.155604
 C 0.1346 0.033 0.1257   -0.237511
 C 0.1559 0.0061 0.0602   -0.319961
 C 0.1593 0.0741 0.0268   0.167816
 C 0.1643 0.0822 0.9548   0.021974
 C 0.0795 0.0779 0.926   -0.085468
 C 0.0161 0.1233 0.9647   -0.311274
 C 0.2158 0.0129 0.9199   -0.090387
 C 0.2281 0.0206 0.846   -0.305925
 C 0.2047 0.159 0.9442   0.178892
 C 0.1816 0.2257 0.9151   -0.287621
 C 0.2471 0.2779 0.9174   -0.286397
 C 0.309 0.24 0.9499   0.125393
 C 0.3981 0.2621 0.9599   0.029476
 C 0.4503 0.2035 0.9171   -0.08427
 C 0.4367 0.2032 0.8448   -0.300061
 C 0.4114 0.3469 0.9426   -0.104813
 C 0.4954 0.3766 0.9516   -0.300715
 C 0.4141 0.257 0.0313   0.201593
 C 0.483 0.2323 0.0626   -0.347698
 C 0.4661 0.2509 0.1308   -0.283297
 C 0.3928 0.2795 0.1352   0.144415
 C 0.3517 0.3232 0.1931   0.006859
 C 0.375 0.4092 0.1989   -0.012181
 C 0.3823 0.451 0.1381   -0.361832
 C 0.3739 0.2834 0.256   -0.073254
 C 0.3261 0.3137 0.3159   -0.313998
 C 0.2627 0.3129 0.1838   0.15971
 C 0.1988 0.3689 0.1809   -0.298604
 C 0.1287 0.3231 0.1787   -0.258344
 C 0.1492 0.2457 0.1785   0.138825
 C 0.1023 0.1698 0.1813   0.030597
 C 0.1198 0.1386 0.2497   -0.092568
 C 0.0904 0.1953 0.3069   -0.307971
 C 0.0109 0.1861 0.1729   -0.099203
 C 0.9539 0.1198 0.1802   -0.290072
 C 0.3341 0.8978 0.1247   0.024806
 C 0.3398 0.9609 0.2297   0.114586
 C 0.1598 0.7451 0.988   -0.156226
 C 0.2386 0.7622 0.9783   -0.088479
 C 0.2965 0.7084 0.988   -0.095475
 C 0.2754 0.6375 0.0115   -0.145313
 C 0.1953 0.6209 0.0245   0.028983
 C 0.1377 0.6735 0.0129   0.03711
 C 0.0505 0.6585 0.0248   -0.204105
 C 0.0362 0.5834 0.0558   -0.086407
 C 0.0914 0.5316 0.0692   -0.103621
 C 0.1802 0.5408 0.051   -0.205786
 C 0.2011 0.4699 0.0028   0.746709
 C 0.9983 0.6598 0.9624   0.745125
 C 0.3825 0.5363 0.8714   0.007153
 C 0.3564 0.6133 0.7833   0.081202
 C 0.304 0.66 0.76   0.09774
 C 0.255 0.7758 0.7969   0.016016
 C 0.0953 0.6391 0.6949   0.022694
 C 0.0223 0.5324 0.7304   0.101487
 C 0.1314 0.8891 0.3704   0.155604
 C 0.1346 0.967 0.3743   -0.237511
 C 0.1559 0.9939 0.4398   -0.319961
 C 0.1593 0.9259 0.4732   0.167816
 C 0.1643 0.9178 0.5452   0.021974
 C 0.0795 0.9221 0.574   -0.085468
 C 0.0161 0.8767 0.5353   -0.311274
 C 0.2158 0.9871 0.5801   -0.090387
 C 0.2281 0.9794 0.654   -0.305925
 C 0.2047 0.841 0.5558   0.178892
 C 0.1816 0.7743 0.5849   -0.287621
 C 0.2471 0.7221 0.5826   -0.286397
 C 0.309 0.76 0.5501   0.125393
 C 0.3981 0.7379 0.5401   0.029476
 C 0.4503 0.7965 0.5829   -0.08427
 C 0.4367 0.7968 0.6552   -0.300061
 C 0.4114 0.6531 0.5574   -0.104813
 C 0.4954 0.6234 0.5484   -0.300715
 C 0.4141 0.743 0.4687   0.201593
 C 0.483 0.7677 0.4374   -0.347698
 C 0.4661 0.7491 0.3692   -0.283297
 C 0.3928 0.7205 0.3648   0.144415
 C 0.3517 0.6768 0.3069   0.006859
 C 0.375 0.5908 0.3011   -0.012181
 C 0.3823 0.549 0.3619   -0.361832
 C 0.3739 0.7166 0.244   -0.073254
 C 0.3261 0.6863 0.1841   -0.313998
 C 0.2627 0.6871 0.3162   0.15971
 C 0.1988 0.6311 0.3191   -0.298604
 C 0.1287 0.6769 0.3213   -0.258344
 C 0.1492 0.7543 0.3215   0.138825
 C 0.1023 0.8302 0.3187   0.030597
 C 0.1198 0.8614 0.2503   -0.092568
 C 0.0904 0.8047 0.1931   -0.307971
 C 0.0109 0.8139 0.3271   -0.099203
 C 0.9539 0.8802 0.3198   -0.290072
 C 0.3341 0.1022 0.3753   0.024806
 C 0.3398 0.0391 0.2703   0.114586
 C 0.1598 0.2549 0.512   -0.156226
 C 0.2386 0.2378 0.5217   -0.088479
 C 0.2965 0.2916 0.512   -0.095475
 C 0.2754 0.3625 0.4885   -0.145313
 C 0.1953 0.3791 0.4755   0.028983
 C 0.1377 0.3265 0.4871   0.03711
 C 0.0505 0.3415 0.4752   -0.204105
 C 0.0362 0.4166 0.4442   -0.086407
 C 0.0914 0.4684 0.4308   -0.103621
 C 0.1802 0.4592 0.449   -0.205786
 C 0.2011 0.5301 0.4972   0.746709
 C 0.9983 0.3402 0.5376   0.745125
 C 0.3825 0.4637 0.6286   0.007153
 C 0.3564 0.3867 0.7167   0.081201
 C 0.304 0.34 0.74   0.09774
 C 0.255 0.2242 0.7031   0.016016
 C 0.0953 0.3609 0.8051   0.022694
 C 0.0223 0.4676 0.7696   0.101486
 N 0.8501 0.8609 0.9313   -0.672635
 N 0.7188 0.831 0.0312   -0.632994
 N 0.6446 0.7202 0.9262   -0.648211
 N 0.7685 0.7622 0.8226   -0.634906
 N 0.8501 0.1391 0.5687   -0.672635
 N 0.7188 0.169 0.4688   -0.632994
 N 0.6446 0.2798 0.5738   -0.648211
 N 0.7685 0.2378 0.6774   -0.634906
 N 0.1499 0.1391 0.0687   -0.672635
 N 0.2812 0.169 0.9688   -0.632994
 N 0.3554 0.2798 0.0738   -0.648211
 N 0.2315 0.2378 0.1774   -0.634906
 N 0.1499 0.8609 0.4313   -0.672635
 N 0.2812 0.831 0.5312   -0.632994
 N 0.3554 0.7202 0.4262   -0.648211
 N 0.2315 0.7622 0.3226   -0.634906
 O 0.6614 0.0318 0.8363   -0.401249
 O 0.7849 0.5948 0.969   -0.71299
 O 0.8003 0.5238 0.0561   -0.620926
 O 0.9732 0.3679 0.0897   -0.645994
 O 0.0731 0.3143 0.0294   -0.691991
 O 0.6755 0.4397 0.1731   -0.395938
 O 0.7549 0.3014 0.2071   -0.343346
 O 0.911 0.4246 0.2662   -0.393768
 O 0.6614 0.9682 0.6637   -0.401249
 O 0.7849 0.4052 0.531   -0.71299
 O 0.8003 0.4762 0.4439   -0.620926
 O 0.9732 0.6321 0.4103   -0.645994
 O 0.0731 0.6857 0.4706   -0.691991
 O 0.6755 0.5603 0.3269   -0.395938
 O 0.7549 0.6986 0.2929   -0.343346
 O 0.911 0.5754 0.2338   -0.393768
 O 0.3386 0.9682 0.1637   -0.401249
 O 0.2151 0.4052 0.031   -0.71299
 O 0.1997 0.4762 0.9439   -0.620926
 O 0.0268 0.6321 0.9103   -0.645994
 O 0.9269 0.6857 0.9706   -0.691991
 O 0.3245 0.5603 0.8269   -0.395938
 O 0.2451 0.6986 0.7929   -0.343346
 O 0.089 0.5754 0.7338   -0.393768
 O 0.3386 0.0318 0.3363   -0.401249
 O 0.2151 0.5948 0.469   -0.71299
 O 0.1997 0.5238 0.5561   -0.620926
 O 0.0268 0.3679 0.5897   -0.645994
 O 0.9269 0.3143 0.5294   -0.691991
 O 0.3245 0.4397 0.6731   -0.395938
 O 0.2451 0.3014 0.7071   -0.343346
 O 0.089 0.4246 0.7662   -0.393768
