{'_ref': 'TBD', '_srcid': 'CAKYAQ_clean', 'submitters': [{'name': 'Dalar Nazarian Jeff Camp and David Sholl', 'email': 'dalar@gatech.edu jcamp6@gatech.edu'}], '_method': 'VASP DFT with PBE;DDEC'}
data_CoH11C18NO4
_symmetry_space_group_name_H-M   'P 1'
_cell_length_a   13.17169960
_cell_length_b   13.19010026
_cell_length_c   16.23470000
_cell_angle_alpha   97.29299780
_cell_angle_beta   94.43700164
_cell_angle_gamma   90.52300015
_symmetry_Int_Tables_number   1
_chemical_formula_structural   CoH11C18NO4
_chemical_formula_sum   'Co6 H66 C108 N6 O24'
_cell_volume   2788.83720374
_cell_formula_units_Z   6
loop_
 _symmetry_equiv_pos_site_id
 _symmetry_equiv_pos_as_xyz
  1  'x, y, z'
loop_
 _atom_site_label
 _atom_site_fract_x
 _atom_site_fract_y
 _atom_site_fract_z
 _atom_site_charge
 Co 0.99773 0.00508 0.58591   0.890187
 Co 0.00227 0.99492 0.41409   0.890615
 Co 0.67495 0.77125 0.88817   0.88261
 Co 0.6794 0.76154 0.71773   0.895848
 Co 0.32505 0.22875 0.11183   0.882037
 Co 0.3206 0.23846 0.28227   0.895777
 H 0.1739 0.01938 0.72177   0.088192
 H 0.19261 0.02594 0.87856   0.132006
 H 0.86002 0.01429 0.87421   0.120793
 H 0.85171 0.00986 0.71887   0.094291
 H 0.11373 0.03231 0.01474   0.11505
 H 0.32784 0.01807 0.38927   0.109325
 H 0.49748 0.0334 0.33074   0.121778
 H 0.31543 0.9671 0.65029   0.09543
 H 0.94939 0.67828 0.60045   0.101191
 H 0.91505 0.51469 0.6563   0.11886
 H 0.07033 0.67263 0.35573   0.102279
 H 0.8261 0.98062 0.27823   0.088182
 H 0.80739 0.97406 0.12144   0.13206
 H 0.13998 0.98571 0.12579   0.120767
 H 0.14829 0.99014 0.28113   0.094284
 H 0.88627 0.96769 0.98526   0.115148
 H 0.67216 0.98193 0.61073   0.109184
 H 0.50252 0.9666 0.66926   0.121864
 H 0.6854 0.03283 0.35018   0.095428
 H 0.05061 0.32172 0.39955   0.101184
 H 0.08495 0.48531 0.3437   0.118848
 H 0.92967 0.32737 0.64427   0.102279
 H 0.34881 0.76472 0.91803   0.092831
 H 0.17984 0.75054 0.9762   0.101302
 H 0.98965 0.75038 0.95472   0.096762
 H 0.00474 0.77471 0.69036   0.105854
 H 0.17416 0.77866 0.63094   0.121488
 H 0.36214 0.77396 0.64961   0.096838
 H 0.70088 0.08544 0.69742   0.103258
 H 0.72052 0.24741 0.63516   0.120487
 H 0.71693 0.43815 0.65133   0.109572
 H 0.64465 0.44729 0.91077   0.120623
 H 0.62976 0.28589 0.97282   0.107593
 H 0.63785 0.09868 0.9602   0.109892
 H 0.83903 0.71936 0.01601   0.092683
 H 0.85764 0.71464 0.17115   0.135945
 H 0.79239 0.7625 0.31289   0.112853
 H 0.55612 0.75885 0.29764   0.099797
 H 0.81469 0.76752 0.42918   0.125756
 H 0.82331 0.77253 0.58597   0.094093
 H 0.50206 0.73617 0.58001   0.092031
 H 0.65119 0.23528 0.08197   0.092459
 H 0.82016 0.24946 0.0238   0.101313
 H 0.01035 0.24962 0.04528   0.096755
 H 0.99526 0.22529 0.30964   0.105872
 H 0.82584 0.22134 0.36906   0.12151
 H 0.63676 0.22608 0.34976   0.096314
 H 0.29912 0.91456 0.30258   0.103019
 H 0.27948 0.75259 0.36484   0.120443
 H 0.28307 0.56185 0.34867   0.109532
 H 0.35535 0.55271 0.08923   0.120577
 H 0.37024 0.71411 0.02718   0.107573
 H 0.36199 0.9025 0.04039   0.109955
 H 0.16097 0.28064 0.98399   0.092654
 H 0.14236 0.28536 0.82885   0.135934
 H 0.20761 0.2375 0.68711   0.112854
 H 0.44388 0.24115 0.70236   0.099818
 H 0.18531 0.23248 0.57082   0.125799
 H 0.17669 0.22747 0.41403   0.09412
 H 0.49794 0.26383 0.41999   0.092074
 H 0.55157 0.83132 0.18535   0.123461
 H 0.54284 0.83613 0.02904   0.091843
 H 0.48292 0.73401 0.42446   0.123967
 H 0.44843 0.16868 0.81465   0.123457
 H 0.45716 0.16387 0.97096   0.091727
 H 0.51708 0.26599 0.57554   0.124023
 C 0.1033 0.0183 0.7581   0.139306
 C 0.1136 0.0208 0.8441   -0.227476
 C 0.0271 0.017 0.8878   0.177311
 C 0.9336 0.0147 0.8416   -0.201364
 C 0.9288 0.0129 0.7563   0.133132
 C 0.0374 0.0128 0.9778   -0.123251
 C 0.1976 0.9968 0.5077   0.650993
 C 0.3111 0.9925 0.5175   -0.098056
 C 0.3676 0.0065 0.4522   -0.121983
 C 0.4748 0.007 0.4608   0.065401
 C 0.5355 0.0215 0.3942   -0.153408
 C 0.3616 0.9785 0.5955   -0.066511
 C 0.003 0.8006 0.487   0.645156
 C 0.0095 0.6871 0.4796   -0.097724
 C 0.9784 0.6346 0.542   -0.109953
 C 0.9815 0.5277 0.5355   0.079257
 C 0.9477 0.4721 0.599   -0.148635
 C 0.0457 0.6312 0.4086   -0.076825
 C 0.8967 0.9817 0.2419   0.139392
 C 0.8864 0.9792 0.1559   -0.227483
 C 0.9729 0.983 0.1122   0.177406
 C 0.0664 0.9853 0.1584   -0.201384
 C 0.0712 0.9871 0.2437   0.133183
 C 0.9626 0.9872 0.0222   -0.123388
 C 0.8024 0.0032 0.4923   0.651111
 C 0.6889 0.0075 0.4825   -0.09855
 C 0.6324 0.9935 0.5478   -0.121807
 C 0.5252 0.993 0.5392   0.06537
 C 0.4645 0.9785 0.6058   -0.153617
 C 0.6384 0.0215 0.4045   -0.066416
 C 0.997 0.1994 0.513   0.645168
 C 0.9905 0.3129 0.5204   -0.09766
 C 0.0216 0.3654 0.458   -0.109997
 C 0.0185 0.4723 0.4645   0.07926
 C 0.0523 0.5279 0.401   -0.148656
 C 0.9543 0.3688 0.5914   -0.076829
 C 0.3664 0.7674 0.7853   -0.087861
 C 0.3092 0.7651 0.8531   -0.118794
 C 0.2024 0.7632 0.8441   0.071172
 C 0.142 0.7561 0.9114   -0.150482
 C 0.0375 0.7558 0.8998   -0.065925
 C 0.9887 0.7621 0.8209   -0.094759
 C 0.0447 0.7684 0.7543   -0.110048
 C 0.1528 0.7672 0.7636   0.071063
 C 0.2126 0.7729 0.6955   -0.148981
 C 0.3161 0.7716 0.706   -0.068256
 C 0.4799 0.7656 0.7963   0.666918
 C 0.8735 0.7654 0.8096   0.654124
 C 0.6683 0.0803 0.8265   -0.102341
 C 0.6856 0.1307 0.7597   -0.112722
 C 0.685 0.2384 0.766   0.072238
 C 0.7037 0.2918 0.6974   -0.166512
 C 0.7015 0.3956 0.7061   -0.067636
 C 0.6803 0.4536 0.7823   -0.074821
 C 0.6619 0.4025 0.8488   -0.120477
 C 0.6638 0.295 0.8424   0.070402
 C 0.6467 0.2418 0.9105   -0.153006
 C 0.65 0.1387 0.9034   -0.07964
 C 0.674 0.9657 0.819   0.643254
 C 0.679 0.5669 0.7901   0.664629
 C 0.7733 0.7436 0.0554   0.139957
 C 0.7833 0.7405 0.1403   -0.227972
 C 0.7039 0.7685 0.1879   0.18618
 C 0.6183 0.8039 0.1482   -0.210682
 C 0.6135 0.8061 0.0624   0.123159
 C 0.7137 0.7632 0.2784   -0.127968
 C 0.6381 0.759 0.3259   -0.113063
 C 0.6485 0.7542 0.4168   0.175832
 C 0.7419 0.7621 0.4622   -0.202584
 C 0.7466 0.7634 0.5479   0.136893
 C 0.5722 0.7442 0.5442   0.142387
 C 0.5617 0.7434 0.4592   -0.209893
 C 0.6336 0.2326 0.2147   -0.088823
 C 0.6908 0.2349 0.1469   -0.118504
 C 0.7976 0.2368 0.1559   0.071072
 C 0.858 0.2439 0.0886   -0.150437
 C 0.9625 0.2442 0.1002   -0.065979
 C 0.0113 0.2379 0.1791   -0.094772
 C 0.9553 0.2316 0.2457   -0.11002
 C 0.8472 0.2328 0.2364   0.071128
 C 0.7874 0.2271 0.3045   -0.148877
 C 0.6839 0.2284 0.294   -0.067444
 C 0.5201 0.2344 0.2037   0.667062
 C 0.1265 0.2346 0.1904   0.654102
 C 0.3317 0.9197 0.1735   -0.103243
 C 0.3144 0.8693 0.2403   -0.112421
 C 0.315 0.7616 0.234   0.072174
 C 0.2963 0.7082 0.3026   -0.166464
 C 0.2985 0.6044 0.2939   -0.067668
 C 0.3197 0.5464 0.2177   -0.074856
 C 0.3381 0.5975 0.1512   -0.120459
 C 0.3362 0.705 0.1576   0.0704
 C 0.3533 0.7582 0.0895   -0.152555
 C 0.35 0.8613 0.0966   -0.079547
 C 0.326 0.0343 0.181   0.643397
 C 0.321 0.4331 0.2099   0.664571
 C 0.2267 0.2564 0.9446   0.139924
 C 0.2167 0.2595 0.8597   -0.227906
 C 0.2961 0.2315 0.8121   0.186065
 C 0.3817 0.1961 0.8518   -0.210643
 C 0.3865 0.1939 0.9376   0.123149
 C 0.2863 0.2368 0.7216   -0.127844
 C 0.3619 0.241 0.6741   -0.11321
 C 0.3515 0.2458 0.5832   0.175915
 C 0.2581 0.2379 0.5378   -0.202573
 C 0.2534 0.2366 0.4521   0.136947
 C 0.4278 0.2558 0.4558   0.14241
 C 0.4383 0.2566 0.5408   -0.209863
 N 0.0128 0.0146 0.7142   -0.284339
 N 0.9872 0.9854 0.2858   -0.284556
 N 0.6901 0.7737 0.016   -0.271963
 N 0.6631 0.7542 0.5894   -0.285546
 N 0.3099 0.2263 0.984   -0.272036
 N 0.3369 0.2458 0.4106   -0.285739
 O 0.1507 0.0027 0.5723   -0.586721
 O 0.8442 0.0053 0.5652   -0.560735
 O 0.9957 0.8488 0.5582   -0.563506
 O 0.9974 0.1587 0.579   -0.575648
 O 0.8493 0.9973 0.4277   -0.586838
 O 0.1558 0.9947 0.4348   -0.560917
 O 0.0043 0.1512 0.4418   -0.563689
 O 0.0026 0.8413 0.421   -0.575669
 O 0.5214 0.7675 0.8685   -0.562878
 O 0.5273 0.7623 0.7313   -0.594028
 O 0.8329 0.764 0.7378   -0.551054
 O 0.827 0.7712 0.8751   -0.596066
 O 0.6783 0.9179 0.7471   -0.565711
 O 0.6732 0.9257 0.8851   -0.572725
 O 0.6743 0.6154 0.8618   -0.572693
 O 0.6811 0.6083 0.7242   -0.572024
 O 0.4786 0.2325 0.1315   -0.562634
 O 0.4727 0.2377 0.2687   -0.593841
 O 0.1671 0.236 0.2622   -0.550978
 O 0.173 0.2288 0.1249   -0.595822
 O 0.3217 0.0821 0.2529   -0.565473
 O 0.3268 0.0743 0.1149   -0.572456
 O 0.3257 0.3846 0.1382   -0.572488
 O 0.3189 0.3917 0.2758   -0.571902
