{'_ref': 'TBD', '_srcid': 'CAKYAQ_clean', 'submitters': [{'name': 'Dalar Nazarian Jeff Camp and David Sholl', 'email': 'dalar@gatech.edu jcamp6@gatech.edu'}], '_method': 'VASP DFT with PBE;DDEC'}
data_CuPH40C40(N4F3)2
_symmetry_space_group_name_H-M   'P 1'
_cell_length_a   10.05000000
_cell_length_b   18.30350000
_cell_length_c   24.89670000
_cell_angle_alpha   90.00000000
_cell_angle_beta   90.00000000
_cell_angle_gamma   90.00000000
_symmetry_Int_Tables_number   1
_chemical_formula_structural   CuPH40C40(N4F3)2
_chemical_formula_sum   'Cu4 P4 H160 C160 N32 F24'
_cell_volume   4579.75232192
_cell_formula_units_Z   4
loop_
 _symmetry_equiv_pos_site_id
 _symmetry_equiv_pos_as_xyz
  1  'x, y, z'
loop_
 _atom_site_label
 _atom_site_fract_x
 _atom_site_fract_y
 _atom_site_fract_z
 _atom_site_charge
 Cu 0.94771 0.56845 0.152811   0.598078
 Cu 0.55229 0.43155 0.652811   0.598078
 Cu 0.05229 0.06845 0.347189   0.598078
 Cu 0.44771 0.93155 0.847189   0.598078
 P 0.6052 0.98763 0.06644   1.73602
 P 0.8948 0.01237 0.56644   1.73602
 P 0.3948 0.48763 0.43356   1.73602
 P 0.1052 0.51237 0.93356   1.73602
 H 0.9817 0.0276 0.9828   0.077124
 H 0.5183 0.9724 0.4828   0.077124
 H 0.0183 0.5276 0.5172   0.077124
 H 0.4817 0.4724 0.0172   0.077124
 H 0.2057 0.6689 0.8719   0.290423
 H 0.2943 0.3311 0.3719   0.290423
 H 0.7943 0.1689 0.6281   0.290423
 H 0.7057 0.8311 0.1281   0.290423
 H 0.4218 0.6248 0.8467   0.06805
 H 0.0782 0.3752 0.3467   0.06805
 H 0.5782 0.1248 0.6533   0.06805
 H 0.9218 0.8752 0.1533   0.06805
 H 0.4245 0.7585 0.8895   0.261098
 H 0.0755 0.2415 0.3895   0.261098
 H 0.5755 0.2585 0.6105   0.261098
 H 0.9245 0.7415 0.1105   0.261098
 H 0.9441 0.8777 0.7839   0.105067
 H 0.5559 0.1223 0.2839   0.105067
 H 0.0559 0.3777 0.7161   0.105067
 H 0.4441 0.6223 0.2161   0.105067
 H 0.7753 0.1269 0.0064   0.291647
 H 0.7247 0.8731 0.5064   0.291647
 H 0.2247 0.6269 0.4936   0.291647
 H 0.2753 0.3731 0.9936   0.291647
 H 0.7164 0.5595 0.9731   0.105735
 H 0.7836 0.4405 0.4731   0.105735
 H 0.2836 0.0595 0.5269   0.105735
 H 0.2164 0.9405 0.0269   0.105735
 H 0.1837 0.125 0.9894   0.271935
 H 0.3163 0.875 0.4894   0.271935
 H 0.8163 0.625 0.5106   0.271935
 H 0.6837 0.375 0.0106   0.271935
 H 0.142 0.8143 0.7867   0.117342
 H 0.358 0.1857 0.2867   0.117342
 H 0.858 0.3143 0.7133   0.117342
 H 0.642 0.6857 0.2133   0.117342
 H 0.9459 0.0383 0.1594   0.100073
 H 0.5541 0.9617 0.6594   0.100073
 H 0.0541 0.5383 0.3406   0.100073
 H 0.4459 0.4617 0.8406   0.100073
 H 0.5838 0.5932 0.9025   0.111646
 H 0.9162 0.4068 0.4025   0.111646
 H 0.4162 0.0932 0.5975   0.111646
 H 0.0838 0.9068 0.0975   0.111646
 H 0.3281 0.7579 0.8034   0.056792
 H 0.1719 0.2421 0.3034   0.056792
 H 0.6719 0.2579 0.6966   0.056792
 H 0.8281 0.7421 0.1966   0.056792
 H 0.9572 0.1644 0.9303   0.058424
 H 0.5428 0.8356 0.4303   0.058424
 H 0.0428 0.6644 0.5697   0.058424
 H 0.4572 0.3356 0.0697   0.058424
 H 0.0036 0.2609 0.9712   0.114361
 H 0.4964 0.7391 0.4712   0.114361
 H 0.9964 0.7609 0.5288   0.114361
 H 0.5036 0.2391 0.0288   0.114361
 H 0.5367 0.7924 0.9669   0.131158
 H 0.9633 0.2076 0.4669   0.131158
 H 0.4633 0.2924 0.5331   0.131158
 H 0.0367 0.7076 0.0331   0.131158
 H 0.9404 0.0443 0.067   0.117037
 H 0.5596 0.9557 0.567   0.117037
 H 0.0596 0.5443 0.433   0.117037
 H 0.4404 0.4557 0.933   0.117037
 H 0.0339 0.3673 0.0175   0.103516
 H 0.4661 0.6327 0.5175   0.103516
 H 0.9661 0.8673 0.4825   0.103516
 H 0.5339 0.1327 0.9825   0.103516
 H 0.7858 0.2964 0.1324   0.100843
 H 0.7142 0.7036 0.6324   0.100843
 H 0.2142 0.7964 0.3676   0.100843
 H 0.2858 0.2036 0.8676   0.100843
 H 0.6335 0.6587 0.8169   0.094246
 H 0.8665 0.3413 0.3169   0.094246
 H 0.3665 0.1587 0.6831   0.094246
 H 0.1335 0.8413 0.1831   0.094246
 H 0.5765 0.7308 0.7918   0.085938
 H 0.9235 0.2692 0.2918   0.085938
 H 0.4235 0.2308 0.7082   0.085938
 H 0.0765 0.7692 0.2082   0.085938
 H 0.7949 0.7452 0.8966   0.080072
 H 0.7051 0.2548 0.3966   0.080072
 H 0.2051 0.2452 0.6034   0.080072
 H 0.2949 0.7548 0.1034   0.080072
 H 0.7459 0.1927 0.0849   0.138774
 H 0.7541 0.8073 0.5849   0.138774
 H 0.2541 0.6927 0.4151   0.138774
 H 0.2459 0.3073 0.9151   0.138774
 H 0.669 0.7591 0.0377   0.093094
 H 0.831 0.2409 0.5377   0.093094
 H 0.331 0.2591 0.4623   0.093094
 H 0.169 0.7409 0.9623   0.093094
 H 0.2927 0.1439 0.1602   0.098773
 H 0.2073 0.8561 0.6602   0.098773
 H 0.7073 0.6439 0.3398   0.098773
 H 0.7927 0.3561 0.8398   0.098773
 H 0.2878 0.1519 0.0693   0.113978
 H 0.2122 0.8481 0.5693   0.113978
 H 0.7122 0.6519 0.4307   0.113978
 H 0.7878 0.3481 0.9307   0.113978
 H 0.1645 0.0073 0.9267   0.087837
 H 0.3355 0.9927 0.4267   0.087837
 H 0.8355 0.5073 0.5733   0.087837
 H 0.6645 0.4927 0.0733   0.087837
 H 0.1417 0.0831 0.8986   0.069738
 H 0.3583 0.9169 0.3986   0.069738
 H 0.8583 0.5831 0.6014   0.069738
 H 0.6417 0.4169 0.1014   0.069738
 H 0.4256 0.7245 0.7109   0.062391
 H 0.0744 0.2755 0.2109   0.062391
 H 0.5744 0.2245 0.7891   0.062391
 H 0.9256 0.7755 0.2891   0.062391
 H 0.3891 0.6483 0.6858   0.065009
 H 0.1109 0.3517 0.1858   0.065009
 H 0.6109 0.1483 0.8142   0.065009
 H 0.8891 0.8517 0.3142   0.065009
 H 0.2689 0.6171 0.7624   0.091127
 H 0.2311 0.3829 0.2624   0.091127
 H 0.7311 0.1171 0.7376   0.091127
 H 0.7689 0.8829 0.2376   0.091127
 H 0.2127 0.6903 0.739   0.081654
 H 0.2873 0.3097 0.239   0.081654
 H 0.7873 0.1903 0.761   0.081654
 H 0.7127 0.8097 0.261   0.081654
 H 0.7732 0.0472 0.9269   0.100935
 H 0.7268 0.9528 0.4269   0.100935
 H 0.2268 0.5472 0.5731   0.100935
 H 0.2732 0.4528 0.0731   0.100935
 H 0.7532 0.1223 0.8976   0.081495
 H 0.7468 0.8777 0.3976   0.081495
 H 0.2468 0.6223 0.6024   0.081495
 H 0.2532 0.3777 0.1024   0.081495
 H 0.9836 0.6785 0.8957   0.133181
 H 0.5164 0.3215 0.3957   0.133181
 H 0.0164 0.1785 0.6043   0.133181
 H 0.4836 0.8215 0.1043   0.133181
 H 0.0498 0.992 0.8447   0.075608
 H 0.4502 0.008 0.3447   0.075608
 H 0.9502 0.492 0.6553   0.075608
 H 0.5498 0.508 0.1553   0.075608
 H 0.9639 0.9633 0.8929   0.07145
 H 0.5361 0.0367 0.3929   0.07145
 H 0.0361 0.4633 0.6071   0.07145
 H 0.4639 0.5367 0.1071   0.07145
 H 0.6062 0.6431 0.7231   0.06904
 H 0.8938 0.3569 0.2231   0.06904
 H 0.3938 0.1431 0.7769   0.06904
 H 0.1062 0.8569 0.2769   0.06904
 H 0.5128 0.5881 0.7537   0.07028
 H 0.9872 0.4119 0.2537   0.07028
 H 0.4872 0.0881 0.7463   0.07028
 H 0.0128 0.9119 0.2463   0.07028
 H 0.9262 0.0981 0.8401   0.062268
 H 0.5738 0.9019 0.3401   0.062268
 H 0.0738 0.5981 0.6599   0.062268
 H 0.4262 0.4019 0.1599   0.062268
 H 0.8273 0.0318 0.8381   0.076498
 H 0.6727 0.9682 0.3381   0.076498
 H 0.1727 0.5318 0.6619   0.076498
 H 0.3273 0.4682 0.1619   0.076498
 C 0.024 0.06963 0.96546   0.093559
 C 0.476 0.93037 0.46546   0.093559
 C 0.976 0.56963 0.53454   0.093559
 C 0.524 0.43037 0.03454   0.093559
 C 0.5421 0.69507 0.92767   0.267651
 C 0.9579 0.30493 0.42767   0.267651
 C 0.4579 0.19507 0.57233   0.267651
 C 0.0421 0.80493 0.07233   0.267651
 C 0.4374 0.67604 0.83726   0.114236
 C 0.0626 0.32396 0.33726   0.114236
 C 0.5626 0.17604 0.66274   0.114236
 C 0.9374 0.82396 0.16274   0.114236
 C 0.7029 0.65471 0.01419   -0.17467
 C 0.7971 0.34529 0.51419   -0.17467
 C 0.2971 0.15471 0.48581   -0.17467
 C 0.2029 0.84529 0.98581   -0.17467
 C 0.1153 0.0983 0.05759   0.260548
 C 0.3847 0.9017 0.55759   0.260548
 C 0.8847 0.5983 0.44241   0.260548
 C 0.6153 0.4017 0.94241   0.260548
 C 0.9535 0.8383 0.80718   -0.007549
 C 0.5465 0.1617 0.30718   -0.007549
 C 0.0465 0.3383 0.69282   -0.007549
 C 0.4535 0.6617 0.19282   -0.007549
 C 0.7806 0.63406 0.05916   0.395007
 C 0.7194 0.36594 0.55916   0.395007
 C 0.2194 0.13406 0.44084   0.395007
 C 0.2806 0.86594 0.94084   0.395007
 C 0.6787 0.60592 0.97236   0.02059
 C 0.8213 0.39408 0.47236   0.02059
 C 0.3213 0.10592 0.52764   0.02059
 C 0.1787 0.89408 0.02764   0.02059
 C 0.0714 0.7995 0.80832   -0.254479
 C 0.4286 0.2005 0.30832   -0.254479
 C 0.9286 0.2995 0.69168   -0.254479
 C 0.5714 0.7005 0.19168   -0.254479
 C 0.0149 0.0612 0.14107   -0.000798
 C 0.4851 0.9388 0.64107   -0.000798
 C 0.9851 0.5612 0.35893   -0.000798
 C 0.5149 0.4388 0.85893   -0.000798
 C 0.5995 0.62626 0.93014   -0.233998
 C 0.9005 0.37374 0.43014   -0.233998
 C 0.4005 0.12626 0.56986   -0.233998
 C 0.0995 0.87374 0.06986   -0.233998
 C 0.8489 0.8188 0.84063   -0.167795
 C 0.6511 0.1812 0.34063   -0.167795
 C 0.1511 0.3188 0.65937   -0.167795
 C 0.3489 0.6812 0.15937   -0.167795
 C 0.8706 0.21417 0.02207   0.262394
 C 0.6294 0.78583 0.52207   0.262394
 C 0.1294 0.71417 0.47793   0.262394
 C 0.3706 0.28583 0.97793   0.262394
 C 0.3134 0.7059 0.81042   0.117
 C 0.1866 0.2941 0.31042   0.117
 C 0.6866 0.2059 0.68958   0.117
 C 0.8134 0.7941 0.18958   0.117
 C 0.9147 0.1231 0.94865   0.109036
 C 0.5853 0.8769 0.44865   0.109036
 C 0.0853 0.6231 0.55135   0.109036
 C 0.4147 0.3769 0.05135   0.109036
 C 0.958 0.26832 0.00328   -0.242453
 C 0.542 0.73168 0.50328   -0.242453
 C 0.042 0.76832 0.49672   -0.242453
 C 0.458 0.23168 0.99672   -0.242453
 C 0.5713 0.74527 0.96858   -0.227072
 C 0.9287 0.25473 0.46858   -0.227072
 C 0.4287 0.24527 0.53142   -0.227072
 C 0.0713 0.75473 0.03142   -0.227072
 C 0.913 0.34301 0.07981   -0.173436
 C 0.587 0.65699 0.57981   -0.173436
 C 0.087 0.84301 0.42019   -0.173436
 C 0.413 0.15699 0.92019   -0.173436
 C 0.0857 0.73889 0.84133   0.2701
 C 0.4143 0.26111 0.34133   0.2701
 C 0.9143 0.23889 0.65867   0.2701
 C 0.5857 0.76111 0.15867   0.2701
 C 0.0116 0.0645 0.08568   -0.226584
 C 0.4884 0.9355 0.58568   -0.226584
 C 0.9884 0.5645 0.41432   -0.226584
 C 0.5116 0.4355 0.91432   -0.226584
 C 0.1188 0.0913 0.1696   -0.168156
 C 0.3812 0.9087 0.6696   -0.168156
 C 0.8812 0.5913 0.3304   -0.168156
 C 0.6188 0.4087 0.8304   -0.168156
 C 0.9774 0.3316 0.03112   0.011679
 C 0.5226 0.6684 0.53112   0.011679
 C 0.0226 0.8316 0.46888   0.011679
 C 0.4774 0.1684 0.96888   0.011679
 C 0.9314 0.41065 0.10821   0.37779
 C 0.5686 0.58935 0.60821   0.37779
 C 0.0686 0.91065 0.39179   0.37779
 C 0.4314 0.08935 0.89179   0.37779
 C 0.8278 0.28944 0.0995   -0.017913
 C 0.6722 0.71056 0.5995   -0.017913
 C 0.1722 0.78944 0.4005   -0.017913
 C 0.3278 0.21056 0.9005   -0.017913
 C 0.5564 0.68 0.79945   -0.206279
 C 0.9436 0.32 0.29945   -0.206279
 C 0.4436 0.18 0.70055   -0.206279
 C 0.0564 0.82 0.20055   -0.206279
 C 0.864 0.7586 0.8739   0.006636
 C 0.636 0.2414 0.3739   0.006636
 C 0.136 0.2586 0.6261   0.006636
 C 0.364 0.7414 0.1261   0.006636
 C 0.8052 0.22726 0.07148   -0.233575
 C 0.6948 0.77274 0.57148   -0.233575
 C 0.1948 0.72726 0.42852   -0.233575
 C 0.3052 0.27274 0.92852   -0.233575
 C 0.6502 0.7254 0.01085   0.005153
 C 0.8498 0.2746 0.51085   0.005153
 C 0.3498 0.2254 0.48915   0.005153
 C 0.1502 0.7746 0.98915   0.005153
 C 0.221 0.1242 0.1415   -0.000699
 C 0.279 0.8758 0.6415   -0.000699
 C 0.779 0.6242 0.3585   -0.000699
 C 0.721 0.3758 0.8585   -0.000699
 C 0.2187 0.1284 0.08716   -0.207637
 C 0.2813 0.8716 0.58716   -0.207637
 C 0.7813 0.6284 0.41284   -0.207637
 C 0.7187 0.3716 0.91284   -0.207637
 C 0.0973 0.0425 0.91601   -0.189572
 C 0.4027 0.9575 0.41601   -0.189572
 C 0.9027 0.5425 0.58399   -0.189572
 C 0.5973 0.4575 0.08399   -0.189572
 C 0.4078 0.6736 0.7192   -0.113908
 C 0.0922 0.3264 0.2192   -0.113908
 C 0.5922 0.1736 0.7808   -0.113908
 C 0.9078 0.8264 0.2808   -0.113908
 C 0.2893 0.6682 0.75623   -0.194323
 C 0.2107 0.3318 0.25623   -0.194323
 C 0.7107 0.1682 0.74377   -0.194323
 C 0.7893 0.8318 0.24377   -0.194323
 C 0.8193 0.0869 0.90903   -0.196198
 C 0.6807 0.9131 0.40903   -0.196198
 C 0.1807 0.5869 0.59097   -0.196198
 C 0.3193 0.4131 0.09097   -0.196198
 C 0.9771 0.7194 0.87377   -0.214503
 C 0.5229 0.2806 0.37377   -0.214503
 C 0.0229 0.2194 0.62623   -0.214503
 C 0.4771 0.7806 0.12623   -0.214503
 C 0.0014 0.0068 0.87661   -0.116813
 C 0.4986 0.9932 0.37661   -0.116813
 C 0.9986 0.5068 0.62339   -0.116813
 C 0.5014 0.4932 0.12339   -0.116813
 C 0.5294 0.6394 0.74651   -0.108256
 C 0.9706 0.3606 0.24651   -0.108256
 C 0.4706 0.1394 0.75349   -0.108256
 C 0.0294 0.8606 0.25349   -0.108256
 C 0.8901 0.0577 0.86071   -0.102379
 C 0.6099 0.9423 0.36071   -0.102379
 C 0.1099 0.5577 0.63929   -0.102379
 C 0.3901 0.4423 0.13929   -0.102379
 C 0.7281 0.8592 0.8426   0.382291
 C 0.7719 0.1408 0.3426   0.382291
 C 0.2719 0.3592 0.6574   0.382291
 C 0.2281 0.6408 0.1574   0.382291
 C 0.1197 0.0868 0.2269   0.383386
 C 0.3803 0.9132 0.7269   0.383386
 C 0.8803 0.5868 0.2731   0.383386
 C 0.6197 0.4132 0.7731   0.383386
 N 0.2003 0.69967 0.84594   -0.403895
 N 0.2997 0.30033 0.34594   -0.403895
 N 0.7997 0.19967 0.65406   -0.403895
 N 0.7003 0.80033 0.15406   -0.403895
 N 0.9458 0.46476 0.12932   -0.445674
 N 0.5542 0.53524 0.62932   -0.445674
 N 0.0542 0.96476 0.37068   -0.445674
 N 0.4458 0.03524 0.87068   -0.445674
 N 0.8411 0.61713 0.09624   -0.469432
 N 0.6589 0.38287 0.59624   -0.469432
 N 0.1589 0.11713 0.40376   -0.469432
 N 0.3411 0.88287 0.90376   -0.469432
 N 0.463 0.71674 0.88629   -0.394437
 N 0.037 0.28326 0.38629   -0.394437
 N 0.537 0.21674 0.61371   -0.394437
 N 0.963 0.78326 0.11371   -0.394437
 N 0.6295 0.8901 0.84456   -0.463588
 N 0.8705 0.1099 0.34456   -0.463588
 N 0.3705 0.3901 0.65544   -0.463588
 N 0.1295 0.6099 0.15544   -0.463588
 N 0.8422 0.15194 0.99516   -0.387864
 N 0.6578 0.84806 0.49516   -0.387864
 N 0.1578 0.65194 0.50484   -0.387864
 N 0.3422 0.34806 0.00484   -0.387864
 N 0.1182 0.10141 0.00326   -0.385838
 N 0.3818 0.89859 0.50326   -0.385838
 N 0.8818 0.60141 0.49674   -0.385838
 N 0.6182 0.39859 0.99674   -0.385838
 N 0.115 0.0825 0.27252   -0.479543
 N 0.385 0.9175 0.77252   -0.479543
 N 0.885 0.5825 0.22748   -0.479543
 N 0.615 0.4175 0.72748   -0.479543
 F 0.7038 0.0124 0.0266   -0.415105
 F 0.7962 0.9876 0.5266   -0.415105
 F 0.2962 0.5124 0.4734   -0.415105
 F 0.2038 0.4876 0.9734   -0.415105
 F 0.6185 0.0656 0.0842   -0.445953
 F 0.8815 0.9344 0.5842   -0.445953
 F 0.3815 0.5656 0.4158   -0.445953
 F 0.1185 0.4344 0.9158   -0.445953
 F 0.501 0.971 0.1094   -0.439738
 F 0.999 0.029 0.6094   -0.439738
 F 0.499 0.471 0.3906   -0.439738
 F 0.000999999999998 0.529 0.8906   -0.439738
 F 0.7132 0.9656 0.1057   -0.424097
 F 0.7868 0.0344 0.6057   -0.424097
 F 0.2868 0.4656 0.3943   -0.424097
 F 0.2132 0.5344 0.8943   -0.424097
 F 0.5946 0.9066 0.0464   -0.428534
 F 0.9054 0.0934 0.5464   -0.428534
 F 0.4054 0.4066 0.4536   -0.428534
 F 0.0946 0.5934 0.9536   -0.428534
 F 0.4938 0.0081 0.0278   -0.434066
 F 0.0062 0.9919 0.5278   -0.434066
 F 0.5062 0.5081 0.4722   -0.434066
 F 0.9938 0.4919 0.9722   -0.434066
