{'_ref': 'TBD', '_srcid': 'CAKYAQ_clean', 'submitters': [{'name': 'Dalar Nazarian Jeff Camp and David Sholl', 'email': 'dalar@gatech.edu jcamp6@gatech.edu'}], '_method': 'VASP DFT with PBE;DDEC'}
data_MnH2(CO)6
_symmetry_space_group_name_H-M   'P 1'
_cell_length_a   18.80720002
_cell_length_b   18.80719960
_cell_length_c   18.80720000
_cell_angle_alpha   59.99999929
_cell_angle_beta   60.00000004
_cell_angle_gamma   59.99999928
_symmetry_Int_Tables_number   1
_chemical_formula_structural   MnH2(CO)6
_chemical_formula_sum   'Mn12 H24 C72 O72'
_cell_volume   4703.89282108
_cell_formula_units_Z   12
loop_
 _symmetry_equiv_pos_site_id
 _symmetry_equiv_pos_as_xyz
  1  'x, y, z'
loop_
 _atom_site_label
 _atom_site_fract_x
 _atom_site_fract_y
 _atom_site_fract_z
 _atom_site_charge
 Mn 0.08566 0.5 0.91434   1.111286
 Mn 0.5 0.08566 0.5   1.111284
 Mn 0.91434 0.5 0.08566   1.111286
 Mn 0.5 0.91434 0.5   1.111284
 Mn 0.08566 0.91434 0.5   1.111286
 Mn 0.5 0.5 0.91434   1.111284
 Mn 0.91434 0.08566 0.5   1.111286
 Mn 0.5 0.5 0.08566   1.111284
 Mn 0.08566 0.5 0.5   1.111284
 Mn 0.5 0.91434 0.08566   1.111285
 Mn 0.91434 0.5 0.5   1.111284
 Mn 0.5 0.08566 0.91434   1.111286
 H 0.2293 0.2293 0.0123   0.11678
 H 0.2293 0.2293 0.5291   0.11678
 H 0.0123 0.5291 0.2293   0.11678
 H 0.5291 0.0123 0.2293   0.11678
 H 0.2293 0.0123 0.5291   0.11678
 H 0.2293 0.5291 0.0123   0.11678
 H 0.0123 0.2293 0.2293   0.11678
 H 0.5291 0.2293 0.2293   0.11678
 H 0.2293 0.5291 0.2293   0.11678
 H 0.2293 0.0123 0.2293   0.11678
 H 0.0123 0.2293 0.5291   0.11678
 H 0.5291 0.2293 0.0123   0.11678
 H 0.7707 0.7707 0.9877   0.11678
 H 0.7707 0.7707 0.4709   0.11678
 H 0.4709 0.9877 0.7707   0.11678
 H 0.9877 0.4709 0.7707   0.11678
 H 0.9877 0.7707 0.4709   0.11678
 H 0.4709 0.7707 0.9877   0.11678
 H 0.7707 0.9877 0.7707   0.11678
 H 0.7707 0.4709 0.7707   0.11678
 H 0.4709 0.7707 0.7707   0.11678
 H 0.9877 0.7707 0.7707   0.11678
 H 0.7707 0.9877 0.4709   0.11678
 H 0.7707 0.4709 0.9877   0.11678
 C 0.2001 0.2001 0.0705   0.040553
 C 0.2001 0.2001 0.5293   0.040555
 C 0.0705 0.5293 0.2001   0.040555
 C 0.5293 0.0705 0.2001   0.040555
 C 0.2001 0.0705 0.5293   0.040555
 C 0.2001 0.5293 0.0705   0.040555
 C 0.0705 0.2001 0.2001   0.040553
 C 0.5293 0.2001 0.2001   0.040555
 C 0.2001 0.5293 0.2001   0.040555
 C 0.2001 0.0705 0.2001   0.040553
 C 0.0705 0.2001 0.5293   0.040555
 C 0.5293 0.2001 0.0705   0.040555
 C 0.7999 0.7999 0.9295   0.040554
 C 0.7999 0.7999 0.4707   0.040555
 C 0.4707 0.9295 0.7999   0.040556
 C 0.9295 0.4707 0.7999   0.040556
 C 0.9295 0.7999 0.4707   0.040556
 C 0.4707 0.7999 0.9295   0.040556
 C 0.7999 0.9295 0.7999   0.040554
 C 0.7999 0.4707 0.7999   0.040555
 C 0.4707 0.7999 0.7999   0.040555
 C 0.9295 0.7999 0.7999   0.040554
 C 0.7999 0.9295 0.4707   0.040555
 C 0.7999 0.4707 0.9295   0.040555
 C 0.1139 0.2427 0.1139   -0.186808
 C 0.0698 0.334 0.0698   0.727294
 C 0.2427 0.1139 0.5295   -0.186808
 C 0.334 0.0698 0.5264   0.727294
 C 0.1139 0.5295 0.1139   -0.186808
 C 0.0698 0.5264 0.0698   0.727295
 C 0.5295 0.1139 0.2427   -0.186809
 C 0.5264 0.0698 0.334   0.727294
 C 0.1139 0.1139 0.5295   -0.186808
 C 0.0698 0.0698 0.5264   0.727295
 C 0.2427 0.5295 0.1139   -0.186808
 C 0.334 0.5264 0.0698   0.727294
 C 0.1139 0.1139 0.2427   -0.186808
 C 0.0698 0.0698 0.334   0.727295
 C 0.5295 0.2427 0.1139   -0.186809
 C 0.5264 0.334 0.0698   0.727294
 C 0.1139 0.5295 0.2427   -0.186808
 C 0.0698 0.5264 0.334   0.727294
 C 0.2427 0.1139 0.1139   -0.186808
 C 0.334 0.0698 0.0698   0.727294
 C 0.1139 0.2427 0.5295   -0.186809
 C 0.0698 0.334 0.5264   0.727294
 C 0.5295 0.1139 0.1139   -0.186808
 C 0.5264 0.0698 0.0698   0.727295
 C 0.7573 0.8861 0.8861   -0.186808
 C 0.666 0.9302 0.9302   0.727295
 C 0.8861 0.7573 0.4705   -0.186808
 C 0.9302 0.666 0.4736   0.727295
 C 0.4705 0.8861 0.8861   -0.186808
 C 0.4736 0.9302 0.9302   0.727296
 C 0.8861 0.4705 0.7573   -0.186808
 C 0.9302 0.4736 0.666   0.727295
 C 0.8861 0.8861 0.4705   -0.186808
 C 0.9302 0.9302 0.4736   0.727296
 C 0.4705 0.7573 0.8861   -0.186808
 C 0.4736 0.666 0.9302   0.727295
 C 0.8861 0.8861 0.7573   -0.186808
 C 0.9302 0.9302 0.666   0.727296
 C 0.7573 0.4705 0.8861   -0.186808
 C 0.666 0.4736 0.9302   0.727295
 C 0.4705 0.8861 0.7573   -0.186808
 C 0.4736 0.9302 0.666   0.727295
 C 0.8861 0.7573 0.8861   -0.186808
 C 0.9302 0.666 0.9302   0.727295
 C 0.7573 0.8861 0.4705   -0.186808
 C 0.666 0.9302 0.4736   0.727295
 C 0.8861 0.4705 0.8861   -0.186808
 C 0.9302 0.4736 0.9302   0.727296
 O 0.1128 0.3696 0.9944   -0.589877
 O 0.3696 0.1128 0.5232   -0.589877
 O 0.9944 0.5232 0.1128   -0.589877
 O 0.5232 0.9944 0.3696   -0.589876
 O 0.1128 0.9944 0.5232   -0.589877
 O 0.3696 0.5232 0.9944   -0.589876
 O 0.9944 0.1128 0.3696   -0.589877
 O 0.5232 0.3696 0.1128   -0.589877
 O 0.1128 0.5232 0.3696   -0.589877
 O 0.3696 0.9944 0.1128   -0.589877
 O 0.9944 0.3696 0.5232   -0.589876
 O 0.5232 0.1128 0.9944   -0.589877
 O 0.6304 0.8872 0.0056   -0.589878
 O 0.8872 0.6304 0.4768   -0.589878
 O 0.4768 0.0056 0.8872   -0.589878
 O 0.0056 0.4768 0.6304   -0.589877
 O 0.0056 0.8872 0.4768   -0.589878
 O 0.4768 0.6304 0.0056   -0.589877
 O 0.8872 0.0056 0.6304   -0.589878
 O 0.6304 0.4768 0.8872   -0.589878
 O 0.4768 0.8872 0.6304   -0.589878
 O 0.0056 0.6304 0.8872   -0.589878
 O 0.6304 0.0056 0.4768   -0.589877
 O 0.8872 0.4768 0.0056   -0.589878
 O 0.8872 0.6304 0.0056   -0.589878
 O 0.6304 0.8872 0.4768   -0.589878
 O 0.0056 0.4768 0.8872   -0.589878
 O 0.4768 0.0056 0.6304   -0.589877
 O 0.8872 0.0056 0.4768   -0.589878
 O 0.6304 0.4768 0.0056   -0.589877
 O 0.0056 0.8872 0.6304   -0.589878
 O 0.4768 0.6304 0.8872   -0.589878
 O 0.8872 0.4768 0.6304   -0.589878
 O 0.6304 0.0056 0.8872   -0.589878
 O 0.0056 0.6304 0.4768   -0.589877
 O 0.4768 0.8872 0.0056   -0.589878
 O 0.3696 0.1128 0.9944   -0.589877
 O 0.1128 0.3696 0.5232   -0.589877
 O 0.5232 0.9944 0.1128   -0.589877
 O 0.9944 0.5232 0.3696   -0.589876
 O 0.9944 0.1128 0.5232   -0.589877
 O 0.5232 0.3696 0.9944   -0.589876
 O 0.1128 0.9944 0.3696   -0.589877
 O 0.3696 0.5232 0.1128   -0.589877
 O 0.5232 0.1128 0.3696   -0.589877
 O 0.9944 0.3696 0.1128   -0.589877
 O 0.3696 0.9944 0.5232   -0.589876
 O 0.1128 0.5232 0.9944   -0.589877
 O 0.1852 0.5224 0.77   -0.07368
 O 0.5224 0.1852 0.5224   -0.073679
 O 0.77 0.5224 0.1852   -0.07368
 O 0.5224 0.77 0.5224   -0.07368
 O 0.1852 0.77 0.5224   -0.073679
 O 0.5224 0.5224 0.77   -0.073679
 O 0.77 0.1852 0.5224   -0.073679
 O 0.5224 0.5224 0.1852   -0.073678
 O 0.1852 0.5224 0.5224   -0.073677
 O 0.5224 0.77 0.1852   -0.073678
 O 0.77 0.5224 0.5224   -0.073679
 O 0.5224 0.1852 0.77   -0.073678
 O 0.4776 0.8148 0.23   -0.073741
 O 0.8148 0.4776 0.4776   -0.07374
 O 0.4776 0.23 0.8148   -0.073741
 O 0.23 0.4776 0.4776   -0.073742
 O 0.23 0.8148 0.4776   -0.07374
 O 0.4776 0.4776 0.23   -0.073741
 O 0.8148 0.23 0.4776   -0.07374
 O 0.4776 0.4776 0.8148   -0.073739
 O 0.4776 0.8148 0.4776   -0.073739
 O 0.23 0.4776 0.8148   -0.07374
 O 0.4776 0.23 0.4776   -0.073741
 O 0.8148 0.4776 0.23   -0.07374
