{'_ref': 'TBD', '_srcid': 'CAKYAQ_clean', 'submitters': [{'name': 'Dalar Nazarian Jeff Camp and David Sholl', 'email': 'dalar@gatech.edu jcamp6@gatech.edu'}], '_method': 'VASP DFT with PBE;DDEC'}
data_Y2P2H25C43O16
_symmetry_space_group_name_H-M   'P 1'
_cell_length_a   10.54600000
_cell_length_b   14.53899999
_cell_length_c   23.37800000
_cell_angle_alpha   107.23099890
_cell_angle_beta   90.00000000
_cell_angle_gamma   90.00000000
_symmetry_Int_Tables_number   1
_chemical_formula_structural   Y2P2H25C43O16
_chemical_formula_sum   'Y4 P4 H50 C86 O32'
_cell_volume   3423.62976836
_cell_formula_units_Z   2
loop_
 _symmetry_equiv_pos_site_id
 _symmetry_equiv_pos_as_xyz
  1  'x, y, z'
loop_
 _atom_site_label
 _atom_site_fract_x
 _atom_site_fract_y
 _atom_site_fract_z
 _atom_site_charge
 Y 0.5671 0.65425 0.72764   1.929255
 Y 0.5671 0.34575 0.77236   1.929255
 Y 0.4329 0.34575 0.27236   1.929255
 Y 0.4329 0.65425 0.22764   1.929255
 P 0.36081 0.26829 0.87779   1.084296
 P 0.36081 0.73171 0.62221   1.084296
 P 0.63919 0.73171 0.12221   1.084296
 P 0.63919 0.26829 0.37779   1.084296
 H 0.5864 0.1642 0.8571   0.098153
 H 0.6469 0.0016 0.8218   0.127191
 H 0.2794 0.9279 0.8134   0.113998
 H 0.2229 0.0874 0.8462   0.084287
 H 0.2359 0.3021 0.7798   0.09864
 H 0.029 0.3201 0.7535   0.119933
 H 0.9061 0.2765 0.9051   0.118162
 H 0.1154 0.2617 0.9327   0.089003
 H 0.38 0.1804 0.9738   0.093702
 H 0.3871 0.238 0.0764   0.113496
 H 0.3737 0.5077 0.0678   0.108634
 H 0.3618 0.4507 0.9651   0.101224
 H 0.5864 0.8358 0.6429   0.098153
 H 0.6469 0.9984 0.6782   0.127191
 H 0.2794 0.0721 0.6866   0.113998
 H 0.2229 0.9126 0.6538   0.084287
 H 0.2359 0.6979 0.7202   0.09864
 H 0.029 0.6799 0.7465   0.119933
 H 0.9061 0.7235 0.5949   0.118162
 H 0.1154 0.7383 0.5673   0.089003
 H 0.38 0.8196 0.5262   0.093702
 H 0.3871 0.762 0.4236   0.113496
 H 0.3737 0.4923 0.4322   0.108634
 H 0.3618 0.5493 0.5349   0.101224
 H 0.4136 0.8358 0.1429   0.098153
 H 0.3531 0.9984 0.1782   0.127191
 H 0.7206 0.0721 0.1866   0.113998
 H 0.7771 0.9126 0.1538   0.084287
 H 0.7641 0.6979 0.2202   0.09864
 H 0.971 0.6799 0.2465   0.119934
 H 0.0939 0.7235 0.0949   0.118163
 H 0.8846 0.7383 0.0673   0.089003
 H 0.62 0.8196 0.0262   0.093702
 H 0.6129 0.762 0.9236   0.113496
 H 0.6263 0.4923 0.9322   0.108634
 H 0.6382 0.5493 0.0349   0.101224
 H 0.4136 0.1642 0.3571   0.098153
 H 0.3531 0.0016 0.3218   0.127191
 H 0.7206 0.9279 0.3134   0.113998
 H 0.7771 0.0874 0.3462   0.084287
 H 0.7641 0.3021 0.2798   0.09864
 H 0.971 0.3201 0.2535   0.119934
 H 0.0939 0.2765 0.4051   0.118163
 H 0.8846 0.2617 0.4327   0.089003
 H 0.62 0.1804 0.4738   0.093702
 H 0.6129 0.238 0.5764   0.113496
 H 0.6263 0.5077 0.5678   0.108634
 H 0.6382 0.4507 0.4651   0.101224
 H 0.2536 0.5 0.75   -0.013802
 H 0.7464 0.5 0.25   -0.013802
 C 0.398 0.1426 0.85413   -0.314194
 C 0.5246 0.1165 0.8477   0.005884
 C 0.5618 0.0188 0.8269   -0.075946
 C 0.4663 0.9491 0.81447   -0.079116
 C 0.342 0.975 0.8217   -0.07018
 C 0.3083 0.0709 0.8414   0.000794
 C 0.5065 0.8439 0.78805   0.608214
 C 0.1988 0.2813 0.85952   -0.309303
 C 0.1706 0.2983 0.8057   0.018375
 C 0.0464 0.3097 0.7901   -0.066137
 C 0.9483 0.3057 0.82795   -0.080034
 C 0.9724 0.2841 0.8806   -0.078252
 C 0.0984 0.2738 0.8966   -0.01678
 C 0.8146 0.3195 0.81035   0.626248
 C 0.3722 0.3093 0.95833   -0.285099
 C 0.3788 0.2464 0.9925   -0.030487
 C 0.3835 0.2813 0.0541   -0.039766
 C 0.383 0.3785 0.08328   -0.126982
 C 0.3749 0.4417 0.049   -0.050136
 C 0.3686 0.4075 0.9874   -0.01074
 C 0.3868 0.4154 0.14936   0.762137
 C 0.398 0.8574 0.64587   -0.314193
 C 0.5246 0.8835 0.6523   0.005885
 C 0.5618 0.9812 0.6731   -0.075946
 C 0.4663 0.0509 0.68553   -0.079115
 C 0.342 0.025 0.6783   -0.07018
 C 0.3083 0.9291 0.6586   0.000794
 C 0.5065 0.1561 0.71195   0.608214
 C 0.1988 0.7187 0.64048   -0.309303
 C 0.1706 0.7017 0.6943   0.018375
 C 0.0464 0.6903 0.7099   -0.066137
 C 0.9483 0.6943 0.67205   -0.080034
 C 0.9724 0.7159 0.6194   -0.078252
 C 0.0984 0.7262 0.6034   -0.01678
 C 0.8146 0.6805 0.68965   0.626248
 C 0.3722 0.6907 0.54167   -0.285099
 C 0.3788 0.7536 0.5075   -0.030487
 C 0.3835 0.7187 0.4459   -0.039766
 C 0.383 0.6215 0.41672   -0.126982
 C 0.3749 0.5583 0.451   -0.050136
 C 0.3686 0.5925 0.5126   -0.01074
 C 0.3868 0.5846 0.35064   0.762137
 C 0.602 0.8574 0.14587   -0.314194
 C 0.4754 0.8835 0.1523   0.005884
 C 0.4382 0.9812 0.1731   -0.075946
 C 0.5337 0.0509 0.18553   -0.079116
 C 0.658 0.025 0.1783   -0.07018
 C 0.6917 0.9291 0.1586   0.000794
 C 0.4935 0.1561 0.21195   0.608214
 C 0.8012 0.7187 0.14048   -0.309303
 C 0.8294 0.7017 0.1943   0.018375
 C 0.9536 0.6903 0.2099   -0.066138
 C 0.0517 0.6943 0.17205   -0.080034
 C 0.0276 0.7159 0.1194   -0.078252
 C 0.9016 0.7262 0.1034   -0.01678
 C 0.1854 0.6805 0.18965   0.626248
 C 0.6278 0.6907 0.04167   -0.285099
 C 0.6212 0.7536 0.0075   -0.030487
 C 0.6165 0.7187 0.9459   -0.039766
 C 0.617 0.6215 0.91672   -0.126982
 C 0.6251 0.5583 0.951   -0.050135
 C 0.6314 0.5925 0.0126   -0.010741
 C 0.6132 0.5846 0.85064   0.762137
 C 0.602 0.1426 0.35413   -0.314193
 C 0.4754 0.1165 0.3477   0.005885
 C 0.4382 0.0188 0.3269   -0.075945
 C 0.5337 0.9491 0.31447   -0.079115
 C 0.658 0.975 0.3217   -0.07018
 C 0.6917 0.0709 0.3414   0.000794
 C 0.4935 0.8439 0.28805   0.608214
 C 0.8012 0.2813 0.35952   -0.309303
 C 0.8294 0.2983 0.3057   0.018375
 C 0.9536 0.3097 0.2901   -0.066138
 C 0.0517 0.3057 0.32795   -0.080034
 C 0.0276 0.2841 0.3806   -0.078252
 C 0.9016 0.2738 0.3966   -0.01678
 C 0.1854 0.3195 0.31035   0.626248
 C 0.6278 0.3093 0.45833   -0.285099
 C 0.6212 0.2464 0.4925   -0.030487
 C 0.6165 0.2813 0.5541   -0.039766
 C 0.617 0.3785 0.58328   -0.126982
 C 0.6251 0.4417 0.549   -0.050135
 C 0.6314 0.4075 0.4874   -0.010741
 C 0.6132 0.4154 0.64936   0.762137
 C 0.3418 0.5 0.75   0.731816
 C 0.6582 0.5 0.25   0.731816
 O 0.6178 0.8224 0.77262   -0.587563
 O 0.4191 0.7803 0.78117   -0.597716
 O 0.794 0.3434 0.76337   -0.555963
 O 0.7213 0.3084 0.84245   -0.569946
 O 0.3803 0.5036 0.17342   -0.663132
 O 0.3992 0.3539 0.17744   -0.651858
 O 0.4481 0.3259 0.85009   -0.768836
 O 0.3877 0.5694 0.73841   -0.63247
 O 0.6178 0.1776 0.72738   -0.587563
 O 0.4191 0.2197 0.71883   -0.597716
 O 0.794 0.6566 0.73663   -0.555963
 O 0.7213 0.6916 0.65755   -0.569946
 O 0.3803 0.4964 0.32658   -0.663132
 O 0.3992 0.6461 0.32256   -0.651858
 O 0.4481 0.6741 0.64991   -0.768836
 O 0.3877 0.4306 0.76159   -0.63247
 O 0.3822 0.1776 0.22738   -0.587563
 O 0.5809 0.2197 0.21883   -0.597716
 O 0.206 0.6566 0.23663   -0.555963
 O 0.2787 0.6916 0.15755   -0.569946
 O 0.6197 0.4964 0.82658   -0.663132
 O 0.6008 0.6461 0.82256   -0.651858
 O 0.5519 0.6741 0.14991   -0.768836
 O 0.6123 0.4306 0.26159   -0.63247
 O 0.3822 0.8224 0.27262   -0.587563
 O 0.5809 0.7803 0.28117   -0.597716
 O 0.206 0.3434 0.26337   -0.555963
 O 0.2787 0.3084 0.34245   -0.569946
 O 0.6197 0.5036 0.67342   -0.663132
 O 0.6008 0.3539 0.67744   -0.651858
 O 0.5519 0.3259 0.35009   -0.768836
 O 0.6123 0.5694 0.23841   -0.63247
