{'_ref': 'TBD', '_srcid': 'CAKYAQ_clean', 'submitters': [{'name': 'Dalar Nazarian Jeff Camp and David Sholl', 'email': 'dalar@gatech.edu jcamp6@gatech.edu'}], '_method': 'VASP DFT with PBE;DDEC'}
data_Sm2P2H25C43O16
_symmetry_space_group_name_H-M   'P 1'
_cell_length_a   10.60300000
_cell_length_b   14.66399989
_cell_length_c   23.68940000
_cell_angle_alpha   107.99400126
_cell_angle_beta   90.00000000
_cell_angle_gamma   90.00000000
_symmetry_Int_Tables_number   1
_chemical_formula_structural   Sm2P2H25C43O16
_chemical_formula_sum   'Sm4 P4 H50 C86 O32'
_cell_volume   3503.13091863
_cell_formula_units_Z   2
loop_
 _symmetry_equiv_pos_site_id
 _symmetry_equiv_pos_as_xyz
  1  'x, y, z'
loop_
 _atom_site_label
 _atom_site_fract_x
 _atom_site_fract_y
 _atom_site_fract_z
 _atom_site_charge
 Sm 0.07247 0.42573 0.77228   2.291299
 Sm 0.07247 0.07427 0.72772   2.291298
 Sm 0.92753 0.57427 0.22772   2.291299
 Sm 0.92753 0.92573 0.27228   2.291298
 P 0.8655 0.60799 0.87837   1.105444
 P 0.8655 0.89201 0.62163   1.105444
 P 0.1345 0.39201 0.12163   1.105444
 P 0.1345 0.10799 0.37837   1.105444
 H 0.7427 0.4793 0.7802   0.099489
 H 0.5382 0.4336 0.7539   0.120876
 H 0.4152 0.6185 0.9069   0.116638
 H 0.6217 0.6653 0.9329   0.092942
 H 0.8707 0.5174 0.9675   0.097555
 H 0.8756 0.5652 0.0697   0.108734
 H 0.8803 0.8377 0.0725   0.115287
 H 0.8803 0.7911 0.9708   0.091081
 H 0.0925 0.6895 0.856   0.103284
 H 0.1494 0.8137 0.8215   0.121493
 H 0.7847 0.8789 0.8097   0.116342
 H 0.7288 0.7544 0.8454   0.088131
 H 0.7427 0.0207 0.7198   0.099489
 H 0.5382 0.0664 0.7461   0.120876
 H 0.4152 0.8815 0.5931   0.116638
 H 0.6217 0.8347 0.5671   0.092942
 H 0.8707 0.9826 0.5325   0.097555
 H 0.8756 0.9348 0.4303   0.108734
 H 0.8803 0.6623 0.4275   0.115287
 H 0.8803 0.7089 0.5292   0.091081
 H 0.0925 0.8105 0.644   0.103284
 H 0.1494 0.6863 0.6785   0.121493
 H 0.7847 0.6211 0.6903   0.116343
 H 0.7288 0.7456 0.6546   0.088131
 H 0.2573 0.5207 0.2198   0.099489
 H 0.4618 0.5664 0.2461   0.120876
 H 0.5848 0.3815 0.0931   0.116639
 H 0.3783 0.3347 0.0671   0.092942
 H 0.1293 0.4826 0.0325   0.097556
 H 0.1244 0.4348 0.9303   0.108733
 H 0.1197 0.1623 0.9275   0.115287
 H 0.1197 0.2089 0.0292   0.091081
 H 0.9075 0.3105 0.144   0.103284
 H 0.8506 0.1863 0.1785   0.121493
 H 0.2153 0.1211 0.1903   0.116342
 H 0.2712 0.2456 0.1546   0.088131
 H 0.2573 0.9793 0.2802   0.099489
 H 0.4618 0.9336 0.2539   0.120876
 H 0.5848 0.1185 0.4069   0.116639
 H 0.3783 0.1653 0.4329   0.092942
 H 0.1293 0.0174 0.4675   0.097556
 H 0.1244 0.0652 0.5697   0.108733
 H 0.1197 0.3377 0.5725   0.115287
 H 0.1197 0.2911 0.4708   0.091081
 H 0.9075 0.1895 0.356   0.103284
 H 0.8506 0.3137 0.3215   0.121493
 H 0.2153 0.3789 0.3097   0.116343
 H 0.2712 0.2544 0.3454   0.088131
 H 0.7598 0.25 0.75   -0.021988
 H 0.2402 0.75 0.25   -0.021988
 C 0.7029 0.575 0.8596   -0.307691
 C 0.6771 0.5069 0.8059   0.013566
 C 0.5547 0.4795 0.7902   -0.061377
 C 0.4562 0.5195 0.8277   -0.083828
 C 0.4811 0.5902 0.8816   -0.074012
 C 0.6047 0.618 0.8973   -0.022602
 C 0.3234 0.4891 0.8107   0.645138
 C 0.8715 0.6492 0.9579   -0.294973
 C 0.8726 0.5824 0.9885   -0.005881
 C 0.8763 0.611 0.0499   -0.051689
 C 0.8812 0.7065 0.0815   -0.120973
 C 0.8798 0.7727 0.0513   -0.046324
 C 0.8776 0.7449 0.9903   -0.02509
 C 0.8817 0.7388 0.1482   0.805692
 C 0.9038 0.7088 0.8535   -0.309331
 C 0.0307 0.7276 0.8467   -0.002343
 C 0.0646 0.802 0.8265   -0.059658
 C 0.9722 0.8607 0.8133   -0.089174
 C 0.8468 0.8416 0.8195   -0.068354
 C 0.8135 0.7662 0.8403   -0.006164
 C 0.0088 0.9393 0.7884   0.636864
 C 0.7029 0.925 0.6404   -0.307691
 C 0.6771 0.9931 0.6941   0.013566
 C 0.5547 0.0205 0.7098   -0.061377
 C 0.4562 0.9805 0.6723   -0.083828
 C 0.4811 0.9098 0.6184   -0.074012
 C 0.6047 0.882 0.6027   -0.022602
 C 0.3234 0.0109 0.6893   0.645138
 C 0.8715 0.8508 0.5421   -0.294973
 C 0.8726 0.9176 0.5115   -0.005881
 C 0.8763 0.889 0.4501   -0.051689
 C 0.8812 0.7935 0.4185   -0.120973
 C 0.8798 0.7273 0.4487   -0.046324
 C 0.8776 0.7551 0.5097   -0.02509
 C 0.8817 0.7612 0.3518   0.805692
 C 0.9038 0.7912 0.6465   -0.309331
 C 0.0307 0.7724 0.6533   -0.002343
 C 0.0646 0.698 0.6735   -0.059658
 C 0.9722 0.6393 0.6867   -0.089174
 C 0.8468 0.6584 0.6805   -0.068354
 C 0.8135 0.7338 0.6597   -0.006163
 C 0.0088 0.5607 0.7116   0.636864
 C 0.2971 0.425 0.1404   -0.307691
 C 0.3229 0.4931 0.1941   0.013566
 C 0.4453 0.5205 0.2098   -0.061377
 C 0.5438 0.4805 0.1723   -0.083828
 C 0.5189 0.4098 0.1184   -0.074012
 C 0.3953 0.382 0.1027   -0.022602
 C 0.6766 0.5109 0.1893   0.645138
 C 0.1285 0.3508 0.0421   -0.294973
 C 0.1274 0.4176 0.0115   -0.005881
 C 0.1237 0.389 0.9501   -0.051689
 C 0.1188 0.2935 0.9185   -0.120973
 C 0.1202 0.2273 0.9487   -0.046324
 C 0.1224 0.2551 0.0097   -0.02509
 C 0.1183 0.2612 0.8518   0.805692
 C 0.0962 0.2912 0.1465   -0.309331
 C 0.9693 0.2724 0.1533   -0.002343
 C 0.9354 0.198 0.1735   -0.059658
 C 0.0278 0.1393 0.1867   -0.089174
 C 0.1532 0.1584 0.1805   -0.068354
 C 0.1865 0.2338 0.1597   -0.006164
 C 0.9912 0.0607 0.2116   0.636864
 C 0.2971 0.075 0.3596   -0.307691
 C 0.3229 0.0069 0.3059   0.013566
 C 0.4453 0.9795 0.2902   -0.061377
 C 0.5438 0.0195 0.3277   -0.083828
 C 0.5189 0.0902 0.3816   -0.074012
 C 0.3953 0.118 0.3973   -0.022602
 C 0.6766 0.9891 0.3107   0.645138
 C 0.1285 0.1492 0.4579   -0.294973
 C 0.1274 0.0824 0.4885   -0.005881
 C 0.1237 0.111 0.5499   -0.051689
 C 0.1188 0.2065 0.5815   -0.120973
 C 0.1202 0.2727 0.5513   -0.046324
 C 0.1224 0.2449 0.4903   -0.02509
 C 0.1183 0.2388 0.6482   0.805692
 C 0.0962 0.2088 0.3535   -0.309331
 C 0.9693 0.2276 0.3467   -0.002343
 C 0.9354 0.302 0.3265   -0.059658
 C 0.0278 0.3607 0.3133   -0.089174
 C 0.1532 0.3416 0.3195   -0.068354
 C 0.1865 0.2662 0.3403   -0.006163
 C 0.9912 0.4393 0.2884   0.636864
 C 0.8475 0.25 0.75   0.803609
 C 0.1525 0.75 0.25   0.803609
 O 0.9524 0.5249 0.8524   -0.842338
 O 0.305 0.4202 0.7632   -0.606291
 O 0.2328 0.5299 0.8426   -0.61557
 O 0.8758 0.6764 0.1736   -0.771353
 O 0.8901 0.8265 0.1742   -0.715507
 O 0.925 0.9946 0.78   -0.636338
 O 0.1212 0.947 0.7735   -0.636036
 O 0.891 0.3282 0.7585   -0.707769
 O 0.9524 0.9751 0.6476   -0.842338
 O 0.305 0.0798 0.7368   -0.606291
 O 0.2328 0.9701 0.6574   -0.61557
 O 0.8758 0.8236 0.3264   -0.771353
 O 0.8901 0.6735 0.3258   -0.715507
 O 0.925 0.5054 0.72   -0.636338
 O 0.1212 0.553 0.7265   -0.636036
 O 0.891 0.1718 0.7415   -0.707769
 O 0.0476 0.4751 0.1476   -0.842338
 O 0.695 0.5798 0.2368   -0.606291
 O 0.7672 0.4701 0.1574   -0.61557
 O 0.1242 0.3236 0.8264   -0.771353
 O 0.1099 0.1735 0.8258   -0.715507
 O 0.075 0.0054 0.22   -0.636338
 O 0.8788 0.053 0.2265   -0.636036
 O 0.109 0.6718 0.2415   -0.707769
 O 0.0476 0.0249 0.3524   -0.842338
 O 0.695 0.9202 0.2632   -0.606291
 O 0.7672 0.0299 0.3426   -0.61557
 O 0.1242 0.1764 0.6736   -0.771353
 O 0.1099 0.3265 0.6742   -0.715507
 O 0.075 0.4946 0.28   -0.636338
 O 0.8788 0.447 0.2735   -0.636036
 O 0.109 0.8282 0.2585   -0.707769
