{'_ref': 'TBD', '_srcid': 'CAKYAQ_clean', 'submitters': [{'name': 'Dalar Nazarian Jeff Camp and David Sholl', 'email': 'dalar@gatech.edu jcamp6@gatech.edu'}], '_method': 'VASP DFT with PBE;DDEC'}
data_Gd2P2H25C43O16
_symmetry_space_group_name_H-M   'P 1'
_cell_length_a   10.49700000
_cell_length_b   14.52800030
_cell_length_c   23.64950000
_cell_angle_alpha   107.78599825
_cell_angle_beta   90.00000000
_cell_angle_gamma   90.00000000
_symmetry_Int_Tables_number   1
_chemical_formula_structural   Gd2P2H25C43O16
_chemical_formula_sum   'Gd4 P4 H50 C86 O32'
_cell_volume   3434.17983366
_cell_formula_units_Z   2
loop_
 _symmetry_equiv_pos_site_id
 _symmetry_equiv_pos_as_xyz
  1  'x, y, z'
loop_
 _atom_site_label
 _atom_site_fract_x
 _atom_site_fract_y
 _atom_site_fract_z
 _atom_site_charge
 Gd 0.58002 0.42455 0.77409   2.192442
 Gd 0.58002 0.07545 0.72591   2.192442
 Gd 0.41998 0.57545 0.22591   2.192442
 Gd 0.41998 0.92455 0.27409   2.192442
 P 0.37693 0.89277 0.62036   1.098386
 P 0.37693 0.60723 0.87964   1.098386
 P 0.62307 0.10723 0.37964   1.098386
 P 0.62307 0.39277 0.12036   1.098386
 H 0.6076 0.8078 0.641   0.106611
 H 0.6636 0.6821 0.6758   0.119411
 H 0.296 0.6226 0.693   0.113308
 H 0.236 0.7492 0.6579   0.096343
 H 0.1326 0.8396 0.5628   0.094591
 H 0.9232 0.8881 0.5884   0.116151
 H 0.0461 0.0662 0.7447   0.121423
 H 0.2533 0.0182 0.7189   0.100333
 H 0.3685 0.9822 0.53   0.100389
 H 0.3669 0.9316 0.428   0.109321
 H 0.4069 0.6574 0.4275   0.117523
 H 0.4064 0.7075 0.5299   0.09085
 H 0.6076 0.6922 0.859   0.106611
 H 0.6636 0.8179 0.8242   0.119412
 H 0.296 0.8774 0.807   0.113307
 H 0.236 0.7508 0.8421   0.096344
 H 0.1326 0.6604 0.9372   0.094591
 H 0.9232 0.6119 0.9116   0.116151
 H 0.0461 0.4338 0.7553   0.121422
 H 0.2533 0.4818 0.7811   0.100333
 H 0.3685 0.5178 0.97   0.100389
 H 0.3669 0.5684 0.072   0.109321
 H 0.4069 0.8426 0.0725   0.117523
 H 0.4064 0.7925 0.9701   0.09085
 H 0.3924 0.1922 0.359   0.106611
 H 0.3364 0.3179 0.3242   0.11941
 H 0.704 0.3774 0.307   0.113308
 H 0.764 0.2508 0.3421   0.096343
 H 0.8674 0.1604 0.4372   0.094591
 H 0.0768 0.1119 0.4116   0.116152
 H 0.9539 0.9338 0.2553   0.121423
 H 0.7467 0.9818 0.2811   0.100333
 H 0.6315 0.0178 0.47   0.100389
 H 0.6331 0.0684 0.572   0.109321
 H 0.5931 0.3426 0.5725   0.117522
 H 0.5936 0.2925 0.4701   0.09085
 H 0.3924 0.3078 0.141   0.106611
 H 0.3364 0.1821 0.1758   0.119411
 H 0.704 0.1226 0.193   0.113307
 H 0.764 0.2492 0.1579   0.096343
 H 0.8674 0.3396 0.0628   0.094591
 H 0.0768 0.3881 0.0884   0.116152
 H 0.9539 0.5662 0.2447   0.121422
 H 0.7467 0.5182 0.2189   0.100333
 H 0.6315 0.4822 0.03   0.100389
 H 0.6331 0.4316 0.928   0.109321
 H 0.5931 0.1574 0.9275   0.117522
 H 0.5936 0.2075 0.0299   0.09085
 H 0.263 0.25 0.75   -0.021161
 H 0.737 0.75 0.25   -0.021161
 C 0.4159 0.7925 0.6465   -0.308616
 C 0.5448 0.77112 0.65162   -0.003065
 C 0.5779 0.6959 0.6724   -0.053759
 C 0.4852 0.64 0.6885   -0.087646
 C 0.3583 0.66022 0.68272   -0.067482
 C 0.3218 0.73611 0.66171   -0.015409
 C 0.5194 0.56215 0.71465   0.623896
 C 0.2129 0.92424 0.63794   -0.305713
 C 0.115 0.8852 0.5991   -0.021024
 C 0.9894 0.9144 0.6145   -0.072745
 C 0.9633 0.98328 0.66918   -0.087359
 C 0.0631 0.02106 0.70806   -0.060529
 C 0.1871 0.99233 0.69273   0.009459
 C 0.83 0.01491 0.68641   0.636754
 C 0.3855 0.8501 0.5411   -0.298159
 C 0.3751 0.9166 0.5095   -0.008049
 C 0.3744 0.88647 0.44847   -0.049614
 C 0.3848 0.78885 0.41735   -0.119675
 C 0.3979 0.72263 0.44813   -0.049385
 C 0.398 0.75276 0.50956   -0.022674
 C 0.38 0.75448 0.35058   0.77813
 C 0.4159 0.7075 0.8535   -0.308616
 C 0.5448 0.72888 0.84838   -0.003064
 C 0.5779 0.8041 0.8276   -0.05376
 C 0.4852 0.86 0.8115   -0.087646
 C 0.3583 0.83978 0.81728   -0.067482
 C 0.3218 0.76389 0.83829   -0.015409
 C 0.5194 0.93785 0.78535   0.623896
 C 0.2129 0.57576 0.86206   -0.305713
 C 0.115 0.6148 0.9009   -0.021024
 C 0.9894 0.5856 0.8855   -0.072745
 C 0.9633 0.51672 0.83082   -0.087359
 C 0.0631 0.47894 0.79194   -0.060529
 C 0.1871 0.50767 0.80727   0.009459
 C 0.83 0.48509 0.81359   0.636754
 C 0.3855 0.6499 0.9589   -0.298159
 C 0.3751 0.5834 0.9905   -0.008049
 C 0.3744 0.61353 0.05153   -0.049614
 C 0.3848 0.71115 0.08265   -0.119675
 C 0.3979 0.77737 0.05187   -0.049385
 C 0.398 0.74724 0.99044   -0.022674
 C 0.38 0.74552 0.14942   0.77813
 C 0.5841 0.2075 0.3535   -0.308616
 C 0.4552 0.22888 0.34838   -0.003065
 C 0.4221 0.3041 0.3276   -0.053759
 C 0.5148 0.36 0.3115   -0.087646
 C 0.6417 0.33978 0.31728   -0.067482
 C 0.6782 0.26389 0.33829   -0.015409
 C 0.4806 0.43785 0.28535   0.623896
 C 0.7871 0.07576 0.36206   -0.305713
 C 0.885 0.1148 0.4009   -0.021024
 C 0.0106 0.0856 0.3855   -0.072744
 C 0.0367 0.01672 0.33082   -0.087359
 C 0.9369 0.97894 0.29194   -0.060529
 C 0.8129 0.00767 0.30727   0.009459
 C 0.17 0.98509 0.31359   0.636754
 C 0.6145 0.1499 0.4589   -0.298159
 C 0.6249 0.0834 0.4905   -0.008049
 C 0.6256 0.11353 0.55153   -0.049614
 C 0.6152 0.21115 0.58265   -0.119675
 C 0.6021 0.27737 0.55187   -0.049385
 C 0.602 0.24724 0.49044   -0.022674
 C 0.62 0.24552 0.64942   0.77813
 C 0.5841 0.2925 0.1465   -0.308616
 C 0.4552 0.27112 0.15162   -0.003065
 C 0.4221 0.1959 0.1724   -0.05376
 C 0.5148 0.14 0.1885   -0.087646
 C 0.6417 0.16022 0.18272   -0.067482
 C 0.6782 0.23611 0.16171   -0.015409
 C 0.4806 0.06215 0.21465   0.623896
 C 0.7871 0.42424 0.13794   -0.305713
 C 0.885 0.3852 0.0991   -0.021024
 C 0.0106 0.4144 0.1145   -0.072744
 C 0.0367 0.48328 0.16918   -0.087359
 C 0.9369 0.52106 0.20806   -0.060528
 C 0.8129 0.49233 0.19273   0.009459
 C 0.17 0.51491 0.18641   0.636754
 C 0.6145 0.3501 0.0411   -0.298159
 C 0.6249 0.4166 0.0095   -0.008049
 C 0.6256 0.38647 0.94847   -0.049614
 C 0.6152 0.28885 0.91735   -0.119675
 C 0.6021 0.22263 0.94813   -0.049385
 C 0.602 0.25276 0.00956   -0.022674
 C 0.62 0.25448 0.85058   0.77813
 C 0.3516 0.25 0.75   0.778412
 C 0.6484 0.75 0.25   0.778412
 O 0.6341 0.55555 0.73152   -0.6197
 O 0.4353 0.50501 0.72167   -0.613307
 O 0.7373 0.97512 0.65412   -0.598938
 O 0.8101 0.08324 0.73436   -0.589967
 O 0.372 0.81689 0.32411   -0.748885
 O 0.381 0.66505 0.32535   -0.680995
 O 0.4633 0.97778 0.6462   -0.824244
 O 0.3971 0.32957 0.75687   -0.697007
 O 0.6341 0.94445 0.76848   -0.6197
 O 0.4353 0.99499 0.77833   -0.613307
 O 0.7373 0.52488 0.84588   -0.598938
 O 0.8101 0.41676 0.76564   -0.589967
 O 0.372 0.68311 0.17589   -0.748885
 O 0.381 0.83495 0.17465   -0.680995
 O 0.4633 0.52222 0.8538   -0.824244
 O 0.3971 0.17043 0.74313   -0.697007
 O 0.3659 0.44445 0.26848   -0.6197
 O 0.5647 0.49499 0.27833   -0.613307
 O 0.2627 0.02488 0.34588   -0.598938
 O 0.1899 0.91676 0.26564   -0.589967
 O 0.628 0.18311 0.67589   -0.748885
 O 0.619 0.33495 0.67465   -0.680995
 O 0.5367 0.02222 0.3538   -0.824244
 O 0.6029 0.67043 0.24313   -0.697007
 O 0.3659 0.05555 0.23152   -0.6197
 O 0.5647 0.00501 0.22167   -0.613307
 O 0.2627 0.47512 0.15412   -0.598938
 O 0.1899 0.58324 0.23436   -0.589967
 O 0.628 0.31689 0.82411   -0.748885
 O 0.619 0.16505 0.82535   -0.680995
 O 0.5367 0.47778 0.1462   -0.824244
 O 0.6029 0.82957 0.25687   -0.697007
