{'_ref': 'TBD', '_srcid': 'CAKYAQ_clean', 'submitters': [{'name': 'Dalar Nazarian Jeff Camp and David Sholl', 'email': 'dalar@gatech.edu jcamp6@gatech.edu'}], '_method': 'VASP DFT with PBE;DDEC'}
data_Lu2P2H25C43O16
_symmetry_space_group_name_H-M   'P 1'
_cell_length_a   10.49320000
_cell_length_b   14.42620008
_cell_length_c   23.22690000
_cell_angle_alpha   107.05200132
_cell_angle_beta   90.00000000
_cell_angle_gamma   90.00000000
_symmetry_Int_Tables_number   1
_chemical_formula_structural   Lu2P2H25C43O16
_chemical_formula_sum   'Lu4 P4 H50 C86 O32'
_cell_volume   3361.45083889
_cell_formula_units_Z   2
loop_
 _symmetry_equiv_pos_site_id
 _symmetry_equiv_pos_as_xyz
  1  'x, y, z'
loop_
 _atom_site_label
 _atom_site_fract_x
 _atom_site_fract_y
 _atom_site_fract_z
 _atom_site_charge
 Lu 0.93397 0.84664 0.77278   1.767679
 Lu 0.93397 0.15336 0.72722   1.767679
 Lu 0.06603 0.15336 0.22722   1.767679
 Lu 0.06603 0.84664 0.27278   1.767679
 P 0.13845 0.76882 0.87747   1.072084
 P 0.13845 0.23118 0.62253   1.072084
 P 0.86155 0.23118 0.12253   1.072084
 P 0.86155 0.76882 0.37747   1.072084
 H 0.8542 0.5005 0.8239   0.117012
 H 0.2212 0.4259 0.8131   0.111023
 H 0.2668 0.8012 0.7777   0.097602
 H 0.4718 0.8186 0.7521   0.11623
 H 0.2785 0.5869 0.8453   0.089811
 H 0.908 0.6608 0.8564   0.102969
 H 0.1062 0.7381 0.0767   0.109997
 H 0.5923 0.7852 0.9075   0.111099
 H 0.1167 0.6793 0.9735   0.093577
 H 0.3834 0.7647 0.9341   0.091884
 H 0.1263 0.0086 0.0683   0.107958
 H 0.1328 0.9519 0.9648   0.099061
 H 0.8542 0.4995 0.6761   0.117012
 H 0.2212 0.5741 0.6869   0.111023
 H 0.2668 0.1988 0.7223   0.097602
 H 0.4718 0.1814 0.7479   0.11623
 H 0.2785 0.4131 0.6547   0.089811
 H 0.908 0.3392 0.6436   0.102969
 H 0.1062 0.2619 0.4233   0.109997
 H 0.5923 0.2148 0.5925   0.111099
 H 0.1167 0.3207 0.5265   0.093577
 H 0.3834 0.2353 0.5659   0.091884
 H 0.1263 0.9914 0.4317   0.107958
 H 0.1328 0.0481 0.5352   0.099061
 H 0.1458 0.4995 0.1761   0.117011
 H 0.7788 0.5741 0.1869   0.111023
 H 0.7332 0.1988 0.2223   0.097602
 H 0.5282 0.1814 0.2479   0.11623
 H 0.7215 0.4131 0.1547   0.089811
 H 0.092 0.3392 0.1436   0.102969
 H 0.8938 0.2619 0.9233   0.109997
 H 0.4077 0.2148 0.0925   0.111099
 H 0.8833 0.3207 0.0265   0.093577
 H 0.6166 0.2353 0.0659   0.091885
 H 0.8737 0.9914 0.9317   0.107958
 H 0.8672 0.0481 0.0352   0.099061
 H 0.1458 0.5005 0.3239   0.117012
 H 0.7788 0.4259 0.3131   0.111023
 H 0.7332 0.8012 0.2777   0.097602
 H 0.5282 0.8186 0.2521   0.116231
 H 0.7215 0.5869 0.3453   0.089811
 H 0.092 0.6608 0.3564   0.102969
 H 0.8938 0.7381 0.5767   0.109997
 H 0.4077 0.7852 0.4075   0.111099
 H 0.8833 0.6793 0.4735   0.093577
 H 0.6166 0.7647 0.4341   0.091885
 H 0.8737 0.0086 0.5683   0.107958
 H 0.8672 0.9519 0.4648   0.099061
 H 0.2442 0.0 0.75   -0.014904
 H 0.7558 0.0 0.25   -0.014904
 C 0.9398 0.518 0.8277   -0.061037
 C 0.302 0.7824 0.85895   -0.30652
 C 0.9959 0.3423 0.7878   0.62584
 C 0.1009 0.642 0.85404   -0.309464
 C 0.1283 0.8095 0.9581   -0.287841
 C 0.5536 0.8064 0.8278   -0.081426
 C 0.6896 0.8214 0.811   0.622283
 C 0.0318 0.4465 0.8133   -0.092778
 C 0.1111 0.9153 0.15074   0.739316
 C 0.1583 0.4734 0.8212   -0.067085
 C 0.3319 0.7982 0.8043   0.015053
 C 0.4541 0.8091 0.7892   -0.06477
 C 0.1927 0.57 0.8408   -0.008446
 C 0.9717 0.6139 0.8474   0.002861
 C 0.1123 0.7815 0.0541   -0.044223
 C 0.5263 0.7889 0.8816   -0.076673
 C 0.1188 0.7458 0.9921   -0.02813
 C 0.4009 0.7767 0.8976   -0.019909
 C 0.1237 0.9422 0.0493   -0.052371
 C 0.1289 0.9082 0.9872   -0.007054
 C 0.1148 0.8788 0.08314   -0.119333
 C 0.9398 0.482 0.6723   -0.061037
 C 0.302 0.2176 0.64105   -0.30652
 C 0.9959 0.6577 0.7122   0.62584
 C 0.1009 0.358 0.64596   -0.309464
 C 0.1283 0.1905 0.5419   -0.287841
 C 0.5536 0.1936 0.6722   -0.081426
 C 0.6896 0.1786 0.689   0.622283
 C 0.0318 0.5535 0.6867   -0.092778
 C 0.1111 0.0847 0.34926   0.739316
 C 0.1583 0.5266 0.6788   -0.067085
 C 0.3319 0.2018 0.6957   0.015053
 C 0.4541 0.1909 0.7108   -0.06477
 C 0.1927 0.43 0.6592   -0.008445
 C 0.9717 0.3861 0.6526   0.002861
 C 0.1123 0.2185 0.4459   -0.044223
 C 0.5263 0.2111 0.6184   -0.076673
 C 0.1188 0.2542 0.5079   -0.02813
 C 0.4009 0.2233 0.6024   -0.019909
 C 0.1237 0.0578 0.4507   -0.052371
 C 0.1289 0.0918 0.5128   -0.007054
 C 0.1148 0.1212 0.41686   -0.119333
 C 0.0602 0.482 0.1723   -0.061037
 C 0.698 0.2176 0.14105   -0.30652
 C 0.0041 0.6577 0.2122   0.62584
 C 0.8991 0.358 0.14596   -0.309464
 C 0.8717 0.1905 0.0419   -0.287841
 C 0.4464 0.1936 0.1722   -0.081426
 C 0.3104 0.1786 0.189   0.622283
 C 0.9682 0.5535 0.1867   -0.092778
 C 0.8889 0.0847 0.84926   0.739316
 C 0.8417 0.5266 0.1788   -0.067085
 C 0.6681 0.2018 0.1957   0.015053
 C 0.5459 0.1909 0.2108   -0.06477
 C 0.8073 0.43 0.1592   -0.008446
 C 0.0283 0.3861 0.1526   0.002861
 C 0.8877 0.2185 0.9459   -0.044222
 C 0.4737 0.2111 0.1184   -0.076673
 C 0.8812 0.2542 0.0079   -0.02813
 C 0.5991 0.2233 0.1024   -0.019909
 C 0.8763 0.0578 0.9507   -0.052371
 C 0.8711 0.0918 0.0128   -0.007054
 C 0.8852 0.1212 0.91686   -0.119333
 C 0.0602 0.518 0.3277   -0.061037
 C 0.698 0.7824 0.35895   -0.30652
 C 0.0041 0.3423 0.2878   0.62584
 C 0.8991 0.642 0.35404   -0.309464
 C 0.8717 0.8095 0.4581   -0.287841
 C 0.4464 0.8064 0.3278   -0.081426
 C 0.3104 0.8214 0.311   0.622283
 C 0.9682 0.4465 0.3133   -0.092778
 C 0.8889 0.9153 0.65074   0.739316
 C 0.8417 0.4734 0.3212   -0.067085
 C 0.6681 0.7982 0.3043   0.015053
 C 0.5459 0.8091 0.2892   -0.06477
 C 0.8073 0.57 0.3408   -0.008445
 C 0.0283 0.6139 0.3474   0.002861
 C 0.8877 0.7815 0.5541   -0.044222
 C 0.4737 0.7889 0.3816   -0.076673
 C 0.8812 0.7458 0.4921   -0.02813
 C 0.5991 0.7767 0.3976   -0.019909
 C 0.8763 0.9422 0.5493   -0.052371
 C 0.8711 0.9082 0.4872   -0.007054
 C 0.8852 0.8788 0.58314   -0.119333
 C 0.1555 0.0 0.75   0.719362
 C 0.8445 0.0 0.25   0.719362
 O 0.0514 0.8263 0.84953   -0.736379
 O 0.7077 0.8447 0.76299   -0.542352
 O 0.0794 0.2781 0.78027   -0.574736
 O 0.884 0.3199 0.77069   -0.577109
 O 0.1207 0.0048 0.1748   -0.63335
 O 0.78 0.8109 0.84324   -0.545514
 O 0.0987 0.8545 0.17877   -0.612946
 O 0.1116 0.9311 0.76258   -0.596123
 O 0.0514 0.1737 0.65047   -0.736379
 O 0.7077 0.1553 0.73701   -0.542352
 O 0.0794 0.7219 0.71973   -0.574736
 O 0.884 0.6801 0.72931   -0.577109
 O 0.1207 0.9952 0.3252   -0.63335
 O 0.78 0.1891 0.65676   -0.545514
 O 0.0987 0.1455 0.32123   -0.612946
 O 0.1116 0.0689 0.73742   -0.596123
 O 0.9486 0.1737 0.15047   -0.736379
 O 0.2923 0.1553 0.23701   -0.542352
 O 0.9206 0.7219 0.21973   -0.574736
 O 0.116 0.6801 0.22931   -0.577109
 O 0.8793 0.9952 0.8252   -0.63335
 O 0.22 0.1891 0.15676   -0.545514
 O 0.9013 0.1455 0.82123   -0.612946
 O 0.8884 0.0689 0.23742   -0.596123
 O 0.9486 0.8263 0.34953   -0.736379
 O 0.2923 0.8447 0.26299   -0.542352
 O 0.9206 0.2781 0.28027   -0.574736
 O 0.116 0.3199 0.27069   -0.577109
 O 0.8793 0.0048 0.6748   -0.63335
 O 0.22 0.8109 0.34324   -0.545514
 O 0.9013 0.8545 0.67877   -0.612946
 O 0.8884 0.9311 0.26258   -0.596123
