{'_ref': 'TBD', '_srcid': 'CAKYAQ_clean', 'submitters': [{'name': 'Dalar Nazarian Jeff Camp and David Sholl', 'email': 'dalar@gatech.edu jcamp6@gatech.edu'}], '_method': 'VASP DFT with PBE;DDEC'}
data_Er2P2H25C43O16
_symmetry_space_group_name_H-M   'P 1'
_cell_length_a   10.45530000
_cell_length_b   14.42480038
_cell_length_c   23.43230000
_cell_angle_alpha   107.50099901
_cell_angle_beta   90.00000000
_cell_angle_gamma   90.00000000
_symmetry_Int_Tables_number   1
_chemical_formula_structural   Er2P2H25C43O16
_chemical_formula_sum   'Er4 P4 H50 C86 O32'
_cell_volume   3370.37592136
_cell_formula_units_Z   2
loop_
 _symmetry_equiv_pos_site_id
 _symmetry_equiv_pos_as_xyz
  1  'x, y, z'
loop_
 _atom_site_label
 _atom_site_fract_x
 _atom_site_fract_y
 _atom_site_fract_z
 _atom_site_charge
 Er 0.9245 0.84855 0.77365   1.394947
 Er 0.9245 0.15145 0.72635   1.394947
 Er 0.0755 0.15145 0.22635   1.394947
 Er 0.0755 0.84855 0.27365   1.394947
 P 0.8723 0.77154 0.37835   1.059189
 P 0.8723 0.22846 0.12165   1.059189
 P 0.1277 0.22846 0.62165   1.059189
 P 0.1277 0.77154 0.87835   1.059189
 H 0.9025 0.6779 0.4708   0.091733
 H 0.9017 0.7322 0.5736   0.111684
 H 0.8709 0.0066 0.5709   0.111764
 H 0.8648 0.9539 0.4688   0.097998
 H 0.6263 0.7691 0.4358   0.099237
 H 0.4161 0.7978 0.4108   0.112674
 H 0.539 0.8264 0.2545   0.118603
 H 0.7468 0.803 0.2795   0.098243
 H 0.1069 0.6642 0.3562   0.107304
 H 0.1598 0.4991 0.3255   0.118481
 H 0.7881 0.4284 0.3105   0.11381
 H 0.7318 0.5885 0.3415   0.09207
 H 0.9025 0.3221 0.0292   0.091733
 H 0.9017 0.2678 0.9264   0.111684
 H 0.8709 0.9934 0.9291   0.111764
 H 0.8648 0.0461 0.0312   0.097998
 H 0.6263 0.2309 0.0642   0.099237
 H 0.4161 0.2022 0.0892   0.112674
 H 0.539 0.1736 0.2455   0.118603
 H 0.7468 0.197 0.2205   0.098243
 H 0.1069 0.3358 0.1438   0.107304
 H 0.1598 0.5009 0.1745   0.118481
 H 0.7881 0.5716 0.1895   0.11381
 H 0.7318 0.4115 0.1585   0.09207
 H 0.0975 0.3221 0.5292   0.091733
 H 0.0983 0.2678 0.4264   0.111684
 H 0.1291 0.9934 0.4291   0.111764
 H 0.1352 0.0461 0.5312   0.097999
 H 0.3737 0.2309 0.5642   0.099237
 H 0.5839 0.2022 0.5892   0.112674
 H 0.461 0.1736 0.7455   0.118603
 H 0.2532 0.197 0.7205   0.098243
 H 0.8931 0.3358 0.6438   0.107304
 H 0.8402 0.5009 0.6745   0.118481
 H 0.2119 0.5716 0.6895   0.11381
 H 0.2682 0.4115 0.6585   0.09207
 H 0.0975 0.6779 0.9708   0.091733
 H 0.0983 0.7322 0.0736   0.111684
 H 0.1291 0.0066 0.0709   0.111764
 H 0.1352 0.9539 0.9688   0.097999
 H 0.3737 0.7691 0.9358   0.099237
 H 0.5839 0.7978 0.9108   0.112674
 H 0.461 0.8264 0.7545   0.118603
 H 0.2532 0.803 0.7795   0.098243
 H 0.8931 0.6642 0.8562   0.107304
 H 0.8402 0.4991 0.8255   0.118481
 H 0.2119 0.4284 0.8105   0.11381
 H 0.2682 0.5885 0.8415   0.09207
 H 0.2421 0.0 0.75   0.019123
 H 0.7579 0.0 0.25   0.019123
 C 0.8797 0.8099 0.4582   -0.287217
 C 0.8937 0.7439 0.4907   -0.028104
 C 0.8943 0.7768 0.5522   -0.051642
 C 0.8843 0.8739 0.5826   -0.107446
 C 0.8751 0.9405 0.5508   -0.057826
 C 0.8721 0.9088 0.4899   -0.003731
 C 0.8826 0.9087 0.6499   0.675944
 C 0.7095 0.7843 0.3591   -0.294828
 C 0.6086 0.7811 0.3998   -0.037869
 C 0.4823 0.7965 0.3841   -0.069483
 C 0.4559 0.8099 0.3293   -0.088019
 C 0.5564 0.8143 0.2906   -0.068322
 C 0.681 0.8008 0.3058   0.016034
 C 0.3214 0.8263 0.3119   0.592178
 C 0.9101 0.6437 0.3533   -0.294566
 C 0.0433 0.617 0.3473   0.001273
 C 0.0743 0.5178 0.3278   -0.059396
 C 0.9837 0.45 0.3126   -0.090294
 C 0.8509 0.4763 0.3193   -0.069614
 C 0.8178 0.5714 0.3384   -0.012272
 C 0.0176 0.3456 0.2866   0.57639
 C 0.8797 0.1901 0.0418   -0.287217
 C 0.8937 0.2561 0.0093   -0.028104
 C 0.8943 0.2232 0.9478   -0.051642
 C 0.8843 0.1261 0.9174   -0.107446
 C 0.8751 0.0595 0.9492   -0.057826
 C 0.8721 0.0912 0.0101   -0.003731
 C 0.8826 0.0913 0.8501   0.675944
 C 0.7095 0.2157 0.1409   -0.294828
 C 0.6086 0.2189 0.1002   -0.037869
 C 0.4823 0.2035 0.1159   -0.069483
 C 0.4559 0.1901 0.1707   -0.088019
 C 0.5564 0.1857 0.2094   -0.068322
 C 0.681 0.1992 0.1942   0.016034
 C 0.3214 0.1737 0.1881   0.592178
 C 0.9101 0.3563 0.1467   -0.294566
 C 0.0433 0.383 0.1527   0.001273
 C 0.0743 0.4822 0.1722   -0.059396
 C 0.9837 0.55 0.1874   -0.090293
 C 0.8509 0.5237 0.1807   -0.069614
 C 0.8178 0.4286 0.1616   -0.012272
 C 0.0176 0.6544 0.2134   0.57639
 C 0.1203 0.1901 0.5418   -0.287216
 C 0.1063 0.2561 0.5093   -0.028104
 C 0.1057 0.2232 0.4478   -0.051642
 C 0.1157 0.1261 0.4174   -0.107446
 C 0.1249 0.0595 0.4492   -0.057826
 C 0.1279 0.0912 0.5101   -0.003731
 C 0.1174 0.0913 0.3501   0.675944
 C 0.2905 0.2157 0.6409   -0.294828
 C 0.3914 0.2189 0.6002   -0.037868
 C 0.5177 0.2035 0.6159   -0.069483
 C 0.5441 0.1901 0.6707   -0.088019
 C 0.4436 0.1857 0.7094   -0.068323
 C 0.319 0.1992 0.6942   0.016034
 C 0.6786 0.1737 0.6881   0.592178
 C 0.0899 0.3563 0.6467   -0.294566
 C 0.9567 0.383 0.6527   0.001273
 C 0.9257 0.4822 0.6722   -0.059396
 C 0.0163 0.55 0.6874   -0.090294
 C 0.1491 0.5237 0.6807   -0.069614
 C 0.1822 0.4286 0.6616   -0.012272
 C 0.9824 0.6544 0.7134   0.57639
 C 0.1203 0.8099 0.9582   -0.287216
 C 0.1063 0.7439 0.9907   -0.028104
 C 0.1057 0.7768 0.0522   -0.051642
 C 0.1157 0.8739 0.0826   -0.107446
 C 0.1249 0.9405 0.0508   -0.057826
 C 0.1279 0.9088 0.9899   -0.003731
 C 0.1174 0.9087 0.1499   0.675944
 C 0.2905 0.7843 0.8591   -0.294828
 C 0.3914 0.7811 0.8998   -0.037868
 C 0.5177 0.7965 0.8841   -0.069483
 C 0.5441 0.8099 0.8293   -0.088019
 C 0.4436 0.8143 0.7906   -0.068323
 C 0.319 0.8008 0.8058   0.016034
 C 0.6786 0.8263 0.8119   0.592178
 C 0.0899 0.6437 0.8533   -0.294566
 C 0.9567 0.617 0.8473   0.001273
 C 0.9257 0.5178 0.8278   -0.059396
 C 0.0163 0.45 0.8126   -0.090294
 C 0.1491 0.4763 0.8193   -0.069613
 C 0.1822 0.5714 0.8384   -0.012272
 C 0.9824 0.3456 0.7866   0.57639
 C 0.1531 0.0 0.75   0.663071
 C 0.8469 0.0 0.25   0.663071
 O 0.8898 0.8452 0.6764   -0.53429
 O 0.8721 0.9989 0.6753   -0.548895
 O 0.2297 0.8172 0.3447   -0.480767
 O 0.3025 0.8497 0.2645   -0.472995
 O 0.1313 0.3218 0.2687   -0.503271
 O 0.9303 0.2805 0.2782   -0.492727
 O 0.9576 0.8285 0.3518   -0.73966
 O 0.1054 0.9292 0.7589   -0.537421
 O 0.8898 0.1548 0.8236   -0.53429
 O 0.8721 0.0011 0.8247   -0.548895
 O 0.2297 0.1828 0.1553   -0.480767
 O 0.3025 0.1503 0.2355   -0.472995
 O 0.1313 0.6782 0.2313   -0.503271
 O 0.9303 0.7195 0.2218   -0.492727
 O 0.9576 0.1715 0.1482   -0.73966
 O 0.1054 0.0708 0.7411   -0.537421
 O 0.1102 0.1548 0.3236   -0.53429
 O 0.1279 0.0011 0.3247   -0.548895
 O 0.7703 0.1828 0.6553   -0.480767
 O 0.6975 0.1503 0.7355   -0.472995
 O 0.8687 0.6782 0.7313   -0.503271
 O 0.0697 0.7195 0.7218   -0.492727
 O 0.0424 0.1715 0.6482   -0.73966
 O 0.8946 0.0708 0.2411   -0.537421
 O 0.1102 0.8452 0.1764   -0.53429
 O 0.1279 0.9989 0.1753   -0.548895
 O 0.7703 0.8172 0.8447   -0.480767
 O 0.6975 0.8497 0.7645   -0.472995
 O 0.8687 0.3218 0.7687   -0.503271
 O 0.0697 0.2805 0.7782   -0.492727
 O 0.0424 0.8285 0.8518   -0.73966
 O 0.8946 0.9292 0.2589   -0.537421
