{'_ref': 'TBD', '_srcid': 'CAKYAQ_clean', 'submitters': [{'name': 'Dalar Nazarian Jeff Camp and David Sholl', 'email': 'dalar@gatech.edu jcamp6@gatech.edu'}], '_method': 'VASP DFT with PBE;DDEC'}
data_CoH15C24N2(O2F3)2
_symmetry_space_group_name_H-M   'P 1'
_cell_length_a   7.27700000
_cell_length_b   14.16289983
_cell_length_c   24.64400000
_cell_angle_alpha   105.68099821
_cell_angle_beta   90.00000000
_cell_angle_gamma   104.88600169
_symmetry_Int_Tables_number   1
_chemical_formula_structural   CoH15C24N2(O2F3)2
_chemical_formula_sum   'Co4 H60 C96 N8 O16 F24'
_cell_volume   2356.70528513
_cell_formula_units_Z   4
loop_
 _symmetry_equiv_pos_site_id
 _symmetry_equiv_pos_as_xyz
  1  'x, y, z'
loop_
 _atom_site_label
 _atom_site_fract_x
 _atom_site_fract_y
 _atom_site_fract_z
 _atom_site_charge
 Co 0.8124 0.93238 0.98864   0.930483
 Co 0.88002 0.06762 0.51136   0.930579
 Co 0.1876 0.06762 0.01136   0.930482
 Co 0.11998 0.93238 0.48864   0.930576
 H 0.5095 0.0852 0.1324   0.100499
 H 0.2948 0.3406 0.3421   0.086849
 H 0.4367 0.1788 0.218   0.116795
 H 0.6784 0.1778 0.3264   0.115639
 H 0.6832 0.7126 0.8902   0.099035
 H 0.3778 0.8402 0.0033   0.093997
 H 0.1206 0.2438 0.3961   0.098189
 H 0.9841 0.3416 0.2512   0.086597
 H 0.0459 0.7228 0.971   0.111259
 H 0.0238 0.6434 0.9116   0.099291
 H 0.357 0.6018 0.8725   0.125772
 H 0.7967 0.6016 0.000799999999998   0.108804
 H 0.0592 0.2428 0.1679   0.09503
 H 0.2897 0.534 0.9607   0.090814
 H 0.5112 0.0852 0.3831   0.10514
 H 0.4243 0.9148 0.3676   0.10142
 H 0.9542 0.6594 0.1579   0.086802
 H 0.2579 0.8212 0.282   0.115907
 H 0.5006 0.8222 0.1736   0.115169
 H 0.9706 0.2874 0.6098   0.099535
 H 0.5376 0.1598 0.4967   0.094297
 H 0.8768 0.7562 0.1039   0.098856
 H 0.6425 0.6584 0.2488   0.086301
 H 0.3231 0.2772 0.529   0.111005
 H 0.3804 0.3566 0.5884   0.099483
 H 0.7552 0.3982 0.6275   0.125348
 H 0.1951 0.3984 0.4992   0.109129
 H 0.8164 0.7572 0.3321   0.094914
 H 0.7557 0.466 0.5393   0.090827
 H 0.426 0.9148 0.1169   0.104053
 H 0.4905 0.9148 0.8676   0.100499
 H 0.7052 0.6594 0.6579   0.086849
 H 0.5633 0.8212 0.782   0.116795
 H 0.3216 0.8222 0.6736   0.115639
 H 0.3168 0.2874 0.1098   0.099035
 H 0.6222 0.1598 0.9967   0.093997
 H 0.8794 0.7562 0.6039   0.098189
 H 0.0159 0.6584 0.7488   0.086597
 H 0.9541 0.2772 0.029   0.111259
 H 0.9762 0.3566 0.0884   0.099291
 H 0.643 0.3982 0.1275   0.125772
 H 0.2033 0.3984 0.9992   0.108804
 H 0.9408 0.7572 0.8321   0.09503
 H 0.7103 0.466 0.0393   0.090814
 H 0.4888 0.9148 0.6169   0.10514
 H 0.5757 0.0852 0.6324   0.10142
 H 0.0458 0.3406 0.8421   0.086803
 H 0.7421 0.1788 0.718   0.115907
 H 0.4994 0.1778 0.8264   0.115169
 H 0.0294 0.7126 0.3902   0.099535
 H 0.4624 0.8402 0.5033   0.094297
 H 0.1232 0.2438 0.8961   0.098856
 H 0.3575 0.3416 0.7512   0.086301
 H 0.6769 0.7228 0.471   0.111005
 H 0.6196 0.6434 0.4116   0.099483
 H 0.2448 0.6018 0.3725   0.125348
 H 0.8049 0.6016 0.5008   0.109129
 H 0.1836 0.2428 0.6679   0.094915
 H 0.2443 0.534 0.4607   0.090827
 H 0.574 0.0852 0.8831   0.104053
 C 0.84372 0.09244 0.08605   0.638995
 C 0.60538 0.13576 0.15648   -0.009609
 C 0.80882 0.40444 0.33998   0.686031
 C 0.63903 0.33706 0.29715   -0.296232
 C 0.33829 0.28918 0.35012   -0.15053
 C 0.56155 0.1929 0.20757   -0.147657
 C 0.56811 0.19242 0.34119   -0.141792
 C 0.70223 0.27126 0.24355   0.070527
 C 0.50672 0.27064 0.32924   0.076585
 C 0.79262 0.15404 0.1411   -0.141612
 C 0.58053 0.72446 0.91083   0.031526
 C 0.41411 0.79482 0.97317   0.150973
 C 0.05163 0.58186 0.97626   0.0244
 C 0.23438 0.23156 0.38288   -0.016815
 C 0.88881 0.28962 0.22781   -0.15569
 C 0.54511 0.40922 0.27707   0.687069
 C 0.09322 0.66764 0.94843   -0.066907
 C 0.40058 0.66256 0.90091   -0.160869
 C 0.87895 0.5609 0.000279999999997   -0.104934
 C 0.93341 0.23082 0.17749   -0.021638
 C 0.17275 0.5205 0.9764   -0.118421
 C 0.29953 0.15586 0.39601   -0.142346
 C 0.19077 0.09774 0.4341   0.642015
 C 0.46706 0.13612 0.37475   -0.021778
 C 0.75128 0.90756 0.41395   0.638523
 C 0.46962 0.86424 0.34352   -0.011303
 C 0.40438 0.59556 0.16002   0.685059
 C 0.30197 0.66294 0.20285   -0.295952
 C 0.04911 0.71082 0.14988   -0.150613
 C 0.36865 0.8071 0.29243   -0.145889
 C 0.37569 0.80758 0.15881   -0.139865
 C 0.43097 0.72874 0.25645   0.069771
 C 0.23608 0.72936 0.17076   0.075603
 C 0.63858 0.84596 0.3589   -0.14115
 C 0.85607 0.27554 0.58917   0.031019
 C 0.61929 0.20518 0.52683   0.151117
 C 0.46977 0.41814 0.52374   0.025254
 C 0.00282 0.76844 0.11712   -0.017401
 C 0.59919 0.71038 0.27219   -0.154935
 C 0.13589 0.59078 0.22293   0.687149
 C 0.42558 0.33236 0.55157   -0.067336
 C 0.73802 0.33744 0.59909   -0.160763
 C 0.31805 0.4391 0.49972   -0.104971
 C 0.70259 0.76918 0.32251   -0.021563
 C 0.65225 0.4795 0.5236   -0.119507
 C 0.14367 0.84414 0.10399   -0.141326
 C 0.09303 0.90226 0.0659   0.641587
 C 0.33094 0.86388 0.12525   -0.021502
 C 0.15628 0.90756 0.91395   0.638995
 C 0.39462 0.86424 0.84352   -0.009608
 C 0.19118 0.59556 0.66002   0.686031
 C 0.36097 0.66294 0.70285   -0.296232
 C 0.66171 0.71082 0.64988   -0.15053
 C 0.43845 0.8071 0.79243   -0.147657
 C 0.43189 0.80758 0.65881   -0.141792
 C 0.29777 0.72874 0.75645   0.070527
 C 0.49328 0.72936 0.67076   0.076585
 C 0.20738 0.84596 0.8589   -0.141612
 C 0.41947 0.27554 0.08917   0.031526
 C 0.58589 0.20518 0.02683   0.150973
 C 0.94837 0.41814 0.02374   0.024399
 C 0.76562 0.76844 0.61712   -0.016815
 C 0.11119 0.71038 0.77219   -0.15569
 C 0.45489 0.59078 0.72293   0.687069
 C 0.90678 0.33236 0.05157   -0.066907
 C 0.59942 0.33744 0.09909   -0.160869
 C 0.12105 0.4391 0.99972   -0.104929
 C 0.06659 0.76918 0.82251   -0.021638
 C 0.82725 0.4795 0.0236   -0.118417
 C 0.70047 0.84414 0.60399   -0.142346
 C 0.80923 0.90226 0.5659   0.642015
 C 0.53294 0.86388 0.62525   -0.021778
 C 0.24872 0.09244 0.58605   0.638523
 C 0.53038 0.13576 0.65648   -0.011302
 C 0.59562 0.40444 0.83998   0.685059
 C 0.69803 0.33706 0.79715   -0.295952
 C 0.95089 0.28918 0.85012   -0.150613
 C 0.63135 0.1929 0.70757   -0.145889
 C 0.62431 0.19242 0.84119   -0.139865
 C 0.56903 0.27126 0.74355   0.069771
 C 0.76392 0.27064 0.82924   0.075603
 C 0.36142 0.15404 0.6411   -0.14115
 C 0.14393 0.72446 0.41083   0.031019
 C 0.38071 0.79482 0.47317   0.151117
 C 0.53023 0.58186 0.47626   0.025253
 C 0.99718 0.23156 0.88288   -0.017401
 C 0.40081 0.28962 0.72781   -0.154935
 C 0.86411 0.40922 0.77707   0.687149
 C 0.57442 0.66764 0.44843   -0.067336
 C 0.26198 0.66256 0.40091   -0.160762
 C 0.68195 0.5609 0.50028   -0.104967
 C 0.29741 0.23082 0.67749   -0.021563
 C 0.34775 0.5205 0.4764   -0.119503
 C 0.85633 0.15586 0.89601   -0.141326
 C 0.90697 0.09774 0.9341   0.641587
 C 0.66906 0.13612 0.87475   -0.021502
 N 0.5879 0.8078 0.95627   -0.359841
 N 0.29503 0.70766 0.94139   0.048673
 N 0.7801 0.1922 0.54373   -0.360234
 N 0.58737 0.29234 0.55861   0.04941
 N 0.4121 0.1922 0.04373   -0.359841
 N 0.70497 0.29234 0.05861   0.048673
 N 0.2199 0.8078 0.45627   -0.360234
 N 0.41263 0.70766 0.44139   0.04941
 O 0.05813 0.12958 0.45856   -0.572845
 O 0.71657 0.01546 0.05767   -0.546871
 O 0.24562 0.02316 0.44039   -0.559587
 O 0.01043 0.1223 0.0719   -0.607774
 O 0.92855 0.87042 0.04144   -0.572908
 O 0.70111 0.98454 0.44233   -0.547452
 O 0.22246 0.97684 0.05961   -0.559795
 O 0.88813 0.8777 0.4281   -0.607187
 O 0.94187 0.87042 0.54144   -0.572844
 O 0.28343 0.98454 0.94233   -0.546871
 O 0.75438 0.97684 0.55961   -0.559588
 O 0.98957 0.8777 0.9281   -0.607774
 O 0.07145 0.12958 0.95856   -0.572908
 O 0.29889 0.01546 0.55767   -0.547452
 O 0.77754 0.02316 0.94039   -0.559795
 O 0.11187 0.1223 0.5719   -0.607187
 F 0.92443 0.35102 0.35089   -0.177695
 F 0.37811 0.35866 0.24742   -0.179613
 F 0.91818 0.4809 0.32207   -0.207357
 F 0.74924 0.44804 0.38941   -0.209112
 F 0.6557 0.45578 0.24361   -0.203805
 F 0.50997 0.48292 0.31979   -0.199767
 F 0.57341 0.64898 0.14911   -0.177996
 F 0.01945 0.64134 0.25258   -0.179103
 F 0.43728 0.5191 0.17793   -0.206899
 F 0.3012 0.55196 0.11059   -0.208613
 F 0.19992 0.54422 0.25639   -0.204334
 F 0.02705 0.51708 0.18021   -0.199421
 F 0.07557 0.64898 0.64911   -0.177695
 F 0.62189 0.64134 0.75258   -0.179613
 F 0.08182 0.5191 0.67793   -0.207357
 F 0.25076 0.55196 0.61059   -0.209112
 F 0.3443 0.54422 0.75639   -0.203805
 F 0.49003 0.51708 0.68021   -0.199767
 F 0.42659 0.35102 0.85089   -0.177996
 F 0.98055 0.35866 0.74742   -0.179103
 F 0.56272 0.4809 0.82207   -0.206899
 F 0.6988 0.44804 0.88941   -0.208613
 F 0.80008 0.45578 0.74361   -0.204334
 F 0.97295 0.48292 0.81979   -0.199421
