{'_ref': 'TBD', '_srcid': 'CAKYAQ_clean', 'submitters': [{'name': 'Dalar Nazarian Jeff Camp and David Sholl', 'email': 'dalar@gatech.edu jcamp6@gatech.edu'}], '_method': 'VASP DFT with PBE;DDEC'}
data_NiH7C9N2O5
_symmetry_space_group_name_H-M   'P 1'
_cell_length_a   6.64000000
_cell_length_b   7.67020000
_cell_length_c   26.17920000
_cell_angle_alpha   90.00000000
_cell_angle_beta   90.00000000
_cell_angle_gamma   90.00000000
_symmetry_Int_Tables_number   1
_chemical_formula_structural   NiH7C9N2O5
_chemical_formula_sum   'Ni4 H28 C36 N8 O20'
_cell_volume   1333.31000694
_cell_formula_units_Z   4
loop_
 _symmetry_equiv_pos_site_id
 _symmetry_equiv_pos_as_xyz
  1  'x, y, z'
loop_
 _atom_site_label
 _atom_site_fract_x
 _atom_site_fract_y
 _atom_site_fract_z
 _atom_site_charge
 Ni 0.00194 0.7536 0.71677   0.946565
 Ni 0.99806 0.7536 0.28323   0.946565
 Ni 0.50194 0.2464 0.78323   0.946562
 Ni 0.49806 0.2464 0.21677   0.946562
 H 0.3808 0.6888 0.6111   0.141665
 H 0.0108 0.9087 0.8513   0.079095
 H 0.907 0.6309 0.8632   0.140703
 H 0.7133 0.7442 0.8565   0.145612
 H 0.5838 0.6778 0.6818   0.094682
 H 0.0371 0.8657 0.6056   0.081444
 H 0.8439 0.8781 0.5316   0.134345
 H 0.6192 0.6888 0.3889   0.141665
 H 0.9892 0.9087 0.1487   0.079095
 H 0.093 0.6309 0.1368   0.140703
 H 0.2867 0.7442 0.1435   0.145612
 H 0.4162 0.6778 0.3182   0.094682
 H 0.9629 0.8657 0.3944   0.081444
 H 0.1561 0.8781 0.4684   0.134343
 H 0.8808 0.3112 0.8889   0.141665
 H 0.5108 0.0913 0.6487   0.079095
 H 0.407 0.3691 0.6368   0.140702
 H 0.2133 0.2558 0.6435   0.14561
 H 0.0838 0.3222 0.8182   0.094683
 H 0.5371 0.1343 0.8944   0.081446
 H 0.3439 0.1219 0.9684   0.134341
 H 0.1192 0.3112 0.1111   0.141664
 H 0.4892 0.0913 0.3513   0.079095
 H 0.593 0.3691 0.3632   0.140702
 H 0.7867 0.2558 0.3565   0.14561
 H 0.9162 0.3222 0.1818   0.094683
 H 0.4629 0.1343 0.1056   0.081446
 H 0.6561 0.1219 0.0316   0.13434
 C 0.5147 0.7234 0.6089   -0.227454
 C 0.957 0.849 0.8211   0.105368
 C 0.8295 0.6976 0.8386   -0.389022
 C 0.8301 0.9782 0.7905   0.608751
 C 0.754 0.5726 0.7978   0.743605
 C 0.6377 0.7174 0.6511   0.193583
 C 0.591 0.78 0.5642   0.239024
 C 0.9043 0.8272 0.6065   0.177798
 C 0.7892 0.836 0.5619   -0.241774
 C 0.4853 0.7234 0.3911   -0.227454
 C 0.043 0.849 0.1789   0.105368
 C 0.1705 0.6976 0.1614   -0.389022
 C 0.1699 0.9782 0.2095   0.608751
 C 0.246 0.5726 0.2022   0.743605
 C 0.3623 0.7174 0.3489   0.193584
 C 0.409 0.78 0.4358   0.239017
 C 0.0957 0.8272 0.3935   0.177798
 C 0.2108 0.836 0.4381   -0.241774
 C 0.0147 0.2766 0.8911   -0.227452
 C 0.457 0.151 0.6789   0.105365
 C 0.3295 0.3024 0.6614   -0.389021
 C 0.3301 0.0218 0.7095   0.608744
 C 0.254 0.4274 0.7022   0.743604
 C 0.1377 0.2826 0.8489   0.193576
 C 0.091 0.22 0.9358   0.239024
 C 0.4043 0.1728 0.8935   0.177797
 C 0.2892 0.164 0.9381   -0.241773
 C 0.9853 0.2766 0.1089   -0.227453
 C 0.543 0.151 0.3211   0.105365
 C 0.6705 0.3024 0.3386   -0.389021
 C 0.6699 0.0218 0.2905   0.608744
 C 0.746 0.4274 0.2978   0.743604
 C 0.8623 0.2826 0.1511   0.193576
 C 0.909 0.22 0.0642   0.239016
 C 0.5957 0.1728 0.1065   0.177797
 C 0.7108 0.164 0.0619   -0.241772
 N 0.8302 0.7655 0.65017   -0.271896
 N 0.4563 0.7812 0.521   -0.144246
 N 0.1698 0.7655 0.34983   -0.271896
 N 0.5437 0.7812 0.479   -0.144174
 N 0.3302 0.2345 0.84983   -0.271895
 N 0.9563 0.2188 0.979   -0.144246
 N 0.6698 0.2345 0.15017   -0.271895
 N 0.0437 0.2188 0.021   -0.144173
 O 0.7169 0.078 0.81417   -0.518258
 O 0.7934 0.5953 0.75133   -0.554144
 O 0.654 0.4457 0.81496   -0.575697
 O 0.85 0.9723 0.74224   -0.484025
 O 0.1206 0.7816 0.79219   -0.425764
 O 0.2831 0.078 0.18583   -0.518257
 O 0.2066 0.5953 0.24867   -0.554144
 O 0.346 0.4457 0.18504   -0.575697
 O 0.15 0.9723 0.25776   -0.484025
 O 0.8794 0.7816 0.20781   -0.425764
 O 0.2169 0.922 0.68583   -0.518257
 O 0.2934 0.4047 0.74867   -0.554143
 O 0.154 0.5543 0.68504   -0.575697
 O 0.35 0.0277 0.75776   -0.484008
 O 0.6206 0.2184 0.70781   -0.425747
 O 0.7831 0.922 0.31417   -0.518256
 O 0.7066 0.4047 0.25133   -0.554143
 O 0.846 0.5543 0.31496   -0.575697
 O 0.65 0.0277 0.24224   -0.484008
 O 0.3794 0.2184 0.29219   -0.425747
