{'_ref': 'TBD', '_srcid': 'CAKYAQ_clean', 'submitters': [{'name': 'Dalar Nazarian Jeff Camp and David Sholl', 'email': 'dalar@gatech.edu jcamp6@gatech.edu'}], '_method': 'VASP DFT with PBE;DDEC'}
data_NiH8C10NO5
_symmetry_space_group_name_H-M   'P 1'
_cell_length_a   6.68560000
_cell_length_b   7.63770000
_cell_length_c   26.99670000
_cell_angle_alpha   90.00000000
_cell_angle_beta   90.00000000
_cell_angle_gamma   90.00000000
_symmetry_Int_Tables_number   1
_chemical_formula_structural   NiH8C10NO5
_chemical_formula_sum   'Ni4 H32 C40 N4 O20'
_cell_volume   1378.52188564
_cell_formula_units_Z   4
loop_
 _symmetry_equiv_pos_site_id
 _symmetry_equiv_pos_as_xyz
  1  'x, y, z'
loop_
 _atom_site_label
 _atom_site_fract_x
 _atom_site_fract_y
 _atom_site_fract_z
 _atom_site_charge
 Ni 0.49965 0.74604 0.28242   0.951588
 Ni 0.50035 0.74604 0.71758   0.951588
 Ni 0.99965 0.25396 0.21758   0.951584
 Ni 0.000349999999997 0.25396 0.78242   0.951584
 H 0.3539 0.619 0.4613   0.121795
 H 0.5076 0.5951 0.1514   0.074919
 H 0.8884 0.8037 0.3865   0.128248
 H 0.5323 0.6261 0.3902   0.07595
 H 0.0827 0.8252 0.3179   0.094005
 H 0.8305 0.7119 0.4717   0.106473
 H 0.4042 0.8711 0.1411   0.138598
 H 0.2132 0.7558 0.1476   0.145907
 H 0.6461 0.619 0.5387   0.121791
 H 0.4924 0.5951 0.8486   0.074919
 H 0.1116 0.8037 0.6135   0.128248
 H 0.4677 0.6261 0.6098   0.07595
 H 0.9173 0.8252 0.6821   0.094005
 H 0.1695 0.7119 0.5283   0.106477
 H 0.5958 0.8711 0.8589   0.138598
 H 0.7868 0.7558 0.8524   0.145907
 H 0.8539 0.381 0.0387   0.121789
 H 0.0076 0.4049 0.3486   0.074919
 H 0.3884 0.1963 0.1135   0.128249
 H 0.0323 0.3739 0.1098   0.075952
 H 0.5827 0.1748 0.1821   0.094006
 H 0.3305 0.2881 0.0283   0.106471
 H 0.9042 0.1289 0.3589   0.138599
 H 0.7132 0.2442 0.3524   0.145902
 H 0.1461 0.381 0.9613   0.121785
 H 0.9924 0.4049 0.6514   0.074919
 H 0.6116 0.1963 0.8865   0.128249
 H 0.9677 0.3739 0.8902   0.075952
 H 0.4173 0.1748 0.8179   0.094006
 H 0.6695 0.2881 0.9717   0.106476
 H 0.0958 0.1289 0.6411   0.138599
 H 0.2868 0.2442 0.6476   0.145902
 C 0.0957 0.7148 0.4322   0.136747
 C 0.2951 0.66 0.4323   -0.226558
 C 0.4547 0.6541 0.1809   0.109127
 C 0.0222 0.7712 0.3885   -0.212377
 C 0.4017 0.6679 0.3898   0.161774
 C 0.1392 0.7819 0.3469   0.198478
 C 0.2526 0.9267 0.2039   0.756017
 C 0.9681 0.7131 0.4767   -0.118038
 C 0.3283 0.8032 0.1649   -0.398621
 C 0.3268 0.5208 0.2112   0.605586
 C 0.9043 0.7148 0.5678   0.136744
 C 0.7049 0.66 0.5677   -0.226558
 C 0.5453 0.6541 0.8191   0.109127
 C 0.9778 0.7712 0.6115   -0.212377
 C 0.5983 0.6679 0.6102   0.161774
 C 0.8608 0.7819 0.6531   0.198478
 C 0.7474 0.9267 0.7961   0.756017
 C 0.0319 0.7131 0.5233   -0.118054
 C 0.6717 0.8032 0.8351   -0.398621
 C 0.6732 0.5208 0.7888   0.605586
 C 0.5957 0.2852 0.0678   0.136747
 C 0.7951 0.34 0.0677   -0.226555
 C 0.9547 0.3459 0.3191   0.109125
 C 0.5222 0.2288 0.1115   -0.212378
 C 0.9017 0.3321 0.1102   0.161773
 C 0.6392 0.2181 0.1531   0.198483
 C 0.7526 0.0733 0.2961   0.756016
 C 0.4681 0.2869 0.0233   -0.118038
 C 0.8283 0.1968 0.3351   -0.39862
 C 0.8268 0.4792 0.2888   0.605587
 C 0.4043 0.2852 0.9322   0.136743
 C 0.2049 0.34 0.9323   -0.226556
 C 0.0453 0.3459 0.6809   0.109125
 C 0.4778 0.2288 0.8885   -0.212377
 C 0.0983 0.3321 0.8898   0.161772
 C 0.3608 0.2181 0.8469   0.198482
 C 0.2474 0.0733 0.7039   0.756016
 C 0.5319 0.2869 0.9767   -0.118054
 C 0.1717 0.1968 0.6649   -0.39862
 C 0.1732 0.4792 0.7112   0.605587
 N 0.3295 0.7331 0.3464   -0.282096
 N 0.6705 0.7331 0.6536   -0.282096
 N 0.8295 0.2669 0.1536   -0.282096
 N 0.1705 0.2669 0.8464   -0.282096
 O 0.6176 0.7193 0.2094   -0.412129
 O 0.2911 0.9043 0.2487   -0.557536
 O 0.2158 0.42 0.188   -0.524538
 O 0.3494 0.5259 0.2576   -0.484948
 O 0.1508 0.0517 0.1872   -0.588387
 O 0.3824 0.7193 0.7906   -0.412129
 O 0.7089 0.9043 0.7513   -0.557536
 O 0.7842 0.42 0.812   -0.524538
 O 0.6506 0.5259 0.7424   -0.484948
 O 0.8492 0.0517 0.8128   -0.588387
 O 0.1176 0.2807 0.2906   -0.412101
 O 0.7911 0.0957 0.2513   -0.557533
 O 0.7158 0.58 0.312   -0.524538
 O 0.8494 0.4741 0.2424   -0.484921
 O 0.6508 0.9483 0.3128   -0.588388
 O 0.8824 0.2807 0.7094   -0.412101
 O 0.2089 0.0957 0.7487   -0.557533
 O 0.2842 0.58 0.688   -0.524538
 O 0.1506 0.4741 0.7576   -0.484921
 O 0.3492 0.9483 0.6872   -0.588388
