{'_ref': 'TBD', '_srcid': 'CAKYAQ_clean', 'submitters': [{'name': 'Dalar Nazarian Jeff Camp and David Sholl', 'email': 'dalar@gatech.edu jcamp6@gatech.edu'}], '_method': 'VASP DFT with PBE;DDEC'}
data_Cd3H34C54(NO6)2
_symmetry_space_group_name_H-M   'P 1'
_cell_length_a   9.42980000
_cell_length_b   13.31849974
_cell_length_c   23.22400000
_cell_angle_alpha   94.58399972
_cell_angle_beta   90.00000000
_cell_angle_gamma   90.00000000
_symmetry_Int_Tables_number   1
_chemical_formula_structural   Cd3H34C54(NO6)2
_chemical_formula_sum   'Cd6 H68 C108 N4 O24'
_cell_volume   2907.39057919
_cell_formula_units_Z   2
loop_
 _symmetry_equiv_pos_site_id
 _symmetry_equiv_pos_as_xyz
  1  'x, y, z'
loop_
 _atom_site_label
 _atom_site_fract_x
 _atom_site_fract_y
 _atom_site_fract_z
 _atom_site_charge
 Cd 0.34797 0.02746 0.95459   1.061785
 Cd 0.34797 0.47254 0.54541   1.061785
 Cd 0.65203 0.97254 0.04541   1.061785
 Cd 0.65203 0.52746 0.45459   1.061785
 Cd 0.0 0.5 0.5   1.254124
 Cd 0.0 0.0 0.0   1.254124
 H 0.1471 0.3356 0.7235   0.094399
 H 0.984 0.3399 0.7971   0.092421
 H 0.7377 0.5153 0.712   0.092034
 H 0.8964 0.5081 0.6368   0.088381
 H 0.6442 0.4433 0.7928   0.09449
 H 0.9634 0.5607 0.8368   0.102095
 H 0.9817 0.7125 0.892   0.090754
 H 0.5704 0.705 0.9247   0.095368
 H 0.5494 0.5578 0.8687   0.109693
 H 0.5623 0.2883 0.8114   0.110037
 H 0.5399 0.1586 0.8714   0.091358
 H 0.8841 0.2594 0.9587   0.101707
 H 0.9009 0.3905 0.9003   0.110313
 H 0.5747 0.9328 0.8611   0.07891
 H 0.5855 0.8328 0.7763   0.129927
 H 0.1896 0.7453 0.8037   0.134201
 H 0.194 0.8404 0.8897   0.0877
 H 0.1471 0.1644 0.7765   0.0944
 H 0.984 0.1601 0.7029   0.092421
 H 0.7377 0.9847 0.788   0.092034
 H 0.8964 0.9919 0.8632   0.088381
 H 0.6442 0.0567 0.7072   0.09449
 H 0.9634 0.9393 0.6632   0.102095
 H 0.9817 0.7875 0.608   0.090754
 H 0.5704 0.795 0.5753   0.095368
 H 0.5494 0.9422 0.6313   0.109693
 H 0.5623 0.2117 0.6886   0.110037
 H 0.5399 0.3414 0.6286   0.091358
 H 0.8841 0.2406 0.5413   0.101707
 H 0.9009 0.1095 0.5997   0.110313
 H 0.5747 0.5672 0.6389   0.078909
 H 0.5855 0.6672 0.7237   0.129927
 H 0.1896 0.7547 0.6963   0.134202
 H 0.194 0.6596 0.6103   0.0877
 H 0.8529 0.6644 0.2765   0.094399
 H 0.016 0.6601 0.2029   0.092421
 H 0.2623 0.4847 0.288   0.092034
 H 0.1036 0.4919 0.3632   0.088381
 H 0.3558 0.5567 0.2072   0.09449
 H 0.0366 0.4393 0.1632   0.102095
 H 0.0183 0.2875 0.108   0.090754
 H 0.4296 0.295 0.0753   0.095368
 H 0.4506 0.4422 0.1313   0.109693
 H 0.4377 0.7117 0.1886   0.110037
 H 0.4601 0.8414 0.1286   0.091358
 H 0.1159 0.7406 0.0413   0.101707
 H 0.0991 0.6095 0.0997   0.110313
 H 0.4253 0.0672 0.1389   0.07891
 H 0.4145 0.1672 0.2237   0.129927
 H 0.8104 0.2547 0.1963   0.134201
 H 0.806 0.1596 0.1103   0.0877
 H 0.8529 0.8356 0.2235   0.0944
 H 0.016 0.8399 0.2971   0.092421
 H 0.2623 0.0153 0.212   0.092034
 H 0.1036 0.0081 0.1368   0.088381
 H 0.3558 0.9433 0.2928   0.09449
 H 0.0366 0.0607 0.3368   0.102095
 H 0.0183 0.2125 0.392   0.090754
 H 0.4296 0.205 0.4247   0.095368
 H 0.4506 0.0578 0.3687   0.109693
 H 0.4377 0.7883 0.3114   0.110037
 H 0.4601 0.6586 0.3714   0.091358
 H 0.1159 0.7594 0.4587   0.101707
 H 0.0991 0.8905 0.4003   0.110313
 H 0.4253 0.4328 0.3611   0.078909
 H 0.4145 0.3328 0.2763   0.129927
 H 0.8104 0.2453 0.3037   0.134202
 H 0.806 0.3404 0.3897   0.0877
 C 0.147 0.42239 0.62559   0.69349
 C 0.0404 0.42147 0.67307   -0.167433
 C 0.0638 0.3722 0.7205   -0.011984
 C 0.966 0.3754 0.765   -0.152173
 C 0.8452 0.42869 0.76269   0.090129
 C 0.8207 0.4783 0.7146   -0.168186
 C 0.916 0.4746 0.6695   -0.015612
 C 0.7374 0.44093 0.81133   -0.095421
 C 0.7552 0.54193 0.84663   0.079808
 C 0.8828 0.5894 0.8543   -0.169968
 C 0.8941 0.6806 0.8881   -0.027147
 C 0.7794 0.7236 0.9154   -0.156925
 C 0.6507 0.6761 0.907   -0.021453
 C 0.6381 0.5879 0.8736   -0.167078
 C 0.7908 0.81971 0.95321   0.703606
 C 0.7312 0.35354 0.85014   0.088768
 C 0.6262 0.2835 0.8416   -0.158692
 C 0.6134 0.2049 0.8771   -0.001753
 C 0.7113 0.19569 0.92149   -0.186834
 C 0.818 0.2652 0.9295   -0.006041
 C 0.8282 0.3437 0.8943   -0.156363
 C 0.6963 0.11285 0.96045   0.718538
 C 0.4959 0.8941 0.8498   0.199424
 C 0.5024 0.8349 0.7979   -0.211908
 C 0.3876 0.7798 0.7782   0.109403
 C 0.27 0.7827 0.8144   -0.20394
 C 0.2731 0.8407 0.8659   0.18312
 C 0.147 0.07761 0.87441   0.69349
 C 0.0404 0.07853 0.82693   -0.167433
 C 0.0638 0.1278 0.7795   -0.011984
 C 0.966 0.1246 0.735   -0.152173
 C 0.8452 0.07131 0.73731   0.090129
 C 0.8207 0.0217 0.7854   -0.168186
 C 0.916 0.0254 0.8305   -0.015612
 C 0.7374 0.05907 0.68867   -0.095421
 C 0.7552 0.95807 0.65337   0.079808
 C 0.8828 0.9106 0.6457   -0.169968
 C 0.8941 0.8194 0.6119   -0.027147
 C 0.7794 0.7764 0.5846   -0.156925
 C 0.6507 0.8239 0.593   -0.021453
 C 0.6381 0.9121 0.6264   -0.167078
 C 0.7908 0.68029 0.54679   0.703606
 C 0.7312 0.14646 0.64986   0.088768
 C 0.6262 0.2165 0.6584   -0.158693
 C 0.6134 0.2951 0.6229   -0.001753
 C 0.7113 0.30431 0.57851   -0.186834
 C 0.818 0.2348 0.5705   -0.006041
 C 0.8282 0.1563 0.6057   -0.156363
 C 0.6963 0.38715 0.53955   0.718538
 C 0.4959 0.6059 0.6502   0.199424
 C 0.5024 0.6651 0.7021   -0.211908
 C 0.3876 0.7202 0.7218   0.109405
 C 0.27 0.7173 0.6856   -0.20394
 C 0.2731 0.6593 0.6341   0.18312
 C 0.853 0.57761 0.37441   0.69349
 C 0.9596 0.57853 0.32693   -0.167433
 C 0.9362 0.6278 0.2795   -0.011984
 C 0.034 0.6246 0.235   -0.152173
 C 0.1548 0.57131 0.23731   0.090129
 C 0.1793 0.5217 0.2854   -0.168186
 C 0.084 0.5254 0.3305   -0.015612
 C 0.2626 0.55907 0.18867   -0.095421
 C 0.2448 0.45807 0.15337   0.079808
 C 0.1172 0.4106 0.1457   -0.169968
 C 0.1059 0.3194 0.1119   -0.027147
 C 0.2206 0.2764 0.0846   -0.156925
 C 0.3493 0.3239 0.093   -0.021453
 C 0.3619 0.4121 0.1264   -0.167078
 C 0.2092 0.18029 0.04679   0.703605
 C 0.2688 0.64646 0.14986   0.088768
 C 0.3738 0.7165 0.1584   -0.158692
 C 0.3866 0.7951 0.1229   -0.001753
 C 0.2887 0.80431 0.07851   -0.186834
 C 0.182 0.7348 0.0705   -0.006041
 C 0.1718 0.6563 0.1057   -0.156362
 C 0.3037 0.88715 0.03955   0.718538
 C 0.5041 0.1059 0.1502   0.199424
 C 0.4976 0.1651 0.2021   -0.211908
 C 0.6124 0.2202 0.2218   0.109403
 C 0.73 0.2173 0.1856   -0.20394
 C 0.7269 0.1593 0.1341   0.183119
 C 0.853 0.92239 0.12559   0.69349
 C 0.9596 0.92147 0.17307   -0.167433
 C 0.9362 0.8722 0.2205   -0.011984
 C 0.034 0.8754 0.265   -0.152173
 C 0.1548 0.92869 0.26269   0.090129
 C 0.1793 0.9783 0.2146   -0.168186
 C 0.084 0.9746 0.1695   -0.015612
 C 0.2626 0.94093 0.31133   -0.095421
 C 0.2448 0.04193 0.34663   0.079808
 C 0.1172 0.0894 0.3543   -0.169968
 C 0.1059 0.1806 0.3881   -0.027147
 C 0.2206 0.2236 0.4154   -0.156925
 C 0.3493 0.1761 0.407   -0.021453
 C 0.3619 0.0879 0.3736   -0.167078
 C 0.2092 0.31971 0.45321   0.703605
 C 0.2688 0.85354 0.35014   0.088768
 C 0.3738 0.7835 0.3416   -0.158693
 C 0.3866 0.7049 0.3771   -0.001753
 C 0.2887 0.69569 0.42149   -0.186834
 C 0.182 0.7652 0.4295   -0.006041
 C 0.1718 0.8437 0.3943   -0.156363
 C 0.3037 0.61285 0.46045   0.718538
 C 0.5041 0.3941 0.3498   0.199424
 C 0.4976 0.3349 0.2979   -0.211908
 C 0.6124 0.2798 0.2782   0.109405
 C 0.73 0.2827 0.3144   -0.20394
 C 0.7269 0.3407 0.3659   0.18312
 N 0.3849 0.89815 0.88365   -0.347757
 N 0.3849 0.60185 0.61635   -0.347757
 N 0.6151 0.10185 0.11635   -0.347757
 N 0.6151 0.39815 0.38365   -0.347757
 O 0.1134 0.46473 0.58083   -0.691069
 O 0.2681 0.38772 0.63132   -0.604013
 O 0.5844 0.0614 0.9597   -0.639153
 O 0.7932 0.09712 0.99502   -0.654471
 O 0.9038 0.86909 0.95129   -0.64318
 O 0.6854 0.84285 0.98325   -0.600368
 O 0.1134 0.03527 0.91917   -0.691069
 O 0.2681 0.11228 0.86868   -0.604013
 O 0.5844 0.4386 0.5403   -0.639153
 O 0.7932 0.40288 0.50498   -0.654471
 O 0.9038 0.63091 0.54871   -0.64318
 O 0.6854 0.65715 0.51675   -0.600368
 O 0.8866 0.53527 0.41917   -0.691069
 O 0.7319 0.61228 0.36868   -0.604013
 O 0.4156 0.9386 0.0403   -0.639153
 O 0.2068 0.90288 0.00498   -0.654471
 O 0.0962 0.13091 0.04871   -0.64318
 O 0.3146 0.15715 0.01675   -0.600368
 O 0.8866 0.96473 0.08083   -0.691069
 O 0.7319 0.88772 0.13132   -0.604013
 O 0.4156 0.5614 0.4597   -0.639153
 O 0.2068 0.59712 0.49502   -0.654471
 O 0.0962 0.36909 0.45129   -0.64318
 O 0.3146 0.34285 0.48325   -0.600368
