{'_ref': 'TBD', '_srcid': 'CAKYAQ_clean', 'submitters': [{'name': 'Dalar Nazarian Jeff Camp and David Sholl', 'email': 'dalar@gatech.edu jcamp6@gatech.edu'}], '_method': 'VASP DFT with PBE;DDEC'}
data_Fe3H12C26(N6O)4
_symmetry_space_group_name_H-M   'P 1'
_cell_length_a   11.95000009
_cell_length_b   12.11400009
_cell_length_c   13.66830000
_cell_angle_alpha   63.69550196
_cell_angle_beta   81.17129967
_cell_angle_gamma   69.73590026
_symmetry_Int_Tables_number   1
_chemical_formula_structural   Fe3H12C26(N6O)4
_chemical_formula_sum   'Fe3 H12 C26 N24 O4'
_cell_volume   1663.98277515
_cell_formula_units_Z   1
loop_
 _symmetry_equiv_pos_site_id
 _symmetry_equiv_pos_as_xyz
  1  'x, y, z'
loop_
 _atom_site_label
 _atom_site_fract_x
 _atom_site_fract_y
 _atom_site_fract_z
 _atom_site_charge
 Fe 0.0 0.0 0.0   0.116419
 Fe 0.73968 0.89478 0.0   0.960716
 Fe 0.26032 0.10522 0.0   0.960716
 H 0.0855 0.0871 0.5748   0.10912
 H 0.8891 0.8672 0.607   0.114481
 H 0.9145 0.3381 0.5748   0.109436
 H 0.1109 0.5258 0.607   0.112849
 H 0.9145 0.9129 0.4252   0.109121
 H 0.1109 0.1328 0.393   0.114482
 H 0.0855 0.6619 0.4252   0.109437
 H 0.8891 0.4742 0.393   0.11285
 H 0.6996 0.4671 0.0   0.109011
 H 0.4429 0.3398 0.0   0.094228
 H 0.3004 0.5329 0.0   0.109009
 H 0.5571 0.6602 0.0   0.094227
 C 0.0496 0.0522 0.5448   -0.082107
 C 0.9816 0.977 0.61   -0.026339
 C 0.9333 0.922 0.564   -0.084133
 C 0.9566 0.9607 0.723   0.358055
 C 0.9504 0.403 0.5448   -0.082482
 C 0.0184 0.413 0.61   -0.029467
 C 0.0667 0.514 0.564   -0.079427
 C 0.0434 0.3163 0.723   0.35861
 C 0.9504 0.9478 0.4552   -0.082091
 C 0.0184 0.023 0.39   -0.026345
 C 0.0667 0.078 0.436   -0.084117
 C 0.0434 0.0393 0.277   0.358055
 C 0.0496 0.597 0.4552   -0.082471
 C 0.9816 0.587 0.39   -0.029471
 C 0.9333 0.486 0.436   -0.079416
 C 0.9566 0.6837 0.277   0.358611
 C 0.6187 0.4779 0.0   -0.094366
 C 0.5828 0.3834 0.0   -0.007876
 C 0.4695 0.4035 0.0   -0.086857
 C 0.6641 0.2635 0.0   0.355649
 C 0.3813 0.5221 0.0   -0.094359
 C 0.4172 0.6166 0.0   -0.007879
 C 0.5305 0.5965 0.0   -0.086851
 C 0.3359 0.7365 0.0   0.355649
 C 0.5 0.0313 0.9374   0.49216
 C 0.5 0.9687 0.0626   0.492162
 N 0.0206 0.98003 0.78194   -0.312324
 N 0.9659 0.95876 0.87588   0.138254
 N 0.8676 0.9309 0.8742   -0.122208
 N 0.8618 0.92828 0.77904   -0.294454
 N 0.9794 0.23803 0.78194   -0.311095
 N 0.0341 0.16536 0.87588   0.1365
 N 0.1324 0.1949 0.8742   -0.121418
 N 0.1382 0.29268 0.77904   -0.294877
 N 0.9794 0.01997 0.21806   -0.312325
 N 0.0341 0.04124 0.12412   0.138254
 N 0.1324 0.0691 0.1258   -0.122208
 N 0.1382 0.07172 0.22096   -0.294454
 N 0.0206 0.76197 0.21806   -0.311095
 N 0.9659 0.83464 0.12412   0.1365
 N 0.8676 0.8051 0.1258   -0.121418
 N 0.8618 0.70732 0.22096   -0.294878
 N 0.7865 0.2316 0.0   -0.342725
 N 0.8221 0.1168 0.0   0.149043
 N 0.7328 0.079 0.0   -0.095762
 N 0.6315 0.1704 0.0   -0.283631
 N 0.2135 0.7684 0.0   -0.342725
 N 0.1779 0.8832 0.0   0.149043
 N 0.2672 0.921 0.0   -0.095762
 N 0.3685 0.8296 0.0   -0.283631
 O 0.5962 0.00574 0.89092   -0.45205
 O 0.4038 0.10334 0.89092   -0.452751
 O 0.4038 0.99426 0.10908   -0.452051
 O 0.5962 0.89666 0.10908   -0.452751
