{'_ref': 'TBD', '_srcid': 'CAKYAQ_clean', 'submitters': [{'name': 'Dalar Nazarian Jeff Camp and David Sholl', 'email': 'dalar@gatech.edu jcamp6@gatech.edu'}], '_method': 'VASP DFT with PBE;DDEC'}
data_Fe3H12C26(N6O)4
_symmetry_space_group_name_H-M   'P 1'
_cell_length_a   12.07799994
_cell_length_b   12.08700046
_cell_length_c   13.68456001
_cell_angle_alpha   81.11785850
_cell_angle_beta   63.81333874
_cell_angle_gamma   69.51999899
_symmetry_Int_Tables_number   1
_chemical_formula_structural   Fe3H12C26(N6O)4
_chemical_formula_sum   'Fe3 H12 C26 N24 O4'
_cell_volume   1679.40687444
_cell_formula_units_Z   1
loop_
 _symmetry_equiv_pos_site_id
 _symmetry_equiv_pos_as_xyz
  1  'x, y, z'
loop_
 _atom_site_label
 _atom_site_fract_x
 _atom_site_fract_y
 _atom_site_fract_z
 _atom_site_charge
 Fe 0.0 0.0 0.0   0.109816
 Fe 0.10439 0.25846 0.0   0.957685
 Fe 0.89561 0.74154 0.0   0.957684
 H 0.3314 0.9191 0.5708   0.114721
 H 0.5231 0.1146 0.606   0.11377
 H 0.0978 0.0809 0.5708   0.113792
 H 0.8709 0.8854 0.606   0.114561
 H 0.6686 0.0809 0.4292   0.114719
 H 0.4769 0.8854 0.394   0.113768
 H 0.9022 0.9191 0.4292   0.11379
 H 0.1291 0.1146 0.394   0.11456
 H 0.5283 0.2926 0.0   0.132537
 H 0.6634 0.5604 0.0   0.102583
 H 0.4717 0.7074 0.0   0.132537
 H 0.3366 0.4396 0.0   0.102582
 C 0.4006 0.9518 0.5422   -0.087134
 C 0.4124 0.0193 0.61   -0.02904
 C 0.5138 0.067 0.5628   -0.077848
 C 0.3166 0.0423 0.7228   0.375066
 C 0.0572 0.0482 0.5422   -0.085834
 C 0.9776 0.9807 0.61   -0.02747
 C 0.9234 0.933 0.5628   -0.080394
 C 0.9606 0.9577 0.7228   0.374371
 C 0.5994 0.0482 0.4578   -0.087099
 C 0.5876 0.9807 0.39   -0.029053
 C 0.4862 0.933 0.4372   -0.077813
 C 0.6834 0.9577 0.2772   0.375067
 C 0.9428 0.9518 0.4578   -0.085802
 C 0.0224 0.0193 0.39   -0.027482
 C 0.0766 0.067 0.4372   -0.080362
 C 0.0394 0.0423 0.2772   0.374373
 C 0.5174 0.3744 0.0   -0.094422
 C 0.6164 0.4172 0.0   -0.030157
 C 0.5966 0.5362 0.0   -0.079491
 C 0.7358 0.3322 0.0   0.370546
 C 0.4826 0.6256 0.0   -0.09442
 C 0.3836 0.5828 0.0   -0.030158
 C 0.4034 0.4638 0.0   -0.079488
 C 0.2642 0.6678 0.0   0.370546
 C 0.0306 0.5 0.9388   0.481958
 C 0.9694 0.5 0.0612   0.481959
 N 0.23756 0.9793 0.78188   -0.337725
 N 0.16334 0.037 0.87712   0.147998
 N 0.19834 0.1262 0.87552   -0.107966
 N 0.2962 0.1326 0.7798   -0.319299
 N 0.98056 0.0207 0.78188   -0.338007
 N 0.95954 0.963 0.87712   0.149269
 N 0.92614 0.8738 0.87552   -0.109527
 N 0.924 0.8674 0.7798   -0.318173
 N 0.76244 0.0207 0.21812   -0.337725
 N 0.83666 0.963 0.12288   0.147998
 N 0.80166 0.8738 0.12448   -0.107965
 N 0.7038 0.8674 0.2202   -0.319299
 N 0.01944 0.9793 0.21812   -0.338007
 N 0.04046 0.037 0.12288   0.149269
 N 0.07386 0.1262 0.12448   -0.109527
 N 0.076 0.1326 0.2202   -0.318173
 N 0.7673 0.2151 0.0   -0.354454
 N 0.8861 0.1746 0.0   0.138179
 N 0.9204 0.2647 0.0   -0.070288
 N 0.8313 0.3628 0.0   -0.283407
 N 0.2327 0.7849 0.0   -0.354454
 N 0.1139 0.8254 0.0   0.138179
 N 0.0796 0.7353 0.0   -0.070288
 N 0.1687 0.6372 0.0   -0.283407
 O 0.10648 0.4021 0.89064   -0.45594
 O 0.00288 0.5979 0.89064   -0.455423
 O 0.89352 0.5979 0.10936   -0.45594
 O 0.99712 0.4021 0.10936   -0.455423
