{'_ref': 'TBD', '_srcid': 'CAKYAQ_clean', 'submitters': [{'name': 'Dalar Nazarian Jeff Camp and David Sholl', 'email': 'dalar@gatech.edu jcamp6@gatech.edu'}], '_method': 'VASP DFT with PBE;DDEC'}
data_InH4C12(NO2)4
_symmetry_space_group_name_H-M   'P 1'
_cell_length_a   10.11489956
_cell_length_b   10.11490032
_cell_length_c   11.46700000
_cell_angle_alpha   98.92039967
_cell_angle_beta   98.92040035
_cell_angle_gamma   115.27800146
_symmetry_Int_Tables_number   1
_chemical_formula_structural   InH4C12(NO2)4
_chemical_formula_sum   'In2 H8 C24 N8 O16'
_cell_volume   1015.37206275
_cell_formula_units_Z   2
loop_
 _symmetry_equiv_pos_site_id
 _symmetry_equiv_pos_as_xyz
  1  'x, y, z'
loop_
 _atom_site_label
 _atom_site_fract_x
 _atom_site_fract_y
 _atom_site_fract_z
 _atom_site_charge
 In 0.36303 0.63697 0.25   1.304458
 In 0.63697 0.36303 0.75   1.304458
 H 0.4186 0.7862 0.568   0.099178
 H 0.5837 0.7539 0.0577   0.126455
 H 0.2138 0.5814 0.932   0.099178
 H 0.2461 0.4163 0.4423   0.126455
 H 0.5814 0.2138 0.432   0.099179
 H 0.4163 0.2461 0.9423   0.126455
 H 0.7862 0.4186 0.068   0.099179
 H 0.7539 0.5837 0.5577   0.126455
 C 0.4513 0.8725 0.5386   0.142592
 C 0.5489 0.6501 0.0351   0.157523
 C 0.6063 0.5889 0.9506   0.044969
 C 0.4865 0.9867 0.3804   0.05704
 C 0.466 0.9682 0.2439   0.618471
 C 0.7225 0.6845 0.891   0.576982
 C 0.1275 0.5487 0.9614   0.142591
 C 0.3499 0.4511 0.4649   0.157523
 C 0.4111 0.3937 0.5494   0.044969
 C 0.0133 0.5135 0.1196   0.05704
 C 0.0318 0.534 0.2561   0.61847
 C 0.3155 0.2775 0.609   0.576981
 C 0.5487 0.1275 0.4614   0.142586
 C 0.4511 0.3499 0.9649   0.157523
 C 0.3937 0.4111 0.0494   0.044969
 C 0.5135 0.0133 0.6196   0.057035
 C 0.534 0.0318 0.7561   0.61847
 C 0.2775 0.3155 0.109   0.576981
 C 0.8725 0.4513 0.0386   0.142586
 C 0.6501 0.5489 0.5351   0.157523
 C 0.5889 0.6063 0.4506   0.044969
 C 0.9867 0.4865 0.8804   0.057035
 C 0.9682 0.466 0.7439   0.618469
 C 0.6845 0.7225 0.391   0.57698
 N 0.4379 0.8593 0.4191   -0.252997
 N 0.44393 0.55927 0.0835   -0.258148
 N 0.1407 0.5621 0.0809   -0.252997
 N 0.44073 0.55607 0.4165   -0.258148
 N 0.5621 0.1407 0.5809   -0.252996
 N 0.55607 0.44073 0.9165   -0.258148
 N 0.8593 0.4379 0.9191   -0.252996
 N 0.55927 0.44393 0.5835   -0.258148
 O 0.40872 0.83348 0.1786   -0.571651
 O 0.5016 0.0806 0.2046   -0.43049
 O 0.74989 0.61411 0.8054   -0.56471
 O 0.7835 0.8233 0.9313   -0.397438
 O 0.16652 0.59128 0.3214   -0.571651
 O 0.9194 0.4984 0.2954   -0.43049
 O 0.38589 0.25011 0.6946   -0.564709
 O 0.1767 0.2165 0.5687   -0.397438
 O 0.59128 0.16652 0.8214   -0.57165
 O 0.4984 0.9194 0.7954   -0.430489
 O 0.25011 0.38589 0.1946   -0.56471
 O 0.2165 0.1767 0.0687   -0.397438
 O 0.83348 0.40872 0.6786   -0.571651
 O 0.0806 0.5016 0.7046   -0.430489
 O 0.61411 0.74989 0.3054   -0.564709
 O 0.8233 0.7835 0.4313   -0.397438
