{'_ref': 'TBD', '_srcid': 'CAKYAQ_clean', 'submitters': [{'name': 'Dalar Nazarian Jeff Camp and David Sholl', 'email': 'dalar@gatech.edu jcamp6@gatech.edu'}], '_method': 'VASP DFT with PBE;DDEC'}
data_CoH6(C3N2)2
_symmetry_space_group_name_H-M   'P 1'
_cell_length_a   9.56230000
_cell_length_b   24.33019975
_cell_length_c   24.61110000
_cell_angle_alpha   91.54199985
_cell_angle_beta   90.00000000
_cell_angle_gamma   90.00000000
_symmetry_Int_Tables_number   1
_chemical_formula_structural   CoH6(C3N2)2
_chemical_formula_sum   'Co20 H120 C120 N80'
_cell_volume   5723.76459309
_cell_formula_units_Z   20
loop_
 _symmetry_equiv_pos_site_id
 _symmetry_equiv_pos_as_xyz
  1  'x, y, z'
loop_
 _atom_site_label
 _atom_site_fract_x
 _atom_site_fract_y
 _atom_site_fract_z
 _atom_site_charge
 Co 0.95801 0.21603 0.18302   0.795572
 Co 0.76413 0.98523 0.22163   0.794013
 Co 0.55072 0.76418 0.18025   0.797279
 Co 0.81757 0.34085 0.98274   0.775981
 Co 0.26987 0.96595 0.36219   0.801254
 Co 0.45801 0.28397 0.31698   0.795572
 Co 0.26413 0.51477 0.27837   0.794013
 Co 0.05072 0.73582 0.31975   0.797279
 Co 0.31757 0.15915 0.51726   0.775981
 Co 0.76987 0.53405 0.13781   0.801254
 Co 0.04199 0.78397 0.81698   0.795572
 Co 0.23587 0.01477 0.77837   0.794013
 Co 0.44928 0.23582 0.81975   0.797279
 Co 0.18243 0.65915 0.01726   0.775981
 Co 0.73013 0.03405 0.63781   0.801254
 Co 0.54199 0.71603 0.68302   0.795572
 Co 0.73587 0.48523 0.72163   0.794013
 Co 0.94928 0.26418 0.68025   0.797279
 Co 0.68243 0.84085 0.48274   0.775981
 Co 0.23013 0.46595 0.86219   0.801254
 H 0.6622 0.2119 0.2432   0.04877
 H 0.714 0.3629 0.293   0.096278
 H 0.919 0.335 0.238   0.081818
 H 0.8815 0.1059 0.2432   0.055336
 H 0.8127 0.0347 0.103   0.099392
 H 0.8813 0.1281 0.0893   0.089103
 H 0.5554 0.9513 0.3134   0.047172
 H 0.2984 0.0682 0.2731   0.083269
 H 0.511 0.075 0.2179   0.096279
 H 0.0686 0.0042 0.2692   0.057599
 H 0.9982 0.8878 0.3731   0.072309
 H 0.7871 0.8985 0.3192   0.095504
 H 0.5612 0.8894 0.212   0.048196
 H 0.8078 0.8127 0.1086   0.093516
 H 0.8917 0.9075 0.1217   0.098788
 H 0.8359 0.78 0.2346   0.052468
 H 0.7878 0.6465 0.3173   0.099452
 H 0.581 0.6582 0.2627   0.093306
 H 0.7037 0.2768 0.8814   0.049352
 H 0.4789 0.3413 0.9992   0.102884
 H 0.3193 0.2968 0.9338   0.092181
 H 0.0269 0.4255 0.949   0.059182
 H 0.1479 0.3385 0.8213   0.077478
 H 0.964 0.2874 0.8669   0.098844
 H 0.7943 0.2915 0.1003   0.058229
 H 0.1599 0.2237 0.0788   0.104053
 H 0.0953 0.2713 0.9953   0.09247
 H 0.8559 0.4175 0.0875   0.053389
 H 0.6454 0.5322 0.014   0.097872
 H 0.6574 0.4504 0.9565   0.074072
 H 0.1622 0.2881 0.2568   0.048769
 H 0.214 0.1371 0.207   0.096278
 H 0.419 0.165 0.262   0.081817
 H 0.3815 0.3941 0.2568   0.055336
 H 0.3127 0.4653 0.397   0.099392
 H 0.3813 0.3719 0.4107   0.089103
 H 0.0554 0.5487 0.1866   0.047172
 H 0.7984 0.4318 0.2269   0.083269
 H 0.011 0.425 0.2821   0.096279
 H 0.5686 0.4958 0.2308   0.057598
 H 0.4982 0.6122 0.1269   0.072309
 H 0.2871 0.6015 0.1808   0.095504
 H 0.0612 0.6106 0.288   0.048196
 H 0.3078 0.6873 0.3914   0.093516
 H 0.3917 0.5925 0.3783   0.098789
 H 0.3359 0.72 0.2654   0.052468
 H 0.2878 0.8535 0.1827   0.099452
 H 0.081 0.8418 0.2373   0.093305
 H 0.2037 0.2232 0.6186   0.049352
 H 0.9789 0.1587 0.5008   0.102884
 H 0.8193 0.2032 0.5662   0.092181
 H 0.5269 0.0745 0.551   0.059182
 H 0.6479 0.1615 0.6787   0.077478
 H 0.464 0.2126 0.6331   0.098844
 H 0.2943 0.2085 0.3997   0.058229
 H 0.6599 0.2763 0.4212   0.104054
 H 0.5953 0.2287 0.5047   0.09247
 H 0.3559 0.0825 0.4125   0.053389
 H 0.1454 0.9678 0.486   0.097872
 H 0.1574 0.0496 0.5435   0.074072
 H 0.3378 0.7881 0.7568   0.04877
 H 0.286 0.6371 0.707   0.096278
 H 0.081 0.665 0.762   0.081818
 H 0.1185 0.8941 0.7568   0.055336
 H 0.1873 0.9653 0.897   0.099393
 H 0.1187 0.8719 0.9107   0.089104
 H 0.4446 0.0487 0.6866   0.047171
 H 0.7016 0.9318 0.7269   0.083269
 H 0.489 0.925 0.7821   0.096279
 H 0.9314 0.9958 0.7308   0.057599
 H 0.0018 0.1122 0.6269   0.072309
 H 0.2129 0.1015 0.6808   0.095504
 H 0.4388 0.1106 0.788   0.048196
 H 0.1922 0.1873 0.8914   0.093515
 H 0.1083 0.0925 0.8783   0.098789
 H 0.1641 0.22 0.7654   0.052468
 H 0.2122 0.3535 0.6827   0.099452
 H 0.419 0.3418 0.7373   0.093306
 H 0.2963 0.7232 0.1186   0.049352
 H 0.5211 0.6587 0.000799999999998   0.102885
 H 0.6807 0.7032 0.0662   0.092181
 H 0.9731 0.5745 0.051   0.059182
 H 0.8521 0.6615 0.1787   0.077478
 H 0.036 0.7126 0.1331   0.098843
 H 0.2057 0.7085 0.8997   0.058229
 H 0.8401 0.7763 0.9212   0.104053
 H 0.9047 0.7287 0.0047   0.092469
 H 0.1441 0.5825 0.9125   0.053389
 H 0.3546 0.4678 0.986   0.097873
 H 0.3426 0.5496 0.0435   0.074072
 H 0.8378 0.7119 0.7432   0.048769
 H 0.786 0.8629 0.793   0.096278
 H 0.581 0.835 0.738   0.081817
 H 0.6185 0.6059 0.7432   0.055336
 H 0.6873 0.5347 0.603   0.099393
 H 0.6187 0.6281 0.5893   0.089104
 H 0.9446 0.4513 0.8134   0.047171
 H 0.2016 0.5682 0.7731   0.083269
 H 0.989 0.575 0.7179   0.096279
 H 0.4314 0.5042 0.7692   0.057598
 H 0.5018 0.3878 0.8731   0.072309
 H 0.7129 0.3985 0.8192   0.095504
 H 0.9388 0.3894 0.712   0.048196
 H 0.6922 0.3127 0.6086   0.093515
 H 0.6083 0.4075 0.6217   0.098789
 H 0.6641 0.28 0.7346   0.052467
 H 0.7122 0.1465 0.8173   0.099452
 H 0.919 0.1582 0.7627   0.093305
 H 0.7963 0.7768 0.3814   0.049352
 H 0.0211 0.8413 0.4992   0.102885
 H 0.1807 0.7968 0.4338   0.092181
 H 0.4731 0.9255 0.449   0.059182
 H 0.3521 0.8385 0.3213   0.077478
 H 0.536 0.7874 0.3669   0.098843
 H 0.7057 0.7915 0.6003   0.058229
 H 0.3401 0.7237 0.5788   0.104054
 H 0.4047 0.7713 0.4953   0.092469
 H 0.6441 0.9175 0.5875   0.053389
 H 0.8546 0.0322 0.514   0.097873
 H 0.8426 0.9504 0.4565   0.074072
 C 0.7026 0.2462 0.2493   0.258775
 C 0.7287 0.3285 0.2768   -0.023729
 C 0.8426 0.313 0.2458   -0.022605
 C 0.872 0.0996 0.206   0.234261
 C 0.8346 0.0603 0.1304   -0.031486
 C 0.8724 0.1121 0.1231   -0.009448
 C 0.5168 0.9811 0.2959   0.248309
 C 0.3757 0.0451 0.2747   -0.016219
 C 0.4938 0.0485 0.2435   -0.025767
 C 0.0252 0.9766 0.2885   0.24496
 C 0.9864 0.9129 0.3456   0.01913
 C 0.8696 0.9183 0.3156   -0.011301
 C 0.633 0.8818 0.1875   0.242532
 C 0.767 0.8396 0.131   -0.032846
 C 0.8142 0.8924 0.1385   -0.0051
 C 0.7982 0.7481 0.2487   0.252597
 C 0.7724 0.6752 0.2939   -0.012137
 C 0.6581 0.6815 0.2637   -0.000579
 C 0.6271 0.2874 0.9024   0.260535
 C 0.5049 0.3224 0.9674   -0.015118
 C 0.4162 0.2985 0.9307   -0.002203
 C 0.0342 0.3974 0.9228   0.237586
 C 0.1009 0.35 0.8527   0.010509
 C 0.9991 0.3216 0.878   -0.035007
 C 0.8786 0.2807 0.0846   0.270252
 C 0.0777 0.2432 0.073   -0.033996
 C 0.0426 0.2701 0.027   -0.01778
 C 0.8035 0.4362 0.0621   0.253094
 C 0.688 0.4992 0.0226   -0.025455
 C 0.6975 0.4541 0.9908   0.009888
 C 0.2026 0.2538 0.2507   0.258776
 C 0.2287 0.1715 0.2232   -0.023729
 C 0.3426 0.187 0.2542   -0.022604
 C 0.372 0.4004 0.294   0.234261
 C 0.3346 0.4397 0.3696   -0.031486
 C 0.3724 0.3879 0.3769   -0.009448
 C 0.0168 0.5189 0.2041   0.248309
 C 0.8757 0.4549 0.2253   -0.016219
 C 0.9938 0.4515 0.2565   -0.025767
 C 0.5252 0.5234 0.2115   0.24496
 C 0.4864 0.5871 0.1544   0.01913
 C 0.3696 0.5817 0.1844   -0.011301
 C 0.133 0.6182 0.3125   0.242532
 C 0.267 0.6604 0.369   -0.032846
 C 0.3142 0.6076 0.3615   -0.0051
 C 0.2982 0.7519 0.2513   0.252597
 C 0.2724 0.8248 0.2061   -0.012137
 C 0.1581 0.8185 0.2363   -0.000579
 C 0.1271 0.2126 0.5976   0.260535
 C 0.0049 0.1776 0.5326   -0.015119
 C 0.9162 0.2015 0.5693   -0.002203
 C 0.5342 0.1026 0.5772   0.237586
 C 0.6009 0.15 0.6473   0.010509
 C 0.4991 0.1784 0.622   -0.035007
 C 0.3786 0.2193 0.4154   0.270252
 C 0.5777 0.2568 0.427   -0.033995
 C 0.5426 0.2299 0.473   -0.01778
 C 0.3035 0.0638 0.4379   0.253094
 C 0.188 0.000799999999998 0.4774   -0.025455
 C 0.1975 0.0459 0.5092   0.009888
 C 0.2974 0.7538 0.7507   0.258775
 C 0.2713 0.6715 0.7232   -0.023729
 C 0.1574 0.687 0.7542   -0.022605
 C 0.128 0.9004 0.794   0.234261
 C 0.1654 0.9397 0.8696   -0.031486
 C 0.1276 0.8879 0.8769   -0.009448
 C 0.4832 0.0189 0.7041   0.248309
 C 0.6243 0.9549 0.7253   -0.016219
 C 0.5062 0.9515 0.7565   -0.025767
 C 0.9748 0.0234 0.7115   0.24496
 C 0.0136 0.0871 0.6544   0.01913
 C 0.1304 0.0817 0.6844   -0.011301
 C 0.367 0.1182 0.8125   0.242532
 C 0.233 0.1604 0.869   -0.032845
 C 0.1858 0.1076 0.8615   -0.0051
 C 0.2018 0.2519 0.7513   0.252597
 C 0.2276 0.3248 0.7061   -0.012137
 C 0.3419 0.3185 0.7363   -0.000579
 C 0.3729 0.7126 0.0976   0.260535
 C 0.4951 0.6776 0.0326   -0.015119
 C 0.5838 0.7015 0.0693   -0.002203
 C 0.9658 0.6026 0.0772   0.237586
 C 0.8991 0.65 0.1473   0.010509
 C 0.000900000000001 0.6784 0.122   -0.035007
 C 0.1214 0.7193 0.9154   0.270252
 C 0.9223 0.7568 0.927   -0.033996
 C 0.9574 0.7299 0.973   -0.01778
 C 0.1965 0.5638 0.9379   0.253094
 C 0.312 0.5008 0.9774   -0.025455
 C 0.3025 0.5459 0.0092   0.009889
 C 0.7974 0.7462 0.7493   0.258776
 C 0.7713 0.8285 0.7768   -0.023729
 C 0.6574 0.813 0.7458   -0.022604
 C 0.628 0.5996 0.706   0.234261
 C 0.6654 0.5603 0.6304   -0.031486
 C 0.6276 0.6121 0.6231   -0.009448
 C 0.9832 0.4811 0.7959   0.248309
 C 0.1243 0.5451 0.7747   -0.016219
 C 0.0062 0.5485 0.7435   -0.025767
 C 0.4748 0.4766 0.7885   0.24496
 C 0.5136 0.4129 0.8456   0.01913
 C 0.6304 0.4183 0.8156   -0.011301
 C 0.867 0.3818 0.6875   0.242532
 C 0.733 0.3396 0.631   -0.032845
 C 0.6858 0.3924 0.6385   -0.0051
 C 0.7018 0.2481 0.7487   0.252597
 C 0.7276 0.1752 0.7939   -0.012137
 C 0.8419 0.1815 0.7637   -0.000579
 C 0.8729 0.7874 0.4024   0.260535
 C 0.9951 0.8224 0.4674   -0.015119
 C 0.0838 0.7985 0.4307   -0.002203
 C 0.4658 0.8974 0.4228   0.237586
 C 0.3991 0.85 0.3527   0.010509
 C 0.5009 0.8216 0.378   -0.035007
 C 0.6214 0.7807 0.5846   0.270252
 C 0.4223 0.7432 0.573   -0.033995
 C 0.4574 0.7701 0.527   -0.01778
 C 0.6965 0.9362 0.5621   0.253094
 C 0.812 0.9992 0.5226   -0.025455
 C 0.8025 0.9541 0.4908   0.009889
 N 0.8241 0.2599 0.2285   -0.425726
 N 0.6428 0.285 0.2795   -0.41879
 N 0.8957 0.1382 0.1703   -0.414332
 N 0.8332 0.0509 0.1845   -0.422485
 N 0.5822 0.0067 0.2563   -0.419029
 N 0.3911 0.0017 0.3086   -0.421013
 N 0.8949 0.9587 0.2785   -0.441281
 N 0.0861 0.9502 0.3294   -0.439209
 N 0.7299 0.9188 0.1744   -0.427532
 N 0.6486 0.8331 0.1622   -0.413642
 N 0.6734 0.7285 0.2343   -0.443737
 N 0.8647 0.7178 0.2852   -0.432788
 N 0.4956 0.2769 0.8877   -0.439806
 N 0.6392 0.31412 0.9497   -0.428864
 N 0.957 0.3521 0.9231   -0.414359
 N 0.1234 0.3986 0.881   -0.432563
 N 0.9161 0.2949 0.0359   -0.433406
 N 0.9693 0.2501 0.1093   -0.42625
 N 0.7717 0.4146 0.0143   -0.4172
 N 0.7552 0.487 0.0716   -0.4423
 N 0.3241 0.2401 0.2715   -0.425726
 N 0.1428 0.215 0.2205   -0.41879
 N 0.3957 0.3618 0.3297   -0.414332
 N 0.3332 0.4491 0.3155   -0.422485
 N 0.0822 0.4933 0.2437   -0.419029
 N 0.8911 0.4983 0.1914   -0.421013
 N 0.3949 0.5413 0.2215   -0.441281
 N 0.5861 0.5498 0.1706   -0.439209
 N 0.2299 0.5812 0.3256   -0.427532
 N 0.1486 0.6669 0.3378   -0.413642
 N 0.1734 0.7715 0.2657   -0.443737
 N 0.3647 0.7822 0.2148   -0.432788
 N 0.9956 0.2231 0.6123   -0.439806
 N 0.1392 0.18588 0.5503   -0.428864
 N 0.457 0.1479 0.5769   -0.414359
 N 0.6234 0.1014 0.619   -0.432563
 N 0.4161 0.2051 0.4641   -0.433406
 N 0.4693 0.2499 0.3907   -0.42625
 N 0.2717 0.0854 0.4857   -0.4172
 N 0.2552 0.013 0.4284   -0.4423
 N 0.1759 0.7401 0.7715   -0.425726
 N 0.3572 0.715 0.7205   -0.41879
 N 0.1043 0.8618 0.8297   -0.414332
 N 0.1668 0.9491 0.8155   -0.422485
 N 0.4178 0.9933 0.7437   -0.419029
 N 0.6089 0.9983 0.6914   -0.421012
 N 0.1051 0.0413 0.7215   -0.441281
 N 0.9139 0.0498 0.6706   -0.439209
 N 0.2701 0.0812 0.8256   -0.427532
 N 0.3514 0.1669 0.8378   -0.413642
 N 0.3266 0.2715 0.7657   -0.443737
 N 0.1353 0.2822 0.7148   -0.432788
 N 0.5044 0.7231 0.1123   -0.439806
 N 0.3608 0.68588 0.0503   -0.428864
 N 0.043 0.6479 0.0769   -0.414359
 N 0.8766 0.6014 0.119   -0.432563
 N 0.0839 0.7051 0.9641   -0.433406
 N 0.0307 0.7499 0.8907   -0.42625
 N 0.2283 0.5854 0.9857   -0.4172
 N 0.2448 0.513 0.9284   -0.4423
 N 0.6759 0.7599 0.7285   -0.425726
 N 0.8572 0.785 0.7795   -0.41879
 N 0.6043 0.6382 0.6703   -0.414332
 N 0.6668 0.5509 0.6845   -0.422485
 N 0.9178 0.5067 0.7563   -0.419029
 N 0.1089 0.5017 0.8086   -0.421013
 N 0.6051 0.4587 0.7785   -0.441281
 N 0.4139 0.4502 0.8294   -0.439209
 N 0.7701 0.4188 0.6744   -0.427532
 N 0.8514 0.3331 0.6622   -0.413642
 N 0.8266 0.2285 0.7343   -0.443738
 N 0.6353 0.2178 0.7852   -0.432788
 N 0.0044 0.7769 0.3877   -0.439806
 N 0.8608 0.81412 0.4497   -0.428864
 N 0.543 0.8521 0.4231   -0.414359
 N 0.3766 0.8986 0.381   -0.432563
 N 0.5839 0.7949 0.5359   -0.433406
 N 0.5307 0.7501 0.6093   -0.42625
 N 0.7283 0.9146 0.5143   -0.4172
 N 0.7448 0.987 0.5716   -0.4423
