{'_ref': 'TBD', '_srcid': 'CAKYAQ_clean', 'submitters': [{'name': 'Dalar Nazarian Jeff Camp and David Sholl', 'email': 'dalar@gatech.edu jcamp6@gatech.edu'}], '_method': 'VASP DFT with PBE;DDEC'}
data_Zn2H16C20S(N2O)4
_symmetry_space_group_name_H-M   'P 1'
_cell_length_a   10.10100000
_cell_length_b   15.67900009
_cell_length_c   19.16000000
_cell_angle_alpha   96.41000067
_cell_angle_beta   90.00000000
_cell_angle_gamma   90.00000000
_symmetry_Int_Tables_number   1
_chemical_formula_structural   Zn2H16C20S(N2O)4
_chemical_formula_sum   'Zn8 H64 C80 S4 N32 O16'
_cell_volume   3015.46784433
_cell_formula_units_Z   4
loop_
 _symmetry_equiv_pos_site_id
 _symmetry_equiv_pos_as_xyz
  1  'x, y, z'
loop_
 _atom_site_label
 _atom_site_fract_x
 _atom_site_fract_y
 _atom_site_fract_z
 _atom_site_charge
 Zn 0.77083 0.8278 0.29273   0.676865
 Zn 0.30265 0.92974 0.47341   0.863132
 Zn 0.27083 0.6722 0.20727   0.67687
 Zn 0.80265 0.57026 0.02659   0.863132
 Zn 0.22917 0.1722 0.70727   0.676865
 Zn 0.69735 0.07026 0.52659   0.863134
 Zn 0.72917 0.3278 0.79273   0.67687
 Zn 0.19735 0.42974 0.97341   0.863134
 H 0.359 0.4835 0.1678   0.079345
 H 0.3851 0.359 0.216   0.14541
 H 0.2651 0.4905 0.4087   0.136178
 H 0.2492 0.616 0.3599   0.067786
 H 0.3414 0.3551 0.7585   0.041302
 H 0.404 0.4777 0.7074   0.124689
 H 0.2493 0.3626 0.5092   0.140514
 H 0.2118 0.2431 0.5589   0.084067
 H 0.3768 0.1242 0.5038   0.082812
 H 0.3985 0.2424 0.4499   0.129006
 H 0.1889 0.1172 0.2763   0.135506
 H 0.181 0.9961 0.3325   0.064506
 H 0.2909 0.8604 0.6174   0.068767
 H 0.3224 0.7376 0.6693   0.133243
 H 0.401 0.6136 0.4745   0.127245
 H 0.3792 0.737 0.426   0.083355
 H 0.859 0.0165 0.3322   0.079346
 H 0.8851 0.141 0.284   0.145411
 H 0.7651 0.0095 0.0913   0.136178
 H 0.7492 0.884 0.1401   0.067786
 H 0.8414 0.1449 0.7415   0.041302
 H 0.904 0.0223 0.7926   0.124689
 H 0.7493 0.1374 0.9908   0.140514
 H 0.7118 0.2569 0.9411   0.084067
 H 0.8768 0.3758 0.9962   0.082812
 H 0.8985 0.2576 0.0501   0.129006
 H 0.6889 0.3828 0.2237   0.135506
 H 0.681 0.5039 0.1675   0.064507
 H 0.7909 0.6396 0.8826   0.068767
 H 0.8224 0.7624 0.8307   0.133243
 H 0.901 0.8864 0.0255   0.127245
 H 0.8792 0.763 0.074   0.083355
 H 0.641 0.5165 0.8322   0.079345
 H 0.6149 0.641 0.784   0.145412
 H 0.7349 0.5095 0.5913   0.136178
 H 0.7508 0.384 0.6401   0.067786
 H 0.6586 0.6449 0.2415   0.041304
 H 0.596 0.5223 0.2926   0.124689
 H 0.7507 0.6374 0.4908   0.140514
 H 0.7882 0.7569 0.4411   0.084067
 H 0.6232 0.8758 0.4962   0.082812
 H 0.6015 0.7576 0.5501   0.129006
 H 0.8111 0.8828 0.7237   0.135507
 H 0.819 0.0039 0.6675   0.064508
 H 0.7091 0.1396 0.3826   0.068768
 H 0.6776 0.2624 0.3307   0.133245
 H 0.599 0.3864 0.5255   0.127245
 H 0.6208 0.263 0.574   0.083355
 H 0.141 0.9835 0.6678   0.079346
 H 0.1149 0.859 0.716   0.145413
 H 0.2349 0.9905 0.9087   0.136178
 H 0.2508 0.116 0.8599   0.067786
 H 0.1586 0.8551 0.2585   0.041304
 H 0.096 0.9777 0.2074   0.124689
 H 0.2507 0.8626 0.0092   0.140514
 H 0.2882 0.7431 0.0589   0.084067
 H 0.1232 0.6242 0.0038   0.082812
 H 0.1015 0.7424 0.9499   0.129006
 H 0.3111 0.6172 0.7763   0.135507
 H 0.319 0.4961 0.8325   0.064508
 H 0.2091 0.3604 0.1174   0.068768
 H 0.1776 0.2376 0.1693   0.133245
 H 0.099 0.1136 0.9745   0.127245
 H 0.1208 0.237 0.926   0.083355
 C 0.3453 0.4873 0.2223   0.145696
 C 0.3537 0.41 0.2509   -0.240925
 C 0.3239 0.4104 0.3215   0.276022
 C 0.2931 0.4872 0.3623   -0.197375
 C 0.2848 0.5612 0.3292   0.130381
 C 0.3346 0.3556 0.7013   0.110701
 C 0.3597 0.4321 0.6749   -0.220397
 C 0.3301 0.4376 0.6048   0.275181
 C 0.2824 0.3668 0.563   -0.244429
 C 0.2578 0.2922 0.5933   0.137223
 C 0.3307 0.1192 0.4551   0.190494
 C 0.3392 0.194 0.4235   -0.274387
 C 0.2867 0.194 0.3567   0.291374
 C 0.2279 0.1203 0.3239   -0.232984
 C 0.2241 0.0483 0.3596   0.160217
 C 0.3234 0.8092 0.5896   0.177747
 C 0.3376 0.7343 0.6215   -0.215747
 C 0.3585 0.6585 0.5787   0.266877
 C 0.373 0.6597 0.5068   -0.235588
 C 0.3574 0.737 0.4795   0.118101
 C 0.8453 0.0127 0.2777   0.145696
 C 0.8537 0.09 0.2491   -0.240925
 C 0.8239 0.0896 0.1785   0.276023
 C 0.7931 0.0128 0.1377   -0.197375
 C 0.7848 0.9388 0.1708   0.13038
 C 0.8346 0.1444 0.7987   0.110702
 C 0.8597 0.0679 0.8251   -0.220397
 C 0.8301 0.0624 0.8952   0.275181
 C 0.7824 0.1332 0.937   -0.244429
 C 0.7578 0.2078 0.9067   0.137223
 C 0.8307 0.3808 0.0449   0.190494
 C 0.8392 0.306 0.0765   -0.274388
 C 0.7867 0.306 0.1433   0.291375
 C 0.7279 0.3797 0.1761   -0.232983
 C 0.7241 0.4517 0.1404   0.160217
 C 0.8234 0.6908 0.9104   0.177747
 C 0.8376 0.7657 0.8785   -0.215747
 C 0.8585 0.8415 0.9213   0.266877
 C 0.873 0.8403 0.9932   -0.235588
 C 0.8574 0.763 0.0205   0.118101
 C 0.6547 0.5127 0.7777   0.145696
 C 0.6463 0.59 0.7491   -0.240925
 C 0.6761 0.5896 0.6785   0.276023
 C 0.7069 0.5128 0.6377   -0.197374
 C 0.7152 0.4388 0.6708   0.130381
 C 0.6654 0.6444 0.2987   0.110701
 C 0.6403 0.5679 0.3251   -0.220396
 C 0.6699 0.5624 0.3952   0.275183
 C 0.7176 0.6332 0.437   -0.244429
 C 0.7422 0.7078 0.4067   0.137222
 C 0.6693 0.8808 0.5449   0.190494
 C 0.6608 0.806 0.5765   -0.274388
 C 0.7133 0.806 0.6433   0.291375
 C 0.7721 0.8797 0.6761   -0.232982
 C 0.7759 0.9517 0.6404   0.160217
 C 0.6766 0.1908 0.4104   0.177748
 C 0.6624 0.2657 0.3785   -0.215746
 C 0.6415 0.3415 0.4213   0.266878
 C 0.627 0.3403 0.4932   -0.235588
 C 0.6426 0.263 0.5205   0.118101
 C 0.1547 0.9873 0.7223   0.145696
 C 0.1463 0.91 0.7509   -0.240925
 C 0.1761 0.9104 0.8215   0.276024
 C 0.2069 0.9872 0.8623   -0.197374
 C 0.2152 0.0612 0.8292   0.130381
 C 0.1654 0.8556 0.2013   0.110701
 C 0.1403 0.9321 0.1749   -0.220396
 C 0.1699 0.9376 0.1048   0.275183
 C 0.2176 0.8668 0.063   -0.244429
 C 0.2422 0.7922 0.0933   0.137223
 C 0.1693 0.6192 0.9551   0.190494
 C 0.1608 0.694 0.9235   -0.274388
 C 0.2133 0.694 0.8567   0.291376
 C 0.2721 0.6203 0.8239   -0.232982
 C 0.2759 0.5483 0.8596   0.160216
 C 0.1766 0.3092 0.0896   0.177748
 C 0.1624 0.2343 0.1215   -0.215746
 C 0.1415 0.1585 0.0787   0.266878
 C 0.127 0.1597 0.0068   -0.235588
 C 0.1426 0.237 0.9795   0.118101
 S 0.56359 0.95103 0.38435   1.609987
 S 0.06359 0.54897 0.11565   1.609987
 S 0.43641 0.04897 0.61565   1.609987
 S 0.93641 0.45103 0.88435   1.609987
 N 0.3105 0.5611 0.2606   -0.356811
 N 0.3203 0.3349 0.358   -0.200343
 N 0.2822 0.2869 0.6621   -0.349684
 N 0.3432 0.5149 0.5709   -0.222047
 N 0.2739 0.0471 0.4239   -0.397215
 N 0.2906 0.2681 0.3186   -0.232551
 N 0.3298 0.8103 0.5202   -0.369394
 N 0.3585 0.5812 0.6131   -0.226118
 N 0.8105 0.9389 0.2394   -0.35681
 N 0.8203 0.1651 0.142   -0.200343
 N 0.7822 0.2131 0.8379   -0.349684
 N 0.8432 0.9851 0.9291   -0.222047
 N 0.7739 0.4529 0.0761   -0.397215
 N 0.7906 0.2319 0.1814   -0.232551
 N 0.8298 0.6897 0.9798   -0.369394
 N 0.8585 0.9188 0.8869   -0.226118
 N 0.6895 0.4389 0.7394   -0.356811
 N 0.6797 0.6651 0.642   -0.200343
 N 0.7178 0.7131 0.3379   -0.349684
 N 0.6568 0.4851 0.4291   -0.222047
 N 0.7261 0.9529 0.5761   -0.397215
 N 0.7094 0.7319 0.6814   -0.232551
 N 0.6702 0.1897 0.4798   -0.369394
 N 0.6415 0.4188 0.3869   -0.226118
 N 0.1895 0.0611 0.7606   -0.35681
 N 0.1797 0.8349 0.858   -0.200343
 N 0.2178 0.7869 0.1621   -0.349684
 N 0.1568 0.0149 0.0709   -0.222047
 N 0.2261 0.5471 0.9239   -0.397215
 N 0.2094 0.7681 0.8186   -0.232551
 N 0.1702 0.3103 0.0202   -0.369394
 N 0.1415 0.0812 0.1131   -0.226118
 O 0.6889 0.901 0.3775   -0.722457
 O 0.4578 0.8934 0.4052   -0.731104
 O 0.5805 0.022 0.4405   -0.708372
 O 0.5296 0.983 0.3178   -0.695818
 O 0.1889 0.599 0.1225   -0.722458
 O 0.9578 0.6066 0.0948   -0.731104
 O 0.0805 0.478 0.0595   -0.708372
 O 0.0296 0.517 0.1822   -0.695818
 O 0.3111 0.099 0.6225   -0.722457
 O 0.5422 0.1066 0.5948   -0.731104
 O 0.4195 0.978 0.5595   -0.708372
 O 0.4704 0.017 0.6822   -0.695818
 O 0.8111 0.401 0.8775   -0.722458
 O 0.0422 0.3934 0.9052   -0.731104
 O 0.9195 0.522 0.9405   -0.708372
 O 0.9704 0.483 0.8178   -0.695818
