{'_ref': 'TBD', '_srcid': 'CAKYAQ_clean', 'submitters': [{'name': 'Dalar Nazarian Jeff Camp and David Sholl', 'email': 'dalar@gatech.edu jcamp6@gatech.edu'}], '_method': 'VASP DFT with PBE;DDEC'}
data_CoH34C36(N2O3)2
_symmetry_space_group_name_H-M   'P 1'
_cell_length_a   11.20400000
_cell_length_b   13.04399974
_cell_length_c   41.51800000
_cell_angle_alpha   94.07749861
_cell_angle_beta   90.00000000
_cell_angle_gamma   115.43399991
_symmetry_Int_Tables_number   1
_chemical_formula_structural   CoH34C36(N2O3)2
_chemical_formula_sum   'Co6 H204 C216 N24 O36'
_cell_volume   5462.56258784
_cell_formula_units_Z   6
loop_
 _symmetry_equiv_pos_site_id
 _symmetry_equiv_pos_as_xyz
  1  'x, y, z'
loop_
 _atom_site_label
 _atom_site_fract_x
 _atom_site_fract_y
 _atom_site_fract_z
 _atom_site_charge
 Co 0.04417 0.60066 0.64598   0.947487
 Co 0.44351 0.39934 0.85402   0.947413
 Co 0.95583 0.39934 0.35402   0.947487
 Co 0.55649 0.60066 0.14598   0.947413
 Co 0.82401 0.0 0.75   0.85201
 Co 0.17599 0.0 0.25   0.85201
 H 0.1413 0.2122 0.3377   0.077739
 H 0.0956 0.257 0.3895   0.131654
 H 0.8982 0.9252 0.402   0.119022
 H 0.9395 0.881 0.3495   0.064066
 H 0.8546 0.9902 0.4523   0.049683
 H 0.0051 0.0148 0.4529   0.049649
 H 0.286 0.2198 0.4906   0.11165
 H 0.1884 0.1356 0.4636   0.126086
 H 0.226 0.2662 0.4643   0.13084
 H 0.2505 0.3802 0.5564   0.055971
 H 0.3042 0.3554 0.5231   0.057588
 H 0.9511 0.2448 0.5955   0.126554
 H 0.1035 0.282 0.5929   0.112427
 H 0.0416 0.3622 0.5824   0.131721
 H 0.6805 0.1154 0.5453   0.048478
 H 0.7746 0.207 0.5718   0.05518
 H 0.6568 0.0022 0.5124   0.11468
 H 0.6835 0.0642 0.4804   0.129477
 H 0.7122 0.9574 0.4827   0.117217
 H 0.7328 0.9616 0.6292   0.118492
 H 0.5529 0.8576 0.6578   0.089017
 H 0.3178 0.892 0.5929   0.09247
 H 0.5006 0.0092 0.5655   0.111432
 H 0.4896 0.4622 0.5551   0.123227
 H 0.6956 0.5394 0.5813   0.097998
 H 0.6076 0.243 0.6183   0.088597
 H 0.4081 0.1644 0.5903   0.128617
 H 0.9761 0.3594 0.6757   0.098043
 H 0.1402 0.2826 0.6814   0.137543
 H 0.2937 0.5572 0.6328   0.09981
 H 0.3675 0.3326 0.6402   0.077003
 H 0.4436 0.4644 0.6383   0.083735
 H 0.3325 0.1994 0.66   0.117542
 H 0.3981 0.1466 0.683   0.128404
 H 0.2754 0.1662 0.6941   0.130618
 H 0.6209 0.6934 0.6932   0.127131
 H 0.5826 0.6226 0.6596   0.130515
 H 0.4722 0.6302 0.6815   0.126044
 H 0.7209 0.373 0.7633   0.120144
 H 0.7834 0.5064 0.7653   0.104723
 H 0.66 0.439 0.7856   0.131987
 H 0.7347 0.6444 0.7609   0.087398
 H 0.6948 0.7028 0.7337   0.096492
 H 0.9835 0.822 0.744   0.140226
 H 0.1379 0.805 0.7049   0.099186
 H 0.8044 0.5378 0.6888   0.078112
 H 0.4272 0.16 0.7336   0.093659
 H 0.5141 0.236 0.7634   0.107744
 H 0.6755 0.2424 0.6847   0.137477
 H 0.8239 0.1526 0.6885   0.10918
 H 0.638 0.1118 0.7693   0.101898
 H 0.9291 0.7878 0.1623   0.077996
 H 0.8386 0.743 0.1105   0.131518
 H 0.973 0.0748 0.098   0.118747
 H 0.0585 0.119 0.1505   0.064116
 H 0.8644 0.0098 0.0477   0.049871
 H 0.9903 0.9852 0.0471   0.050163
 H 0.0662 0.7802 0.0094   0.112124
 H 0.0528 0.8644 0.0364   0.126351
 H 0.9598 0.7338 0.0357   0.13136
 H 0.8703 0.6198 0.9436   0.055891
 H 0.9488 0.6446 0.9769   0.057262
 H 0.7063 0.7552 0.9045   0.126592
 H 0.8215 0.718 0.9071   0.112255
 H 0.6794 0.6378 0.9176   0.131397
 H 0.5651 0.8846 0.9547   0.048089
 H 0.5676 0.793 0.9282   0.054733
 H 0.6546 0.9978 0.9876   0.114689
 H 0.6193 0.9358 0.0196   0.129728
 H 0.7548 0.0426 0.0173   0.117018
 H 0.7712 0.0384 0.8708   0.117908
 H 0.6953 0.1424 0.8422   0.08885
 H 0.4258 0.108 0.9071   0.092526
 H 0.4914 0.9908 0.9345   0.110769
 H 0.0274 0.5378 0.9449   0.123327
 H 0.1562 0.4606 0.9187   0.097847
 H 0.3646 0.757 0.8817   0.088227
 H 0.2437 0.8356 0.9097   0.128654
 H 0.6167 0.6406 0.8243   0.097949
 H 0.8576 0.7174 0.8186   0.137882
 H 0.7365 0.4428 0.8672   0.100116
 H 0.0349 0.6674 0.8598   0.077451
 H 0.9792 0.5356 0.8617   0.083797
 H 0.1331 0.8006 0.84   0.116922
 H 0.2515 0.8534 0.817   0.128282
 H 0.1092 0.8338 0.8059   0.130353
 H 0.9275 0.3066 0.8068   0.127741
 H 0.96 0.3774 0.8404   0.130666
 H 0.842 0.3698 0.8185   0.125965
 H 0.3479 0.627 0.7367   0.119599
 H 0.277 0.4936 0.7347   0.104453
 H 0.221 0.561 0.7144   0.131674
 H 0.0903 0.3556 0.7391   0.087148
 H 0.992 0.2972 0.7663   0.096428
 H 0.1615 0.178 0.756   0.139874
 H 0.3329 0.195 0.7951   0.099024
 H 0.2666 0.4622 0.8112   0.07732
 H 0.2672 0.84 0.7664   0.094097
 H 0.2781 0.764 0.7366   0.108229
 H 0.4331 0.7576 0.8153   0.137945
 H 0.6713 0.8474 0.8115   0.108828
 H 0.5262 0.8882 0.7307   0.101958
 H 0.8587 0.7878 0.6623   0.077738
 H 0.9044 0.743 0.6105   0.131654
 H 0.1018 0.0748 0.598   0.119022
 H 0.0605 0.119 0.6505   0.064066
 H 0.1454 0.0098 0.5477   0.049683
 H 0.9949 0.9852 0.5471   0.049649
 H 0.714 0.7802 0.5094   0.111649
 H 0.8116 0.8644 0.5364   0.126086
 H 0.774 0.7338 0.5357   0.13084
 H 0.7495 0.6198 0.4436   0.055971
 H 0.6958 0.6446 0.4769   0.057588
 H 0.0489 0.7552 0.4045   0.126554
 H 0.8965 0.718 0.4071   0.112427
 H 0.9584 0.6378 0.4176   0.131721
 H 0.3195 0.8846 0.4547   0.048478
 H 0.2254 0.793 0.4282   0.05518
 H 0.3432 0.9978 0.4876   0.11468
 H 0.3165 0.9358 0.5196   0.129476
 H 0.2878 0.0426 0.5173   0.117217
 H 0.2672 0.0384 0.3708   0.118492
 H 0.4471 0.1424 0.3422   0.089017
 H 0.6822 0.108 0.4071   0.092469
 H 0.4994 0.9908 0.4345   0.111432
 H 0.5104 0.5378 0.4449   0.123227
 H 0.3044 0.4606 0.4187   0.097998
 H 0.3924 0.757 0.3817   0.088597
 H 0.5919 0.8356 0.4097   0.128617
 H 0.0239 0.6406 0.3243   0.098043
 H 0.8598 0.7174 0.3186   0.137543
 H 0.7063 0.4428 0.3672   0.09981
 H 0.6325 0.6674 0.3598   0.077003
 H 0.5564 0.5356 0.3617   0.083735
 H 0.6675 0.8006 0.34   0.117542
 H 0.6019 0.8534 0.317   0.128404
 H 0.7246 0.8338 0.3059   0.130618
 H 0.3791 0.3066 0.3068   0.127131
 H 0.4174 0.3774 0.3404   0.130515
 H 0.5278 0.3698 0.3185   0.126044
 H 0.2791 0.627 0.2367   0.120144
 H 0.2166 0.4936 0.2347   0.104723
 H 0.34 0.561 0.2144   0.131987
 H 0.2653 0.3556 0.2391   0.087398
 H 0.3052 0.2972 0.2663   0.096492
 H 0.0165 0.178 0.256   0.140226
 H 0.8621 0.195 0.2951   0.099186
 H 0.1956 0.4622 0.3112   0.078112
 H 0.5728 0.84 0.2664   0.093659
 H 0.4859 0.764 0.2366   0.107744
 H 0.3245 0.7576 0.3153   0.137477
 H 0.1761 0.8474 0.3115   0.109179
 H 0.362 0.8882 0.2307   0.101898
 H 0.0709 0.2122 0.8377   0.077995
 H 0.1614 0.257 0.8895   0.131518
 H 0.027 0.9252 0.902   0.118747
 H 0.9415 0.881 0.8495   0.064116
 H 0.1356 0.9902 0.9523   0.049871
 H 0.0097 0.0148 0.9529   0.050163
 H 0.9338 0.2198 0.9906   0.112124
 H 0.9472 0.1356 0.9636   0.126351
 H 0.0402 0.2662 0.9643   0.131359
 H 0.1297 0.3802 0.0564   0.055891
 H 0.0512 0.3554 0.0231   0.057262
 H 0.2937 0.2448 0.0955   0.126592
 H 0.1785 0.282 0.0929   0.112255
 H 0.3206 0.3622 0.0824   0.131397
 H 0.4349 0.1154 0.0453   0.048089
 H 0.4324 0.207 0.0718   0.054733
 H 0.3454 0.0022 0.0124   0.114689
 H 0.3807 0.0642 0.9804   0.129728
 H 0.2452 0.9574 0.9827   0.117018
 H 0.2288 0.9616 0.1292   0.117908
 H 0.3047 0.8576 0.1578   0.08885
 H 0.5742 0.892 0.0929   0.092526
 H 0.5086 0.0092 0.0655   0.110769
 H 0.9726 0.4622 0.0551   0.123326
 H 0.8438 0.5394 0.0813   0.097846
 H 0.6354 0.243 0.1183   0.088227
 H 0.7563 0.1644 0.0903   0.128654
 H 0.3833 0.3594 0.1757   0.097949
 H 0.1424 0.2826 0.1814   0.137882
 H 0.2635 0.5572 0.1328   0.100116
 H 0.9651 0.3326 0.1402   0.077451
 H 0.0208 0.4644 0.1383   0.083797
 H 0.8669 0.1994 0.16   0.116922
 H 0.7485 0.1466 0.183   0.128282
 H 0.8908 0.1662 0.1941   0.130353
 H 0.0725 0.6934 0.1932   0.127741
 H 0.04 0.6226 0.1596   0.130666
 H 0.158 0.6302 0.1815   0.125965
 H 0.6521 0.373 0.2633   0.119599
 H 0.723 0.5064 0.2653   0.104453
 H 0.779 0.439 0.2856   0.131674
 H 0.9097 0.6444 0.2609   0.087148
 H 0.008 0.7028 0.2337   0.096428
 H 0.8385 0.822 0.244   0.139874
 H 0.6671 0.805 0.2049   0.099024
 H 0.7334 0.5378 0.1888   0.07732
 H 0.7328 0.16 0.2336   0.094097
 H 0.7219 0.236 0.2634   0.108229
 H 0.5669 0.2424 0.1847   0.137945
 H 0.3287 0.1526 0.1885   0.108828
 H 0.4738 0.1118 0.2693   0.101958
 C 0.0689 0.0124 0.30369   0.650851
 C 0.0411 0.0418 0.33772   -0.20855
 C 0.0899 0.1542 0.35042   0.007616
 C 0.0635 0.1812 0.38144   -0.224623
 C 0.99 0.096 0.40042   0.305063
 C 0.945 0.983 0.38883   -0.268018
 C 0.9705 0.9568 0.35739   0.021624
 C 0.9441 0.0496 0.45502   0.114835
 C 0.9639 0.1148 0.48783   -0.128431
 C 0.0926 0.1876 0.49873   0.116437
 C 0.1118 0.2438 0.52928   -0.157214
 C 0.0046 0.2278 0.54896   0.116229
 C 0.877 0.1586 0.5376   -0.138644
 C 0.8561 0.1022 0.50679   0.099671
 C 0.209 0.2038 0.47734   -0.356344
 C 0.2504 0.3204 0.54111   0.130076
 C 0.0273 0.2844 0.58309   -0.371157
 C 0.7604 0.1382 0.55853   0.129407
 C 0.7137 0.0242 0.49442   -0.347996
 C 0.6355 0.9948 0.59435   0.299563
 C 0.649 0.9492 0.62178   -0.235687
 C 0.541 0.8854 0.63863   -0.002882
 C 0.4151 0.861 0.62794   -0.189394
 C 0.4021 0.907 0.60059   0.014503
 C 0.5117 0.9762 0.58376   -0.282154
 C 0.2963 0.7774 0.64454   0.649341
 C 0.427 0.3058 0.57045   0.294653
 C 0.5134 0.4174 0.56777   -0.296187
 C 0.637 0.4642 0.58388   0.018011
 C 0.6733 0.4012 0.60333   -0.188287
 C 0.5849 0.288 0.60543   0.004849
 C 0.4645 0.241 0.58893   -0.249102
 C 0.8012 0.451 0.62289   0.649754
 C 0.0613 0.3904 0.6679   0.062496
 C 0.1516 0.347 0.67098   -0.150742
 C 0.235 0.4988 0.64438   0.143459
 C 0.3866 0.4056 0.65158   -0.02421
 C 0.4602 0.4152 0.68318   -0.12082
 C 0.544 0.523 0.69727   0.103711
 C 0.6206 0.5306 0.7246   -0.124633
 C 0.6123 0.4336 0.738   0.114003
 C 0.5249 0.3282 0.72467   -0.1163
 C 0.4468 0.315 0.69658   0.080789
 C 0.3546 0.1956 0.68208   -0.352376
 C 0.556 0.6266 0.68146   -0.366483
 C 0.7022 0.4384 0.76555   -0.367872
 C 0.7233 0.6442 0.73774   -0.022512
 C 0.9657 0.7626 0.7282   -0.134032
 C 0.0504 0.7524 0.70646   0.050099
 C 0.8692 0.607 0.69758   0.149494
 C 0.5118 0.2224 0.74013   -0.052166
 C 0.6856 0.2052 0.7021   -0.136392
 C 0.7669 0.1556 0.70442   0.037592
 C 0.6659 0.1326 0.74866   0.126502
 C 0.0565 0.9876 0.19631   0.6504
 C 0.9993 0.9582 0.16228   -0.208645
 C 0.9357 0.8458 0.14958   0.007614
 C 0.8823 0.8188 0.11856   -0.224457
 C 0.894 0.904 0.09958   0.305621
 C 0.962 0.017 0.11117   -0.267572
 C 0.0137 0.0432 0.14261   0.02107
 C 0.8945 0.9504 0.04498   0.114257
 C 0.8491 0.8852 0.01217   -0.128295
 C 0.905 0.8124 0.00127   0.115442
 C 0.868 0.7562 0.97072   -0.155664
 C 0.7768 0.7722 0.95104   0.114994
 C 0.7184 0.8414 0.9624   -0.137116
 C 0.7539 0.8978 0.99321   0.099609
 C 0.0052 0.7962 0.02266   -0.357438
 C 0.93 0.6796 0.95889   0.130379
 C 0.7429 0.7156 0.91691   -0.37095
 C 0.6222 0.8618 0.94147   0.129629
 C 0.6895 0.9758 0.00558   -0.347923
 C 0.6407 0.0052 0.90565   0.298845
 C 0.6998 0.0508 0.87822   -0.234938
 C 0.6556 0.1146 0.86137   -0.002729
 C 0.5541 0.139 0.87206   -0.188905
 C 0.4951 0.093 0.89941   0.013337
 C 0.5355 0.0238 0.91624   -0.280492
 C 0.5189 0.2226 0.85546   0.649046
 C 0.1212 0.6942 0.92955   0.29401
 C 0.096 0.5826 0.93223   -0.295136
 C 0.1728 0.5358 0.91612   0.017781
 C 0.2721 0.5988 0.89667   -0.188517
 C 0.2969 0.712 0.89457   0.005001
 C 0.2235 0.759 0.91107   -0.248248
 C 0.3502 0.549 0.87711   0.649585
 C 0.6709 0.6096 0.8321   0.06269
 C 0.8046 0.653 0.82902   -0.151776
 C 0.7362 0.5012 0.85562   0.142691
 C 0.981 0.5944 0.84842   -0.025434
 C 0.045 0.5848 0.81682   -0.119427
 C 0.021 0.477 0.80273   0.102684
 C 0.09 0.4694 0.7754   -0.123614
 C 0.1787 0.5664 0.762   0.112919
 C 0.1967 0.6718 0.77533   -0.115149
 C 0.1318 0.685 0.80342   0.080464
 C 0.159 0.8044 0.81792   -0.35136
 C 0.9294 0.3734 0.81854   -0.366998
 C 0.2638 0.5616 0.73445   -0.366506
 C 0.0791 0.3558 0.76226   -0.021666
 C 0.2031 0.2374 0.7718   -0.133741
 C 0.298 0.2476 0.79354   0.050371
 C 0.2622 0.393 0.80242   0.150494
 C 0.2894 0.7776 0.75987   -0.054545
 C 0.4804 0.7948 0.7979   -0.13799
 C 0.6113 0.8444 0.79558   0.039184
 C 0.5333 0.8674 0.75134   0.127267
 C 0.9311 0.9876 0.69631   0.650851
 C 0.9589 0.9582 0.66228   -0.20855
 C 0.9101 0.8458 0.64958   0.007616
 C 0.9365 0.8188 0.61856   -0.224623
 C 0.01 0.904 0.59958   0.305063
 C 0.055 0.017 0.61117   -0.268018
 C 0.0295 0.0432 0.64261   0.021624
 C 0.0559 0.9504 0.54498   0.114835
 C 0.0361 0.8852 0.51217   -0.128431
 C 0.9074 0.8124 0.50127   0.116437
 C 0.8882 0.7562 0.47072   -0.157215
 C 0.9954 0.7722 0.45104   0.116229
 C 0.123 0.8414 0.4624   -0.138645
 C 0.1439 0.8978 0.49321   0.099671
 C 0.791 0.7962 0.52266   -0.356343
 C 0.7496 0.6796 0.45889   0.130076
 C 0.9727 0.7156 0.41691   -0.371157
 C 0.2396 0.8618 0.44147   0.129407
 C 0.2863 0.9758 0.50558   -0.347996
 C 0.3645 0.0052 0.40565   0.299563
 C 0.351 0.0508 0.37822   -0.235687
 C 0.459 0.1146 0.36137   -0.002882
 C 0.5849 0.139 0.37206   -0.189394
 C 0.5979 0.093 0.39941   0.014503
 C 0.4883 0.0238 0.41624   -0.282154
 C 0.7037 0.2226 0.35546   0.649341
 C 0.573 0.6942 0.42955   0.294653
 C 0.4866 0.5826 0.43223   -0.296186
 C 0.363 0.5358 0.41612   0.01801
 C 0.3267 0.5988 0.39667   -0.188287
 C 0.4151 0.712 0.39457   0.004849
 C 0.5355 0.759 0.41107   -0.249102
 C 0.1988 0.549 0.37711   0.649754
 C 0.9387 0.6096 0.3321   0.062496
 C 0.8484 0.653 0.32902   -0.150742
 C 0.765 0.5012 0.35562   0.143459
 C 0.6134 0.5944 0.34842   -0.02421
 C 0.5398 0.5848 0.31682   -0.12082
 C 0.456 0.477 0.30273   0.103711
 C 0.3794 0.4694 0.2754   -0.124633
 C 0.3877 0.5664 0.262   0.114003
 C 0.4751 0.6718 0.27533   -0.1163
 C 0.5532 0.685 0.30342   0.080789
 C 0.6454 0.8044 0.31792   -0.352376
 C 0.444 0.3734 0.31854   -0.366483
 C 0.2978 0.5616 0.23445   -0.367872
 C 0.2767 0.3558 0.26226   -0.022512
 C 0.0343 0.2374 0.2718   -0.134032
 C 0.9496 0.2476 0.29354   0.050099
 C 0.1308 0.393 0.30242   0.149494
 C 0.4882 0.7776 0.25987   -0.052166
 C 0.3144 0.7948 0.2979   -0.136392
 C 0.2331 0.8444 0.29558   0.037592
 C 0.3341 0.8674 0.25134   0.126502
 C 0.9435 0.0124 0.80369   0.6504
 C 0.000700000000002 0.0418 0.83772   -0.208645
 C 0.0643 0.1542 0.85042   0.007614
 C 0.1177 0.1812 0.88144   -0.224457
 C 0.106 0.096 0.90042   0.305621
 C 0.038 0.983 0.88883   -0.267572
 C 0.9863 0.9568 0.85739   0.02107
 C 0.1055 0.0496 0.95502   0.114257
 C 0.1509 0.1148 0.98783   -0.128295
 C 0.095 0.1876 0.99873   0.115441
 C 0.132 0.2438 0.02928   -0.155665
 C 0.2232 0.2278 0.04896   0.114993
 C 0.2816 0.1586 0.0376   -0.137116
 C 0.2461 0.1022 0.00679   0.099609
 C 0.9948 0.2038 0.97734   -0.357437
 C 0.07 0.3204 0.04111   0.130379
 C 0.2571 0.2844 0.08309   -0.37095
 C 0.3778 0.1382 0.05853   0.129629
 C 0.3105 0.0242 0.99442   -0.347923
 C 0.3593 0.9948 0.09435   0.298845
 C 0.3002 0.9492 0.12178   -0.234938
 C 0.3444 0.8854 0.13863   -0.002729
 C 0.4459 0.861 0.12794   -0.188905
 C 0.5049 0.907 0.10059   0.013337
 C 0.4645 0.9762 0.08376   -0.280492
 C 0.4811 0.7774 0.14454   0.649046
 C 0.8788 0.3058 0.07045   0.29401
 C 0.904 0.4174 0.06777   -0.295136
 C 0.8272 0.4642 0.08388   0.017781
 C 0.7279 0.4012 0.10333   -0.188517
 C 0.7031 0.288 0.10543   0.005001
 C 0.7765 0.241 0.08893   -0.248248
 C 0.6498 0.451 0.12289   0.649585
 C 0.3291 0.3904 0.1679   0.06269
 C 0.1954 0.347 0.17098   -0.151776
 C 0.2638 0.4988 0.14438   0.142691
 C 0.019 0.4056 0.15158   -0.025434
 C 0.955 0.4152 0.18318   -0.119427
 C 0.979 0.523 0.19727   0.102684
 C 0.91 0.5306 0.2246   -0.123614
 C 0.8213 0.4336 0.238   0.112919
 C 0.8033 0.3282 0.22467   -0.115149
 C 0.8682 0.315 0.19658   0.080464
 C 0.841 0.1956 0.18208   -0.35136
 C 0.0706 0.6266 0.18146   -0.366998
 C 0.7362 0.4384 0.26555   -0.366506
 C 0.9209 0.6442 0.23774   -0.021666
 C 0.7969 0.7626 0.2282   -0.133741
 C 0.702 0.7524 0.20646   0.050371
 C 0.7378 0.607 0.19758   0.150494
 C 0.7106 0.2224 0.24013   -0.054545
 C 0.5196 0.2052 0.2021   -0.13799
 C 0.3887 0.1556 0.20442   0.039184
 C 0.4667 0.1326 0.24866   0.127267
 N 0.11592 0.48664 0.65155   -0.433994
 N 0.26222 0.41664 0.6557   0.042538
 N 0.98943 0.65446 0.68724   -0.431769
 N 0.84977 0.66894 0.72222   0.056515
 N 0.61951 0.19022 0.73073   0.034962
 N 0.75473 0.10926 0.73368   -0.389328
 N 0.62928 0.51336 0.84845   -0.433606
 N 0.84558 0.58336 0.8443   0.043165
 N 0.33497 0.34554 0.81276   -0.43231
 N 0.18083 0.33106 0.77778   0.055947
 N 0.42929 0.80978 0.76927   0.034951
 N 0.64547 0.89074 0.76632   -0.389874
 N 0.88408 0.51336 0.34845   -0.433994
 N 0.73778 0.58336 0.3443   0.042538
 N 0.01057 0.34554 0.31276   -0.431769
 N 0.15023 0.33106 0.27778   0.056515
 N 0.38049 0.80978 0.26927   0.034962
 N 0.24527 0.89074 0.26632   -0.389328
 N 0.37072 0.48664 0.15155   -0.433606
 N 0.15442 0.41664 0.1557   0.043165
 N 0.66503 0.65446 0.18724   -0.43231
 N 0.81917 0.66894 0.22222   0.055947
 N 0.57071 0.19022 0.23073   0.034951
 N 0.35453 0.10926 0.23368   -0.389874
 O 0.16992 0.08584 0.29121   -0.591259
 O 0.99888 0.91916 0.28957   -0.597961
 O 0.96876 0.13032 0.43119   -0.283316
 O 0.7492 0.0516 0.57786   -0.29149
 O 0.18783 0.72706 0.62694   -0.60444
 O 0.3099 0.76 0.67305   -0.611479
 O 0.30285 0.2531 0.55635   -0.287819
 O 0.81268 0.40476 0.64662   -0.578925
 O 0.89195 0.5449 0.61453   -0.607104
 O 0.08408 0.91416 0.20879   -0.591243
 O 0.07972 0.08084 0.21043   -0.597738
 O 0.83844 0.86968 0.06881   -0.283894
 O 0.6976 0.9484 0.92214   -0.291492
 O 0.46077 0.27294 0.87306   -0.604288
 O 0.5499 0.24 0.82695   -0.611061
 O 0.04975 0.7469 0.94365   -0.288105
 O 0.40792 0.59524 0.85338   -0.579317
 O 0.34705 0.4551 0.88547   -0.606594
 O 0.83008 0.91416 0.70879   -0.591259
 O 0.00112 0.08084 0.71043   -0.597961
 O 0.03124 0.86968 0.56881   -0.283316
 O 0.2508 0.9484 0.42214   -0.29149
 O 0.81217 0.27294 0.37306   -0.60444
 O 0.6901 0.24 0.32695   -0.611479
 O 0.69715 0.7469 0.44365   -0.287819
 O 0.18732 0.59524 0.35338   -0.578925
 O 0.10805 0.4551 0.38547   -0.607104
 O 0.91592 0.08584 0.79121   -0.591243
 O 0.92028 0.91916 0.78957   -0.597738
 O 0.16156 0.13032 0.93119   -0.283894
 O 0.3024 0.0516 0.07786   -0.291492
 O 0.53923 0.72706 0.12694   -0.604288
 O 0.4501 0.76 0.17305   -0.611061
 O 0.95025 0.2531 0.05635   -0.288105
 O 0.59208 0.40476 0.14662   -0.579317
 O 0.65295 0.5449 0.11453   -0.606594
