{'_ref': 'TBD', '_srcid': 'CAKYAQ_clean', 'submitters': [{'name': 'Dalar Nazarian Jeff Camp and David Sholl', 'email': 'dalar@gatech.edu jcamp6@gatech.edu'}], '_method': 'VASP DFT with PBE;DDEC'}
data_CuH3C7NO4
_symmetry_space_group_name_H-M   'P 1'
_cell_length_a   7.33610030
_cell_length_b   10.74960000
_cell_length_c   14.02800000
_cell_angle_alpha   90.00000000
_cell_angle_beta   90.77799717
_cell_angle_gamma   90.00000000
_symmetry_Int_Tables_number   1
_chemical_formula_structural   CuH3C7NO4
_chemical_formula_sum   'Cu4 H12 C28 N4 O16'
_cell_volume   1106.14811409
_cell_formula_units_Z   4
loop_
 _symmetry_equiv_pos_site_id
 _symmetry_equiv_pos_as_xyz
  1  'x, y, z'
loop_
 _atom_site_label
 _atom_site_fract_x
 _atom_site_fract_y
 _atom_site_fract_z
 _atom_site_charge
 Cu 0.91107 0.9079 0.88013   0.903437
 Cu 0.08893 0.4079 0.61987   0.903437
 Cu 0.08893 0.0921 0.11987   0.903437
 Cu 0.91107 0.5921 0.38013   0.903437
 H 0.3689 0.753 0.8112   0.129119
 H 0.4656 0.4542 0.5813   0.09396
 H 0.1299 0.6342 0.7504   0.099873
 H 0.6311 0.253 0.6888   0.129118
 H 0.5344 0.9542 0.9187   0.09396
 H 0.8701 0.1342 0.7496   0.099874
 H 0.6311 0.247 0.1888   0.129118
 H 0.5344 0.5458 0.4187   0.09396
 H 0.8701 0.3658 0.2496   0.099874
 H 0.3689 0.747 0.3112   0.129118
 H 0.4656 0.0458 0.0813   0.09396
 H 0.1299 0.8658 0.2504   0.099874
 C 0.7242 0.7538 0.7667   0.605618
 C 0.5679 0.674 0.731   0.036508
 C 0.5937 0.5865 0.6594   -0.131254
 C 0.3918 0.6917 0.764   -0.151229
 C 0.4467 0.5159 0.6286   0.142316
 C 0.7746 0.5591 0.6136   0.707446
 C 0.25 0.62 0.7282   0.170637
 C 0.2758 0.2538 0.7333   0.605618
 C 0.4321 0.174 0.769   0.036509
 C 0.4063 0.0865 0.8406   -0.131254
 C 0.6082 0.1917 0.736   -0.151227
 C 0.5533 0.0159 0.8714   0.142316
 C 0.2254 0.0591 0.8864   0.707446
 C 0.75 0.12 0.7718   0.170637
 C 0.2758 0.2462 0.2333   0.605618
 C 0.4321 0.326 0.269   0.036508
 C 0.4063 0.4135 0.3406   -0.131254
 C 0.6082 0.3083 0.236   -0.151227
 C 0.5533 0.4841 0.3714   0.142316
 C 0.2254 0.4409 0.3864   0.707446
 C 0.75 0.38 0.2718   0.170637
 C 0.7242 0.7462 0.2667   0.605618
 C 0.5679 0.826 0.231   0.03651
 C 0.5937 0.9135 0.1594   -0.131254
 C 0.3918 0.8083 0.264   -0.151225
 C 0.4467 0.9841 0.1286   0.142316
 C 0.7746 0.9409 0.1136   0.707446
 C 0.25 0.88 0.2282   0.170636
 N 0.2778 0.5311 0.6631   -0.301534
 N 0.7222 0.0311 0.8369   -0.301534
 N 0.7222 0.4689 0.3369   -0.301534
 N 0.2778 0.9689 0.1631   -0.301534
 O 0.7319 0.7704 0.857   -0.560041
 O 0.7886 0.5781 0.52762   -0.619123
 O 0.8942 0.512 0.66897   -0.588353
 O 0.8288 0.7978 0.7082   -0.537383
 O 0.2681 0.2704 0.643   -0.560041
 O 0.2114 0.0781 0.97238   -0.619123
 O 0.1058 0.012 0.83103   -0.588353
 O 0.1712 0.2978 0.7918   -0.537382
 O 0.2681 0.2296 0.143   -0.56004
 O 0.2114 0.4219 0.47238   -0.619123
 O 0.1058 0.488 0.33103   -0.588353
 O 0.1712 0.2022 0.2918   -0.537382
 O 0.7319 0.7296 0.357   -0.56004
 O 0.7886 0.9219 0.02762   -0.619123
 O 0.8942 0.988 0.16897   -0.588353
 O 0.8288 0.7022 0.2082   -0.537382
