{'_ref': 'TBD', '_srcid': 'CAKYAQ_clean', 'submitters': [{'name': 'Dalar Nazarian Jeff Camp and David Sholl', 'email': 'dalar@gatech.edu jcamp6@gatech.edu'}], '_method': 'VASP DFT with PBE;DDEC'}
data_CoBH15C14(N4O)2
_symmetry_space_group_name_H-M   'P 1'
_cell_length_a   13.22810000
_cell_length_b   16.77300000
_cell_length_c   20.86100000
_cell_angle_alpha   90.00000000
_cell_angle_beta   90.00000000
_cell_angle_gamma   90.00000000
_symmetry_Int_Tables_number   1
_chemical_formula_structural   CoBH15C14(N4O)2
_chemical_formula_sum   'Co8 B8 H120 C112 N64 O16'
_cell_volume   4628.53273324
_cell_formula_units_Z   8
loop_
 _symmetry_equiv_pos_site_id
 _symmetry_equiv_pos_as_xyz
  1  'x, y, z'
loop_
 _atom_site_label
 _atom_site_fract_x
 _atom_site_fract_y
 _atom_site_fract_z
 _atom_site_charge
 Co 0.27535 0.81711 0.64143   0.695679
 Co 0.72465 0.81711 0.35857   0.695679
 Co 0.27535 0.18289 0.35857   0.695679
 Co 0.72465 0.18289 0.64143   0.695679
 Co 0.77535 0.31711 0.14143   0.695679
 Co 0.22465 0.31711 0.85857   0.695679
 Co 0.77535 0.68289 0.85857   0.695679
 Co 0.22465 0.68289 0.14143   0.695679
 B 0.7059 0.8462 0.6295   0.458655
 B 0.2941 0.8462 0.3705   0.458655
 B 0.7059 0.1538 0.3705   0.458655
 B 0.2941 0.1538 0.6295   0.458655
 B 0.2059 0.3462 0.1295   0.458655
 B 0.7941 0.3462 0.8705   0.458655
 B 0.2059 0.6538 0.8705   0.458655
 B 0.7941 0.6538 0.1295   0.458655
 H 0.5036 0.9014 0.6431   0.074161
 H 0.4964 0.9014 0.3569   0.074161
 H 0.5036 0.0986 0.3569   0.074161
 H 0.4964 0.0986 0.6431   0.074161
 H 0.0036 0.4014 0.1431   0.074161
 H 0.9964 0.4014 0.8569   0.074161
 H 0.0036 0.5986 0.8569   0.074161
 H 0.9964 0.5986 0.1431   0.074161
 H 0.4388 0.6811 0.595   0.115474
 H 0.5612 0.6811 0.405   0.115473
 H 0.4388 0.3189 0.405   0.115474
 H 0.5612 0.3189 0.595   0.115473
 H 0.9388 0.1811 0.095   0.115474
 H 0.0612 0.1811 0.905   0.115473
 H 0.9388 0.8189 0.905   0.115474
 H 0.0612 0.8189 0.095   0.115473
 H 0.6204 0.6931 0.5966   0.135287
 H 0.3796 0.6931 0.4034   0.135287
 H 0.6204 0.3069 0.4034   0.135287
 H 0.3796 0.3069 0.5966   0.135287
 H 0.1204 0.1931 0.0966   0.135287
 H 0.8796 0.1931 0.9034   0.135287
 H 0.1204 0.8069 0.9034   0.135287
 H 0.8796 0.8069 0.0966   0.135287
 H 0.1019 0.6138 0.596   0.155381
 H 0.8981 0.6138 0.404   0.155381
 H 0.1019 0.3862 0.404   0.155381
 H 0.8981 0.3862 0.596   0.155381
 H 0.6019 0.1138 0.096   0.155381
 H 0.3981 0.1138 0.904   0.155381
 H 0.6019 0.8862 0.904   0.155381
 H 0.3981 0.8862 0.096   0.155381
 H 0.0322 0.6448 0.6514   0.136355
 H 0.9678 0.6448 0.3486   0.136355
 H 0.0322 0.3552 0.3486   0.136355
 H 0.9678 0.3552 0.6514   0.136355
 H 0.5322 0.1448 0.1514   0.136355
 H 0.4678 0.1448 0.8486   0.136355
 H 0.5322 0.8552 0.8486   0.136355
 H 0.4678 0.8552 0.1514   0.136355
 H 0.0213 0.6802 0.5822   0.148504
 H 0.9787 0.6802 0.4178   0.148503
 H 0.0213 0.3198 0.4178   0.148504
 H 0.9787 0.3198 0.5822   0.148503
 H 0.5213 0.1802 0.0822   0.148504
 H 0.4787 0.1802 0.9178   0.148503
 H 0.5213 0.8198 0.9178   0.148504
 H 0.4787 0.8198 0.0822   0.148503
 H 0.6408 0.8112 0.5022   0.061767
 H 0.3592 0.8112 0.4978   0.061767
 H 0.6408 0.1888 0.4978   0.061767
 H 0.3592 0.1888 0.5022   0.061767
 H 0.1408 0.3112 0.0022   0.061767
 H 0.8592 0.3112 0.9978   0.061767
 H 0.1408 0.6888 0.9978   0.061767
 H 0.8592 0.6888 0.0022   0.061767
 H 0.8922 0.9004 0.573   0.125354
 H 0.1078 0.9004 0.427   0.125354
 H 0.8922 0.0996 0.427   0.125354
 H 0.1078 0.0996 0.573   0.125354
 H 0.3922 0.4004 0.073   0.125354
 H 0.6078 0.4004 0.927   0.125354
 H 0.3922 0.5996 0.927   0.125354
 H 0.6078 0.5996 0.073   0.125354
 H 0.9025 0.9002 0.4559   0.101509
 H 0.0975 0.9002 0.5441   0.101509
 H 0.9025 0.0998 0.5441   0.101509
 H 0.0975 0.0998 0.4559   0.101509
 H 0.4025 0.4002 0.9559   0.101509
 H 0.5975 0.4002 0.0441   0.101509
 H 0.4025 0.5998 0.0441   0.101509
 H 0.5975 0.5998 0.9559   0.101509
 H 0.6629 0.7602 0.7396   0.059297
 H 0.3371 0.7602 0.2604   0.059297
 H 0.6629 0.2398 0.2604   0.059297
 H 0.3371 0.2398 0.7396   0.059297
 H 0.1629 0.2602 0.2396   0.059297
 H 0.8371 0.2602 0.7604   0.059297
 H 0.1629 0.7398 0.7604   0.059297
 H 0.8371 0.7398 0.2396   0.059297
 H 0.7115 0.0066 0.5848   0.055649
 H 0.2885 0.0066 0.4152   0.055649
 H 0.7115 0.9934 0.4152   0.055649
 H 0.2885 0.9934 0.5848   0.055649
 H 0.2115 0.5066 0.0848   0.055649
 H 0.7885 0.5066 0.9152   0.055649
 H 0.2115 0.4934 0.9152   0.055649
 H 0.7885 0.4934 0.0848   0.055649
 H 0.9159 0.788 0.6448   0.100536
 H 0.0841 0.788 0.3552   0.100536
 H 0.9159 0.212 0.3552   0.100536
 H 0.0841 0.212 0.6448   0.100536
 H 0.4159 0.288 0.1448   0.100536
 H 0.5841 0.288 0.8552   0.100536
 H 0.4159 0.712 0.8552   0.100536
 H 0.5841 0.712 0.1448   0.100536
 H 0.6856 0.9175 0.7572   0.119995
 H 0.3144 0.9175 0.2428   0.119995
 H 0.6856 0.0825 0.2428   0.119995
 H 0.3144 0.0825 0.7572   0.119995
 H 0.1856 0.4175 0.2572   0.119995
 H 0.8144 0.4175 0.7428   0.119995
 H 0.1856 0.5825 0.7428   0.119995
 H 0.8144 0.5825 0.2572   0.119995
 H 0.9503 0.72 0.7423   0.085892
 H 0.0497 0.72 0.2577   0.085892
 H 0.9503 0.28 0.2577   0.085892
 H 0.0497 0.28 0.7423   0.085892
 H 0.4503 0.22 0.2423   0.085892
 H 0.5497 0.22 0.7577   0.085892
 H 0.4503 0.78 0.7577   0.085892
 H 0.5497 0.78 0.2423   0.085892
 H 0.6991 0.058 0.7633   0.093819
 H 0.3009 0.058 0.2367   0.093819
 H 0.6991 0.942 0.2367   0.093819
 H 0.3009 0.942 0.7633   0.093819
 H 0.1991 0.558 0.2633   0.093819
 H 0.8009 0.558 0.7367   0.093819
 H 0.1991 0.442 0.7367   0.093819
 H 0.8009 0.442 0.2633   0.093819
 C 0.5094 0.8481 0.6314   0.167327
 C 0.4906 0.8481 0.3686   0.167327
 C 0.5094 0.1519 0.3686   0.167327
 C 0.4906 0.1519 0.6314   0.167327
 C 0.0094 0.3481 0.1314   0.167327
 C 0.9906 0.3481 0.8686   0.167327
 C 0.0094 0.6519 0.8686   0.167327
 C 0.9906 0.6519 0.1314   0.167327
 C 0.474 0.7276 0.6047   0.021121
 C 0.526 0.7276 0.3953   0.021121
 C 0.474 0.2724 0.3953   0.021121
 C 0.526 0.2724 0.6047   0.021121
 C 0.974 0.2276 0.1047   0.021121
 C 0.026 0.2276 0.8953   0.021121
 C 0.974 0.7724 0.8953   0.021121
 C 0.026 0.7724 0.1047   0.021121
 C 0.5745 0.7334 0.6061   -0.111366
 C 0.4255 0.7334 0.3939   -0.111366
 C 0.5745 0.2666 0.3939   -0.111366
 C 0.4255 0.2666 0.6061   -0.111366
 C 0.0745 0.2334 0.1061   -0.111366
 C 0.9255 0.2334 0.8939   -0.111366
 C 0.0745 0.7666 0.8939   -0.111366
 C 0.9255 0.7666 0.1061   -0.111366
 C 0.0681 0.6597 0.6133   -0.494843
 C 0.9319 0.6597 0.3867   -0.494843
 C 0.0681 0.3403 0.3867   -0.494844
 C 0.9319 0.3403 0.6133   -0.494843
 C 0.5681 0.1597 0.1133   -0.494843
 C 0.4319 0.1597 0.8867   -0.494843
 C 0.5681 0.8403 0.8867   -0.494844
 C 0.4319 0.8403 0.1133   -0.494843
 C 0.7052 0.8333 0.5048   0.17646
 C 0.2948 0.8333 0.4952   0.17646
 C 0.7052 0.1667 0.4952   0.17646
 C 0.2948 0.1667 0.5048   0.17646
 C 0.2052 0.3333 0.0048   0.17646
 C 0.7948 0.3333 0.9952   0.17646
 C 0.2052 0.6667 0.9952   0.17646
 C 0.7948 0.6667 0.0048   0.17646
 C 0.8424 0.8824 0.5449   -0.091918
 C 0.1576 0.8824 0.4551   -0.091918
 C 0.8424 0.1176 0.4551   -0.091918
 C 0.1576 0.1176 0.5449   -0.091918
 C 0.3424 0.3824 0.0449   -0.091918
 C 0.6576 0.3824 0.9551   -0.091918
 C 0.3424 0.6176 0.9551   -0.091918
 C 0.6576 0.6176 0.0449   -0.091918
 C 0.8481 0.8817 0.4798   -0.020444
 C 0.1519 0.8817 0.5202   -0.020444
 C 0.8481 0.1183 0.5202   -0.020444
 C 0.1519 0.1183 0.4798   -0.020444
 C 0.3481 0.3817 0.9798   -0.020444
 C 0.6519 0.3817 0.0202   -0.020444
 C 0.3481 0.6183 0.0202   -0.020444
 C 0.6519 0.6183 0.9798   -0.020444
 C 0.7305 0.7569 0.7277   0.207209
 C 0.2695 0.7569 0.2723   0.207209
 C 0.7305 0.2431 0.2723   0.207209
 C 0.2695 0.2431 0.7277   0.207209
 C 0.2305 0.2569 0.2277   0.207209
 C 0.7695 0.2569 0.7723   0.207209
 C 0.2305 0.7431 0.7723   0.207209
 C 0.7695 0.7431 0.2277   0.207209
 C 0.7086 0.0013 0.6292   0.2012
 C 0.2914 0.0013 0.3708   0.2012
 C 0.7086 0.9987 0.3708   0.2012
 C 0.2914 0.9987 0.6292   0.2012
 C 0.2086 0.5013 0.1292   0.2012
 C 0.7914 0.5013 0.8708   0.2012
 C 0.2086 0.4987 0.8708   0.2012
 C 0.7914 0.4987 0.1292   0.2012
 C 0.8683 0.7737 0.6755   -0.058481
 C 0.1317 0.7737 0.3245   -0.058481
 C 0.8683 0.2263 0.3245   -0.058481
 C 0.1317 0.2263 0.6755   -0.058481
 C 0.3683 0.2737 0.1755   -0.058481
 C 0.6317 0.2737 0.8245   -0.058481
 C 0.3683 0.7263 0.8245   -0.058481
 C 0.6317 0.7263 0.1755   -0.058481
 C 0.6946 0.9519 0.7227   -0.102978
 C 0.3054 0.9519 0.2773   -0.102978
 C 0.6946 0.0481 0.2773   -0.102978
 C 0.3054 0.0481 0.7227   -0.102978
 C 0.1946 0.4519 0.2227   -0.102978
 C 0.8054 0.4519 0.7773   -0.102978
 C 0.1946 0.5481 0.7773   -0.102978
 C 0.8054 0.5481 0.2227   -0.102978
 C 0.8864 0.7355 0.7286   0.002919
 C 0.1136 0.7355 0.2714   0.002919
 C 0.8864 0.2645 0.2714   0.002919
 C 0.1136 0.2645 0.7286   0.002919
 C 0.3864 0.2355 0.2286   0.002919
 C 0.6136 0.2355 0.7714   0.002919
 C 0.3864 0.7645 0.7714   0.002919
 C 0.6136 0.7645 0.2286   0.002919
 C 0.7003 0.029 0.7253   0.028182
 C 0.2997 0.029 0.2747   0.028182
 C 0.7003 0.971 0.2747   0.028182
 C 0.2997 0.971 0.7253   0.028182
 C 0.2003 0.529 0.2253   0.028182
 C 0.7997 0.529 0.7747   0.028182
 C 0.2003 0.471 0.7747   0.028182
 C 0.7997 0.471 0.2253   0.028182
 C 0.1434 0.7216 0.629   0.628915
 C 0.8566 0.7216 0.371   0.628915
 C 0.1434 0.2784 0.371   0.628915
 C 0.8566 0.2784 0.629   0.628915
 C 0.6434 0.2216 0.129   0.628915
 C 0.3566 0.2216 0.871   0.628915
 C 0.6434 0.7784 0.871   0.628915
 C 0.3566 0.7784 0.129   0.628915
 N 0.5978 0.8109 0.6244   -0.18465
 N 0.4022 0.8109 0.3756   -0.18465
 N 0.5978 0.1891 0.3756   -0.18465
 N 0.4022 0.1891 0.6244   -0.18465
 N 0.0978 0.3109 0.1244   -0.18465
 N 0.9022 0.3109 0.8756   -0.18465
 N 0.0978 0.6891 0.8756   -0.18465
 N 0.9022 0.6891 0.1244   -0.18465
 N 0.4285 0.8001 0.6195   -0.353017
 N 0.5715 0.8001 0.3805   -0.353017
 N 0.4285 0.1999 0.3805   -0.353017
 N 0.5715 0.1999 0.6195   -0.353017
 N 0.9285 0.3001 0.1195   -0.353017
 N 0.0715 0.3001 0.8805   -0.353017
 N 0.9285 0.6999 0.8805   -0.353017
 N 0.0715 0.6999 0.1195   -0.353017
 N 0.7515 0.8524 0.5614   -0.182389
 N 0.2485 0.8524 0.4386   -0.182389
 N 0.7515 0.1476 0.4386   -0.182389
 N 0.2485 0.1476 0.5614   -0.182389
 N 0.2515 0.3524 0.0614   -0.182389
 N 0.7485 0.3524 0.9386   -0.182389
 N 0.2515 0.6476 0.9386   -0.182389
 N 0.7485 0.6476 0.0614   -0.182389
 N 0.7612 0.8494 0.4549   -0.329708
 N 0.2388 0.8494 0.5451   -0.329708
 N 0.7612 0.1506 0.5451   -0.329708
 N 0.2388 0.1506 0.4549   -0.329708
 N 0.2612 0.3494 0.9549   -0.329708
 N 0.7388 0.3494 0.0451   -0.329708
 N 0.2612 0.6506 0.0451   -0.329708
 N 0.7388 0.6506 0.9549   -0.329708
 N 0.7664 0.7891 0.6732   -0.222104
 N 0.2336 0.7891 0.3268   -0.222104
 N 0.7664 0.2109 0.3268   -0.222104
 N 0.2336 0.2109 0.6732   -0.222104
 N 0.2664 0.2891 0.1732   -0.222104
 N 0.7336 0.2891 0.8268   -0.222104
 N 0.2664 0.7109 0.8268   -0.222104
 N 0.7336 0.7109 0.1732   -0.222104
 N 0.7045 0.9302 0.6583   -0.208265
 N 0.2955 0.9302 0.3417   -0.208265
 N 0.7045 0.0698 0.3417   -0.208265
 N 0.2955 0.0698 0.6583   -0.208265
 N 0.2045 0.4302 0.1583   -0.208265
 N 0.7955 0.4302 0.8417   -0.208265
 N 0.2045 0.5698 0.8417   -0.208265
 N 0.7955 0.5698 0.1583   -0.208265
 N 0.7081 0.0621 0.6673   -0.348693
 N 0.2919 0.0621 0.3327   -0.348693
 N 0.7081 0.9379 0.3327   -0.348693
 N 0.2919 0.9379 0.6673   -0.348693
 N 0.2081 0.5621 0.1673   -0.348693
 N 0.7919 0.5621 0.8327   -0.348693
 N 0.2081 0.4379 0.8327   -0.348693
 N 0.7919 0.4379 0.1673   -0.348693
 N 0.7978 0.7212 0.762   -0.355805
 N 0.2022 0.7212 0.238   -0.355805
 N 0.7978 0.2788 0.238   -0.355805
 N 0.2022 0.2788 0.762   -0.355805
 N 0.2978 0.2212 0.262   -0.355805
 N 0.7022 0.2212 0.738   -0.355805
 N 0.2978 0.7788 0.738   -0.355805
 N 0.7022 0.7788 0.262   -0.355805
 O 0.1141 0.7932 0.6543   -0.546104
 O 0.8859 0.7932 0.3457   -0.546104
 O 0.1141 0.2068 0.3457   -0.546104
 O 0.8859 0.2068 0.6543   -0.546104
 O 0.6141 0.2932 0.1543   -0.546104
 O 0.3859 0.2932 0.8457   -0.546104
 O 0.6141 0.7068 0.8457   -0.546104
 O 0.3859 0.7068 0.1543   -0.546104
 O 0.2353 0.6947 0.615   -0.545878
 O 0.7647 0.6947 0.385   -0.545878
 O 0.2353 0.3053 0.385   -0.545878
 O 0.7647 0.3053 0.615   -0.545878
 O 0.7353 0.1947 0.115   -0.545878
 O 0.2647 0.1947 0.885   -0.545878
 O 0.7353 0.8053 0.885   -0.545878
 O 0.2647 0.8053 0.115   -0.545878
