{'_ref': 'TBD', '_srcid': 'CAKYAQ_clean', 'submitters': [{'name': 'Dalar Nazarian Jeff Camp and David Sholl', 'email': 'dalar@gatech.edu jcamp6@gatech.edu'}], '_method': 'VASP DFT with PBE;DDEC'}
data_MnH16C20(NO3)2
_symmetry_space_group_name_H-M   'P 1'
_cell_length_a   9.87100000
_cell_length_b   11.50700003
_cell_length_c   23.25400000
_cell_angle_alpha   90.00000000
_cell_angle_beta   90.00000000
_cell_angle_gamma   96.41799777
_symmetry_Int_Tables_number   1
_chemical_formula_structural   MnH16C20(NO3)2
_chemical_formula_sum   'Mn4 H64 C80 N8 O24'
_cell_volume   2624.76594912
_cell_formula_units_Z   4
loop_
 _symmetry_equiv_pos_site_id
 _symmetry_equiv_pos_as_xyz
  1  'x, y, z'
loop_
 _atom_site_label
 _atom_site_fract_x
 _atom_site_fract_y
 _atom_site_fract_z
 _atom_site_charge
 Mn 0.74955 0.50002 0.23293   1.056003
 Mn 0.75045 0.49998 0.73293   1.056003
 Mn 0.25045 0.49998 0.76707   1.056003
 Mn 0.24955 0.50002 0.26707   1.056003
 H 0.8933 0.3817 0.3487   0.103431
 H 0.887 0.3893 0.4479   0.125459
 H 0.6054 0.6142 0.4416   0.128872
 H 0.6203 0.614 0.3422   0.082998
 H 0.9382 0.46 0.5343   0.106488
 H 0.9299 0.4595 0.6326   0.074565
 H 0.5519 0.5556 0.6294   0.082867
 H 0.5613 0.5563 0.5294   0.10743
 H 0.2398 0.0068 0.3537   0.162911
 H 0.0855 0.8865 0.2013   0.131657
 H 0.2626 0.0019 0.1541   0.083084
 H 0.4106 0.1321 0.2048   0.129009
 H 0.5893 0.2613 0.3205   0.100854
 H 0.5715 0.1891 0.2637   0.102897
 H 0.8985 0.7565 0.3109   0.104251
 H 0.9282 0.8244 0.2535   0.080755
 H 0.6067 0.6183 0.8487   0.103431
 H 0.613 0.6107 0.9479   0.125459
 H 0.8946 0.3858 0.9416   0.128872
 H 0.8797 0.386 0.8422   0.082998
 H 0.5618 0.54 0.0343   0.106488
 H 0.5701 0.5405 0.1326   0.074565
 H 0.9481 0.4444 0.1294   0.082867
 H 0.9387 0.4437 0.0294   0.10743
 H 0.2602 0.9932 0.8537   0.162911
 H 0.4145 0.1135 0.7013   0.131657
 H 0.2374 0.9981 0.6541   0.083083
 H 0.0894 0.8679 0.7048   0.129009
 H 0.9107 0.7387 0.8205   0.100854
 H 0.9285 0.8109 0.7637   0.102897
 H 0.6015 0.2435 0.8109   0.104251
 H 0.5718 0.1756 0.7535   0.080755
 H 0.1067 0.6183 0.6513   0.103431
 H 0.113 0.6107 0.5521   0.125459
 H 0.3946 0.3858 0.5584   0.128872
 H 0.3797 0.386 0.6578   0.082998
 H 0.0618 0.54 0.4657   0.106488
 H 0.0701 0.5405 0.3674   0.074565
 H 0.4481 0.4444 0.3706   0.082867
 H 0.4387 0.4437 0.4706   0.107429
 H 0.7602 0.9932 0.6463   0.162911
 H 0.9145 0.1135 0.7987   0.131658
 H 0.7374 0.9981 0.8459   0.083084
 H 0.5894 0.8679 0.7952   0.12901
 H 0.4107 0.7387 0.6795   0.100854
 H 0.4285 0.8109 0.7363   0.102897
 H 0.1015 0.2435 0.6891   0.104251
 H 0.0718 0.1756 0.7465   0.080755
 H 0.3933 0.3817 0.1513   0.103431
 H 0.387 0.3893 0.0521   0.125459
 H 0.1054 0.6142 0.0584   0.128872
 H 0.1203 0.614 0.1578   0.082998
 H 0.4382 0.46 0.9657   0.106488
 H 0.4299 0.4595 0.8674   0.074565
 H 0.0519 0.5556 0.8706   0.082867
 H 0.0613 0.5563 0.9706   0.107429
 H 0.7398 0.0068 0.1463   0.162911
 H 0.5855 0.8865 0.2987   0.131658
 H 0.7626 0.0019 0.3459   0.083083
 H 0.9106 0.1321 0.2952   0.12901
 H 0.0893 0.2613 0.1795   0.100854
 H 0.0715 0.1891 0.2363   0.102897
 H 0.3985 0.7565 0.1891   0.104251
 H 0.4282 0.8244 0.2465   0.080755
 C 0.8377 0.4299 0.36735   0.159919
 C 0.8326 0.4346 0.42675   -0.198029
 C 0.7491 0.5048 0.45635   0.079464
 C 0.6659 0.5697 0.42348   -0.203257
 C 0.6735 0.5677 0.36334   0.181268
 C 0.7546 0.5123 0.52034   0.082065
 C 0.8608 0.4808 0.55272   -0.19619
 C 0.8554 0.4792 0.61168   0.183443
 C 0.6291 0.5367 0.61017   0.171289
 C 0.6364 0.538 0.55034   -0.200774
 C 0.3443 0.0801 0.2843   0.330361
 C 0.2431 0.0066 0.31374   -0.376457
 C 0.1503 0.9355 0.28301   0.338202
 C 0.1512 0.9335 0.22197   -0.335422
 C 0.2555 0.0054 0.19397   0.042979
 C 0.347 0.0807 0.22422   -0.305829
 C 0.523 0.2309 0.2919   -0.096003
 C 0.4756 0.3301 0.26299   0.666874
 C 0.9701 0.783 0.28387   -0.081631
 C 0.0194 0.6767 0.25764   0.666991
 C 0.6623 0.5701 0.86735   0.159919
 C 0.6674 0.5654 0.92675   -0.198029
 C 0.7509 0.4952 0.95635   0.079464
 C 0.8341 0.4303 0.92348   -0.203257
 C 0.8265 0.4323 0.86334   0.181268
 C 0.7454 0.4877 0.02034   0.082065
 C 0.6392 0.5192 0.05272   -0.19619
 C 0.6446 0.5208 0.11168   0.183443
 C 0.8709 0.4633 0.11017   0.171289
 C 0.8636 0.462 0.05034   -0.200774
 C 0.1557 0.9199 0.7843   0.330361
 C 0.2569 0.9934 0.81374   -0.376457
 C 0.3497 0.0645 0.78301   0.338202
 C 0.3488 0.0665 0.72197   -0.335422
 C 0.2445 0.9946 0.69397   0.042979
 C 0.153 0.9193 0.72422   -0.305829
 C 0.977 0.7691 0.7919   -0.096003
 C 0.0244 0.6699 0.76299   0.666874
 C 0.5299 0.217 0.78387   -0.081631
 C 0.4806 0.3233 0.75764   0.666991
 C 0.1623 0.5701 0.63265   0.159919
 C 0.1674 0.5654 0.57325   -0.198029
 C 0.2509 0.4952 0.54365   0.079464
 C 0.3341 0.4303 0.57652   -0.203257
 C 0.3265 0.4323 0.63666   0.181268
 C 0.2454 0.4877 0.47966   0.082065
 C 0.1392 0.5192 0.44728   -0.19619
 C 0.1446 0.5208 0.38832   0.183443
 C 0.3709 0.4633 0.38983   0.171289
 C 0.3636 0.462 0.44966   -0.200774
 C 0.6557 0.9199 0.7157   0.330361
 C 0.7569 0.9934 0.68626   -0.376457
 C 0.8497 0.0645 0.71699   0.338202
 C 0.8488 0.0665 0.77803   -0.335422
 C 0.7445 0.9946 0.80603   0.042979
 C 0.653 0.9193 0.77578   -0.30583
 C 0.477 0.7691 0.7081   -0.096003
 C 0.5244 0.6699 0.73701   0.666874
 C 0.0299 0.217 0.71613   -0.081631
 C 0.9806 0.3233 0.74236   0.666991
 C 0.3377 0.4299 0.13265   0.159919
 C 0.3326 0.4346 0.07325   -0.198029
 C 0.2491 0.5048 0.04365   0.079464
 C 0.1659 0.5697 0.07652   -0.203257
 C 0.1735 0.5677 0.13666   0.181268
 C 0.2546 0.5123 0.97966   0.082065
 C 0.3608 0.4808 0.94728   -0.19619
 C 0.3554 0.4792 0.88832   0.183443
 C 0.1291 0.5367 0.88983   0.171289
 C 0.1364 0.538 0.94966   -0.200774
 C 0.8443 0.0801 0.2157   0.330361
 C 0.7431 0.0066 0.18626   -0.376457
 C 0.6503 0.9355 0.21699   0.338202
 C 0.6512 0.9335 0.27803   -0.335422
 C 0.7555 0.0054 0.30603   0.042979
 C 0.847 0.0807 0.27578   -0.30583
 C 0.023 0.2309 0.2081   -0.096003
 C 0.9756 0.3301 0.23701   0.666874
 C 0.4701 0.783 0.21613   -0.081631
 C 0.5194 0.6767 0.24236   0.666991
 N 0.7545 0.5014 0.33551   -0.380291
 N 0.742 0.50601 0.63999   -0.321174
 N 0.7455 0.4986 0.83551   -0.380291
 N 0.758 0.49399 0.13999   -0.321174
 N 0.2455 0.4986 0.66449   -0.38029
 N 0.258 0.49399 0.36001   -0.321174
 N 0.2545 0.5014 0.16449   -0.38029
 N 0.242 0.50601 0.86001   -0.321174
 O 0.43087 0.15001 0.31895   -0.261242
 O 0.55587 0.38441 0.23035   -0.5957
 O 0.34748 0.34304 0.26532   -0.626259
 O 0.0599 0.86206 0.31163   -0.253572
 O 0.12699 0.65131 0.27599   -0.569641
 O 0.9367 0.60716 0.22709   -0.664916
 O 0.06913 0.84999 0.81895   -0.261242
 O 0.94413 0.61559 0.73035   -0.5957
 O 0.15252 0.65696 0.76532   -0.626259
 O 0.4401 0.13794 0.81163   -0.253572
 O 0.37301 0.34869 0.77599   -0.569641
 O 0.5633 0.39284 0.72709   -0.664916
 O 0.56913 0.84999 0.68105   -0.261242
 O 0.44413 0.61559 0.76965   -0.5957
 O 0.65252 0.65696 0.73468   -0.626259
 O 0.9401 0.13794 0.68837   -0.253572
 O 0.87301 0.34869 0.72401   -0.569641
 O 0.0633 0.39284 0.77291   -0.664916
 O 0.93087 0.15001 0.18105   -0.261242
 O 0.05587 0.38441 0.26965   -0.5957
 O 0.84748 0.34304 0.23468   -0.626259
 O 0.5599 0.86206 0.18837   -0.253572
 O 0.62699 0.65131 0.22401   -0.569641
 O 0.4367 0.60716 0.27291   -0.664916
