{'_ref': 'TBD', '_srcid': 'CAKYAQ_clean', 'submitters': [{'name': 'Dalar Nazarian Jeff Camp and David Sholl', 'email': 'dalar@gatech.edu jcamp6@gatech.edu'}], '_method': 'VASP DFT with PBE;DDEC'}
data_V2CoH10C12N2O5
_symmetry_space_group_name_H-M   'P 1'
_cell_length_a   7.77450019
_cell_length_b   11.46350056
_cell_length_c   13.53770000
_cell_angle_alpha   96.80300020
_cell_angle_beta   105.70999642
_cell_angle_gamma   99.22500172
_symmetry_Int_Tables_number   1
_chemical_formula_structural   V2CoH10C12N2O5
_chemical_formula_sum   'V4 Co2 H20 C24 N4 O10'
_cell_volume   1129.67221882
_cell_formula_units_Z   2
loop_
 _symmetry_equiv_pos_site_id
 _symmetry_equiv_pos_as_xyz
  1  'x, y, z'
loop_
 _atom_site_label
 _atom_site_fract_x
 _atom_site_fract_y
 _atom_site_fract_z
 _atom_site_charge
 V 0.85757 0.67661 0.97477   2.164401
 V 0.79445 0.41953 0.86044   1.345931
 V 0.14243 0.32339 0.02523   2.164358
 V 0.20555 0.58047 0.13956   1.345888
 Co 0.5 0.5 0.0   0.995827
 Co 0.0 0.0 0.0   0.826186
 H 0.0781 0.8639 0.8184   0.082576
 H 0.082 0.8736 0.6513   0.118965
 H 0.8729 0.1707 0.6676   0.106014
 H 0.8687 0.1488 0.8335   0.055277
 H 0.9492 0.1077 0.5105   0.101067
 H 0.6633 0.6557 0.2173   0.070347
 H 0.8195 0.642 0.3866   0.122925
 H 0.9136 0.3275 0.2734   0.125632
 H 0.7308 0.341 0.1136   0.094823
 H 0.0591 0.4057 0.4573   0.104285
 H 0.9219 0.1361 0.1816   0.082546
 H 0.918 0.1264 0.3487   0.119122
 H 0.1271 0.8293 0.3324   0.106008
 H 0.1313 0.8512 0.1665   0.055277
 H 0.0508 0.8923 0.4895   0.101187
 H 0.3367 0.3443 0.7827   0.070346
 H 0.1805 0.358 0.6134   0.123048
 H 0.0864 0.6725 0.7266   0.125627
 H 0.2692 0.659 0.8864   0.094805
 H 0.9409 0.5943 0.5427   0.104393
 C 0.0361 0.92622 0.78735   0.174586
 C 0.0393 0.93157 0.6869   -0.225792
 C 0.9781 0.02451 0.63882   0.127185
 C 0.9147 0.10696 0.69623   -0.213313
 C 0.9142 0.09375 0.79664   0.177871
 C 0.9798 0.0382 0.53305   -0.133445
 C 0.7091 0.58707 0.23002   0.144168
 C 0.8074 0.5807 0.3322   -0.228908
 C 0.8868 0.4816 0.3514   0.113498
 C 0.8591 0.3937 0.2655   -0.202696
 C 0.7515 0.4036 0.1685   0.197334
 C 0.9937 0.467 0.45466   -0.130257
 C 0.9639 0.07378 0.21265   0.174605
 C 0.9607 0.06843 0.3131   -0.225796
 C 0.0219 0.97549 0.36118   0.127158
 C 0.0853 0.89304 0.30377   -0.213259
 C 0.0858 0.90625 0.20336   0.177867
 C 0.0202 0.9618 0.46695   -0.133117
 C 0.2909 0.41293 0.76998   0.144173
 C 0.1926 0.4193 0.6678   -0.228941
 C 0.1132 0.5184 0.6486   0.113532
 C 0.1409 0.6063 0.7345   -0.202698
 C 0.2485 0.5964 0.8315   0.197341
 C 0.0063 0.533 0.54534   -0.130193
 N 0.9756 0.0061 0.84259   -0.35711
 N 0.6761 0.49765 0.14954   -0.313589
 N 0.0244 0.9939 0.15741   -0.357112
 N 0.3239 0.50235 0.85046   -0.313592
 O 0.65409 0.40366 0.93261   -0.755223
 O 0.65056 0.66348 0.98979   -0.886574
 O 0.00154 0.63258 0.08305   -0.98173
 O 0.93805 0.81564 0.96682   -0.961132
 O 0.84735 0.57848 0.8588   -0.948516
 O 0.34591 0.59634 0.06739   -0.755234
 O 0.34944 0.33652 0.01021   -0.886585
 O 0.99846 0.36742 0.91695   -0.98173
 O 0.06195 0.18436 0.03318   -0.961128
 O 0.15265 0.42152 0.1412   -0.948509
