{'_ref': 'TBD', '_srcid': 'CAKYAQ_clean', 'submitters': [{'name': 'Dalar Nazarian Jeff Camp and David Sholl', 'email': 'dalar@gatech.edu jcamp6@gatech.edu'}], '_method': 'VASP DFT with PBE;DDEC'}
data_ZnH7C13NO4
_symmetry_space_group_name_H-M   'P 1'
_cell_length_a   13.46410000
_cell_length_b   13.46410000
_cell_length_c   23.37510000
_cell_angle_alpha   90.00000000
_cell_angle_beta   90.00000000
_cell_angle_gamma   90.00000000
_symmetry_Int_Tables_number   1
_chemical_formula_structural   ZnH7C13NO4
_chemical_formula_sum   'Zn8 H56 C104 N8 O32'
_cell_volume   4237.48461663
_cell_formula_units_Z   8
loop_
 _symmetry_equiv_pos_site_id
 _symmetry_equiv_pos_as_xyz
  1  'x, y, z'
loop_
 _atom_site_label
 _atom_site_fract_x
 _atom_site_fract_y
 _atom_site_fract_z
 _atom_site_charge
 Zn 0.1421 0.20429 0.94136   0.936756
 Zn 0.8579 0.79571 0.44136   0.936756
 Zn 0.29571 0.6421 0.19136   0.936756
 Zn 0.70429 0.3579 0.69136   0.936756
 Zn 0.3579 0.70429 0.30864   0.936756
 Zn 0.6421 0.29571 0.80864   0.936756
 Zn 0.20429 0.1421 0.05864   0.936756
 Zn 0.79571 0.8579 0.55864   0.936756
 H 0.0131 0.3319 0.7199   0.10613
 H 0.224 0.2474 0.8302   0.087877
 H 0.9473 0.2558 0.8801   0.086179
 H 0.3278 0.3124 0.7771   0.100672
 H 0.4104 0.3279 0.614   0.100998
 H 0.2496 0.3104 0.5857   0.108484
 H 0.1242 0.2895 0.6528   0.10725
 H 0.9869 0.6681 0.2199   0.10613
 H 0.776 0.7526 0.3302   0.087877
 H 0.0527 0.7442 0.3801   0.086179
 H 0.6722 0.6876 0.2771   0.100672
 H 0.5896 0.6721 0.114   0.100998
 H 0.7504 0.6896 0.0857   0.108484
 H 0.8758 0.7105 0.1528   0.10725
 H 0.1681 0.5131 0.9699   0.10613
 H 0.2526 0.724 0.0802   0.087877
 H 0.2442 0.4473 0.1301   0.086179
 H 0.1876 0.8278 0.0271   0.100672
 H 0.1721 0.9104 0.864   0.100998
 H 0.1896 0.7496 0.8357   0.108484
 H 0.2105 0.6242 0.9028   0.10725
 H 0.8319 0.4869 0.4699   0.10613
 H 0.7474 0.276 0.5802   0.087877
 H 0.7558 0.5527 0.6301   0.086179
 H 0.8124 0.1722 0.5271   0.100672
 H 0.8279 0.0896 0.364   0.100998
 H 0.8104 0.2504 0.3357   0.108484
 H 0.7895 0.3758 0.4028   0.10725
 H 0.4869 0.8319 0.5301   0.10613
 H 0.276 0.7474 0.4198   0.087877
 H 0.5527 0.7558 0.3699   0.086178
 H 0.1722 0.8124 0.4729   0.100671
 H 0.0896 0.8279 0.636   0.100999
 H 0.2504 0.8104 0.6643   0.108482
 H 0.3758 0.7895 0.5972   0.10725
 H 0.5131 0.1681 0.0301   0.10613
 H 0.724 0.2526 0.9198   0.087877
 H 0.4473 0.2442 0.8699   0.086178
 H 0.8278 0.1876 0.9729   0.100671
 H 0.9104 0.1721 0.136   0.100999
 H 0.7496 0.1896 0.1643   0.108482
 H 0.6242 0.2105 0.0972   0.10725
 H 0.3319 0.0131 0.2801   0.10613
 H 0.2474 0.224 0.1698   0.087877
 H 0.2558 0.9473 0.1199   0.086178
 H 0.3124 0.3278 0.2229   0.100672
 H 0.3279 0.4104 0.386   0.100999
 H 0.3104 0.2496 0.4143   0.108482
 H 0.2895 0.1242 0.3472   0.10725
 H 0.6681 0.9869 0.7801   0.10613
 H 0.7526 0.776 0.6698   0.087877
 H 0.7442 0.0527 0.6199   0.086178
 H 0.6876 0.6722 0.7229   0.100672
 H 0.6721 0.5896 0.886   0.100999
 H 0.6896 0.7504 0.9143   0.108482
 H 0.7105 0.8758 0.8472   0.10725
 C 0.8549 0.309 0.7854   0.701016
 C 0.9632 0.2947 0.7981   -0.199601
 C 0.0331 0.3096 0.7558   0.017409
 C 0.1333 0.2917 0.7663   -0.055115
 C 0.1578 0.2608 0.8219   0.141498
 C 0.9943 0.2652 0.8514   0.184457
 C 0.2121 0.3037 0.7227   0.019111
 C 0.3116 0.3123 0.7385   -0.073319
 C 0.3875 0.3208 0.6982   -0.12428
 C 0.3611 0.3207 0.6416   -0.032192
 C 0.2649 0.3103 0.6245   -0.107605
 C 0.1894 0.2995 0.6647   -0.101355
 C 0.4913 0.3281 0.7172   0.700268
 C 0.1451 0.691 0.2854   0.701016
 C 0.0368 0.7053 0.2981   -0.199601
 C 0.9669 0.6904 0.2558   0.017409
 C 0.8667 0.7083 0.2663   -0.055115
 C 0.8422 0.7392 0.3219   0.141498
 C 0.0057 0.7348 0.3514   0.184457
 C 0.7879 0.6963 0.2227   0.019111
 C 0.6884 0.6877 0.2385   -0.073319
 C 0.6125 0.6792 0.1982   -0.12428
 C 0.6389 0.6793 0.1416   -0.032192
 C 0.7351 0.6897 0.1245   -0.107605
 C 0.8106 0.7005 0.1647   -0.101355
 C 0.5087 0.6719 0.2172   0.700268
 C 0.191 0.3549 0.0354   0.701016
 C 0.2053 0.4632 0.0481   -0.199601
 C 0.1904 0.5331 0.0058   0.017409
 C 0.2083 0.6333 0.0163   -0.055115
 C 0.2392 0.6578 0.0719   0.141498
 C 0.2348 0.4943 0.1014   0.184457
 C 0.1963 0.7121 0.9727   0.019111
 C 0.1877 0.8116 0.9885   -0.073319
 C 0.1792 0.8875 0.9482   -0.12428
 C 0.1793 0.8611 0.8916   -0.032192
 C 0.1897 0.7649 0.8745   -0.107605
 C 0.2005 0.6894 0.9147   -0.101355
 C 0.1719 0.9913 0.9672   0.700268
 C 0.809 0.6451 0.5354   0.701016
 C 0.7947 0.5368 0.5481   -0.199601
 C 0.8096 0.4669 0.5058   0.017409
 C 0.7917 0.3667 0.5163   -0.055115
 C 0.7608 0.3422 0.5719   0.141498
 C 0.7652 0.5057 0.6014   0.184457
 C 0.8037 0.2879 0.4727   0.019111
 C 0.8123 0.1884 0.4885   -0.073319
 C 0.8208 0.1125 0.4482   -0.12428
 C 0.8207 0.1389 0.3916   -0.032192
 C 0.8103 0.2351 0.3745   -0.107605
 C 0.7995 0.3106 0.4147   -0.101355
 C 0.8281 0.0087 0.4672   0.700268
 C 0.6451 0.809 0.4646   0.701016
 C 0.5368 0.7947 0.4519   -0.199601
 C 0.4669 0.8096 0.4942   0.01741
 C 0.3667 0.7917 0.4837   -0.055115
 C 0.3422 0.7608 0.4281   0.141498
 C 0.5057 0.7652 0.3986   0.184458
 C 0.2879 0.8037 0.5273   0.019111
 C 0.1884 0.8123 0.5115   -0.073319
 C 0.1125 0.8208 0.5518   -0.12428
 C 0.1389 0.8207 0.6084   -0.032191
 C 0.2351 0.8103 0.6255   -0.107605
 C 0.3106 0.7995 0.5853   -0.101355
 C 0.0087 0.8281 0.5328   0.700267
 C 0.3549 0.191 0.9646   0.701016
 C 0.4632 0.2053 0.9519   -0.199601
 C 0.5331 0.1904 0.9942   0.01741
 C 0.6333 0.2083 0.9837   -0.055115
 C 0.6578 0.2392 0.9281   0.141498
 C 0.4943 0.2348 0.8986   0.184458
 C 0.7121 0.1963 0.0273   0.019111
 C 0.8116 0.1877 0.0115   -0.073319
 C 0.8875 0.1792 0.0518   -0.12428
 C 0.8611 0.1793 0.1084   -0.032191
 C 0.7649 0.1897 0.1255   -0.107605
 C 0.6894 0.2005 0.0853   -0.101355
 C 0.9913 0.1719 0.0328   0.700267
 C 0.309 0.8549 0.2146   0.701016
 C 0.2947 0.9632 0.2019   -0.1996
 C 0.3096 0.0331 0.2442   0.01741
 C 0.2917 0.1333 0.2337   -0.055115
 C 0.2608 0.1578 0.1781   0.141498
 C 0.2652 0.9943 0.1486   0.184458
 C 0.3037 0.2121 0.2773   0.019111
 C 0.3123 0.3116 0.2615   -0.073319
 C 0.3208 0.3875 0.3018   -0.12428
 C 0.3207 0.3611 0.3584   -0.032191
 C 0.3103 0.2649 0.3755   -0.107605
 C 0.2995 0.1894 0.3353   -0.101355
 C 0.3281 0.4913 0.2828   0.700267
 C 0.691 0.1451 0.7146   0.701016
 C 0.7053 0.0368 0.7019   -0.1996
 C 0.6904 0.9669 0.7442   0.01741
 C 0.7083 0.8667 0.7337   -0.055115
 C 0.7392 0.8422 0.6781   0.141498
 C 0.7348 0.0057 0.6486   0.184458
 C 0.6963 0.7879 0.7773   0.019111
 C 0.6877 0.6884 0.7615   -0.073319
 C 0.6792 0.6125 0.8018   -0.12428
 C 0.6793 0.6389 0.8584   -0.032191
 C 0.6897 0.7351 0.8755   -0.107605
 C 0.7005 0.8106 0.8353   -0.101355
 C 0.6719 0.5087 0.7828   0.700267
 N 0.0907 0.2497 0.8634   -0.308889
 N 0.9093 0.7503 0.3634   -0.308889
 N 0.2503 0.5907 0.1134   -0.308889
 N 0.7497 0.4093 0.6134   -0.308889
 N 0.4093 0.7497 0.3866   -0.30889
 N 0.5907 0.2503 0.8866   -0.30889
 N 0.2497 0.0907 0.1366   -0.30889
 N 0.7503 0.9093 0.6366   -0.30889
 O 0.7938 0.2878 0.8242   -0.591167
 O 0.8341 0.3403 0.7367   -0.598409
 O 0.5097 0.3132 0.7692   -0.604728
 O 0.5556 0.3465 0.6803   -0.601445
 O 0.2062 0.7122 0.3242   -0.591167
 O 0.1659 0.6597 0.2367   -0.598409
 O 0.4903 0.6868 0.2692   -0.604728
 O 0.4444 0.6535 0.1803   -0.601445
 O 0.2122 0.2938 0.0742   -0.591167
 O 0.1597 0.3341 0.9867   -0.598409
 O 0.1868 0.0097 0.0192   -0.604729
 O 0.1535 0.0556 0.9303   -0.601445
 O 0.7878 0.7062 0.5742   -0.591167
 O 0.8403 0.6659 0.4867   -0.598409
 O 0.8132 0.9903 0.5192   -0.604729
 O 0.8465 0.9444 0.4303   -0.601445
 O 0.7062 0.7878 0.4258   -0.591167
 O 0.6659 0.8403 0.5133   -0.598409
 O 0.9903 0.8132 0.4808   -0.604728
 O 0.9444 0.8465 0.5697   -0.601445
 O 0.2938 0.2122 0.9258   -0.591167
 O 0.3341 0.1597 0.0133   -0.598409
 O 0.0097 0.1868 0.9808   -0.604728
 O 0.0556 0.1535 0.0697   -0.601445
 O 0.2878 0.7938 0.1758   -0.591167
 O 0.3403 0.8341 0.2633   -0.598409
 O 0.3132 0.5097 0.2308   -0.604728
 O 0.3465 0.5556 0.3197   -0.601445
 O 0.7122 0.2062 0.6758   -0.591167
 O 0.6597 0.1659 0.7633   -0.598409
 O 0.6868 0.4903 0.7308   -0.604728
 O 0.6535 0.4444 0.8197   -0.601445
