{'_ref': 'TBD', '_srcid': 'CAKYAQ_clean', 'submitters': [{'name': 'Dalar Nazarian Jeff Camp and David Sholl', 'email': 'dalar@gatech.edu jcamp6@gatech.edu'}], '_method': 'VASP DFT with PBE;DDEC'}
data_MnH5C9N7
_symmetry_space_group_name_H-M   'P 1'
_cell_length_a   12.94600000
_cell_length_b   15.95700000
_cell_length_c   23.74600000
_cell_angle_alpha   90.00000000
_cell_angle_beta   90.00000000
_cell_angle_gamma   90.00000000
_symmetry_Int_Tables_number   1
_chemical_formula_structural   MnH5C9N7
_chemical_formula_sum   'Mn16 H80 C144 N112'
_cell_volume   4905.43258021
_cell_formula_units_Z   16
loop_
 _symmetry_equiv_pos_site_id
 _symmetry_equiv_pos_as_xyz
  1  'x, y, z'
loop_
 _atom_site_label
 _atom_site_fract_x
 _atom_site_fract_y
 _atom_site_fract_z
 _atom_site_charge
 Mn 0.7877 0.88683 0.47717   0.858732
 Mn 0.89383 0.0094 0.73095   0.828056
 Mn 0.7123 0.38683 0.02283   0.858732
 Mn 0.60617 0.5094 0.76905   0.828056
 Mn 0.7877 0.61317 0.52283   0.858732
 Mn 0.89383 0.4906 0.26905   0.828056
 Mn 0.7123 0.11317 0.97717   0.858732
 Mn 0.60617 0.9906 0.23095   0.828056
 Mn 0.2123 0.11317 0.52283   0.858732
 Mn 0.10617 0.9906 0.26905   0.828056
 Mn 0.2877 0.61317 0.97717   0.858732
 Mn 0.39383 0.4906 0.23095   0.828056
 Mn 0.2123 0.38683 0.47717   0.858733
 Mn 0.10617 0.5094 0.73095   0.828056
 Mn 0.2877 0.88683 0.02283   0.858733
 Mn 0.39383 0.0094 0.76905   0.828056
 H 0.8848 0.0046 0.2008   0.070952
 H 0.3933 0.9116 0.4464   0.124583
 H 0.3338 0.8705 0.5344   0.097434
 H 0.4517 0.8269 0.6018   0.127744
 H 0.6245 0.8289 0.5807   0.07775
 H 0.8766 0.6798 0.6467   0.056548
 H 0.8104 0.2307 0.5796   0.128527
 H 0.8273 0.3519 0.632   0.097764
 H 0.8692 0.3423 0.7261   0.105756
 H 0.898 0.2136 0.765   0.080881
 H 0.6152 0.5046 0.2992   0.070952
 H 0.1067 0.4116 0.0536   0.124583
 H 0.1662 0.3705 0.9656   0.097434
 H 0.0483 0.3269 0.8982   0.127745
 H 0.8755 0.3289 0.9193   0.07775
 H 0.6234 0.1798 0.8533   0.056548
 H 0.6896 0.7307 0.9204   0.128527
 H 0.6727 0.8519 0.868   0.097764
 H 0.6308 0.8423 0.7739   0.105756
 H 0.602 0.7136 0.735   0.080882
 H 0.8848 0.4954 0.7992   0.070952
 H 0.3933 0.5884 0.5536   0.124583
 H 0.3338 0.6295 0.4656   0.097434
 H 0.4517 0.6731 0.3982   0.127744
 H 0.6245 0.6711 0.4193   0.07775
 H 0.8766 0.8202 0.3533   0.056548
 H 0.8104 0.2693 0.4204   0.128528
 H 0.8273 0.1481 0.368   0.097764
 H 0.8692 0.1577 0.2739   0.105756
 H 0.898 0.2864 0.235   0.080881
 H 0.6152 0.9954 0.7008   0.070952
 H 0.1067 0.0884 0.9464   0.124583
 H 0.1662 0.1295 0.0344   0.097434
 H 0.0483 0.1731 0.1018   0.127745
 H 0.8755 0.1711 0.0807   0.07775
 H 0.6234 0.3202 0.1467   0.056548
 H 0.6896 0.7693 0.0796   0.128528
 H 0.6727 0.6481 0.132   0.097764
 H 0.6308 0.6577 0.2261   0.105756
 H 0.602 0.7864 0.265   0.080882
 H 0.1152 0.9954 0.7992   0.070952
 H 0.6067 0.0884 0.5536   0.124583
 H 0.6662 0.1295 0.4656   0.097435
 H 0.5483 0.1731 0.3982   0.127744
 H 0.3755 0.1711 0.4193   0.07775
 H 0.1234 0.3202 0.3533   0.056548
 H 0.1896 0.7693 0.4204   0.128528
 H 0.1727 0.6481 0.368   0.097764
 H 0.1308 0.6577 0.2739   0.105756
 H 0.102 0.7864 0.235   0.080881
 H 0.3848 0.4954 0.7008   0.070952
 H 0.8933 0.5884 0.9464   0.124583
 H 0.8338 0.6295 0.0344   0.097435
 H 0.9517 0.6731 0.1018   0.127745
 H 0.1245 0.6711 0.0807   0.07775
 H 0.3766 0.8202 0.1467   0.056548
 H 0.3104 0.2693 0.0796   0.128528
 H 0.3273 0.1481 0.132   0.097764
 H 0.3692 0.1577 0.2261   0.105756
 H 0.398 0.2864 0.265   0.080882
 H 0.1152 0.5046 0.2008   0.070952
 H 0.6067 0.4116 0.4464   0.124583
 H 0.6662 0.3705 0.5344   0.097435
 H 0.5483 0.3269 0.6018   0.127744
 H 0.3755 0.3289 0.5807   0.07775
 H 0.1234 0.1798 0.6467   0.056548
 H 0.1896 0.7307 0.5796   0.128528
 H 0.1727 0.8519 0.632   0.097764
 H 0.1308 0.8423 0.7261   0.105756
 H 0.102 0.7136 0.765   0.080881
 H 0.3848 0.0046 0.2992   0.070952
 H 0.8933 0.9116 0.0536   0.124583
 H 0.8338 0.8705 0.9656   0.097435
 H 0.9517 0.8269 0.8982   0.127745
 H 0.1245 0.8289 0.9193   0.07775
 H 0.3766 0.6798 0.8533   0.056548
 H 0.3104 0.2307 0.9204   0.128528
 H 0.3273 0.3519 0.868   0.097764
 H 0.3692 0.3423 0.7739   0.105756
 H 0.398 0.2136 0.735   0.080882
 C 0.8687 0.9941 0.23833   0.271861
 C 0.7873 0.9718 0.31334   0.271398
 C 0.6969 0.955 0.34859   0.282871
 C 0.5887 0.9215 0.41005   0.294656
 C 0.5451 0.8952 0.46411   0.169693
 C 0.4395 0.8951 0.47432   -0.154527
 C 0.4041 0.8701 0.52644   0.021588
 C 0.474 0.8447 0.56651   -0.180939
 C 0.5775 0.8461 0.55343   0.172989
 C 0.8631 0.7275 0.62546   0.295657
 C 0.845 0.8515 0.6014   0.284395
 C 0.8374 0.9425 0.59851   0.293821
 C 0.8358 0.0712 0.61311   0.293799
 C 0.8454 0.1519 0.64293   0.182994
 C 0.8283 0.228 0.6175   -0.165639
 C 0.838 0.2998 0.6486   0.023038
 C 0.8634 0.2943 0.7042   -0.163924
 C 0.8801 0.217 0.7272   0.166059
 C 0.6313 0.4941 0.26167   0.271861
 C 0.7127 0.4718 0.18666   0.271398
 C 0.8031 0.455 0.15141   0.282871
 C 0.9113 0.4215 0.08995   0.294656
 C 0.9549 0.3952 0.03589   0.169693
 C 0.0605 0.3951 0.02568   -0.154527
 C 0.0959 0.3701 0.97356   0.021588
 C 0.026 0.3447 0.93349   -0.180939
 C 0.9225 0.3461 0.94657   0.17299
 C 0.6369 0.2275 0.87454   0.295657
 C 0.655 0.3515 0.8986   0.284395
 C 0.6626 0.4425 0.90149   0.293821
 C 0.6642 0.5712 0.88689   0.293799
 C 0.6546 0.6519 0.85707   0.182994
 C 0.6717 0.728 0.8825   -0.165639
 C 0.662 0.7998 0.8514   0.023038
 C 0.6366 0.7943 0.7958   -0.163924
 C 0.6199 0.717 0.7728   0.166058
 C 0.8687 0.5059 0.76167   0.271861
 C 0.7873 0.5282 0.68666   0.271398
 C 0.6969 0.545 0.65141   0.282871
 C 0.5887 0.5785 0.58995   0.294656
 C 0.5451 0.6048 0.53589   0.169693
 C 0.4395 0.6049 0.52568   -0.154527
 C 0.4041 0.6299 0.47356   0.021588
 C 0.474 0.6553 0.43349   -0.180939
 C 0.5775 0.6539 0.44657   0.17299
 C 0.8631 0.7725 0.37454   0.295657
 C 0.845 0.6485 0.3986   0.284395
 C 0.8374 0.5575 0.40149   0.293821
 C 0.8358 0.4288 0.38689   0.293799
 C 0.8454 0.3481 0.35707   0.182994
 C 0.8283 0.272 0.3825   -0.165639
 C 0.838 0.2002 0.3514   0.023038
 C 0.8634 0.2057 0.2958   -0.163924
 C 0.8801 0.283 0.2728   0.166059
 C 0.6313 0.0059 0.73833   0.271861
 C 0.7127 0.0282 0.81334   0.271398
 C 0.8031 0.045 0.84859   0.282871
 C 0.9113 0.0785 0.91005   0.294656
 C 0.9549 0.1048 0.96411   0.169693
 C 0.0605 0.1049 0.97432   -0.154527
 C 0.0959 0.1299 0.02644   0.021588
 C 0.026 0.1553 0.06651   -0.180939
 C 0.9225 0.1539 0.05343   0.17299
 C 0.6369 0.2725 0.12546   0.295657
 C 0.655 0.1485 0.1014   0.284395
 C 0.6626 0.0575 0.09851   0.293821
 C 0.6642 0.9288 0.11311   0.293799
 C 0.6546 0.8481 0.14293   0.182994
 C 0.6717 0.772 0.1175   -0.165639
 C 0.662 0.7002 0.1486   0.023038
 C 0.6366 0.7057 0.2042   -0.163924
 C 0.6199 0.783 0.2272   0.166058
 C 0.1313 0.0059 0.76167   0.271861
 C 0.2127 0.0282 0.68666   0.271398
 C 0.3031 0.045 0.65141   0.282871
 C 0.4113 0.0785 0.58995   0.294656
 C 0.4549 0.1048 0.53589   0.169693
 C 0.5605 0.1049 0.52568   -0.154527
 C 0.5959 0.1299 0.47356   0.021588
 C 0.526 0.1553 0.43349   -0.180939
 C 0.4225 0.1539 0.44657   0.172989
 C 0.1369 0.2725 0.37454   0.295657
 C 0.155 0.1485 0.3986   0.284395
 C 0.1626 0.0575 0.40149   0.293821
 C 0.1642 0.9288 0.38689   0.293799
 C 0.1546 0.8481 0.35707   0.182994
 C 0.1717 0.772 0.3825   -0.165639
 C 0.162 0.7002 0.3514   0.023038
 C 0.1366 0.7057 0.2958   -0.163924
 C 0.1199 0.783 0.2728   0.166059
 C 0.3687 0.5059 0.73833   0.271861
 C 0.2873 0.5282 0.81334   0.271398
 C 0.1969 0.545 0.84859   0.282871
 C 0.0887 0.5785 0.91005   0.294656
 C 0.0451 0.6048 0.96411   0.169693
 C 0.9395 0.6049 0.97432   -0.154527
 C 0.9041 0.6299 0.02644   0.021588
 C 0.974 0.6553 0.06651   -0.180939
 C 0.0775 0.6539 0.05343   0.17299
 C 0.3631 0.7725 0.12546   0.295657
 C 0.345 0.6485 0.1014   0.284395
 C 0.3374 0.5575 0.09851   0.293821
 C 0.3358 0.4288 0.11311   0.293799
 C 0.3454 0.3481 0.14293   0.182994
 C 0.3283 0.272 0.1175   -0.165639
 C 0.338 0.2002 0.1486   0.023038
 C 0.3634 0.2057 0.2042   -0.163924
 C 0.3801 0.283 0.2272   0.166058
 C 0.1313 0.4941 0.23833   0.271861
 C 0.2127 0.4718 0.31334   0.271398
 C 0.3031 0.455 0.34859   0.282871
 C 0.4113 0.4215 0.41005   0.294656
 C 0.4549 0.3952 0.46411   0.169693
 C 0.5605 0.3951 0.47432   -0.154527
 C 0.5959 0.3701 0.52644   0.021588
 C 0.526 0.3447 0.56651   -0.180939
 C 0.4225 0.3461 0.55343   0.17299
 C 0.1369 0.2275 0.62546   0.295657
 C 0.155 0.3515 0.6014   0.284395
 C 0.1626 0.4425 0.59851   0.293821
 C 0.1642 0.5712 0.61311   0.293799
 C 0.1546 0.6519 0.64293   0.182994
 C 0.1717 0.728 0.6175   -0.165639
 C 0.162 0.7998 0.6486   0.023038
 C 0.1366 0.7943 0.7042   -0.163924
 C 0.1199 0.717 0.7272   0.166059
 C 0.3687 0.9941 0.26167   0.271861
 C 0.2873 0.9718 0.18666   0.271398
 C 0.1969 0.955 0.15141   0.282871
 C 0.0887 0.9215 0.08995   0.294656
 C 0.0451 0.8952 0.03589   0.169693
 C 0.9395 0.8951 0.02568   -0.154527
 C 0.9041 0.8701 0.97356   0.021588
 C 0.974 0.8447 0.93349   -0.180939
 C 0.0775 0.8461 0.94657   0.17299
 C 0.3631 0.7275 0.87454   0.295657
 C 0.345 0.8515 0.8986   0.284395
 C 0.3374 0.9425 0.90149   0.293821
 C 0.3358 0.0712 0.88689   0.293799
 C 0.3454 0.1519 0.85707   0.182994
 C 0.3283 0.228 0.8825   -0.165639
 C 0.338 0.2998 0.8514   0.023038
 C 0.3634 0.2943 0.7958   -0.163924
 C 0.3801 0.217 0.7728   0.166058
 N 0.772 0.98687 0.25756   -0.481924
 N 0.88547 0.97071 0.3279   -0.323221
 N 0.93927 0.98488 0.27831   -0.263418
 N 0.69205 0.93293 0.40339   -0.478877
 N 0.6042 0.9571 0.32373   -0.272999
 N 0.5332 0.9348 0.364   -0.317681
 N 0.6142 0.8713 0.50302   -0.360568
 N 0.8682 0.8053 0.64705   -0.532243
 N 0.8268 0.80703 0.55538   -0.300521
 N 0.8374 0.7241 0.57148   -0.303627
 N 0.8536 0.99731 0.64002   -0.437241
 N 0.811 0.97778 0.54979   -0.285026
 N 0.8106 0.06288 0.5594   -0.322489
 N 0.8721 0.14563 0.69756   -0.334684
 N 0.728 0.48687 0.24244   -0.481924
 N 0.61453 0.47071 0.1721   -0.323221
 N 0.56073 0.48488 0.22169   -0.263418
 N 0.80795 0.43293 0.09661   -0.478877
 N 0.8958 0.4571 0.17627   -0.272999
 N 0.9668 0.4348 0.136   -0.317681
 N 0.8858 0.3713 0.99698   -0.360568
 N 0.6318 0.3053 0.85295   -0.532243
 N 0.6732 0.30703 0.94462   -0.300521
 N 0.6626 0.2241 0.92852   -0.303627
 N 0.6464 0.49731 0.85998   -0.437241
 N 0.689 0.47778 0.95021   -0.285026
 N 0.6894 0.56288 0.9406   -0.322489
 N 0.6279 0.64563 0.80244   -0.334684
 N 0.772 0.51313 0.74244   -0.481925
 N 0.88547 0.52929 0.6721   -0.323221
 N 0.93927 0.51512 0.72169   -0.263418
 N 0.69205 0.56707 0.59661   -0.478877
 N 0.6042 0.5429 0.67627   -0.272999
 N 0.5332 0.5652 0.636   -0.317681
 N 0.6142 0.6287 0.49698   -0.360568
 N 0.8682 0.6947 0.35295   -0.532243
 N 0.8268 0.69297 0.44462   -0.300521
 N 0.8374 0.7759 0.42852   -0.303627
 N 0.8536 0.50269 0.35998   -0.437241
 N 0.811 0.52222 0.45021   -0.285026
 N 0.8106 0.43712 0.4406   -0.322489
 N 0.8721 0.35437 0.30244   -0.334684
 N 0.728 0.01313 0.75756   -0.481925
 N 0.61453 0.02929 0.8279   -0.323221
 N 0.56073 0.01512 0.77831   -0.263418
 N 0.80795 0.06707 0.90339   -0.478877
 N 0.8958 0.0429 0.82373   -0.272999
 N 0.9668 0.0652 0.864   -0.317681
 N 0.8858 0.1287 0.00302   -0.360568
 N 0.6318 0.1947 0.14705   -0.532243
 N 0.6732 0.19297 0.05538   -0.300521
 N 0.6626 0.2759 0.07148   -0.303627
 N 0.6464 0.00269 0.14002   -0.437241
 N 0.689 0.02222 0.04979   -0.285026
 N 0.6894 0.93712 0.0594   -0.322489
 N 0.6279 0.85437 0.19756   -0.334684
 N 0.228 0.01313 0.74244   -0.481924
 N 0.11453 0.02929 0.6721   -0.323221
 N 0.06073 0.01512 0.72169   -0.263418
 N 0.30795 0.06707 0.59661   -0.478877
 N 0.3958 0.0429 0.67627   -0.272999
 N 0.4668 0.0652 0.636   -0.317681
 N 0.3858 0.1287 0.49698   -0.360568
 N 0.1318 0.1947 0.35295   -0.532243
 N 0.1732 0.19297 0.44462   -0.300521
 N 0.1626 0.2759 0.42852   -0.303627
 N 0.1464 0.00269 0.35998   -0.437241
 N 0.189 0.02222 0.45021   -0.285026
 N 0.1894 0.93712 0.4406   -0.322489
 N 0.1279 0.85437 0.30244   -0.334684
 N 0.272 0.51313 0.75756   -0.481924
 N 0.38547 0.52929 0.8279   -0.323221
 N 0.43927 0.51512 0.77831   -0.263418
 N 0.19205 0.56707 0.90339   -0.478877
 N 0.1042 0.5429 0.82373   -0.272999
 N 0.0332 0.5652 0.864   -0.317681
 N 0.1142 0.6287 0.00302   -0.360568
 N 0.3682 0.6947 0.14705   -0.532243
 N 0.3268 0.69297 0.05538   -0.300521
 N 0.3374 0.7759 0.07148   -0.303627
 N 0.3536 0.50269 0.14002   -0.437241
 N 0.311 0.52222 0.04979   -0.285026
 N 0.3106 0.43712 0.0594   -0.322489
 N 0.3721 0.35437 0.19756   -0.334684
 N 0.228 0.48687 0.25756   -0.481925
 N 0.11453 0.47071 0.3279   -0.323221
 N 0.06073 0.48488 0.27831   -0.263418
 N 0.30795 0.43293 0.40339   -0.478877
 N 0.3958 0.4571 0.32373   -0.272999
 N 0.4668 0.4348 0.364   -0.317681
 N 0.3858 0.3713 0.50302   -0.360568
 N 0.1318 0.3053 0.64705   -0.532243
 N 0.1732 0.30703 0.55538   -0.300521
 N 0.1626 0.2241 0.57148   -0.303627
 N 0.1464 0.49731 0.64002   -0.437241
 N 0.189 0.47778 0.54979   -0.285026
 N 0.1894 0.56288 0.5594   -0.322489
 N 0.1279 0.64563 0.69756   -0.334684
 N 0.272 0.98687 0.24244   -0.481925
 N 0.38547 0.97071 0.1721   -0.323221
 N 0.43927 0.98488 0.22169   -0.263418
 N 0.19205 0.93293 0.09661   -0.478877
 N 0.1042 0.9571 0.17627   -0.272999
 N 0.0332 0.9348 0.136   -0.317681
 N 0.1142 0.8713 0.99698   -0.360568
 N 0.3682 0.8053 0.85295   -0.532243
 N 0.3268 0.80703 0.94462   -0.300521
 N 0.3374 0.7241 0.92852   -0.303627
 N 0.3536 0.99731 0.85998   -0.437241
 N 0.311 0.97778 0.95021   -0.285026
 N 0.3106 0.06288 0.9406   -0.322489
 N 0.3721 0.14563 0.80244   -0.334684
