{'_ref': 'TBD', '_srcid': 'CAKYAQ_clean', 'submitters': [{'name': 'Dalar Nazarian Jeff Camp and David Sholl', 'email': 'dalar@gatech.edu jcamp6@gatech.edu'}], '_method': 'VASP DFT with PBE;DDEC'}
data_HoCuH8C16N5O8
_symmetry_space_group_name_H-M   'P 1'
_cell_length_a   10.63900015
_cell_length_b   10.69820029
_cell_length_c   11.93750000
_cell_angle_alpha   70.07799922
_cell_angle_beta   77.60999781
_cell_angle_gamma   60.79970153
_symmetry_Int_Tables_number   1
_chemical_formula_structural   HoCuH8C16N5O8
_chemical_formula_sum   'Ho2 Cu2 H16 C32 N10 O16'
_cell_volume   1113.12851712
_cell_formula_units_Z   2
loop_
 _symmetry_equiv_pos_site_id
 _symmetry_equiv_pos_as_xyz
  1  'x, y, z'
loop_
 _atom_site_label
 _atom_site_fract_x
 _atom_site_fract_y
 _atom_site_fract_z
 _atom_site_charge
 Ho 0.54876 0.99808 0.16083   2.188678
 Ho 0.45124 0.00192 0.83917   2.188726
 Cu 0.0 0.0 0.0   0.803472
 Cu 0.0 0.0 0.5   0.729765
 H 0.0096 0.273 0.514   0.083248
 H 0.9122 0.5247 0.4283   0.122503
 H 0.6868 0.4799 0.231   0.116787
 H 0.7834 0.2307 0.3278   0.070959
 H 0.9971 0.7213 0.1787   0.081626
 H 0.1318 0.4661 0.2207   0.116191
 H 0.3942 0.5297 0.9356   0.123774
 H 0.2534 0.7779 0.9002   0.060716
 H 0.9904 0.727 0.486   0.083291
 H 0.0878 0.4753 0.5717   0.122612
 H 0.3132 0.5201 0.769   0.116841
 H 0.2166 0.7693 0.6722   0.070998
 H 0.0029 0.2787 0.8213   0.081647
 H 0.8682 0.5339 0.7793   0.116206
 H 0.6058 0.4703 0.0644   0.123843
 H 0.7466 0.2221 0.0998   0.060754
 C 0.1775 0.978 0.2819   -0.047077
 C 0.1717 0.9887 0.1643   -0.023888
 C 0.2844 0.9648 0.3571   0.693942
 C 0.2649 0.0028 0.0539   0.691964
 C 0.9429 0.3154 0.4564   0.119267
 C 0.8861 0.4666 0.4047   -0.153134
 C 0.7899 0.5306 0.3173   -0.055108
 C 0.7523 0.4402 0.289   -0.142313
 C 0.8118 0.2902 0.347   0.120639
 C 0.7208 0.6969 0.2558   0.62695
 C 0.0779 0.6815 0.1293   0.12333
 C 0.1583 0.5281 0.1552   -0.14246
 C 0.2794 0.4682 0.0814   -0.054036
 C 0.3133 0.5659 0.9861   -0.137623
 C 0.229 0.7144 0.9658   0.140734
 C 0.3708 0.3032 0.1071   0.628529
 C 0.8225 0.022 0.7181   -0.04708
 C 0.8283 0.0113 0.8357   -0.023903
 C 0.7156 0.0352 0.6429   0.693967
 C 0.7351 0.9972 0.9461   0.691973
 C 0.0571 0.6846 0.5436   0.119281
 C 0.1139 0.5334 0.5953   -0.153149
 C 0.2101 0.4694 0.6827   -0.055102
 C 0.2477 0.5598 0.711   -0.142246
 C 0.1882 0.7098 0.653   0.12068
 C 0.2792 0.3031 0.7442   0.626947
 C 0.9221 0.3185 0.8707   0.123331
 C 0.8417 0.4719 0.8448   -0.142442
 C 0.7206 0.5318 0.9186   -0.054025
 C 0.6867 0.4341 0.0139   -0.137608
 C 0.771 0.2856 0.0342   0.140786
 C 0.6292 0.6968 0.8929   0.628526
 N 0.0539 0.9765 0.337   -0.122351
 N 0.9755 0.9811 0.2619   -0.143229
 N 0.0473 0.9897 0.156   -0.138287
 N 0.9079 0.2265 0.4289   -0.286346
 N 0.1121 0.7747 0.0356   -0.304531
 N 0.9461 0.0235 0.663   -0.12228
 N 0.0245 0.0189 0.7381   -0.143251
 N 0.9527 0.0103 0.844   -0.138192
 N 0.0921 0.7735 0.5711   -0.286284
 N 0.8879 0.2253 0.9644   -0.304448
 O 0.2351 0.9921 0.4545   -0.46247
 O 0.4137 0.923 0.3173   -0.706084
 O 0.3821 0.0048 0.0566   -0.802054
 O 0.2234 0.0146 0.9582   -0.693551
 O 0.7382 0.7832 0.2926   -0.617945
 O 0.6494 0.7412 0.1681   -0.562563
 O 0.487 0.2534 0.0461   -0.640183
 O 0.3331 0.2176 0.1916   -0.641724
 O 0.7649 0.0079 0.5455   -0.462473
 O 0.5863 0.077 0.6827   -0.706088
 O 0.6179 0.9952 0.9434   -0.802029
 O 0.7766 0.9854 0.0418   -0.693549
 O 0.2618 0.2168 0.7074   -0.617945
 O 0.3506 0.2588 0.8319   -0.562545
 O 0.513 0.7466 0.9539   -0.640162
 O 0.6669 0.7824 0.8084   -0.641726
