{'_ref': 'TBD', '_srcid': 'CAKYAQ_clean', 'submitters': [{'name': 'Dalar Nazarian Jeff Camp and David Sholl', 'email': 'dalar@gatech.edu jcamp6@gatech.edu'}], '_method': 'VASP DFT with PBE;DDEC'}
data_CoC3N3O
_symmetry_space_group_name_H-M   'P 1'
_cell_length_a   14.05300001
_cell_length_b   14.05299975
_cell_length_c   17.90168526
_cell_angle_alpha   113.11038873
_cell_angle_beta   113.11043332
_cell_angle_gamma   90.00010032
_symmetry_Int_Tables_number   1
_chemical_formula_structural   CoC3N3O
_chemical_formula_sum   'Co16 C48 N48 O16'
_cell_volume   2940.67806526
_cell_formula_units_Z   16
loop_
 _symmetry_equiv_pos_site_id
 _symmetry_equiv_pos_as_xyz
  1  'x, y, z'
loop_
 _atom_site_label
 _atom_site_fract_x
 _atom_site_fract_y
 _atom_site_fract_z
 _atom_site_charge
 Co 0.92575 0.51738 0.17646   0.953669
 Co 0.75071 0.65908 0.17646   0.952472
 Co 0.74929 0.98262 0.82354   0.953418
 Co 0.57425 0.84092 0.82354   0.953547
 Co 0.84092 0.57425 0.32354   0.953533
 Co 0.98262 0.74929 0.32354   0.95341
 Co 0.51738 0.92575 0.67646   0.953664
 Co 0.65908 0.75071 0.67646   0.952451
 Co 0.15908 0.42575 0.67646   0.953533
 Co 0.01738 0.25071 0.67646   0.953409
 Co 0.48262 0.07425 0.32354   0.953664
 Co 0.34092 0.24929 0.32354   0.952451
 Co 0.07425 0.48262 0.82354   0.953668
 Co 0.24929 0.34092 0.82354   0.952471
 Co 0.25071 0.01738 0.17646   0.953418
 Co 0.42575 0.15908 0.17646   0.953546
 C 0.83611 0.38131 0.96302   0.642419
 C 0.7866 0.2203 0.8504   0.644233
 C 0.7032 0.4221 0.1268   0.178122
 C 0.62691 0.58171 0.96302   0.639638
 C 0.5638 0.6301 0.8504   0.643017
 C 0.9236 0.7047 0.1268   0.177358
 C 0.87309 0.11869 0.03698   0.642894
 C 0.9362 0.2797 0.1496   0.642686
 C 0.5764 0.0779 0.8732   0.178411
 C 0.66389 0.91829 0.03698   0.642085
 C 0.7134 0.8699 0.1496   0.643148
 C 0.7968 0.7953 0.8732   0.177584
 C 0.91829 0.66389 0.53698   0.642104
 C 0.8699 0.7134 0.6496   0.643156
 C 0.7953 0.7968 0.3732   0.177578
 C 0.11869 0.87309 0.53698   0.642891
 C 0.2797 0.9362 0.6496   0.642691
 C 0.0779 0.5764 0.3732   0.178412
 C 0.38131 0.83611 0.46302   0.642428
 C 0.2203 0.7866 0.3504   0.644251
 C 0.4221 0.7032 0.6268   0.17813
 C 0.58171 0.62691 0.46302   0.63964
 C 0.6301 0.5638 0.3504   0.643018
 C 0.7047 0.9236 0.6268   0.177346
 C 0.08171 0.33611 0.46302   0.642105
 C 0.1301 0.2866 0.3504   0.643156
 C 0.2047 0.2032 0.6268   0.177579
 C 0.88131 0.12691 0.46302   0.642892
 C 0.7203 0.0638 0.3504   0.642691
 C 0.9221 0.4236 0.6268   0.178413
 C 0.61869 0.16389 0.53698   0.642429
 C 0.7797 0.2134 0.6496   0.644251
 C 0.5779 0.2968 0.3732   0.178131
 C 0.41829 0.37309 0.53698   0.639641
 C 0.3699 0.4362 0.6496   0.643019
 C 0.2953 0.0764 0.3732   0.177347
 C 0.16389 0.61869 0.03698   0.64242
 C 0.2134 0.7797 0.1496   0.644234
 C 0.2968 0.5779 0.8732   0.178123
 C 0.37309 0.41829 0.03698   0.639639
 C 0.4362 0.3699 0.1496   0.643017
 C 0.0764 0.2953 0.8732   0.177359
 C 0.12691 0.88131 0.96302   0.642895
 C 0.0638 0.7203 0.8504   0.642687
 C 0.4236 0.9221 0.1268   0.178412
 C 0.33611 0.08171 0.96302   0.642086
 C 0.2866 0.1301 0.8504   0.643148
 C 0.2032 0.2047 0.1268   0.177585
 N 0.86349 0.44019 0.03578   -0.658552
 N 0.80802 0.32232 0.87824   -0.554666
 N 0.94902 0.36892 0.18004   -0.66734
 N 0.67229 0.59559 0.03578   -0.656372
 N 0.57022 0.55592 0.87824   -0.553298
 N 0.73102 0.81112 0.18004   -0.667496
 N 0.82771 0.05981 0.96422   -0.65882
 N 0.92978 0.17768 0.12176   -0.554049
 N 0.76898 0.13108 0.81996   -0.668053
 N 0.63651 0.90441 0.96422   -0.658331
 N 0.69198 0.94408 0.12176   -0.554005
 N 0.55098 0.68888 0.81996   -0.667233
 N 0.90441 0.63651 0.46422   -0.658344
 N 0.94408 0.69198 0.62176   -0.554024
 N 0.68888 0.55098 0.31996   -0.667233
 N 0.05981 0.82771 0.46422   -0.658811
 N 0.17768 0.92978 0.62176   -0.554054
 N 0.13108 0.76898 0.31996   -0.668069
 N 0.44019 0.86349 0.53578   -0.658552
 N 0.32232 0.80802 0.37824   -0.55467
 N 0.36892 0.94902 0.68004   -0.667342
 N 0.59559 0.67229 0.53578   -0.65637
 N 0.55592 0.57022 0.37824   -0.553311
 N 0.81112 0.73102 0.68004   -0.667501
 N 0.09559 0.36349 0.53578   -0.658344
 N 0.05592 0.30802 0.37824   -0.554025
 N 0.31112 0.44902 0.68004   -0.667233
 N 0.94019 0.17229 0.53578   -0.658812
 N 0.82232 0.07022 0.37824   -0.554055
 N 0.86892 0.23102 0.68004   -0.668069
 N 0.55981 0.13651 0.46422   -0.658552
 N 0.67768 0.19198 0.62176   -0.554671
 N 0.63108 0.05098 0.31996   -0.667342
 N 0.40441 0.32771 0.46422   -0.656371
 N 0.44408 0.42978 0.62176   -0.553312
 N 0.18888 0.26898 0.31996   -0.667501
 N 0.13651 0.55981 0.96422   -0.658552
 N 0.19198 0.67768 0.12176   -0.554667
 N 0.05098 0.63108 0.81996   -0.66734
 N 0.32771 0.40441 0.96422   -0.656372
 N 0.42978 0.44408 0.12176   -0.553299
 N 0.26898 0.18888 0.81996   -0.667496
 N 0.17229 0.94019 0.03578   -0.65882
 N 0.07022 0.82232 0.87824   -0.55405
 N 0.23102 0.86892 0.18004   -0.668053
 N 0.36349 0.09559 0.03578   -0.658331
 N 0.30802 0.05592 0.87824   -0.554006
 N 0.44902 0.31112 0.18004   -0.667233
 O 0.78331 0.51601 0.18502   -0.536751
 O 0.90171 0.66901 0.18502   -0.536097
 O 0.59829 0.98399 0.81498   -0.537577
 O 0.71669 0.83099 0.81498   -0.53605
 O 0.83099 0.71669 0.31498   -0.536045
 O 0.98399 0.59829 0.31498   -0.53756
 O 0.51601 0.78331 0.68502   -0.536749
 O 0.66901 0.90171 0.68502   -0.536084
 O 0.16901 0.28331 0.68502   -0.536045
 O 0.01601 0.40171 0.68502   -0.53756
 O 0.48399 0.21669 0.31498   -0.536749
 O 0.33099 0.09829 0.31498   -0.536084
 O 0.21669 0.48399 0.81498   -0.536751
 O 0.09829 0.33099 0.81498   -0.536097
 O 0.40171 0.01601 0.18502   -0.537577
 O 0.28331 0.16901 0.18502   -0.53605
