{'_ref': 'TBD', '_srcid': 'CAKYAQ_clean', 'submitters': [{'name': 'Dalar Nazarian Jeff Camp and David Sholl', 'email': 'dalar@gatech.edu jcamp6@gatech.edu'}], '_method': 'VASP DFT with PBE;DDEC'}
data_CoH16C24(NO2)2
_symmetry_space_group_name_H-M   'P 1'
_cell_length_a   12.73150000
_cell_length_b   22.61400000
_cell_length_c   22.61400000
_cell_angle_alpha   90.00000000
_cell_angle_beta   90.00000000
_cell_angle_gamma   90.00000000
_symmetry_Int_Tables_number   1
_chemical_formula_structural   CoH16C24(NO2)2
_chemical_formula_sum   'Co8 H128 C192 N16 O32'
_cell_volume   6510.79992857
_cell_formula_units_Z   8
loop_
 _symmetry_equiv_pos_site_id
 _symmetry_equiv_pos_as_xyz
  1  'x, y, z'
loop_
 _atom_site_label
 _atom_site_fract_x
 _atom_site_fract_y
 _atom_site_fract_z
 _atom_site_charge
 Co 0.25249 0.73827 0.25624   0.66758
 Co 0.25249 0.26173 0.74376   0.66758
 Co 0.74751 0.76173 0.75624   0.66758
 Co 0.74751 0.23827 0.24376   0.66758
 Co 0.25249 0.24376 0.23827   0.66758
 Co 0.25249 0.75624 0.76173   0.66758
 Co 0.74751 0.25624 0.73827   0.66758
 Co 0.74751 0.74376 0.26173   0.66758
 H 0.7624 0.353 0.3141   0.088684
 H 0.6654 0.4361 0.3322   0.127041
 H 0.4388 0.375 0.2256   0.139202
 H 0.5399 0.2909 0.2104   0.08931
 H 0.6098 0.5247 0.303   0.096719
 H 0.5196 0.6145 0.3021   0.096137
 H 0.2479 0.5267 0.2729   0.095037
 H 0.3401 0.4392 0.2733   0.096792
 H 0.6906 0.7389 0.8861   0.078049
 H 0.7776 0.7355 0.9759   0.116911
 H 0.0522 0.722 0.8876   0.139212
 H 0.9578 0.732 0.8004   0.077072
 H 0.8801 0.7759 0.0471   0.097939
 H 0.9769 0.7764 0.1335   0.099199
 H 0.1959 0.6724 0.0586   0.10796
 H 0.1018 0.6753 0.9708   0.111003
 H 0.7624 0.647 0.6859   0.088684
 H 0.6654 0.5639 0.6678   0.127038
 H 0.4388 0.625 0.7744   0.139201
 H 0.5399 0.7091 0.7896   0.089312
 H 0.6098 0.4753 0.697   0.096719
 H 0.5196 0.3855 0.6979   0.096137
 H 0.2479 0.4733 0.7271   0.095037
 H 0.3401 0.5608 0.7267   0.096792
 H 0.6906 0.2611 0.1139   0.07805
 H 0.7776 0.2645 0.0241   0.116911
 H 0.0522 0.278 0.1124   0.139212
 H 0.9578 0.268 0.1996   0.077072
 H 0.8801 0.2241 0.9529   0.097939
 H 0.9769 0.2236 0.8665   0.099199
 H 0.1959 0.3276 0.9414   0.107959
 H 0.1018 0.3247 0.0292   0.111003
 H 0.2376 0.147 0.8141   0.088684
 H 0.3346 0.0639 0.8322   0.127041
 H 0.5612 0.125 0.7256   0.139202
 H 0.4601 0.2091 0.7104   0.08931
 H 0.3902 0.9753 0.803   0.096719
 H 0.4804 0.8855 0.8021   0.096137
 H 0.7521 0.9733 0.7729   0.095037
 H 0.6599 0.0608 0.7733   0.096792
 H 0.3094 0.7611 0.3861   0.078049
 H 0.2224 0.7645 0.4759   0.116911
 H 0.9478 0.778 0.3876   0.139212
 H 0.0422 0.768 0.3004   0.077072
 H 0.1199 0.7241 0.5471   0.097938
 H 0.0231 0.7236 0.6335   0.099199
 H 0.8041 0.8276 0.5586   0.10796
 H 0.8982 0.8247 0.4708   0.111003
 H 0.2376 0.853 0.1859   0.088684
 H 0.3346 0.9361 0.1678   0.127038
 H 0.5612 0.875 0.2744   0.139201
 H 0.4601 0.7909 0.2896   0.089312
 H 0.3902 0.0247 0.197   0.096719
 H 0.4804 0.1145 0.1979   0.096137
 H 0.7521 0.0267 0.2271   0.095037
 H 0.6599 0.9392 0.2267   0.096792
 H 0.3094 0.2389 0.6139   0.07805
 H 0.2224 0.2355 0.5241   0.116911
 H 0.9478 0.222 0.6124   0.139212
 H 0.0422 0.232 0.6996   0.077072
 H 0.1199 0.2759 0.4529   0.097938
 H 0.0231 0.2764 0.3665   0.099199
 H 0.8041 0.1724 0.4414   0.107959
 H 0.8982 0.1753 0.5292   0.111003
 H 0.7624 0.1859 0.853   0.088685
 H 0.6654 0.1678 0.9361   0.12703
 H 0.4388 0.2744 0.875   0.139196
 H 0.5399 0.2896 0.7909   0.089308
 H 0.6098 0.197 0.0247   0.096718
 H 0.5196 0.1979 0.1145   0.096132
 H 0.2479 0.2271 0.0267   0.095035
 H 0.3401 0.2267 0.9392   0.096792
 H 0.6906 0.6139 0.2389   0.078048
 H 0.7776 0.5241 0.2355   0.11691
 H 0.0522 0.6124 0.222   0.139212
 H 0.9578 0.6996 0.232   0.077068
 H 0.8801 0.4529 0.2759   0.097928
 H 0.9769 0.3665 0.2764   0.099197
 H 0.1959 0.4414 0.1724   0.107938
 H 0.1018 0.5292 0.1753   0.111002
 H 0.7624 0.8141 0.147   0.088685
 H 0.6654 0.8322 0.0639   0.127027
 H 0.4388 0.7256 0.125   0.139195
 H 0.5399 0.7104 0.2091   0.08931
 H 0.6098 0.803 0.9753   0.096719
 H 0.5196 0.8021 0.8855   0.096132
 H 0.2479 0.7729 0.9733   0.095035
 H 0.3401 0.7733 0.0608   0.096792
 H 0.6906 0.3861 0.7611   0.078049
 H 0.7776 0.4759 0.7645   0.11691
 H 0.0522 0.3876 0.778   0.139212
 H 0.9578 0.3004 0.768   0.077068
 H 0.8801 0.5471 0.7241   0.097928
 H 0.9769 0.6335 0.7236   0.099197
 H 0.1959 0.5586 0.8276   0.107937
 H 0.1018 0.4708 0.8247   0.111002
 H 0.2376 0.3141 0.353   0.088685
 H 0.3346 0.3322 0.4361   0.12703
 H 0.5612 0.2256 0.375   0.139196
 H 0.4601 0.2104 0.2909   0.089308
 H 0.3902 0.303 0.5247   0.096718
 H 0.4804 0.3021 0.6145   0.096132
 H 0.7521 0.2729 0.5267   0.095035
 H 0.6599 0.2733 0.4392   0.096792
 H 0.3094 0.8861 0.7389   0.078048
 H 0.2224 0.9759 0.7355   0.11691
 H 0.9478 0.8876 0.722   0.139212
 H 0.0422 0.8004 0.732   0.077068
 H 0.1199 0.0471 0.7759   0.097927
 H 0.0231 0.1335 0.7764   0.099197
 H 0.8041 0.0586 0.6724   0.107938
 H 0.8982 0.9708 0.6753   0.111002
 H 0.2376 0.6859 0.647   0.088685
 H 0.3346 0.6678 0.5639   0.127027
 H 0.5612 0.7744 0.625   0.139195
 H 0.4601 0.7896 0.7091   0.08931
 H 0.3902 0.697 0.4753   0.096719
 H 0.4804 0.6979 0.3855   0.096132
 H 0.7521 0.7271 0.4733   0.095035
 H 0.6599 0.7267 0.5608   0.096792
 H 0.3094 0.1139 0.2611   0.078049
 H 0.2224 0.0241 0.2645   0.11691
 H 0.9478 0.1124 0.278   0.139212
 H 0.0422 0.1996 0.268   0.077068
 H 0.1199 0.9529 0.2241   0.097927
 H 0.0231 0.8665 0.2236   0.099197
 H 0.8041 0.9414 0.3276   0.107937
 H 0.8982 0.0292 0.3247   0.111002
 C 0.6959 0.3575 0.2955   0.140642
 C 0.6391 0.4071 0.3056   -0.211379
 C 0.5437 0.4165 0.2781   0.107186
 C 0.506 0.3717 0.2436   -0.189363
 C 0.5667 0.3214 0.235   0.160254
 C 0.4833 0.4732 0.2849   0.031157
 C 0.5364 0.5253 0.2957   -0.136343
 C 0.4823 0.5786 0.2959   -0.040705
 C 0.3777 0.5801 0.2873   -0.119106
 C 0.3218 0.5267 0.2785   -0.037728
 C 0.3772 0.4753 0.2783   -0.120807
 C 0.3199 0.6385 0.2814   0.606282
 C 0.7652 0.7374 0.8866   0.143595
 C 0.8171 0.7337 0.9403   -0.208732
 C 0.9227 0.7275 0.9432   0.102046
 C 0.9781 0.7266 0.8886   -0.191252
 C 0.9207 0.7326 0.8368   0.171499
 C 0.9826 0.7253 0.000100000000003   0.04432
 C 0.9451 0.7554 0.0491   -0.134098
 C 0.0023 0.7554 0.1001   -0.038464
 C 0.0962 0.7254 0.104   -0.131765
 C 0.1325 0.6944 0.0562   -0.035359
 C 0.0756 0.6957 0.0044   -0.125538
 C 0.1612 0.7285 0.1585   0.600191
 C 0.6959 0.6425 0.7045   0.140642
 C 0.6391 0.5929 0.6944   -0.211378
 C 0.5437 0.5835 0.7219   0.107186
 C 0.506 0.6283 0.7564   -0.189366
 C 0.5667 0.6786 0.765   0.160256
 C 0.4833 0.5268 0.7151   0.031157
 C 0.5364 0.4747 0.7043   -0.136344
 C 0.4823 0.4214 0.7041   -0.040704
 C 0.3777 0.4199 0.7127   -0.119106
 C 0.3218 0.4733 0.7215   -0.037728
 C 0.3772 0.5247 0.7217   -0.120807
 C 0.3199 0.3615 0.7186   0.606282
 C 0.7652 0.2626 0.1134   0.143594
 C 0.8171 0.2663 0.0597   -0.208732
 C 0.9227 0.2725 0.0568   0.102046
 C 0.9781 0.2734 0.1114   -0.191252
 C 0.9207 0.2674 0.1632   0.171499
 C 0.9826 0.2747 0.9999   0.04432
 C 0.9451 0.2446 0.9509   -0.134098
 C 0.0023 0.2446 0.8999   -0.038464
 C 0.0962 0.2746 0.896   -0.131766
 C 0.1325 0.3056 0.9438   -0.035359
 C 0.0756 0.3043 0.9956   -0.125539
 C 0.1612 0.2715 0.8415   0.600191
 C 0.3041 0.1425 0.7955   0.140641
 C 0.3609 0.0929 0.8056   -0.211379
 C 0.4563 0.0835 0.7781   0.107186
 C 0.494 0.1283 0.7436   -0.189363
 C 0.4333 0.1786 0.735   0.160254
 C 0.5167 0.0268 0.7849   0.031157
 C 0.4636 0.9747 0.7957   -0.136343
 C 0.5177 0.9214 0.7959   -0.040705
 C 0.6223 0.9199 0.7873   -0.119105
 C 0.6782 0.9733 0.7785   -0.037729
 C 0.6228 0.0247 0.7783   -0.120807
 C 0.6801 0.8615 0.7814   0.606282
 C 0.2348 0.7626 0.3866   0.143596
 C 0.1829 0.7663 0.4403   -0.208733
 C 0.0773 0.7725 0.4432   0.102046
 C 0.0219 0.7734 0.3886   -0.191252
 C 0.0793 0.7674 0.3368   0.171499
 C 0.0174 0.7747 0.5001   0.04432
 C 0.0549 0.7446 0.5491   -0.134098
 C 0.9977 0.7446 0.6001   -0.038464
 C 0.9038 0.7746 0.604   -0.131765
 C 0.8675 0.8056 0.5562   -0.035359
 C 0.9244 0.8043 0.5044   -0.125538
 C 0.8388 0.7715 0.6585   0.600191
 C 0.3041 0.8575 0.2045   0.140641
 C 0.3609 0.9071 0.1944   -0.211378
 C 0.4563 0.9165 0.2219   0.107186
 C 0.494 0.8717 0.2564   -0.189366
 C 0.4333 0.8214 0.265   0.160256
 C 0.5167 0.9732 0.2151   0.031157
 C 0.4636 0.0253 0.2043   -0.136344
 C 0.5177 0.0786 0.2041   -0.040705
 C 0.6223 0.0801 0.2127   -0.119105
 C 0.6782 0.0267 0.2215   -0.037729
 C 0.6228 0.9753 0.2217   -0.120807
 C 0.6801 0.1385 0.2186   0.606282
 C 0.2348 0.2374 0.6134   0.143595
 C 0.1829 0.2337 0.5597   -0.208733
 C 0.0773 0.2275 0.5568   0.102046
 C 0.0219 0.2266 0.6114   -0.191252
 C 0.0793 0.2326 0.6632   0.171499
 C 0.0174 0.2253 0.4999   0.04432
 C 0.0549 0.2554 0.4509   -0.134098
 C 0.9977 0.2554 0.3999   -0.038464
 C 0.9038 0.2254 0.396   -0.131766
 C 0.8675 0.1944 0.4438   -0.035359
 C 0.9244 0.1957 0.4956   -0.125539
 C 0.8388 0.2285 0.3415   0.600191
 C 0.6959 0.2045 0.8575   0.140641
 C 0.6391 0.1944 0.9071   -0.211374
 C 0.5437 0.2219 0.9165   0.107185
 C 0.506 0.2564 0.8717   -0.189364
 C 0.5667 0.265 0.8214   0.160257
 C 0.4833 0.2151 0.9732   0.031157
 C 0.5364 0.2043 0.0253   -0.136347
 C 0.4823 0.2041 0.0786   -0.040703
 C 0.3777 0.2127 0.0801   -0.119106
 C 0.3218 0.2215 0.0267   -0.03773
 C 0.3772 0.2217 0.9753   -0.120806
 C 0.3199 0.2186 0.1385   0.606282
 C 0.7652 0.6134 0.2374   0.143596
 C 0.8171 0.5597 0.2337   -0.20874
 C 0.9227 0.5568 0.2275   0.102045
 C 0.9781 0.6114 0.2266   -0.191252
 C 0.9207 0.6632 0.2326   0.171501
 C 0.9826 0.4999 0.2253   0.04432
 C 0.9451 0.4509 0.2554   -0.134099
 C 0.0023 0.3999 0.2554   -0.038464
 C 0.0962 0.396 0.2254   -0.131769
 C 0.1325 0.4438 0.1944   -0.03535
 C 0.0756 0.4956 0.1957   -0.125546
 C 0.1612 0.3415 0.2285   0.600192
 C 0.6959 0.7955 0.1425   0.140641
 C 0.6391 0.8056 0.0929   -0.211373
 C 0.5437 0.7781 0.0835   0.107185
 C 0.506 0.7436 0.1283   -0.189367
 C 0.5667 0.735 0.1786   0.160259
 C 0.4833 0.7849 0.0268   0.031157
 C 0.5364 0.7957 0.9747   -0.136347
 C 0.4823 0.7959 0.9214   -0.040703
 C 0.3777 0.7873 0.9199   -0.119106
 C 0.3218 0.7785 0.9733   -0.03773
 C 0.3772 0.7783 0.0247   -0.120806
 C 0.3199 0.7814 0.8615   0.606282
 C 0.7652 0.3866 0.7626   0.143595
 C 0.8171 0.4403 0.7663   -0.208739
 C 0.9227 0.4432 0.7725   0.102045
 C 0.9781 0.3886 0.7734   -0.191252
 C 0.9207 0.3368 0.7674   0.171501
 C 0.9826 0.5001 0.7747   0.04432
 C 0.9451 0.5491 0.7446   -0.134099
 C 0.0023 0.6001 0.7446   -0.038464
 C 0.0962 0.604 0.7746   -0.131769
 C 0.1325 0.5562 0.8056   -0.03535
 C 0.0756 0.5044 0.8043   -0.125546
 C 0.1612 0.6585 0.7715   0.600192
 C 0.3041 0.2955 0.3575   0.140641
 C 0.3609 0.3056 0.4071   -0.211374
 C 0.4563 0.2781 0.4165   0.107185
 C 0.494 0.2436 0.3717   -0.189364
 C 0.4333 0.235 0.3214   0.160257
 C 0.5167 0.2849 0.4732   0.031157
 C 0.4636 0.2957 0.5253   -0.136347
 C 0.5177 0.2959 0.5786   -0.040703
 C 0.6223 0.2873 0.5801   -0.119106
 C 0.6782 0.2785 0.5267   -0.037731
 C 0.6228 0.2783 0.4753   -0.120806
 C 0.6801 0.2814 0.6385   0.606282
 C 0.2348 0.8866 0.7374   0.143597
 C 0.1829 0.9403 0.7337   -0.208741
 C 0.0773 0.9432 0.7275   0.102045
 C 0.0219 0.8886 0.7266   -0.191252
 C 0.0793 0.8368 0.7326   0.171501
 C 0.0174 0.000100000000003 0.7253   0.04432
 C 0.0549 0.0491 0.7554   -0.134099
 C 0.9977 0.1001 0.7554   -0.038464
 C 0.9038 0.104 0.7254   -0.131769
 C 0.8675 0.0562 0.6944   -0.03535
 C 0.9244 0.0044 0.6957   -0.125546
 C 0.8388 0.1585 0.7285   0.600192
 C 0.3041 0.7045 0.6425   0.140641
 C 0.3609 0.6944 0.5929   -0.211373
 C 0.4563 0.7219 0.5835   0.107185
 C 0.494 0.7564 0.6283   -0.189367
 C 0.4333 0.765 0.6786   0.160259
 C 0.5167 0.7151 0.5268   0.031157
 C 0.4636 0.7043 0.4747   -0.136347
 C 0.5177 0.7041 0.4214   -0.040703
 C 0.6223 0.7127 0.4199   -0.119106
 C 0.6782 0.7215 0.4733   -0.037731
 C 0.6228 0.7217 0.5247   -0.120806
 C 0.6801 0.7186 0.3615   0.606282
 C 0.2348 0.1134 0.2626   0.143596
 C 0.1829 0.0597 0.2663   -0.208741
 C 0.0773 0.0568 0.2725   0.102045
 C 0.0219 0.1114 0.2734   -0.191252
 C 0.0793 0.1632 0.2674   0.171501
 C 0.0174 0.9999 0.2747   0.04432
 C 0.0549 0.9509 0.2446   -0.134099
 C 0.9977 0.8999 0.2446   -0.038464
 C 0.9038 0.896 0.2746   -0.131769
 C 0.8675 0.9438 0.3056   -0.03535
 C 0.9244 0.9956 0.3043   -0.125546
 C 0.8388 0.8415 0.2715   0.600192
 N 0.6597 0.3141 0.2593   -0.316217
 N 0.8182 0.739 0.8351   -0.302104
 N 0.6597 0.6859 0.7407   -0.316217
 N 0.8182 0.261 0.1649   -0.302104
 N 0.3403 0.1859 0.7593   -0.316217
 N 0.1818 0.761 0.3351   -0.302104
 N 0.3403 0.8141 0.2407   -0.316217
 N 0.1818 0.239 0.6649   -0.302104
 N 0.6597 0.2407 0.8141   -0.316217
 N 0.8182 0.6649 0.239   -0.302105
 N 0.6597 0.7593 0.1859   -0.316218
 N 0.8182 0.3351 0.761   -0.302105
 N 0.3403 0.2593 0.3141   -0.316217
 N 0.1818 0.8351 0.739   -0.302105
 N 0.3403 0.7407 0.6859   -0.316218
 N 0.1818 0.1649 0.261   -0.302105
 O 0.3741 0.6857 0.2819   -0.509131
 O 0.2218 0.6401 0.2756   -0.535008
 O 0.2534 0.7103 0.1599   -0.530847
 O 0.1216 0.7545 0.2044   -0.517026
 O 0.3741 0.3143 0.7181   -0.509131
 O 0.2218 0.3599 0.7244   -0.535008
 O 0.2534 0.2897 0.8401   -0.530847
 O 0.1216 0.2455 0.7956   -0.517026
 O 0.6259 0.8143 0.7819   -0.509131
 O 0.7782 0.8599 0.7756   -0.535008
 O 0.7466 0.7897 0.6599   -0.530847
 O 0.8784 0.7455 0.7044   -0.517026
 O 0.6259 0.1857 0.2181   -0.509131
 O 0.7782 0.1401 0.2244   -0.535008
 O 0.7466 0.2103 0.3401   -0.530847
 O 0.8784 0.2545 0.2956   -0.517026
 O 0.3741 0.2181 0.1857   -0.509134
 O 0.2218 0.2244 0.1401   -0.535008
 O 0.2534 0.3401 0.2103   -0.530848
 O 0.1216 0.2956 0.2545   -0.517029
 O 0.3741 0.7819 0.8143   -0.509134
 O 0.2218 0.7756 0.8599   -0.535009
 O 0.2534 0.6599 0.7897   -0.530848
 O 0.1216 0.7044 0.7455   -0.517029
 O 0.6259 0.2819 0.6857   -0.509134
 O 0.7782 0.2756 0.6401   -0.535008
 O 0.7466 0.1599 0.7103   -0.530848
 O 0.8784 0.2044 0.7545   -0.517029
 O 0.6259 0.7181 0.3143   -0.509134
 O 0.7782 0.7244 0.3599   -0.535008
 O 0.7466 0.8401 0.2897   -0.530848
 O 0.8784 0.7956 0.2455   -0.517029
