{'_ref': 'TBD', '_srcid': 'CAKYAQ_clean', 'submitters': [{'name': 'Dalar Nazarian Jeff Camp and David Sholl', 'email': 'dalar@gatech.edu jcamp6@gatech.edu'}], '_method': 'VASP DFT with PBE;DDEC'}
data_MnAg2H8(C7N3)2
_symmetry_space_group_name_H-M   'P 1'
_cell_length_a   10.58410000
_cell_length_b   10.58410022
_cell_length_c   12.22460000
_cell_angle_alpha   90.00000000
_cell_angle_beta   90.00000000
_cell_angle_gamma   112.85400104
_symmetry_Int_Tables_number   1
_chemical_formula_structural   MnAg2H8(C7N3)2
_chemical_formula_sum   'Mn2 Ag4 H16 C28 N12'
_cell_volume   1261.93417433
_cell_formula_units_Z   2
loop_
 _symmetry_equiv_pos_site_id
 _symmetry_equiv_pos_as_xyz
  1  'x, y, z'
loop_
 _atom_site_label
 _atom_site_fract_x
 _atom_site_fract_y
 _atom_site_fract_z
 _atom_site_charge
 Mn 0.5 0.5 0.0   0.452116
 Mn 0.0 0.0 0.5   0.452116
 Ag 0.75429 0.24571 0.75789   0.209636
 Ag 0.74571 0.25429 0.25789   0.209638
 Ag 0.25429 0.74571 0.74211   0.209627
 Ag 0.24571 0.75429 0.24211   0.209629
 H 0.7332 0.6992 0.8442   0.078302
 H 0.911 0.9154 0.8373   0.122855
 H 0.7668 0.8008 0.3442   0.078302
 H 0.589 0.5846 0.3373   0.122855
 H 0.8008 0.7668 0.6558   0.078306
 H 0.5846 0.589 0.6627   0.122856
 H 0.6992 0.7332 0.1558   0.078306
 H 0.9154 0.911 0.1627   0.122856
 H 0.2668 0.3008 0.1558   0.078302
 H 0.089 0.0846 0.1627   0.122857
 H 0.2332 0.1992 0.6558   0.078302
 H 0.411 0.4154 0.6627   0.122857
 H 0.1992 0.2332 0.3442   0.078306
 H 0.4154 0.411 0.3373   0.122858
 H 0.3008 0.2668 0.8442   0.078306
 H 0.0846 0.089 0.8373   0.122858
 C 0.7629 0.7487 0.9105   0.137659
 C 0.8769 0.8747 0.906   -0.187895
 C 0.7371 0.7513 0.4105   0.137659
 C 0.6231 0.6253 0.406   -0.187895
 C 0.7513 0.7371 0.5895   0.137661
 C 0.6253 0.6231 0.594   -0.187894
 C 0.7487 0.7629 0.0895   0.137661
 C 0.8747 0.8769 0.094   -0.187894
 C 0.2371 0.2513 0.0895   0.137659
 C 0.1231 0.1253 0.094   -0.187897
 C 0.2629 0.2487 0.5895   0.137659
 C 0.3769 0.3747 0.594   -0.187897
 C 0.2487 0.2629 0.4105   0.137661
 C 0.3747 0.3769 0.406   -0.187896
 C 0.2513 0.2371 0.9105   0.137661
 C 0.1253 0.1231 0.906   -0.187896
 C 0.649 0.351 0.8311   -0.076457
 C 0.8586 0.1414 0.6831   -0.075324
 C 0.851 0.149 0.3311   -0.076461
 C 0.6414 0.3586 0.1831   -0.075328
 C 0.149 0.851 0.6689   -0.076456
 C 0.3586 0.6414 0.8169   -0.075323
 C 0.351 0.649 0.1689   -0.07646
 C 0.1414 0.8586 0.3169   -0.075327
 C 0.9382 0.9382 0.0   0.104591
 C 0.5618 0.5618 0.5   0.104591
 C 0.0618 0.0618 0.0   0.104606
 C 0.4382 0.4382 0.5   0.104606
 N 0.5928 0.4072 0.8765   -0.244852
 N 0.9142 0.0858 0.6326   -0.25435
 N 0.9072 0.0928 0.3765   -0.244851
 N 0.5858 0.4142 0.1326   -0.25435
 N 0.0928 0.9072 0.6235   -0.244852
 N 0.4142 0.5858 0.8674   -0.254351
 N 0.4072 0.5928 0.1235   -0.244852
 N 0.0858 0.9142 0.3674   -0.25435
 N 0.6956 0.6956 0.0   -0.191151
 N 0.8044 0.8044 0.5   -0.191151
 N 0.3044 0.3044 0.0   -0.191152
 N 0.1956 0.1956 0.5   -0.191152
