{'_ref': 'TBD', '_srcid': 'CAKYAQ_clean', 'submitters': [{'name': 'Dalar Nazarian Jeff Camp and David Sholl', 'email': 'dalar@gatech.edu jcamp6@gatech.edu'}], '_method': 'VASP DFT with PBE;DDEC'}
data_ZnCoH13C24N2O9
_symmetry_space_group_name_H-M   'P 1'
_cell_length_a   13.86370000
_cell_length_b   18.94110000
_cell_length_c   19.00790000
_cell_angle_alpha   90.00000000
_cell_angle_beta   90.00000000
_cell_angle_gamma   90.00000000
_symmetry_Int_Tables_number   1
_chemical_formula_structural   ZnCoH13C24N2O9
_chemical_formula_sum   'Zn8 Co8 H104 C192 N16 O72'
_cell_volume   4991.35532378
_cell_formula_units_Z   8
loop_
 _symmetry_equiv_pos_site_id
 _symmetry_equiv_pos_as_xyz
  1  'x, y, z'
loop_
 _atom_site_label
 _atom_site_fract_x
 _atom_site_fract_y
 _atom_site_fract_z
 _atom_site_charge
 Zn 0.36485 0.89688 0.5685   1.025286
 Zn 0.63516 0.39688 0.9315   1.026288
 Zn 0.63516 0.10312 0.4315   1.026286
 Zn 0.36485 0.60312 0.0685   1.025284
 Zn 0.13516 0.10312 0.0685   1.026288
 Zn 0.86485 0.60312 0.4315   1.025286
 Zn 0.86485 0.89688 0.9315   1.025285
 Zn 0.13516 0.39688 0.5685   1.026286
 Co 0.40355 0.48311 0.95656   1.010434
 Co 0.59645 0.98311 0.54344   1.003121
 Co 0.59645 0.51689 0.04344   1.003121
 Co 0.40355 0.01689 0.45656   1.010435
 Co 0.09645 0.51689 0.45656   1.00312
 Co 0.90355 0.01689 0.04344   1.010435
 Co 0.90355 0.48311 0.54344   1.010434
 Co 0.09645 0.98311 0.95656   1.003122
 H 0.4131 0.7182 0.7014   0.108626
 H 0.4202 0.635 0.7895   0.098386
 H 0.3777 0.7859 0.9329   0.104159
 H 0.3749 0.8692 0.8442   0.101979
 H 0.1121 0.0667 0.4418   0.097806
 H 0.0489 0.9108 0.5738   0.091019
 H 0.3835 0.3666 0.0791   0.093188
 H 0.357 0.2476 0.0902   0.128564
 H 0.3487 0.178 0.9909   0.091491
 H 0.3467 0.3499 0.6826   0.097335
 H 0.3548 0.4708 0.6886   0.132734
 H 0.3761 0.5241 0.7966   0.076511
 H 0.4362 0.0024 0.5856   0.47237
 H 0.5869 0.2182 0.7986   0.108948
 H 0.5798 0.135 0.7105   0.098014
 H 0.6223 0.2859 0.5671   0.104417
 H 0.6251 0.3692 0.6558   0.102088
 H 0.8879 0.5667 0.0582   0.097557
 H 0.9511 0.4108 0.9262   0.091347
 H 0.6165 0.8666 0.4209   0.093981
 H 0.643 0.7476 0.4098   0.129191
 H 0.6513 0.678 0.5091   0.092273
 H 0.6533 0.8499 0.8174   0.098097
 H 0.6452 0.9708 0.8114   0.13413
 H 0.6239 0.0241 0.7034   0.077869
 H 0.5638 0.5024 0.9144   0.472962
 H 0.5869 0.2818 0.2986   0.108942
 H 0.5798 0.365 0.2105   0.098015
 H 0.6223 0.2141 0.0671   0.104409
 H 0.6251 0.1308 0.1558   0.10209
 H 0.8879 0.9333 0.5582   0.097572
 H 0.9511 0.0892 0.4262   0.091365
 H 0.6165 0.6334 0.9209   0.093961
 H 0.643 0.7524 0.9098   0.129228
 H 0.6513 0.822 0.0091   0.092274
 H 0.6533 0.6501 0.3174   0.098136
 H 0.6452 0.5292 0.3114   0.134128
 H 0.6239 0.4759 0.2034   0.077869
 H 0.5638 0.9976 0.4144   0.472942
 H 0.4131 0.7818 0.2014   0.108622
 H 0.4202 0.865 0.2895   0.098379
 H 0.3777 0.7141 0.4329   0.104152
 H 0.3749 0.6308 0.3442   0.101979
 H 0.1121 0.4333 0.9418   0.097825
 H 0.0489 0.5892 0.0738   0.091035
 H 0.3835 0.1334 0.5791   0.093176
 H 0.357 0.2524 0.5902   0.128601
 H 0.3487 0.322 0.4909   0.091492
 H 0.3467 0.1501 0.1826   0.097372
 H 0.3548 0.0292 0.1886   0.132733
 H 0.3761 0.9759 0.2966   0.076511
 H 0.4362 0.4976 0.0856   0.472351
 H 0.0869 0.2818 0.2014   0.108946
 H 0.0798 0.365 0.2895   0.098016
 H 0.1223 0.2141 0.4329   0.104419
 H 0.1251 0.1308 0.3442   0.102111
 H 0.3879 0.9333 0.9418   0.097583
 H 0.4511 0.0892 0.0738   0.091377
 H 0.1165 0.6334 0.5791   0.093968
 H 0.143 0.7524 0.5902   0.129196
 H 0.1513 0.822 0.4909   0.092281
 H 0.1533 0.6501 0.1826   0.098112
 H 0.1452 0.5292 0.1886   0.134123
 H 0.1239 0.4759 0.2966   0.077869
 H 0.0638 0.9976 0.0856   0.472967
 H 0.9131 0.7818 0.2986   0.108625
 H 0.9202 0.865 0.2105   0.098382
 H 0.8777 0.7141 0.0671   0.10417
 H 0.8749 0.6308 0.1558   0.102
 H 0.6121 0.4333 0.5582   0.097827
 H 0.5489 0.5892 0.4262   0.091053
 H 0.8835 0.1334 0.9209   0.093177
 H 0.857 0.2524 0.9098   0.128567
 H 0.8487 0.322 0.0091   0.091497
 H 0.8467 0.1501 0.3174   0.097347
 H 0.8548 0.0292 0.3114   0.132726
 H 0.8761 0.9759 0.2034   0.076511
 H 0.9362 0.4976 0.4144   0.472365
 H 0.9131 0.7182 0.7986   0.108619
 H 0.9202 0.635 0.7105   0.098382
 H 0.8777 0.7859 0.5671   0.104163
 H 0.8749 0.8692 0.6558   0.102002
 H 0.6121 0.0667 0.0582   0.097845
 H 0.5489 0.9108 0.9262   0.091068
 H 0.8835 0.3666 0.4209   0.093165
 H 0.857 0.2476 0.4098   0.128604
 H 0.8487 0.178 0.5091   0.091498
 H 0.8467 0.3499 0.8174   0.097387
 H 0.8548 0.4708 0.8114   0.132724
 H 0.8761 0.5241 0.7034   0.076512
 H 0.9362 0.0024 0.9144   0.472355
 H 0.0869 0.2182 0.7014   0.10894
 H 0.0798 0.135 0.7895   0.098011
 H 0.1223 0.2859 0.9329   0.104413
 H 0.1251 0.3692 0.8442   0.102111
 H 0.3879 0.5667 0.4418   0.097598
 H 0.4511 0.4108 0.5738   0.091396
 H 0.1165 0.8666 0.0791   0.093948
 H 0.143 0.7476 0.0902   0.129232
 H 0.1513 0.678 0.9909   0.092281
 H 0.1533 0.8499 0.6826   0.098149
 H 0.1452 0.9708 0.6886   0.134122
 H 0.1239 0.0241 0.7966   0.077869
 H 0.0638 0.5024 0.5856   0.472937
 C 0.38653 0.85637 0.70651   0.646903
 C 0.39237 0.80174 0.76367   -0.113011
 C 0.4061 0.7321 0.74803   -0.057768
 C 0.4095 0.68213 0.8008   -0.029141
 C 0.39716 0.70143 0.87028   -0.144506
 C 0.3847 0.77186 0.88625   -0.071964
 C 0.3828 0.82178 0.83307   -0.073204
 C 0.39561 0.64619 0.92726   0.669252
 C 0.20347 0.97237 0.51675   0.690119
 C 0.09798 0.9863 0.50909   -0.120091
 C 0.0669 0.03934 0.46555   -0.035032
 C 0.02968 0.94699 0.54376   -0.064024
 C 0.3781 0.33925 0.0387   0.196451
 C 0.3631 0.26767 0.0458   -0.149398
 C 0.3572 0.22655 0.9869   0.065533
 C 0.364 0.25758 0.92127   -0.155188
 C 0.3564 0.21607 0.856   0.332265
 C 0.3546 0.25502 0.7853   0.334658
 C 0.36215 0.33292 0.78681   -0.176909
 C 0.3549 0.3723 0.72574   0.069434
 C 0.3598 0.4435 0.72913   -0.139786
 C 0.3725 0.47514 0.79445   0.230592
 C 0.37405 0.36825 0.85036   0.193871
 C 0.3762 0.33096 0.91823   0.20005
 C 0.61347 0.35637 0.79349   0.646925
 C 0.60763 0.30174 0.73633   -0.111683
 C 0.5939 0.2321 0.75197   -0.057146
 C 0.5905 0.18213 0.6992   -0.027963
 C 0.60284 0.20143 0.62972   -0.146186
 C 0.6153 0.27186 0.61375   -0.070301
 C 0.6172 0.32178 0.66693   -0.072835
 C 0.60439 0.14619 0.57274   0.669904
 C 0.79653 0.47237 0.98325   0.693213
 C 0.90202 0.4863 0.99091   -0.122718
 C 0.9331 0.53934 0.03445   -0.034243
 C 0.97032 0.44699 0.95624   -0.062298
 C 0.6219 0.83925 0.4613   0.197571
 C 0.6369 0.76767 0.4542   -0.149102
 C 0.6428 0.72655 0.5131   0.068123
 C 0.636 0.75758 0.57873   -0.154893
 C 0.6436 0.71607 0.644   0.331043
 C 0.6454 0.75502 0.7147   0.333577
 C 0.63785 0.83292 0.71319   -0.175832
 C 0.6451 0.8723 0.77426   0.069177
 C 0.6402 0.9435 0.77087   -0.138088
 C 0.6275 0.97514 0.70555   0.23069
 C 0.62595 0.86825 0.64964   0.193843
 C 0.6238 0.83096 0.58177   0.201159
 C 0.61347 0.14363 0.29349   0.646913
 C 0.60763 0.19826 0.23633   -0.111695
 C 0.5939 0.2679 0.25197   -0.057149
 C 0.5905 0.31787 0.1992   -0.027965
 C 0.60284 0.29857 0.12972   -0.146175
 C 0.6153 0.22814 0.11375   -0.070281
 C 0.6172 0.17822 0.16693   -0.072855
 C 0.60439 0.35381 0.07274   0.669906
 C 0.79653 0.02763 0.48325   0.693199
 C 0.90202 0.0137 0.49091   -0.122657
 C 0.9331 0.96066 0.53445   -0.034392
 C 0.97032 0.05301 0.45624   -0.062474
 C 0.6219 0.66075 0.9613   0.19756
 C 0.6369 0.73233 0.9542   -0.149092
 C 0.6428 0.77345 0.0131   0.068123
 C 0.636 0.74242 0.07873   -0.154892
 C 0.6436 0.78393 0.144   0.331042
 C 0.6454 0.74498 0.2147   0.333581
 C 0.63785 0.66708 0.21319   -0.175828
 C 0.6451 0.6277 0.27426   0.069146
 C 0.6402 0.5565 0.27087   -0.138082
 C 0.6275 0.52486 0.20555   0.230689
 C 0.62595 0.63175 0.14964   0.193841
 C 0.6238 0.66904 0.08177   0.201159
 C 0.38653 0.64363 0.20651   0.646909
 C 0.39237 0.69826 0.26367   -0.113004
 C 0.4061 0.7679 0.24803   -0.057774
 C 0.4095 0.81787 0.3008   -0.029139
 C 0.39716 0.79857 0.37028   -0.144501
 C 0.3847 0.72814 0.38625   -0.071949
 C 0.3828 0.67822 0.33307   -0.073195
 C 0.39561 0.85381 0.42726   0.669253
 C 0.20347 0.52763 0.01675   0.690111
 C 0.09798 0.5137 0.00909   -0.12003
 C 0.0669 0.46066 0.96555   -0.035211
 C 0.02968 0.55301 0.04376   -0.064169
 C 0.3781 0.16075 0.5387   0.196445
 C 0.3631 0.23233 0.5458   -0.149386
 C 0.3572 0.27345 0.4869   0.065534
 C 0.364 0.24242 0.42127   -0.155188
 C 0.3564 0.28393 0.356   0.332267
 C 0.3546 0.24498 0.2853   0.334663
 C 0.36215 0.16708 0.28681   -0.1769
 C 0.3549 0.1277 0.22574   0.06945
 C 0.3598 0.0565 0.22913   -0.139786
 C 0.3725 0.02486 0.29445   0.230593
 C 0.37405 0.13175 0.35036   0.193873
 C 0.3762 0.16904 0.41823   0.200049
 C 0.11347 0.14363 0.20651   0.646925
 C 0.10763 0.19826 0.26367   -0.111689
 C 0.0939 0.2679 0.24803   -0.05715
 C 0.0905 0.31787 0.3008   -0.027958
 C 0.10284 0.29857 0.37028   -0.146181
 C 0.1153 0.22814 0.38625   -0.070304
 C 0.1172 0.17822 0.33307   -0.072856
 C 0.10439 0.35381 0.42726   0.669908
 C 0.29653 0.02763 0.01675   0.693211
 C 0.40202 0.0137 0.00909   -0.12271
 C 0.4331 0.96066 0.96555   -0.034255
 C 0.47032 0.05301 0.04376   -0.062316
 C 0.1219 0.66075 0.5387   0.197576
 C 0.1369 0.73233 0.5458   -0.149104
 C 0.1428 0.77345 0.4869   0.06812
 C 0.136 0.74242 0.42127   -0.154896
 C 0.1436 0.78393 0.356   0.331033
 C 0.1454 0.74498 0.2853   0.333571
 C 0.13785 0.66708 0.28681   -0.175835
 C 0.1451 0.6277 0.22574   0.06916
 C 0.1402 0.5565 0.22913   -0.138087
 C 0.1275 0.52486 0.29445   0.230689
 C 0.12595 0.63175 0.35036   0.193844
 C 0.1238 0.66904 0.41823   0.201162
 C 0.88653 0.64363 0.29349   0.646915
 C 0.89237 0.69826 0.23633   -0.113001
 C 0.9061 0.7679 0.25197   -0.057775
 C 0.9095 0.81787 0.1992   -0.029135
 C 0.89716 0.79857 0.12972   -0.144498
 C 0.8847 0.72814 0.11375   -0.071989
 C 0.8828 0.67822 0.16693   -0.073209
 C 0.89561 0.85381 0.07274   0.669254
 C 0.70347 0.52763 0.48325   0.690118
 C 0.59798 0.5137 0.49091   -0.120083
 C 0.5669 0.46066 0.53445   -0.03504
 C 0.52968 0.55301 0.45624   -0.06404
 C 0.8781 0.16075 0.9613   0.196455
 C 0.8631 0.23233 0.9542   -0.1494
 C 0.8572 0.27345 0.0131   0.06553
 C 0.864 0.24242 0.07873   -0.155187
 C 0.8564 0.28393 0.144   0.332264
 C 0.8546 0.24498 0.2147   0.334661
 C 0.86215 0.16708 0.21319   -0.176901
 C 0.8549 0.1277 0.27426   0.069471
 C 0.8598 0.0565 0.27087   -0.139792
 C 0.8725 0.02486 0.20555   0.230593
 C 0.87405 0.13175 0.14964   0.193879
 C 0.8762 0.16904 0.08177   0.200055
 C 0.88653 0.85637 0.79349   0.646909
 C 0.89237 0.80174 0.73633   -0.113007
 C 0.9061 0.7321 0.75197   -0.057766
 C 0.9095 0.68213 0.6992   -0.029138
 C 0.89716 0.70143 0.62972   -0.144491
 C 0.8847 0.77186 0.61375   -0.071969
 C 0.8828 0.82178 0.66693   -0.073226
 C 0.89561 0.64619 0.57274   0.669256
 C 0.70347 0.97237 0.98325   0.69011
 C 0.59798 0.9863 0.99091   -0.120024
 C 0.5669 0.03934 0.03445   -0.035216
 C 0.52968 0.94699 0.95624   -0.064182
 C 0.8781 0.33925 0.4613   0.196449
 C 0.8631 0.26767 0.4542   -0.149388
 C 0.8572 0.22655 0.5131   0.06553
 C 0.864 0.25758 0.57873   -0.155187
 C 0.8564 0.21607 0.644   0.332264
 C 0.8546 0.25502 0.7147   0.334654
 C 0.86215 0.33292 0.71319   -0.176901
 C 0.8549 0.3723 0.77426   0.069431
 C 0.8598 0.4435 0.77087   -0.139785
 C 0.8725 0.47514 0.70555   0.230592
 C 0.87405 0.36825 0.64964   0.193875
 C 0.8762 0.33096 0.58177   0.200055
 C 0.11347 0.35637 0.70651   0.646938
 C 0.10763 0.30174 0.76367   -0.111678
 C 0.0939 0.2321 0.74803   -0.057144
 C 0.0905 0.18213 0.8008   -0.02796
 C 0.10284 0.20143 0.87028   -0.14617
 C 0.1153 0.27186 0.88625   -0.07029
 C 0.1172 0.32178 0.83307   -0.072843
 C 0.10439 0.14619 0.92726   0.66991
 C 0.29653 0.47237 0.51675   0.693197
 C 0.40202 0.4863 0.50909   -0.12265
 C 0.4331 0.53934 0.46555   -0.0344
 C 0.47032 0.44699 0.54376   -0.06249
 C 0.1219 0.83925 0.0387   0.197564
 C 0.1369 0.76767 0.0458   -0.149094
 C 0.1428 0.72655 0.9869   0.068121
 C 0.136 0.75758 0.92127   -0.154896
 C 0.1436 0.71607 0.856   0.331035
 C 0.1454 0.75502 0.7853   0.333565
 C 0.13785 0.83292 0.78681   -0.175831
 C 0.1451 0.8723 0.72574   0.069168
 C 0.1402 0.9435 0.72913   -0.138086
 C 0.1275 0.97514 0.79445   0.23069
 C 0.12595 0.86825 0.85036   0.193845
 C 0.1238 0.83096 0.91823   0.201162
 N 0.38539 0.37097 0.97605   -0.366135
 N 0.37978 0.43882 0.85398   -0.342272
 N 0.61461 0.87097 0.52395   -0.365209
 N 0.62022 0.93882 0.64602   -0.33669
 N 0.61461 0.62903 0.02395   -0.365209
 N 0.62022 0.56118 0.14602   -0.336689
 N 0.38539 0.12903 0.47605   -0.366135
 N 0.37978 0.06118 0.35398   -0.342272
 N 0.11461 0.62903 0.47605   -0.365211
 N 0.12022 0.56118 0.35398   -0.336689
 N 0.88539 0.12903 0.02395   -0.366136
 N 0.87978 0.06118 0.14602   -0.342273
 N 0.88539 0.37097 0.52395   -0.366136
 N 0.87978 0.43882 0.64602   -0.342272
 N 0.11461 0.87097 0.97605   -0.36521
 N 0.12022 0.93882 0.85398   -0.33669
 O 0.3873 0.83215 0.6442   -0.634613
 O 0.38091 0.91885 0.72132   -0.598289
 O 0.40877 0.58352 0.91003   -0.596033
 O 0.38126 0.66794 0.98908   -0.596931
 O 0.25929 0.00745 0.47929   -0.600494
 O 0.22851 0.92591 0.56115   -0.60573
 O 0.3516 0.15199 0.8564   -0.35162
 O 0.3466 0.22156 0.73167   -0.365706
 O 0.44545 0.98064 0.55666   -0.990838
 O 0.6127 0.33215 0.8558   -0.634079
 O 0.61909 0.41885 0.77868   -0.597463
 O 0.59123 0.08352 0.58997   -0.593679
 O 0.61874 0.16794 0.51092   -0.59322
 O 0.74071 0.50745 0.02071   -0.597314
 O 0.77149 0.42591 0.93885   -0.603643
 O 0.6484 0.65199 0.6436   -0.348125
 O 0.6534 0.72156 0.76833   -0.362477
 O 0.55455 0.48064 0.94334   -0.990543
 O 0.6127 0.16785 0.3558   -0.634078
 O 0.61909 0.08115 0.27868   -0.597462
 O 0.59123 0.41648 0.08997   -0.593678
 O 0.61874 0.33206 0.01092   -0.593222
 O 0.74071 0.99255 0.52071   -0.597311
 O 0.77149 0.07409 0.43885   -0.60364
 O 0.6484 0.84801 0.1436   -0.348125
 O 0.6534 0.77844 0.26833   -0.362477
 O 0.55455 0.01936 0.44334   -0.990534
 O 0.3873 0.66785 0.1442   -0.634613
 O 0.38091 0.58115 0.22132   -0.598289
 O 0.40877 0.91648 0.41003   -0.596032
 O 0.38126 0.83206 0.48908   -0.596931
 O 0.25929 0.49255 0.97929   -0.60049
 O 0.22851 0.57409 0.06115   -0.605728
 O 0.3516 0.34801 0.3564   -0.35162
 O 0.3466 0.27844 0.23167   -0.365706
 O 0.44545 0.51936 0.05666   -0.990829
 O 0.1127 0.16785 0.1442   -0.634079
 O 0.11909 0.08115 0.22132   -0.597464
 O 0.09123 0.41648 0.41003   -0.593678
 O 0.11874 0.33206 0.48908   -0.593221
 O 0.24071 0.99255 0.97929   -0.597314
 O 0.27149 0.07409 0.06115   -0.603643
 O 0.1484 0.84801 0.3564   -0.348123
 O 0.1534 0.77844 0.23167   -0.362477
 O 0.05455 0.01936 0.05666   -0.990545
 O 0.8873 0.66785 0.3558   -0.634613
 O 0.88091 0.58115 0.27868   -0.59829
 O 0.90877 0.91648 0.08997   -0.596033
 O 0.88126 0.83206 0.01092   -0.596931
 O 0.75929 0.49255 0.52071   -0.600494
 O 0.72851 0.57409 0.43885   -0.60573
 O 0.8516 0.34801 0.1436   -0.351619
 O 0.8466 0.27844 0.26833   -0.365706
 O 0.94545 0.51936 0.44334   -0.990835
 O 0.8873 0.83215 0.8558   -0.634613
 O 0.88091 0.91885 0.77868   -0.598289
 O 0.90877 0.58352 0.58997   -0.596031
 O 0.88126 0.66794 0.51092   -0.596931
 O 0.75929 0.00745 0.02071   -0.60049
 O 0.72851 0.92591 0.93885   -0.605728
 O 0.8516 0.15199 0.6436   -0.351619
 O 0.8466 0.22156 0.76833   -0.365705
 O 0.94545 0.98064 0.94334   -0.990831
 O 0.1127 0.33215 0.6442   -0.63408
 O 0.11909 0.41885 0.72132   -0.597465
 O 0.09123 0.08352 0.91003   -0.593678
 O 0.11874 0.16794 0.98908   -0.593222
 O 0.24071 0.50745 0.47929   -0.597311
 O 0.27149 0.42591 0.56115   -0.60364
 O 0.1484 0.65199 0.8564   -0.348123
 O 0.1534 0.72156 0.73167   -0.362476
 O 0.05455 0.48064 0.55666   -0.990532
