{'_ref': 'TBD', '_srcid': 'CAKYAQ_clean', 'submitters': [{'name': 'Dalar Nazarian Jeff Camp and David Sholl', 'email': 'dalar@gatech.edu jcamp6@gatech.edu'}], '_method': 'VASP DFT with PBE;DDEC'}
data_Mn3Zn6H66C104(NO10)4
_symmetry_space_group_name_H-M   'P 1'
_cell_length_a   10.42600048
_cell_length_b   14.96200018
_cell_length_c   21.10200000
_cell_angle_alpha   100.01000111
_cell_angle_beta   93.53999949
_cell_angle_gamma   106.89999962
_symmetry_Int_Tables_number   1
_chemical_formula_structural   Mn3Zn6H66C104(NO10)4
_chemical_formula_sum   'Mn3 Zn6 H66 C104 N4 O40'
_cell_volume   3079.57801281
_cell_formula_units_Z   1
loop_
 _symmetry_equiv_pos_site_id
 _symmetry_equiv_pos_as_xyz
  1  'x, y, z'
loop_
 _atom_site_label
 _atom_site_fract_x
 _atom_site_fract_y
 _atom_site_fract_z
 _atom_site_charge
 Mn 0.23651 0.98779 0.19775   1.237965
 Mn 0.76349 0.01221 0.80225   1.237965
 Mn 0.0 0.5 0.5   1.229413
 Zn 0.41566 0.98487 0.73794   0.945525
 Zn 0.1731 0.32334 0.50299   0.941151
 Zn 0.99104 0.9488 0.06398   1.030601
 Zn 0.58434 0.01513 0.26206   0.945525
 Zn 0.8269 0.67666 0.49701   0.941151
 Zn 0.00896 0.0512 0.93602   1.030601
 H 0.8632 0.163 0.6257   0.089256
 H 0.088 0.199 0.3044   0.090715
 H 0.3107 0.0408 0.9284   0.099512
 H 0.4888 0.1476 0.1109   0.107029
 H 0.3689 0.6428 0.145   0.444103
 H 0.882 0.387 0.303   0.095174
 H 0.6919 0.2093 0.0716   0.10979
 H 0.6795 0.7587 0.1538   0.100296
 H 0.2911 0.208 0.4036   0.077462
 H 0.709 0.1754 0.9619   0.101115
 H 0.8531 0.1891 0.1443   0.083073
 H 0.0205 0.7412 0.2399   0.095489
 H 0.2253 0.857 0.6281   0.086796
 H 0.8207 0.4154 0.607   0.099343
 H 0.8954 0.6299 0.2935   0.110037
 H 0.579 0.2538 0.7121   0.085766
 H 0.9547 0.064 0.5413   0.091143
 H 0.8863 0.9534 0.5259   0.080431
 H 0.6173 0.0768 0.5197   0.0911
 H 0.5585 0.0321 0.4472   0.086579
 H 0.0766 0.8659 0.5471   0.126462
 H 0.4205 0.1082 0.3976   0.134488
 H 0.7888 0.3151 0.1977   0.108771
 H 0.4407 0.1334 0.589   0.132085
 H 0.2212 0.0983 0.7271   0.058039
 H 0.0768 0.1162 0.6486   0.127603
 H 0.6532 0.3953 0.6744   0.114306
 H 0.32 0.2409 0.5905   0.074298
 H 0.6655 0.5771 0.273   0.094228
 H 0.3417 0.6981 0.6325   0.093261
 H 0.5244 0.4941 0.6154   0.094429
 H 0.6884 0.5872 0.6975   0.113657
 H 0.6847 0.7374 0.7445   0.098192
 H 0.1368 0.837 0.3743   0.089256
 H 0.912 0.801 0.6956   0.090715
 H 0.6893 0.9592 0.0716   0.099512
 H 0.5112 0.8524 0.8891   0.107029
 H 0.6311 0.3572 0.855   0.444101
 H 0.118 0.613 0.697   0.095174
 H 0.3081 0.7907 0.9284   0.10979
 H 0.3205 0.2413 0.8462   0.100296
 H 0.7089 0.792 0.5964   0.077462
 H 0.291 0.8246 0.0381   0.101113
 H 0.1469 0.8109 0.8557   0.083073
 H 0.9795 0.2588 0.7601   0.095489
 H 0.7747 0.143 0.3719   0.086796
 H 0.1793 0.5846 0.393   0.099343
 H 0.1046 0.3701 0.7065   0.110037
 H 0.421 0.7462 0.2879   0.085766
 H 0.0453 0.936 0.4587   0.091143
 H 0.1137 0.0466 0.4741   0.080431
 H 0.3827 0.9232 0.4803   0.0911
 H 0.4415 0.9679 0.5528   0.086579
 H 0.9234 0.1341 0.4529   0.126462
 H 0.5795 0.8918 0.6024   0.134488
 H 0.2112 0.6849 0.8023   0.108771
 H 0.5593 0.8666 0.411   0.132085
 H 0.7788 0.9017 0.2729   0.058039
 H 0.9232 0.8838 0.3514   0.127603
 H 0.3468 0.6047 0.3256   0.114306
 H 0.68 0.7591 0.4095   0.074298
 H 0.3345 0.4229 0.727   0.094228
 H 0.6583 0.3019 0.3675   0.093261
 H 0.4756 0.5059 0.3846   0.094429
 H 0.3116 0.4128 0.3025   0.113657
 H 0.3153 0.2626 0.2555   0.098192
 C 0.3786 0.088 0.0223   -0.187632
 C 0.0208 0.1002 0.1835   0.711285
 C 0.8183 0.2085 0.634   -0.013078
 C 0.0299 0.2232 0.2824   0.010427
 C 0.248 0.0448 0.0461   0.733884
 C 0.3879 0.0728 0.9574   0.024518
 C 0.5218 0.0746 0.8623   0.691062
 C 0.0506 0.3459 0.3835   0.70878
 C 0.9951 0.3017 0.3139   -0.183354
 C 0.7134 0.1937 0.6714   -0.150737
 C 0.4941 0.1381 0.0665   -0.001811
 C 0.5129 0.1049 0.9337   -0.165349
 C 0.9787 0.1818 0.219   -0.165977
 C 0.8623 0.7608 0.1904   -0.156575
 C 0.6624 0.1037 0.6954   0.71763
 C 0.5108 0.8297 0.7244   0.708081
 C 0.3004 0.5222 0.5653   0.7276
 C 0.9416 0.8322 0.1534   0.694842
 C 0.9057 0.3352 0.2819   0.001227
 C 0.6159 0.173 0.043   -0.131324
 C 0.7236 0.7317 0.1811   0.002144
 C 0.3235 0.1945 0.4417   0.186211
 C 0.6257 0.1543 0.9769   -0.006315
 C 0.8883 0.2169 0.1872   -0.007281
 C 0.0616 0.9942 0.5868   0.170955
 C 0.9267 0.7219 0.2328   0.00094
 C 0.4962 0.6273 0.1964   0.640481
 C 0.858 0.291 0.6086   -0.172384
 C 0.1964 0.9108 0.6319   0.178386
 C 0.4115 0.5848 0.616   -0.181831
 C 0.7947 0.3601 0.6236   0.002217
 C 0.6483 0.6627 0.2118   -0.186339
 C 0.8519 0.6546 0.2643   -0.122336
 C 0.6496 0.2634 0.6866   -0.022683
 C 0.9721 0.0032 0.5308   -0.154388
 C 0.4495 0.1129 0.4929   0.16759
 C 0.5344 0.0454 0.4908   -0.157532
 C 0.1068 0.9157 0.5829   -0.211978
 C 0.4009 0.1344 0.4377   -0.214303
 C 0.8506 0.2929 0.2188   -0.137527
 C 0.4147 0.1498 0.5507   -0.233646
 C 0.1943 0.0516 0.6894   0.203168
 C 0.1063 0.0627 0.6426   -0.216472
 C 0.693 0.3474 0.6633   -0.121138
 C 0.339 0.2126 0.5508   0.178542
 C 0.7148 0.6243 0.2529   0.009965
 C 0.411 0.6753 0.6455   0.005
 C 0.52 0.5534 0.6355   -0.003751
 C 0.619 0.6095 0.6839   -0.110653
 C 0.512 0.7322 0.6939   -0.190089
 C 0.616 0.6991 0.7124   -0.003117
 C 0.9686 0.3076 0.5671   0.691967
 C 0.6214 0.912 0.9777   -0.187632
 C 0.9792 0.8998 0.8165   0.711285
 C 0.1817 0.7915 0.366   -0.013079
 C 0.9701 0.7768 0.7176   0.010426
 C 0.752 0.9552 0.9539   0.733884
 C 0.6121 0.9272 0.0426   0.024518
 C 0.4782 0.9254 0.1377   0.691062
 C 0.9494 0.6541 0.6165   0.70878
 C 0.0049 0.6983 0.6861   -0.183355
 C 0.2866 0.8063 0.3286   -0.150737
 C 0.5059 0.8619 0.9335   -0.001811
 C 0.4871 0.8951 0.0663   -0.165349
 C 0.0213 0.8182 0.781   -0.165977
 C 0.1377 0.2392 0.8096   -0.156575
 C 0.3376 0.8963 0.3046   0.71763
 C 0.4892 0.1703 0.2756   0.708081
 C 0.6996 0.4778 0.4347   0.7276
 C 0.0584 0.1678 0.8466   0.694842
 C 0.0943 0.6648 0.7181   0.001227
 C 0.3841 0.827 0.957   -0.131324
 C 0.2764 0.2683 0.8189   0.002144
 C 0.6765 0.8055 0.5583   0.186211
 C 0.3743 0.8457 0.0231   -0.006314
 C 0.1117 0.7831 0.8128   -0.007281
 C 0.9384 0.0058 0.4132   0.170955
 C 0.0733 0.2781 0.7672   0.00094
 C 0.5038 0.3727 0.8036   0.64048
 C 0.142 0.709 0.3914   -0.172384
 C 0.8036 0.0892 0.3681   0.178386
 C 0.5885 0.4152 0.384   -0.181831
 C 0.2053 0.6399 0.3764   0.002217
 C 0.3517 0.3373 0.7882   -0.186339
 C 0.1481 0.3454 0.7357   -0.122336
 C 0.3504 0.7366 0.3134   -0.022683
 C 0.0279 0.9968 0.4692   -0.154388
 C 0.5505 0.8871 0.5071   0.16759
 C 0.4656 0.9546 0.5092   -0.157531
 C 0.8932 0.0843 0.4171   -0.211978
 C 0.5991 0.8656 0.5623   -0.214303
 C 0.1494 0.7071 0.7812   -0.137527
 C 0.5853 0.8502 0.4493   -0.233646
 C 0.8057 0.9484 0.3106   0.203168
 C 0.8937 0.9373 0.3574   -0.216472
 C 0.307 0.6526 0.3367   -0.121138
 C 0.661 0.7874 0.4492   0.178542
 C 0.2852 0.3757 0.7471   0.009965
 C 0.589 0.3247 0.3545   0.005
 C 0.48 0.4466 0.3645   -0.003751
 C 0.381 0.3905 0.3161   -0.110653
 C 0.488 0.2678 0.3061   -0.190089
 C 0.384 0.3009 0.2876   -0.003117
 C 0.0314 0.6924 0.4329   0.691967
 N 0.2922 0.2345 0.4975   -0.343298
 N 0.2434 0.9793 0.6843   -0.359247
 N 0.7078 0.7655 0.5025   -0.343298
 N 0.7566 0.0207 0.3157   -0.359247
 O 0.1398 0.0233 0.0075   -0.632681
 O 0.0924 0.0651 0.2154   -0.632445
 O 0.9818 0.0736 0.1231   -0.621139
 O 0.2424 0.0272 0.1012   -0.611702
 O 0.1082 0.2974 0.4124   -0.624528
 O 0.4157 0.856 0.7042   -0.602559
 O 0.5352 0.076 0.6959   -0.634994
 O 0.0361 0.4235 0.4082   -0.619873
 O 0.7417 0.0612 0.7117   -0.622148
 O 0.4106 0.0305 0.8274   -0.58182
 O 0.6036 0.8802 0.7679   -0.653437
 O 0.9891 0.3749 0.537   -0.638949
 O 0.2134 0.5534 0.5433   -0.618513
 O 0.3033 0.4367 0.5506   -0.635622
 O 0.8742 0.8566 0.1125   -0.568893
 O 0.0673 0.8604 0.1643   -0.640896
 O 0.4479 0.6729 0.1586   -0.521226
 O 0.4297 0.5604 0.2184   -0.53109
 O 0.6349 0.0937 0.8426   -0.631467
 O 0.0407 0.2529 0.5605   -0.594753
 O 0.8602 0.9767 0.9925   -0.632681
 O 0.9076 0.9349 0.7846   -0.632445
 O 0.0182 0.9264 0.8769   -0.621139
 O 0.7576 0.9728 0.8988   -0.611702
 O 0.8918 0.7026 0.5876   -0.624528
 O 0.5843 0.144 0.2958   -0.602559
 O 0.4648 0.924 0.3041   -0.634994
 O 0.9639 0.5765 0.5918   -0.619873
 O 0.2583 0.9388 0.2883   -0.622148
 O 0.5894 0.9695 0.1726   -0.58182
 O 0.3964 0.1198 0.2321   -0.653437
 O 0.0109 0.6251 0.463   -0.638949
 O 0.7866 0.4466 0.4567   -0.618513
 O 0.6967 0.5633 0.4494   -0.635622
 O 0.1258 0.1434 0.8875   -0.568893
 O 0.9327 0.1396 0.8357   -0.640896
 O 0.5521 0.3271 0.8414   -0.521225
 O 0.5703 0.4396 0.7816   -0.53109
 O 0.3651 0.9063 0.1574   -0.631467
 O 0.9593 0.7471 0.4395   -0.594753
