{'_ref': 'TBD', '_srcid': 'CAKYAQ_clean', 'submitters': [{'name': 'Dalar Nazarian Jeff Camp and David Sholl', 'email': 'dalar@gatech.edu jcamp6@gatech.edu'}], '_method': 'VASP DFT with PBE;DDEC'}
data_Cu5(CN)6
_symmetry_space_group_name_H-M   'P 1'
_cell_length_a   9.43659961
_cell_length_b   9.43659994
_cell_length_c   16.42400000
_cell_angle_alpha   88.50489779
_cell_angle_beta   88.50489773
_cell_angle_gamma   83.74160254
_symmetry_Int_Tables_number   1
_chemical_formula_structural   Cu5(CN)6
_chemical_formula_sum   'Cu10 C12 N12'
_cell_volume   1452.93864878
_cell_formula_units_Z   2
loop_
 _symmetry_equiv_pos_site_id
 _symmetry_equiv_pos_as_xyz
  1  'x, y, z'
loop_
 _atom_site_label
 _atom_site_fract_x
 _atom_site_fract_y
 _atom_site_fract_z
 _atom_site_charge
 Cu 0.49224 0.13618 0.50256   0.481592
 Cu 0.86382 0.50776 0.99744   0.481592
 Cu 0.50776 0.86382 0.49744   0.481591
 Cu 0.13618 0.49224 0.00256   0.481591
 Cu 0.0 0.0 0.5   0.480775
 Cu 0.0 0.0 0.0   0.480774
 Cu 0.63662 0.36338 0.75   0.289499
 Cu 0.36338 0.63662 0.25   0.289499
 Cu 0.6022 0.3978 0.25   0.290068
 Cu 0.3978 0.6022 0.75   0.290068
 C 0.3166 0.0406 0.5108   -0.05274
 C 0.5715 0.2829 0.6614   -0.050824
 C 0.538 0.3064 0.3399   -0.046147
 C 0.9594 0.6834 0.9892   -0.05274
 C 0.7171 0.4285 0.8386   -0.050824
 C 0.6936 0.462 0.1601   -0.046147
 C 0.6834 0.9594 0.4892   -0.05274
 C 0.4285 0.7171 0.3386   -0.050824
 C 0.462 0.6936 0.6601   -0.046147
 C 0.0406 0.3166 0.0108   -0.05274
 C 0.2829 0.5715 0.1614   -0.050824
 C 0.3064 0.538 0.8399   -0.046147
 N 0.1989 0.0253 0.5134   -0.297391
 N 0.5422 0.2292 0.6034   -0.28254
 N 0.5158 0.2448 0.3983   -0.28212
 N 0.9747 0.8011 0.9866   -0.29739
 N 0.7708 0.4578 0.8966   -0.28254
 N 0.7552 0.4842 0.1017   -0.28212
 N 0.8011 0.9747 0.4866   -0.297391
 N 0.4578 0.7708 0.3966   -0.28254
 N 0.4842 0.7552 0.6017   -0.28212
 N 0.0253 0.1989 0.0134   -0.29739
 N 0.2292 0.5422 0.1034   -0.28254
 N 0.2448 0.5158 0.8983   -0.28212
