{'_ref': 'TBD', '_srcid': 'CAKYAQ_clean', 'submitters': [{'name': 'Dalar Nazarian Jeff Camp and David Sholl', 'email': 'dalar@gatech.edu jcamp6@gatech.edu'}], '_method': 'VASP DFT with PBE;DDEC'}
data_Cu5(CN)6
_symmetry_space_group_name_H-M   'P 1'
_cell_length_a   9.45050042
_cell_length_b   9.45049960
_cell_length_c   16.43670000
_cell_angle_alpha   88.51069974
_cell_angle_beta   88.51069987
_cell_angle_gamma   83.79629861
_symmetry_Int_Tables_number   1
_chemical_formula_structural   Cu5(CN)6
_chemical_formula_sum   'Cu10 C12 N12'
_cell_volume   1458.50719788
_cell_formula_units_Z   2
loop_
 _symmetry_equiv_pos_site_id
 _symmetry_equiv_pos_as_xyz
  1  'x, y, z'
loop_
 _atom_site_label
 _atom_site_fract_x
 _atom_site_fract_y
 _atom_site_fract_z
 _atom_site_charge
 Cu 0.13606 0.49229 0.50266   0.4783
 Cu 0.50771 0.86394 0.99734   0.4783
 Cu 0.86394 0.50771 0.49734   0.4783
 Cu 0.49229 0.13606 0.00266   0.4783
 Cu 0.39772 0.60228 0.25   0.292594
 Cu 0.60228 0.39772 0.75   0.292594
 Cu 0.36382 0.63618 0.75   0.285539
 Cu 0.63618 0.36382 0.25   0.285538
 Cu 0.0 0.0 0.5   0.481291
 Cu 0.0 0.0 0.0   0.481289
 C 0.04076 0.3166 0.51073   -0.050739
 C 0.30552 0.53774 0.34091   -0.048377
 C 0.28171 0.57115 0.66021   -0.047149
 C 0.6834 0.95924 0.98927   -0.050739
 C 0.46226 0.69448 0.15909   -0.048377
 C 0.42885 0.71829 0.83979   -0.047149
 C 0.95924 0.6834 0.48927   -0.050739
 C 0.69448 0.46226 0.65909   -0.048377
 C 0.71829 0.42885 0.33979   -0.047149
 C 0.3166 0.04076 0.01073   -0.050739
 C 0.53774 0.30552 0.84091   -0.048376
 C 0.57115 0.28171 0.16021   -0.047149
 N 0.02604 0.19884 0.51328   -0.300465
 N 0.24326 0.51612 0.39964   -0.280219
 N 0.22839 0.54171 0.60249   -0.281063
 N 0.80116 0.97396 0.98672   -0.300465
 N 0.48388 0.75674 0.10036   -0.280219
 N 0.45829 0.77161 0.89751   -0.281063
 N 0.97396 0.80116 0.48672   -0.300465
 N 0.75674 0.48388 0.60036   -0.280219
 N 0.77161 0.45829 0.39751   -0.281063
 N 0.19884 0.02604 0.01328   -0.300465
 N 0.51612 0.24326 0.89964   -0.280219
 N 0.54171 0.22839 0.10249   -0.281063
