{'_ref': 'TBD', '_srcid': 'CAKYAQ_clean', 'submitters': [{'name': 'Dalar Nazarian Jeff Camp and David Sholl', 'email': 'dalar@gatech.edu jcamp6@gatech.edu'}], '_method': 'VASP DFT with PBE;DDEC'}
data_GaH4C8O5
_symmetry_space_group_name_H-M   'P 1'
_cell_length_a   6.74748272
_cell_length_b   11.15010444
_cell_length_c   11.15009975
_cell_angle_alpha   102.87361543
_cell_angle_beta   107.61218597
_cell_angle_gamma   107.61224886
_symmetry_Int_Tables_number   1
_chemical_formula_structural   GaH4C8O5
_chemical_formula_sum   'Ga2 H8 C16 O10'
_cell_volume   715.000529312
_cell_formula_units_Z   2
loop_
 _symmetry_equiv_pos_site_id
 _symmetry_equiv_pos_as_xyz
  1  'x, y, z'
loop_
 _atom_site_label
 _atom_site_fract_x
 _atom_site_fract_y
 _atom_site_fract_z
 _atom_site_charge
 Ga 0.0 0.0 0.0   1.454119
 Ga 0.5 0.0 0.0   1.453931
 H 0.2328 0.987 0.6108   0.117053
 H 0.1057 0.9683 0.3725   0.119683
 H 0.865 0.6108 0.987   0.118704
 H 0.7351 0.3725 0.9683   0.120506
 H 0.7672 0.013 0.3892   0.132181
 H 0.8943 0.0317 0.6275   0.119712
 H 0.135 0.3892 0.013   0.133134
 H 0.2649 0.6275 0.0317   0.121125
 C 0.3363 0.97383 0.55637   -0.055212
 C 0.2721 0.97345 0.42555   -0.065349
 C 0.6939 0.55637 0.97383   -0.055181
 C 0.6269 0.42555 0.97345   -0.069829
 C 0.6637 0.02617 0.44363   -0.090354
 C 0.7279 0.02655 0.57445   -0.072967
 C 0.3061 0.44363 0.02617   -0.090281
 C 0.3731 0.57445 0.02655   -0.076971
 C 0.5414 0.96326 0.61954   -0.083062
 C 0.61 0.96093 0.75907   0.668882
 C 0.4212 0.97902 0.36338   -0.076038
 C 0.3608 0.99318 0.22842   0.648594
 C 0.5414 0.61954 0.96326   -0.079228
 C 0.61 0.75907 0.96093   0.66472
 C 0.4212 0.36338 0.97902   -0.073358
 C 0.3608 0.22842 0.99318   0.639755
 O 0.80284 0.95952 0.81216   -0.556877
 O 0.506 0.99911 0.17809   -0.525676
 O 0.46884 0.81216 0.95952   -0.563378
 O 0.1712 0.17809 0.99911   -0.533824
 O 0.19716 0.04048 0.18784   -0.574871
 O 0.494 0.000889999999998 0.82191   -0.565799
 O 0.53116 0.18784 0.04048   -0.578965
 O 0.8288 0.82191 0.000889999999998   -0.579904
 O 0.8234 0.0798 0.067   -0.550629
 O 0.1766 0.9202 0.933   -0.594344
