{'_ref': 'TBD', '_srcid': 'CAKYAQ_clean', 'submitters': [{'name': 'Dalar Nazarian Jeff Camp and David Sholl', 'email': 'dalar@gatech.edu jcamp6@gatech.edu'}], '_method': 'VASP DFT with PBE;DDEC'}
data_LaPH3C3O8
_symmetry_space_group_name_H-M   'P 1'
_cell_length_a   7.19910000
_cell_length_b   10.29259969
_cell_length_c   13.38380000
_cell_angle_alpha   90.00000000
_cell_angle_beta   90.00000000
_cell_angle_gamma   98.89799933
_symmetry_Int_Tables_number   1
_chemical_formula_structural   LaPH3C3O8
_chemical_formula_sum   'La4 P4 H12 C12 O32'
_cell_volume   979.77059946
_cell_formula_units_Z   4
loop_
 _symmetry_equiv_pos_site_id
 _symmetry_equiv_pos_as_xyz
  1  'x, y, z'
loop_
 _atom_site_label
 _atom_site_fract_x
 _atom_site_fract_y
 _atom_site_fract_z
 _atom_site_charge
 La 0.15928 0.28238 0.90594   2.188306
 La 0.84072 0.21762 0.40594   2.188305
 La 0.84072 0.71762 0.09406   2.188305
 La 0.15928 0.78238 0.59406   2.188304
 P 0.78502 0.0736 0.05193   1.540591
 P 0.21498 0.4264 0.55193   1.540591
 P 0.21498 0.9264 0.94807   1.540592
 P 0.78502 0.5736 0.44807   1.540592
 H 0.59 0.1928 0.0491   0.418128
 H 0.8735 0.0018 0.2559   0.408676
 H 0.0602 0.0871 0.1481   0.190378
 H 0.41 0.3072 0.5491   0.418128
 H 0.1265 0.4982 0.7559   0.408676
 H 0.9398 0.4129 0.6481   0.190378
 H 0.41 0.8072 0.9509   0.418128
 H 0.1265 0.9982 0.7441   0.408676
 H 0.9398 0.9129 0.8519   0.190378
 H 0.59 0.6928 0.4509   0.418128
 H 0.8735 0.5018 0.2441   0.408676
 H 0.0602 0.5871 0.3519   0.190378
 C 0.9454 0.1263 0.156   -0.388223
 C 0.9974 0.2745 0.1629   0.798241
 C 0.4535 0.5548 0.974   0.559142
 C 0.0546 0.3737 0.656   -0.388223
 C 0.0026 0.2255 0.6629   0.798241
 C 0.5465 0.9452 0.474   0.559142
 C 0.0546 0.8737 0.844   -0.388223
 C 0.0026 0.7255 0.8371   0.798241
 C 0.5465 0.4452 0.026   0.559143
 C 0.9454 0.6263 0.344   -0.388223
 C 0.9974 0.7745 0.3371   0.798241
 C 0.4535 0.0548 0.526   0.559143
 O 0.6022 0.1292 0.084   -0.68313
 O 0.8647 0.1315 0.95524   -0.910349
 O 0.7431 0.9268 0.05794   -0.894946
 O 0.8504 0.076 0.24478   -0.578661
 O 0.0787 0.3327 0.08891   -0.715209
 O 0.9597 0.3303 0.24278   -0.6816
 O 0.3099 0.5207 0.92353   -0.633293
 O 0.5326 0.6708 0.99015   -0.618051
 O 0.3978 0.3708 0.584   -0.68313
 O 0.1353 0.3685 0.45524   -0.910349
 O 0.2569 0.5732 0.55794   -0.894946
 O 0.1496 0.424 0.74478   -0.578661
 O 0.9213 0.1673 0.58891   -0.715209
 O 0.0403 0.1697 0.74278   -0.6816
 O 0.6901 0.9793 0.42353   -0.633293
 O 0.4674 0.8292 0.49015   -0.618051
 O 0.3978 0.8708 0.916   -0.683129
 O 0.1353 0.8685 0.04476   -0.910349
 O 0.2569 0.0732 0.94206   -0.894946
 O 0.1496 0.924 0.75522   -0.578661
 O 0.9213 0.6673 0.91109   -0.715209
 O 0.0403 0.6697 0.75722   -0.6816
 O 0.6901 0.4793 0.07647   -0.633293
 O 0.4674 0.3292 0.00985   -0.618051
 O 0.6022 0.6292 0.416   -0.683129
 O 0.8647 0.6315 0.54476   -0.910349
 O 0.7431 0.4268 0.44206   -0.894946
 O 0.8504 0.576 0.25522   -0.578661
 O 0.0787 0.8327 0.41109   -0.715209
 O 0.9597 0.8303 0.25722   -0.6816
 O 0.3099 0.0207 0.57647   -0.633293
 O 0.5326 0.1708 0.50985   -0.618051
