{'_ref': 'TBD', '_srcid': 'CAKYAQ_clean', 'submitters': [{'name': 'Dalar Nazarian Jeff Camp and David Sholl', 'email': 'dalar@gatech.edu jcamp6@gatech.edu'}], '_method': 'VASP DFT with PBE;DDEC'}
data_SmPH3C3O8
_symmetry_space_group_name_H-M   'P 1'
_cell_length_a   7.23510000
_cell_length_b   10.19990021
_cell_length_c   13.05500000
_cell_angle_alpha   90.00000000
_cell_angle_beta   90.00000000
_cell_angle_gamma   100.42700178
_symmetry_Int_Tables_number   1
_chemical_formula_structural   SmPH3C3O8
_chemical_formula_sum   'Sm4 P4 H12 C12 O32'
_cell_volume   947.514024
_cell_formula_units_Z   4
loop_
 _symmetry_equiv_pos_site_id
 _symmetry_equiv_pos_as_xyz
  1  'x, y, z'
loop_
 _atom_site_label
 _atom_site_fract_x
 _atom_site_fract_y
 _atom_site_fract_z
 _atom_site_charge
 Sm 0.16364 0.28216 0.90595   2.300453
 Sm 0.83636 0.21784 0.40595   2.300452
 Sm 0.83636 0.71784 0.09405   2.300448
 Sm 0.16364 0.78216 0.59405   2.300448
 P 0.78841 0.06941 0.0491   1.5798
 P 0.21159 0.43059 0.5491   1.5798
 P 0.21159 0.93059 0.9509   1.579801
 P 0.78841 0.56941 0.4509   1.5798
 H 0.593 0.1861 0.0441   0.427278
 H 0.8659 0.9993 0.2601   0.420773
 H 0.0573 0.0851 0.1507   0.194865
 H 0.407 0.3139 0.5441   0.427278
 H 0.1341 0.5007 0.7601   0.420773
 H 0.9427 0.4149 0.6507   0.194865
 H 0.407 0.8139 0.9559   0.427278
 H 0.1341 0.000700000000002 0.7399   0.420773
 H 0.9427 0.9149 0.8493   0.194865
 H 0.593 0.6861 0.4559   0.427278
 H 0.8659 0.4993 0.2399   0.420773
 H 0.0573 0.5851 0.3493   0.194865
 C 0.9437 0.1243 0.157   -0.392362
 C 0.0 0.2744 0.1638   0.815353
 C 0.4532 0.5549 0.9758   0.571986
 C 0.0563 0.3757 0.657   -0.392362
 C 0.0 0.2256 0.6638   0.815353
 C 0.5468 0.9451 0.4758   0.571986
 C 0.0563 0.8757 0.843   -0.392362
 C 0.0 0.7256 0.8362   0.815353
 C 0.5468 0.4451 0.0242   0.571987
 C 0.9437 0.6243 0.343   -0.392362
 C 0.0 0.7744 0.3362   0.815353
 C 0.4532 0.0549 0.5242   0.571987
 O 0.6037 0.1218 0.0799   -0.686457
 O 0.8717 0.1318 0.9516   -0.943063
 O 0.7465 0.9205 0.0537   -0.936723
 O 0.8446 0.0739 0.2475   -0.617866
 O 0.0813 0.3336 0.0874   -0.732959
 O 0.961 0.3306 0.245   -0.703655
 O 0.3031 0.5183 0.9281   -0.664168
 O 0.534 0.6727 0.9905   -0.633254
 O 0.3963 0.3782 0.5799   -0.686457
 O 0.1283 0.3682 0.4516   -0.943063
 O 0.2535 0.5795 0.5537   -0.936723
 O 0.1554 0.4261 0.7475   -0.617866
 O 0.9187 0.1664 0.5874   -0.732959
 O 0.039 0.1694 0.745   -0.703655
 O 0.6969 0.9817 0.4281   -0.664168
 O 0.466 0.8273 0.4905   -0.633254
 O 0.3963 0.8782 0.9201   -0.686457
 O 0.1283 0.8682 0.0484   -0.943063
 O 0.2535 0.0795 0.9463   -0.936723
 O 0.1554 0.9261 0.7525   -0.617866
 O 0.9187 0.6664 0.9126   -0.732959
 O 0.039 0.6694 0.755   -0.703655
 O 0.6969 0.4817 0.0719   -0.664167
 O 0.466 0.3273 0.0095   -0.633254
 O 0.6037 0.6218 0.4201   -0.686457
 O 0.8717 0.6318 0.5484   -0.943063
 O 0.7465 0.4205 0.4463   -0.936723
 O 0.8446 0.5739 0.2525   -0.617865
 O 0.0813 0.8336 0.4126   -0.732959
 O 0.961 0.8306 0.255   -0.703655
 O 0.3031 0.0183 0.5719   -0.664167
 O 0.534 0.1727 0.5095   -0.633254
