{'_ref': 'TBD', '_srcid': 'CAKYAQ_clean', 'submitters': [{'name': 'Dalar Nazarian Jeff Camp and David Sholl', 'email': 'dalar@gatech.edu jcamp6@gatech.edu'}], '_method': 'VASP DFT with PBE;DDEC'}
data_InH40C24NO8
_symmetry_space_group_name_H-M   'P 1'
_cell_length_a   12.76240000
_cell_length_b   12.76240033
_cell_length_c   17.62910000
_cell_angle_alpha   90.00000000
_cell_angle_beta   90.00000000
_cell_angle_gamma   119.99999913
_symmetry_Int_Tables_number   1
_chemical_formula_structural   InH40C24NO8
_chemical_formula_sum   'In3 H120 C72 N3 O24'
_cell_volume   2486.71201394
_cell_formula_units_Z   3
loop_
 _symmetry_equiv_pos_site_id
 _symmetry_equiv_pos_as_xyz
  1  'x, y, z'
loop_
 _atom_site_label
 _atom_site_fract_x
 _atom_site_fract_y
 _atom_site_fract_z
 _atom_site_charge
 In 0.0 0.37204 0.1667   1.506423
 In 0.62796 0.62796 0.500033   1.506659
 In 0.37204 0.0 0.833367   1.506341
 H 0.5862 0.5636 0.2427   0.098172
 H 0.4364 0.0226 0.576033   0.098518
 H 0.9774 0.4138 0.909367   0.098724
 H 0.5636 0.5862 0.7573   0.098157
 H 0.0226 0.4364 0.423967   0.098594
 H 0.4138 0.9774 0.090633   0.098723
 H 0.5327 0.3709 0.2448   0.074067
 H 0.6291 0.1618 0.578133   0.073714
 H 0.8382 0.4673 0.911467   0.073572
 H 0.3709 0.5327 0.7552   0.074077
 H 0.1618 0.6291 0.421867   0.073717
 H 0.4673 0.8382 0.088533   0.073608
 H 0.4423 0.3412 0.313   0.072596
 H 0.6588 0.1011 0.646333   0.072486
 H 0.8989 0.5577 0.979667   0.072401
 H 0.3412 0.4423 0.687   0.072586
 H 0.1011 0.6588 0.353667   0.072485
 H 0.5577 0.8989 0.020333   0.072439
 H 0.2916 0.2817 0.2342   0.065544
 H 0.7183 0.0099 0.567533   0.065628
 H 0.9901 0.7084 0.900867   0.065357
 H 0.2817 0.2916 0.7658   0.065519
 H 0.0099 0.7183 0.432467   0.065661
 H 0.7084 0.9901 0.099133   0.06538
 H 0.3809 0.3052 0.1663   0.064244
 H 0.6948 0.0757 0.499633   0.064343
 H 0.9243 0.6191 0.832967   0.063884
 H 0.3052 0.3809 0.8337   0.064278
 H 0.0757 0.6948 0.500367   0.064375
 H 0.6191 0.9243 0.167033   0.063869
 H 0.5128 0.5342 0.1175   0.108306
 H 0.4658 0.9786 0.450833   0.108543
 H 0.0214 0.4872 0.784167   0.108765
 H 0.5342 0.5128 0.8825   0.10835
 H 0.9786 0.4658 0.549167   0.108522
 H 0.4872 0.0214 0.215833   0.108753
 H 0.4236 0.5816 0.0989   0.117859
 H 0.4184 0.842 0.432233   0.118079
 H 0.158 0.5764 0.765567   0.118166
 H 0.5816 0.4236 0.9011   0.117835
 H 0.842 0.4184 0.567767   0.11807
 H 0.5764 0.158 0.234433   0.118215
 H 0.3951 0.4537 0.0704   0.098724
 H 0.5463 0.9414 0.403733   0.099031
 H 0.0586 0.6049 0.737067   0.098873
 H 0.4537 0.3951 0.9296   0.098748
 H 0.9414 0.5463 0.596267   0.099029
 H 0.6049 0.0586 0.262933   0.098873
 H 0.2885 0.4254 0.3334   0.112136
 H 0.5746 0.8631 0.666733   0.112084
 H 0.1369 0.7115 6.70000000014e-05   0.112182
 H 0.4254 0.2885 0.6666   0.112167
 H 0.8631 0.5746 0.333267   0.112058
 H 0.7115 0.1369 0.999933   0.112209
 H 0.2565 0.5201 0.3005   0.118686
 H 0.4799 0.7364 0.633833   0.118548
 H 0.2636 0.7435 0.967167   0.11907
 H 0.5201 0.2565 0.6995   0.118741
 H 0.7364 0.4799 0.366167   0.118597
 H 0.7435 0.2636 0.032833   0.119139
 H 0.3598 0.5602 0.3608   0.133171
 H 0.4398 0.7996 0.694133   0.133332
 H 0.2004 0.6402 0.027467   0.133431
 H 0.5602 0.3598 0.6392   0.133122
 H 0.7996 0.4398 0.305867   0.133312
 H 0.6402 0.2004 0.972533   0.133434
 H 0.5189 0.7009 0.1951   0.093803
 H 0.2991 0.818 0.528433   0.093545
 H 0.182 0.4811 0.861767   0.093549
 H 0.7009 0.5189 0.8049   0.09377
 H 0.818 0.2991 0.471567   0.093589
 H 0.4811 0.182 0.138233   0.093548
 H 0.4922 0.7237 0.2784   0.113441
 H 0.2763 0.7685 0.611733   0.11304
 H 0.2315 0.5078 0.945067   0.113093
 H 0.7237 0.4922 0.7216   0.113431
 H 0.7685 0.2763 0.388267   0.113067
 H 0.5078 0.2315 0.054933   0.113055
 H 0.3913 0.6819 0.2162   0.127015
 H 0.3181 0.7094 0.549533   0.126775
 H 0.2906 0.6087 0.882867   0.126911
 H 0.6819 0.3913 0.7838   0.127059
 H 0.7094 0.3181 0.450467   0.126802
 H 0.6087 0.2906 0.117133   0.126913
 H 0.0883 0.145 0.3355   0.146687
 H 0.855 0.9433 0.668833   0.146943
 H 0.0567 0.9117 0.002167   0.147069
 H 0.145 0.0883 0.6645   0.146624
 H 0.9433 0.855 0.331167   0.146819
 H 0.9117 0.0567 0.997833   0.14693
 H 0.0154 0.1361 0.2618   0.159205
 H 0.8639 0.8793 0.595133   0.159298
 H 0.1207 0.9846 0.928467   0.159467
 H 0.1361 0.0154 0.7382   0.159251
 H 0.8793 0.8639 0.404867   0.159285
 H 0.9846 0.1207 0.071533   0.159535
 H 0.0722 0.0528 0.2716   0.128974
 H 0.9472 0.0194 0.604933   0.128807
 H 0.9806 0.9278 0.938267   0.12907
 H 0.0528 0.0722 0.7284   0.128972
 H 0.0194 0.9472 0.395067   0.128851
 H 0.9278 0.9806 0.061733   0.129078
 H 0.7557 0.8757 0.2997   0.153977
 H 0.1243 0.88 0.633033   0.154174
 H 0.12 0.2443 0.966367   0.154406
 H 0.8757 0.7557 0.7003   0.153952
 H 0.88 0.1243 0.366967   0.154121
 H 0.2443 0.12 0.033633   0.154322
 H 0.8545 0.9003 0.2384   0.136676
 H 0.0997 0.9542 0.571733   0.136161
 H 0.0458 0.1455 0.905067   0.136378
 H 0.9003 0.8545 0.7616   0.136724
 H 0.9542 0.0997 0.428267   0.136281
 H 0.1455 0.0458 0.094933   0.136413
 H 0.8113 0.9944 0.2511   0.138262
 H 0.0056 0.8169 0.584433   0.138487
 H 0.1831 0.1887 0.917767   0.138708
 H 0.9944 0.8113 0.7489   0.13832
 H 0.8169 0.0056 0.415567   0.138555
 H 0.1887 0.1831 0.082233   0.138734
 C 0.3575 0.4524 0.187   -0.042303
 C 0.5476 0.9051 0.520333   -0.04168
 C 0.0949 0.6425 0.853667   -0.042049
 C 0.4524 0.3575 0.813   -0.0423
 C 0.9051 0.5476 0.479667   -0.041693
 C 0.6425 0.0949 0.146333   -0.042013
 C 0.4135 0.5383 0.2543   0.193363
 C 0.4617 0.8752 0.587633   0.192582
 C 0.1248 0.5865 0.920967   0.192578
 C 0.5383 0.4135 0.7457   0.193347
 C 0.8752 0.4617 0.412367   0.192606
 C 0.5865 0.1248 0.079033   0.192535
 C 0.5186 0.5184 0.2777   -0.222166
 C 0.4816 0.0002 0.611033   -0.222979
 C 0.9998 0.4814 0.944367   -0.223512
 C 0.5184 0.5186 0.7223   -0.22219
 C 0.0002 0.4816 0.388967   -0.222971
 C 0.4814 0.9998 0.055633   -0.2235
 C 0.47 0.3846 0.2654   -0.094683
 C 0.6154 0.0854 0.598733   -0.093771
 C 0.9146 0.53 0.932067   -0.09355
 C 0.3846 0.47 0.7346   -0.094677
 C 0.0854 0.6154 0.401267   -0.093754
 C 0.53 0.9146 0.067933   -0.093593
 C 0.3664 0.3416 0.2104   -0.150562
 C 0.6584 0.0248 0.543733   -0.151121
 C 0.9752 0.6336 0.877067   -0.149921
 C 0.3416 0.3664 0.7896   -0.1506
 C 0.0248 0.6584 0.456267   -0.151133
 C 0.6336 0.9752 0.122933   -0.149884
 C 0.4293 0.5113 0.1109   -0.327615
 C 0.4887 0.918 0.444233   -0.328413
 C 0.082 0.5707 0.777567   -0.328456
 C 0.5113 0.4293 0.8891   -0.327623
 C 0.918 0.4887 0.555767   -0.328423
 C 0.5707 0.082 0.222433   -0.328477
 C 0.3209 0.5082 0.3182   -0.399873
 C 0.4918 0.8127 0.651533   -0.399464
 C 0.1873 0.6791 0.984867   -0.400451
 C 0.5082 0.3209 0.6818   -0.39985
 C 0.8127 0.4918 0.348467   -0.399449
 C 0.6791 0.1873 0.015133   -0.40052
 C 0.4584 0.6745 0.234   -0.388768
 C 0.3255 0.7839 0.567333   -0.387786
 C 0.2161 0.5416 0.900667   -0.387762
 C 0.6745 0.4584 0.766   -0.388728
 C 0.7839 0.3255 0.432667   -0.387855
 C 0.5416 0.2161 0.099333   -0.38775
 C 0.2259 0.4199 0.1726   0.630287
 C 0.5801 0.806 0.505933   0.630224
 C 0.194 0.7741 0.839267   0.630453
 C 0.4199 0.2259 0.8274   0.630274
 C 0.806 0.5801 0.494067   0.630234
 C 0.7741 0.194 0.160733   0.630465
 C 0.5631 0.5616 0.3586   0.661199
 C 0.4384 0.0015 0.691933   0.660973
 C 0.9985 0.4369 0.025267   0.661437
 C 0.5616 0.5631 0.6414   0.661119
 C 0.0015 0.4384 0.308067   0.660872
 C 0.4369 0.9985 0.974733   0.661359
 C 0.0343 0.0911 0.2975   -0.323028
 C 0.9089 0.9432 0.630833   -0.323265
 C 0.0568 0.9657 0.964167   -0.324136
 C 0.0911 0.0343 0.7025   -0.322933
 C 0.9432 0.9089 0.369167   -0.323027
 C 0.9657 0.0568 0.035833   -0.323954
 C 0.828 0.937 0.2755   -0.291864
 C 0.063 0.891 0.608833   -0.291781
 C 0.109 0.172 0.942167   -0.292421
 C 0.937 0.828 0.7245   -0.292052
 C 0.891 0.063 0.391167   -0.291916
 C 0.172 0.109 0.057833   -0.292403
 N 0.9242 0.0 0.3333   0.373734
 N 0.0 0.9242 0.666633   0.373915
 N 0.0758 0.0758 0.999967   0.374355
 O 0.2057 0.5026 0.1548   -0.587578
 O 0.4974 0.7031 0.488133   -0.587759
 O 0.2969 0.7943 0.821467   -0.587514
 O 0.5026 0.2057 0.8452   -0.587559
 O 0.7031 0.4974 0.511867   -0.587745
 O 0.7943 0.2969 0.178533   -0.587578
 O 0.5161 0.4936 0.4142   -0.579383
 O 0.5064 0.0225 0.747533   -0.579161
 O 0.9775 0.4839 0.080867   -0.579405
 O 0.4936 0.5161 0.5858   -0.579168
 O 0.0225 0.5064 0.252467   -0.579064
 O 0.4839 0.9775 0.919133   -0.579197
 O 0.1411 0.3153 0.18   -0.627134
 O 0.6847 0.8258 0.513333   -0.627091
 O 0.1742 0.8589 0.846667   -0.627237
 O 0.3153 0.1411 0.82   -0.627137
 O 0.8258 0.6847 0.486667   -0.627072
 O 0.8589 0.1742 0.153333   -0.627241
 O 0.6477 0.6696 0.3677   -0.651728
 O 0.3304 0.9781 0.701033   -0.651564
 O 0.0219 0.3523 0.034367   -0.651677
 O 0.6696 0.6477 0.6323   -0.651523
 O 0.9781 0.3304 0.298967   -0.651427
 O 0.3523 0.0219 0.965633   -0.651541
