{'_ref': 'TBD', '_srcid': 'CAKYAQ_clean', 'submitters': [{'name': 'Dalar Nazarian Jeff Camp and David Sholl', 'email': 'dalar@gatech.edu jcamp6@gatech.edu'}], '_method': 'VASP DFT with PBE;DDEC'}
data_CuH2(C3O2)2
_symmetry_space_group_name_H-M   'P 1'
_cell_length_a   18.57730023
_cell_length_b   18.57730018
_cell_length_c   18.57730000
_cell_angle_alpha   60.00000031
_cell_angle_beta   60.00000041
_cell_angle_gamma   59.99999915
_symmetry_Int_Tables_number   1
_chemical_formula_structural   CuH2(C3O2)2
_chemical_formula_sum   'Cu12 H24 C72 O48'
_cell_volume   4533.49138387
_cell_formula_units_Z   12
loop_
 _symmetry_equiv_pos_site_id
 _symmetry_equiv_pos_as_xyz
  1  'x, y, z'
loop_
 _atom_site_label
 _atom_site_fract_x
 _atom_site_fract_y
 _atom_site_fract_z
 _atom_site_charge
 Cu 0.43264 0.56736 0.0   0.932605
 Cu 0.56736 0.43264 0.0   0.932605
 Cu 0.0 0.0 0.43264   0.932605
 Cu 0.0 0.0 0.56736   0.932605
 Cu 0.43264 0.0 0.0   0.932604
 Cu 0.56736 0.0 0.0   0.932604
 Cu 0.0 0.43264 0.56736   0.932605
 Cu 0.0 0.56736 0.43264   0.932605
 Cu 0.43264 0.0 0.56736   0.932605
 Cu 0.56736 0.0 0.43264   0.932605
 Cu 0.0 0.56736 0.0   0.932604
 Cu 0.0 0.43264 0.0   0.932605
 H 0.487 0.2714 0.9702   0.113485
 H 0.2714 0.487 0.2714   0.113485
 H 0.9702 0.2714 0.487   0.113485
 H 0.2714 0.9702 0.2714   0.113484
 H 0.487 0.9702 0.2714   0.113485
 H 0.2714 0.2714 0.9702   0.113484
 H 0.9702 0.487 0.2714   0.113485
 H 0.2714 0.2714 0.487   0.113485
 H 0.487 0.2714 0.2714   0.113485
 H 0.2714 0.9702 0.487   0.113485
 H 0.9702 0.2714 0.2714   0.113484
 H 0.2714 0.487 0.9702   0.113485
 H 0.7286 0.513 0.0298   0.113484
 H 0.513 0.7286 0.7286   0.113485
 H 0.7286 0.0298 0.513   0.113484
 H 0.0298 0.7286 0.7286   0.113484
 H 0.0298 0.513 0.7286   0.113485
 H 0.7286 0.7286 0.0298   0.113484
 H 0.513 0.0298 0.7286   0.113485
 H 0.7286 0.7286 0.513   0.113485
 H 0.7286 0.513 0.7286   0.113485
 H 0.0298 0.7286 0.513   0.113485
 H 0.7286 0.0298 0.7286   0.113484
 H 0.513 0.7286 0.0298   0.113485
 C 0.38628 0.38628 0.97092   -0.169508
 C 0.43082 0.43082 0.97566   0.68177
 C 0.38628 0.38628 0.25652   -0.169507
 C 0.43082 0.43082 0.1627   0.681769
 C 0.97092 0.25652 0.38628   -0.169508
 C 0.97566 0.1627 0.43082   0.681769
 C 0.25652 0.97092 0.38628   -0.169508
 C 0.1627 0.97566 0.43082   0.681769
 C 0.38628 0.97092 0.25652   -0.169508
 C 0.43082 0.97566 0.1627   0.681769
 C 0.38628 0.25652 0.97092   -0.169508
 C 0.43082 0.1627 0.97566   0.681769
 C 0.97092 0.38628 0.38628   -0.169508
 C 0.97566 0.43082 0.43082   0.68177
 C 0.25652 0.38628 0.38628   -0.169508
 C 0.1627 0.43082 0.43082   0.681769
 C 0.38628 0.25652 0.38628   -0.169508
 C 0.43082 0.1627 0.43082   0.681769
 C 0.38628 0.97092 0.38628   -0.169508
 C 0.43082 0.97566 0.43082   0.68177
 C 0.97092 0.38628 0.25652   -0.169508
 C 0.97566 0.43082 0.1627   0.681769
 C 0.25652 0.38628 0.97092   -0.169508
 C 0.1627 0.43082 0.97566   0.681769
 C 0.61372 0.61372 0.02908   -0.169508
 C 0.56918 0.56918 0.02434   0.681769
 C 0.61372 0.61372 0.74348   -0.169507
 C 0.56918 0.56918 0.8373   0.681769
 C 0.74348 0.02908 0.61372   -0.169508
 C 0.8373 0.02434 0.56918   0.681769
 C 0.02908 0.74348 0.61372   -0.169508
 C 0.02434 0.8373 0.56918   0.681769
 C 0.02908 0.61372 0.74348   -0.169508
 C 0.02434 0.56918 0.8373   0.681769
 C 0.74348 0.61372 0.02908   -0.169508
 C 0.8373 0.56918 0.02434   0.681769
 C 0.61372 0.02908 0.61372   -0.169508
 C 0.56918 0.02434 0.56918   0.68177
 C 0.61372 0.74348 0.61372   -0.169507
 C 0.56918 0.8373 0.56918   0.681769
 C 0.74348 0.61372 0.61372   -0.169508
 C 0.8373 0.56918 0.56918   0.681769
 C 0.02908 0.61372 0.61372   -0.169508
 C 0.02434 0.56918 0.56918   0.68177
 C 0.61372 0.02908 0.74348   -0.169508
 C 0.56918 0.02434 0.8373   0.681769
 C 0.61372 0.74348 0.02908   -0.169508
 C 0.56918 0.8373 0.02434   0.681769
 C 0.42918 0.3001 0.97062   0.039335
 C 0.3001 0.42918 0.3001   0.039334
 C 0.97062 0.3001 0.42918   0.039335
 C 0.3001 0.97062 0.3001   0.039335
 C 0.42918 0.97062 0.3001   0.039335
 C 0.3001 0.3001 0.97062   0.039335
 C 0.97062 0.42918 0.3001   0.039335
 C 0.3001 0.3001 0.42918   0.039334
 C 0.42918 0.3001 0.3001   0.039334
 C 0.3001 0.97062 0.42918   0.039335
 C 0.97062 0.3001 0.3001   0.039335
 C 0.3001 0.42918 0.97062   0.039335
 C 0.6999 0.57082 0.02938   0.039335
 C 0.57082 0.6999 0.6999   0.039334
 C 0.6999 0.02938 0.57082   0.039335
 C 0.02938 0.6999 0.6999   0.039335
 C 0.02938 0.57082 0.6999   0.039335
 C 0.6999 0.6999 0.02938   0.039335
 C 0.57082 0.02938 0.6999   0.039335
 C 0.6999 0.6999 0.57082   0.039334
 C 0.6999 0.57082 0.6999   0.039334
 C 0.02938 0.6999 0.57082   0.039335
 C 0.6999 0.02938 0.6999   0.039335
 C 0.57082 0.6999 0.02938   0.039335
 O 0.38773 0.50781 0.97929   -0.565692
 O 0.50781 0.38773 0.12517   -0.565692
 O 0.97929 0.12517 0.38773   -0.565692
 O 0.12517 0.97929 0.50781   -0.565692
 O 0.38773 0.97929 0.12517   -0.565691
 O 0.50781 0.12517 0.97929   -0.565691
 O 0.97929 0.38773 0.50781   -0.565692
 O 0.12517 0.50781 0.38773   -0.565691
 O 0.38773 0.12517 0.50781   -0.565692
 O 0.50781 0.97929 0.38773   -0.565692
 O 0.97929 0.50781 0.12517   -0.565692
 O 0.12517 0.38773 0.97929   -0.565692
 O 0.49219 0.61227 0.02071   -0.565692
 O 0.61227 0.49219 0.87483   -0.565692
 O 0.87483 0.02071 0.61227   -0.565692
 O 0.02071 0.87483 0.49219   -0.565692
 O 0.02071 0.61227 0.87483   -0.565691
 O 0.87483 0.49219 0.02071   -0.565691
 O 0.61227 0.02071 0.49219   -0.565692
 O 0.49219 0.87483 0.61227   -0.565691
 O 0.87483 0.61227 0.49219   -0.565692
 O 0.02071 0.49219 0.61227   -0.565692
 O 0.49219 0.02071 0.87483   -0.565692
 O 0.61227 0.87483 0.02071   -0.565692
 O 0.61227 0.49219 0.02071   -0.565692
 O 0.49219 0.61227 0.87483   -0.565692
 O 0.02071 0.87483 0.61227   -0.565692
 O 0.87483 0.02071 0.49219   -0.565692
 O 0.61227 0.02071 0.87483   -0.565691
 O 0.49219 0.87483 0.02071   -0.565691
 O 0.02071 0.61227 0.49219   -0.565692
 O 0.87483 0.49219 0.61227   -0.565691
 O 0.61227 0.87483 0.49219   -0.565692
 O 0.49219 0.02071 0.61227   -0.565692
 O 0.02071 0.49219 0.87483   -0.565692
 O 0.87483 0.61227 0.02071   -0.565692
 O 0.50781 0.38773 0.97929   -0.565692
 O 0.38773 0.50781 0.12517   -0.565692
 O 0.12517 0.97929 0.38773   -0.565692
 O 0.97929 0.12517 0.50781   -0.565692
 O 0.97929 0.38773 0.12517   -0.565691
 O 0.12517 0.50781 0.97929   -0.565691
 O 0.38773 0.97929 0.50781   -0.565692
 O 0.50781 0.12517 0.38773   -0.565691
 O 0.12517 0.38773 0.50781   -0.565692
 O 0.97929 0.50781 0.38773   -0.565692
 O 0.50781 0.97929 0.12517   -0.565692
 O 0.38773 0.12517 0.97929   -0.565692
