{'_ref': 'TBD', '_srcid': 'CAKYAQ_clean', 'submitters': [{'name': 'Dalar Nazarian Jeff Camp and David Sholl', 'email': 'dalar@gatech.edu jcamp6@gatech.edu'}], '_method': 'VASP DFT with PBE;DDEC'}
data_CuH2(C3O2)2
_symmetry_space_group_name_H-M   'P 1'
_cell_length_a   18.57600009
_cell_length_b   18.57599952
_cell_length_c   18.57600000
_cell_angle_alpha   59.99999914
_cell_angle_beta   60.00000015
_cell_angle_gamma   60.00000011
_symmetry_Int_Tables_number   1
_chemical_formula_structural   CuH2(C3O2)2
_chemical_formula_sum   'Cu12 H24 C72 O48'
_cell_volume   4532.53950545
_cell_formula_units_Z   12
loop_
 _symmetry_equiv_pos_site_id
 _symmetry_equiv_pos_as_xyz
  1  'x, y, z'
loop_
 _atom_site_label
 _atom_site_fract_x
 _atom_site_fract_y
 _atom_site_fract_z
 _atom_site_charge
 Cu 0.43277 0.56723 0.0   0.926498
 Cu 0.56723 0.43277 0.0   0.926497
 Cu 0.0 0.0 0.43277   0.926498
 Cu 0.0 0.0 0.56723   0.926497
 Cu 0.43277 0.0 0.0   0.926501
 Cu 0.56723 0.0 0.0   0.9265
 Cu 0.0 0.43277 0.56723   0.926493
 Cu 0.0 0.56723 0.43277   0.926492
 Cu 0.43277 0.0 0.56723   0.926501
 Cu 0.56723 0.0 0.43277   0.9265
 Cu 0.0 0.56723 0.0   0.926493
 Cu 0.0 0.43277 0.0   0.926492
 H 0.4886 0.2706 0.9702   0.117782
 H 0.2706 0.4886 0.2706   0.117782
 H 0.9702 0.2706 0.4886   0.117782
 H 0.2706 0.9702 0.2706   0.117782
 H 0.4886 0.9702 0.2706   0.117782
 H 0.2706 0.2706 0.9702   0.117782
 H 0.9702 0.4886 0.2706   0.117782
 H 0.2706 0.2706 0.4886   0.117782
 H 0.4886 0.2706 0.2706   0.117782
 H 0.2706 0.9702 0.4886   0.117782
 H 0.9702 0.2706 0.2706   0.117782
 H 0.2706 0.4886 0.9702   0.117782
 H 0.7294 0.5114 0.0298   0.117782
 H 0.5114 0.7294 0.7294   0.117782
 H 0.7294 0.0298 0.5114   0.117782
 H 0.0298 0.7294 0.7294   0.117782
 H 0.0298 0.5114 0.7294   0.117782
 H 0.7294 0.7294 0.0298   0.117782
 H 0.5114 0.0298 0.7294   0.117782
 H 0.7294 0.7294 0.5114   0.117782
 H 0.7294 0.5114 0.7294   0.117782
 H 0.0298 0.7294 0.5114   0.117782
 H 0.7294 0.0298 0.7294   0.117782
 H 0.5114 0.7294 0.0298   0.117782
 C 0.38625 0.38625 0.97087   -0.161801
 C 0.43095 0.43095 0.97569   0.678442
 C 0.38625 0.38625 0.25663   -0.161801
 C 0.43095 0.43095 0.16241   0.678441
 C 0.97087 0.25663 0.38625   -0.161803
 C 0.97569 0.16241 0.43095   0.67845
 C 0.25663 0.97087 0.38625   -0.161799
 C 0.16241 0.97569 0.43095   0.678433
 C 0.38625 0.97087 0.25663   -0.161801
 C 0.43095 0.97569 0.16241   0.678442
 C 0.38625 0.25663 0.97087   -0.161803
 C 0.43095 0.16241 0.97569   0.67845
 C 0.97087 0.38625 0.38625   -0.161799
 C 0.97569 0.43095 0.43095   0.678433
 C 0.25663 0.38625 0.38625   -0.161799
 C 0.16241 0.43095 0.43095   0.678433
 C 0.38625 0.25663 0.38625   -0.161803
 C 0.43095 0.16241 0.43095   0.67845
 C 0.38625 0.97087 0.38625   -0.161801
 C 0.43095 0.97569 0.43095   0.678442
 C 0.97087 0.38625 0.25663   -0.161799
 C 0.97569 0.43095 0.16241   0.678433
 C 0.25663 0.38625 0.97087   -0.161799
 C 0.16241 0.43095 0.97569   0.678433
 C 0.61375 0.61375 0.02913   -0.161801
 C 0.56905 0.56905 0.02431   0.678442
 C 0.61375 0.61375 0.74337   -0.161801
 C 0.56905 0.56905 0.83759   0.678441
 C 0.74337 0.02913 0.61375   -0.161799
 C 0.83759 0.02431 0.56905   0.678433
 C 0.02913 0.74337 0.61375   -0.161803
 C 0.02431 0.83759 0.56905   0.67845
 C 0.02913 0.61375 0.74337   -0.161799
 C 0.02431 0.56905 0.83759   0.678433
 C 0.74337 0.61375 0.02913   -0.161799
 C 0.83759 0.56905 0.02431   0.678433
 C 0.61375 0.02913 0.61375   -0.161801
 C 0.56905 0.02431 0.56905   0.678442
 C 0.61375 0.74337 0.61375   -0.161803
 C 0.56905 0.83759 0.56905   0.67845
 C 0.74337 0.61375 0.61375   -0.161799
 C 0.83759 0.56905 0.56905   0.678433
 C 0.02913 0.61375 0.61375   -0.161799
 C 0.02431 0.56905 0.56905   0.678433
 C 0.61375 0.02913 0.74337   -0.161801
 C 0.56905 0.02431 0.83759   0.678442
 C 0.61375 0.74337 0.02913   -0.161803
 C 0.56905 0.83759 0.02431   0.67845
 C 0.42932 0.30004 0.9706   0.028691
 C 0.30004 0.42932 0.30004   0.028689
 C 0.9706 0.30004 0.42932   0.028691
 C 0.30004 0.9706 0.30004   0.02869
 C 0.42932 0.9706 0.30004   0.028691
 C 0.30004 0.30004 0.9706   0.028691
 C 0.9706 0.42932 0.30004   0.02869
 C 0.30004 0.30004 0.42932   0.02869
 C 0.42932 0.30004 0.30004   0.028691
 C 0.30004 0.9706 0.42932   0.02869
 C 0.9706 0.30004 0.30004   0.028691
 C 0.30004 0.42932 0.9706   0.02869
 C 0.69996 0.57068 0.0294   0.02869
 C 0.57068 0.69996 0.69996   0.028691
 C 0.69996 0.0294 0.57068   0.02869
 C 0.0294 0.69996 0.69996   0.028691
 C 0.0294 0.57068 0.69996   0.028689
 C 0.69996 0.69996 0.0294   0.028691
 C 0.57068 0.0294 0.69996   0.028691
 C 0.69996 0.69996 0.57068   0.02869
 C 0.69996 0.57068 0.69996   0.028689
 C 0.0294 0.69996 0.57068   0.028691
 C 0.69996 0.0294 0.69996   0.02869
 C 0.57068 0.69996 0.0294   0.028691
 O 0.38762 0.5079 0.97922   -0.563178
 O 0.5079 0.38762 0.12526   -0.563183
 O 0.97922 0.12526 0.38762   -0.563186
 O 0.12526 0.97922 0.5079   -0.563176
 O 0.38762 0.97922 0.12526   -0.563179
 O 0.5079 0.12526 0.97922   -0.563186
 O 0.97922 0.38762 0.5079   -0.563176
 O 0.12526 0.5079 0.38762   -0.563176
 O 0.38762 0.12526 0.5079   -0.563186
 O 0.5079 0.97922 0.38762   -0.563184
 O 0.97922 0.5079 0.12526   -0.563176
 O 0.12526 0.38762 0.97922   -0.563176
 O 0.4921 0.61238 0.02078   -0.563184
 O 0.61238 0.4921 0.87474   -0.563178
 O 0.87474 0.02078 0.61238   -0.563176
 O 0.02078 0.87474 0.4921   -0.563185
 O 0.02078 0.61238 0.87474   -0.563176
 O 0.87474 0.4921 0.02078   -0.563176
 O 0.61238 0.02078 0.4921   -0.563179
 O 0.4921 0.87474 0.61238   -0.563186
 O 0.87474 0.61238 0.4921   -0.563176
 O 0.02078 0.4921 0.61238   -0.563176
 O 0.4921 0.02078 0.87474   -0.563184
 O 0.61238 0.87474 0.02078   -0.563186
 O 0.61238 0.4921 0.02078   -0.563178
 O 0.4921 0.61238 0.87474   -0.563184
 O 0.02078 0.87474 0.61238   -0.563186
 O 0.87474 0.02078 0.4921   -0.563176
 O 0.61238 0.02078 0.87474   -0.563179
 O 0.4921 0.87474 0.02078   -0.563186
 O 0.02078 0.61238 0.4921   -0.563176
 O 0.87474 0.4921 0.61238   -0.563176
 O 0.61238 0.87474 0.4921   -0.563186
 O 0.4921 0.02078 0.61238   -0.563184
 O 0.02078 0.4921 0.87474   -0.563176
 O 0.87474 0.61238 0.02078   -0.563176
 O 0.5079 0.38762 0.97922   -0.563184
 O 0.38762 0.5079 0.12526   -0.563178
 O 0.12526 0.97922 0.38762   -0.563177
 O 0.97922 0.12526 0.5079   -0.563185
 O 0.97922 0.38762 0.12526   -0.563176
 O 0.12526 0.5079 0.97922   -0.563176
 O 0.38762 0.97922 0.5079   -0.563179
 O 0.5079 0.12526 0.38762   -0.563186
 O 0.12526 0.38762 0.5079   -0.563176
 O 0.97922 0.5079 0.38762   -0.563176
 O 0.5079 0.97922 0.12526   -0.563184
 O 0.38762 0.12526 0.97922   -0.563186
