{'_ref': 'TBD', '_srcid': 'CAKYAQ_clean', 'submitters': [{'name': 'Dalar Nazarian Jeff Camp and David Sholl', 'email': 'dalar@gatech.edu jcamp6@gatech.edu'}], '_method': 'VASP DFT with PBE;DDEC'}
data_CuH2(C3O2)2
_symmetry_space_group_name_H-M   'P 1'
_cell_length_a   18.58549988
_cell_length_b   18.58549992
_cell_length_c   18.58550000
_cell_angle_alpha   59.99999985
_cell_angle_beta   59.99999978
_cell_angle_gamma   59.99999889
_symmetry_Int_Tables_number   1
_chemical_formula_structural   CuH2(C3O2)2
_chemical_formula_sum   'Cu12 H24 C72 O48'
_cell_volume   4539.49707201
_cell_formula_units_Z   12
loop_
 _symmetry_equiv_pos_site_id
 _symmetry_equiv_pos_as_xyz
  1  'x, y, z'
loop_
 _atom_site_label
 _atom_site_fract_x
 _atom_site_fract_y
 _atom_site_fract_z
 _atom_site_charge
 Cu 0.43292 0.56708 0.0   0.921821
 Cu 0.56708 0.43292 0.0   0.92182
 Cu 0.0 0.0 0.43292   0.921821
 Cu 0.0 0.0 0.56708   0.921821
 Cu 0.43292 0.0 0.0   0.921821
 Cu 0.56708 0.0 0.0   0.921821
 Cu 0.0 0.43292 0.56708   0.921821
 Cu 0.0 0.56708 0.43292   0.921821
 Cu 0.43292 0.0 0.56708   0.921821
 Cu 0.56708 0.0 0.43292   0.921821
 Cu 0.0 0.56708 0.0   0.921821
 Cu 0.0 0.43292 0.0   0.921821
 H 0.4889 0.2705 0.9701   0.118545
 H 0.2705 0.4889 0.2705   0.118545
 H 0.9701 0.2705 0.4889   0.118545
 H 0.2705 0.9701 0.2705   0.118544
 H 0.4889 0.9701 0.2705   0.118545
 H 0.2705 0.2705 0.9701   0.118545
 H 0.9701 0.4889 0.2705   0.118545
 H 0.2705 0.2705 0.4889   0.118545
 H 0.4889 0.2705 0.2705   0.118545
 H 0.2705 0.9701 0.4889   0.118545
 H 0.9701 0.2705 0.2705   0.118545
 H 0.2705 0.4889 0.9701   0.118545
 H 0.7295 0.5111 0.0299   0.118545
 H 0.5111 0.7295 0.7295   0.118545
 H 0.7295 0.0299 0.5111   0.118545
 H 0.0299 0.7295 0.7295   0.118544
 H 0.0299 0.5111 0.7295   0.118545
 H 0.7295 0.7295 0.0299   0.118544
 H 0.5111 0.0299 0.7295   0.118545
 H 0.7295 0.7295 0.5111   0.118545
 H 0.7295 0.5111 0.7295   0.118545
 H 0.0299 0.7295 0.5111   0.118545
 H 0.7295 0.0299 0.7295   0.118544
 H 0.5111 0.7295 0.0299   0.118545
 C 0.38644 0.38644 0.97046   -0.16203
 C 0.43096 0.43096 0.976   0.672021
 C 0.38644 0.38644 0.25666   -0.16203
 C 0.43096 0.43096 0.16208   0.67202
 C 0.97046 0.25666 0.38644   -0.162031
 C 0.976 0.16208 0.43096   0.672021
 C 0.25666 0.97046 0.38644   -0.162031
 C 0.16208 0.976 0.43096   0.672021
 C 0.38644 0.97046 0.25666   -0.162031
 C 0.43096 0.976 0.16208   0.67202
 C 0.38644 0.25666 0.97046   -0.162031
 C 0.43096 0.16208 0.976   0.67202
 C 0.97046 0.38644 0.38644   -0.16203
 C 0.976 0.43096 0.43096   0.672021
 C 0.25666 0.38644 0.38644   -0.16203
 C 0.16208 0.43096 0.43096   0.67202
 C 0.38644 0.25666 0.38644   -0.16203
 C 0.43096 0.16208 0.43096   0.67202
 C 0.38644 0.97046 0.38644   -0.16203
 C 0.43096 0.976 0.43096   0.672021
 C 0.97046 0.38644 0.25666   -0.162031
 C 0.976 0.43096 0.16208   0.67202
 C 0.25666 0.38644 0.97046   -0.162031
 C 0.16208 0.43096 0.976   0.67202
 C 0.61356 0.61356 0.02954   -0.16203
 C 0.56904 0.56904 0.024   0.672021
 C 0.61356 0.61356 0.74334   -0.16203
 C 0.56904 0.56904 0.83792   0.67202
 C 0.74334 0.02954 0.61356   -0.162031
 C 0.83792 0.024 0.56904   0.67202
 C 0.02954 0.74334 0.61356   -0.162031
 C 0.024 0.83792 0.56904   0.67202
 C 0.02954 0.61356 0.74334   -0.162031
 C 0.024 0.56904 0.83792   0.67202
 C 0.74334 0.61356 0.02954   -0.162031
 C 0.83792 0.56904 0.024   0.67202
 C 0.61356 0.02954 0.61356   -0.16203
 C 0.56904 0.024 0.56904   0.672021
 C 0.61356 0.74334 0.61356   -0.16203
 C 0.56904 0.83792 0.56904   0.67202
 C 0.74334 0.61356 0.61356   -0.16203
 C 0.83792 0.56904 0.56904   0.67202
 C 0.02954 0.61356 0.61356   -0.16203
 C 0.024 0.56904 0.56904   0.672021
 C 0.61356 0.02954 0.74334   -0.162031
 C 0.56904 0.024 0.83792   0.67202
 C 0.61356 0.74334 0.02954   -0.162031
 C 0.56904 0.83792 0.024   0.67202
 C 0.42974 0.29996 0.97034   0.02941
 C 0.29996 0.42974 0.29996   0.029409
 C 0.97034 0.29996 0.42974   0.02941
 C 0.29996 0.97034 0.29996   0.02941
 C 0.42974 0.97034 0.29996   0.02941
 C 0.29996 0.29996 0.97034   0.02941
 C 0.97034 0.42974 0.29996   0.02941
 C 0.29996 0.29996 0.42974   0.029409
 C 0.42974 0.29996 0.29996   0.029409
 C 0.29996 0.97034 0.42974   0.02941
 C 0.97034 0.29996 0.29996   0.02941
 C 0.29996 0.42974 0.97034   0.02941
 C 0.70004 0.57026 0.02966   0.02941
 C 0.57026 0.70004 0.70004   0.029409
 C 0.70004 0.02966 0.57026   0.02941
 C 0.02966 0.70004 0.70004   0.02941
 C 0.02966 0.57026 0.70004   0.02941
 C 0.70004 0.70004 0.02966   0.02941
 C 0.57026 0.02966 0.70004   0.02941
 C 0.70004 0.70004 0.57026   0.029409
 C 0.70004 0.57026 0.70004   0.029409
 C 0.02966 0.70004 0.57026   0.02941
 C 0.70004 0.02966 0.70004   0.02941
 C 0.57026 0.70004 0.02966   0.02941
 O 0.38738 0.5082 0.97924   -0.559427
 O 0.5082 0.38738 0.12518   -0.559427
 O 0.97924 0.12518 0.38738   -0.559427
 O 0.12518 0.97924 0.5082   -0.559427
 O 0.38738 0.97924 0.12518   -0.559427
 O 0.5082 0.12518 0.97924   -0.559427
 O 0.97924 0.38738 0.5082   -0.559427
 O 0.12518 0.5082 0.38738   -0.559427
 O 0.38738 0.12518 0.5082   -0.559427
 O 0.5082 0.97924 0.38738   -0.559427
 O 0.97924 0.5082 0.12518   -0.559427
 O 0.12518 0.38738 0.97924   -0.559427
 O 0.4918 0.61262 0.02076   -0.559427
 O 0.61262 0.4918 0.87482   -0.559427
 O 0.87482 0.02076 0.61262   -0.559427
 O 0.02076 0.87482 0.4918   -0.559427
 O 0.02076 0.61262 0.87482   -0.559427
 O 0.87482 0.4918 0.02076   -0.559427
 O 0.61262 0.02076 0.4918   -0.559427
 O 0.4918 0.87482 0.61262   -0.559427
 O 0.87482 0.61262 0.4918   -0.559427
 O 0.02076 0.4918 0.61262   -0.559427
 O 0.4918 0.02076 0.87482   -0.559427
 O 0.61262 0.87482 0.02076   -0.559427
 O 0.61262 0.4918 0.02076   -0.559427
 O 0.4918 0.61262 0.87482   -0.559427
 O 0.02076 0.87482 0.61262   -0.559427
 O 0.87482 0.02076 0.4918   -0.559427
 O 0.61262 0.02076 0.87482   -0.559427
 O 0.4918 0.87482 0.02076   -0.559427
 O 0.02076 0.61262 0.4918   -0.559427
 O 0.87482 0.4918 0.61262   -0.559427
 O 0.61262 0.87482 0.4918   -0.559427
 O 0.4918 0.02076 0.61262   -0.559427
 O 0.02076 0.4918 0.87482   -0.559427
 O 0.87482 0.61262 0.02076   -0.559427
 O 0.5082 0.38738 0.97924   -0.559427
 O 0.38738 0.5082 0.12518   -0.559427
 O 0.12518 0.97924 0.38738   -0.559427
 O 0.97924 0.12518 0.5082   -0.559427
 O 0.97924 0.38738 0.12518   -0.559427
 O 0.12518 0.5082 0.97924   -0.559427
 O 0.38738 0.97924 0.5082   -0.559428
 O 0.5082 0.12518 0.38738   -0.559427
 O 0.12518 0.38738 0.5082   -0.559427
 O 0.97924 0.5082 0.38738   -0.559427
 O 0.5082 0.97924 0.12518   -0.559427
 O 0.38738 0.12518 0.97924   -0.559427
