{'_ref': 'TBD', '_srcid': 'CAKYAQ_clean', 'submitters': [{'name': 'Dalar Nazarian Jeff Camp and David Sholl', 'email': 'dalar@gatech.edu jcamp6@gatech.edu'}], '_method': 'VASP DFT with PBE;DDEC'}
data_CuH2(C3O2)2
_symmetry_space_group_name_H-M   'P 1'
_cell_length_a   18.57610043
_cell_length_b   18.57609984
_cell_length_c   18.57610000
_cell_angle_alpha   59.99999971
_cell_angle_beta   60.00000077
_cell_angle_gamma   60.00000049
_symmetry_Int_Tables_number   1
_chemical_formula_structural   CuH2(C3O2)2
_chemical_formula_sum   'Cu12 H24 C72 O48'
_cell_volume   4532.61292245
_cell_formula_units_Z   12
loop_
 _symmetry_equiv_pos_site_id
 _symmetry_equiv_pos_as_xyz
  1  'x, y, z'
loop_
 _atom_site_label
 _atom_site_fract_x
 _atom_site_fract_y
 _atom_site_fract_z
 _atom_site_charge
 Cu 0.43282 0.56718 0.0   0.923448
 Cu 0.56718 0.43282 0.0   0.923447
 Cu 0.0 0.0 0.43282   0.923447
 Cu 0.0 0.0 0.56718   0.923447
 Cu 0.43282 0.0 0.0   0.923447
 Cu 0.56718 0.0 0.0   0.923447
 Cu 0.0 0.43282 0.56718   0.923447
 Cu 0.0 0.56718 0.43282   0.923447
 Cu 0.43282 0.0 0.56718   0.923448
 Cu 0.56718 0.0 0.43282   0.923448
 Cu 0.0 0.56718 0.0   0.923447
 Cu 0.0 0.43282 0.0   0.923447
 H 0.4877 0.2707 0.9709   0.115834
 H 0.2707 0.4877 0.2707   0.115834
 H 0.9709 0.2707 0.4877   0.115834
 H 0.2707 0.9709 0.2707   0.115834
 H 0.4877 0.9709 0.2707   0.115834
 H 0.2707 0.2707 0.9709   0.115834
 H 0.9709 0.4877 0.2707   0.115834
 H 0.2707 0.2707 0.4877   0.115834
 H 0.4877 0.2707 0.2707   0.115834
 H 0.2707 0.9709 0.4877   0.115834
 H 0.9709 0.2707 0.2707   0.115834
 H 0.2707 0.4877 0.9709   0.115834
 H 0.7293 0.5123 0.0291   0.115834
 H 0.5123 0.7293 0.7293   0.115834
 H 0.7293 0.0291 0.5123   0.115834
 H 0.0291 0.7293 0.7293   0.115834
 H 0.0291 0.5123 0.7293   0.115834
 H 0.7293 0.7293 0.0291   0.115834
 H 0.5123 0.0291 0.7293   0.115834
 H 0.7293 0.7293 0.5123   0.115834
 H 0.7293 0.5123 0.7293   0.115834
 H 0.0291 0.7293 0.5123   0.115834
 H 0.7293 0.0291 0.7293   0.115834
 H 0.5123 0.7293 0.0291   0.115834
 C 0.38638 0.38638 0.97066   -0.165492
 C 0.43104 0.43104 0.9757   0.675948
 C 0.38638 0.38638 0.25658   -0.165492
 C 0.43104 0.43104 0.16222   0.675947
 C 0.97066 0.25658 0.38638   -0.16549
 C 0.9757 0.16222 0.43104   0.675947
 C 0.25658 0.97066 0.38638   -0.165492
 C 0.16222 0.9757 0.43104   0.675948
 C 0.38638 0.97066 0.25658   -0.165492
 C 0.43104 0.9757 0.16222   0.675948
 C 0.38638 0.25658 0.97066   -0.165493
 C 0.43104 0.16222 0.9757   0.675948
 C 0.97066 0.38638 0.38638   -0.16549
 C 0.9757 0.43104 0.43104   0.675947
 C 0.25658 0.38638 0.38638   -0.165492
 C 0.16222 0.43104 0.43104   0.675948
 C 0.38638 0.25658 0.38638   -0.165492
 C 0.43104 0.16222 0.43104   0.675947
 C 0.38638 0.97066 0.38638   -0.165492
 C 0.43104 0.9757 0.43104   0.675948
 C 0.97066 0.38638 0.25658   -0.16549
 C 0.9757 0.43104 0.16222   0.675947
 C 0.25658 0.38638 0.97066   -0.165492
 C 0.16222 0.43104 0.9757   0.675948
 C 0.61362 0.61362 0.02934   -0.165492
 C 0.56896 0.56896 0.0243   0.675948
 C 0.61362 0.61362 0.74342   -0.165492
 C 0.56896 0.56896 0.83778   0.675947
 C 0.74342 0.02934 0.61362   -0.165492
 C 0.83778 0.0243 0.56896   0.675948
 C 0.02934 0.74342 0.61362   -0.16549
 C 0.0243 0.83778 0.56896   0.675947
 C 0.02934 0.61362 0.74342   -0.16549
 C 0.0243 0.56896 0.83778   0.675947
 C 0.74342 0.61362 0.02934   -0.165492
 C 0.83778 0.56896 0.0243   0.675948
 C 0.61362 0.02934 0.61362   -0.165492
 C 0.56896 0.0243 0.56896   0.675948
 C 0.61362 0.74342 0.61362   -0.165492
 C 0.56896 0.83778 0.56896   0.675947
 C 0.74342 0.61362 0.61362   -0.165492
 C 0.83778 0.56896 0.56896   0.675947
 C 0.02934 0.61362 0.61362   -0.16549
 C 0.0243 0.56896 0.56896   0.675947
 C 0.61362 0.02934 0.74342   -0.165493
 C 0.56896 0.0243 0.83778   0.675948
 C 0.61362 0.74342 0.02934   -0.165493
 C 0.56896 0.83778 0.0243   0.675947
 C 0.42931 0.29999 0.97071   0.033721
 C 0.29999 0.42931 0.29999   0.033721
 C 0.97071 0.29999 0.42931   0.033719
 C 0.29999 0.97071 0.29999   0.033721
 C 0.42931 0.97071 0.29999   0.033721
 C 0.29999 0.29999 0.97071   0.033721
 C 0.97071 0.42931 0.29999   0.033719
 C 0.29999 0.29999 0.42931   0.033721
 C 0.42931 0.29999 0.29999   0.033721
 C 0.29999 0.97071 0.42931   0.033721
 C 0.97071 0.29999 0.29999   0.033719
 C 0.29999 0.42931 0.97071   0.033721
 C 0.70001 0.57069 0.02929   0.033721
 C 0.57069 0.70001 0.70001   0.03372
 C 0.70001 0.02929 0.57069   0.033721
 C 0.02929 0.70001 0.70001   0.033719
 C 0.02929 0.57069 0.70001   0.033719
 C 0.70001 0.70001 0.02929   0.033721
 C 0.57069 0.02929 0.70001   0.033721
 C 0.70001 0.70001 0.57069   0.03372
 C 0.70001 0.57069 0.70001   0.03372
 C 0.02929 0.70001 0.57069   0.033719
 C 0.70001 0.02929 0.70001   0.033721
 C 0.57069 0.70001 0.02929   0.033721
 O 0.38745 0.50809 0.97929   -0.560867
 O 0.50809 0.38745 0.12517   -0.560867
 O 0.97929 0.12517 0.38745   -0.560867
 O 0.12517 0.97929 0.50809   -0.560867
 O 0.38745 0.97929 0.12517   -0.560867
 O 0.50809 0.12517 0.97929   -0.560867
 O 0.97929 0.38745 0.50809   -0.560867
 O 0.12517 0.50809 0.38745   -0.560867
 O 0.38745 0.12517 0.50809   -0.560867
 O 0.50809 0.97929 0.38745   -0.560867
 O 0.97929 0.50809 0.12517   -0.560867
 O 0.12517 0.38745 0.97929   -0.560867
 O 0.49191 0.61255 0.02071   -0.560867
 O 0.61255 0.49191 0.87483   -0.560867
 O 0.87483 0.02071 0.61255   -0.560867
 O 0.02071 0.87483 0.49191   -0.560867
 O 0.02071 0.61255 0.87483   -0.560867
 O 0.87483 0.49191 0.02071   -0.560867
 O 0.61255 0.02071 0.49191   -0.560867
 O 0.49191 0.87483 0.61255   -0.560867
 O 0.87483 0.61255 0.49191   -0.560867
 O 0.02071 0.49191 0.61255   -0.560867
 O 0.49191 0.02071 0.87483   -0.560867
 O 0.61255 0.87483 0.02071   -0.560867
 O 0.61255 0.49191 0.02071   -0.560867
 O 0.49191 0.61255 0.87483   -0.560867
 O 0.02071 0.87483 0.61255   -0.560867
 O 0.87483 0.02071 0.49191   -0.560867
 O 0.61255 0.02071 0.87483   -0.560867
 O 0.49191 0.87483 0.02071   -0.560867
 O 0.02071 0.61255 0.49191   -0.560867
 O 0.87483 0.49191 0.61255   -0.560867
 O 0.61255 0.87483 0.49191   -0.560867
 O 0.49191 0.02071 0.61255   -0.560867
 O 0.02071 0.49191 0.87483   -0.560867
 O 0.87483 0.61255 0.02071   -0.560867
 O 0.50809 0.38745 0.97929   -0.560867
 O 0.38745 0.50809 0.12517   -0.560867
 O 0.12517 0.97929 0.38745   -0.560867
 O 0.97929 0.12517 0.50809   -0.560867
 O 0.97929 0.38745 0.12517   -0.560867
 O 0.12517 0.50809 0.97929   -0.560867
 O 0.38745 0.97929 0.50809   -0.560867
 O 0.50809 0.12517 0.38745   -0.560867
 O 0.12517 0.38745 0.50809   -0.560867
 O 0.97929 0.50809 0.38745   -0.560867
 O 0.50809 0.97929 0.12517   -0.560867
 O 0.38745 0.12517 0.97929   -0.560867
