{'_ref': 'TBD', '_srcid': 'CAKYAQ_clean', 'submitters': [{'name': 'Dalar Nazarian Jeff Camp and David Sholl', 'email': 'dalar@gatech.edu jcamp6@gatech.edu'}], '_method': 'VASP DFT with PBE;DDEC'}
data_CuH2(C3O2)2
_symmetry_space_group_name_H-M   'P 1'
_cell_length_a   18.58449990
_cell_length_b   18.58450023
_cell_length_c   18.58450000
_cell_angle_alpha   60.00000040
_cell_angle_beta   59.99999982
_cell_angle_gamma   60.00000046
_symmetry_Int_Tables_number   1
_chemical_formula_structural   CuH2(C3O2)2
_chemical_formula_sum   'Cu12 H24 C72 O48'
_cell_volume   4538.76451895
_cell_formula_units_Z   12
loop_
 _symmetry_equiv_pos_site_id
 _symmetry_equiv_pos_as_xyz
  1  'x, y, z'
loop_
 _atom_site_label
 _atom_site_fract_x
 _atom_site_fract_y
 _atom_site_fract_z
 _atom_site_charge
 Cu 0.43288 0.56712 0.0   0.922572
 Cu 0.56712 0.43288 0.0   0.922572
 Cu 0.0 0.0 0.43288   0.922571
 Cu 0.0 0.0 0.56712   0.922571
 Cu 0.43288 0.0 0.0   0.922571
 Cu 0.56712 0.0 0.0   0.922572
 Cu 0.0 0.43288 0.56712   0.922572
 Cu 0.0 0.56712 0.43288   0.922572
 Cu 0.43288 0.0 0.56712   0.922572
 Cu 0.56712 0.0 0.43288   0.922572
 Cu 0.0 0.56712 0.0   0.922572
 Cu 0.0 0.43288 0.0   0.922572
 H 0.4888 0.2706 0.97   0.118227
 H 0.2706 0.4888 0.2706   0.118227
 H 0.97 0.2706 0.4888   0.118227
 H 0.2706 0.97 0.2706   0.118227
 H 0.4888 0.97 0.2706   0.118227
 H 0.2706 0.2706 0.97   0.118227
 H 0.97 0.4888 0.2706   0.118227
 H 0.2706 0.2706 0.4888   0.118228
 H 0.4888 0.2706 0.2706   0.118228
 H 0.2706 0.97 0.4888   0.118227
 H 0.97 0.2706 0.2706   0.118227
 H 0.2706 0.4888 0.97   0.118227
 H 0.7294 0.5112 0.03   0.118227
 H 0.5112 0.7294 0.7294   0.118227
 H 0.7294 0.03 0.5112   0.118227
 H 0.03 0.7294 0.7294   0.118227
 H 0.03 0.5112 0.7294   0.118227
 H 0.7294 0.7294 0.03   0.118227
 H 0.5112 0.03 0.7294   0.118227
 H 0.7294 0.7294 0.5112   0.118227
 H 0.7294 0.5112 0.7294   0.118227
 H 0.03 0.7294 0.5112   0.118227
 H 0.7294 0.03 0.7294   0.118227
 H 0.5112 0.7294 0.03   0.118227
 C 0.38644 0.38644 0.97064   -0.161591
 C 0.43102 0.43102 0.9758   0.672565
 C 0.38644 0.38644 0.25648   -0.161591
 C 0.43102 0.43102 0.16216   0.672565
 C 0.97064 0.25648 0.38644   -0.161591
 C 0.9758 0.16216 0.43102   0.672565
 C 0.25648 0.97064 0.38644   -0.161591
 C 0.16216 0.9758 0.43102   0.672565
 C 0.38644 0.97064 0.25648   -0.161591
 C 0.43102 0.9758 0.16216   0.672565
 C 0.38644 0.25648 0.97064   -0.161591
 C 0.43102 0.16216 0.9758   0.672565
 C 0.97064 0.38644 0.38644   -0.161591
 C 0.9758 0.43102 0.43102   0.672565
 C 0.25648 0.38644 0.38644   -0.161591
 C 0.16216 0.43102 0.43102   0.672565
 C 0.38644 0.25648 0.38644   -0.161591
 C 0.43102 0.16216 0.43102   0.672565
 C 0.38644 0.97064 0.38644   -0.161591
 C 0.43102 0.9758 0.43102   0.672565
 C 0.97064 0.38644 0.25648   -0.161591
 C 0.9758 0.43102 0.16216   0.672565
 C 0.25648 0.38644 0.97064   -0.161591
 C 0.16216 0.43102 0.9758   0.672565
 C 0.61356 0.61356 0.02936   -0.161591
 C 0.56898 0.56898 0.0242   0.672565
 C 0.61356 0.61356 0.74352   -0.161591
 C 0.56898 0.56898 0.83784   0.672565
 C 0.74352 0.02936 0.61356   -0.161591
 C 0.83784 0.0242 0.56898   0.672565
 C 0.02936 0.74352 0.61356   -0.161591
 C 0.0242 0.83784 0.56898   0.672565
 C 0.02936 0.61356 0.74352   -0.161591
 C 0.0242 0.56898 0.83784   0.672565
 C 0.74352 0.61356 0.02936   -0.161591
 C 0.83784 0.56898 0.0242   0.672565
 C 0.61356 0.02936 0.61356   -0.161591
 C 0.56898 0.0242 0.56898   0.672565
 C 0.61356 0.74352 0.61356   -0.161591
 C 0.56898 0.83784 0.56898   0.672565
 C 0.74352 0.61356 0.61356   -0.161591
 C 0.83784 0.56898 0.56898   0.672565
 C 0.02936 0.61356 0.61356   -0.161591
 C 0.0242 0.56898 0.56898   0.672565
 C 0.61356 0.02936 0.74352   -0.161591
 C 0.56898 0.0242 0.83784   0.672565
 C 0.61356 0.74352 0.02936   -0.161591
 C 0.56898 0.83784 0.0242   0.672565
 C 0.42964 0.29998 0.9704   0.029391
 C 0.29998 0.42964 0.29998   0.029391
 C 0.9704 0.29998 0.42964   0.029391
 C 0.29998 0.9704 0.29998   0.029391
 C 0.42964 0.9704 0.29998   0.029391
 C 0.29998 0.29998 0.9704   0.029391
 C 0.9704 0.42964 0.29998   0.029391
 C 0.29998 0.29998 0.42964   0.029391
 C 0.42964 0.29998 0.29998   0.029391
 C 0.29998 0.9704 0.42964   0.029391
 C 0.9704 0.29998 0.29998   0.029391
 C 0.29998 0.42964 0.9704   0.029391
 C 0.70002 0.57036 0.0296   0.029391
 C 0.57036 0.70002 0.70002   0.02939
 C 0.70002 0.0296 0.57036   0.029391
 C 0.0296 0.70002 0.70002   0.029391
 C 0.0296 0.57036 0.70002   0.029391
 C 0.70002 0.70002 0.0296   0.029391
 C 0.57036 0.0296 0.70002   0.029391
 C 0.70002 0.70002 0.57036   0.02939
 C 0.70002 0.57036 0.70002   0.02939
 C 0.0296 0.70002 0.57036   0.029391
 C 0.70002 0.0296 0.70002   0.029391
 C 0.57036 0.70002 0.0296   0.029391
 O 0.38737 0.50825 0.97921   -0.559939
 O 0.50825 0.38737 0.12517   -0.559939
 O 0.97921 0.12517 0.38737   -0.559939
 O 0.12517 0.97921 0.50825   -0.559939
 O 0.38737 0.97921 0.12517   -0.559939
 O 0.50825 0.12517 0.97921   -0.559939
 O 0.97921 0.38737 0.50825   -0.559939
 O 0.12517 0.50825 0.38737   -0.559939
 O 0.38737 0.12517 0.50825   -0.559939
 O 0.50825 0.97921 0.38737   -0.559939
 O 0.97921 0.50825 0.12517   -0.559939
 O 0.12517 0.38737 0.97921   -0.559939
 O 0.49175 0.61263 0.02079   -0.559939
 O 0.61263 0.49175 0.87483   -0.559939
 O 0.87483 0.02079 0.61263   -0.559939
 O 0.02079 0.87483 0.49175   -0.559939
 O 0.02079 0.61263 0.87483   -0.559939
 O 0.87483 0.49175 0.02079   -0.559939
 O 0.61263 0.02079 0.49175   -0.559939
 O 0.49175 0.87483 0.61263   -0.559939
 O 0.87483 0.61263 0.49175   -0.559939
 O 0.02079 0.49175 0.61263   -0.559939
 O 0.49175 0.02079 0.87483   -0.559939
 O 0.61263 0.87483 0.02079   -0.559939
 O 0.61263 0.49175 0.02079   -0.559939
 O 0.49175 0.61263 0.87483   -0.559939
 O 0.02079 0.87483 0.61263   -0.559939
 O 0.87483 0.02079 0.49175   -0.559939
 O 0.61263 0.02079 0.87483   -0.559939
 O 0.49175 0.87483 0.02079   -0.559939
 O 0.02079 0.61263 0.49175   -0.55994
 O 0.87483 0.49175 0.61263   -0.559939
 O 0.61263 0.87483 0.49175   -0.559939
 O 0.49175 0.02079 0.61263   -0.55994
 O 0.02079 0.49175 0.87483   -0.559939
 O 0.87483 0.61263 0.02079   -0.559939
 O 0.50825 0.38737 0.97921   -0.55994
 O 0.38737 0.50825 0.12517   -0.559939
 O 0.12517 0.97921 0.38737   -0.559939
 O 0.97921 0.12517 0.50825   -0.559939
 O 0.97921 0.38737 0.12517   -0.559939
 O 0.12517 0.50825 0.97921   -0.559939
 O 0.38737 0.97921 0.50825   -0.55994
 O 0.50825 0.12517 0.38737   -0.559939
 O 0.12517 0.38737 0.50825   -0.559939
 O 0.97921 0.50825 0.38737   -0.55994
 O 0.50825 0.97921 0.12517   -0.559939
 O 0.38737 0.12517 0.97921   -0.559939
