{'_ref': 'TBD', '_srcid': 'CAKYAQ_clean', 'submitters': [{'name': 'Dalar Nazarian Jeff Camp and David Sholl', 'email': 'dalar@gatech.edu jcamp6@gatech.edu'}], '_method': 'VASP DFT with PBE;DDEC'}
data_CuH2(C3O2)2
_symmetry_space_group_name_H-M   'P 1'
_cell_length_a   18.57969983
_cell_length_b   18.57970027
_cell_length_c   18.57970000
_cell_angle_alpha   60.00000049
_cell_angle_beta   59.99999970
_cell_angle_gamma   60.00000161
_symmetry_Int_Tables_number   1
_chemical_formula_structural   CuH2(C3O2)2
_chemical_formula_sum   'Cu12 H24 C72 O48'
_cell_volume   4535.24864721
_cell_formula_units_Z   12
loop_
 _symmetry_equiv_pos_site_id
 _symmetry_equiv_pos_as_xyz
  1  'x, y, z'
loop_
 _atom_site_label
 _atom_site_fract_x
 _atom_site_fract_y
 _atom_site_fract_z
 _atom_site_charge
 Cu 0.43286 0.56714 0.0   0.923438
 Cu 0.56714 0.43286 0.0   0.923438
 Cu 0.0 0.0 0.43286   0.923438
 Cu 0.0 0.0 0.56714   0.923438
 Cu 0.43286 0.0 0.0   0.923438
 Cu 0.56714 0.0 0.0   0.923437
 Cu 0.0 0.43286 0.56714   0.923438
 Cu 0.0 0.56714 0.43286   0.923438
 Cu 0.43286 0.0 0.56714   0.923438
 Cu 0.56714 0.0 0.43286   0.923438
 Cu 0.0 0.56714 0.0   0.923438
 Cu 0.0 0.43286 0.0   0.923438
 H 0.4887 0.2705 0.9703   0.117536
 H 0.2705 0.4887 0.2705   0.117536
 H 0.9703 0.2705 0.4887   0.117536
 H 0.2705 0.9703 0.2705   0.117536
 H 0.4887 0.9703 0.2705   0.117536
 H 0.2705 0.2705 0.9703   0.117536
 H 0.9703 0.4887 0.2705   0.117536
 H 0.2705 0.2705 0.4887   0.117536
 H 0.4887 0.2705 0.2705   0.117536
 H 0.2705 0.9703 0.4887   0.117536
 H 0.9703 0.2705 0.2705   0.117536
 H 0.2705 0.4887 0.9703   0.117536
 H 0.7295 0.5113 0.0297   0.117536
 H 0.5113 0.7295 0.7295   0.117536
 H 0.7295 0.0297 0.5113   0.117536
 H 0.0297 0.7295 0.7295   0.117535
 H 0.0297 0.5113 0.7295   0.117536
 H 0.7295 0.7295 0.0297   0.117536
 H 0.5113 0.0297 0.7295   0.117536
 H 0.7295 0.7295 0.5113   0.117536
 H 0.7295 0.5113 0.7295   0.117536
 H 0.0297 0.7295 0.5113   0.117536
 H 0.7295 0.0297 0.7295   0.117536
 H 0.5113 0.7295 0.0297   0.117536
 C 0.38649 0.38649 0.97057   -0.162935
 C 0.43106 0.43106 0.97584   0.673947
 C 0.38649 0.38649 0.25645   -0.162935
 C 0.43106 0.43106 0.16204   0.673946
 C 0.97057 0.25645 0.38649   -0.162935
 C 0.97584 0.16204 0.43106   0.673947
 C 0.25645 0.97057 0.38649   -0.162935
 C 0.16204 0.97584 0.43106   0.673947
 C 0.38649 0.97057 0.25645   -0.162935
 C 0.43106 0.97584 0.16204   0.673947
 C 0.38649 0.25645 0.97057   -0.162935
 C 0.43106 0.16204 0.97584   0.673947
 C 0.97057 0.38649 0.38649   -0.162935
 C 0.97584 0.43106 0.43106   0.673947
 C 0.25645 0.38649 0.38649   -0.162935
 C 0.16204 0.43106 0.43106   0.673946
 C 0.38649 0.25645 0.38649   -0.162935
 C 0.43106 0.16204 0.43106   0.673947
 C 0.38649 0.97057 0.38649   -0.162935
 C 0.43106 0.97584 0.43106   0.673947
 C 0.97057 0.38649 0.25645   -0.162935
 C 0.97584 0.43106 0.16204   0.673947
 C 0.25645 0.38649 0.97057   -0.162935
 C 0.16204 0.43106 0.97584   0.673947
 C 0.61351 0.61351 0.02943   -0.162935
 C 0.56894 0.56894 0.02416   0.673947
 C 0.61351 0.61351 0.74355   -0.162935
 C 0.56894 0.56894 0.83796   0.673946
 C 0.74355 0.02943 0.61351   -0.162935
 C 0.83796 0.02416 0.56894   0.673946
 C 0.02943 0.74355 0.61351   -0.162935
 C 0.02416 0.83796 0.56894   0.673946
 C 0.02943 0.61351 0.74355   -0.162935
 C 0.02416 0.56894 0.83796   0.673947
 C 0.74355 0.61351 0.02943   -0.162935
 C 0.83796 0.56894 0.02416   0.673946
 C 0.61351 0.02943 0.61351   -0.162935
 C 0.56894 0.02416 0.56894   0.673947
 C 0.61351 0.74355 0.61351   -0.162935
 C 0.56894 0.83796 0.56894   0.673946
 C 0.74355 0.61351 0.61351   -0.162935
 C 0.83796 0.56894 0.56894   0.673946
 C 0.02943 0.61351 0.61351   -0.162935
 C 0.02416 0.56894 0.56894   0.673947
 C 0.61351 0.02943 0.74355   -0.162935
 C 0.56894 0.02416 0.83796   0.673947
 C 0.61351 0.74355 0.02943   -0.162935
 C 0.56894 0.83796 0.02416   0.673947
 C 0.42966 0.29996 0.97042   0.030484
 C 0.29996 0.42966 0.29996   0.030483
 C 0.97042 0.29996 0.42966   0.030484
 C 0.29996 0.97042 0.29996   0.030484
 C 0.42966 0.97042 0.29996   0.030484
 C 0.29996 0.29996 0.97042   0.030484
 C 0.97042 0.42966 0.29996   0.030484
 C 0.29996 0.29996 0.42966   0.030483
 C 0.42966 0.29996 0.29996   0.030483
 C 0.29996 0.97042 0.42966   0.030484
 C 0.97042 0.29996 0.29996   0.030484
 C 0.29996 0.42966 0.97042   0.030484
 C 0.70004 0.57034 0.02958   0.030484
 C 0.57034 0.70004 0.70004   0.030483
 C 0.70004 0.02958 0.57034   0.030484
 C 0.02958 0.70004 0.70004   0.030484
 C 0.02958 0.57034 0.70004   0.030484
 C 0.70004 0.70004 0.02958   0.030484
 C 0.57034 0.02958 0.70004   0.030484
 C 0.70004 0.70004 0.57034   0.030483
 C 0.70004 0.57034 0.70004   0.030483
 C 0.02958 0.70004 0.57034   0.030484
 C 0.70004 0.02958 0.70004   0.030484
 C 0.57034 0.70004 0.02958   0.030484
 O 0.38743 0.50823 0.97925   -0.560375
 O 0.50823 0.38743 0.12509   -0.560375
 O 0.97925 0.12509 0.38743   -0.560375
 O 0.12509 0.97925 0.50823   -0.560375
 O 0.38743 0.97925 0.12509   -0.560375
 O 0.50823 0.12509 0.97925   -0.560375
 O 0.97925 0.38743 0.50823   -0.560375
 O 0.12509 0.50823 0.38743   -0.560374
 O 0.38743 0.12509 0.50823   -0.560375
 O 0.50823 0.97925 0.38743   -0.560375
 O 0.97925 0.50823 0.12509   -0.560375
 O 0.12509 0.38743 0.97925   -0.560375
 O 0.49177 0.61257 0.02075   -0.560375
 O 0.61257 0.49177 0.87491   -0.560374
 O 0.87491 0.02075 0.61257   -0.560375
 O 0.02075 0.87491 0.49177   -0.560375
 O 0.02075 0.61257 0.87491   -0.560375
 O 0.87491 0.49177 0.02075   -0.560375
 O 0.61257 0.02075 0.49177   -0.560375
 O 0.49177 0.87491 0.61257   -0.560375
 O 0.87491 0.61257 0.49177   -0.560375
 O 0.02075 0.49177 0.61257   -0.560375
 O 0.49177 0.02075 0.87491   -0.560375
 O 0.61257 0.87491 0.02075   -0.560375
 O 0.61257 0.49177 0.02075   -0.560375
 O 0.49177 0.61257 0.87491   -0.560375
 O 0.02075 0.87491 0.61257   -0.560375
 O 0.87491 0.02075 0.49177   -0.560375
 O 0.61257 0.02075 0.87491   -0.560375
 O 0.49177 0.87491 0.02075   -0.560375
 O 0.02075 0.61257 0.49177   -0.560375
 O 0.87491 0.49177 0.61257   -0.560374
 O 0.61257 0.87491 0.49177   -0.560375
 O 0.49177 0.02075 0.61257   -0.560375
 O 0.02075 0.49177 0.87491   -0.560375
 O 0.87491 0.61257 0.02075   -0.560375
 O 0.50823 0.38743 0.97925   -0.560375
 O 0.38743 0.50823 0.12509   -0.560374
 O 0.12509 0.97925 0.38743   -0.560375
 O 0.97925 0.12509 0.50823   -0.560375
 O 0.97925 0.38743 0.12509   -0.560375
 O 0.12509 0.50823 0.97925   -0.560375
 O 0.38743 0.97925 0.50823   -0.560375
 O 0.50823 0.12509 0.38743   -0.560375
 O 0.12509 0.38743 0.50823   -0.560375
 O 0.97925 0.50823 0.38743   -0.560375
 O 0.50823 0.97925 0.12509   -0.560375
 O 0.38743 0.12509 0.97925   -0.560375
