{'_ref': 'TBD', '_srcid': 'CAKYAQ_clean', 'submitters': [{'name': 'Dalar Nazarian Jeff Camp and David Sholl', 'email': 'dalar@gatech.edu jcamp6@gatech.edu'}], '_method': 'VASP DFT with PBE;DDEC'}
data_CuH2(C3O2)2
_symmetry_space_group_name_H-M   'P 1'
_cell_length_a   18.58410025
_cell_length_b   18.58410003
_cell_length_c   18.58410000
_cell_angle_alpha   60.00000006
_cell_angle_beta   60.00000045
_cell_angle_gamma   59.99999888
_symmetry_Int_Tables_number   1
_chemical_formula_structural   CuH2(C3O2)2
_chemical_formula_sum   'Cu12 H24 C72 O48'
_cell_volume   4538.47145314
_cell_formula_units_Z   12
loop_
 _symmetry_equiv_pos_site_id
 _symmetry_equiv_pos_as_xyz
  1  'x, y, z'
loop_
 _atom_site_label
 _atom_site_fract_x
 _atom_site_fract_y
 _atom_site_fract_z
 _atom_site_charge
 Cu 0.43291 0.56709 0.0   0.920317
 Cu 0.56709 0.43291 0.0   0.920317
 Cu 0.0 0.0 0.43291   0.920317
 Cu 0.0 0.0 0.56709   0.920317
 Cu 0.43291 0.0 0.0   0.920317
 Cu 0.56709 0.0 0.0   0.920317
 Cu 0.0 0.43291 0.56709   0.920318
 Cu 0.0 0.56709 0.43291   0.920317
 Cu 0.43291 0.0 0.56709   0.920318
 Cu 0.56709 0.0 0.43291   0.920317
 Cu 0.0 0.56709 0.0   0.920318
 Cu 0.0 0.43291 0.0   0.920317
 H 0.4888 0.2706 0.97   0.118152
 H 0.2706 0.4888 0.2706   0.118152
 H 0.97 0.2706 0.4888   0.118152
 H 0.2706 0.97 0.2706   0.118152
 H 0.4888 0.97 0.2706   0.118152
 H 0.2706 0.2706 0.97   0.118152
 H 0.97 0.4888 0.2706   0.118152
 H 0.2706 0.2706 0.4888   0.118152
 H 0.4888 0.2706 0.2706   0.118152
 H 0.2706 0.97 0.4888   0.118152
 H 0.97 0.2706 0.2706   0.118152
 H 0.2706 0.4888 0.97   0.118152
 H 0.7294 0.5112 0.03   0.118152
 H 0.5112 0.7294 0.7294   0.118152
 H 0.7294 0.03 0.5112   0.118152
 H 0.03 0.7294 0.7294   0.118152
 H 0.03 0.5112 0.7294   0.118152
 H 0.7294 0.7294 0.03   0.118152
 H 0.5112 0.03 0.7294   0.118152
 H 0.7294 0.7294 0.5112   0.118152
 H 0.7294 0.5112 0.7294   0.118152
 H 0.03 0.7294 0.5112   0.118152
 H 0.7294 0.03 0.7294   0.118152
 H 0.5112 0.7294 0.03   0.118152
 C 0.38642 0.38642 0.97054   -0.162635
 C 0.43105 0.43105 0.97585   0.672016
 C 0.38642 0.38642 0.25662   -0.162635
 C 0.43105 0.43105 0.16205   0.672016
 C 0.97054 0.25662 0.38642   -0.162635
 C 0.97585 0.16205 0.43105   0.672016
 C 0.25662 0.97054 0.38642   -0.162635
 C 0.16205 0.97585 0.43105   0.672016
 C 0.38642 0.97054 0.25662   -0.162635
 C 0.43105 0.97585 0.16205   0.672016
 C 0.38642 0.25662 0.97054   -0.162635
 C 0.43105 0.16205 0.97585   0.672016
 C 0.97054 0.38642 0.38642   -0.162635
 C 0.97585 0.43105 0.43105   0.672016
 C 0.25662 0.38642 0.38642   -0.162635
 C 0.16205 0.43105 0.43105   0.672016
 C 0.38642 0.25662 0.38642   -0.162635
 C 0.43105 0.16205 0.43105   0.672016
 C 0.38642 0.97054 0.38642   -0.162635
 C 0.43105 0.97585 0.43105   0.672016
 C 0.97054 0.38642 0.25662   -0.162635
 C 0.97585 0.43105 0.16205   0.672016
 C 0.25662 0.38642 0.97054   -0.162635
 C 0.16205 0.43105 0.97585   0.672016
 C 0.61358 0.61358 0.02946   -0.162635
 C 0.56895 0.56895 0.02415   0.672016
 C 0.61358 0.61358 0.74338   -0.162635
 C 0.56895 0.56895 0.83795   0.672015
 C 0.74338 0.02946 0.61358   -0.162635
 C 0.83795 0.02415 0.56895   0.672016
 C 0.02946 0.74338 0.61358   -0.162635
 C 0.02415 0.83795 0.56895   0.672015
 C 0.02946 0.61358 0.74338   -0.162635
 C 0.02415 0.56895 0.83795   0.672016
 C 0.74338 0.61358 0.02946   -0.162635
 C 0.83795 0.56895 0.02415   0.672016
 C 0.61358 0.02946 0.61358   -0.162635
 C 0.56895 0.02415 0.56895   0.672016
 C 0.61358 0.74338 0.61358   -0.162635
 C 0.56895 0.83795 0.56895   0.672015
 C 0.74338 0.61358 0.61358   -0.162635
 C 0.83795 0.56895 0.56895   0.672015
 C 0.02946 0.61358 0.61358   -0.162635
 C 0.02415 0.56895 0.56895   0.672016
 C 0.61358 0.02946 0.74338   -0.162635
 C 0.56895 0.02415 0.83795   0.672016
 C 0.61358 0.74338 0.02946   -0.162635
 C 0.56895 0.83795 0.02415   0.672016
 C 0.42973 0.29997 0.97033   0.030297
 C 0.29997 0.42973 0.29997   0.030296
 C 0.97033 0.29997 0.42973   0.030297
 C 0.29997 0.97033 0.29997   0.030297
 C 0.42973 0.97033 0.29997   0.030297
 C 0.29997 0.29997 0.97033   0.030297
 C 0.97033 0.42973 0.29997   0.030297
 C 0.29997 0.29997 0.42973   0.030296
 C 0.42973 0.29997 0.29997   0.030296
 C 0.29997 0.97033 0.42973   0.030297
 C 0.97033 0.29997 0.29997   0.030297
 C 0.29997 0.42973 0.97033   0.030297
 C 0.70003 0.57027 0.02967   0.030296
 C 0.57027 0.70003 0.70003   0.030296
 C 0.70003 0.02967 0.57027   0.030296
 C 0.02967 0.70003 0.70003   0.030297
 C 0.02967 0.57027 0.70003   0.030297
 C 0.70003 0.70003 0.02967   0.030297
 C 0.57027 0.02967 0.70003   0.030297
 C 0.70003 0.70003 0.57027   0.030296
 C 0.70003 0.57027 0.70003   0.030296
 C 0.02967 0.70003 0.57027   0.030297
 C 0.70003 0.02967 0.70003   0.030297
 C 0.57027 0.70003 0.02967   0.030297
 O 0.38726 0.5083 0.97926   -0.558994
 O 0.5083 0.38726 0.12518   -0.558994
 O 0.97926 0.12518 0.38726   -0.558994
 O 0.12518 0.97926 0.5083   -0.558994
 O 0.38726 0.97926 0.12518   -0.558994
 O 0.5083 0.12518 0.97926   -0.558994
 O 0.97926 0.38726 0.5083   -0.558994
 O 0.12518 0.5083 0.38726   -0.558994
 O 0.38726 0.12518 0.5083   -0.558994
 O 0.5083 0.97926 0.38726   -0.558994
 O 0.97926 0.5083 0.12518   -0.558994
 O 0.12518 0.38726 0.97926   -0.558994
 O 0.4917 0.61274 0.02074   -0.558994
 O 0.61274 0.4917 0.87482   -0.558994
 O 0.87482 0.02074 0.61274   -0.558994
 O 0.02074 0.87482 0.4917   -0.558994
 O 0.02074 0.61274 0.87482   -0.558994
 O 0.87482 0.4917 0.02074   -0.558994
 O 0.61274 0.02074 0.4917   -0.558994
 O 0.4917 0.87482 0.61274   -0.558994
 O 0.87482 0.61274 0.4917   -0.558994
 O 0.02074 0.4917 0.61274   -0.558994
 O 0.4917 0.02074 0.87482   -0.558994
 O 0.61274 0.87482 0.02074   -0.558994
 O 0.61274 0.4917 0.02074   -0.558994
 O 0.4917 0.61274 0.87482   -0.558994
 O 0.02074 0.87482 0.61274   -0.558994
 O 0.87482 0.02074 0.4917   -0.558994
 O 0.61274 0.02074 0.87482   -0.558994
 O 0.4917 0.87482 0.02074   -0.558994
 O 0.02074 0.61274 0.4917   -0.558994
 O 0.87482 0.4917 0.61274   -0.558994
 O 0.61274 0.87482 0.4917   -0.558994
 O 0.4917 0.02074 0.61274   -0.558994
 O 0.02074 0.4917 0.87482   -0.558994
 O 0.87482 0.61274 0.02074   -0.558994
 O 0.5083 0.38726 0.97926   -0.558994
 O 0.38726 0.5083 0.12518   -0.558994
 O 0.12518 0.97926 0.38726   -0.558994
 O 0.97926 0.12518 0.5083   -0.558994
 O 0.97926 0.38726 0.12518   -0.558994
 O 0.12518 0.5083 0.97926   -0.558994
 O 0.38726 0.97926 0.5083   -0.558994
 O 0.5083 0.12518 0.38726   -0.558994
 O 0.12518 0.38726 0.5083   -0.558994
 O 0.97926 0.5083 0.38726   -0.558994
 O 0.5083 0.97926 0.12518   -0.558994
 O 0.38726 0.12518 0.97926   -0.558994
