{'_ref': 'TBD', '_srcid': 'CAKYAQ_clean', 'submitters': [{'name': 'Dalar Nazarian Jeff Camp and David Sholl', 'email': 'dalar@gatech.edu jcamp6@gatech.edu'}], '_method': 'VASP DFT with PBE;DDEC'}
data_CuH2(C3O2)2
_symmetry_space_group_name_H-M   'P 1'
_cell_length_a   18.55410005
_cell_length_b   18.55409974
_cell_length_c   18.55410000
_cell_angle_alpha   59.99999953
_cell_angle_beta   60.00000009
_cell_angle_gamma   60.00000053
_symmetry_Int_Tables_number   1
_chemical_formula_structural   CuH2(C3O2)2
_chemical_formula_sum   'Cu12 H24 C72 O48'
_cell_volume   4516.52768287
_cell_formula_units_Z   12
loop_
 _symmetry_equiv_pos_site_id
 _symmetry_equiv_pos_as_xyz
  1  'x, y, z'
loop_
 _atom_site_label
 _atom_site_fract_x
 _atom_site_fract_y
 _atom_site_fract_z
 _atom_site_charge
 Cu 0.43226 0.56774 0.0   0.936323
 Cu 0.56774 0.43226 0.0   0.936323
 Cu 0.0 0.0 0.43226   0.936318
 Cu 0.0 0.0 0.56774   0.936318
 Cu 0.43226 0.0 0.0   0.936318
 Cu 0.56774 0.0 0.0   0.936318
 Cu 0.0 0.43226 0.56774   0.936318
 Cu 0.0 0.56774 0.43226   0.936318
 Cu 0.43226 0.0 0.56774   0.936319
 Cu 0.56774 0.0 0.43226   0.936319
 Cu 0.0 0.56774 0.0   0.936318
 Cu 0.0 0.43226 0.0   0.936318
 H 0.4869 0.2719 0.9693   0.111775
 H 0.2719 0.4869 0.2719   0.111775
 H 0.9693 0.2719 0.4869   0.111775
 H 0.2719 0.9693 0.2719   0.111775
 H 0.4869 0.9693 0.2719   0.111775
 H 0.2719 0.2719 0.9693   0.111775
 H 0.9693 0.4869 0.2719   0.111775
 H 0.2719 0.2719 0.4869   0.111775
 H 0.4869 0.2719 0.2719   0.111775
 H 0.2719 0.9693 0.4869   0.111775
 H 0.9693 0.2719 0.2719   0.111775
 H 0.2719 0.4869 0.9693   0.111775
 H 0.7281 0.5131 0.0307   0.111775
 H 0.5131 0.7281 0.7281   0.111775
 H 0.7281 0.0307 0.5131   0.111775
 H 0.0307 0.7281 0.7281   0.111774
 H 0.0307 0.5131 0.7281   0.111775
 H 0.7281 0.7281 0.0307   0.111774
 H 0.5131 0.0307 0.7281   0.111775
 H 0.7281 0.7281 0.5131   0.111775
 H 0.7281 0.5131 0.7281   0.111775
 H 0.0307 0.7281 0.5131   0.111775
 H 0.7281 0.0307 0.7281   0.111775
 H 0.5131 0.7281 0.0307   0.111775
 C 0.3862 0.3862 0.9709   -0.169471
 C 0.431 0.431 0.97446   0.685619
 C 0.3862 0.3862 0.2567   -0.16947
 C 0.431 0.431 0.16354   0.685619
 C 0.9709 0.2567 0.3862   -0.169471
 C 0.97446 0.16354 0.431   0.68562
 C 0.2567 0.9709 0.3862   -0.169471
 C 0.16354 0.97446 0.431   0.68562
 C 0.3862 0.9709 0.2567   -0.169471
 C 0.431 0.97446 0.16354   0.68562
 C 0.3862 0.2567 0.9709   -0.169471
 C 0.431 0.16354 0.97446   0.68562
 C 0.9709 0.3862 0.3862   -0.169471
 C 0.97446 0.431 0.431   0.685621
 C 0.2567 0.3862 0.3862   -0.169471
 C 0.16354 0.431 0.431   0.68562
 C 0.3862 0.2567 0.3862   -0.169471
 C 0.431 0.16354 0.431   0.68562
 C 0.3862 0.9709 0.3862   -0.169471
 C 0.431 0.97446 0.431   0.685621
 C 0.9709 0.3862 0.2567   -0.169471
 C 0.97446 0.431 0.16354   0.68562
 C 0.2567 0.3862 0.9709   -0.169471
 C 0.16354 0.431 0.97446   0.68562
 C 0.6138 0.6138 0.0291   -0.169471
 C 0.569 0.569 0.02554   0.685619
 C 0.6138 0.6138 0.7433   -0.16947
 C 0.569 0.569 0.83646   0.685618
 C 0.7433 0.0291 0.6138   -0.169471
 C 0.83646 0.02554 0.569   0.68562
 C 0.0291 0.7433 0.6138   -0.169471
 C 0.02554 0.83646 0.569   0.68562
 C 0.0291 0.6138 0.7433   -0.169471
 C 0.02554 0.569 0.83646   0.68562
 C 0.7433 0.6138 0.0291   -0.169471
 C 0.83646 0.569 0.02554   0.68562
 C 0.6138 0.0291 0.6138   -0.169471
 C 0.569 0.02554 0.569   0.68562
 C 0.6138 0.7433 0.6138   -0.169471
 C 0.569 0.83646 0.569   0.68562
 C 0.7433 0.6138 0.6138   -0.169471
 C 0.83646 0.569 0.569   0.68562
 C 0.0291 0.6138 0.6138   -0.169471
 C 0.02554 0.569 0.569   0.68562
 C 0.6138 0.0291 0.7433   -0.169471
 C 0.569 0.02554 0.83646   0.68562
 C 0.6138 0.7433 0.0291   -0.169471
 C 0.569 0.83646 0.02554   0.68562
 C 0.42874 0.3005 0.97026   0.041327
 C 0.3005 0.42874 0.3005   0.041326
 C 0.97026 0.3005 0.42874   0.041327
 C 0.3005 0.97026 0.3005   0.041327
 C 0.42874 0.97026 0.3005   0.041327
 C 0.3005 0.3005 0.97026   0.041327
 C 0.97026 0.42874 0.3005   0.041327
 C 0.3005 0.3005 0.42874   0.041326
 C 0.42874 0.3005 0.3005   0.041326
 C 0.3005 0.97026 0.42874   0.041327
 C 0.97026 0.3005 0.3005   0.041327
 C 0.3005 0.42874 0.97026   0.041327
 C 0.6995 0.57126 0.02974   0.041326
 C 0.57126 0.6995 0.6995   0.041326
 C 0.6995 0.02974 0.57126   0.041327
 C 0.02974 0.6995 0.6995   0.041327
 C 0.02974 0.57126 0.6995   0.041327
 C 0.6995 0.6995 0.02974   0.041327
 C 0.57126 0.02974 0.6995   0.041327
 C 0.6995 0.6995 0.57126   0.041326
 C 0.6995 0.57126 0.6995   0.041326
 C 0.02974 0.6995 0.57126   0.041327
 C 0.6995 0.02974 0.6995   0.041327
 C 0.57126 0.6995 0.02974   0.041327
 O 0.38766 0.50766 0.97922   -0.568706
 O 0.50766 0.38766 0.12546   -0.568705
 O 0.97922 0.12546 0.38766   -0.568705
 O 0.12546 0.97922 0.50766   -0.568705
 O 0.38766 0.97922 0.12546   -0.568705
 O 0.50766 0.12546 0.97922   -0.568705
 O 0.97922 0.38766 0.50766   -0.568705
 O 0.12546 0.50766 0.38766   -0.568705
 O 0.38766 0.12546 0.50766   -0.568705
 O 0.50766 0.97922 0.38766   -0.568705
 O 0.97922 0.50766 0.12546   -0.568705
 O 0.12546 0.38766 0.97922   -0.568705
 O 0.49234 0.61234 0.02078   -0.568705
 O 0.61234 0.49234 0.87454   -0.568705
 O 0.87454 0.02078 0.61234   -0.568705
 O 0.02078 0.87454 0.49234   -0.568705
 O 0.02078 0.61234 0.87454   -0.568705
 O 0.87454 0.49234 0.02078   -0.568705
 O 0.61234 0.02078 0.49234   -0.568705
 O 0.49234 0.87454 0.61234   -0.568705
 O 0.87454 0.61234 0.49234   -0.568705
 O 0.02078 0.49234 0.61234   -0.568705
 O 0.49234 0.02078 0.87454   -0.568705
 O 0.61234 0.87454 0.02078   -0.568705
 O 0.61234 0.49234 0.02078   -0.568706
 O 0.49234 0.61234 0.87454   -0.568705
 O 0.02078 0.87454 0.61234   -0.568705
 O 0.87454 0.02078 0.49234   -0.568705
 O 0.61234 0.02078 0.87454   -0.568705
 O 0.49234 0.87454 0.02078   -0.568705
 O 0.02078 0.61234 0.49234   -0.568705
 O 0.87454 0.49234 0.61234   -0.568705
 O 0.61234 0.87454 0.49234   -0.568705
 O 0.49234 0.02078 0.61234   -0.568705
 O 0.02078 0.49234 0.87454   -0.568705
 O 0.87454 0.61234 0.02078   -0.568705
 O 0.50766 0.38766 0.97922   -0.568705
 O 0.38766 0.50766 0.12546   -0.568705
 O 0.12546 0.97922 0.38766   -0.568705
 O 0.97922 0.12546 0.50766   -0.568705
 O 0.97922 0.38766 0.12546   -0.568705
 O 0.12546 0.50766 0.97922   -0.568705
 O 0.38766 0.97922 0.50766   -0.568705
 O 0.50766 0.12546 0.38766   -0.568705
 O 0.12546 0.38766 0.50766   -0.568705
 O 0.97922 0.50766 0.38766   -0.568705
 O 0.50766 0.97922 0.12546   -0.568705
 O 0.38766 0.12546 0.97922   -0.568705
