{'_ref': 'TBD', '_srcid': 'CAKYAQ_clean', 'submitters': [{'name': 'Dalar Nazarian Jeff Camp and David Sholl', 'email': 'dalar@gatech.edu jcamp6@gatech.edu'}], '_method': 'VASP DFT with PBE;DDEC'}
data_CuH2(C3O2)2
_symmetry_space_group_name_H-M   'P 1'
_cell_length_a   18.56859973
_cell_length_b   18.56859963
_cell_length_c   18.56860000
_cell_angle_alpha   59.99999935
_cell_angle_beta   59.99999952
_cell_angle_gamma   59.99999951
_symmetry_Int_Tables_number   1
_chemical_formula_structural   CuH2(C3O2)2
_chemical_formula_sum   'Cu12 H24 C72 O48'
_cell_volume   4527.12477465
_cell_formula_units_Z   12
loop_
 _symmetry_equiv_pos_site_id
 _symmetry_equiv_pos_as_xyz
  1  'x, y, z'
loop_
 _atom_site_label
 _atom_site_fract_x
 _atom_site_fract_y
 _atom_site_fract_z
 _atom_site_charge
 Cu 0.43267 0.56733 0.0   0.930968
 Cu 0.56733 0.43267 0.0   0.930968
 Cu 0.0 0.0 0.43267   0.930967
 Cu 0.0 0.0 0.56733   0.930967
 Cu 0.43267 0.0 0.0   0.930967
 Cu 0.56733 0.0 0.0   0.930968
 Cu 0.0 0.43267 0.56733   0.930968
 Cu 0.0 0.56733 0.43267   0.930968
 Cu 0.43267 0.0 0.56733   0.930968
 Cu 0.56733 0.0 0.43267   0.930968
 Cu 0.0 0.56733 0.0   0.930968
 Cu 0.0 0.43267 0.0   0.930968
 H 0.4868 0.2712 0.9708   0.111989
 H 0.2712 0.4868 0.2712   0.111989
 H 0.9708 0.2712 0.4868   0.111989
 H 0.2712 0.9708 0.2712   0.111989
 H 0.4868 0.9708 0.2712   0.111989
 H 0.2712 0.2712 0.9708   0.111989
 H 0.9708 0.4868 0.2712   0.111989
 H 0.2712 0.2712 0.4868   0.111989
 H 0.4868 0.2712 0.2712   0.111989
 H 0.2712 0.9708 0.4868   0.111989
 H 0.9708 0.2712 0.2712   0.111989
 H 0.2712 0.4868 0.9708   0.111989
 H 0.7288 0.5132 0.0292   0.111989
 H 0.5132 0.7288 0.7288   0.111989
 H 0.7288 0.0292 0.5132   0.111989
 H 0.0292 0.7288 0.7288   0.111989
 H 0.0292 0.5132 0.7288   0.111989
 H 0.7288 0.7288 0.0292   0.111989
 H 0.5132 0.0292 0.7288   0.111989
 H 0.7288 0.7288 0.5132   0.111989
 H 0.7288 0.5132 0.7288   0.111989
 H 0.0292 0.7288 0.5132   0.111989
 H 0.7288 0.0292 0.7288   0.111989
 H 0.5132 0.7288 0.0292   0.111989
 C 0.38642 0.38642 0.97088   -0.17178
 C 0.43085 0.43085 0.97563   0.682756
 C 0.38642 0.38642 0.25628   -0.17178
 C 0.43085 0.43085 0.16267   0.682756
 C 0.97088 0.25628 0.38642   -0.17178
 C 0.97563 0.16267 0.43085   0.682756
 C 0.25628 0.97088 0.38642   -0.17178
 C 0.16267 0.97563 0.43085   0.682756
 C 0.38642 0.97088 0.25628   -0.17178
 C 0.43085 0.97563 0.16267   0.682756
 C 0.38642 0.25628 0.97088   -0.17178
 C 0.43085 0.16267 0.97563   0.682756
 C 0.97088 0.38642 0.38642   -0.17178
 C 0.97563 0.43085 0.43085   0.682756
 C 0.25628 0.38642 0.38642   -0.17178
 C 0.16267 0.43085 0.43085   0.682756
 C 0.38642 0.25628 0.38642   -0.17178
 C 0.43085 0.16267 0.43085   0.682756
 C 0.38642 0.97088 0.38642   -0.17178
 C 0.43085 0.97563 0.43085   0.682756
 C 0.97088 0.38642 0.25628   -0.17178
 C 0.97563 0.43085 0.16267   0.682756
 C 0.25628 0.38642 0.97088   -0.17178
 C 0.16267 0.43085 0.97563   0.682756
 C 0.61358 0.61358 0.02912   -0.17178
 C 0.56915 0.56915 0.02437   0.682756
 C 0.61358 0.61358 0.74372   -0.17178
 C 0.56915 0.56915 0.83733   0.682755
 C 0.74372 0.02912 0.61358   -0.17178
 C 0.83733 0.02437 0.56915   0.682756
 C 0.02912 0.74372 0.61358   -0.17178
 C 0.02437 0.83733 0.56915   0.682756
 C 0.02912 0.61358 0.74372   -0.17178
 C 0.02437 0.56915 0.83733   0.682756
 C 0.74372 0.61358 0.02912   -0.17178
 C 0.83733 0.56915 0.02437   0.682756
 C 0.61358 0.02912 0.61358   -0.17178
 C 0.56915 0.02437 0.56915   0.682756
 C 0.61358 0.74372 0.61358   -0.17178
 C 0.56915 0.83733 0.56915   0.682756
 C 0.74372 0.61358 0.61358   -0.17178
 C 0.83733 0.56915 0.56915   0.682756
 C 0.02912 0.61358 0.61358   -0.17178
 C 0.02437 0.56915 0.56915   0.682756
 C 0.61358 0.02912 0.74372   -0.17178
 C 0.56915 0.02437 0.83733   0.682756
 C 0.61358 0.74372 0.02912   -0.17178
 C 0.56915 0.83733 0.02437   0.682756
 C 0.4289 0.3001 0.9709   0.042032
 C 0.3001 0.4289 0.3001   0.042031
 C 0.9709 0.3001 0.4289   0.042032
 C 0.3001 0.9709 0.3001   0.042032
 C 0.4289 0.9709 0.3001   0.042032
 C 0.3001 0.3001 0.9709   0.042032
 C 0.9709 0.4289 0.3001   0.042032
 C 0.3001 0.3001 0.4289   0.042031
 C 0.4289 0.3001 0.3001   0.042031
 C 0.3001 0.9709 0.4289   0.042032
 C 0.9709 0.3001 0.3001   0.042032
 C 0.3001 0.4289 0.9709   0.042032
 C 0.6999 0.5711 0.0291   0.042031
 C 0.5711 0.6999 0.6999   0.042031
 C 0.6999 0.0291 0.5711   0.042031
 C 0.0291 0.6999 0.6999   0.042032
 C 0.0291 0.5711 0.6999   0.042032
 C 0.6999 0.6999 0.0291   0.042032
 C 0.5711 0.0291 0.6999   0.042032
 C 0.6999 0.6999 0.5711   0.042031
 C 0.6999 0.5711 0.6999   0.042031
 C 0.0291 0.6999 0.5711   0.042032
 C 0.6999 0.0291 0.6999   0.042032
 C 0.5711 0.6999 0.0291   0.042032
 O 0.38767 0.50791 0.97923   -0.56524
 O 0.50791 0.38767 0.12519   -0.56524
 O 0.97923 0.12519 0.38767   -0.56524
 O 0.12519 0.97923 0.50791   -0.56524
 O 0.38767 0.97923 0.12519   -0.56524
 O 0.50791 0.12519 0.97923   -0.56524
 O 0.97923 0.38767 0.50791   -0.56524
 O 0.12519 0.50791 0.38767   -0.56524
 O 0.38767 0.12519 0.50791   -0.56524
 O 0.50791 0.97923 0.38767   -0.56524
 O 0.97923 0.50791 0.12519   -0.56524
 O 0.12519 0.38767 0.97923   -0.56524
 O 0.49209 0.61233 0.02077   -0.56524
 O 0.61233 0.49209 0.87481   -0.56524
 O 0.87481 0.02077 0.61233   -0.56524
 O 0.02077 0.87481 0.49209   -0.56524
 O 0.02077 0.61233 0.87481   -0.56524
 O 0.87481 0.49209 0.02077   -0.56524
 O 0.61233 0.02077 0.49209   -0.56524
 O 0.49209 0.87481 0.61233   -0.56524
 O 0.87481 0.61233 0.49209   -0.56524
 O 0.02077 0.49209 0.61233   -0.56524
 O 0.49209 0.02077 0.87481   -0.56524
 O 0.61233 0.87481 0.02077   -0.56524
 O 0.61233 0.49209 0.02077   -0.56524
 O 0.49209 0.61233 0.87481   -0.56524
 O 0.02077 0.87481 0.61233   -0.56524
 O 0.87481 0.02077 0.49209   -0.56524
 O 0.61233 0.02077 0.87481   -0.56524
 O 0.49209 0.87481 0.02077   -0.56524
 O 0.02077 0.61233 0.49209   -0.56524
 O 0.87481 0.49209 0.61233   -0.56524
 O 0.61233 0.87481 0.49209   -0.56524
 O 0.49209 0.02077 0.61233   -0.56524
 O 0.02077 0.49209 0.87481   -0.56524
 O 0.87481 0.61233 0.02077   -0.56524
 O 0.50791 0.38767 0.97923   -0.56524
 O 0.38767 0.50791 0.12519   -0.56524
 O 0.12519 0.97923 0.38767   -0.56524
 O 0.97923 0.12519 0.50791   -0.56524
 O 0.97923 0.38767 0.12519   -0.56524
 O 0.12519 0.50791 0.97923   -0.56524
 O 0.38767 0.97923 0.50791   -0.56524
 O 0.50791 0.12519 0.38767   -0.56524
 O 0.12519 0.38767 0.50791   -0.56524
 O 0.97923 0.50791 0.38767   -0.56524
 O 0.50791 0.97923 0.12519   -0.56524
 O 0.38767 0.12519 0.97923   -0.56524
