{'_ref': 'TBD', '_srcid': 'CAKYAQ_clean', 'submitters': [{'name': 'Dalar Nazarian Jeff Camp and David Sholl', 'email': 'dalar@gatech.edu jcamp6@gatech.edu'}], '_method': 'VASP DFT with PBE;DDEC'}
data_CuH2(C3O2)2
_symmetry_space_group_name_H-M   'P 1'
_cell_length_a   18.57180035
_cell_length_b   18.57179987
_cell_length_c   18.57180000
_cell_angle_alpha   59.99999978
_cell_angle_beta   60.00000063
_cell_angle_gamma   59.99999957
_symmetry_Int_Tables_number   1
_chemical_formula_structural   CuH2(C3O2)2
_chemical_formula_sum   'Cu12 H24 C72 O48'
_cell_volume   4529.46597522
_cell_formula_units_Z   12
loop_
 _symmetry_equiv_pos_site_id
 _symmetry_equiv_pos_as_xyz
  1  'x, y, z'
loop_
 _atom_site_label
 _atom_site_fract_x
 _atom_site_fract_y
 _atom_site_fract_z
 _atom_site_charge
 Cu 0.43271 0.56729 0.0   0.929311
 Cu 0.56729 0.43271 0.0   0.929311
 Cu 0.0 0.0 0.43271   0.92931
 Cu 0.0 0.0 0.56729   0.92931
 Cu 0.43271 0.0 0.0   0.92931
 Cu 0.56729 0.0 0.0   0.92931
 Cu 0.0 0.43271 0.56729   0.929311
 Cu 0.0 0.56729 0.43271   0.929311
 Cu 0.43271 0.0 0.56729   0.929311
 Cu 0.56729 0.0 0.43271   0.929311
 Cu 0.0 0.56729 0.0   0.92931
 Cu 0.0 0.43271 0.0   0.929311
 H 0.4871 0.2711 0.9707   0.114502
 H 0.2711 0.4871 0.2711   0.114502
 H 0.9707 0.2711 0.4871   0.114502
 H 0.2711 0.9707 0.2711   0.114502
 H 0.4871 0.9707 0.2711   0.114502
 H 0.2711 0.2711 0.9707   0.114502
 H 0.9707 0.4871 0.2711   0.114502
 H 0.2711 0.2711 0.4871   0.114502
 H 0.4871 0.2711 0.2711   0.114502
 H 0.2711 0.9707 0.4871   0.114502
 H 0.9707 0.2711 0.2711   0.114502
 H 0.2711 0.4871 0.9707   0.114502
 H 0.7289 0.5129 0.0293   0.114502
 H 0.5129 0.7289 0.7289   0.114502
 H 0.7289 0.0293 0.5129   0.114502
 H 0.0293 0.7289 0.7289   0.114502
 H 0.0293 0.5129 0.7289   0.114502
 H 0.7289 0.7289 0.0293   0.114502
 H 0.5129 0.0293 0.7289   0.114502
 H 0.7289 0.7289 0.5129   0.114502
 H 0.7289 0.5129 0.7289   0.114502
 H 0.0293 0.7289 0.5129   0.114502
 H 0.7289 0.0293 0.7289   0.114502
 H 0.5129 0.7289 0.0293   0.114502
 C 0.38632 0.38632 0.97086   -0.168507
 C 0.43088 0.43088 0.97564   0.679814
 C 0.38632 0.38632 0.2565   -0.168507
 C 0.43088 0.43088 0.1626   0.679814
 C 0.97086 0.2565 0.38632   -0.168507
 C 0.97564 0.1626 0.43088   0.679814
 C 0.2565 0.97086 0.38632   -0.168507
 C 0.1626 0.97564 0.43088   0.679814
 C 0.38632 0.97086 0.2565   -0.168507
 C 0.43088 0.97564 0.1626   0.679814
 C 0.38632 0.2565 0.97086   -0.168507
 C 0.43088 0.1626 0.97564   0.679814
 C 0.97086 0.38632 0.38632   -0.168507
 C 0.97564 0.43088 0.43088   0.679814
 C 0.2565 0.38632 0.38632   -0.168507
 C 0.1626 0.43088 0.43088   0.679814
 C 0.38632 0.2565 0.38632   -0.168507
 C 0.43088 0.1626 0.43088   0.679814
 C 0.38632 0.97086 0.38632   -0.168507
 C 0.43088 0.97564 0.43088   0.679814
 C 0.97086 0.38632 0.2565   -0.168507
 C 0.97564 0.43088 0.1626   0.679814
 C 0.2565 0.38632 0.97086   -0.168507
 C 0.1626 0.43088 0.97564   0.679814
 C 0.61368 0.61368 0.02914   -0.168507
 C 0.56912 0.56912 0.02436   0.679814
 C 0.61368 0.61368 0.7435   -0.168507
 C 0.56912 0.56912 0.8374   0.679814
 C 0.7435 0.02914 0.61368   -0.168507
 C 0.8374 0.02436 0.56912   0.679814
 C 0.02914 0.7435 0.61368   -0.168507
 C 0.02436 0.8374 0.56912   0.679814
 C 0.02914 0.61368 0.7435   -0.168507
 C 0.02436 0.56912 0.8374   0.679814
 C 0.7435 0.61368 0.02914   -0.168507
 C 0.8374 0.56912 0.02436   0.679814
 C 0.61368 0.02914 0.61368   -0.168507
 C 0.56912 0.02436 0.56912   0.679814
 C 0.61368 0.7435 0.61368   -0.168507
 C 0.56912 0.8374 0.56912   0.679814
 C 0.7435 0.61368 0.61368   -0.168507
 C 0.8374 0.56912 0.56912   0.679814
 C 0.02914 0.61368 0.61368   -0.168507
 C 0.02436 0.56912 0.56912   0.679814
 C 0.61368 0.02914 0.7435   -0.168507
 C 0.56912 0.02436 0.8374   0.679814
 C 0.61368 0.7435 0.02914   -0.168507
 C 0.56912 0.8374 0.02436   0.679814
 C 0.42918 0.30002 0.97078   0.03768
 C 0.30002 0.42918 0.30002   0.03768
 C 0.97078 0.30002 0.42918   0.03768
 C 0.30002 0.97078 0.30002   0.037681
 C 0.42918 0.97078 0.30002   0.03768
 C 0.30002 0.30002 0.97078   0.037681
 C 0.97078 0.42918 0.30002   0.03768
 C 0.30002 0.30002 0.42918   0.03768
 C 0.42918 0.30002 0.30002   0.03768
 C 0.30002 0.97078 0.42918   0.03768
 C 0.97078 0.30002 0.30002   0.037681
 C 0.30002 0.42918 0.97078   0.03768
 C 0.69998 0.57082 0.02922   0.03768
 C 0.57082 0.69998 0.69998   0.03768
 C 0.69998 0.02922 0.57082   0.03768
 C 0.02922 0.69998 0.69998   0.03768
 C 0.02922 0.57082 0.69998   0.03768
 C 0.69998 0.69998 0.02922   0.03768
 C 0.57082 0.02922 0.69998   0.03768
 C 0.69998 0.69998 0.57082   0.03768
 C 0.69998 0.57082 0.69998   0.03768
 C 0.02922 0.69998 0.57082   0.03768
 C 0.69998 0.02922 0.69998   0.03768
 C 0.57082 0.69998 0.02922   0.03768
 O 0.38761 0.50791 0.97929   -0.564073
 O 0.50791 0.38761 0.12519   -0.564072
 O 0.97929 0.12519 0.38761   -0.564072
 O 0.12519 0.97929 0.50791   -0.564072
 O 0.38761 0.97929 0.12519   -0.564072
 O 0.50791 0.12519 0.97929   -0.564072
 O 0.97929 0.38761 0.50791   -0.564073
 O 0.12519 0.50791 0.38761   -0.564072
 O 0.38761 0.12519 0.50791   -0.564072
 O 0.50791 0.97929 0.38761   -0.564073
 O 0.97929 0.50791 0.12519   -0.564072
 O 0.12519 0.38761 0.97929   -0.564072
 O 0.49209 0.61239 0.02071   -0.564073
 O 0.61239 0.49209 0.87481   -0.564072
 O 0.87481 0.02071 0.61239   -0.564072
 O 0.02071 0.87481 0.49209   -0.564072
 O 0.02071 0.61239 0.87481   -0.564072
 O 0.87481 0.49209 0.02071   -0.564072
 O 0.61239 0.02071 0.49209   -0.564073
 O 0.49209 0.87481 0.61239   -0.564072
 O 0.87481 0.61239 0.49209   -0.564072
 O 0.02071 0.49209 0.61239   -0.564073
 O 0.49209 0.02071 0.87481   -0.564072
 O 0.61239 0.87481 0.02071   -0.564072
 O 0.61239 0.49209 0.02071   -0.564073
 O 0.49209 0.61239 0.87481   -0.564072
 O 0.02071 0.87481 0.61239   -0.564072
 O 0.87481 0.02071 0.49209   -0.564072
 O 0.61239 0.02071 0.87481   -0.564072
 O 0.49209 0.87481 0.02071   -0.564072
 O 0.02071 0.61239 0.49209   -0.564073
 O 0.87481 0.49209 0.61239   -0.564072
 O 0.61239 0.87481 0.49209   -0.564072
 O 0.49209 0.02071 0.61239   -0.564073
 O 0.02071 0.49209 0.87481   -0.564072
 O 0.87481 0.61239 0.02071   -0.564072
 O 0.50791 0.38761 0.97929   -0.564073
 O 0.38761 0.50791 0.12519   -0.564072
 O 0.12519 0.97929 0.38761   -0.564072
 O 0.97929 0.12519 0.50791   -0.564072
 O 0.97929 0.38761 0.12519   -0.564072
 O 0.12519 0.50791 0.97929   -0.564072
 O 0.38761 0.97929 0.50791   -0.564073
 O 0.50791 0.12519 0.38761   -0.564072
 O 0.12519 0.38761 0.50791   -0.564072
 O 0.97929 0.50791 0.38761   -0.564073
 O 0.50791 0.97929 0.12519   -0.564072
 O 0.38761 0.12519 0.97929   -0.564072
