{'_ref': 'TBD', '_srcid': 'CAKYAQ_clean', 'submitters': [{'name': 'Dalar Nazarian Jeff Camp and David Sholl', 'email': 'dalar@gatech.edu jcamp6@gatech.edu'}], '_method': 'VASP DFT with PBE;DDEC'}
data_CuH2(C3O2)2
_symmetry_space_group_name_H-M   'P 1'
_cell_length_a   18.56900024
_cell_length_b   18.56900011
_cell_length_c   18.56900000
_cell_angle_alpha   60.00000020
_cell_angle_beta   60.00000043
_cell_angle_gamma   59.99999903
_symmetry_Int_Tables_number   1
_chemical_formula_structural   CuH2(C3O2)2
_chemical_formula_sum   'Cu12 H24 C72 O48'
_cell_volume   4527.41763334
_cell_formula_units_Z   12
loop_
 _symmetry_equiv_pos_site_id
 _symmetry_equiv_pos_as_xyz
  1  'x, y, z'
loop_
 _atom_site_label
 _atom_site_fract_x
 _atom_site_fract_y
 _atom_site_fract_z
 _atom_site_charge
 Cu 0.43266 0.56734 0.0   0.928547
 Cu 0.56734 0.43266 0.0   0.928546
 Cu 0.0 0.0 0.43266   0.928546
 Cu 0.0 0.0 0.56734   0.928546
 Cu 0.43266 0.0 0.0   0.928546
 Cu 0.56734 0.0 0.0   0.928546
 Cu 0.0 0.43266 0.56734   0.928547
 Cu 0.0 0.56734 0.43266   0.928546
 Cu 0.43266 0.0 0.56734   0.928547
 Cu 0.56734 0.0 0.43266   0.928547
 Cu 0.0 0.56734 0.0   0.928546
 Cu 0.0 0.43266 0.0   0.928546
 H 0.4869 0.2711 0.9709   0.112729
 H 0.2711 0.4869 0.2711   0.112729
 H 0.9709 0.2711 0.4869   0.112729
 H 0.2711 0.9709 0.2711   0.112729
 H 0.4869 0.9709 0.2711   0.112729
 H 0.2711 0.2711 0.9709   0.112729
 H 0.9709 0.4869 0.2711   0.112729
 H 0.2711 0.2711 0.4869   0.112729
 H 0.4869 0.2711 0.2711   0.112729
 H 0.2711 0.9709 0.4869   0.112729
 H 0.9709 0.2711 0.2711   0.112729
 H 0.2711 0.4869 0.9709   0.112729
 H 0.7289 0.5131 0.0291   0.112729
 H 0.5131 0.7289 0.7289   0.112729
 H 0.7289 0.0291 0.5131   0.112729
 H 0.0291 0.7289 0.7289   0.112729
 H 0.0291 0.5131 0.7289   0.112729
 H 0.7289 0.7289 0.0291   0.112729
 H 0.5131 0.0291 0.7289   0.112729
 H 0.7289 0.7289 0.5131   0.112729
 H 0.7289 0.5131 0.7289   0.112729
 H 0.0291 0.7289 0.5131   0.112729
 H 0.7289 0.0291 0.7289   0.112729
 H 0.5131 0.7289 0.0291   0.112729
 C 0.38635 0.38635 0.97079   -0.169384
 C 0.43096 0.43096 0.9756   0.680888
 C 0.38635 0.38635 0.25651   -0.169384
 C 0.43096 0.43096 0.16248   0.680887
 C 0.97079 0.25651 0.38635   -0.169384
 C 0.9756 0.16248 0.43096   0.680888
 C 0.25651 0.97079 0.38635   -0.169384
 C 0.16248 0.9756 0.43096   0.680888
 C 0.38635 0.97079 0.25651   -0.169384
 C 0.43096 0.9756 0.16248   0.680888
 C 0.38635 0.25651 0.97079   -0.169385
 C 0.43096 0.16248 0.9756   0.680888
 C 0.97079 0.38635 0.38635   -0.169385
 C 0.9756 0.43096 0.43096   0.680889
 C 0.25651 0.38635 0.38635   -0.169385
 C 0.16248 0.43096 0.43096   0.680888
 C 0.38635 0.25651 0.38635   -0.169384
 C 0.43096 0.16248 0.43096   0.680888
 C 0.38635 0.97079 0.38635   -0.169384
 C 0.43096 0.9756 0.43096   0.680888
 C 0.97079 0.38635 0.25651   -0.169386
 C 0.9756 0.43096 0.16248   0.680888
 C 0.25651 0.38635 0.97079   -0.169386
 C 0.16248 0.43096 0.9756   0.680888
 C 0.61365 0.61365 0.02921   -0.169384
 C 0.56904 0.56904 0.0244   0.680888
 C 0.61365 0.61365 0.74349   -0.169384
 C 0.56904 0.56904 0.83752   0.680887
 C 0.74349 0.02921 0.61365   -0.169384
 C 0.83752 0.0244 0.56904   0.680887
 C 0.02921 0.74349 0.61365   -0.169384
 C 0.0244 0.83752 0.56904   0.680887
 C 0.02921 0.61365 0.74349   -0.169386
 C 0.0244 0.56904 0.83752   0.680888
 C 0.74349 0.61365 0.02921   -0.169386
 C 0.83752 0.56904 0.0244   0.680888
 C 0.61365 0.02921 0.61365   -0.169384
 C 0.56904 0.0244 0.56904   0.680888
 C 0.61365 0.74349 0.61365   -0.169384
 C 0.56904 0.83752 0.56904   0.680888
 C 0.74349 0.61365 0.61365   -0.169385
 C 0.83752 0.56904 0.56904   0.680888
 C 0.02921 0.61365 0.61365   -0.169385
 C 0.0244 0.56904 0.56904   0.680888
 C 0.61365 0.02921 0.74349   -0.169384
 C 0.56904 0.0244 0.83752   0.680887
 C 0.61365 0.74349 0.02921   -0.169385
 C 0.56904 0.83752 0.0244   0.680888
 C 0.42902 0.30008 0.97082   0.038845
 C 0.30008 0.42902 0.30008   0.038845
 C 0.97082 0.30008 0.42902   0.038846
 C 0.30008 0.97082 0.30008   0.038846
 C 0.42902 0.97082 0.30008   0.038845
 C 0.30008 0.30008 0.97082   0.038846
 C 0.97082 0.42902 0.30008   0.038846
 C 0.30008 0.30008 0.42902   0.038845
 C 0.42902 0.30008 0.30008   0.038845
 C 0.30008 0.97082 0.42902   0.038845
 C 0.97082 0.30008 0.30008   0.038846
 C 0.30008 0.42902 0.97082   0.038846
 C 0.69992 0.57098 0.02918   0.038845
 C 0.57098 0.69992 0.69992   0.038845
 C 0.69992 0.02918 0.57098   0.038845
 C 0.02918 0.69992 0.69992   0.038846
 C 0.02918 0.57098 0.69992   0.038846
 C 0.69992 0.69992 0.02918   0.038846
 C 0.57098 0.02918 0.69992   0.038845
 C 0.69992 0.69992 0.57098   0.038845
 C 0.69992 0.57098 0.69992   0.038845
 C 0.02918 0.69992 0.57098   0.038845
 C 0.69992 0.02918 0.69992   0.038845
 C 0.57098 0.69992 0.02918   0.038845
 O 0.38771 0.50785 0.97919   -0.563676
 O 0.50785 0.38771 0.12525   -0.563675
 O 0.97919 0.12525 0.38771   -0.563676
 O 0.12525 0.97919 0.50785   -0.563675
 O 0.38771 0.97919 0.12525   -0.563676
 O 0.50785 0.12525 0.97919   -0.563675
 O 0.97919 0.38771 0.50785   -0.563676
 O 0.12525 0.50785 0.38771   -0.563675
 O 0.38771 0.12525 0.50785   -0.563675
 O 0.50785 0.97919 0.38771   -0.563676
 O 0.97919 0.50785 0.12525   -0.563675
 O 0.12525 0.38771 0.97919   -0.563676
 O 0.49215 0.61229 0.02081   -0.563676
 O 0.61229 0.49215 0.87475   -0.563675
 O 0.87475 0.02081 0.61229   -0.563675
 O 0.02081 0.87475 0.49215   -0.563675
 O 0.02081 0.61229 0.87475   -0.563676
 O 0.87475 0.49215 0.02081   -0.563675
 O 0.61229 0.02081 0.49215   -0.563676
 O 0.49215 0.87475 0.61229   -0.563675
 O 0.87475 0.61229 0.49215   -0.563675
 O 0.02081 0.49215 0.61229   -0.563676
 O 0.49215 0.02081 0.87475   -0.563675
 O 0.61229 0.87475 0.02081   -0.563675
 O 0.61229 0.49215 0.02081   -0.563676
 O 0.49215 0.61229 0.87475   -0.563675
 O 0.02081 0.87475 0.61229   -0.563676
 O 0.87475 0.02081 0.49215   -0.563675
 O 0.61229 0.02081 0.87475   -0.563676
 O 0.49215 0.87475 0.02081   -0.563676
 O 0.02081 0.61229 0.49215   -0.563676
 O 0.87475 0.49215 0.61229   -0.563675
 O 0.61229 0.87475 0.49215   -0.563675
 O 0.49215 0.02081 0.61229   -0.563676
 O 0.02081 0.49215 0.87475   -0.563675
 O 0.87475 0.61229 0.02081   -0.563676
 O 0.50785 0.38771 0.97919   -0.563676
 O 0.38771 0.50785 0.12525   -0.563675
 O 0.12525 0.97919 0.38771   -0.563676
 O 0.97919 0.12525 0.50785   -0.563675
 O 0.97919 0.38771 0.12525   -0.563676
 O 0.12525 0.50785 0.97919   -0.563676
 O 0.38771 0.97919 0.50785   -0.563676
 O 0.50785 0.12525 0.38771   -0.563675
 O 0.12525 0.38771 0.50785   -0.563675
 O 0.97919 0.50785 0.38771   -0.563676
 O 0.50785 0.97919 0.12525   -0.563675
 O 0.38771 0.12525 0.97919   -0.563676
