{'_ref': 'TBD', '_srcid': 'CAKYAQ_clean', 'submitters': [{'name': 'Dalar Nazarian Jeff Camp and David Sholl', 'email': 'dalar@gatech.edu jcamp6@gatech.edu'}], '_method': 'VASP DFT with PBE;DDEC'}
data_CuH2(C3O2)2
_symmetry_space_group_name_H-M   'P 1'
_cell_length_a   18.55920028
_cell_length_b   18.55919985
_cell_length_c   18.55920000
_cell_angle_alpha   59.99999973
_cell_angle_beta   60.00000050
_cell_angle_gamma   59.99999853
_symmetry_Int_Tables_number   1
_chemical_formula_structural   CuH2(C3O2)2
_chemical_formula_sum   'Cu12 H24 C72 O48'
_cell_volume   4520.25314234
_cell_formula_units_Z   12
loop_
 _symmetry_equiv_pos_site_id
 _symmetry_equiv_pos_as_xyz
  1  'x, y, z'
loop_
 _atom_site_label
 _atom_site_fract_x
 _atom_site_fract_y
 _atom_site_fract_z
 _atom_site_charge
 Cu 0.43138 0.56862 0.0   0.948424
 Cu 0.56862 0.43138 0.0   0.948424
 Cu 0.0 0.0 0.43138   0.948423
 Cu 0.0 0.0 0.56862   0.948424
 Cu 0.43138 0.0 0.0   0.948424
 Cu 0.56862 0.0 0.0   0.948424
 Cu 0.0 0.43138 0.56862   0.948424
 Cu 0.0 0.56862 0.43138   0.948424
 Cu 0.43138 0.0 0.56862   0.948424
 Cu 0.56862 0.0 0.43138   0.948424
 Cu 0.0 0.56862 0.0   0.948424
 Cu 0.0 0.43138 0.0   0.948424
 H 0.4879 0.2721 0.9679   0.112602
 H 0.2721 0.4879 0.2721   0.112602
 H 0.9679 0.2721 0.4879   0.112602
 H 0.2721 0.9679 0.2721   0.112602
 H 0.4879 0.9679 0.2721   0.112602
 H 0.2721 0.2721 0.9679   0.112602
 H 0.9679 0.4879 0.2721   0.112602
 H 0.2721 0.2721 0.4879   0.112602
 H 0.4879 0.2721 0.2721   0.112602
 H 0.2721 0.9679 0.4879   0.112602
 H 0.9679 0.2721 0.2721   0.112602
 H 0.2721 0.4879 0.9679   0.112602
 H 0.7279 0.5121 0.0321   0.112602
 H 0.5121 0.7279 0.7279   0.112602
 H 0.7279 0.0321 0.5121   0.112602
 H 0.0321 0.7279 0.7279   0.112602
 H 0.0321 0.5121 0.7279   0.112602
 H 0.7279 0.7279 0.0321   0.112602
 H 0.5121 0.0321 0.7279   0.112602
 H 0.7279 0.7279 0.5121   0.112602
 H 0.7279 0.5121 0.7279   0.112602
 H 0.0321 0.7279 0.5121   0.112602
 H 0.7279 0.0321 0.7279   0.112602
 H 0.5121 0.7279 0.0321   0.112602
 C 0.3865 0.3865 0.9715   -0.174958
 C 0.4312 0.4312 0.974   0.688969
 C 0.3865 0.3865 0.2555   -0.174958
 C 0.4312 0.4312 0.1636   0.688969
 C 0.9715 0.2555 0.3865   -0.174958
 C 0.974 0.1636 0.4312   0.688969
 C 0.2555 0.9715 0.3865   -0.174958
 C 0.1636 0.974 0.4312   0.688969
 C 0.3865 0.9715 0.2555   -0.174958
 C 0.4312 0.974 0.1636   0.688969
 C 0.3865 0.2555 0.9715   -0.174958
 C 0.4312 0.1636 0.974   0.688969
 C 0.9715 0.3865 0.3865   -0.174958
 C 0.974 0.4312 0.4312   0.688969
 C 0.2555 0.3865 0.3865   -0.174958
 C 0.1636 0.4312 0.4312   0.688969
 C 0.3865 0.2555 0.3865   -0.174958
 C 0.4312 0.1636 0.4312   0.688969
 C 0.3865 0.9715 0.3865   -0.174958
 C 0.4312 0.974 0.4312   0.688969
 C 0.9715 0.3865 0.2555   -0.174958
 C 0.974 0.4312 0.1636   0.688969
 C 0.2555 0.3865 0.9715   -0.174958
 C 0.1636 0.4312 0.974   0.688969
 C 0.6135 0.6135 0.0285   -0.174958
 C 0.5688 0.5688 0.026   0.688969
 C 0.6135 0.6135 0.7445   -0.174958
 C 0.5688 0.5688 0.8364   0.688969
 C 0.7445 0.0285 0.6135   -0.174958
 C 0.8364 0.026 0.5688   0.688969
 C 0.0285 0.7445 0.6135   -0.174958
 C 0.026 0.8364 0.5688   0.688969
 C 0.0285 0.6135 0.7445   -0.174958
 C 0.026 0.5688 0.8364   0.688969
 C 0.7445 0.6135 0.0285   -0.174958
 C 0.8364 0.5688 0.026   0.688969
 C 0.6135 0.0285 0.6135   -0.174958
 C 0.5688 0.026 0.5688   0.688969
 C 0.6135 0.7445 0.6135   -0.174958
 C 0.5688 0.8364 0.5688   0.688969
 C 0.7445 0.6135 0.6135   -0.174958
 C 0.8364 0.5688 0.5688   0.688969
 C 0.0285 0.6135 0.6135   -0.174958
 C 0.026 0.5688 0.5688   0.688969
 C 0.6135 0.0285 0.7445   -0.174958
 C 0.5688 0.026 0.8364   0.688969
 C 0.6135 0.7445 0.0285   -0.174958
 C 0.5688 0.8364 0.026   0.688969
 C 0.4295 0.3003 0.9699   0.045665
 C 0.3003 0.4295 0.3003   0.045664
 C 0.9699 0.3003 0.4295   0.045665
 C 0.3003 0.9699 0.3003   0.045665
 C 0.4295 0.9699 0.3003   0.045665
 C 0.3003 0.3003 0.9699   0.045665
 C 0.9699 0.4295 0.3003   0.045665
 C 0.3003 0.3003 0.4295   0.045664
 C 0.4295 0.3003 0.3003   0.045664
 C 0.3003 0.9699 0.4295   0.045665
 C 0.9699 0.3003 0.3003   0.045665
 C 0.3003 0.4295 0.9699   0.045665
 C 0.6997 0.5705 0.0301   0.045665
 C 0.5705 0.6997 0.6997   0.045664
 C 0.6997 0.0301 0.5705   0.045665
 C 0.0301 0.6997 0.6997   0.045665
 C 0.0301 0.5705 0.6997   0.045665
 C 0.6997 0.6997 0.0301   0.045665
 C 0.5705 0.0301 0.6997   0.045665
 C 0.6997 0.6997 0.5705   0.045664
 C 0.6997 0.5705 0.6997   0.045664
 C 0.0301 0.6997 0.5705   0.045665
 C 0.6997 0.0301 0.6997   0.045665
 C 0.5705 0.6997 0.0301   0.045665
 O 0.3876 0.508 0.9794   -0.573245
 O 0.508 0.3876 0.125   -0.573245
 O 0.9794 0.125 0.3876   -0.573245
 O 0.125 0.9794 0.508   -0.573245
 O 0.3876 0.9794 0.125   -0.573245
 O 0.508 0.125 0.9794   -0.573245
 O 0.9794 0.3876 0.508   -0.573245
 O 0.125 0.508 0.3876   -0.573245
 O 0.3876 0.125 0.508   -0.573245
 O 0.508 0.9794 0.3876   -0.573245
 O 0.9794 0.508 0.125   -0.573245
 O 0.125 0.3876 0.9794   -0.573245
 O 0.492 0.6124 0.0206   -0.573245
 O 0.6124 0.492 0.875   -0.573245
 O 0.875 0.0206 0.6124   -0.573245
 O 0.0206 0.875 0.492   -0.573245
 O 0.0206 0.6124 0.875   -0.573245
 O 0.875 0.492 0.0206   -0.573245
 O 0.6124 0.0206 0.492   -0.573245
 O 0.492 0.875 0.6124   -0.573245
 O 0.875 0.6124 0.492   -0.573245
 O 0.0206 0.492 0.6124   -0.573245
 O 0.492 0.0206 0.875   -0.573245
 O 0.6124 0.875 0.0206   -0.573245
 O 0.6124 0.492 0.0206   -0.573245
 O 0.492 0.6124 0.875   -0.573245
 O 0.0206 0.875 0.6124   -0.573245
 O 0.875 0.0206 0.492   -0.573245
 O 0.6124 0.0206 0.875   -0.573245
 O 0.492 0.875 0.0206   -0.573245
 O 0.0206 0.6124 0.492   -0.573245
 O 0.875 0.492 0.6124   -0.573245
 O 0.6124 0.875 0.492   -0.573245
 O 0.492 0.0206 0.6124   -0.573245
 O 0.0206 0.492 0.875   -0.573245
 O 0.875 0.6124 0.0206   -0.573245
 O 0.508 0.3876 0.9794   -0.573245
 O 0.3876 0.508 0.125   -0.573245
 O 0.125 0.9794 0.3876   -0.573245
 O 0.9794 0.125 0.508   -0.573245
 O 0.9794 0.3876 0.125   -0.573245
 O 0.125 0.508 0.9794   -0.573245
 O 0.3876 0.9794 0.508   -0.573245
 O 0.508 0.125 0.3876   -0.573245
 O 0.125 0.3876 0.508   -0.573245
 O 0.9794 0.508 0.3876   -0.573245
 O 0.508 0.9794 0.125   -0.573245
 O 0.3876 0.125 0.9794   -0.573245
