{'_ref': 'TBD', '_srcid': 'CAKYAQ_clean', 'submitters': [{'name': 'Dalar Nazarian Jeff Camp and David Sholl', 'email': 'dalar@gatech.edu jcamp6@gatech.edu'}], '_method': 'VASP DFT with PBE;DDEC'}
data_CuH2(C3O2)2
_symmetry_space_group_name_H-M   'P 1'
_cell_length_a   18.57269999
_cell_length_b   18.57270005
_cell_length_c   18.57270000
_cell_angle_alpha   60.00000010
_cell_angle_beta   59.99999997
_cell_angle_gamma   59.99999908
_symmetry_Int_Tables_number   1
_chemical_formula_structural   CuH2(C3O2)2
_chemical_formula_sum   'Cu12 H24 C72 O48'
_cell_volume   4530.12443526
_cell_formula_units_Z   12
loop_
 _symmetry_equiv_pos_site_id
 _symmetry_equiv_pos_as_xyz
  1  'x, y, z'
loop_
 _atom_site_label
 _atom_site_fract_x
 _atom_site_fract_y
 _atom_site_fract_z
 _atom_site_charge
 Cu 0.43278 0.56722 0.0   0.927454
 Cu 0.56722 0.43278 0.0   0.927453
 Cu 0.0 0.0 0.43278   0.927453
 Cu 0.0 0.0 0.56722   0.927452
 Cu 0.43278 0.0 0.0   0.927454
 Cu 0.56722 0.0 0.0   0.927453
 Cu 0.0 0.43278 0.56722   0.927454
 Cu 0.0 0.56722 0.43278   0.927453
 Cu 0.43278 0.0 0.56722   0.927454
 Cu 0.56722 0.0 0.43278   0.927453
 Cu 0.0 0.56722 0.0   0.927454
 Cu 0.0 0.43278 0.0   0.927453
 H 0.4883 0.2707 0.9703   0.116602
 H 0.2707 0.4883 0.2707   0.116602
 H 0.9703 0.2707 0.4883   0.116602
 H 0.2707 0.9703 0.2707   0.116601
 H 0.4883 0.9703 0.2707   0.116602
 H 0.2707 0.2707 0.9703   0.116602
 H 0.9703 0.4883 0.2707   0.116602
 H 0.2707 0.2707 0.4883   0.116602
 H 0.4883 0.2707 0.2707   0.116602
 H 0.2707 0.9703 0.4883   0.116602
 H 0.9703 0.2707 0.2707   0.116602
 H 0.2707 0.4883 0.9703   0.116602
 H 0.7293 0.5117 0.0297   0.116602
 H 0.5117 0.7293 0.7293   0.116602
 H 0.7293 0.0297 0.5117   0.116601
 H 0.0297 0.7293 0.7293   0.116601
 H 0.0297 0.5117 0.7293   0.116602
 H 0.7293 0.7293 0.0297   0.116602
 H 0.5117 0.0297 0.7293   0.116601
 H 0.7293 0.7293 0.5117   0.116602
 H 0.7293 0.5117 0.7293   0.116602
 H 0.0297 0.7293 0.5117   0.116602
 H 0.7293 0.0297 0.7293   0.116601
 H 0.5117 0.7293 0.0297   0.116602
 C 0.38634 0.38634 0.97078   -0.163491
 C 0.43091 0.43091 0.97581   0.676961
 C 0.38634 0.38634 0.25654   -0.163491
 C 0.43091 0.43091 0.16237   0.67696
 C 0.97078 0.25654 0.38634   -0.163491
 C 0.97581 0.16237 0.43091   0.676961
 C 0.25654 0.97078 0.38634   -0.163491
 C 0.16237 0.97581 0.43091   0.676961
 C 0.38634 0.97078 0.25654   -0.163491
 C 0.43091 0.97581 0.16237   0.676962
 C 0.38634 0.25654 0.97078   -0.16349
 C 0.43091 0.16237 0.97581   0.676962
 C 0.97078 0.38634 0.38634   -0.16349
 C 0.97581 0.43091 0.43091   0.676963
 C 0.25654 0.38634 0.38634   -0.163489
 C 0.16237 0.43091 0.43091   0.676962
 C 0.38634 0.25654 0.38634   -0.163489
 C 0.43091 0.16237 0.43091   0.676962
 C 0.38634 0.97078 0.38634   -0.163491
 C 0.43091 0.97581 0.43091   0.676962
 C 0.97078 0.38634 0.25654   -0.16349
 C 0.97581 0.43091 0.16237   0.676962
 C 0.25654 0.38634 0.97078   -0.16349
 C 0.16237 0.43091 0.97581   0.676962
 C 0.61366 0.61366 0.02922   -0.163491
 C 0.56909 0.56909 0.02419   0.676961
 C 0.61366 0.61366 0.74346   -0.163491
 C 0.56909 0.56909 0.83763   0.67696
 C 0.74346 0.02922 0.61366   -0.163491
 C 0.83763 0.02419 0.56909   0.67696
 C 0.02922 0.74346 0.61366   -0.163491
 C 0.02419 0.83763 0.56909   0.67696
 C 0.02922 0.61366 0.74346   -0.16349
 C 0.02419 0.56909 0.83763   0.676962
 C 0.74346 0.61366 0.02922   -0.16349
 C 0.83763 0.56909 0.02419   0.676962
 C 0.61366 0.02922 0.61366   -0.163491
 C 0.56909 0.02419 0.56909   0.676962
 C 0.61366 0.74346 0.61366   -0.163489
 C 0.56909 0.83763 0.56909   0.676962
 C 0.74346 0.61366 0.61366   -0.163489
 C 0.83763 0.56909 0.56909   0.676962
 C 0.02922 0.61366 0.61366   -0.16349
 C 0.02419 0.56909 0.56909   0.676962
 C 0.61366 0.02922 0.74346   -0.163491
 C 0.56909 0.02419 0.83763   0.676961
 C 0.61366 0.74346 0.02922   -0.16349
 C 0.56909 0.83763 0.02419   0.676962
 C 0.42927 0.30009 0.97055   0.031987
 C 0.30009 0.42927 0.30009   0.031987
 C 0.97055 0.30009 0.42927   0.031987
 C 0.30009 0.97055 0.30009   0.031988
 C 0.42927 0.97055 0.30009   0.031988
 C 0.30009 0.30009 0.97055   0.031986
 C 0.97055 0.42927 0.30009   0.031986
 C 0.30009 0.30009 0.42927   0.031985
 C 0.42927 0.30009 0.30009   0.031987
 C 0.30009 0.97055 0.42927   0.031988
 C 0.97055 0.30009 0.30009   0.031987
 C 0.30009 0.42927 0.97055   0.031987
 C 0.69991 0.57073 0.02945   0.031987
 C 0.57073 0.69991 0.69991   0.031986
 C 0.69991 0.02945 0.57073   0.031987
 C 0.02945 0.69991 0.69991   0.031987
 C 0.02945 0.57073 0.69991   0.031986
 C 0.69991 0.69991 0.02945   0.031986
 C 0.57073 0.02945 0.69991   0.031988
 C 0.69991 0.69991 0.57073   0.031985
 C 0.69991 0.57073 0.69991   0.031986
 C 0.02945 0.69991 0.57073   0.031987
 C 0.69991 0.02945 0.69991   0.031988
 C 0.57073 0.69991 0.02945   0.031987
 O 0.38752 0.5081 0.97926   -0.562893
 O 0.5081 0.38752 0.12512   -0.562893
 O 0.97926 0.12512 0.38752   -0.562893
 O 0.12512 0.97926 0.5081   -0.562893
 O 0.38752 0.97926 0.12512   -0.562893
 O 0.5081 0.12512 0.97926   -0.562893
 O 0.97926 0.38752 0.5081   -0.562894
 O 0.12512 0.5081 0.38752   -0.562893
 O 0.38752 0.12512 0.5081   -0.562893
 O 0.5081 0.97926 0.38752   -0.562893
 O 0.97926 0.5081 0.12512   -0.562894
 O 0.12512 0.38752 0.97926   -0.562893
 O 0.4919 0.61248 0.02074   -0.562893
 O 0.61248 0.4919 0.87488   -0.562892
 O 0.87488 0.02074 0.61248   -0.562893
 O 0.02074 0.87488 0.4919   -0.562893
 O 0.02074 0.61248 0.87488   -0.562894
 O 0.87488 0.4919 0.02074   -0.562893
 O 0.61248 0.02074 0.4919   -0.562893
 O 0.4919 0.87488 0.61248   -0.562893
 O 0.87488 0.61248 0.4919   -0.562893
 O 0.02074 0.4919 0.61248   -0.562894
 O 0.4919 0.02074 0.87488   -0.562893
 O 0.61248 0.87488 0.02074   -0.562893
 O 0.61248 0.4919 0.02074   -0.562893
 O 0.4919 0.61248 0.87488   -0.562893
 O 0.02074 0.87488 0.61248   -0.562893
 O 0.87488 0.02074 0.4919   -0.562893
 O 0.61248 0.02074 0.87488   -0.562893
 O 0.4919 0.87488 0.02074   -0.562894
 O 0.02074 0.61248 0.4919   -0.562894
 O 0.87488 0.4919 0.61248   -0.562893
 O 0.61248 0.87488 0.4919   -0.562893
 O 0.4919 0.02074 0.61248   -0.562893
 O 0.02074 0.4919 0.87488   -0.562894
 O 0.87488 0.61248 0.02074   -0.562894
 O 0.5081 0.38752 0.97926   -0.562893
 O 0.38752 0.5081 0.12512   -0.562893
 O 0.12512 0.97926 0.38752   -0.562893
 O 0.97926 0.12512 0.5081   -0.562893
 O 0.97926 0.38752 0.12512   -0.562894
 O 0.12512 0.5081 0.97926   -0.562894
 O 0.38752 0.97926 0.5081   -0.562894
 O 0.5081 0.12512 0.38752   -0.562893
 O 0.12512 0.38752 0.5081   -0.562893
 O 0.97926 0.5081 0.38752   -0.562894
 O 0.5081 0.97926 0.12512   -0.562893
 O 0.38752 0.12512 0.97926   -0.562894
