{'_ref': 'TBD', '_srcid': 'CAKYAQ_clean', 'submitters': [{'name': 'Dalar Nazarian Jeff Camp and David Sholl', 'email': 'dalar@gatech.edu jcamp6@gatech.edu'}], '_method': 'VASP DFT with PBE;DDEC'}
data_CuH2(C3O2)2
_symmetry_space_group_name_H-M   'P 1'
_cell_length_a   18.56009992
_cell_length_b   18.56009974
_cell_length_c   18.56010000
_cell_angle_alpha   59.99999953
_cell_angle_beta   59.99999985
_cell_angle_gamma   60.00000061
_symmetry_Int_Tables_number   1
_chemical_formula_structural   CuH2(C3O2)2
_chemical_formula_sum   'Cu12 H24 C72 O48'
_cell_volume   4520.91070923
_cell_formula_units_Z   12
loop_
 _symmetry_equiv_pos_site_id
 _symmetry_equiv_pos_as_xyz
  1  'x, y, z'
loop_
 _atom_site_label
 _atom_site_fract_x
 _atom_site_fract_y
 _atom_site_fract_z
 _atom_site_charge
 Cu 0.4314 0.5686 0.0   0.947405
 Cu 0.5686 0.4314 0.0   0.947405
 Cu 0.0 0.0 0.4314   0.947404
 Cu 0.0 0.0 0.5686   0.947404
 Cu 0.4314 0.0 0.0   0.947404
 Cu 0.5686 0.0 0.0   0.947404
 Cu 0.0 0.4314 0.5686   0.947405
 Cu 0.0 0.5686 0.4314   0.947405
 Cu 0.4314 0.0 0.5686   0.947405
 Cu 0.5686 0.0 0.4314   0.947406
 Cu 0.0 0.5686 0.0   0.947404
 Cu 0.0 0.4314 0.0   0.947404
 H 0.4869 0.2723 0.9685   0.109218
 H 0.2723 0.4869 0.2723   0.109218
 H 0.9685 0.2723 0.4869   0.109217
 H 0.2723 0.9685 0.2723   0.109217
 H 0.4869 0.9685 0.2723   0.109218
 H 0.2723 0.2723 0.9685   0.109217
 H 0.9685 0.4869 0.2723   0.109218
 H 0.2723 0.2723 0.4869   0.109218
 H 0.4869 0.2723 0.2723   0.109218
 H 0.2723 0.9685 0.4869   0.109218
 H 0.9685 0.2723 0.2723   0.109217
 H 0.2723 0.4869 0.9685   0.109218
 H 0.7277 0.5131 0.0315   0.109217
 H 0.5131 0.7277 0.7277   0.109218
 H 0.7277 0.0315 0.5131   0.109217
 H 0.0315 0.7277 0.7277   0.109217
 H 0.0315 0.5131 0.7277   0.109217
 H 0.7277 0.7277 0.0315   0.109217
 H 0.5131 0.0315 0.7277   0.109217
 H 0.7277 0.7277 0.5131   0.109217
 H 0.7277 0.5131 0.7277   0.109218
 H 0.0315 0.7277 0.5131   0.109217
 H 0.7277 0.0315 0.7277   0.109217
 H 0.5131 0.7277 0.0315   0.109217
 C 0.3866 0.3866 0.9708   -0.175655
 C 0.4311 0.4311 0.9741   0.68912
 C 0.3866 0.3866 0.256   -0.175655
 C 0.4311 0.4311 0.1637   0.68912
 C 0.9708 0.256 0.3866   -0.175655
 C 0.9741 0.1637 0.4311   0.68912
 C 0.256 0.9708 0.3866   -0.175655
 C 0.1637 0.9741 0.4311   0.68912
 C 0.3866 0.9708 0.256   -0.175655
 C 0.4311 0.9741 0.1637   0.68912
 C 0.3866 0.256 0.9708   -0.175655
 C 0.4311 0.1637 0.9741   0.68912
 C 0.9708 0.3866 0.3866   -0.175655
 C 0.9741 0.4311 0.4311   0.68912
 C 0.256 0.3866 0.3866   -0.175655
 C 0.1637 0.4311 0.4311   0.68912
 C 0.3866 0.256 0.3866   -0.175655
 C 0.4311 0.1637 0.4311   0.68912
 C 0.3866 0.9708 0.3866   -0.175655
 C 0.4311 0.9741 0.4311   0.68912
 C 0.9708 0.3866 0.256   -0.175655
 C 0.9741 0.4311 0.1637   0.68912
 C 0.256 0.3866 0.9708   -0.175656
 C 0.1637 0.4311 0.9741   0.68912
 C 0.6134 0.6134 0.0292   -0.175655
 C 0.5689 0.5689 0.0259   0.68912
 C 0.6134 0.6134 0.744   -0.175655
 C 0.5689 0.5689 0.8363   0.689119
 C 0.744 0.0292 0.6134   -0.175655
 C 0.8363 0.0259 0.5689   0.68912
 C 0.0292 0.744 0.6134   -0.175655
 C 0.0259 0.8363 0.5689   0.689119
 C 0.0292 0.6134 0.744   -0.175655
 C 0.0259 0.5689 0.8363   0.68912
 C 0.744 0.6134 0.0292   -0.175655
 C 0.8363 0.5689 0.0259   0.68912
 C 0.6134 0.0292 0.6134   -0.175655
 C 0.5689 0.0259 0.5689   0.68912
 C 0.6134 0.744 0.6134   -0.175655
 C 0.5689 0.8363 0.5689   0.689119
 C 0.744 0.6134 0.6134   -0.175655
 C 0.8363 0.5689 0.5689   0.68912
 C 0.0292 0.6134 0.6134   -0.175655
 C 0.0259 0.5689 0.5689   0.68912
 C 0.6134 0.0292 0.744   -0.175655
 C 0.5689 0.0259 0.8363   0.68912
 C 0.6134 0.744 0.0292   -0.175655
 C 0.5689 0.8363 0.0259   0.68912
 C 0.4286 0.3008 0.9698   0.048829
 C 0.3008 0.4286 0.3008   0.048828
 C 0.9698 0.3008 0.4286   0.048829
 C 0.3008 0.9698 0.3008   0.048829
 C 0.4286 0.9698 0.3008   0.048829
 C 0.3008 0.3008 0.9698   0.04883
 C 0.9698 0.4286 0.3008   0.048829
 C 0.3008 0.3008 0.4286   0.048829
 C 0.4286 0.3008 0.3008   0.048829
 C 0.3008 0.9698 0.4286   0.048829
 C 0.9698 0.3008 0.3008   0.04883
 C 0.3008 0.4286 0.9698   0.048829
 C 0.6992 0.5714 0.0302   0.048829
 C 0.5714 0.6992 0.6992   0.048828
 C 0.6992 0.0302 0.5714   0.048829
 C 0.0302 0.6992 0.6992   0.048829
 C 0.0302 0.5714 0.6992   0.048829
 C 0.6992 0.6992 0.0302   0.04883
 C 0.5714 0.0302 0.6992   0.048829
 C 0.6992 0.6992 0.5714   0.048829
 C 0.6992 0.5714 0.6992   0.048828
 C 0.0302 0.6992 0.5714   0.048829
 C 0.6992 0.0302 0.6992   0.048829
 C 0.5714 0.6992 0.0302   0.048829
 O 0.3875 0.5079 0.9795   -0.572607
 O 0.5079 0.3875 0.1251   -0.572607
 O 0.9795 0.1251 0.3875   -0.572606
 O 0.1251 0.9795 0.5079   -0.572607
 O 0.3875 0.9795 0.1251   -0.572607
 O 0.5079 0.1251 0.9795   -0.572607
 O 0.9795 0.3875 0.5079   -0.572607
 O 0.1251 0.5079 0.3875   -0.572607
 O 0.3875 0.1251 0.5079   -0.572607
 O 0.5079 0.9795 0.3875   -0.572607
 O 0.9795 0.5079 0.1251   -0.572607
 O 0.1251 0.3875 0.9795   -0.572607
 O 0.4921 0.6125 0.0205   -0.572607
 O 0.6125 0.4921 0.8749   -0.572607
 O 0.8749 0.0205 0.6125   -0.572606
 O 0.0205 0.8749 0.4921   -0.572606
 O 0.0205 0.6125 0.8749   -0.572606
 O 0.8749 0.4921 0.0205   -0.572607
 O 0.6125 0.0205 0.4921   -0.572607
 O 0.4921 0.8749 0.6125   -0.572607
 O 0.8749 0.6125 0.4921   -0.572607
 O 0.0205 0.4921 0.6125   -0.572607
 O 0.4921 0.0205 0.8749   -0.572607
 O 0.6125 0.8749 0.0205   -0.572606
 O 0.6125 0.4921 0.0205   -0.572607
 O 0.4921 0.6125 0.8749   -0.572607
 O 0.0205 0.8749 0.6125   -0.572606
 O 0.8749 0.0205 0.4921   -0.572607
 O 0.6125 0.0205 0.8749   -0.572607
 O 0.4921 0.8749 0.0205   -0.572607
 O 0.0205 0.6125 0.4921   -0.572607
 O 0.8749 0.4921 0.6125   -0.572607
 O 0.6125 0.8749 0.4921   -0.572607
 O 0.4921 0.0205 0.6125   -0.572607
 O 0.0205 0.4921 0.8749   -0.572607
 O 0.8749 0.6125 0.0205   -0.572607
 O 0.5079 0.3875 0.9795   -0.572607
 O 0.3875 0.5079 0.1251   -0.572607
 O 0.1251 0.9795 0.3875   -0.572607
 O 0.9795 0.1251 0.5079   -0.572607
 O 0.9795 0.3875 0.1251   -0.572607
 O 0.1251 0.5079 0.9795   -0.572607
 O 0.3875 0.9795 0.5079   -0.572607
 O 0.5079 0.1251 0.3875   -0.572607
 O 0.1251 0.3875 0.5079   -0.572607
 O 0.9795 0.5079 0.3875   -0.572607
 O 0.5079 0.9795 0.1251   -0.572607
 O 0.3875 0.1251 0.9795   -0.572607
