{'_ref': 'TBD', '_srcid': 'CAKYAQ_clean', 'submitters': [{'name': 'Dalar Nazarian Jeff Camp and David Sholl', 'email': 'dalar@gatech.edu jcamp6@gatech.edu'}], '_method': 'VASP DFT with PBE;DDEC'}
data_CuH2(C3O2)2
_symmetry_space_group_name_H-M   'P 1'
_cell_length_a   18.56250038
_cell_length_b   18.56250012
_cell_length_c   18.56250000
_cell_angle_alpha   60.00000022
_cell_angle_beta   60.00000068
_cell_angle_gamma   60.00000102
_symmetry_Int_Tables_number   1
_chemical_formula_structural   CuH2(C3O2)2
_chemical_formula_sum   'Cu12 H24 C72 O48'
_cell_volume   4522.66500161
_cell_formula_units_Z   12
loop_
 _symmetry_equiv_pos_site_id
 _symmetry_equiv_pos_as_xyz
  1  'x, y, z'
loop_
 _atom_site_label
 _atom_site_fract_x
 _atom_site_fract_y
 _atom_site_fract_z
 _atom_site_charge
 Cu 0.43263 0.56737 0.0   0.936291
 Cu 0.56737 0.43263 0.0   0.936291
 Cu 0.0 0.0 0.43263   0.93629
 Cu 0.0 0.0 0.56737   0.93629
 Cu 0.43263 0.0 0.0   0.93629
 Cu 0.56737 0.0 0.0   0.936291
 Cu 0.0 0.43263 0.56737   0.936291
 Cu 0.0 0.56737 0.43263   0.936291
 Cu 0.43263 0.0 0.56737   0.936291
 Cu 0.56737 0.0 0.43263   0.936291
 Cu 0.0 0.56737 0.0   0.936291
 Cu 0.0 0.43263 0.0   0.936291
 H 0.487 0.2712 0.9706   0.113804
 H 0.2712 0.487 0.2712   0.113804
 H 0.9706 0.2712 0.487   0.113804
 H 0.2712 0.9706 0.2712   0.113804
 H 0.487 0.9706 0.2712   0.113804
 H 0.2712 0.2712 0.9706   0.113804
 H 0.9706 0.487 0.2712   0.113804
 H 0.2712 0.2712 0.487   0.113805
 H 0.487 0.2712 0.2712   0.113805
 H 0.2712 0.9706 0.487   0.113804
 H 0.9706 0.2712 0.2712   0.113804
 H 0.2712 0.487 0.9706   0.113804
 H 0.7288 0.513 0.0294   0.113804
 H 0.513 0.7288 0.7288   0.113804
 H 0.7288 0.0294 0.513   0.113804
 H 0.0294 0.7288 0.7288   0.113804
 H 0.0294 0.513 0.7288   0.113804
 H 0.7288 0.7288 0.0294   0.113804
 H 0.513 0.0294 0.7288   0.113804
 H 0.7288 0.7288 0.513   0.113804
 H 0.7288 0.513 0.7288   0.113804
 H 0.0294 0.7288 0.513   0.113804
 H 0.7288 0.0294 0.7288   0.113804
 H 0.513 0.7288 0.0294   0.113804
 C 0.3863 0.3863 0.97096   -0.16974
 C 0.43076 0.43076 0.97572   0.683781
 C 0.3863 0.3863 0.25644   -0.16974
 C 0.43076 0.43076 0.16276   0.683781
 C 0.97096 0.25644 0.3863   -0.16974
 C 0.97572 0.16276 0.43076   0.683781
 C 0.25644 0.97096 0.3863   -0.16974
 C 0.16276 0.97572 0.43076   0.683781
 C 0.3863 0.97096 0.25644   -0.16974
 C 0.43076 0.97572 0.16276   0.683781
 C 0.3863 0.25644 0.97096   -0.16974
 C 0.43076 0.16276 0.97572   0.683781
 C 0.97096 0.3863 0.3863   -0.16974
 C 0.97572 0.43076 0.43076   0.683781
 C 0.25644 0.3863 0.3863   -0.16974
 C 0.16276 0.43076 0.43076   0.683781
 C 0.3863 0.25644 0.3863   -0.16974
 C 0.43076 0.16276 0.43076   0.683781
 C 0.3863 0.97096 0.3863   -0.16974
 C 0.43076 0.97572 0.43076   0.683781
 C 0.97096 0.3863 0.25644   -0.16974
 C 0.97572 0.43076 0.16276   0.683781
 C 0.25644 0.3863 0.97096   -0.16974
 C 0.16276 0.43076 0.97572   0.683781
 C 0.6137 0.6137 0.02904   -0.16974
 C 0.56924 0.56924 0.02428   0.683781
 C 0.6137 0.6137 0.74356   -0.16974
 C 0.56924 0.56924 0.83724   0.68378
 C 0.74356 0.02904 0.6137   -0.16974
 C 0.83724 0.02428 0.56924   0.683781
 C 0.02904 0.74356 0.6137   -0.16974
 C 0.02428 0.83724 0.56924   0.683781
 C 0.02904 0.6137 0.74356   -0.16974
 C 0.02428 0.56924 0.83724   0.683781
 C 0.74356 0.6137 0.02904   -0.16974
 C 0.83724 0.56924 0.02428   0.683781
 C 0.6137 0.02904 0.6137   -0.16974
 C 0.56924 0.02428 0.56924   0.683781
 C 0.6137 0.74356 0.6137   -0.16974
 C 0.56924 0.83724 0.56924   0.68378
 C 0.74356 0.6137 0.6137   -0.16974
 C 0.83724 0.56924 0.56924   0.68378
 C 0.02904 0.6137 0.6137   -0.16974
 C 0.02428 0.56924 0.56924   0.683781
 C 0.6137 0.02904 0.74356   -0.16974
 C 0.56924 0.02428 0.83724   0.683781
 C 0.6137 0.74356 0.02904   -0.16974
 C 0.56924 0.83724 0.02428   0.683781
 C 0.42918 0.3 0.97082   0.03948
 C 0.3 0.42918 0.3   0.039479
 C 0.97082 0.3 0.42918   0.03948
 C 0.3 0.97082 0.3   0.03948
 C 0.42918 0.97082 0.3   0.03948
 C 0.3 0.3 0.97082   0.03948
 C 0.97082 0.42918 0.3   0.03948
 C 0.3 0.3 0.42918   0.039479
 C 0.42918 0.3 0.3   0.039479
 C 0.3 0.97082 0.42918   0.03948
 C 0.97082 0.3 0.3   0.03948
 C 0.3 0.42918 0.97082   0.03948
 C 0.7 0.57082 0.02918   0.03948
 C 0.57082 0.7 0.7   0.039479
 C 0.7 0.02918 0.57082   0.03948
 C 0.02918 0.7 0.7   0.03948
 C 0.02918 0.57082 0.7   0.03948
 C 0.7 0.7 0.02918   0.03948
 C 0.57082 0.02918 0.7   0.03948
 C 0.7 0.7 0.57082   0.039479
 C 0.7 0.57082 0.7   0.039479
 C 0.02918 0.7 0.57082   0.03948
 C 0.7 0.02918 0.7   0.03948
 C 0.57082 0.7 0.02918   0.03948
 O 0.38783 0.50783 0.97927   -0.567736
 O 0.50783 0.38783 0.12507   -0.567735
 O 0.97927 0.12507 0.38783   -0.567735
 O 0.12507 0.97927 0.50783   -0.567735
 O 0.38783 0.97927 0.12507   -0.567735
 O 0.50783 0.12507 0.97927   -0.567735
 O 0.97927 0.38783 0.50783   -0.567736
 O 0.12507 0.50783 0.38783   -0.567735
 O 0.38783 0.12507 0.50783   -0.567735
 O 0.50783 0.97927 0.38783   -0.567736
 O 0.97927 0.50783 0.12507   -0.567735
 O 0.12507 0.38783 0.97927   -0.567735
 O 0.49217 0.61217 0.02073   -0.567736
 O 0.61217 0.49217 0.87493   -0.567735
 O 0.87493 0.02073 0.61217   -0.567735
 O 0.02073 0.87493 0.49217   -0.567735
 O 0.02073 0.61217 0.87493   -0.567735
 O 0.87493 0.49217 0.02073   -0.567735
 O 0.61217 0.02073 0.49217   -0.567736
 O 0.49217 0.87493 0.61217   -0.567735
 O 0.87493 0.61217 0.49217   -0.567735
 O 0.02073 0.49217 0.61217   -0.567736
 O 0.49217 0.02073 0.87493   -0.567735
 O 0.61217 0.87493 0.02073   -0.567735
 O 0.61217 0.49217 0.02073   -0.567736
 O 0.49217 0.61217 0.87493   -0.567735
 O 0.02073 0.87493 0.61217   -0.567735
 O 0.87493 0.02073 0.49217   -0.567735
 O 0.61217 0.02073 0.87493   -0.567735
 O 0.49217 0.87493 0.02073   -0.567735
 O 0.02073 0.61217 0.49217   -0.567736
 O 0.87493 0.49217 0.61217   -0.567735
 O 0.61217 0.87493 0.49217   -0.567735
 O 0.49217 0.02073 0.61217   -0.567736
 O 0.02073 0.49217 0.87493   -0.567735
 O 0.87493 0.61217 0.02073   -0.567735
 O 0.50783 0.38783 0.97927   -0.567736
 O 0.38783 0.50783 0.12507   -0.567735
 O 0.12507 0.97927 0.38783   -0.567735
 O 0.97927 0.12507 0.50783   -0.567735
 O 0.97927 0.38783 0.12507   -0.567735
 O 0.12507 0.50783 0.97927   -0.567735
 O 0.38783 0.97927 0.50783   -0.567736
 O 0.50783 0.12507 0.38783   -0.567735
 O 0.12507 0.38783 0.50783   -0.567735
 O 0.97927 0.50783 0.38783   -0.567736
 O 0.50783 0.97927 0.12507   -0.567735
 O 0.38783 0.12507 0.97927   -0.567735
