{'_ref': 'TBD', '_srcid': 'CAKYAQ_clean', 'submitters': [{'name': 'Dalar Nazarian Jeff Camp and David Sholl', 'email': 'dalar@gatech.edu jcamp6@gatech.edu'}], '_method': 'VASP DFT with PBE;DDEC'}
data_InH40C24NO8
_symmetry_space_group_name_H-M   'P 1'
_cell_length_a   12.99130000
_cell_length_b   12.99130015
_cell_length_c   17.39110000
_cell_angle_alpha   90.00000000
_cell_angle_beta   90.00000000
_cell_angle_gamma   119.99999962
_symmetry_Int_Tables_number   1
_chemical_formula_structural   InH40C24NO8
_chemical_formula_sum   'In3 H120 C72 N3 O24'
_cell_volume   2541.92606375
_cell_formula_units_Z   3
loop_
 _symmetry_equiv_pos_site_id
 _symmetry_equiv_pos_as_xyz
  1  'x, y, z'
loop_
 _atom_site_label
 _atom_site_fract_x
 _atom_site_fract_y
 _atom_site_fract_z
 _atom_site_charge
 In 0.3771 0.0 0.5   1.522001
 In 0.6229 0.6229 0.83333   1.521399
 In 0.0 0.3771 0.16667   1.521399
 H 0.5631 0.5757 0.5696   0.096602
 H 0.3409 0.4235 0.6414   0.075077
 H 0.3677 0.5202 0.5774   0.078754
 H 0.3309 0.3919 0.4876   0.059535
 H 0.2895 0.2931 0.5509   0.049836
 H 0.4523 0.3757 0.3981   0.105816
 H 0.5824 0.4213 0.4271   0.109895
 H 0.5206 0.4966 0.4426   0.11091
 H 0.7179 0.4902 0.6134   0.11583
 H 0.6953 0.5138 0.5283   0.088623
 H 0.6806 0.3904 0.5512   0.129037
 H 0.5731 0.3661 0.6897   0.137204
 H 0.5337 0.2642 0.6288   0.122574
 H 0.4398 0.293 0.6639   0.112398
 H 0.0126 0.4369 0.90293   0.096283
 H 0.0826 0.6591 0.97473   0.075179
 H 0.1525 0.6323 0.91073   0.078269
 H 0.061 0.6691 0.82093   0.059785
 H 0.0036 0.7105 0.88423   0.049798
 H 0.9234 0.5477 0.73143   0.105983
 H 0.8389 0.4176 0.76043   0.110222
 H 0.976 0.4794 0.77593   0.111141
 H 0.7723 0.2821 0.94673   0.116054
 H 0.8185 0.3047 0.86163   0.089138
 H 0.7098 0.3194 0.88453   0.129304
 H 0.793 0.4269 0.02303   0.137511
 H 0.7305 0.4663 0.96213   0.122638
 H 0.8532 0.5602 0.99723   0.112272
 H 0.4243 0.9874 0.23627   0.096615
 H 0.5765 0.9174 0.30807   0.075018
 H 0.4798 0.8475 0.24407   0.078627
 H 0.6081 0.939 0.15427   0.060107
 H 0.7069 0.9964 0.21757   0.049886
 H 0.6243 0.0766 0.06477   0.105798
 H 0.5787 0.1611 0.09377   0.109729
 H 0.5034 0.024 0.10927   0.111033
 H 0.5098 0.2277 0.28007   0.115777
 H 0.4862 0.1815 0.19497   0.088625
 H 0.6096 0.2902 0.21787   0.129001
 H 0.6339 0.207 0.35637   0.137277
 H 0.7358 0.2695 0.29547   0.122633
 H 0.707 0.1468 0.33057   0.112291
 H 0.9874 0.4243 0.4304   0.096602
 H 0.9174 0.5765 0.3586   0.075077
 H 0.8475 0.4798 0.4226   0.078754
 H 0.939 0.6081 0.5124   0.059535
 H 0.9964 0.7069 0.4491   0.049835
 H 0.0766 0.6243 0.6019   0.105817
 H 0.1611 0.5787 0.5729   0.109895
 H 0.024 0.5034 0.5574   0.11091
 H 0.2277 0.5098 0.3866   0.11583
 H 0.1815 0.4862 0.4717   0.088623
 H 0.2902 0.6096 0.4488   0.129037
 H 0.207 0.6339 0.3103   0.137204
 H 0.2695 0.7358 0.3712   0.122574
 H 0.1468 0.707 0.3361   0.112398
 H 0.5757 0.5631 0.09707   0.096283
 H 0.4235 0.3409 0.02527   0.075179
 H 0.5202 0.3677 0.08927   0.078269
 H 0.3919 0.3309 0.17907   0.059785
 H 0.2931 0.2895 0.11577   0.049798
 H 0.3757 0.4523 0.26857   0.105983
 H 0.4213 0.5824 0.23957   0.110222
 H 0.4966 0.5206 0.22407   0.111141
 H 0.4902 0.7179 0.05327   0.116054
 H 0.5138 0.6953 0.13837   0.089138
 H 0.3904 0.6806 0.11547   0.129304
 H 0.3661 0.5731 0.97697   0.137511
 H 0.2642 0.5337 0.03787   0.122638
 H 0.293 0.4398 0.00277   0.112272
 H 0.4369 0.0126 0.76373   0.096615
 H 0.6591 0.0826 0.69193   0.075018
 H 0.6323 0.1525 0.75593   0.078627
 H 0.6691 0.061 0.84573   0.060107
 H 0.7105 0.0036 0.78243   0.049886
 H 0.5477 0.9234 0.93523   0.105798
 H 0.4176 0.8389 0.90623   0.109729
 H 0.4794 0.976 0.89073   0.111033
 H 0.2821 0.7723 0.71993   0.115777
 H 0.3047 0.8185 0.80503   0.088625
 H 0.3194 0.7098 0.78213   0.129001
 H 0.4269 0.793 0.64363   0.137277
 H 0.4663 0.7305 0.70453   0.122633
 H 0.5602 0.8532 0.66943   0.112291
 H 0.9894 0.8316 0.7826   0.138298
 H 0.0684 0.9702 0.7882   0.128512
 H 0.1204 0.8954 0.7519   0.130015
 H 0.0653 0.0212 0.5787   0.102831
 H 0.1607 0.0094 0.6271   0.157193
 H 0.1072 0.0861 0.6582   0.112724
 H 0.0106 0.8422 0.55073   0.138394
 H 0.9316 0.9018 0.54513   0.128417
 H 0.8796 0.775 0.58143   0.130091
 H 0.9347 0.9559 0.75463   0.103316
 H 0.8393 0.8487 0.70623   0.157397
 H 0.8928 0.9789 0.67513   0.11269
 H 0.8422 0.0106 0.11593   0.138852
 H 0.9018 0.9316 0.12153   0.128442
 H 0.775 0.8796 0.08523   0.130058
 H 0.9559 0.9347 0.91203   0.103599
 H 0.8487 0.8393 0.96043   0.157533
 H 0.9789 0.8928 0.99153   0.112642
 H 0.8316 0.9894 0.88407   0.138852
 H 0.9702 0.0684 0.87847   0.128442
 H 0.8954 0.1204 0.91477   0.130058
 H 0.0212 0.0653 0.08797   0.103599
 H 0.0094 0.1607 0.03957   0.157533
 H 0.0861 0.1072 0.00847   0.112642
 H 0.1684 0.1578 0.44927   0.138394
 H 0.0298 0.0982 0.45487   0.128417
 H 0.1046 0.225 0.41857   0.130091
 H 0.9788 0.0441 0.24537   0.103316
 H 0.9906 0.1513 0.29377   0.157397
 H 0.9139 0.0211 0.32487   0.112691
 H 0.1578 0.1684 0.2174   0.138298
 H 0.0982 0.0298 0.2118   0.128512
 H 0.225 0.1046 0.2481   0.130015
 H 0.0441 0.9788 0.4213   0.102831
 H 0.1513 0.9906 0.3729   0.157192
 H 0.0211 0.9139 0.3418   0.112723
 C 0.4593 0.3517 0.5151   -0.031849
 C 0.5442 0.4104 0.5865   0.219579
 C 0.5209 0.5116 0.607   -0.229523
 C 0.3849 0.4592 0.5945   -0.100263
 C 0.3556 0.3682 0.5338   -0.137845
 C 0.5082 0.4175 0.4385   -0.333747
 C 0.6705 0.4551 0.5682   -0.401785
 C 0.5207 0.3264 0.6473   -0.41471
 C 0.4289 0.2233 0.5037   0.616254
 C 0.5645 0.5624 0.6867   0.686268
 C 0.8924 0.5407 0.84843   -0.03078
 C 0.8662 0.4558 0.91983   0.219174
 C 0.9907 0.4791 0.94033   -0.228734
 C 0.0743 0.6151 0.92783   -0.09937
 C 0.0126 0.6444 0.86713   -0.138719
 C 0.9093 0.4918 0.77183   -0.334955
 C 0.7846 0.3295 0.90153   -0.402722
 C 0.8057 0.4793 0.98063   -0.415319
 C 0.7944 0.5711 0.83703   0.615601
 C 0.9979 0.4355 0.02003   0.68576
 C 0.6483 0.1076 0.18177   -0.03218
 C 0.5896 0.1338 0.25317   0.21954
 C 0.4884 0.0093 0.27367   -0.229502
 C 0.5408 0.9257 0.26117   -0.099959
 C 0.6318 0.9874 0.20047   -0.138607
 C 0.5825 0.0907 0.10517   -0.333507
 C 0.5449 0.2154 0.23487   -0.401506
 C 0.6736 0.1943 0.31397   -0.415067
 C 0.7767 0.2056 0.17037   0.615818
 C 0.4376 0.0021 0.35337   0.687455
 C 0.1076 0.6483 0.4849   -0.031849
 C 0.1338 0.5896 0.4135   0.219579
 C 0.0093 0.4884 0.393   -0.229523
 C 0.9257 0.5408 0.4055   -0.100263
 C 0.9874 0.6318 0.4662   -0.137845
 C 0.0907 0.5825 0.5615   -0.333747
 C 0.2154 0.5449 0.4318   -0.401785
 C 0.1943 0.6736 0.3527   -0.41471
 C 0.2056 0.7767 0.4963   0.616254
 C 0.0021 0.4376 0.3133   0.686268
 C 0.3517 0.4593 0.15157   -0.03078
 C 0.4104 0.5442 0.08017   0.219174
 C 0.5116 0.5209 0.05967   -0.228734
 C 0.4592 0.3849 0.07217   -0.099369
 C 0.3682 0.3556 0.13287   -0.13872
 C 0.4175 0.5082 0.22817   -0.334955
 C 0.4551 0.6705 0.09847   -0.402722
 C 0.3264 0.5207 0.01937   -0.415319
 C 0.2233 0.4289 0.16297   0.615601
 C 0.5624 0.5645 0.97997   0.68576
 C 0.5407 0.8924 0.81823   -0.03218
 C 0.4558 0.8662 0.74683   0.21954
 C 0.4791 0.9907 0.72633   -0.229502
 C 0.6151 0.0743 0.73883   -0.099959
 C 0.6444 0.0126 0.79953   -0.138608
 C 0.4918 0.9093 0.89483   -0.333507
 C 0.3295 0.7846 0.76513   -0.401506
 C 0.4793 0.8057 0.68603   -0.415068
 C 0.5711 0.7944 0.82963   0.615818
 C 0.4355 0.9979 0.64663   0.687455
 C 0.05 0.901 0.7576   -0.152279
 C 0.0904 0.016 0.6298   -0.275857
 C 0.95 0.851 0.57573   -0.152416
 C 0.9096 0.9256 0.70353   -0.27637
 C 0.851 0.95 0.09093   -0.152784
 C 0.9256 0.9096 0.96313   -0.276752
 C 0.901 0.05 0.90907   -0.152783
 C 0.016 0.0904 0.03687   -0.276752
 C 0.099 0.149 0.42427   -0.152416
 C 0.984 0.0744 0.29647   -0.27637
 C 0.149 0.099 0.2424   -0.152279
 C 0.0744 0.984 0.3702   -0.275857
 N 0.0 0.9159 0.66667   0.182407
 N 0.9159 0.0 0.0   0.182188
 N 0.0841 0.0841 0.33333   0.182407
 O 0.3245 0.138 0.5143   -0.62135
 O 0.5116 0.203 0.4871   -0.573264
 O 0.4971 0.5157 0.7433   -0.60623
 O 0.6673 0.6437 0.6979   -0.656922
 O 0.8135 0.6755 0.84763   -0.621088
 O 0.6914 0.4884 0.82043   -0.573025
 O 0.0186 0.5029 0.07663   -0.605917
 O 0.9764 0.3327 0.03123   -0.65701
 O 0.862 0.1865 0.18097   -0.62114
 O 0.797 0.3086 0.15377   -0.572968
 O 0.4843 0.9814 0.40997   -0.606598
 O 0.3563 0.0236 0.36457   -0.65782
 O 0.1865 0.862 0.4857   -0.62135
 O 0.3086 0.797 0.5129   -0.573264
 O 0.9814 0.4843 0.2567   -0.606231
 O 0.0236 0.3563 0.3021   -0.656922
 O 0.138 0.3245 0.15237   -0.621088
 O 0.203 0.5116 0.17957   -0.573025
 O 0.5157 0.4971 0.92337   -0.605917
 O 0.6437 0.6673 0.96877   -0.65701
 O 0.6755 0.8135 0.81903   -0.62114
 O 0.4884 0.6914 0.84623   -0.572968
 O 0.5029 0.0186 0.59003   -0.606598
 O 0.3327 0.9764 0.63543   -0.65782
