{'_ref': 'TBD', '_srcid': 'CAKYAQ_clean', 'submitters': [{'name': 'Dalar Nazarian Jeff Camp and David Sholl', 'email': 'dalar@gatech.edu jcamp6@gatech.edu'}], '_method': 'VASP DFT with PBE;DDEC'}
data_La2H12(C4O5)3
_symmetry_space_group_name_H-M   'P 1'
_cell_length_a   9.52280000
_cell_length_b   9.52280025
_cell_length_c   17.47000000
_cell_angle_alpha   90.00000000
_cell_angle_beta   90.00000000
_cell_angle_gamma   119.99999914
_symmetry_Int_Tables_number   1
_chemical_formula_structural   La2H12(C4O5)3
_chemical_formula_sum   'La4 H24 C24 O30'
_cell_volume   1371.99610433
_cell_formula_units_Z   2
loop_
 _symmetry_equiv_pos_site_id
 _symmetry_equiv_pos_as_xyz
  1  'x, y, z'
loop_
 _atom_site_label
 _atom_site_fract_x
 _atom_site_fract_y
 _atom_site_fract_z
 _atom_site_charge
 La 0.33333 0.66666 0.75   2.259379
 La 0.66667 0.33334 0.25   2.259379
 La 0.0 0.0 0.0   2.044639
 La 0.0 0.0 0.5   2.044645
 H 0.503 0.6703 0.9757   0.095175
 H 0.5753 0.5953 0.9186   0.112274
 H 0.1673 0.497 0.9757   0.095177
 H 0.02 0.4247 0.9186   0.112275
 H 0.3297 0.8327 0.9757   0.095176
 H 0.4047 0.98 0.9186   0.112276
 H 0.503 0.6703 0.5243   0.095175
 H 0.5753 0.5953 0.5814   0.112274
 H 0.1673 0.497 0.5243   0.095177
 H 0.02 0.4247 0.5814   0.112275
 H 0.3297 0.8327 0.5243   0.095176
 H 0.4047 0.98 0.5814   0.112276
 H 0.8327 0.3297 0.0243   0.095176
 H 0.98 0.4047 0.0814   0.112276
 H 0.6703 0.503 0.0243   0.095178
 H 0.5953 0.5753 0.0814   0.112276
 H 0.497 0.1673 0.0243   0.095177
 H 0.4247 0.02 0.0814   0.112277
 H 0.8327 0.3297 0.4757   0.095176
 H 0.98 0.4047 0.4186   0.112275
 H 0.6703 0.503 0.4757   0.095178
 H 0.5953 0.5753 0.4186   0.112276
 H 0.497 0.1673 0.4757   0.095177
 H 0.4247 0.02 0.4186   0.112277
 C 0.6503 0.8333 0.8947   0.755181
 C 0.5998 0.6914 0.9479   -0.087887
 C 0.183 0.3497 0.8947   0.75518
 C 0.0916 0.4002 0.9479   -0.087888
 C 0.1667 0.817 0.8947   0.755184
 C 0.3086 0.9084 0.9479   -0.087886
 C 0.6503 0.8333 0.6053   0.755181
 C 0.5998 0.6914 0.5521   -0.087887
 C 0.183 0.3497 0.6053   0.75518
 C 0.0916 0.4002 0.5521   -0.087888
 C 0.1667 0.817 0.6053   0.755184
 C 0.3086 0.9084 0.5521   -0.087886
 C 0.817 0.1667 0.1053   0.755181
 C 0.9084 0.3086 0.0521   -0.087888
 C 0.8333 0.6503 0.1053   0.75518
 C 0.6914 0.5998 0.0521   -0.087889
 C 0.3497 0.183 0.1053   0.755184
 C 0.4002 0.0916 0.0521   -0.087887
 C 0.817 0.1667 0.3947   0.755181
 C 0.9084 0.3086 0.4479   -0.087888
 C 0.8333 0.6503 0.3947   0.75518
 C 0.6914 0.5998 0.4479   -0.087889
 C 0.3497 0.183 0.3947   0.755184
 C 0.4002 0.0916 0.4479   -0.087887
 O 0.5491 0.8226 0.8451   -0.771259
 O 0.7865 0.959 0.9043   -0.6557
 O 0.2735 0.4509 0.8451   -0.771255
 O 0.1725 0.2135 0.9043   -0.655694
 O 0.1774 0.7265 0.8451   -0.771261
 O 0.041 0.8275 0.9043   -0.6557
 O 0.5491 0.8226 0.6549   -0.771259
 O 0.7865 0.959 0.5957   -0.6557
 O 0.2735 0.4509 0.6549   -0.771255
 O 0.1725 0.2135 0.5957   -0.655694
 O 0.1774 0.7265 0.6549   -0.771261
 O 0.041 0.8275 0.5957   -0.6557
 O 0.7265 0.1774 0.1549   -0.771259
 O 0.8275 0.041 0.0957   -0.6557
 O 0.8226 0.5491 0.1549   -0.771254
 O 0.959 0.7865 0.0957   -0.655694
 O 0.4509 0.2735 0.1549   -0.771261
 O 0.2135 0.1725 0.0957   -0.6557
 O 0.7265 0.1774 0.3451   -0.771259
 O 0.8275 0.041 0.4043   -0.6557
 O 0.8226 0.5491 0.3451   -0.771254
 O 0.959 0.7865 0.4043   -0.655694
 O 0.4509 0.2735 0.3451   -0.771261
 O 0.2135 0.1725 0.4043   -0.655701
 O 0.7272 0.7272 0.0   -0.330253
 O 0.0 0.2728 0.0   -0.330253
 O 0.2728 0.0 0.0   -0.330255
 O 0.7272 0.7272 0.5   -0.330253
 O 0.0 0.2728 0.5   -0.330253
 O 0.2728 0.0 0.5   -0.330255
