{'_ref': 'TBD', '_srcid': 'CAKYAQ_clean', 'submitters': [{'name': 'Dalar Nazarian Jeff Camp and David Sholl', 'email': 'dalar@gatech.edu jcamp6@gatech.edu'}], '_method': 'VASP DFT with PBE;DDEC'}
data_CuH24(C2N)12
_symmetry_space_group_name_H-M   'P 1'
_cell_length_a   12.39999991
_cell_length_b   15.30000000
_cell_length_c   20.09000000
_cell_angle_alpha   90.00000000
_cell_angle_beta   103.70000005
_cell_angle_gamma   90.00000000
_symmetry_Int_Tables_number   1
_chemical_formula_structural   CuH24(C2N)12
_chemical_formula_sum   'Cu4 H96 C96 N48'
_cell_volume   3703.03496079
_cell_formula_units_Z   4
loop_
 _symmetry_equiv_pos_site_id
 _symmetry_equiv_pos_as_xyz
  1  'x, y, z'
loop_
 _atom_site_label
 _atom_site_fract_x
 _atom_site_fract_y
 _atom_site_fract_z
 _atom_site_charge
 Cu 0.15053 0.7849 0.78186   0.372441
 Cu 0.84947 0.2849 0.71814   0.372441
 Cu 0.84947 0.2151 0.21814   0.372441
 Cu 0.15053 0.7151 0.28186   0.372441
 H 0.2663 0.8056 0.9424   0.030479
 H 0.2844 0.6083 0.8255   0.067084
 H 0.4101 0.7558 0.0518   0.088238
 H 0.3928 0.655 0.0594   0.099653
 H 0.541 0.5537 0.0553   0.095273
 H 0.7222 0.5277 0.052   0.087823
 H 0.7647 0.7807 0.021   0.036926
 H 0.5837 0.8077 0.0227   0.054732
 H 0.8799 0.579 0.0057   0.121514
 H 0.9039 0.6796 0.0058   0.076386
 H 0.1064 0.5229 0.2107   0.075418
 H 0.9767 0.7444 0.1398   0.067685
 H 0.0442 0.6468 0.8681   0.070379
 H 0.8991 0.8457 0.7661   0.083211
 H 0.7163 0.7992 0.8588   0.057711
 H 0.7006 0.8222 0.7809   0.090794
 H 0.6305 0.7066 0.6939   0.092494
 H 0.5339 0.576 0.6679   0.056856
 H 0.5392 0.5427 0.8644   0.095362
 H 0.6375 0.6701 0.8911   0.081395
 H 0.4318 0.455 0.7019   0.04589
 H 0.4294 0.4445 0.7794   0.10609
 H 0.6292 0.3991 0.6748   0.069717
 H 0.7237 0.2604 0.838   0.038982
 H 0.7337 0.3056 0.5576   0.030477
 H 0.7156 0.1083 0.6745   0.067085
 H 0.5899 0.2558 0.4482   0.088238
 H 0.6072 0.155 0.4406   0.099653
 H 0.459 0.0537 0.4447   0.095273
 H 0.2778 0.0277 0.448   0.087823
 H 0.2353 0.2807 0.479   0.036926
 H 0.4163 0.3077 0.4773   0.054729
 H 0.1201 0.079 0.4943   0.121514
 H 0.0961 0.1796 0.4942   0.076386
 H 0.8936 0.0229 0.2893   0.075418
 H 0.0233 0.2444 0.3602   0.067686
 H 0.9558 0.1468 0.6319   0.070379
 H 0.1009 0.3457 0.7339   0.083212
 H 0.2837 0.2992 0.6412   0.057714
 H 0.2994 0.3222 0.7191   0.090796
 H 0.3695 0.2066 0.8061   0.092495
 H 0.4661 0.076 0.8321   0.056855
 H 0.4608 0.0427 0.6356   0.095362
 H 0.3625 0.1701 0.6089   0.081396
 H 0.5682 0.955 0.7981   0.045896
 H 0.5706 0.9445 0.7206   0.10609
 H 0.3708 0.8991 0.8252   0.069713
 H 0.2763 0.7604 0.662   0.038985
 H 0.7337 0.1944 0.0576   0.030486
 H 0.7156 0.3917 0.1745   0.067084
 H 0.5899 0.2442 0.9482   0.088238
 H 0.6072 0.345 0.9406   0.099654
 H 0.459 0.4463 0.9447   0.095274
 H 0.2778 0.4723 0.948   0.087823
 H 0.2353 0.2193 0.979   0.036929
 H 0.4163 0.1923 0.9773   0.054727
 H 0.1201 0.421 0.9943   0.121515
 H 0.0961 0.3204 0.9942   0.076386
 H 0.8936 0.4771 0.7893   0.075418
 H 0.0233 0.2556 0.8602   0.067689
 H 0.9558 0.3532 0.1319   0.070379
 H 0.1009 0.1543 0.2339   0.083211
 H 0.2837 0.2008 0.1412   0.057712
 H 0.2994 0.1778 0.2191   0.090794
 H 0.3695 0.2934 0.3061   0.092495
 H 0.4661 0.424 0.3321   0.056852
 H 0.4608 0.4573 0.1356   0.095363
 H 0.3625 0.3299 0.1089   0.081396
 H 0.5682 0.545 0.2981   0.045891
 H 0.5706 0.5555 0.2206   0.10609
 H 0.3708 0.6009 0.3252   0.069716
 H 0.2763 0.7396 0.162   0.038991
 H 0.2663 0.6944 0.4424   0.030484
 H 0.2844 0.8917 0.3255   0.067085
 H 0.4101 0.7442 0.5518   0.088238
 H 0.3928 0.845 0.5594   0.099654
 H 0.541 0.9463 0.5553   0.095274
 H 0.7222 0.9723 0.552   0.087823
 H 0.7647 0.7193 0.521   0.03693
 H 0.5837 0.6923 0.5227   0.054724
 H 0.8799 0.921 0.5057   0.121515
 H 0.9039 0.8204 0.5058   0.076386
 H 0.1064 0.9771 0.7107   0.075419
 H 0.9767 0.7556 0.6398   0.06769
 H 0.0442 0.8532 0.3681   0.070379
 H 0.8991 0.6543 0.2661   0.083213
 H 0.7163 0.7008 0.3588   0.057715
 H 0.7006 0.6778 0.2809   0.090796
 H 0.6305 0.7934 0.1939   0.092495
 H 0.5339 0.924 0.1679   0.056851
 H 0.5392 0.9573 0.3644   0.095363
 H 0.6375 0.8299 0.3911   0.081396
 H 0.4318 0.045 0.2019   0.045896
 H 0.4294 0.0555 0.2794   0.10609
 H 0.6292 0.1009 0.1748   0.069712
 H 0.7237 0.2396 0.338   0.038993
 C 0.2847 0.7523 0.9257   0.120267
 C 0.2958 0.6448 0.8636   0.241885
 C 0.4198 0.699 0.0326   -0.081773
 C 0.541 0.6837 0.0371   0.019089
 C 0.5853 0.5998 0.0474   -0.120977
 C 0.6944 0.5844 0.046   -0.116357
 C 0.7627 0.6513 0.036   0.008765
 C 0.7194 0.7346 0.0275   -0.106403
 C 0.6107 0.7508 0.0282   -0.118004
 C 0.8791 0.6328 0.0311   -0.077108
 C 0.0642 0.5645 0.1822   0.23853
 C 0.9953 0.6855 0.1446   0.086319
 C 0.9903 0.6875 0.8485   0.259854
 C 0.9138 0.7955 0.7929   0.073366
 C 0.7235 0.7767 0.8149   -0.069957
 C 0.6493 0.699 0.7959   0.020682
 C 0.6147 0.6726 0.7288   -0.126409
 C 0.5556 0.5946 0.7132   -0.135605
 C 0.5293 0.5453 0.7636   -0.003714
 C 0.5592 0.5747 0.8299   -0.114321
 C 0.6183 0.651 0.8459   -0.105777
 C 0.477 0.4564 0.7485   -0.058604
 C 0.634 0.3736 0.7174   0.091125
 C 0.6837 0.2992 0.8057   0.255761
 C 0.7153 0.2523 0.5743   0.120267
 C 0.7042 0.1448 0.6364   0.241885
 C 0.5802 0.199 0.4674   -0.081773
 C 0.459 0.1837 0.4629   0.019089
 C 0.4147 0.0998 0.4526   -0.120977
 C 0.3056 0.0844 0.454   -0.116357
 C 0.2373 0.1513 0.464   0.008765
 C 0.2806 0.2346 0.4725   -0.106404
 C 0.3893 0.2508 0.4718   -0.118003
 C 0.1209 0.1328 0.4689   -0.077108
 C 0.9358 0.0645 0.3178   0.23853
 C 0.0047 0.1855 0.3554   0.086319
 C 0.0097 0.1875 0.6515   0.259854
 C 0.0862 0.2955 0.7071   0.073365
 C 0.2765 0.2767 0.6851   -0.069959
 C 0.3507 0.199 0.7041   0.020682
 C 0.3853 0.1726 0.7712   -0.126409
 C 0.4444 0.0946 0.7868   -0.135605
 C 0.4707 0.0453 0.7364   -0.003713
 C 0.4408 0.0747 0.6701   -0.114321
 C 0.3817 0.151 0.6541   -0.105778
 C 0.523 0.9564 0.7515   -0.058606
 C 0.366 0.8736 0.7826   0.091126
 C 0.3163 0.7992 0.6943   0.25576
 C 0.7153 0.2477 0.0743   0.120265
 C 0.7042 0.3552 0.1364   0.241885
 C 0.5802 0.301 0.9674   -0.081774
 C 0.459 0.3163 0.9629   0.019089
 C 0.4147 0.4002 0.9526   -0.120977
 C 0.3056 0.4156 0.954   -0.116358
 C 0.2373 0.3487 0.964   0.008766
 C 0.2806 0.2654 0.9725   -0.106405
 C 0.3893 0.2492 0.9718   -0.118002
 C 0.1209 0.3672 0.9689   -0.077108
 C 0.9358 0.4355 0.8178   0.23853
 C 0.0047 0.3145 0.8554   0.086318
 C 0.0097 0.3125 0.1515   0.259854
 C 0.0862 0.2045 0.2071   0.073366
 C 0.2765 0.2233 0.1851   -0.069957
 C 0.3507 0.301 0.2041   0.020682
 C 0.3853 0.3274 0.2712   -0.126409
 C 0.4444 0.4054 0.2868   -0.135604
 C 0.4707 0.4547 0.2364   -0.003714
 C 0.4408 0.4253 0.1701   -0.114321
 C 0.3817 0.349 0.1541   -0.105778
 C 0.523 0.5436 0.2515   -0.058604
 C 0.366 0.6264 0.2826   0.091125
 C 0.3163 0.7008 0.1943   0.255758
 C 0.2847 0.7477 0.4257   0.120265
 C 0.2958 0.8552 0.3636   0.241885
 C 0.4198 0.801 0.5326   -0.081774
 C 0.541 0.8163 0.5371   0.019089
 C 0.5853 0.9002 0.5474   -0.120977
 C 0.6944 0.9156 0.546   -0.116358
 C 0.7627 0.8487 0.536   0.008766
 C 0.7194 0.7654 0.5275   -0.106406
 C 0.6107 0.7492 0.5282   -0.118001
 C 0.8791 0.8672 0.5311   -0.077108
 C 0.0642 0.9355 0.6822   0.23853
 C 0.9953 0.8145 0.6446   0.086318
 C 0.9903 0.8125 0.3485   0.259854
 C 0.9138 0.7045 0.2929   0.073365
 C 0.7235 0.7233 0.3149   -0.069959
 C 0.6493 0.801 0.2959   0.020682
 C 0.6147 0.8274 0.2288   -0.126409
 C 0.5556 0.9054 0.2132   -0.135603
 C 0.5293 0.9547 0.2636   -0.003714
 C 0.5592 0.9253 0.3299   -0.114321
 C 0.6183 0.849 0.3459   -0.105778
 C 0.477 0.0436 0.2485   -0.058606
 C 0.634 0.1264 0.2174   0.091126
 C 0.6837 0.2008 0.3057   0.255758
 N 0.2442 0.7227 0.8628   -0.367897
 N 0.3627 0.6249 0.922   -0.342043
 N 0.3546 0.6952 0.9611   0.160286
 N 0.0641 0.6502 0.1988   -0.373894
 N 0.9988 0.5452 0.1218   -0.39971
 N 0.9573 0.6245 0.0987   0.179363
 N 0.0112 0.7554 0.8101   -0.41892
 N 0.8882 0.6836 0.8557   -0.371646
 N 0.841 0.7538 0.8193   0.170818
 N 0.7105 0.3175 0.7467   -0.365162
 N 0.5946 0.3418 0.8139   -0.394573
 N 0.5649 0.3888 0.757   0.180198
 N 0.7558 0.2227 0.6372   -0.367897
 N 0.6373 0.1249 0.578   -0.342043
 N 0.6454 0.1952 0.5389   0.160286
 N 0.9359 0.1502 0.3012   -0.373894
 N 0.0012 0.0452 0.3782   -0.39971
 N 0.0427 0.1245 0.4013   0.179363
 N 0.9888 0.2554 0.6899   -0.41892
 N 0.1118 0.1836 0.6443   -0.371646
 N 0.159 0.2538 0.6807   0.170819
 N 0.2895 0.8175 0.7533   -0.365162
 N 0.4054 0.8418 0.6861   -0.394573
 N 0.4351 0.8888 0.743   0.180198
 N 0.7558 0.2773 0.1372   -0.367896
 N 0.6373 0.3751 0.078   -0.342043
 N 0.6454 0.3048 0.0389   0.160287
 N 0.9359 0.3498 0.8012   -0.373894
 N 0.0012 0.4548 0.8782   -0.39971
 N 0.0427 0.3755 0.9013   0.179364
 N 0.9888 0.2446 0.1899   -0.41892
 N 0.1118 0.3164 0.1443   -0.371646
 N 0.159 0.2462 0.1807   0.170818
 N 0.2895 0.6825 0.2533   -0.365161
 N 0.4054 0.6582 0.1861   -0.394572
 N 0.4351 0.6112 0.243   0.180198
 N 0.2442 0.7773 0.3628   -0.367896
 N 0.3627 0.8751 0.422   -0.342043
 N 0.3546 0.8048 0.4611   0.160286
 N 0.0641 0.8498 0.6988   -0.373894
 N 0.9988 0.9548 0.6218   -0.39971
 N 0.9573 0.8755 0.5987   0.179364
 N 0.0112 0.7446 0.3101   -0.41892
 N 0.8882 0.8164 0.3557   -0.371646
 N 0.841 0.7462 0.3193   0.170819
 N 0.7105 0.1825 0.2467   -0.365161
 N 0.5946 0.1582 0.3139   -0.394572
 N 0.5649 0.1112 0.257   0.180198
