{'_ref': 'TBD', '_srcid': 'CAKYAQ_clean', 'submitters': [{'name': 'Dalar Nazarian Jeff Camp and David Sholl', 'email': 'dalar@gatech.edu jcamp6@gatech.edu'}], '_method': 'VASP DFT with PBE;DDEC'}
data_Pr(CO2)3
_symmetry_space_group_name_H-M   'P 1'
_cell_length_a   8.28830000
_cell_length_b   9.89169990
_cell_length_c   10.18870000
_cell_angle_alpha   99.03999946
_cell_angle_beta   90.00000000
_cell_angle_gamma   90.00000000
_symmetry_Int_Tables_number   1
_chemical_formula_structural   Pr(CO2)3
_chemical_formula_sum   'Pr4 C12 O24'
_cell_volume   824.948746387
_cell_formula_units_Z   4
loop_
 _symmetry_equiv_pos_site_id
 _symmetry_equiv_pos_as_xyz
  1  'x, y, z'
loop_
 _atom_site_label
 _atom_site_fract_x
 _atom_site_fract_y
 _atom_site_fract_z
 _atom_site_charge
 Pr 0.90155 0.31502 0.56293   2.153552
 Pr 0.40155 0.68498 0.93707   2.153554
 Pr 0.09845 0.68498 0.43707   2.153586
 Pr 0.59845 0.31502 0.06293   2.153587
 C 0.602 0.4175 0.768   0.574745
 C 0.5951 0.5227 0.6704   0.562415
 C 0.0157 0.0055 0.4257   0.554006
 C 0.102 0.5825 0.732   0.574745
 C 0.0951 0.4773 0.8296   0.562416
 C 0.5157 0.9945 0.0743   0.554006
 C 0.398 0.5825 0.232   0.574745
 C 0.4049 0.4773 0.3296   0.562416
 C 0.9843 0.9945 0.5743   0.554006
 C 0.898 0.4175 0.268   0.574746
 C 0.9049 0.5227 0.1704   0.562416
 C 0.4843 0.0055 0.9257   0.554006
 O 0.6909 0.3161 0.739   -0.609935
 O 0.52 0.4436 0.8739   -0.743167
 O 0.6835 0.4959 0.5696   -0.638118
 O 0.5055 0.6231 0.7005   -0.606059
 O 0.9903 0.1197 0.3925   -0.634642
 O 0.0664 0.9009 0.3527   -0.61281
 O 0.1909 0.6839 0.761   -0.609936
 O 0.02 0.5564 0.6261   -0.743167
 O 0.1835 0.5041 0.9304   -0.638119
 O 0.0055 0.3769 0.7995   -0.60606
 O 0.4903 0.8803 0.1075   -0.634642
 O 0.5664 0.0991 0.1473   -0.61281
 O 0.3091 0.6839 0.261   -0.609936
 O 0.48 0.5564 0.1261   -0.743167
 O 0.3165 0.5041 0.4304   -0.63812
 O 0.4945 0.3769 0.2995   -0.606061
 O 0.0097 0.8803 0.6075   -0.634644
 O 0.9336 0.0991 0.6473   -0.61281
 O 0.8091 0.3161 0.239   -0.609938
 O 0.98 0.4436 0.3739   -0.743168
 O 0.8165 0.4959 0.0696   -0.638121
 O 0.9945 0.6231 0.2005   -0.606062
 O 0.5097 0.1197 0.8925   -0.634644
 O 0.4336 0.9009 0.8527   -0.61281
