{'_ref': 'TBD', '_srcid': 'CAKYAQ_clean', 'submitters': [{'name': 'Dalar Nazarian Jeff Camp and David Sholl', 'email': 'dalar@gatech.edu jcamp6@gatech.edu'}], '_method': 'VASP DFT with PBE;DDEC'}
data_Pr(CO2)3
_symmetry_space_group_name_H-M   'P 1'
_cell_length_a   8.28110000
_cell_length_b   9.88340048
_cell_length_c   10.18180000
_cell_angle_alpha   99.05300215
_cell_angle_beta   90.00000000
_cell_angle_gamma   90.00000000
_symmetry_Int_Tables_number   1
_chemical_formula_structural   Pr(CO2)3
_chemical_formula_sum   'Pr4 C12 O24'
_cell_volume   822.953109048
_cell_formula_units_Z   4
loop_
 _symmetry_equiv_pos_site_id
 _symmetry_equiv_pos_as_xyz
  1  'x, y, z'
loop_
 _atom_site_label
 _atom_site_fract_x
 _atom_site_fract_y
 _atom_site_fract_z
 _atom_site_charge
 Pr 0.90161 0.815 0.56293   2.150673
 Pr 0.40161 0.185 0.93707   2.150678
 Pr 0.09839 0.185 0.43707   2.150743
 Pr 0.59839 0.815 0.06293   2.150746
 C 0.595 0.0222 0.6709   0.562731
 C 0.6032 0.9171 0.7681   0.578143
 C 0.9835 0.4946 0.5739   0.554646
 C 0.095 0.9778 0.8291   0.562732
 C 0.1032 0.0829 0.7319   0.578144
 C 0.4835 0.5054 0.9261   0.554647
 C 0.405 0.9778 0.3291   0.562732
 C 0.3968 0.0829 0.2319   0.578143
 C 0.0165 0.5054 0.4261   0.554645
 C 0.905 0.0222 0.1709   0.562733
 C 0.8968 0.9171 0.2681   0.578144
 C 0.5165 0.4946 0.0739   0.554645
 O 0.6833 0.9958 0.5698   -0.63887
 O 0.5055 0.1229 0.7009   -0.60693
 O 0.6908 0.8162 0.739   -0.604228
 O 0.5198 0.9436 0.87386   -0.748264
 O 0.9335 0.5989 0.6471   -0.610287
 O 0.009 0.3801 0.6076   -0.637641
 O 0.1833 0.0042 0.9302   -0.638871
 O 0.0055 0.8771 0.7991   -0.606933
 O 0.1908 0.1838 0.761   -0.604233
 O 0.0198 0.0564 0.62614   -0.748266
 O 0.4335 0.4011 0.8529   -0.610288
 O 0.509 0.6199 0.8924   -0.637643
 O 0.3167 0.0042 0.4302   -0.638874
 O 0.4945 0.8771 0.2991   -0.606933
 O 0.3092 0.1838 0.261   -0.604229
 O 0.4802 0.0564 0.12614   -0.748265
 O 0.0665 0.4011 0.3529   -0.610289
 O 0.991 0.6199 0.3924   -0.637639
 O 0.8167 0.9958 0.0698   -0.638875
 O 0.9945 0.1229 0.2009   -0.606936
 O 0.8092 0.8162 0.239   -0.604234
 O 0.9802 0.9436 0.37386   -0.748266
 O 0.5665 0.5989 0.1471   -0.610289
 O 0.491 0.3801 0.1076   -0.637641
