{'_ref': 'TBD', '_srcid': 'CAKYAQ_clean', 'submitters': [{'name': 'Dalar Nazarian Jeff Camp and David Sholl', 'email': 'dalar@gatech.edu jcamp6@gatech.edu'}], '_method': 'VASP DFT with PBE;DDEC'}
data_LaH3C7(N5O)2
_symmetry_space_group_name_H-M   'P 1'
_cell_length_a   8.88399995
_cell_length_b   10.28189971
_cell_length_c   10.28190000
_cell_angle_alpha   79.09260203
_cell_angle_beta   64.40410317
_cell_angle_gamma   64.40410221
_symmetry_Int_Tables_number   1
_chemical_formula_structural   LaH3C7(N5O)2
_chemical_formula_sum   'La2 H6 C14 N20 O4'
_cell_volume   763.896795342
_cell_formula_units_Z   2
loop_
 _symmetry_equiv_pos_site_id
 _symmetry_equiv_pos_as_xyz
  1  'x, y, z'
loop_
 _atom_site_label
 _atom_site_fract_x
 _atom_site_fract_y
 _atom_site_fract_z
 _atom_site_charge
 La 0.20595 0.54405 0.04405   2.098816
 La 0.29405 0.95595 0.45595   2.098816
 H 0.0085 0.3612 0.4046   0.058738
 H 0.2257 0.9046 0.8612   0.057049
 H 0.4915 0.5954 0.6388   0.058738
 H 0.2743 0.1388 0.0954   0.057049
 H 0.75 0.3885 0.6115   0.156873
 H 0.25 0.1115 0.8885   0.157217
 C 0.90329 0.44401 0.41681   0.320438
 C 0.23589 0.91681 0.94401   0.32357
 C 0.59671 0.58319 0.55599   0.320437
 C 0.26411 0.05599 0.08319   0.323569
 C 0.75 0.77359 0.22641   0.288614
 C 0.75 0.66134 0.33866   0.472018
 C 0.75 0.4595 0.5405   -0.238466
 C 0.25 0.72641 0.27359   0.284979
 C 0.25 0.83866 0.16134   0.471239
 C 0.25 0.0405 0.9595   -0.240423
 C 0.563 0.25 0.25   0.149128
 C 0.3949 0.25 0.25   0.779246
 C 0.937 0.75 0.75   0.149128
 C 0.1051 0.75 0.75   0.779243
 N 0.89594 0.76923 0.11043   -0.42915
 N 0.83719 0.89109 0.03753   -0.007729
 N 0.90493 0.54572 0.31288   -0.548629
 N 0.66197 0.31774 0.1522   -0.345159
 N 0.79802 0.29018 0.19162   -0.145827
 N 0.2244 0.61043 0.26923   -0.42867
 N 0.23419 0.53753 0.39109   -0.006637
 N 0.23647 0.81288 0.04572   -0.548625
 N 0.86809 0.6522 0.81774   -0.346884
 N 0.72018 0.69162 0.79018   -0.142828
 N 0.60406 0.88957 0.23077   -0.429154
 N 0.66281 0.96247 0.10891   -0.007692
 N 0.59507 0.68712 0.45428   -0.548636
 N 0.83803 0.8478 0.68226   -0.345165
 N 0.70198 0.80838 0.70982   -0.14578
 N 0.2756 0.73077 0.38957   -0.428677
 N 0.26581 0.60891 0.46247   -0.006582
 N 0.26353 0.95428 0.18712   -0.54862
 N 0.63191 0.18226 0.3478   -0.34689
 N 0.77982 0.20982 0.30838   -0.142781
 O 0.34141 0.32118 0.1546   -0.75745
 O 0.18281 0.6546 0.82118   -0.755505
 O 0.15859 0.8454 0.67882   -0.757443
 O 0.31719 0.17882 0.3454   -0.755501
