{'_ref': 'TBD', '_srcid': 'CAKYAQ_clean', 'submitters': [{'name': 'Dalar Nazarian Jeff Camp and David Sholl', 'email': 'dalar@gatech.edu jcamp6@gatech.edu'}], '_method': 'VASP DFT with PBE;DDEC'}
data_CdH10C16(N3O2)2
_symmetry_space_group_name_H-M   'P 1'
_cell_length_a   11.44000000
_cell_length_b   13.75559942
_cell_length_c   13.78000000
_cell_angle_alpha   103.23410007
_cell_angle_beta   90.00000000
_cell_angle_gamma   114.57108387
_symmetry_Int_Tables_number   1
_chemical_formula_structural   CdH10C16(N3O2)2
_chemical_formula_sum   'Cd4 H40 C64 N24 O16'
_cell_volume   1908.60829245
_cell_formula_units_Z   4
loop_
 _symmetry_equiv_pos_site_id
 _symmetry_equiv_pos_as_xyz
  1  'x, y, z'
loop_
 _atom_site_label
 _atom_site_fract_x
 _atom_site_fract_y
 _atom_site_fract_z
 _atom_site_charge
 Cd 0.95707 0.55458 0.6314   0.946734
 Cd 0.40249 0.44542 0.8686   0.946742
 Cd 0.04293 0.44542 0.3686   0.946734
 Cd 0.59751 0.55458 0.1314   0.946741
 H 0.9242 0.6524 0.2161   0.096698
 H 0.1183 0.6866 0.1561   0.079352
 H 0.0104 0.8012 0.6294   0.081708
 H 0.167 0.9732 0.6245   0.152008
 H 0.4362 0.8546 0.6275   0.138884
 H 0.272 0.6872 0.6331   0.081309
 H 0.4842 0.2362 0.6227   0.134971
 H 0.6417 0.4086 0.6189   0.069772
 H 0.9162 0.309 0.6288   0.086747
 H 0.7692 0.1352 0.6344   0.145313
 H 0.2718 0.3476 0.2839   0.096859
 H 0.4317 0.3134 0.3439   0.079099
 H 0.2092 0.1988 0.8706   0.080872
 H 0.1938 0.0268 0.8755   0.152288
 H 0.5816 0.1454 0.8725   0.13949
 H 0.5848 0.3128 0.8669   0.081534
 H 0.248 0.7638 0.8773   0.135328
 H 0.2331 0.5914 0.8811   0.069952
 H 0.6072 0.691 0.8712   0.087077
 H 0.634 0.8648 0.8656   0.145013
 H 0.0758 0.3476 0.7839   0.096701
 H 0.8817 0.3134 0.8439   0.079355
 H 0.9896 0.1988 0.3706   0.081709
 H 0.833 0.0268 0.3755   0.152012
 H 0.5638 0.1454 0.3725   0.138885
 H 0.728 0.3128 0.3669   0.081311
 H 0.5158 0.7638 0.3773   0.134972
 H 0.3583 0.5914 0.3811   0.069771
 H 0.0838 0.691 0.3712   0.086748
 H 0.2308 0.8648 0.3656   0.145315
 H 0.7282 0.6524 0.7161   0.096861
 H 0.5683 0.6866 0.6561   0.079102
 H 0.7908 0.8012 0.1294   0.080872
 H 0.8062 0.9732 0.1245   0.152292
 H 0.4184 0.8546 0.1275   0.139491
 H 0.4152 0.6872 0.1331   0.081536
 H 0.752 0.2362 0.1227   0.135328
 H 0.7669 0.4086 0.1189   0.069952
 H 0.3928 0.309 0.1288   0.087079
 H 0.366 0.1352 0.1344   0.145015
 C 0.9523 0.6242 0.9519   0.131545
 C 0.8332 0.594 0.9868   0.030751
 C 0.9284 0.6418 0.1458   0.084948
 C 0.0448 0.6654 0.1103   0.103749
 C 0.9693 0.6204 0.8417   0.615044
 C 0.7097 0.5402 0.9157   0.597911
 C 0.0982 0.8124 0.6293   0.182852
 C 0.1905 0.9148 0.626   -0.236091
 C 0.3181 0.9316 0.6249   0.225063
 C 0.3492 0.8454 0.6279   -0.229735
 C 0.2505 0.7464 0.6313   0.184278
 C 0.6094 0.1662 0.628   0.227315
 C 0.5726 0.2492 0.6239   -0.216926
 C 0.6673 0.3518 0.6217   0.209417
 C 0.827 0.2934 0.6277   0.172334
 C 0.7406 0.19 0.6306   -0.245114
 C 0.3281 0.3758 0.5481   0.132356
 C 0.2392 0.406 0.5132   0.029735
 C 0.2866 0.3582 0.3542   0.08502
 C 0.3794 0.3346 0.3897   0.104098
 C 0.3489 0.3796 0.6583   0.614563
 C 0.1695 0.4598 0.5843   0.599932
 C 0.2858 0.1876 0.8707   0.184177
 C 0.2757 0.0852 0.874   -0.237125
 C 0.3865 0.0684 0.8751   0.225558
 C 0.5038 0.1546 0.8721   -0.231663
 C 0.5041 0.2536 0.8687   0.185139
 C 0.4432 0.8338 0.872   0.226744
 C 0.3234 0.7508 0.8761   -0.216913
 C 0.3155 0.6482 0.8783   0.209352
 C 0.5336 0.7066 0.8723   0.172359
 C 0.5506 0.81 0.8694   -0.244309
 C 0.0477 0.3758 0.0481   0.131545
 C 0.1668 0.406 0.0132   0.030751
 C 0.0716 0.3582 0.8542   0.084947
 C 0.9552 0.3346 0.8897   0.103749
 C 0.0307 0.3796 0.1583   0.615044
 C 0.2903 0.4598 0.0843   0.597911
 C 0.9018 0.1876 0.3707   0.182852
 C 0.8095 0.0852 0.374   -0.236092
 C 0.6819 0.0684 0.3751   0.225063
 C 0.6508 0.1546 0.3721   -0.229736
 C 0.7495 0.2536 0.3687   0.184277
 C 0.3906 0.8338 0.372   0.227314
 C 0.4274 0.7508 0.3761   -0.216926
 C 0.3327 0.6482 0.3783   0.209418
 C 0.173 0.7066 0.3723   0.172333
 C 0.2594 0.81 0.3694   -0.245115
 C 0.6719 0.6242 0.4519   0.132357
 C 0.7608 0.594 0.4868   0.029736
 C 0.7134 0.6418 0.6458   0.085019
 C 0.6206 0.6654 0.6103   0.104098
 C 0.6511 0.6204 0.3417   0.614563
 C 0.8305 0.5402 0.4157   0.599932
 C 0.7142 0.8124 0.1293   0.184177
 C 0.7243 0.9148 0.126   -0.237126
 C 0.6135 0.9316 0.1249   0.225558
 C 0.4962 0.8454 0.1279   -0.231664
 C 0.4959 0.7464 0.1313   0.185138
 C 0.5568 0.1662 0.128   0.226744
 C 0.6766 0.2492 0.1239   -0.216913
 C 0.6845 0.3518 0.1217   0.209352
 C 0.4664 0.2934 0.1277   0.172358
 C 0.4494 0.19 0.1306   -0.24431
 N 0.0606 0.66 0.0134   -0.324366
 N 0.8191 0.604 0.0854   -0.266981
 N 0.1261 0.7278 0.6323   -0.318361
 N 0.7922 0.3748 0.6232   -0.327599
 N 0.4079 0.04 0.6195   -0.121798
 N 0.5216 0.0562 0.6292   -0.148809
 N 0.4006 0.34 0.4866   -0.324685
 N 0.2151 0.396 0.4146   -0.267214
 N 0.3983 0.2722 0.8677   -0.318706
 N 0.4174 0.6252 0.8768   -0.328386
 N 0.3679 0.96 0.8805   -0.122384
 N 0.4654 0.9438 0.8708   -0.14813
 N 0.9394 0.34 0.9866   -0.324366
 N 0.1809 0.396 0.9146   -0.26698
 N 0.8739 0.2722 0.3677   -0.318361
 N 0.2078 0.6252 0.3768   -0.327598
 N 0.5921 0.96 0.3805   -0.121798
 N 0.4784 0.9438 0.3708   -0.148809
 N 0.5994 0.66 0.5134   -0.324685
 N 0.7849 0.604 0.5854   -0.267214
 N 0.6017 0.7278 0.1323   -0.318705
 N 0.5826 0.3748 0.1232   -0.328386
 N 0.6321 0.04 0.1195   -0.122384
 N 0.5346 0.0562 0.1292   -0.14813
 O 0.9973 0.548 0.7923   -0.574283
 O 0.9534 0.6918 0.8095   -0.628759
 O 0.7156 0.5056 0.8284   -0.517491
 O 0.606 0.5308 0.9547   -0.622517
 O 0.4493 0.452 0.7077   -0.57393
 O 0.2616 0.3082 0.6905   -0.62837
 O 0.21 0.4944 0.6716   -0.518177
 O 0.0752 0.4692 0.5453   -0.623183
 O 0.0027 0.452 0.2077   -0.574283
 O 0.0466 0.3082 0.1905   -0.628759
 O 0.2844 0.4944 0.1716   -0.517491
 O 0.394 0.4692 0.0453   -0.622517
 O 0.5507 0.548 0.2923   -0.57393
 O 0.7384 0.6918 0.3095   -0.62837
 O 0.79 0.5056 0.3284   -0.518177
 O 0.9248 0.5308 0.4547   -0.623184
