{'_ref': 'TBD', '_srcid': 'CAKYAQ_clean', 'submitters': [{'name': 'Dalar Nazarian Jeff Camp and David Sholl', 'email': 'dalar@gatech.edu jcamp6@gatech.edu'}], '_method': 'VASP DFT with PBE;DDEC'}
data_ZnNi(CN)4
_symmetry_space_group_name_H-M   'P 1'
_cell_length_a   7.46530052
_cell_length_b   7.46530043
_cell_length_c   12.41420000
_cell_angle_alpha   81.72569858
_cell_angle_beta   81.72569868
_cell_angle_gamma   64.27300132
_symmetry_Int_Tables_number   1
_chemical_formula_structural   ZnNi(CN)4
_chemical_formula_sum   'Zn2 Ni2 C8 N8'
_cell_volume   614.203556638
_cell_formula_units_Z   2
loop_
 _symmetry_equiv_pos_site_id
 _symmetry_equiv_pos_as_xyz
  1  'x, y, z'
loop_
 _atom_site_label
 _atom_site_fract_x
 _atom_site_fract_y
 _atom_site_fract_z
 _atom_site_charge
 Zn 0.12315 0.87685 0.25   0.961257
 Zn 0.87685 0.12315 0.75   0.961256
 Ni 0.0 0.5 0.0   0.028853
 Ni 0.5 0.0 0.5   0.028854
 C 0.0404 0.2704 0.09398   0.156166
 C 0.0765 0.6077 0.1021   0.182076
 C 0.7296 0.9596 0.40602   0.156162
 C 0.3923 0.9235 0.3979   0.182072
 C 0.9596 0.7296 0.90602   0.156164
 C 0.9235 0.3923 0.8979   0.182075
 C 0.2704 0.0404 0.59398   0.156161
 C 0.6077 0.0765 0.6021   0.182071
 N 0.06726 0.12646 0.15003   -0.408442
 N 0.12315 0.67895 0.16178   -0.42485
 N 0.87354 0.93274 0.34997   -0.408442
 N 0.32105 0.87685 0.33822   -0.424849
 N 0.93274 0.87354 0.84997   -0.408442
 N 0.87685 0.32105 0.83822   -0.424849
 N 0.12646 0.06726 0.65003   -0.408442
 N 0.67895 0.12315 0.66178   -0.424849
