{'_ref': 'TBD', '_srcid': 'CAKYAQ_clean', 'submitters': [{'name': 'Dalar Nazarian Jeff Camp and David Sholl', 'email': 'dalar@gatech.edu jcamp6@gatech.edu'}], '_method': 'VASP DFT with PBE;DDEC'}
data_CdH12C18(NO)4
_symmetry_space_group_name_H-M   'P 1'
_cell_length_a   11.21499948
_cell_length_b   13.98300010
_cell_length_c   13.99721110
_cell_angle_alpha   104.26409205
_cell_angle_beta   113.61616635
_cell_angle_gamma   90.00000065
_symmetry_Int_Tables_number   1
_chemical_formula_structural   CdH12C18(NO)4
_chemical_formula_sum   'Cd4 H48 C72 N16 O16'
_cell_volume   1937.11505618
_cell_formula_units_Z   4
loop_
 _symmetry_equiv_pos_site_id
 _symmetry_equiv_pos_as_xyz
  1  'x, y, z'
loop_
 _atom_site_label
 _atom_site_fract_x
 _atom_site_fract_y
 _atom_site_fract_z
 _atom_site_charge
 Cd 0.45464 0.63277 0.55148   0.970348
 Cd 0.90316 0.86723 0.44852   0.969838
 Cd 0.54536 0.36723 0.44852   0.970348
 Cd 0.09684 0.13277 0.55148   0.969838
 H 0.429 0.2167 0.641   0.098826
 H 0.6294 0.1565 0.6784   0.079707
 H 0.7695 0.6297 0.6812   0.080787
 H 0.9284 0.6187 0.8436   0.131834
 H 0.6503 0.6309 0.9598   0.142559
 H 0.4983 0.6389 0.7908   0.073173
 H 0.2906 0.6241 0.141   0.140282
 H 0.4311 0.6264 0.3166   0.081107
 H 0.1421 0.6282 0.4078   0.073136
 H 0.9928 0.628 0.2366   0.134651
 H 0.8634 0.6234 0.0754   0.1156
 H 0.0638 0.6196 0.0058   0.10391
 H 0.788 0.2833 0.359   0.098024
 H 0.951 0.3435 0.3216   0.080216
 H 0.0883 0.8703 0.3188   0.080895
 H 0.0848 0.8813 0.1564   0.131994
 H 0.6905 0.8691 0.0402   0.142106
 H 0.7075 0.8611 0.2092   0.073512
 H 0.1496 0.8759 0.859   0.140874
 H 0.1145 0.8736 0.6834   0.080774
 H 0.7343 0.8718 0.5922   0.072691
 H 0.7562 0.872 0.7634   0.134004
 H 0.788 0.8766 0.9246   0.115279
 H 0.058 0.8804 0.9942   0.104214
 H 0.571 0.7833 0.359   0.098827
 H 0.3706 0.8435 0.3216   0.079709
 H 0.2305 0.3703 0.3188   0.080789
 H 0.0716 0.3813 0.1564   0.131835
 H 0.3497 0.3691 0.0402   0.142562
 H 0.5017 0.3611 0.2092   0.073173
 H 0.7094 0.3759 0.859   0.140284
 H 0.5689 0.3736 0.6834   0.081108
 H 0.8579 0.3718 0.5922   0.073136
 H 0.0072 0.372 0.7634   0.134651
 H 0.1366 0.3766 0.9246   0.1156
 H 0.9362 0.3804 0.9942   0.103911
 H 0.212 0.7167 0.641   0.098025
 H 0.049 0.6565 0.6784   0.080218
 H 0.9117 0.1297 0.6812   0.080897
 H 0.9152 0.1187 0.8436   0.131995
 H 0.3095 0.1309 0.9598   0.142109
 H 0.2925 0.1389 0.7908   0.073512
 H 0.8504 0.1241 0.141   0.140876
 H 0.8855 0.1264 0.3166   0.080774
 H 0.2657 0.1282 0.4078   0.072691
 H 0.2438 0.128 0.2366   0.134004
 H 0.212 0.1234 0.0754   0.11528
 H 0.942 0.1196 0.0058   0.104214
 C 0.4599 0.9588 0.6318   0.127743
 C 0.3363 0.9896 0.5966   0.027363
 C 0.4339 0.148 0.6338   0.070982
 C 0.5547 0.112 0.6594   0.100382
 C 0.4785 0.854 0.639   0.649063
 C 0.2136 0.917 0.5472   0.624513
 C 0.7443 0.6295 0.7386   0.17205
 C 0.8407 0.623 0.8354   -0.221989
 C 0.8077 0.622 0.9194   0.140946
 C 0.6776 0.63 0.9032   -0.228769
 C 0.5869 0.635 0.8018   0.179327
 C 0.1238 0.6246 0.1716   0.118279
 C 0.2583 0.625 0.1946   -0.230521
 C 0.3402 0.6263 0.2984   0.175879
 C 0.1715 0.628 0.353   0.200492
 C 0.0827 0.627 0.2514   -0.202074
 C 0.8977 0.623 0.0234   -0.118579
 C 0.0288 0.622 0.0576   -0.112896
 C 0.8281 0.5412 0.3682   0.128186
 C 0.7397 0.5104 0.4034   0.027857
 C 0.8001 0.352 0.3662   0.07316
 C 0.8953 0.388 0.3406   0.099198
 C 0.8395 0.646 0.361   0.648688
 C 0.6664 0.583 0.4528   0.624406
 C 0.0057 0.8705 0.2614   0.170845
 C 0.0053 0.877 0.1646   -0.221429
 C 0.8883 0.878 0.0806   0.140322
 C 0.7744 0.87 0.0968   -0.227512
 C 0.7851 0.865 0.1982   0.17744
 C 0.9522 0.8754 0.8284   0.118434
 C 0.0637 0.875 0.8054   -0.231136
 C 0.0418 0.8737 0.7016   0.175991
 C 0.8185 0.872 0.647   0.200118
 C 0.8313 0.873 0.7486   -0.201415
 C 0.8743 0.877 0.9766   -0.118206
 C 0.9712 0.878 0.9424   -0.11339
 C 0.5401 0.0412 0.3682   0.127743
 C 0.6637 0.0104 0.4034   0.027364
 C 0.5661 0.852 0.3662   0.070982
 C 0.4453 0.888 0.3406   0.100382
 C 0.5215 0.146 0.361   0.649063
 C 0.7864 0.083 0.4528   0.624513
 C 0.2557 0.3705 0.2614   0.17205
 C 0.1593 0.377 0.1646   -0.22199
 C 0.1923 0.378 0.0806   0.140946
 C 0.3224 0.37 0.0968   -0.22877
 C 0.4131 0.365 0.1982   0.179328
 C 0.8762 0.3754 0.8284   0.118279
 C 0.7417 0.375 0.8054   -0.230522
 C 0.6598 0.3737 0.7016   0.175879
 C 0.8285 0.372 0.647   0.200493
 C 0.9173 0.373 0.7486   -0.202074
 C 0.1023 0.377 0.9766   -0.118579
 C 0.9712 0.378 0.9424   -0.112897
 C 0.1719 0.4588 0.6318   0.128186
 C 0.2603 0.4896 0.5966   0.027858
 C 0.1999 0.648 0.6338   0.07316
 C 0.1047 0.612 0.6594   0.099198
 C 0.1605 0.354 0.639   0.648688
 C 0.3336 0.417 0.5472   0.624406
 C 0.9943 0.1295 0.7386   0.170845
 C 0.9947 0.123 0.8354   -0.22143
 C 0.1117 0.122 0.9194   0.140322
 C 0.2256 0.13 0.9032   -0.227513
 C 0.2149 0.135 0.8018   0.17744
 C 0.0478 0.1246 0.1716   0.118434
 C 0.9363 0.125 0.1946   -0.231137
 C 0.9582 0.1263 0.2984   0.17599
 C 0.1815 0.128 0.353   0.200118
 C 0.1687 0.127 0.2514   -0.201416
 C 0.1257 0.123 0.0234   -0.118207
 C 0.0288 0.122 0.0576   -0.113391
 N 0.5694 0.0171 0.6588   -0.337901
 N 0.3212 0.0857 0.598   -0.275041
 N 0.6178 0.6357 0.7196   -0.329709
 N 0.2976 0.6276 0.376   -0.346097
 N 0.9106 0.4829 0.3412   -0.338126
 N 0.7232 0.4143 0.402   -0.27655
 N 0.8982 0.8643 0.2804   -0.327327
 N 0.9216 0.8724 0.624   -0.345294
 N 0.4306 0.9829 0.3412   -0.337901
 N 0.6788 0.9143 0.402   -0.275041
 N 0.3822 0.3643 0.2804   -0.329709
 N 0.7024 0.3724 0.624   -0.346097
 N 0.0894 0.5171 0.6588   -0.338126
 N 0.2768 0.5857 0.598   -0.27655
 N 0.1018 0.1357 0.7196   -0.327327
 N 0.0784 0.1276 0.376   -0.345293
 O 0.4944 0.7949 0.5648   -0.619119
 O 0.4773 0.833 0.7166   -0.632707
 O 0.2226 0.8337 0.5392   -0.511242
 O 0.1087 0.9564 0.5252   -0.646172
 O 0.9296 0.7051 0.4352   -0.618474
 O 0.7607 0.667 0.2834   -0.63303
 O 0.6834 0.6663 0.4608   -0.511356
 O 0.5835 0.5436 0.4748   -0.645957
 O 0.5056 0.2051 0.4352   -0.619119
 O 0.5227 0.167 0.2834   -0.632707
 O 0.7774 0.1663 0.4608   -0.511242
 O 0.8913 0.0436 0.4748   -0.646172
 O 0.0704 0.2949 0.5648   -0.618474
 O 0.2393 0.333 0.7166   -0.63303
 O 0.3166 0.3337 0.5392   -0.511356
 O 0.4165 0.4564 0.5252   -0.645957
