{'_ref': 'TBD', '_srcid': 'CAKYAQ_clean', 'submitters': [{'name': 'Dalar Nazarian Jeff Camp and David Sholl', 'email': 'dalar@gatech.edu jcamp6@gatech.edu'}], '_method': 'VASP DFT with PBE;DDEC'}
data_GdH3(C3O2)3
_symmetry_space_group_name_H-M   'P 1'
_cell_length_a   10.36250000
_cell_length_b   10.36250000
_cell_length_c   13.84730000
_cell_angle_alpha   90.00000000
_cell_angle_beta   90.00000000
_cell_angle_gamma   90.00000000
_symmetry_Int_Tables_number   1
_chemical_formula_structural   GdH3(C3O2)3
_chemical_formula_sum   'Gd4 H12 C36 O24'
_cell_volume   1486.94254677
_cell_formula_units_Z   4
loop_
 _symmetry_equiv_pos_site_id
 _symmetry_equiv_pos_as_xyz
  1  'x, y, z'
loop_
 _atom_site_label
 _atom_site_fract_x
 _atom_site_fract_y
 _atom_site_fract_z
 _atom_site_charge
 Gd 0.12274 0.12274 0.375   2.258136
 Gd 0.87726 0.87726 0.875   2.258136
 Gd 0.87726 0.12274 0.625   2.258136
 Gd 0.12274 0.87726 0.125   2.258136
 H 0.0626 0.5382 0.3632   0.113442
 H 0.9374 0.4618 0.8632   0.113442
 H 0.4618 0.0626 0.6132   0.113442
 H 0.5382 0.9374 0.1132   0.113442
 H 0.9374 0.5382 0.6368   0.113443
 H 0.0626 0.4618 0.1368   0.113443
 H 0.5382 0.0626 0.3868   0.113443
 H 0.4618 0.9374 0.8868   0.113443
 H 0.0 0.8728 0.5   0.067503
 H 0.0 0.1272 0.0   0.067503
 H 0.1272 0.0 0.75   0.067503
 H 0.8728 0.0 0.25   0.067503
 C 0.0713 0.7907 0.3285   0.797557
 C 0.0371 0.5831 0.4181   0.049975
 C 0.0364 0.7166 0.4173   -0.195737
 C 0.9287 0.2093 0.8285   0.797557
 C 0.9629 0.4169 0.9181   0.049975
 C 0.9636 0.2834 0.9173   -0.195737
 C 0.2093 0.0713 0.5785   0.797557
 C 0.4169 0.0371 0.6681   0.049975
 C 0.2834 0.0364 0.6673   -0.195738
 C 0.7907 0.9287 0.0785   0.797557
 C 0.5831 0.9629 0.1681   0.049975
 C 0.7166 0.9636 0.1673   -0.195738
 C 0.9287 0.7907 0.6715   0.797557
 C 0.9629 0.5831 0.5819   0.049975
 C 0.9636 0.7166 0.5827   -0.195738
 C 0.0713 0.2093 0.1715   0.797557
 C 0.0371 0.4169 0.0819   0.049975
 C 0.0364 0.2834 0.0827   -0.195738
 C 0.7907 0.0713 0.4215   0.797557
 C 0.5831 0.0371 0.3319   0.049974
 C 0.7166 0.0364 0.3327   -0.195738
 C 0.2093 0.9287 0.9215   0.797557
 C 0.4169 0.9629 0.8319   0.049974
 C 0.2834 0.9636 0.8327   -0.195738
 C 0.0 0.3734 0.5   0.821121
 C 0.0 0.5156 0.5   -0.184484
 C 0.0 0.7831 0.5   0.045618
 C 0.0 0.6266 0.0   0.821121
 C 0.0 0.4844 0.0   -0.184484
 C 0.0 0.2169 0.0   0.045618
 C 0.6266 0.0 0.75   0.821121
 C 0.4844 0.0 0.75   -0.184484
 C 0.2169 0.0 0.75   0.045618
 C 0.3734 0.0 0.25   0.821121
 C 0.5156 0.0 0.25   -0.184484
 C 0.7831 0.0 0.25   0.045618
 O 0.0813 0.3158 0.4475   -0.74713
 O 0.0823 0.7308 0.251   -0.695707
 O 0.0856 0.9087 0.3305   -0.826348
 O 0.9187 0.6842 0.9475   -0.74713
 O 0.9177 0.2692 0.751   -0.695707
 O 0.9144 0.0913 0.8305   -0.826348
 O 0.6842 0.0813 0.6975   -0.74713
 O 0.2692 0.0823 0.501   -0.695707
 O 0.0913 0.0856 0.5805   -0.826348
 O 0.3158 0.9187 0.1975   -0.74713
 O 0.7308 0.9177 0.000999999999998   -0.695707
 O 0.9087 0.9144 0.0805   -0.826348
 O 0.9187 0.3158 0.5525   -0.74713
 O 0.9177 0.7308 0.749   -0.695707
 O 0.9144 0.9087 0.6695   -0.826348
 O 0.0813 0.6842 0.0525   -0.74713
 O 0.0823 0.2692 0.249   -0.695707
 O 0.0856 0.0913 0.1695   -0.826348
 O 0.3158 0.0813 0.3025   -0.74713
 O 0.7308 0.0823 0.499   -0.695707
 O 0.9087 0.0856 0.4195   -0.826348
 O 0.6842 0.9187 0.8025   -0.74713
 O 0.2692 0.9177 0.999   -0.695707
 O 0.0913 0.9144 0.9195   -0.826348
