{'_ref': 'TBD', '_srcid': 'CAKYAQ_clean', 'submitters': [{'name': 'Dalar Nazarian Jeff Camp and David Sholl', 'email': 'dalar@gatech.edu jcamp6@gatech.edu'}], '_method': 'VASP DFT with PBE;DDEC'}
data_Fe5H15C31O22
_symmetry_space_group_name_H-M   'P 1'
_cell_length_a   12.80799971
_cell_length_b   14.15500015
_cell_length_c   18.04790000
_cell_angle_alpha   101.46000089
_cell_angle_beta   110.78299934
_cell_angle_gamma   90.00000007
_symmetry_Int_Tables_number   1
_chemical_formula_structural   Fe5H15C31O22
_chemical_formula_sum   'Fe10 H30 C62 O44'
_cell_volume   2989.25144247
_cell_formula_units_Z   2
loop_
 _symmetry_equiv_pos_site_id
 _symmetry_equiv_pos_as_xyz
  1  'x, y, z'
loop_
 _atom_site_label
 _atom_site_fract_x
 _atom_site_fract_y
 _atom_site_fract_z
 _atom_site_charge
 Fe 0.25409 0.64481 0.03816   1.180117
 Fe 0.53433 0.99273 0.4308   1.02772
 Fe 0.21593 0.85519 0.96184   1.181193
 Fe 0.10353 0.50727 0.5692   1.028005
 Fe 0.74591 0.35519 0.96184   1.180115
 Fe 0.46567 0.00727 0.5692   1.027714
 Fe 0.78407 0.14481 0.03816   1.18119
 Fe 0.89647 0.49273 0.4308   1.028002
 Fe 0.0 0.5 0.0   1.242467
 Fe 0.0 0.0 0.0   1.244581
 H 0.3265 0.7343 0.279   0.105441
 H 0.2664 0.7229 0.4804   0.110808
 H 0.0846 0.5459 0.2684   0.101435
 H 0.8994 0.6296 0.8646   0.171305
 H 0.9561 0.6582 0.8074   0.172743
 H 0.934 0.7384 0.8724   0.183292
 H 0.5686 0.611 0.0102   0.110648
 H 0.0475 0.7657 0.721   0.105137
 H 0.786 0.7771 0.5196   0.110031
 H 0.8162 0.9541 0.7316   0.101485
 H 0.0348 0.8704 0.1354   0.171118
 H 0.1487 0.8418 0.1926   0.172908
 H 0.0616 0.7616 0.1276   0.182869
 H 0.5584 0.889 0.9898   0.110581
 H 0.6735 0.2657 0.721   0.105441
 H 0.7336 0.2771 0.5196   0.110808
 H 0.9154 0.4541 0.7316   0.101438
 H 0.1006 0.3704 0.1354   0.171305
 H 0.0439 0.3418 0.1926   0.172746
 H 0.066 0.2616 0.1276   0.183292
 H 0.4314 0.389 0.9898   0.110647
 H 0.9525 0.2343 0.279   0.105137
 H 0.214 0.2229 0.4804   0.110031
 H 0.1838 0.0459 0.2684   0.101487
 H 0.9652 0.1296 0.8646   0.171119
 H 0.8513 0.1582 0.8074   0.17291
 H 0.9384 0.2384 0.8724   0.18287
 H 0.4416 0.111 0.0102   0.110577
 H 0.8356 0.75 0.0   0.096457
 H 0.1644 0.25 0.0   0.096457
 C 0.20263 0.6329 0.25986   -0.179188
 C 0.2852 0.7084 0.3044   0.016207
 C 0.30585 0.7447 0.3851   -0.167148
 C 0.24936 0.7013 0.42492   0.013315
 C 0.16742 0.6256 0.38144   -0.156958
 C 0.14223 0.5937 0.29826   0.015892
 C 0.17808 0.598 0.16936   0.70927
 C 0.38616 0.8336 0.42972   0.696937
 C 0.10561 0.58 0.42462   0.713406
 C 0.06603 0.6629 0.92086   0.814809
 C 0.95391 0.6732 0.86102   -0.545367
 C 0.71159 0.6652 0.00418   -0.187499
 C 0.60286 0.6664 0.00552   0.040459
 C 0.77032 0.5739 0.00464   0.720185
 C 0.94277 0.8671 0.74014   -0.177777
 C 0.9808 0.7916 0.6956   0.015985
 C 0.92075 0.7553 0.6149   -0.167344
 C 0.82444 0.7987 0.57508   0.014412
 C 0.78598 0.8744 0.61856   -0.156708
 C 0.84397 0.9063 0.70174   0.014831
 C 0.00872 0.902 0.83064   0.708872
 C 0.95644 0.6664 0.57028   0.697113
 C 0.68099 0.92 0.57538   0.713025
 C 0.14517 0.8371 0.07914   0.813041
 C 0.09289 0.8268 0.13898   -0.545445
 C 0.70741 0.8348 0.99582   -0.186407
 C 0.59734 0.8336 0.99448   0.039671
 C 0.76568 0.9261 0.99536   0.720223
 C 0.79737 0.3671 0.74014   -0.179188
 C 0.7148 0.2916 0.6956   0.016207
 C 0.69415 0.2553 0.6149   -0.16715
 C 0.75064 0.2987 0.57508   0.013312
 C 0.83258 0.3744 0.61856   -0.156959
 C 0.85777 0.4063 0.70174   0.015889
 C 0.82192 0.402 0.83064   0.709269
 C 0.61384 0.1664 0.57028   0.696939
 C 0.89439 0.42 0.57538   0.713407
 C 0.93397 0.3371 0.07914   0.814809
 C 0.04609 0.3268 0.13898   -0.54537
 C 0.28841 0.3348 0.99582   -0.187501
 C 0.39714 0.3336 0.99448   0.04046
 C 0.22968 0.4261 0.99536   0.720185
 C 0.05723 0.1329 0.25986   -0.177776
 C 0.0192 0.2084 0.3044   0.015985
 C 0.07925 0.2447 0.3851   -0.167345
 C 0.17556 0.2013 0.42492   0.01441
 C 0.21402 0.1256 0.38144   -0.15671
 C 0.15603 0.0937 0.29826   0.014828
 C 0.99128 0.098 0.16936   0.70887
 C 0.04356 0.3336 0.42972   0.697115
 C 0.31901 0.08 0.42462   0.713026
 C 0.85483 0.1629 0.92086   0.813041
 C 0.90711 0.1732 0.86102   -0.545447
 C 0.29259 0.1652 0.00418   -0.186409
 C 0.40266 0.1664 0.00552   0.039672
 C 0.23432 0.0739 0.00464   0.720222
 C 0.5457 0.75 0.0   -0.188388
 C 0.763 0.75 0.0   0.034294
 C 0.429 0.75 0.0   0.725472
 C 0.4543 0.25 0.0   -0.188388
 C 0.237 0.25 0.0   0.034295
 C 0.571 0.25 0.0   0.725472
 O 0.08606 0.5535 0.12832   -0.598267
 O 0.2526 0.6205 0.1446   -0.596248
 O 0.44255 0.8618 0.3929   -0.572201
 O 0.38787 0.8735 0.49894   -0.592842
 O 0.16015 0.5733 0.4957   -0.59181
 O 0.00509 0.5527 0.38578   -0.591881
 O 0.15424 0.6968 0.91628   -0.639304
 O 0.07495 0.6241 0.9799   -0.667509
 O 0.86901 0.5803 0.00622   -0.613119
 O 0.71661 0.498 0.00202   -0.59013
 O 0.3997 0.6859 0.0294   -0.569254
 O 0.95774 0.9465 0.87168   -0.598122
 O 0.108 0.8795 0.8554   -0.596615
 O 0.04965 0.6382 0.6071   -0.572936
 O 0.88893 0.6265 0.50106   -0.592522
 O 0.66445 0.9267 0.5043   -0.591467
 O 0.61931 0.9473 0.61422   -0.591867
 O 0.23796 0.8032 0.08372   -0.638236
 O 0.09505 0.8759 0.0201   -0.666162
 O 0.86279 0.9197 0.99378   -0.615003
 O 0.71459 0.002 0.99798   -0.590349
 O 0.3703 0.8141 0.9706   -0.570156
 O 0.91394 0.4465 0.87168   -0.598267
 O 0.7474 0.3795 0.8554   -0.596248
 O 0.55745 0.1382 0.6071   -0.572199
 O 0.61213 0.1265 0.50106   -0.592841
 O 0.83985 0.4267 0.5043   -0.591809
 O 0.99491 0.4473 0.61422   -0.59188
 O 0.84576 0.3032 0.08372   -0.639304
 O 0.92505 0.3759 0.0201   -0.667509
 O 0.13099 0.4197 0.99378   -0.613119
 O 0.28339 0.502 0.99798   -0.590128
 O 0.6003 0.3141 0.9706   -0.569252
 O 0.04226 0.0535 0.12832   -0.598122
 O 0.892 0.1205 0.1446   -0.596615
 O 0.95035 0.3618 0.3929   -0.572934
 O 0.11107 0.3735 0.49894   -0.592522
 O 0.33555 0.0733 0.4957   -0.591466
 O 0.38069 0.0527 0.38578   -0.591865
 O 0.76204 0.1968 0.91628   -0.638236
 O 0.90495 0.1241 0.9799   -0.666162
 O 0.13721 0.0803 0.00622   -0.615003
 O 0.28541 0.998 0.00202   -0.590348
 O 0.6297 0.1859 0.0294   -0.570154
