{'_ref': 'TBD', '_srcid': 'CAKYAQ_clean', 'submitters': [{'name': 'Dalar Nazarian Jeff Camp and David Sholl', 'email': 'dalar@gatech.edu jcamp6@gatech.edu'}], '_method': 'VASP DFT with PBE;DDEC'}
data_CuH7C9N3O4
_symmetry_space_group_name_H-M   'P 1'
_cell_length_a   7.57980010
_cell_length_b   8.78490040
_cell_length_c   19.05600000
_cell_angle_alpha   94.15399979
_cell_angle_beta   96.89000102
_cell_angle_gamma   112.58000023
_symmetry_Int_Tables_number   1
_chemical_formula_structural   CuH7C9N3O4
_chemical_formula_sum   'Cu4 H28 C36 N12 O16'
_cell_volume   1153.40768187
_cell_formula_units_Z   4
loop_
 _symmetry_equiv_pos_site_id
 _symmetry_equiv_pos_as_xyz
  1  'x, y, z'
loop_
 _atom_site_label
 _atom_site_fract_x
 _atom_site_fract_y
 _atom_site_fract_z
 _atom_site_charge
 Cu 0.32 0.14529 0.16641   0.928673
 Cu 0.0051 0.29536 0.3489   0.814478
 Cu 0.68 0.85471 0.83359   0.928671
 Cu 0.9949 0.70464 0.6511   0.814477
 H 0.9916 0.6585 0.0108   0.090221
 H 0.1855 0.629 0.0236   0.100764
 H 0.0826 0.6641 0.1324   0.102984
 H 0.0858 0.4849 0.1195   0.093327
 H 0.4134 0.4674 0.0893   0.083567
 H 0.7765 0.2742 0.1582   0.121107
 H 0.3516 0.8587 0.5191   0.081011
 H 0.5437 0.856 0.4956   0.102699
 H 0.2846 0.7386 0.4004   0.119919
 H 0.4471 0.8988 0.3798   0.093624
 H 0.8398 0.9718 0.4197   0.087072
 H 0.3265 0.1289 0.3442   0.128192
 H 0.9691 0.7359 0.2638   0.098505
 H 0.3355 0.6916 0.2435   0.121508
 H 0.0084 0.3415 0.9892   0.090221
 H 0.8145 0.371 0.9764   0.100764
 H 0.9174 0.3359 0.8676   0.102984
 H 0.9142 0.5151 0.8805   0.093328
 H 0.5866 0.5326 0.9107   0.083567
 H 0.2235 0.7258 0.8418   0.121107
 H 0.6484 0.1413 0.4809   0.081012
 H 0.4563 0.144 0.5044   0.102699
 H 0.7154 0.2614 0.5996   0.119919
 H 0.5529 0.1012 0.6202   0.093624
 H 0.1602 0.0282 0.5803   0.087072
 H 0.6735 0.8711 0.6558   0.128192
 H 0.0309 0.2641 0.7362   0.098505
 H 0.6645 0.3084 0.7565   0.121508
 C 0.0467 0.5796 0.0259   -0.169574
 C 0.0211 0.556 0.1025   -0.03992
 C 0.5288 0.4514 0.1004   0.281654
 C 0.7214 0.3436 0.1383   0.214146
 C 0.4487 0.9062 0.4884   -0.166577
 C 0.3498 0.8598 0.4111   -0.045147
 C 0.9605 0.9807 0.4084   0.273647
 C 0.2228 0.0676 0.3669   0.203647
 C 0.5153 0.5846 0.2791   -0.030453
 C 0.7073 0.5991 0.2866   -0.11908
 C 0.8404 0.7267 0.2592   -0.021467
 C 0.7908 0.8427 0.2249   -0.139422
 C 0.5979 0.8287 0.2184   -0.001152
 C 0.4637 0.7 0.2466   -0.142392
 C 0.3531 0.4337 0.2975   0.682444
 C 0.7662 0.4818 0.3258   0.649661
 C 0.942 0.9818 0.1967   0.661717
 C 0.5214 0.9398 0.1796   0.6252
 C 0.9533 0.4204 0.9741   -0.169576
 C 0.9789 0.444 0.8975   -0.03992
 C 0.4712 0.5486 0.8996   0.281654
 C 0.2786 0.6564 0.8617   0.214145
 C 0.5513 0.0938 0.5116   -0.166581
 C 0.6502 0.1402 0.5889   -0.045146
 C 0.0395 0.0193 0.5916   0.273646
 C 0.7772 0.9324 0.6331   0.203647
 C 0.4847 0.4154 0.7209   -0.030453
 C 0.2927 0.4009 0.7134   -0.11908
 C 0.1596 0.2733 0.7408   -0.021467
 C 0.2092 0.1573 0.7751   -0.139422
 C 0.4021 0.1713 0.7816   -0.001153
 C 0.5363 0.3 0.7534   -0.142392
 C 0.6469 0.5663 0.7025   0.682444
 C 0.2338 0.5182 0.6742   0.649661
 C 0.058 0.0182 0.8033   0.661717
 C 0.4786 0.0602 0.8204   0.6252
 N 0.8164 0.4803 0.1099   0.150708
 N 0.6928 0.5508 0.0851   -0.343998
 N 0.5377 0.3211 0.1339   -0.48949
 N 0.2079 0.9342 0.3977   0.162385
 N 0.0397 0.8764 0.4259   -0.362369
 N 0.0679 0.1018 0.3729   -0.479373
 N 0.1836 0.5197 0.8901   0.150708
 N 0.3072 0.4492 0.9149   -0.343998
 N 0.4623 0.6789 0.8661   -0.489489
 N 0.7921 0.0658 0.6023   0.162385
 N 0.9603 0.1236 0.5741   -0.362369
 N 0.9321 0.8982 0.6271   -0.479373
 O 0.3042 0.3011 0.2589   -0.603242
 O 0.2667 0.457 0.34674   -0.51716
 O 0.9167 0.4622 0.31178   -0.581108
 O 0.6636 0.4078 0.3699   -0.578914
 O 0.1 0.9658 0.19131   -0.592803
 O 0.9016 0.0988 0.1807   -0.586628
 O 0.494 0.0515 0.21956   -0.539196
 O 0.472 0.9116 0.11434   -0.523392
 O 0.6958 0.6989 0.7411   -0.603242
 O 0.7333 0.543 0.65326   -0.51716
 O 0.0833 0.5378 0.68822   -0.581108
 O 0.3364 0.5922 0.6301   -0.578914
 O 0.9 0.0342 0.80869   -0.592803
 O 0.0984 0.9012 0.8193   -0.586628
 O 0.506 0.9485 0.78044   -0.539196
 O 0.528 0.0884 0.88566   -0.523393
