{'_ref': 'TBD', '_srcid': 'CAKYAQ_clean', 'submitters': [{'name': 'Dalar Nazarian Jeff Camp and David Sholl', 'email': 'dalar@gatech.edu jcamp6@gatech.edu'}], '_method': 'VASP DFT with PBE;DDEC'}
data_Al2P2C3(O3F)2
_symmetry_space_group_name_H-M   'P 1'
_cell_length_a   4.91140000
_cell_length_b   12.05910000
_cell_length_c   19.16470000
_cell_angle_alpha   90.00000000
_cell_angle_beta   90.00000000
_cell_angle_gamma   90.00000000
_symmetry_Int_Tables_number   1
_chemical_formula_structural   Al2P2C3(O3F)2
_chemical_formula_sum   'Al8 P8 C12 O24 F8'
_cell_volume   1135.06890846
_cell_formula_units_Z   4
loop_
 _symmetry_equiv_pos_site_id
 _symmetry_equiv_pos_as_xyz
  1  'x, y, z'
loop_
 _atom_site_label
 _atom_site_fract_x
 _atom_site_fract_y
 _atom_site_fract_z
 _atom_site_charge
 Al 0.2663 0.75 0.93766   1.972038
 Al 0.2663 0.75 0.56234   1.972042
 Al 0.7337 0.25 0.43766   1.972038
 Al 0.7337 0.25 0.06234   1.972042
 Al 0.0 0.0 0.0   1.929017
 Al 0.0 0.5 0.5   1.929017
 Al 0.0 0.0 0.5   1.929016
 Al 0.0 0.5 0.0   1.929016
 P 0.4976 0.98457 0.89529   1.570437
 P 0.4976 0.51543 0.60471   1.570437
 P 0.5024 0.01543 0.39529   1.570437
 P 0.5024 0.48457 0.10471   1.570437
 P 0.5024 0.01543 0.10471   1.570439
 P 0.5024 0.48457 0.39529   1.570439
 P 0.4976 0.98457 0.60471   1.570439
 P 0.4976 0.51543 0.89529   1.570439
 C 0.4408 0.0516 0.81242   -0.199594
 C 0.4408 0.4484 0.68758   -0.199594
 C 0.5592 0.9484 0.31242   -0.199594
 C 0.5592 0.5516 0.18758   -0.199594
 C 0.5592 0.9484 0.18758   -0.199606
 C 0.5592 0.5516 0.31242   -0.199606
 C 0.4408 0.0516 0.68758   -0.199606
 C 0.4408 0.4484 0.81242   -0.199606
 C 0.5486 0.9876 0.75   0.071566
 C 0.5486 0.5124 0.75   0.071567
 C 0.4514 0.0124 0.25   0.071566
 C 0.4514 0.4876 0.25   0.071567
 O 0.7997 0.997 0.91467   -0.904622
 O 0.4656 0.8576 0.8898   -0.923279
 O 0.3172 0.0413 0.9508   -0.913755
 O 0.7997 0.503 0.58533   -0.904622
 O 0.4656 0.6424 0.6102   -0.923279
 O 0.3172 0.4587 0.5492   -0.913755
 O 0.2003 0.003 0.41467   -0.904622
 O 0.5344 0.1424 0.3898   -0.923279
 O 0.6828 0.9587 0.4508   -0.913755
 O 0.2003 0.497 0.08533   -0.904622
 O 0.5344 0.3576 0.1102   -0.923279
 O 0.6828 0.5413 0.0492   -0.913755
 O 0.2003 0.003 0.08533   -0.904622
 O 0.5344 0.1424 0.1102   -0.92328
 O 0.6828 0.9587 0.0492   -0.913755
 O 0.2003 0.497 0.41467   -0.904622
 O 0.5344 0.3576 0.3898   -0.923279
 O 0.6828 0.5413 0.4508   -0.913755
 O 0.7997 0.997 0.58533   -0.904622
 O 0.4656 0.8576 0.6102   -0.92328
 O 0.3172 0.0413 0.5492   -0.913755
 O 0.7997 0.503 0.91467   -0.904622
 O 0.4656 0.6424 0.8898   -0.923279
 O 0.3172 0.4587 0.9508   -0.913755
 F 0.0737 0.8539 0.9865   -0.615494
 F 0.0737 0.6461 0.5135   -0.615494
 F 0.9263 0.1461 0.4865   -0.615494
 F 0.9263 0.3539 0.0135   -0.615494
 F 0.9263 0.1461 0.0135   -0.615494
 F 0.9263 0.3539 0.4865   -0.615494
 F 0.0737 0.8539 0.5135   -0.615494
 F 0.0737 0.6461 0.9865   -0.615494
