{'_ref': 'TBD', '_srcid': 'CAKYAQ_clean', 'submitters': [{'name': 'Dalar Nazarian Jeff Camp and David Sholl', 'email': 'dalar@gatech.edu jcamp6@gatech.edu'}], '_method': 'VASP DFT with PBE;DDEC'}
data_ZnH24C30(NO2)2
_symmetry_space_group_name_H-M   'P 1'
_cell_length_a   7.71650000
_cell_length_b   21.74599963
_cell_length_c   21.74600000
_cell_angle_alpha   120.00000057
_cell_angle_beta   90.00000000
_cell_angle_gamma   90.00000000
_symmetry_Int_Tables_number   1
_chemical_formula_structural   ZnH24C30(NO2)2
_chemical_formula_sum   'Zn3 H72 C90 N6 O12'
_cell_volume   3160.16493366
_cell_formula_units_Z   3
loop_
 _symmetry_equiv_pos_site_id
 _symmetry_equiv_pos_as_xyz
  1  'x, y, z'
loop_
 _atom_site_label
 _atom_site_fract_x
 _atom_site_fract_y
 _atom_site_fract_z
 _atom_site_charge
 Zn 0.0 0.5 0.5   0.881822
 Zn 0.0 0.0 0.5   0.881822
 Zn 0.0 0.5 0.0   0.881822
 H 0.4377 0.3452 0.3821   0.141369
 H 0.3205 0.3198 0.3128   0.142574
 H 0.3269 0.2736 0.3514   0.137472
 H 0.0858 0.2775 0.4067   0.149725
 H 0.9199 0.2113 0.4156   0.099392
 H 0.7159 0.1397 0.4257   0.101248
 H 0.4209 0.3087 0.5461   0.09975
 H 0.6186 0.38 0.5304   0.08422
 H 0.5835 0.0918 0.4808   0.124642
 H 0.3789 0.0177 0.4834   0.069998
 H 0.0095 0.1523 0.5158   0.07535
 H 0.2041 0.2319 0.5159   0.125214
 H 0.4377 0.0369 0.6548   0.14137
 H 0.3205 0.993 0.6802   0.142574
 H 0.3269 0.0778 0.7264   0.137472
 H 0.0858 0.1292 0.7225   0.149725
 H 0.9199 0.2043 0.7887   0.099393
 H 0.7159 0.286 0.8603   0.101248
 H 0.4209 0.2374 0.6913   0.09975
 H 0.6186 0.1504 0.62   0.08422
 H 0.5835 0.389 0.9082   0.124643
 H 0.3789 0.4657 0.9823   0.069998
 H 0.0095 0.3635 0.8477   0.07535
 H 0.2041 0.284 0.7681   0.125215
 H 0.4377 0.6179 0.9631   0.14137
 H 0.3205 0.6872 0.007   0.142574
 H 0.3269 0.6486 0.9222   0.137472
 H 0.0858 0.5933 0.8708   0.149725
 H 0.9199 0.5844 0.7957   0.099392
 H 0.7159 0.5743 0.714   0.101247
 H 0.4209 0.4539 0.7626   0.099751
 H 0.6186 0.4696 0.8496   0.08422
 H 0.5835 0.5192 0.611   0.124642
 H 0.3789 0.5166 0.5343   0.069997
 H 0.0095 0.4842 0.6365   0.07535
 H 0.2041 0.4841 0.716   0.125215
 H 0.5623 0.6548 0.6179   0.141369
 H 0.6795 0.6802 0.6872   0.142574
 H 0.6731 0.7264 0.6486   0.137472
 H 0.9142 0.7225 0.5933   0.149725
 H 0.0801 0.7887 0.5844   0.099392
 H 0.2841 0.8603 0.5743   0.101247
 H 0.5791 0.6913 0.4539   0.09975
 H 0.3814 0.62 0.4696   0.08422
 H 0.4165 0.9082 0.5192   0.124642
 H 0.6211 0.9823 0.5166   0.069997
 H 0.9905 0.8477 0.4842   0.07535
 H 0.7959 0.7681 0.4841   0.125214
 H 0.5623 0.9631 0.3452   0.14137
 H 0.6795 0.007 0.3198   0.142574
 H 0.6731 0.9222 0.2736   0.137472
 H 0.9142 0.8708 0.2775   0.149725
 H 0.0801 0.7957 0.2113   0.099393
 H 0.2841 0.714 0.1397   0.101247
 H 0.5791 0.7626 0.3087   0.09975
 H 0.3814 0.8496 0.38   0.08422
 H 0.4165 0.611 0.0918   0.124643
 H 0.6211 0.5343 0.0177   0.069997
 H 0.9905 0.6365 0.1523   0.07535
 H 0.7959 0.716 0.2319   0.125215
 H 0.5623 0.3821 0.0369   0.141369
 H 0.6795 0.3128 0.993   0.142574
 H 0.6731 0.3514 0.0778   0.137472
 H 0.9142 0.4067 0.1292   0.149725
 H 0.0801 0.4156 0.2043   0.099392
 H 0.2841 0.4257 0.286   0.101247
 H 0.5791 0.5461 0.2374   0.099751
 H 0.3814 0.5304 0.1504   0.08422
 H 0.4165 0.4808 0.389   0.124642
 H 0.6211 0.4834 0.4657   0.069997
 H 0.9905 0.5158 0.3635   0.07535
 H 0.7959 0.5159 0.284   0.125215
 C 0.329 0.32188 0.35877   -0.474285
 C 0.17764 0.36364 0.40504   0.565372
 C 0.06061 0.32617 0.4236   -0.607439
 C 0.91076 0.35338 0.46445   0.463896
 C 0.78746 0.30382 0.47091   -0.067333
 C 0.81579 0.23171 0.44113   -0.071134
 C 0.69512 0.18938 0.44798   -0.120294
 C 0.54643 0.21604 0.48566   0.029126
 C 0.521 0.28798 0.51776   -0.122508
 C 0.6405 0.33049 0.50898   -0.048771
 C 0.41842 0.1682 0.49173   0.120586
 C 0.46498 0.10535 0.48633   -0.202093
 C 0.34189 0.06181 0.48889   0.17434
 C 0.12845 0.13951 0.50786   0.162803
 C 0.243 0.18665 0.50667   -0.228665
 C 0.329 0.03689 0.67812   -0.474286
 C 0.17764 0.0414 0.63636   0.565372
 C 0.06061 0.09743 0.67383   -0.60744
 C 0.91076 0.11107 0.64662   0.463896
 C 0.78746 0.16709 0.69618   -0.067333
 C 0.81579 0.20942 0.76829   -0.071134
 C 0.69512 0.2586 0.81062   -0.120294
 C 0.54643 0.26962 0.78396   0.029126
 C 0.521 0.22978 0.71202   -0.122508
 C 0.6405 0.17849 0.66951   -0.048771
 C 0.41842 0.32353 0.8318   0.120586
 C 0.46498 0.38098 0.89465   -0.202093
 C 0.34189 0.42708 0.93819   0.17434
 C 0.12845 0.36835 0.86049   0.162803
 C 0.243 0.32002 0.81335   -0.228665
 C 0.329 0.64123 0.96311   -0.474286
 C 0.17764 0.59496 0.9586   0.565372
 C 0.06061 0.5764 0.90257   -0.607439
 C 0.91076 0.53555 0.88893   0.463896
 C 0.78746 0.52909 0.83291   -0.067333
 C 0.81579 0.55887 0.79058   -0.071134
 C 0.69512 0.55202 0.7414   -0.120293
 C 0.54643 0.51434 0.73038   0.029126
 C 0.521 0.48224 0.77022   -0.122508
 C 0.6405 0.49102 0.82151   -0.04877
 C 0.41842 0.50827 0.67647   0.120586
 C 0.46498 0.51367 0.61902   -0.202093
 C 0.34189 0.51111 0.57292   0.17434
 C 0.12845 0.49214 0.63165   0.162803
 C 0.243 0.49333 0.67998   -0.228665
 C 0.671 0.67812 0.64123   -0.474285
 C 0.82236 0.63636 0.59496   0.565372
 C 0.93939 0.67383 0.5764   -0.607439
 C 0.08924 0.64662 0.53555   0.463896
 C 0.21254 0.69618 0.52909   -0.067333
 C 0.18421 0.76829 0.55887   -0.071134
 C 0.30488 0.81062 0.55202   -0.120293
 C 0.45357 0.78396 0.51434   0.029126
 C 0.479 0.71202 0.48224   -0.122508
 C 0.3595 0.66951 0.49102   -0.048771
 C 0.58158 0.8318 0.50827   0.120586
 C 0.53502 0.89465 0.51367   -0.202093
 C 0.65811 0.93819 0.51111   0.17434
 C 0.87155 0.86049 0.49214   0.162802
 C 0.757 0.81335 0.49333   -0.228665
 C 0.671 0.96311 0.32188   -0.474286
 C 0.82236 0.9586 0.36364   0.565372
 C 0.93939 0.90257 0.32617   -0.60744
 C 0.08924 0.88893 0.35338   0.463896
 C 0.21254 0.83291 0.30382   -0.067333
 C 0.18421 0.79058 0.23171   -0.071134
 C 0.30488 0.7414 0.18938   -0.120294
 C 0.45357 0.73038 0.21604   0.029126
 C 0.479 0.77022 0.28798   -0.122508
 C 0.3595 0.82151 0.33049   -0.048771
 C 0.58158 0.67647 0.1682   0.120586
 C 0.53502 0.61902 0.10535   -0.202093
 C 0.65811 0.57292 0.06181   0.17434
 C 0.87155 0.63165 0.13951   0.162803
 C 0.757 0.67998 0.18665   -0.228665
 C 0.671 0.35877 0.03689   -0.474286
 C 0.82236 0.40504 0.0414   0.565372
 C 0.93939 0.4236 0.09743   -0.607439
 C 0.08924 0.46445 0.11107   0.463896
 C 0.21254 0.47091 0.16709   -0.067333
 C 0.18421 0.44113 0.20942   -0.071134
 C 0.30488 0.44798 0.2586   -0.120293
 C 0.45357 0.48566 0.26962   0.029126
 C 0.479 0.51776 0.22978   -0.122508
 C 0.3595 0.50898 0.17849   -0.04877
 C 0.58158 0.49173 0.32353   0.120586
 C 0.53502 0.48633 0.38098   -0.202093
 C 0.65811 0.48889 0.42708   0.17434
 C 0.87155 0.50786 0.36835   0.162802
 C 0.757 0.50667 0.32002   -0.228665
 N 0.17498 0.07658 0.49842   -0.317181
 N 0.17498 0.42184 0.92342   -0.317181
 N 0.17498 0.50158 0.57816   -0.317181
 N 0.82502 0.92342 0.50158   -0.317181
 N 0.82502 0.57816 0.07658   -0.317181
 N 0.82502 0.49842 0.42184   -0.31718
 O 0.8651 0.418 0.49692   -0.514075
 O 0.16697 0.4277 0.42224   -0.534213
 O 0.8651 0.07892 0.582   -0.514075
 O 0.16697 0.99454 0.5723   -0.534213
 O 0.8651 0.50308 0.92108   -0.514075
 O 0.16697 0.57776 0.00546   -0.534213
 O 0.1349 0.582 0.50308   -0.514075
 O 0.83303 0.5723 0.57776   -0.534213
 O 0.1349 0.92108 0.418   -0.514075
 O 0.83303 0.00546 0.4277   -0.534213
 O 0.1349 0.49692 0.07892   -0.514075
 O 0.83303 0.42224 0.99454   -0.534213
