{'_ref': 'TBD', '_srcid': 'CAKYAQ_clean', 'submitters': [{'name': 'Dalar Nazarian Jeff Camp and David Sholl', 'email': 'dalar@gatech.edu jcamp6@gatech.edu'}], '_method': 'VASP DFT with PBE;DDEC'}
data_Ni3H20(C8O5)2
_symmetry_space_group_name_H-M   'P 1'
_cell_length_a   6.37219976
_cell_length_b   9.99919966
_cell_length_c   11.22338592
_cell_angle_alpha   116.45285607
_cell_angle_beta   96.34090971
_cell_angle_gamma   89.99999776
_symmetry_Int_Tables_number   1
_chemical_formula_structural   Ni3H20(C8O5)2
_chemical_formula_sum   'Ni3 H20 C16 O10'
_cell_volume   635.357012319
_cell_formula_units_Z   1
loop_
 _symmetry_equiv_pos_site_id
 _symmetry_equiv_pos_as_xyz
  1  'x, y, z'
loop_
 _atom_site_label
 _atom_site_fract_x
 _atom_site_fract_y
 _atom_site_fract_z
 _atom_site_charge
 Ni 0.5 0.15118 0.0   0.971658
 Ni 0.5 0.84882 0.0   0.971675
 Ni 0.0 0.0 0.0   1.135153
 H 0.0766 0.1383 0.6586   0.101412
 H 0.7878 0.1015 0.658   0.080849
 H 0.7967 0.9282 0.5986   0.060305
 H 0.2864 0.9067 0.5324   0.054267
 H 0.3354 0.0778 0.5838   0.078623
 H 0.9234 0.4797 0.3414   0.102331
 H 0.2122 0.4435 0.342   0.080913
 H 0.2033 0.3296 0.4014   0.059795
 H 0.7136 0.3743 0.4676   0.054633
 H 0.6646 0.494 0.4162   0.078821
 H 0.9234 0.8617 0.3414   0.101404
 H 0.2122 0.8985 0.342   0.080844
 H 0.2033 0.0718 0.4014   0.060294
 H 0.7136 0.0933 0.4676   0.054248
 H 0.6646 0.9222 0.4162   0.078612
 H 0.0766 0.5203 0.6586   0.102324
 H 0.7878 0.5565 0.658   0.080908
 H 0.7967 0.6704 0.5986   0.059785
 H 0.2864 0.6257 0.5324   0.054615
 H 0.3354 0.506 0.5838   0.07881
 C 0.0703 0.03157 0.63574   -0.140634
 C 0.8519 0.01564 0.59348   -0.093724
 C 0.2238 0.99921 0.54322   -0.096543
 C 0.1497 0.06102 0.77724   0.672646
 C 0.9297 0.39583 0.36426   -0.141343
 C 0.1481 0.42216 0.40652   -0.092754
 C 0.7762 0.45599 0.45678   -0.097661
 C 0.8503 0.28378 0.22276   0.671214
 C 0.9297 0.96843 0.36426   -0.140636
 C 0.1481 0.98436 0.40652   -0.09372
 C 0.7762 0.000790000000002 0.45678   -0.096536
 C 0.8503 0.93898 0.22276   0.672647
 C 0.0703 0.60417 0.63574   -0.141346
 C 0.8519 0.57784 0.59348   -0.092749
 C 0.2238 0.54401 0.54322   -0.097653
 C 0.1497 0.71622 0.77724   0.671215
 O 0.3451 0.07019 0.80978   -0.579474
 O 0.0112 0.07506 0.85492   -0.59057
 O 0.6549 0.26041 0.19022   -0.579524
 O 0.9888 0.22014 0.14508   -0.589295
 O 0.6549 0.92981 0.19022   -0.579475
 O 0.9888 0.92494 0.14508   -0.59057
 O 0.3451 0.73959 0.80978   -0.579525
 O 0.0112 0.77986 0.85492   -0.589295
 O 0.683 0.97101 0.94202   -0.633488
 O 0.317 0.02899 0.05798   -0.633488
