{'_ref': 'TBD', '_srcid': 'CAKYAQ_clean', 'submitters': [{'name': 'Dalar Nazarian Jeff Camp and David Sholl', 'email': 'dalar@gatech.edu jcamp6@gatech.edu'}], '_method': 'VASP DFT with PBE;DDEC'}
data_ZnH8C13NO4
_symmetry_space_group_name_H-M   'P 1'
_cell_length_a   7.79109998
_cell_length_b   9.29840035
_cell_length_c   10.62840000
_cell_angle_alpha   65.32000212
_cell_angle_beta   86.19900195
_cell_angle_gamma   78.14500178
_symmetry_Int_Tables_number   1
_chemical_formula_structural   ZnH8C13NO4
_chemical_formula_sum   'Zn2 H16 C26 N2 O8'
_cell_volume   684.55082778
_cell_formula_units_Z   2
loop_
 _symmetry_equiv_pos_site_id
 _symmetry_equiv_pos_as_xyz
  1  'x, y, z'
loop_
 _atom_site_label
 _atom_site_fract_x
 _atom_site_fract_y
 _atom_site_fract_z
 _atom_site_charge
 Zn 0.36488 0.43675 0.45589   0.930494
 Zn 0.63512 0.56325 0.54411   0.930495
 H 0.0702 0.1885 0.5722   0.101381
 H 0.7182 0.0377 0.4114   0.108317
 H 0.3548 0.2435 0.2884   0.092972
 H 0.2048 0.2692 0.0989   0.126764
 H 0.299 0.004 0.842   0.106927
 H 0.016 0.592 0.322   0.090773
 H 0.653 0.207 0.928   0.098484
 H 0.877 0.621 0.125   0.107278
 H 0.9298 0.8115 0.4278   0.101381
 H 0.2818 0.9623 0.5886   0.108311
 H 0.6452 0.7565 0.7116   0.09297
 H 0.7952 0.7308 0.9011   0.126764
 H 0.701 0.996 0.158   0.106921
 H 0.984 0.408 0.678   0.09077
 H 0.347 0.793 0.072   0.098482
 H 0.123 0.379 0.875   0.107278
 C 0.4383 0.2672 0.7291   0.661578
 C 0.4676 0.1292 0.8704   -0.121553
 C 0.3758 0.005 0.9099   -0.083899
 C 0.5917 0.1237 0.9613   -0.05605
 C 0.7398 0.2797 0.4794   0.664312
 C 0.0423 0.1124 0.5428   -0.064957
 C 0.8325 0.0223 0.4469   -0.066225
 C 0.2603 0.3323 0.249   0.151971
 C 0.175 0.3503 0.1332   -0.188109
 C 0.045 0.4851 0.0649   0.091872
 C 0.9741 0.5594 0.1478   -0.138415
 C 0.0622 0.5314 0.2663   0.156459
 C 0.8748 0.1356 0.4888   -0.128061
 C 0.5617 0.7328 0.2709   0.661579
 C 0.5324 0.8708 0.1296   -0.121563
 C 0.6242 0.995 0.0901   -0.083872
 C 0.4083 0.8763 0.0387   -0.056025
 C 0.2602 0.7203 0.5206   0.664311
 C 0.9577 0.8876 0.4572   -0.064978
 C 0.1675 0.9777 0.5531   -0.066245
 C 0.7397 0.6677 0.751   0.15197
 C 0.825 0.6497 0.8668   -0.18811
 C 0.955 0.5149 0.9351   0.09187
 C 0.0259 0.4406 0.8522   -0.138415
 C 0.9378 0.4686 0.7337   0.15646
 C 0.1252 0.8644 0.5112   -0.128054
 N 0.2155 0.4342 0.3071   -0.28905
 N 0.7845 0.5658 0.6929   -0.28905
 O 0.3276 0.2669 0.6487   -0.570027
 O 0.5283 0.3734 0.7008   -0.615897
 O 0.5842 0.2842 0.446   -0.5882
 O 0.7897 0.3838 0.509   -0.579133
 O 0.6724 0.7331 0.3513   -0.570027
 O 0.4717 0.6266 0.2992   -0.615897
 O 0.4158 0.7158 0.554   -0.588199
 O 0.2103 0.6162 0.491   -0.579133
