{'_ref': 'TBD', '_srcid': 'CAKYAQ_clean', 'submitters': [{'name': 'Dalar Nazarian Jeff Camp and David Sholl', 'email': 'dalar@gatech.edu jcamp6@gatech.edu'}], '_method': 'VASP DFT with PBE;DDEC'}
data_Co2H3(C3N4)3
_symmetry_space_group_name_H-M   'P 1'
_cell_length_a   18.64000000
_cell_length_b   18.64000000
_cell_length_c   18.64000000
_cell_angle_alpha   90.00000000
_cell_angle_beta   90.00000000
_cell_angle_gamma   90.00000000
_symmetry_Int_Tables_number   1
_chemical_formula_structural   Co2H3(C3N4)3
_chemical_formula_sum   'Co8 H12 C36 N48'
_cell_volume   6476.460544
_cell_formula_units_Z   4
loop_
 _symmetry_equiv_pos_site_id
 _symmetry_equiv_pos_as_xyz
  1  'x, y, z'
loop_
 _atom_site_label
 _atom_site_fract_x
 _atom_site_fract_y
 _atom_site_fract_z
 _atom_site_charge
 Co 0.06672 0.93328 0.43328   0.701099
 Co 0.43328 0.06672 0.93328   0.701099
 Co 0.93328 0.43328 0.06672   0.701099
 Co 0.56672 0.56672 0.56672   0.701099
 Co 0.18328 0.81672 0.31672   0.701091
 Co 0.31672 0.18328 0.81672   0.701091
 Co 0.68328 0.68328 0.68328   0.701091
 Co 0.81672 0.31672 0.18328   0.701091
 H 0.9618 0.625 0.2882   0.105427
 H 0.5382 0.375 0.7882   0.105427
 H 0.0382 0.125 0.2118   0.105427
 H 0.4618 0.875 0.7118   0.105427
 H 0.2882 0.9618 0.625   0.105427
 H 0.7882 0.5382 0.375   0.105427
 H 0.2118 0.0382 0.125   0.105427
 H 0.7118 0.4618 0.875   0.105427
 H 0.625 0.2882 0.9618   0.105427
 H 0.375 0.7882 0.5382   0.105427
 H 0.125 0.2118 0.0382   0.105427
 H 0.875 0.7118 0.4618   0.105427
 C 0.92745 0.67745 0.375   -0.050463
 C 0.98367 0.73367 0.375   0.378204
 C 0.57255 0.32255 0.875   -0.050463
 C 0.51633 0.26633 0.875   0.378204
 C 0.07255 0.17745 0.125   -0.050463
 C 0.01633 0.23367 0.125   0.378204
 C 0.42745 0.82255 0.625   -0.050463
 C 0.48367 0.76633 0.625   0.378204
 C 0.375 0.92745 0.67745   -0.050463
 C 0.375 0.98367 0.73367   0.378204
 C 0.875 0.57255 0.32255   -0.050463
 C 0.875 0.51633 0.26633   0.378204
 C 0.125 0.07255 0.17745   -0.050463
 C 0.125 0.01633 0.23367   0.378204
 C 0.625 0.42745 0.82255   -0.050463
 C 0.625 0.48367 0.76633   0.378204
 C 0.67745 0.375 0.92745   -0.050463
 C 0.73367 0.375 0.98367   0.378204
 C 0.32255 0.875 0.57255   -0.050463
 C 0.26633 0.875 0.51633   0.378204
 C 0.17745 0.125 0.07255   -0.050463
 C 0.23367 0.125 0.01633   0.378204
 C 0.82255 0.625 0.42745   -0.050463
 C 0.76633 0.625 0.48367   0.378204
 C 0.9265 0.625 0.3235   -0.064871
 C 0.5735 0.375 0.8235   -0.064871
 C 0.0735 0.125 0.1765   -0.064871
 C 0.4265 0.875 0.6765   -0.064871
 C 0.3235 0.9265 0.625   -0.064871
 C 0.8235 0.5735 0.375   -0.064871
 C 0.1765 0.0735 0.125   -0.064871
 C 0.6765 0.4265 0.875   -0.064871
 C 0.625 0.3235 0.9265   -0.064871
 C 0.375 0.8235 0.5735   -0.064871
 C 0.125 0.1765 0.0735   -0.064871
 C 0.875 0.6765 0.4265   -0.064871
 N 0.03855 0.82939 0.39679   -0.082171
 N 0.97808 0.79449 0.41263   -0.335687
 N 0.46145 0.17061 0.89679   -0.082171
 N 0.52192 0.20551 0.91263   -0.335687
 N 0.96145 0.32939 0.10321   -0.082171
 N 0.02192 0.29449 0.08737   -0.335687
 N 0.53855 0.67061 0.60321   -0.082171
 N 0.47808 0.70551 0.58737   -0.335687
 N 0.39679 0.03855 0.82939   -0.082171
 N 0.41263 0.97808 0.79449   -0.335687
 N 0.89679 0.46145 0.17061   -0.082171
 N 0.91263 0.52192 0.20551   -0.335687
 N 0.10321 0.96145 0.32939   -0.082171
 N 0.08737 0.02192 0.29449   -0.335687
 N 0.60321 0.53855 0.67061   -0.082171
 N 0.58737 0.47808 0.70551   -0.335687
 N 0.82939 0.39679 0.03855   -0.082171
 N 0.79449 0.41263 0.97808   -0.335687
 N 0.17061 0.89679 0.46145   -0.082171
 N 0.20551 0.91263 0.52192   -0.335687
 N 0.32939 0.10321 0.96145   -0.082171
 N 0.29449 0.08737 0.02192   -0.335687
 N 0.67061 0.60321 0.53855   -0.082171
 N 0.70551 0.58737 0.47808   -0.335687
 N 0.07939 0.78855 0.35321   -0.082144
 N 0.04449 0.72808 0.33737   -0.335691
 N 0.42061 0.21145 0.85321   -0.082144
 N 0.45551 0.27192 0.83737   -0.335691
 N 0.57939 0.71145 0.64679   -0.082144
 N 0.54449 0.77192 0.66263   -0.335691
 N 0.92061 0.28855 0.14679   -0.082144
 N 0.95551 0.22808 0.16263   -0.335691
 N 0.28855 0.14679 0.92061   -0.082144
 N 0.22808 0.16263 0.95551   -0.335691
 N 0.71145 0.64679 0.57939   -0.082144
 N 0.77192 0.66263 0.54449   -0.335691
 N 0.21145 0.85321 0.42061   -0.082144
 N 0.27192 0.83737 0.45551   -0.335691
 N 0.78855 0.35321 0.07939   -0.082144
 N 0.72808 0.33737 0.04449   -0.335691
 N 0.64679 0.57939 0.71145   -0.082144
 N 0.66263 0.54449 0.77192   -0.335691
 N 0.14679 0.92061 0.28855   -0.082144
 N 0.16263 0.95551 0.22808   -0.335691
 N 0.35321 0.07939 0.78855   -0.082144
 N 0.33737 0.04449 0.72808   -0.335691
 N 0.85321 0.42061 0.21145   -0.082144
 N 0.83737 0.45551 0.27192   -0.335691
