{'_ref': 'TBD', '_srcid': 'CAKYAQ_clean', 'submitters': [{'name': 'Dalar Nazarian Jeff Camp and David Sholl', 'email': 'dalar@gatech.edu jcamp6@gatech.edu'}], '_method': 'VASP DFT with PBE;DDEC'}
data_Co3H16(C9O7)2
_symmetry_space_group_name_H-M   'P 1'
_cell_length_a   7.79899999
_cell_length_b   9.21199963
_cell_length_c   10.78400000
_cell_angle_alpha   107.59499972
_cell_angle_beta   92.87700296
_cell_angle_gamma   110.24799694
_symmetry_Int_Tables_number   1
_chemical_formula_structural   Co3H16(C9O7)2
_chemical_formula_sum   'Co3 H16 C18 O14'
_cell_volume   682.425504566
_cell_formula_units_Z   1
loop_
 _symmetry_equiv_pos_site_id
 _symmetry_equiv_pos_as_xyz
  1  'x, y, z'
loop_
 _atom_site_label
 _atom_site_fract_x
 _atom_site_fract_y
 _atom_site_fract_z
 _atom_site_charge
 Co 0.34848 0.85916 0.87049   1.130215
 Co 0.65152 0.14084 0.12951   1.130217
 Co 0.0 0.0 0.0   1.12429
 H 0.6765 0.0184 0.5883   0.108681
 H 0.878 0.1458 0.643   0.139823
 H 0.8235 0.478 0.5693   0.115411
 H 0.9687 0.4281 0.6311   0.133417
 H 0.9351 0.3922 0.8622   0.129457
 H 0.7613 0.4073 0.92   0.09461
 H 0.1566 0.0036 0.7841   0.454749
 H 0.3033 0.1366 0.9042   0.455482
 H 0.3235 0.9816 0.4117   0.108685
 H 0.122 0.8542 0.357   0.139827
 H 0.1765 0.522 0.4307   0.115429
 H 0.0313 0.5719 0.3689   0.133428
 H 0.0649 0.6078 0.1378   0.12949
 H 0.2387 0.5927 0.08   0.094704
 H 0.8434 0.9964 0.2159   0.454752
 H 0.6967 0.8634 0.0958   0.455527
 C 0.6984 0.188 0.7687   -0.102125
 C 0.7509 0.1314 0.6328   -0.174983
 C 0.7183 0.2332 0.552   -0.071399
 C 0.8423 0.4157 0.621   -0.173892
 C 0.7917 0.4785 0.7576   -0.101999
 C 0.8079 0.3739 0.8409   -0.172061
 C 0.7401 0.1006 0.8581   0.741191
 C 0.749 0.1741 0.4106   0.671458
 C 0.9232 0.6557 0.8319   0.722562
 C 0.3016 0.812 0.2313   -0.102113
 C 0.2491 0.8686 0.3672   -0.174987
 C 0.2817 0.7668 0.448   -0.071395
 C 0.1577 0.5843 0.379   -0.173905
 C 0.2083 0.5215 0.2424   -0.101987
 C 0.1921 0.6261 0.1591   -0.17211
 C 0.2599 0.8994 0.1419   0.74119
 C 0.251 0.8259 0.5894   0.671457
 C 0.0768 0.3443 0.1681   0.72256
 O 0.8959 0.0928 0.8705   -0.546859
 O 0.6156 0.047 0.9238   -0.769962
 O 0.8695 0.1139 0.3835   -0.573921
 O 0.6481 0.1911 0.3254   -0.645756
 O 0.8539 0.7622 0.8785   -0.62271
 O 0.0932 0.682 0.8467   -0.651399
 O 0.2139 0.027 0.8715   -0.852209
 O 0.1041 0.9072 0.1295   -0.546861
 O 0.3844 0.953 0.0762   -0.769963
 O 0.1305 0.8861 0.6165   -0.573925
 O 0.3519 0.8089 0.6746   -0.645756
 O 0.1461 0.2378 0.1215   -0.622711
 O 0.9068 0.318 0.1533   -0.651399
 O 0.7861 0.973 0.1285   -0.852225
