{'_ref': 'TBD', '_srcid': 'CAKYAQ_clean', 'submitters': [{'name': 'Dalar Nazarian Jeff Camp and David Sholl', 'email': 'dalar@gatech.edu jcamp6@gatech.edu'}], '_method': 'VASP DFT with PBE;DDEC'}
data_Co4H12C3NO6
_symmetry_space_group_name_H-M   'P 1'
_cell_length_a   8.30300000
_cell_length_b   8.30300006
_cell_length_c   20.33400000
_cell_angle_alpha   90.00000000
_cell_angle_beta   90.00000000
_cell_angle_gamma   119.99999975
_symmetry_Int_Tables_number   1
_chemical_formula_structural   Co4H12C3NO6
_chemical_formula_sum   'Co16 H48 C12 N4 O24'
_cell_volume   1214.0135418
_cell_formula_units_Z   4
loop_
 _symmetry_equiv_pos_site_id
 _symmetry_equiv_pos_as_xyz
  1  'x, y, z'
loop_
 _atom_site_label
 _atom_site_fract_x
 _atom_site_fract_y
 _atom_site_fract_z
 _atom_site_charge
 Co 0.42224 0.28532 0.000660000000003   0.7055
 Co 0.86308 0.57776 0.000660000000003   0.705482
 Co 0.71468 0.13692 0.000660000000003   0.705466
 Co 0.13692 0.71468 0.49934   0.7055
 Co 0.28532 0.42224 0.49934   0.705482
 Co 0.57776 0.86308 0.49934   0.705465
 Co 0.57776 0.71468 0.99934   0.7055
 Co 0.13692 0.42224 0.99934   0.705482
 Co 0.28532 0.86308 0.99934   0.705465
 Co 0.86308 0.28532 0.50066   0.7055
 Co 0.71468 0.57776 0.50066   0.705482
 Co 0.42224 0.13692 0.50066   0.705465
 Co 0.0 0.0 0.08472   0.847667
 Co 0.0 0.0 0.41528   0.847666
 Co 0.0 0.0 0.91528   0.847662
 Co 0.0 0.0 0.58472   0.847661
 H 0.305 0.085 0.09   0.35077
 H 0.4773 0.1028 0.9034   0.325452
 H 0.1511 0.8735 0.2066   0.051704
 H 0.9425 0.7304 0.1899   0.041136
 H 0.78 0.695 0.09   0.350759
 H 0.6255 0.5227 0.9034   0.325456
 H 0.7224 0.8489 0.2066   0.05171
 H 0.7879 0.0575 0.1899   0.041138
 H 0.915 0.22 0.09   0.350758
 H 0.8972 0.3745 0.9034   0.325459
 H 0.1265 0.2776 0.2066   0.051715
 H 0.2696 0.2121 0.1899   0.041132
 H 0.22 0.915 0.41   0.350769
 H 0.3745 0.8972 0.5966   0.325451
 H 0.2776 0.1265 0.2934   0.051724
 H 0.2121 0.2696 0.3101   0.041151
 H 0.085 0.305 0.41   0.350759
 H 0.1028 0.4773 0.5966   0.325456
 H 0.8735 0.1511 0.2934   0.051729
 H 0.7304 0.9425 0.3101   0.041152
 H 0.695 0.78 0.41   0.350758
 H 0.5227 0.6255 0.5966   0.325458
 H 0.8489 0.7224 0.2934   0.051734
 H 0.0575 0.7879 0.3101   0.041145
 H 0.695 0.915 0.91   0.350764
 H 0.5227 0.8972 0.0966   0.325458
 H 0.8489 0.1265 0.7934   0.051717
 H 0.0575 0.2696 0.8101   0.041134
 H 0.22 0.305 0.91   0.350754
 H 0.3745 0.4773 0.0966   0.325462
 H 0.2776 0.1511 0.7934   0.051722
 H 0.2121 0.9425 0.8101   0.041136
 H 0.085 0.78 0.91   0.350753
 H 0.1028 0.6255 0.0966   0.325465
 H 0.8735 0.7224 0.7934   0.051727
 H 0.7304 0.7879 0.8101   0.04113
 H 0.78 0.085 0.59   0.350764
 H 0.6255 0.1028 0.4034   0.325458
 H 0.7224 0.8735 0.7066   0.051737
 H 0.7879 0.7304 0.6899   0.041149
 H 0.915 0.695 0.59   0.350754
 H 0.8972 0.5227 0.4034   0.325462
 H 0.1265 0.8489 0.7066   0.051741
 H 0.2696 0.0575 0.6899   0.04115
 H 0.305 0.22 0.59   0.350753
 H 0.4773 0.3745 0.4034   0.325464
 H 0.1511 0.2776 0.7066   0.051746
 H 0.9425 0.2121 0.6899   0.041143
 C 0.0238 0.8453 0.2129   0.000899
 C 0.8215 0.9762 0.2129   0.000897
 C 0.1547 0.1785 0.2129   0.000897
 C 0.1785 0.1547 0.2871   0.000892
 C 0.8453 0.0238 0.2871   0.000891
 C 0.9762 0.8215 0.2871   0.000891
 C 0.9762 0.1547 0.7871   0.000896
 C 0.1785 0.0238 0.7871   0.000894
 C 0.8453 0.8215 0.7871   0.000894
 C 0.8215 0.8453 0.7129   0.000889
 C 0.1547 0.9762 0.7129   0.000888
 C 0.0238 0.1785 0.7129   0.000888
 N 0.0 0.0 0.1855   -0.29096
 N 0.0 0.0 0.3145   -0.290954
 N 0.0 0.0 0.8145   -0.290957
 N 0.0 0.0 0.6855   -0.290951
 O 0.2499 0.0535 0.0595   -0.837953
 O 0.4771 0.1016 0.95262   -0.823079
 O 0.8036 0.7501 0.0595   -0.837949
 O 0.6245 0.5229 0.95262   -0.823085
 O 0.9465 0.1964 0.0595   -0.837946
 O 0.8984 0.3755 0.95262   -0.823081
 O 0.1964 0.9465 0.4405   -0.837952
 O 0.3755 0.8984 0.54738   -0.823079
 O 0.0535 0.2499 0.4405   -0.837949
 O 0.1016 0.4771 0.54738   -0.823086
 O 0.7501 0.8036 0.4405   -0.837945
 O 0.5229 0.6245 0.54738   -0.823081
 O 0.7501 0.9465 0.9405   -0.83795
 O 0.5229 0.8984 0.04738   -0.823081
 O 0.1964 0.2499 0.9405   -0.837946
 O 0.3755 0.4771 0.04738   -0.823087
 O 0.0535 0.8036 0.9405   -0.837943
 O 0.1016 0.6245 0.04738   -0.823083
 O 0.8036 0.0535 0.5595   -0.837949
 O 0.6245 0.1016 0.45262   -0.823081
 O 0.9465 0.7501 0.5595   -0.837946
 O 0.8984 0.5229 0.45262   -0.823088
 O 0.2499 0.1964 0.5595   -0.837942
 O 0.4771 0.3755 0.45262   -0.823082
