{'_ref': 'TBD', '_srcid': 'CAKYAQ_clean', 'submitters': [{'name': 'Dalar Nazarian Jeff Camp and David Sholl', 'email': 'dalar@gatech.edu jcamp6@gatech.edu'}], '_method': 'VASP DFT with PBE;DDEC'}
data_SmH9(C2O)6
_symmetry_space_group_name_H-M   'P 1'
_cell_length_a   8.43099977
_cell_length_b   10.84099985
_cell_length_c   11.11400000
_cell_angle_alpha   64.42999879
_cell_angle_beta   80.44000277
_cell_angle_gamma   73.82000324
_symmetry_Int_Tables_number   1
_chemical_formula_structural   SmH9(C2O)6
_chemical_formula_sum   'Sm2 H18 C24 O12'
_cell_volume   878.807362745
_cell_formula_units_Z   2
loop_
 _symmetry_equiv_pos_site_id
 _symmetry_equiv_pos_as_xyz
  1  'x, y, z'
loop_
 _atom_site_label
 _atom_site_fract_x
 _atom_site_fract_y
 _atom_site_fract_z
 _atom_site_charge
 Sm 0.74862 0.00371 0.00223   2.318576
 Sm 0.25138 0.99629 0.99777   2.318569
 H 0.7508 0.9538 0.5188   0.131362
 H 0.0976 0.6062 0.5203   0.116492
 H 0.7627 0.5694 0.8241   0.12156
 H 0.5275 0.762 0.8158   0.157163
 H 0.5089 0.9084 0.688   0.173038
 H 0.0229 0.9644 0.3756   0.175533
 H 0.1189 0.8256 0.352   0.148742
 H 0.0672 0.3737 0.675   0.123526
 H 0.9305 0.3544 0.7954   0.11116
 H 0.2492 0.0462 0.4812   0.131358
 H 0.9024 0.3938 0.4797   0.116497
 H 0.2373 0.4306 0.1759   0.121559
 H 0.4725 0.238 0.1842   0.157162
 H 0.4911 0.0916 0.312   0.173036
 H 0.9771 0.0356 0.6244   0.175532
 H 0.8811 0.1744 0.648   0.148741
 H 0.9328 0.6263 0.325   0.123526
 H 0.0695 0.6456 0.2046   0.11116
 C 0.731 0.768 0.6828   0.155794
 C 0.797 0.8555 0.5591   -0.241641
 C 0.932 0.791 0.4992   0.099791
 C 0.002 0.647 0.561   -0.22654
 C 0.934 0.561 0.6806   0.175436
 C 0.805 0.625 0.739   -0.213153
 C 0.587 0.835 0.755   -0.403968
 C 0.636 0.899 0.8337   0.852181
 C 0.009 0.879 0.37   -0.282453
 C 0.8875 0.923 0.253   0.623566
 C 0.017 0.406 0.746   -0.397919
 C 0.149 0.367 0.841   0.838427
 C 0.269 0.232 0.3172   0.155794
 C 0.203 0.1445 0.4409   -0.24164
 C 0.068 0.209 0.5008   0.099791
 C 0.998 0.353 0.439   -0.226541
 C 0.066 0.439 0.3194   0.175436
 C 0.195 0.375 0.261   -0.213152
 C 0.413 0.165 0.245   -0.403967
 C 0.364 0.101 0.1663   0.852181
 C 0.991 0.121 0.63   -0.282452
 C 0.1125 0.077 0.747   0.623566
 C 0.983 0.594 0.254   -0.397919
 C 0.851 0.633 0.159   0.838428
 O 0.5283 0.9388 0.914   -0.926966
 O 0.78 0.9131 0.8239   -0.661353
 O 0.7073 0.9905 0.2277   -0.59946
 O 0.000900000000001 0.9488 0.1311   -0.914397
 O 0.215 0.2372 0.8885   -0.852973
 O 0.183 0.458 0.861   -0.60152
 O 0.4717 0.0612 0.086   -0.926966
 O 0.22 0.0869 0.1761   -0.661353
 O 0.2927 0.0095 0.7723   -0.599461
 O 0.9991 0.0512 0.8689   -0.914397
 O 0.785 0.7628 0.1115   -0.852973
 O 0.817 0.542 0.139   -0.601519
