{'_ref': 'TBD', '_srcid': 'CAKYAQ_clean', 'submitters': [{'name': 'Dalar Nazarian Jeff Camp and David Sholl', 'email': 'dalar@gatech.edu jcamp6@gatech.edu'}], '_method': 'VASP DFT with PBE;DDEC'}
data_U3P4H8C4O23
_symmetry_space_group_name_H-M   'P 1'
_cell_length_a   9.52210000
_cell_length_b   12.90649985
_cell_length_c   12.90650000
_cell_angle_alpha   92.02069831
_cell_angle_beta   90.00000000
_cell_angle_gamma   90.00000000
_symmetry_Int_Tables_number   1
_chemical_formula_structural   U3P4H8C4O23
_chemical_formula_sum   'U6 P8 H16 C8 O46'
_cell_volume   1585.18354829
_cell_formula_units_Z   2
loop_
 _symmetry_equiv_pos_site_id
 _symmetry_equiv_pos_as_xyz
  1  'x, y, z'
loop_
 _atom_site_label
 _atom_site_fract_x
 _atom_site_fract_y
 _atom_site_fract_z
 _atom_site_charge
 U 0.12136 0.40094 0.81926   2.751331
 U 0.62136 0.59906 0.18074   2.751331
 U 0.62136 0.18074 0.59906   2.75133
 U 0.12136 0.81926 0.40094   2.75133
 U 0.29507 0.29304 0.29304   2.744562
 U 0.79507 0.70696 0.70696   2.744561
 P 0.2488 0.57158 0.27032   1.578065
 P 0.316 0.46355 0.06979   1.621484
 P 0.7488 0.42842 0.72968   1.578065
 P 0.816 0.53645 0.93021   1.621484
 P 0.7488 0.72968 0.42842   1.578065
 P 0.816 0.93021 0.53645   1.621484
 P 0.2488 0.27032 0.57158   1.578065
 P 0.316 0.06979 0.46355   1.621484
 H 0.15 0.713 0.127   0.138806
 H 0.3 0.684 0.074   0.137401
 H 0.15 0.656 0.018   0.148126
 H 0.0311 0.5066 0.073   0.387653
 H 0.65 0.287 0.873   0.138806
 H 0.8 0.316 0.926   0.137401
 H 0.65 0.344 0.982   0.148126
 H 0.5311 0.4934 0.927   0.387653
 H 0.65 0.873 0.287   0.138806
 H 0.8 0.926 0.316   0.137402
 H 0.65 0.982 0.344   0.148126
 H 0.5311 0.927 0.4934   0.387653
 H 0.15 0.127 0.713   0.138806
 H 0.3 0.074 0.684   0.137402
 H 0.15 0.018 0.656   0.148126
 H 0.0311 0.073 0.5066   0.387653
 C 0.1982 0.5585 0.1345   -0.395822
 C 0.1998 0.6621 0.0835   -0.275916
 C 0.6982 0.4415 0.8655   -0.395822
 C 0.6998 0.3379 0.9165   -0.275916
 C 0.6982 0.8655 0.4415   -0.395822
 C 0.6998 0.9165 0.3379   -0.275915
 C 0.1982 0.1345 0.5585   -0.395822
 C 0.1998 0.0835 0.6621   -0.275915
 O 0.166 0.5206 0.7656   -0.619991
 O 0.2571 0.4439 0.9631   -0.865492
 O 0.1574 0.6555 0.3213   -0.798819
 O 0.2287 0.4679 0.3193   -0.760719
 O 0.0791 0.2792 0.8702   -0.669863
 O 0.3682 0.3402 0.8042   -0.140297
 O 0.4607 0.5154 0.0644   -0.886262
 O 0.3202 0.3657 0.1337   -0.880032
 O 0.4016 0.6036 0.269   -0.818526
 O 0.0576 0.5149 0.1333   -0.348742
 O 0.666 0.4794 0.2344   -0.619991
 O 0.7571 0.5561 0.0369   -0.865492
 O 0.6574 0.3445 0.6787   -0.798819
 O 0.7287 0.5321 0.6807   -0.760719
 O 0.5791 0.7208 0.1298   -0.669863
 O 0.8682 0.6598 0.1958   -0.140297
 O 0.9607 0.4846 0.9356   -0.886262
 O 0.8202 0.6343 0.8663   -0.880032
 O 0.9016 0.3964 0.731   -0.818526
 O 0.5576 0.4851 0.8667   -0.348742
 O 0.666 0.2344 0.4794   -0.619991
 O 0.7571 0.0369 0.5561   -0.865492
 O 0.6574 0.6787 0.3445   -0.798819
 O 0.7287 0.6807 0.5321   -0.760718
 O 0.5791 0.1298 0.7208   -0.669863
 O 0.8682 0.1958 0.6598   -0.140297
 O 0.9607 0.9356 0.4846   -0.886262
 O 0.8202 0.8663 0.6343   -0.880032
 O 0.9016 0.731 0.3964   -0.818526
 O 0.5576 0.8667 0.4851   -0.348742
 O 0.166 0.7656 0.5206   -0.619991
 O 0.2571 0.9631 0.4439   -0.865492
 O 0.1574 0.3213 0.6555   -0.798819
 O 0.2287 0.3193 0.4679   -0.760718
 O 0.0791 0.8702 0.2792   -0.669863
 O 0.3682 0.8042 0.3402   -0.140297
 O 0.4607 0.0644 0.5154   -0.886262
 O 0.3202 0.1337 0.3657   -0.880032
 O 0.4016 0.269 0.6036   -0.818526
 O 0.0576 0.1333 0.5149   -0.348742
 O 0.123 0.2593 0.2593   -0.611274
 O 0.385 0.1623 0.1623   -0.119991
 O 0.4709 0.3251 0.3251   -0.618068
 O 0.623 0.7407 0.7407   -0.611274
 O 0.885 0.8377 0.8377   -0.119991
 O 0.9709 0.6749 0.6749   -0.618068
