{'_ref': 'TBD', '_srcid': 'CAKYAQ_clean', 'submitters': [{'name': 'Dalar Nazarian Jeff Camp and David Sholl', 'email': 'dalar@gatech.edu jcamp6@gatech.edu'}], '_method': 'VASP DFT with PBE;DDEC'}
data_CoH2(CO2)2
_symmetry_space_group_name_H-M   'P 1'
_cell_length_a   9.96030000
_cell_length_b   11.36119962
_cell_length_c   14.80010000
_cell_angle_alpha   91.52700249
_cell_angle_beta   90.00000000
_cell_angle_gamma   90.00000000
_symmetry_Int_Tables_number   1
_chemical_formula_structural   CoH2(CO2)2
_chemical_formula_sum   'Co12 H24 C24 O48'
_cell_volume   1674.19871621
_cell_formula_units_Z   12
loop_
 _symmetry_equiv_pos_site_id
 _symmetry_equiv_pos_as_xyz
  1  'x, y, z'
loop_
 _atom_site_label
 _atom_site_fract_x
 _atom_site_fract_y
 _atom_site_fract_z
 _atom_site_charge
 Co 0.92715 0.7438 0.86634   1.123712
 Co 0.12129 0.75943 0.69485   1.097067
 Co 0.42715 0.7562 0.63366   1.123712
 Co 0.62129 0.74057 0.80515   1.097067
 Co 0.07285 0.2562 0.13366   1.123711
 Co 0.87871 0.24057 0.30515   1.097066
 Co 0.57285 0.2438 0.36634   1.123712
 Co 0.37871 0.25943 0.19485   1.097067
 Co 0.0 0.5 0.0   1.150839
 Co 0.5 0.0 0.5   1.15084
 Co 0.0 0.0 0.0   1.130755
 Co 0.5 0.5 0.5   1.130754
 H 0.7724 0.6493 0.6313   0.004641
 H 0.2044 0.523 0.7787   0.002788
 H 0.0563 0.02 0.7433   0.011126
 H 0.6249 0.9426 0.9496   0.009427
 H 0.2111 0.9968 0.5256   0.00932
 H 0.1548 0.8027 0.0712   0.007345
 H 0.2724 0.8507 0.8687   0.004641
 H 0.7044 0.977 0.7213   0.002781
 H 0.5563 0.48 0.7567   0.01112
 H 0.1249 0.5574 0.5504   0.009427
 H 0.7111 0.5032 0.9744   0.00932
 H 0.6548 0.6973 0.4288   0.007345
 H 0.2276 0.3507 0.3687   0.004641
 H 0.7956 0.477 0.2213   0.002779
 H 0.9437 0.98 0.2567   0.011113
 H 0.3751 0.0574 0.0504   0.009396
 H 0.7889 0.0032 0.4744   0.009312
 H 0.8452 0.1973 0.9288   0.007317
 H 0.7276 0.1493 0.1313   0.004642
 H 0.2956 0.023 0.2787   0.002772
 H 0.4437 0.52 0.2433   0.011107
 H 0.8751 0.4426 0.4496   0.009396
 H 0.2889 0.4968 0.0256   0.009313
 H 0.3452 0.3027 0.5712   0.007317
 C 0.8406 0.6768 0.6693   0.6887
 C 0.1416 0.5497 0.821   0.694509
 C 0.0287 0.9807 0.7944   0.689089
 C 0.7159 0.9252 0.9448   0.692265
 C 0.2293 0.9341 0.5628   0.698545
 C 0.1004 0.758 0.0325   0.707033
 C 0.3406 0.8232 0.8307   0.688693
 C 0.6416 0.9503 0.679   0.694511
 C 0.5287 0.5193 0.7056   0.689086
 C 0.2159 0.5748 0.5552   0.692255
 C 0.7293 0.5659 0.9372   0.698534
 C 0.6004 0.742 0.4675   0.707032
 C 0.1594 0.3232 0.3307   0.688694
 C 0.8584 0.4503 0.179   0.694507
 C 0.9713 0.0193 0.2056   0.689089
 C 0.2841 0.0748 0.0552   0.692263
 C 0.7707 0.0659 0.4372   0.698546
 C 0.8996 0.242 0.9675   0.707038
 C 0.6594 0.1768 0.1693   0.688687
 C 0.3584 0.0497 0.321   0.694509
 C 0.4713 0.4807 0.2944   0.689086
 C 0.7841 0.4252 0.4448   0.692253
 C 0.2707 0.4341 0.0628   0.698535
 C 0.3996 0.258 0.5325   0.707036
 O 0.8104 0.6946 0.75209   -0.665035
 O 0.9519 0.6926 0.6343   -0.580972
 O 0.0894 0.6493 0.80759   -0.683138
 O 0.1181 0.4846 0.8842   -0.588108
 O 0.017 0.8697 0.78618   -0.674088
 O 0.0076 0.0414 0.8625   -0.58816
 O 0.7494 0.8446 0.88794   -0.678854
 O 0.7936 0.9829 0.9945   -0.592139
 O 0.1334 0.8931 0.60347   -0.576869
 O 0.3515 0.8998 0.56593   -0.673123
 O 0.0267 0.8145 0.97705   -0.683829
 O 0.1057 0.6509 0.039   -0.591986
 O 0.3104 0.8054 0.74791   -0.665034
 O 0.4519 0.8074 0.8657   -0.580972
 O 0.5894 0.8507 0.69241   -0.683138
 O 0.6181 0.0154 0.6158   -0.588108
 O 0.517 0.6303 0.71382   -0.674088
 O 0.5076 0.4586 0.6375   -0.58816
 O 0.2494 0.6554 0.61206   -0.678853
 O 0.2936 0.5171 0.5055   -0.592138
 O 0.6334 0.6069 0.89653   -0.576868
 O 0.8515 0.6002 0.93407   -0.673122
 O 0.5267 0.6855 0.52295   -0.683829
 O 0.6057 0.8491 0.461   -0.591986
 O 0.1896 0.3054 0.24791   -0.665034
 O 0.0481 0.3074 0.3657   -0.580971
 O 0.9106 0.3507 0.19241   -0.683138
 O 0.8819 0.5154 0.1158   -0.588106
 O 0.983 0.1303 0.21382   -0.674088
 O 0.9924 0.9586 0.1375   -0.58816
 O 0.2506 0.1554 0.11206   -0.678855
 O 0.2064 0.0171 0.0055   -0.592138
 O 0.8666 0.1069 0.39653   -0.576869
 O 0.6485 0.1002 0.43407   -0.673123
 O 0.9733 0.1855 0.02295   -0.68383
 O 0.8943 0.3491 0.961   -0.591987
 O 0.6896 0.1946 0.25209   -0.665033
 O 0.5481 0.1926 0.1343   -0.58097
 O 0.4106 0.1493 0.30759   -0.683138
 O 0.3819 0.9846 0.3842   -0.588106
 O 0.483 0.3697 0.28618   -0.674088
 O 0.4924 0.5414 0.3625   -0.588159
 O 0.7506 0.3446 0.38794   -0.678854
 O 0.7064 0.4829 0.4945   -0.592137
 O 0.3666 0.3931 0.10347   -0.576868
 O 0.1485 0.3998 0.06593   -0.673122
 O 0.4733 0.3145 0.47705   -0.68383
 O 0.3943 0.1509 0.539   -0.591987
