{'_ref': 'TBD', '_srcid': 'CAKYAQ_clean', 'submitters': [{'name': 'Dalar Nazarian Jeff Camp and David Sholl', 'email': 'dalar@gatech.edu jcamp6@gatech.edu'}], '_method': 'VASP DFT with PBE;DDEC'}
data_CoH2(CO2)2
_symmetry_space_group_name_H-M   'P 1'
_cell_length_a   9.82600000
_cell_length_b   11.25499957
_cell_length_c   14.54700000
_cell_angle_alpha   91.34600197
_cell_angle_beta   90.00000000
_cell_angle_gamma   90.00000000
_symmetry_Int_Tables_number   1
_chemical_formula_structural   CoH2(CO2)2
_chemical_formula_sum   'Co12 H24 C24 O48'
_cell_volume   1608.33247363
_cell_formula_units_Z   12
loop_
 _symmetry_equiv_pos_site_id
 _symmetry_equiv_pos_as_xyz
  1  'x, y, z'
loop_
 _atom_site_label
 _atom_site_fract_x
 _atom_site_fract_y
 _atom_site_fract_z
 _atom_site_charge
 Co 0.91962 0.75599 0.13269   1.117177
 Co 0.10881 0.74023 0.31063   1.103352
 Co 0.41962 0.74401 0.36731   1.117178
 Co 0.60881 0.75977 0.18937   1.103352
 Co 0.08038 0.24401 0.86731   1.117177
 Co 0.89119 0.25977 0.68937   1.103352
 Co 0.58038 0.25599 0.63269   1.117177
 Co 0.39119 0.24023 0.81063   1.103352
 Co 0.0 0.5 0.0   1.130901
 Co 0.5 0.0 0.5   1.130901
 Co 0.0 0.0 0.0   1.141626
 Co 0.5 0.5 0.5   1.141627
 H 0.7567 0.8599 0.3658   -0.001644
 H 0.1884 0.9817 0.2313   -0.002168
 H 0.2023 0.5092 0.4883   0.010251
 H 0.6184 0.5616 0.0375   0.008912
 H 0.1725 0.6973 0.9382   0.007727
 H 0.9731 0.5255 0.735   0.015859
 H 0.2567 0.6401 0.1342   -0.001644
 H 0.6884 0.5183 0.2687   -0.002169
 H 0.7023 0.9908 0.0117   0.010252
 H 0.1184 0.9384 0.4625   0.008911
 H 0.6725 0.8027 0.5618   0.007722
 H 0.4731 0.9745 0.765   0.015854
 H 0.2433 0.1401 0.6342   -0.001644
 H 0.8116 0.0183 0.7687   -0.002174
 H 0.7977 0.4908 0.5117   0.01025
 H 0.3816 0.4384 0.9625   0.008908
 H 0.8275 0.3027 0.0618   0.007721
 H 0.0269 0.4745 0.265   0.015856
 H 0.7433 0.3599 0.8658   -0.001644
 H 0.3116 0.4817 0.7313   -0.002174
 H 0.2977 0.0092 0.9883   0.01025
 H 0.8816 0.0616 0.5375   0.008908
 H 0.3275 0.1973 0.4382   0.007717
 H 0.5269 0.0255 0.235   0.015851
 C 0.8271 0.831 0.3289   0.695829
 C 0.1299 0.954 0.1853   0.696937
 C 0.2197 0.5701 0.4478   0.695511
 C 0.7105 0.5772 0.0462   0.690736
 C 0.1107 0.7418 0.973   0.706714
 C 0.9915 0.4842 0.7882   0.683455
 C 0.3271 0.669 0.1711   0.695832
 C 0.6299 0.546 0.3147   0.69694
 C 0.7197 0.9299 0.0522   0.695507
 C 0.2105 0.9228 0.4538   0.690732
 C 0.6107 0.7582 0.527   0.706717
 C 0.4915 0.0158 0.7118   0.683456
 C 0.1729 0.169 0.6711   0.695826
 C 0.8701 0.046 0.8147   0.696936
 C 0.7803 0.4299 0.5522   0.695512
 C 0.2895 0.4228 0.9538   0.690734
 C 0.8893 0.2582 0.027   0.706714
 C 0.0085 0.5158 0.2118   0.683456
 C 0.6729 0.331 0.8289   0.69583
 C 0.3701 0.454 0.6853   0.696939
 C 0.2803 0.0701 0.9478   0.695507
 C 0.7895 0.0772 0.5462   0.69073
 C 0.3893 0.2418 0.473   0.706717
 C 0.5085 0.9842 0.2882   0.683457
 O 0.7991 0.8109 0.2451   -0.659212
 O 0.9385 0.8163 0.367   -0.586282
 O 0.0827 0.8503 0.19498   -0.684312
 O 0.1076 0.0219 0.1228   -0.579133
 O 0.1204 0.6116 0.4075   -0.579762
 O 0.3442 0.6023 0.43965   -0.670116
 O 0.7417 0.6531 0.10862   -0.680728
 O 0.7916 0.5219 0.9957   -0.586276
 O 0.0298 0.6848 0.02415   -0.678668
 O 0.1146 0.8507 0.9655   -0.595224
 O 0.9974 0.3715 0.78104   -0.673722
 O 0.0081 0.5436 0.86   -0.59146
 O 0.2991 0.6891 0.2549   -0.659212
 O 0.4385 0.6837 0.133   -0.586282
 O 0.5827 0.6497 0.30502   -0.684313
 O 0.6076 0.4781 0.3772   -0.579133
 O 0.6204 0.8884 0.0925   -0.579762
 O 0.8442 0.8977 0.06035   -0.670116
 O 0.2417 0.8469 0.39138   -0.680728
 O 0.2916 0.9781 0.5043   -0.586275
 O 0.5298 0.8152 0.47585   -0.678668
 O 0.6146 0.6493 0.5345   -0.595225
 O 0.4974 0.1285 0.71896   -0.673722
 O 0.5081 0.9564 0.64   -0.591461
 O 0.2009 0.1891 0.7549   -0.659211
 O 0.0615 0.1837 0.633   -0.586281
 O 0.9173 0.1497 0.80502   -0.684312
 O 0.8924 0.9781 0.8772   -0.579133
 O 0.8796 0.3884 0.5925   -0.579763
 O 0.6558 0.3977 0.56035   -0.670116
 O 0.2583 0.3469 0.89138   -0.680728
 O 0.2084 0.4781 0.0043   -0.586276
 O 0.9702 0.3152 0.97585   -0.678668
 O 0.8854 0.1493 0.0345   -0.595224
 O 0.0026 0.6285 0.21896   -0.673722
 O 0.9919 0.4564 0.14   -0.591461
 O 0.7009 0.3109 0.7451   -0.659212
 O 0.5615 0.3163 0.867   -0.586282
 O 0.4173 0.3503 0.69498   -0.684313
 O 0.3924 0.5219 0.6228   -0.579133
 O 0.3796 0.1116 0.9075   -0.579762
 O 0.1558 0.1023 0.93965   -0.670116
 O 0.7583 0.1531 0.60862   -0.680727
 O 0.7084 0.0219 0.4957   -0.586275
 O 0.4702 0.1848 0.52415   -0.678668
 O 0.3854 0.3507 0.4655   -0.595224
 O 0.5026 0.8715 0.28104   -0.673722
 O 0.4919 0.0436 0.36   -0.591461
