{'_ref': 'TBD', '_srcid': 'CAKYAQ_clean', 'submitters': [{'name': 'Dalar Nazarian Jeff Camp and David Sholl', 'email': 'dalar@gatech.edu jcamp6@gatech.edu'}], '_method': 'VASP DFT with PBE;DDEC'}
data_Zn4H12C24O13
_symmetry_space_group_name_H-M   'P 1'
_cell_length_a   18.26599998
_cell_length_b   18.26600037
_cell_length_c   18.26600000
_cell_angle_alpha   60.00000067
_cell_angle_beta   59.99999996
_cell_angle_gamma   60.00000068
_symmetry_Int_Tables_number   1
_chemical_formula_structural   Zn4H12C24O13
_chemical_formula_sum   'Zn8 H24 C48 O26'
_cell_volume   4309.38578333
_cell_formula_units_Z   2
loop_
 _symmetry_equiv_pos_site_id
 _symmetry_equiv_pos_as_xyz
  1  'x, y, z'
loop_
 _atom_site_label
 _atom_site_fract_x
 _atom_site_fract_y
 _atom_site_fract_z
 _atom_site_charge
 Zn 0.29338 0.29338 0.29338   1.103633
 Zn 0.29338 0.29338 0.11986   1.103633
 Zn 0.29338 0.11986 0.29338   1.103634
 Zn 0.11986 0.29338 0.29338   1.103633
 Zn 0.70662 0.70662 0.70662   1.103633
 Zn 0.70662 0.70662 0.88014   1.103633
 Zn 0.88014 0.70662 0.70662   1.103633
 Zn 0.70662 0.88014 0.70662   1.103633
 H 0.1546 0.4552 0.4552   0.115883
 H 0.4552 0.1546 0.935   0.115883
 H 0.4552 0.935 0.1546   0.115883
 H 0.935 0.4552 0.4552   0.115883
 H 0.1546 0.4552 0.935   0.115882
 H 0.4552 0.935 0.4552   0.115883
 H 0.4552 0.1546 0.4552   0.115883
 H 0.935 0.4552 0.1546   0.115882
 H 0.1546 0.935 0.4552   0.115882
 H 0.4552 0.4552 0.1546   0.115882
 H 0.4552 0.4552 0.935   0.115882
 H 0.935 0.1546 0.4552   0.115882
 H 0.5448 0.8454 0.5448   0.115882
 H 0.8454 0.5448 0.065   0.115881
 H 0.065 0.5448 0.8454   0.115881
 H 0.5448 0.065 0.5448   0.115881
 H 0.5448 0.8454 0.065   0.115881
 H 0.065 0.5448 0.5448   0.115881
 H 0.8454 0.5448 0.5448   0.115881
 H 0.5448 0.065 0.8454   0.115881
 H 0.065 0.8454 0.5448   0.11588
 H 0.5448 0.5448 0.8454   0.115881
 H 0.5448 0.5448 0.065   0.11588
 H 0.8454 0.065 0.5448   0.11588
 C 0.0927 0.4731 0.4731   -0.055959
 C 0.4731 0.0927 0.9611   -0.055959
 C 0.4731 0.9611 0.0927   -0.055959
 C 0.9611 0.4731 0.4731   -0.055959
 C 0.0927 0.4731 0.9611   -0.055959
 C 0.4731 0.9611 0.4731   -0.055959
 C 0.4731 0.0927 0.4731   -0.05596
 C 0.9611 0.4731 0.0927   -0.055959
 C 0.0927 0.9611 0.4731   -0.055959
 C 0.4731 0.4731 0.0927   -0.05596
 C 0.4731 0.4731 0.9611   -0.055959
 C 0.9611 0.0927 0.4731   -0.055959
 C 0.5269 0.9073 0.5269   -0.055963
 C 0.9073 0.5269 0.0389   -0.055962
 C 0.0389 0.5269 0.9073   -0.055962
 C 0.5269 0.0389 0.5269   -0.055963
 C 0.5269 0.9073 0.0389   -0.055963
 C 0.0389 0.5269 0.5269   -0.055963
 C 0.9073 0.5269 0.5269   -0.055963
 C 0.5269 0.0389 0.9073   -0.055963
 C 0.0389 0.9073 0.5269   -0.055963
 C 0.5269 0.5269 0.9073   -0.055963
 C 0.5269 0.5269 0.0389   -0.055963
 C 0.9073 0.0389 0.5269   -0.055963
 C 0.1113 0.3887 0.3887   0.67192
 C 0.0538 0.4462 0.4462   -0.115029
 C 0.3887 0.1113 0.1113   0.67192
 C 0.4462 0.0538 0.0538   -0.115029
 C 0.1113 0.3887 0.1113   0.671921
 C 0.0538 0.4462 0.0538   -0.115029
 C 0.3887 0.1113 0.3887   0.671921
 C 0.4462 0.0538 0.4462   -0.115029
 C 0.1113 0.1113 0.3887   0.671921
 C 0.0538 0.0538 0.4462   -0.115029
 C 0.3887 0.3887 0.1113   0.671921
 C 0.4462 0.4462 0.0538   -0.115029
 C 0.6113 0.8887 0.6113   0.67192
 C 0.5538 0.9462 0.5538   -0.115028
 C 0.8887 0.6113 0.8887   0.67192
 C 0.9462 0.5538 0.9462   -0.115028
 C 0.6113 0.8887 0.8887   0.671921
 C 0.5538 0.9462 0.9462   -0.115028
 C 0.8887 0.6113 0.6113   0.671921
 C 0.9462 0.5538 0.5538   -0.115028
 C 0.8887 0.8887 0.6113   0.671921
 C 0.9462 0.9462 0.5538   -0.115028
 C 0.6113 0.6113 0.8887   0.671921
 C 0.5538 0.5538 0.9462   -0.115028
 O 0.25 0.25 0.25   -1.262055
 O 0.75 0.75 0.75   -1.262055
 O 0.19777 0.366 0.366   -0.601073
 O 0.366 0.19777 0.07023   -0.601073
 O 0.366 0.07023 0.19777   -0.601073
 O 0.07023 0.366 0.366   -0.601074
 O 0.19777 0.366 0.07023   -0.601073
 O 0.366 0.07023 0.366   -0.601074
 O 0.366 0.19777 0.366   -0.601073
 O 0.07023 0.366 0.19777   -0.601073
 O 0.19777 0.07023 0.366   -0.601074
 O 0.366 0.366 0.19777   -0.601073
 O 0.366 0.366 0.07023   -0.601074
 O 0.07023 0.19777 0.366   -0.601073
 O 0.634 0.80223 0.634   -0.601073
 O 0.80223 0.634 0.92977   -0.601073
 O 0.92977 0.634 0.80223   -0.601073
 O 0.634 0.92977 0.634   -0.601073
 O 0.634 0.80223 0.92977   -0.601073
 O 0.92977 0.634 0.634   -0.601073
 O 0.80223 0.634 0.634   -0.601073
 O 0.634 0.92977 0.80223   -0.601073
 O 0.92977 0.80223 0.634   -0.601073
 O 0.634 0.634 0.80223   -0.601073
 O 0.634 0.634 0.92977   -0.601074
 O 0.80223 0.92977 0.634   -0.601073
