{'_ref': 'TBD', '_srcid': 'CAKYAQ_clean', 'submitters': [{'name': 'Dalar Nazarian Jeff Camp and David Sholl', 'email': 'dalar@gatech.edu jcamp6@gatech.edu'}], '_method': 'VASP DFT with PBE;DDEC'}
data_MnRe3C3S4N3
_symmetry_space_group_name_H-M   'P 1'
_cell_length_a   16.95400000
_cell_length_b   16.95400000
_cell_length_c   16.95400000
_cell_angle_alpha   90.00000000
_cell_angle_beta   90.00000000
_cell_angle_gamma   90.00000000
_symmetry_Int_Tables_number   1
_chemical_formula_structural   MnRe3C3S4N3
_chemical_formula_sum   'Mn8 Re24 C24 S32 N24'
_cell_volume   4873.22581866
_cell_formula_units_Z   8
loop_
 _symmetry_equiv_pos_site_id
 _symmetry_equiv_pos_as_xyz
  1  'x, y, z'
loop_
 _atom_site_label
 _atom_site_fract_x
 _atom_site_fract_y
 _atom_site_fract_z
 _atom_site_charge
 Mn 0.893 0.107 0.607   1.132962
 Mn 0.607 0.893 0.107   1.132962
 Mn 0.107 0.607 0.893   1.132962
 Mn 0.393 0.393 0.393   1.132962
 Mn 0.107 0.893 0.393   1.132962
 Mn 0.393 0.107 0.893   1.132962
 Mn 0.893 0.393 0.107   1.132962
 Mn 0.607 0.607 0.607   1.132962
 Re 0.97026 0.40497 0.54334   -0.012056
 Re 0.52974 0.59503 0.04334   -0.012056
 Re 0.02974 0.90497 0.95666   -0.012056
 Re 0.47026 0.09503 0.45666   -0.012056
 Re 0.54334 0.97026 0.40497   -0.012056
 Re 0.04334 0.52974 0.59503   -0.012056
 Re 0.95666 0.02974 0.90497   -0.012056
 Re 0.45666 0.47026 0.09503   -0.012056
 Re 0.40497 0.54334 0.97026   -0.012056
 Re 0.59503 0.04334 0.52974   -0.012056
 Re 0.90497 0.95666 0.02974   -0.012056
 Re 0.09503 0.45666 0.47026   -0.012056
 Re 0.02974 0.59503 0.45666   -0.012055
 Re 0.47026 0.40497 0.95666   -0.012055
 Re 0.97026 0.09503 0.04334   -0.012055
 Re 0.52974 0.90497 0.54334   -0.012055
 Re 0.45666 0.02974 0.59503   -0.012055
 Re 0.95666 0.47026 0.40497   -0.012055
 Re 0.04334 0.97026 0.09503   -0.012055
 Re 0.54334 0.52974 0.90497   -0.012055
 Re 0.59503 0.45666 0.02974   -0.012055
 Re 0.40497 0.95666 0.47026   -0.012055
 Re 0.09503 0.04334 0.97026   -0.012055
 Re 0.90497 0.54334 0.52974   -0.012055
 C 0.933 0.292 0.591   0.230683
 C 0.567 0.708 0.091   0.230683
 C 0.067 0.792 0.909   0.230683
 C 0.433 0.208 0.409   0.230683
 C 0.591 0.933 0.292   0.230683
 C 0.091 0.567 0.708   0.230683
 C 0.909 0.067 0.792   0.230683
 C 0.409 0.433 0.208   0.230683
 C 0.292 0.591 0.933   0.230683
 C 0.708 0.091 0.567   0.230683
 C 0.792 0.909 0.067   0.230683
 C 0.208 0.409 0.433   0.230683
 C 0.067 0.708 0.409   0.230683
 C 0.433 0.292 0.909   0.230683
 C 0.933 0.208 0.091   0.230683
 C 0.567 0.792 0.591   0.230683
 C 0.409 0.067 0.708   0.230683
 C 0.909 0.433 0.292   0.230683
 C 0.091 0.933 0.208   0.230683
 C 0.591 0.567 0.792   0.230683
 C 0.708 0.409 0.067   0.230683
 C 0.292 0.909 0.433   0.230683
 C 0.208 0.091 0.933   0.230683
 C 0.792 0.591 0.567   0.230683
 S 0.9249 0.4793 0.6555   -0.07739
 S 0.5751 0.5207 0.1555   -0.07739
 S 0.0751 0.9793 0.8445   -0.07739
 S 0.4249 0.0207 0.3445   -0.07739
 S 0.6555 0.9249 0.4793   -0.07739
 S 0.1555 0.5751 0.5207   -0.07739
 S 0.8445 0.0751 0.9793   -0.07739
 S 0.3445 0.4249 0.0207   -0.07739
 S 0.4793 0.6555 0.9249   -0.07739
 S 0.5207 0.1555 0.5751   -0.07739
 S 0.9793 0.8445 0.0751   -0.07739
 S 0.0207 0.3445 0.4249   -0.07739
 S 0.0751 0.5207 0.3445   -0.07739
 S 0.4249 0.4793 0.8445   -0.07739
 S 0.9249 0.0207 0.1555   -0.07739
 S 0.5751 0.9793 0.6555   -0.07739
 S 0.3445 0.0751 0.5207   -0.07739
 S 0.8445 0.4249 0.4793   -0.07739
 S 0.1555 0.9249 0.0207   -0.07739
 S 0.6555 0.5751 0.9793   -0.07739
 S 0.5207 0.3445 0.0751   -0.07739
 S 0.4793 0.8445 0.4249   -0.07739
 S 0.0207 0.1555 0.9249   -0.07739
 S 0.9793 0.6555 0.5751   -0.07739
 S 0.1004 0.3996 0.6004   -0.069339
 S 0.3996 0.6004 0.1004   -0.069339
 S 0.8996 0.8996 0.8996   -0.069339
 S 0.6004 0.1004 0.3996   -0.069339
 S 0.8996 0.6004 0.3996   -0.069339
 S 0.6004 0.3996 0.8996   -0.069339
 S 0.1004 0.1004 0.1004   -0.069339
 S 0.3996 0.8996 0.6004   -0.069339
 N 0.915 0.232 0.614   -0.495779
 N 0.585 0.768 0.114   -0.495779
 N 0.085 0.732 0.886   -0.495779
 N 0.415 0.268 0.386   -0.495779
 N 0.614 0.915 0.232   -0.495779
 N 0.114 0.585 0.768   -0.495779
 N 0.886 0.085 0.732   -0.495779
 N 0.386 0.415 0.268   -0.495779
 N 0.232 0.614 0.915   -0.495779
 N 0.768 0.114 0.585   -0.495779
 N 0.732 0.886 0.085   -0.495779
 N 0.268 0.386 0.415   -0.495779
 N 0.085 0.768 0.386   -0.495779
 N 0.415 0.232 0.886   -0.495779
 N 0.915 0.268 0.114   -0.495779
 N 0.585 0.732 0.614   -0.495779
 N 0.386 0.085 0.768   -0.495779
 N 0.886 0.415 0.232   -0.495779
 N 0.114 0.915 0.268   -0.495779
 N 0.614 0.585 0.732   -0.495779
 N 0.768 0.386 0.085   -0.495779
 N 0.232 0.886 0.415   -0.495779
 N 0.268 0.114 0.915   -0.495779
 N 0.732 0.614 0.585   -0.495779
