{'_ref': 'TBD', '_srcid': 'CAKYAQ_clean', 'submitters': [{'name': 'Dalar Nazarian Jeff Camp and David Sholl', 'email': 'dalar@gatech.edu jcamp6@gatech.edu'}], '_method': 'VASP DFT with PBE;DDEC'}
data_AlH5C8O5
_symmetry_space_group_name_H-M   'P 1'
_cell_length_a   6.64776034
_cell_length_b   11.08473560
_cell_length_c   11.08781877
_cell_angle_alpha   93.99105950
_cell_angle_beta   107.44351366
_cell_angle_gamma   107.39281221
_symmetry_Int_Tables_number   1
_chemical_formula_structural   AlH5C8O5
_chemical_formula_sum   'Al2 H10 C16 O10'
_cell_volume   732.37152674
_cell_formula_units_Z   2
loop_
 _symmetry_equiv_pos_site_id
 _symmetry_equiv_pos_as_xyz
  1  'x, y, z'
loop_
 _atom_site_label
 _atom_site_fract_x
 _atom_site_fract_y
 _atom_site_fract_z
 _atom_site_charge
 Al 0.994185 0.002875 0.499621   1.840575
 Al 0.492963 0.003336 0.500221   1.845645
 H 0.610889 0.001803 0.88453   0.112572
 H 0.264328 0.387596 0.502882   0.114232
 H 0.377974 0.618285 0.497732   0.115591
 H 0.725604 0.998362 0.11539   0.112187
 H 0.376365 0.998675 0.114442   0.11433
 H 0.727284 0.618932 0.4978   0.112641
 H 0.613648 0.388402 0.50285   0.112112
 H 0.261629 0.002116 0.883482   0.114038
 H 0.359097 0.119086 0.616381   0.477052
 H 0.624586 0.887877 0.382491   0.475145
 C 0.777905 0.001691 0.933353   -0.071741
 C 0.14637 0.436907 0.502199   -0.076128
 C 0.211398 0.569577 0.498569   -0.076271
 C 0.843543 0.999001 0.066123   -0.070823
 C 0.209738 0.999477 0.065669   -0.076973
 C 0.845272 0.569661 0.498543   -0.071464
 C 0.780264 0.437051 0.502153   -0.070122
 C 0.144071 0.002127 0.932839   -0.0742
 C 0.058573 0.997625 0.134801   -0.097657
 C 0.129942 0.997135 0.277411   0.712266
 C 0.059682 0.638115 0.496251   -0.09771
 C 0.130022 0.780535 0.494331   0.709387
 C 0.927547 0.367825 0.504321   -0.099127
 C 0.85633 0.225346 0.505961   0.712308
 C 0.925358 0.003996 0.864271   -0.099402
 C 0.85501 0.006766 0.722041   0.714586
 O 0.000729 0.007164 0.66357   -0.656344
 O 0.656247 0.167436 0.506322   -0.637941
 O 0.987958 0.838884 0.494211   -0.637774
 O 0.33483 0.998753 0.33604   -0.652797
 O 0.988156 0.997044 0.335751   -0.640368
 O 0.33452 0.839443 0.49451   -0.656202
 O 0.001519 0.167104 0.50543   -0.652771
 O 0.655397 0.008016 0.664182   -0.639655
 O 0.688364 0.950557 0.446691   -1.118616
 O 0.295915 0.056275 0.551771   -1.120582
