{'_ref': 'TBD', '_srcid': 'CAKYAQ_clean', 'submitters': [{'name': 'Dalar Nazarian Jeff Camp and David Sholl', 'email': 'dalar@gatech.edu jcamp6@gatech.edu'}], '_method': 'VASP DFT with PBE;DDEC'}
data_Al4H19(C8O5)4
_symmetry_space_group_name_H-M   'P 1'
_cell_length_a   6.63520000
_cell_length_b   13.49430000
_cell_length_c   16.24300000
_cell_angle_alpha   90.00000000
_cell_angle_beta   90.00000000
_cell_angle_gamma   90.00000000
_symmetry_Int_Tables_number   1
_chemical_formula_structural   Al4H19(C8O5)4
_chemical_formula_sum   'Al4 H19 C32 O20'
_cell_volume   1454.35565294
_cell_formula_units_Z   1
loop_
 _symmetry_equiv_pos_site_id
 _symmetry_equiv_pos_as_xyz
  1  'x, y, z'
loop_
 _atom_site_label
 _atom_site_fract_x
 _atom_site_fract_y
 _atom_site_fract_z
 _atom_site_charge
 Al 0.000660000000003 0.000689999999999 0.99972   1.793194
 Al 0.99396 0.50124 0.49926   1.847327
 Al 0.4948 0.000830000000001 0.99984   1.792222
 Al 0.49431 0.50047 0.49959   1.84698
 H 0.92219 0.80017 0.18582   0.115384
 H 0.92201 0.69161 0.30639   0.110811
 H 0.06915 0.30219 0.31392   0.112039
 H 0.07262 0.19045 0.19532   0.110735
 H 0.42214 0.20056 0.81254   0.110877
 H 0.42203 0.31016 0.69262   0.112146
 H 0.56911 0.69726 0.68685   0.110563
 H 0.57264 0.80916 0.8054   0.114625
 H 0.07085 0.20027 0.81233   0.111324
 H 0.07077 0.31018 0.69234   0.112882
 H 0.92045 0.69902 0.68869   0.11061
 H 0.92389 0.8109 0.80731   0.115291
 H 0.57086 0.80047 0.18609   0.115349
 H 0.57079 0.69159 0.30672   0.110819
 H 0.42045 0.30051 0.31209   0.112112
 H 0.42384 0.18878 0.19341   0.111294
 H 0.7434 0.61791 0.49741   0.47746
 H 0.24341 0.38404 0.49709   0.474843
 H 0.2473 0.11971 0.00203   0.479041
 C 0.06495 0.7772 0.21149   -0.072043
 C 0.06482 0.71482 0.28099   -0.07494
 C 0.92714 0.27833 0.28811   -0.071227
 C 0.92918 0.21419 0.21978   -0.070214
 C 0.56495 0.22339 0.78679   -0.070697
 C 0.56482 0.28648 0.71777   -0.071034
 C 0.42712 0.72105 0.7127   -0.072777
 C 0.42916 0.78532 0.78101   -0.073354
 C 0.92809 0.22321 0.78664   -0.071742
 C 0.92798 0.28645 0.7176   -0.072305
 C 0.06398 0.722 0.71367   -0.074186
 C 0.066 0.78627 0.78204   -0.071559
 C 0.42811 0.77741 0.21167   -0.072438
 C 0.42801 0.71486 0.28118   -0.074443
 C 0.56392 0.27742 0.28714   -0.072612
 C 0.56595 0.21328 0.21874   -0.069787
 C 0.24632 0.8101 0.17582   -0.09584
 C 0.24634 0.68271 0.31725   -0.103023
 C 0.24604 0.88136 0.10438   0.713533
 C 0.24548 0.61385 0.39026   0.724994
 C 0.74469 0.31177 0.32259   -0.096493
 C 0.74873 0.18124 0.18336   -0.099049
 C 0.74345 0.38392 0.3933   0.723093
 C 0.75045 0.11266 0.11028   0.711517
 C 0.74633 0.18969 0.822   -0.099394
 C 0.74633 0.3188 0.68157   -0.096326
 C 0.74606 0.1178 0.893   0.711743
 C 0.74547 0.38784 0.60863   0.720928
 C 0.24465 0.68769 0.67806   -0.104617
 C 0.24876 0.81858 0.81737   -0.095268
 C 0.24353 0.61631 0.6067   0.724598
 C 0.25043 0.88801 0.89014   0.711306
 O 0.07414 0.91 0.07492   -0.629867
 O 0.07365 0.58533 0.41953   -0.651503
 O 0.91473 0.41462 0.42151   -0.649864
 O 0.92368 0.08391 0.08111   -0.626226
 O 0.57284 0.08903 0.92225   -0.625229
 O 0.57361 0.41636 0.57936   -0.648721
 O 0.41468 0.586 0.57814   -0.65166
 O 0.42238 0.91662 0.91932   -0.62964
 O 0.91857 0.08636 0.92056   -0.621805
 O 0.9167 0.41696 0.57915   -0.647748
 O 0.07195 0.58721 0.57771   -0.650475
 O 0.07914 0.9168 0.91973   -0.627151
 O 0.41722 0.91308 0.07699   -0.630311
 O 0.41669 0.58471 0.41973   -0.651569
 O 0.57195 0.41339 0.42194   -0.648068
 O 0.57795 0.08429 0.08029   -0.620727
 O 0.24736 0.05567 0.00101   -1.106023
 O 0.7438 0.55406 0.4984   -1.121988
 O 0.74765 0.96002 0.99935   -0.743838
 O 0.24381 0.44786 0.49869   -1.121861
