{'_ref': 'TBD', '_srcid': 'CAKYAQ_clean', 'submitters': [{'name': 'Dalar Nazarian Jeff Camp and David Sholl', 'email': 'dalar@gatech.edu jcamp6@gatech.edu'}], '_method': 'VASP DFT with PBE;DDEC'}
data_CeH7C15O7
_symmetry_space_group_name_H-M   'P 1'
_cell_length_a   9.42299982
_cell_length_b   9.94700053
_cell_length_c   11.41900000
_cell_angle_alpha   93.63300010
_cell_angle_beta   98.09200186
_cell_angle_gamma   110.64900160
_symmetry_Int_Tables_number   1
_chemical_formula_structural   CeH7C15O7
_chemical_formula_sum   'Ce2 H14 C30 O14'
_cell_volume   984.174731524
_cell_formula_units_Z   2
loop_
 _symmetry_equiv_pos_site_id
 _symmetry_equiv_pos_as_xyz
  1  'x, y, z'
loop_
 _atom_site_label
 _atom_site_fract_x
 _atom_site_fract_y
 _atom_site_fract_z
 _atom_site_charge
 Ce 0.28419 0.04592 0.98479   2.222298
 Ce 0.71581 0.95408 0.01521   2.222295
 H 0.6832 0.5065 0.9632   0.11699
 H 0.081 0.6357 0.8363   0.13462
 H 0.803 0.2151 0.7811   0.125917
 H 0.8266 0.4026 0.5696   0.135921
 H 0.7361 0.2785 0.3824   0.095689
 H 0.0609 0.1045 0.427   0.090427
 H 0.1522 0.2274 0.6164   0.151466
 H 0.3168 0.4935 0.0368   0.116988
 H 0.919 0.3643 0.1637   0.13462
 H 0.197 0.7849 0.2189   0.125917
 H 0.1734 0.5974 0.4304   0.135921
 H 0.2639 0.7215 0.6176   0.09569
 H 0.9391 0.8955 0.573   0.090427
 H 0.8478 0.7726 0.3836   0.151466
 C 0.5793 0.226 0.8964   0.749524
 C 0.7218 0.3427 0.8754   -0.092065
 C 0.7532 0.4847 0.9231   -0.035257
 C 0.8882 0.5926 0.9108   -0.137295
 C 0.9899 0.563 0.8448   -0.138139
 C 0.9516 0.4224 0.7925   0.252201
 C 0.8221 0.3102 0.8111   -0.162877
 C 0.9253 0.7443 0.9683   0.793158
 C 0.872 0.3408 0.5413   -0.270932
 C 0.8187 0.2667 0.4295   0.02952
 C 0.8842 0.1742 0.3841   -0.202641
 C 0.0123 0.1629 0.4563   0.0123
 C 0.0675 0.2363 0.5697   -0.233674
 C 0.9957 0.3226 0.6127   0.295084
 C 0.8246 0.0902 0.2656   0.691341
 C 0.4207 0.774 0.1036   0.749524
 C 0.2782 0.6573 0.1246   -0.092065
 C 0.2468 0.5153 0.0769   -0.035256
 C 0.1118 0.4074 0.0892   -0.137297
 C 0.0101 0.437 0.1552   -0.138138
 C 0.0484 0.5776 0.2075   0.252201
 C 0.1779 0.6898 0.1889   -0.162877
 C 0.0747 0.2557 0.0317   0.793158
 C 0.128 0.6592 0.4587   -0.270928
 C 0.1813 0.7333 0.5705   0.029521
 C 0.1158 0.8258 0.6159   -0.202639
 C 0.9877 0.8371 0.5437   0.012301
 C 0.9325 0.7637 0.4303   -0.233674
 C 0.0043 0.6774 0.3873   0.295085
 C 0.1754 0.9098 0.7344   0.691341
 O 0.4562 0.2511 0.8874   -0.644152
 O 0.5848 0.1075 0.9249   -0.834541
 O 0.8223 0.769 0.0135   -0.740949
 O 0.0555 0.8362 0.9683   -0.781974
 O 0.714 0.1103 0.1997   -0.710974
 O 0.8792 0.0 0.2284   -0.65943
 O 0.0545 0.395 0.7264   -0.251559
 O 0.5438 0.7489 0.1126   -0.644152
 O 0.4152 0.8925 0.0751   -0.834541
 O 0.1777 0.231 0.9865   -0.740948
 O 0.9445 0.1638 0.0317   -0.781973
 O 0.286 0.8897 0.8003   -0.710974
 O 0.1208 0.0 0.7716   -0.65943
 O 0.9455 0.605 0.2736   -0.251558
