{'_ref': 'TBD', '_srcid': 'CAKYAQ_clean', 'submitters': [{'name': 'Dalar Nazarian Jeff Camp and David Sholl', 'email': 'dalar@gatech.edu jcamp6@gatech.edu'}], '_method': 'VASP DFT with PBE;DDEC'}
data_SmH7C15O7
_symmetry_space_group_name_H-M   'P 1'
_cell_length_a   9.34100009
_cell_length_b   9.86499988
_cell_length_c   11.41500000
_cell_angle_alpha   94.03299719
_cell_angle_beta   98.33199733
_cell_angle_gamma   110.80900325
_symmetry_Int_Tables_number   1
_chemical_formula_structural   SmH7C15O7
_chemical_formula_sum   'Sm2 H14 C30 O14'
_cell_volume   964.413467377
_cell_formula_units_Z   2
loop_
 _symmetry_equiv_pos_site_id
 _symmetry_equiv_pos_as_xyz
  1  'x, y, z'
loop_
 _atom_site_label
 _atom_site_fract_x
 _atom_site_fract_y
 _atom_site_fract_z
 _atom_site_charge
 Sm 0.78261 0.54565 0.48497   2.265436
 Sm 0.21739 0.45435 0.51503   2.265434
 H 0.4345 0.3945 0.0771   0.09284
 H 0.3463 0.2734 0.8843   0.151529
 H 0.6765 0.1017 0.9311   0.13342
 H 0.7673 0.2244 0.1195   0.096048
 H 0.6957 0.2864 0.7213   0.12529
 H 0.8181 0.9974 0.5358   0.12152
 H 0.4195 0.8621 0.6649   0.134312
 H 0.5655 0.6055 0.9229   0.09284
 H 0.6537 0.7266 0.1157   0.151529
 H 0.3235 0.8983 0.0689   0.133421
 H 0.2327 0.7756 0.8805   0.096048
 H 0.3043 0.7136 0.2787   0.125289
 H 0.1819 0.0026 0.4642   0.121519
 H 0.5805 0.1379 0.3351   0.134312
 C 0.6767 0.412 0.2391   0.695065
 C 0.6165 0.328 0.1195   -0.201184
 C 0.4853 0.3378 0.0471   0.009329
 C 0.4311 0.2641 0.9319   -0.233332
 C 0.5033 0.1779 0.8892   0.294917
 C 0.6294 0.1624 0.9603   -0.26677
 C 0.6833 0.236 0.0726   0.027343
 C 0.5473 0.0779 0.7079   0.251785
 C 0.6768 0.1907 0.6901   -0.157474
 C 0.7776 0.1609 0.626   -0.090452
 C 0.7477 0.0181 0.5769   -0.041068
 C 0.6114 0.9067 0.5901   -0.134405
 C 0.5107 0.9363 0.6558   -0.135912
 C 0.9198 0.2802 0.6026   0.759829
 C 0.5764 0.7538 0.5325   0.807682
 C 0.3233 0.588 0.7609   0.695065
 C 0.3835 0.672 0.8805   -0.201183
 C 0.5147 0.6622 0.9529   0.00933
 C 0.5689 0.7359 0.0681   -0.233332
 C 0.4967 0.8221 0.1108   0.294918
 C 0.3706 0.8376 0.0397   -0.266766
 C 0.3167 0.764 0.9274   0.027344
 C 0.4527 0.9221 0.2921   0.251784
 C 0.3232 0.8093 0.3099   -0.157475
 C 0.2224 0.8391 0.374   -0.090452
 C 0.2523 0.9819 0.4231   -0.041067
 C 0.3886 0.0933 0.4099   -0.134406
 C 0.4893 0.0637 0.3442   -0.13591
 C 0.0802 0.7198 0.3974   0.759829
 C 0.4236 0.2462 0.4675   0.807682
 O 0.7848 0.3902 0.3064   -0.711307
 O 0.622 0.5034 0.2763   -0.664134
 O 0.0473 0.2589 0.6115   -0.661754
 O 0.9114 0.3981 0.5743   -0.848906
 O 0.6818 0.7298 0.4889   -0.760352
 O 0.4447 0.6597 0.5325   -0.804343
 O 0.4427 0.1048 0.7741   -0.254955
 O 0.2152 0.6098 0.6936   -0.711307
 O 0.378 0.4966 0.7237   -0.664135
 O 0.9527 0.7411 0.3885   -0.661754
 O 0.0886 0.6019 0.4257   -0.848907
 O 0.3182 0.2702 0.5111   -0.760351
 O 0.5553 0.3403 0.4675   -0.804343
 O 0.5573 0.8952 0.2259   -0.254955
