{'_ref': 'TBD', '_srcid': 'CAKYAQ_clean', 'submitters': [{'name': 'Dalar Nazarian Jeff Camp and David Sholl', 'email': 'dalar@gatech.edu jcamp6@gatech.edu'}], '_method': 'VASP DFT with PBE;DDEC'}
data_NdH7C15O7
_symmetry_space_group_name_H-M   'P 1'
_cell_length_a   9.37000018
_cell_length_b   9.90200059
_cell_length_c   11.42900000
_cell_angle_alpha   93.94199998
_cell_angle_beta   98.07500126
_cell_angle_gamma   110.69200099
_symmetry_Int_Tables_number   1
_chemical_formula_structural   NdH7C15O7
_chemical_formula_sum   'Nd2 H14 C30 O14'
_cell_volume   974.108811534
_cell_formula_units_Z   2
loop_
 _symmetry_equiv_pos_site_id
 _symmetry_equiv_pos_as_xyz
  1  'x, y, z'
loop_
 _atom_site_label
 _atom_site_fract_x
 _atom_site_fract_y
 _atom_site_fract_z
 _atom_site_charge
 Nd 0.71605 0.45412 0.01559   2.26126
 Nd 0.28395 0.54588 0.98441   2.261257
 H 0.0626 0.6035 0.4246   0.091496
 H 0.0815 0.1369 0.835   0.134538
 H 0.8266 0.9022 0.5695   0.135688
 H 0.7345 0.7767 0.3825   0.095416
 H 0.8038 0.7143 0.7792   0.124869
 H 0.6818 0.0047 0.9622   0.117014
 H 0.1535 0.727 0.6155   0.152314
 H 0.9374 0.3965 0.5754   0.091496
 H 0.9185 0.8631 0.165   0.134538
 H 0.1734 0.0978 0.4305   0.135689
 H 0.2655 0.2233 0.6175   0.095416
 H 0.1962 0.2857 0.2208   0.124869
 H 0.3182 0.9953 0.0378   0.117012
 H 0.8465 0.273 0.3845   0.152314
 C 0.0134 0.6618 0.4542   0.013083
 C 0.9961 0.8215 0.6114   0.296535
 C 0.9905 0.0634 0.8441   -0.138948
 C 0.9538 0.9228 0.7923   0.250538
 C 0.9256 0.2454 0.9678   0.804029
 C 0.872 0.84 0.5408   -0.267223
 C 0.8887 0.0936 0.9106   -0.136912
 C 0.8184 0.7656 0.4291   0.026953
 C 0.8851 0.6733 0.3822   -0.202016
 C 0.8231 0.8096 0.8103   -0.156213
 C 0.7527 0.9833 0.9224   -0.034392
 C 0.7219 0.8409 0.8752   -0.095392
 C 0.5788 0.7236 0.897   0.760095
 C 0.0684 0.7358 0.5686   -0.23525
 C 0.8234 0.589 0.2628   0.691191
 C 0.9866 0.3382 0.5458   0.013083
 C 0.0039 0.1785 0.3886   0.296537
 C 0.0095 0.9366 0.1559   -0.138947
 C 0.0462 0.0772 0.2077   0.250538
 C 0.0744 0.7546 0.0322   0.804029
 C 0.128 0.16 0.4592   -0.267219
 C 0.1113 0.9064 0.0894   -0.136914
 C 0.1816 0.2344 0.5709   0.026954
 C 0.1149 0.3267 0.6178   -0.202015
 C 0.1769 0.1904 0.1897   -0.156213
 C 0.2473 0.0167 0.0776   -0.034391
 C 0.2781 0.1591 0.1248   -0.095393
 C 0.4212 0.2764 0.103   0.760095
 C 0.9316 0.2642 0.4314   -0.23525
 C 0.1766 0.411 0.7372   0.691191
 O 0.7131 0.6092 0.1964   -0.711278
 O 0.0557 0.8938 0.7259   -0.252714
 O 0.821 0.2702 0.0129   -0.76191
 O 0.0563 0.3383 0.9673   -0.795823
 O 0.878 0.4978 0.2252   -0.662164
 O 0.5853 0.6045 0.9256   -0.857131
 O 0.4545 0.7459 0.8877   -0.647655
 O 0.2869 0.3908 0.8036   -0.711278
 O 0.9443 0.1062 0.2741   -0.252713
 O 0.179 0.7298 0.9871   -0.761909
 O 0.9437 0.6617 0.0327   -0.795823
 O 0.122 0.5022 0.7748   -0.662164
 O 0.4147 0.3955 0.0744   -0.857131
 O 0.5455 0.2541 0.1123   -0.647655
