{'_ref': 'TBD', '_srcid': 'CAKYAQ_clean', 'submitters': [{'name': 'Dalar Nazarian Jeff Camp and David Sholl', 'email': 'dalar@gatech.edu jcamp6@gatech.edu'}], '_method': 'VASP DFT with PBE;DDEC'}
data_TmH7C15O7
_symmetry_space_group_name_H-M   'P 1'
_cell_length_a   9.35599954
_cell_length_b   9.79600019
_cell_length_c   11.41500000
_cell_angle_alpha   94.79900120
_cell_angle_beta   99.61399778
_cell_angle_gamma   111.73800204
_symmetry_Int_Tables_number   1
_chemical_formula_structural   TmH7C15O7
_chemical_formula_sum   'Tm2 H14 C30 O14'
_cell_volume   945.981869059
_cell_formula_units_Z   2
loop_
 _symmetry_equiv_pos_site_id
 _symmetry_equiv_pos_as_xyz
  1  'x, y, z'
loop_
 _atom_site_label
 _atom_site_fract_x
 _atom_site_fract_y
 _atom_site_fract_z
 _atom_site_charge
 Tm 0.72515 0.45516 0.01024   2.15184
 Tm 0.27485 0.54484 0.98976   2.151837
 H 0.0649 0.605 0.4207   0.094819
 H 0.1482 0.7225 0.6188   0.153097
 H 0.82 0.896 0.5658   0.136274
 H 0.7286 0.7711 0.3745   0.097954
 H 0.8007 0.705 0.7749   0.127797
 H 0.676 0.9944 0.961   0.122755
 H 0.0752 0.1425 0.8358   0.133592
 H 0.9351 0.395 0.5793   0.094819
 H 0.8518 0.2775 0.3812   0.153097
 H 0.18 0.104 0.4342   0.136276
 H 0.2714 0.2289 0.6255   0.097955
 H 0.1993 0.295 0.2251   0.127797
 H 0.324 0.0056 0.039   0.122753
 H 0.9248 0.8575 0.1642   0.133592
 C 0.8265 0.5892 0.2518   0.668932
 C 0.8839 0.6713 0.3737   -0.190852
 C 0.0133 0.6609 0.4501   0.009188
 C 0.065 0.7329 0.5686   -0.232498
 C 0.9924 0.8192 0.6107   0.295212
 C 0.8669 0.8353 0.5368   -0.259807
 C 0.814 0.7617 0.4225   0.02511
 C 0.949 0.9193 0.7928   0.241178
 C 0.82 0.8018 0.8078   -0.152848
 C 0.7182 0.8307 0.8736   -0.103617
 C 0.7474 0.9754 0.9214   -0.024247
 C 0.8813 0.0912 0.911   -0.137353
 C 0.9851 0.0648 0.8447   -0.136328
 C 0.5816 0.7048 0.898   0.784113
 C 0.9173 0.2469 0.9673   0.804037
 C 0.1735 0.4108 0.7482   0.668931
 C 0.1161 0.3287 0.6263   -0.190852
 C 0.9867 0.3391 0.5499   0.009189
 C 0.935 0.2671 0.4314   -0.232499
 C 0.0076 0.1808 0.3893   0.295213
 C 0.1331 0.1647 0.4632   -0.259805
 C 0.186 0.2383 0.5775   0.025113
 C 0.051 0.0807 0.2072   0.241177
 C 0.18 0.1982 0.1922   -0.15285
 C 0.2818 0.1693 0.1264   -0.103618
 C 0.2526 0.0246 0.0786   -0.024247
 C 0.1187 0.9088 0.089   -0.137354
 C 0.0149 0.9352 0.1553   -0.136329
 C 0.4184 0.2952 0.102   0.784113
 C 0.0827 0.7531 0.0327   0.804034
 O 0.8793 0.4962 0.2152   -0.629972
 O 0.721 0.6129 0.18   -0.670916
 O 0.6017 0.5897 0.9216   -0.830796
 O 0.4532 0.72 0.8966   -0.673903
 O 0.8073 0.2679 0.0061   -0.760999
 O 0.0495 0.3458 0.9714   -0.796265
 O 0.0543 0.8942 0.7285   -0.245493
 O 0.1207 0.5038 0.7848   -0.629973
 O 0.279 0.3871 0.82   -0.670916
 O 0.3983 0.4103 0.0784   -0.830797
 O 0.5468 0.28 0.1034   -0.673903
 O 0.1927 0.7321 0.9939   -0.760999
 O 0.9505 0.6542 0.0286   -0.796266
 O 0.9457 0.1058 0.2715   -0.245493
