{'_ref': 'TBD', '_srcid': 'CAKYAQ_clean', 'submitters': [{'name': 'Dalar Nazarian Jeff Camp and David Sholl', 'email': 'dalar@gatech.edu jcamp6@gatech.edu'}], '_method': 'VASP DFT with PBE;DDEC'}
data_ErH7C15O7
_symmetry_space_group_name_H-M   'P 1'
_cell_length_a   9.34899975
_cell_length_b   9.80000060
_cell_length_c   11.37900000
_cell_angle_alpha   94.44099769
_cell_angle_beta   99.30499871
_cell_angle_gamma   111.52700182
_symmetry_Int_Tables_number   1
_chemical_formula_structural   ErH7C15O7
_chemical_formula_sum   'Er2 H14 C30 O14'
_cell_volume   946.381505237
_cell_formula_units_Z   2
loop_
 _symmetry_equiv_pos_site_id
 _symmetry_equiv_pos_as_xyz
  1  'x, y, z'
loop_
 _atom_site_label
 _atom_site_fract_x
 _atom_site_fract_y
 _atom_site_fract_z
 _atom_site_charge
 Er 0.72419 0.4549 0.01131   1.517723
 Er 0.27581 0.5451 0.98869   1.517724
 H 0.7294 0.7723 0.3758   0.104613
 H 0.8232 0.8984 0.5655   0.137265
 H 0.153 0.7256 0.6168   0.155735
 H 0.0664 0.6064 0.4208   0.097554
 H 0.0768 0.1405 0.8373   0.12829
 H 0.6781 0.9964 0.9609   0.117419
 H 0.8029 0.7076 0.7769   0.133976
 H 0.2706 0.2277 0.6242   0.104613
 H 0.1768 0.1016 0.4345   0.137266
 H 0.847 0.2744 0.3832   0.155735
 H 0.9336 0.3936 0.5792   0.097554
 H 0.9232 0.8595 0.1627   0.12829
 H 0.3219 0.0036 0.0391   0.117419
 H 0.1971 0.2924 0.2231   0.133975
 C 0.8239 0.587 0.253   0.619758
 C 0.883 0.6698 0.3741   -0.147368
 C 0.8149 0.7624 0.4233   0.014125
 C 0.8694 0.8369 0.5367   -0.246599
 C 0.9953 0.821 0.6102   0.297428
 C 0.0684 0.7349 0.5676   -0.214569
 C 0.0146 0.6622 0.4504   0.000243
 C 0.9507 0.9222 0.7935   0.243438
 C 0.9857 0.064 0.8456   -0.13423
 C 0.8844 0.0929 0.9106   -0.118999
 C 0.7495 0.9769 0.9211   -0.009193
 C 0.7189 0.832 0.8732   -0.081281
 C 0.821 0.8041 0.8091   -0.155467
 C 0.9185 0.2458 0.9664   0.710902
 C 0.5831 0.7085 0.8968   0.691458
 C 0.1761 0.413 0.747   0.619758
 C 0.117 0.3302 0.6259   -0.147368
 C 0.1851 0.2376 0.5767   0.014125
 C 0.1306 0.1631 0.4633   -0.2466
 C 0.0047 0.179 0.3898   0.297428
 C 0.9316 0.2651 0.4324   -0.214569
 C 0.9854 0.3378 0.5496   0.000243
 C 0.0493 0.0778 0.2065   0.243438
 C 0.0143 0.936 0.1544   -0.13423
 C 0.1156 0.9071 0.0894   -0.118999
 C 0.2505 0.0231 0.0789   -0.009193
 C 0.2811 0.168 0.1268   -0.081281
 C 0.179 0.1959 0.1909   -0.155467
 C 0.0815 0.7542 0.0336   0.710902
 C 0.4169 0.2915 0.1032   0.691458
 O 0.8778 0.4948 0.2167   -0.532497
 O 0.7198 0.6115 0.1826   -0.561558
 O 0.4524 0.7226 0.8939   -0.587982
 O 0.6002 0.5906 0.9219   -0.661299
 O 0.8102 0.2687 0.009   -0.642766
 O 0.0503 0.3447 0.9707   -0.656622
 O 0.0565 0.8956 0.7273   -0.219499
 O 0.1222 0.5052 0.7833   -0.532497
 O 0.2802 0.3885 0.8174   -0.561557
 O 0.5476 0.2774 0.1061   -0.587982
 O 0.3998 0.4094 0.0781   -0.661298
 O 0.1898 0.7313 0.991   -0.642766
 O 0.9497 0.6553 0.0293   -0.656622
 O 0.9435 0.1044 0.2727   -0.219499
