{'_ref': 'TBD', '_srcid': 'CAKYAQ_clean', 'submitters': [{'name': 'Dalar Nazarian Jeff Camp and David Sholl', 'email': 'dalar@gatech.edu jcamp6@gatech.edu'}], '_method': 'VASP DFT with PBE;DDEC'}
data_CdH11C17(NO)4
_symmetry_space_group_name_H-M   'P 1'
_cell_length_a   9.22000000
_cell_length_b   10.74999998
_cell_length_c   18.83100000
_cell_angle_alpha   90.00000000
_cell_angle_beta   90.00000000
_cell_angle_gamma   104.08700169
_symmetry_Int_Tables_number   1
_chemical_formula_structural   CdH11C17(NO)4
_chemical_formula_sum   'Cd4 H44 C68 N16 O16'
_cell_volume   1810.30575579
_cell_formula_units_Z   4
loop_
 _symmetry_equiv_pos_site_id
 _symmetry_equiv_pos_as_xyz
  1  'x, y, z'
loop_
 _atom_site_label
 _atom_site_fract_x
 _atom_site_fract_y
 _atom_site_fract_z
 _atom_site_charge
 Cd 0.50825 0.83577 0.38166   0.996055
 Cd 0.49175 0.66423 0.88166   0.996055
 Cd 0.49175 0.16423 0.61834   0.996055
 Cd 0.50825 0.33577 0.11834   0.996055
 H 0.6437 0.3489 0.3684   0.124971
 H 0.0531 0.5193 0.2938   0.130268
 H 0.9392 0.1384 0.3264   0.116812
 H 0.0126 0.7033 0.3516   0.125225
 H 0.8696 0.8653 0.3616   0.107565
 H 0.5822 0.538 0.3282   0.105836
 H 0.216 0.1861 0.3557   0.158615
 H 0.4378 0.2031 0.2828   0.096817
 H 0.2109 0.4301 0.1984   0.103118
 H 0.1897 0.4209 0.4513   0.099168
 H 0.0195 0.7183 0.5053   0.099948
 H 0.3563 0.1511 0.8684   0.124971
 H 0.9469 0.9807 0.7938   0.130268
 H 0.0608 0.3616 0.8264   0.116812
 H 0.9874 0.7967 0.8516   0.125225
 H 0.1304 0.6347 0.8616   0.107565
 H 0.4178 0.962 0.8282   0.105836
 H 0.784 0.3139 0.8557   0.158615
 H 0.5622 0.2969 0.7828   0.096817
 H 0.7891 0.0699 0.6984   0.103118
 H 0.8103 0.0791 0.9513   0.099168
 H 0.9805 0.7817 0.0053   0.099948
 H 0.3563 0.6511 0.6316   0.124971
 H 0.9469 0.4807 0.7062   0.130268
 H 0.0608 0.8616 0.6736   0.116812
 H 0.9874 0.2967 0.6484   0.125225
 H 0.1304 0.1347 0.6384   0.107565
 H 0.4178 0.462 0.6718   0.105836
 H 0.784 0.8139 0.6443   0.158614
 H 0.5622 0.7969 0.7172   0.096818
 H 0.7891 0.5699 0.8016   0.103118
 H 0.8103 0.5791 0.5487   0.099166
 H 0.9805 0.2817 0.4947   0.099946
 H 0.6437 0.8489 0.1316   0.124971
 H 0.0531 0.0193 0.2062   0.130268
 H 0.9392 0.6384 0.1736   0.116812
 H 0.0126 0.2033 0.1484   0.125225
 H 0.8696 0.3653 0.1384   0.107565
 H 0.5822 0.038 0.1718   0.105836
 H 0.216 0.6861 0.1443   0.158614
 H 0.4378 0.7031 0.2172   0.096818
 H 0.2109 0.9301 0.3016   0.103118
 H 0.1897 0.9209 0.0487   0.099166
 H 0.0195 0.2183 0.9947   0.099946
 C 0.7717 0.224 0.3488   -0.018184
 C 0.7368 0.3426 0.35205   -0.145349
 C 0.842 0.4512 0.33076   0.1574
 C 0.9835 0.4456 0.30821   -0.221247
 C 0.018 0.3275 0.3078   0.124284
 C 0.914 0.2171 0.32745   -0.158243
 C 0.6588 0.1015 0.36671   0.64068
 C 0.9093 0.6895 0.34792   -0.150411
 C 0.8296 0.7784 0.3532   0.050453
 C 0.6714 0.5995 0.33489   0.174697
 C 0.2424 0.2371 0.31564   -0.146184
 C 0.3641 0.2473 0.27501   0.044999
 C 0.2415 0.3723 0.22815   0.159339
 C 0.1268 0.5852 0.47314   -0.118199
 C 0.1132 0.4526 0.47081   -0.062552
 C 0.0115 0.6304 0.50306   -0.070015
 C 0.2611 0.6754 0.44129   0.640558
 C 0.2283 0.276 0.8488   -0.018184
 C 0.2632 0.1574 0.85205   -0.145349
 C 0.158 0.0488 0.83076   0.1574
 C 0.0165 0.0544 0.80821   -0.221247
 C 0.982 0.1725 0.8078   0.124284
 C 0.086 0.2829 0.82745   -0.158243
 C 0.3412 0.3985 0.86671   0.64068
 C 0.0907 0.8105 0.84792   -0.150411
 C 0.1704 0.7216 0.8532   0.050453
 C 0.3286 0.9005 0.83489   0.174697
 C 0.7576 0.2629 0.81564   -0.146184
 C 0.6359 0.2527 0.77501   0.044999
 C 0.7585 0.1277 0.72815   0.159339
 C 0.8732 0.9148 0.97314   -0.118199
 C 0.8868 0.0474 0.97081   -0.062552
 C 0.9885 0.8696 0.00306   -0.070015
 C 0.7389 0.8246 0.94129   0.640558
 C 0.2283 0.776 0.6512   -0.018184
 C 0.2632 0.6574 0.64795   -0.145349
 C 0.158 0.5488 0.66924   0.1574
 C 0.0165 0.5544 0.69179   -0.221248
 C 0.982 0.6725 0.6922   0.124284
 C 0.086 0.7829 0.67255   -0.158243
 C 0.3412 0.8985 0.63329   0.64068
 C 0.0907 0.3105 0.65208   -0.150411
 C 0.1704 0.2216 0.6468   0.050453
 C 0.3286 0.4005 0.66511   0.174697
 C 0.7576 0.7629 0.68436   -0.146184
 C 0.6359 0.7527 0.72499   0.044999
 C 0.7585 0.6277 0.77185   0.15934
 C 0.8732 0.4148 0.52686   -0.118203
 C 0.8868 0.5474 0.52919   -0.062543
 C 0.9885 0.3696 0.49694   -0.070006
 C 0.7389 0.3246 0.55871   0.640558
 C 0.7717 0.724 0.1512   -0.018184
 C 0.7368 0.8426 0.14795   -0.145349
 C 0.842 0.9512 0.16924   0.1574
 C 0.9835 0.9456 0.19179   -0.221248
 C 0.018 0.8275 0.1922   0.124284
 C 0.914 0.7171 0.17255   -0.158243
 C 0.6588 0.6015 0.13329   0.64068
 C 0.9093 0.1895 0.15208   -0.150411
 C 0.8296 0.2784 0.1468   0.050453
 C 0.6714 0.0995 0.16511   0.174697
 C 0.2424 0.7371 0.18436   -0.146184
 C 0.3641 0.7473 0.22499   0.044999
 C 0.2415 0.8723 0.27185   0.15934
 C 0.1268 0.0852 0.02686   -0.118203
 C 0.1132 0.9526 0.02919   -0.062543
 C 0.0115 0.1304 0.99694   -0.070006
 C 0.2611 0.1754 0.05871   0.640558
 N 0.681 0.7224 0.34449   -0.402329
 N 0.8082 0.5742 0.33599   0.032092
 N 0.3649 0.3328 0.21984   -0.403881
 N 0.1654 0.3171 0.28599   0.034601
 N 0.319 0.7776 0.84449   -0.402329
 N 0.1918 0.9258 0.83599   0.032092
 N 0.6351 0.1672 0.71984   -0.403881
 N 0.8346 0.1829 0.78599   0.034601
 N 0.319 0.2776 0.65551   -0.402329
 N 0.1918 0.4258 0.66401   0.032092
 N 0.6351 0.6672 0.78016   -0.403881
 N 0.8346 0.6829 0.71401   0.034601
 N 0.681 0.2224 0.15551   -0.402329
 N 0.8082 0.0742 0.16401   0.032092
 N 0.3649 0.8328 0.28016   -0.403881
 N 0.1654 0.8171 0.21401   0.034601
 O 0.5319 0.1034 0.38806   -0.602795
 O 0.6991 0.000900000000001 0.35611   -0.606934
 O 0.2707 0.7937 0.44206   -0.599553
 O 0.3591 0.629 0.41272   -0.617629
 O 0.4681 0.3966 0.88806   -0.602795
 O 0.3009 0.4991 0.85611   -0.606934
 O 0.7293 0.7063 0.94206   -0.599553
 O 0.6409 0.871 0.91272   -0.617629
 O 0.4681 0.8966 0.61194   -0.602796
 O 0.3009 0.9991 0.64389   -0.606934
 O 0.7293 0.2063 0.55794   -0.599553
 O 0.6409 0.371 0.58728   -0.617628
 O 0.5319 0.6034 0.11194   -0.602796
 O 0.6991 0.5009 0.14389   -0.606934
 O 0.2707 0.2937 0.05794   -0.599553
 O 0.3591 0.129 0.08728   -0.617628
