{'_ref': 'TBD', '_srcid': 'CAKYAQ_clean', 'submitters': [{'name': 'Dalar Nazarian Jeff Camp and David Sholl', 'email': 'dalar@gatech.edu jcamp6@gatech.edu'}], '_method': 'VASP DFT with PBE;DDEC'}
data_ZnH10C19SNO6
_symmetry_space_group_name_H-M   'P 1'
_cell_length_a   13.96100000
_cell_length_b   19.60099961
_cell_length_c   22.64900000
_cell_angle_alpha   90.00000000
_cell_angle_beta   90.00000000
_cell_angle_gamma   101.37400035
_symmetry_Int_Tables_number   1
_chemical_formula_structural   ZnH10C19SNO6
_chemical_formula_sum   'Zn8 H80 C152 S8 N8 O48'
_cell_volume   6076.16699816
_cell_formula_units_Z   8
loop_
 _symmetry_equiv_pos_site_id
 _symmetry_equiv_pos_as_xyz
  1  'x, y, z'
loop_
 _atom_site_label
 _atom_site_fract_x
 _atom_site_fract_y
 _atom_site_fract_z
 _atom_site_charge
 Zn 0.66325 0.33505 0.99029   0.949612
 Zn 0.87773 0.36309 0.00913   0.944537
 Zn 0.66325 0.83505 0.50971   0.949612
 Zn 0.87773 0.86309 0.49087   0.944537
 Zn 0.33675 0.16495 0.49029   0.949612
 Zn 0.12227 0.13691 0.50913   0.944537
 Zn 0.33675 0.66495 0.00971   0.949612
 Zn 0.12227 0.63691 0.99087   0.944537
 H 0.0131 0.2837 0.0651   0.09009
 H 0.6425 0.6929 0.6649   0.114779
 H 0.9745 0.614 0.8078   0.127733
 H 0.4957 0.3057 0.0737   0.094671
 H 0.1767 0.2726 0.0593   0.144997
 H 0.9548 0.5341 0.8875   0.098665
 H 0.5883 0.6533 0.3928   0.112312
 H 0.5696 0.5757 0.3168   0.127636
 H 0.9318 0.7634 0.6461   0.110915
 H 0.6051 0.4376 0.145   0.098594
 H 0.8916 0.506 0.1637   0.10905
 H 0.3322 0.3093 0.08   0.129996
 H 0.9661 0.7004 0.7246   0.122424
 H 0.8761 0.7037 0.3601   0.104372
 H 0.5739 0.4986 0.2269   0.111687
 H 0.6639 0.5019 0.8697   0.102545
 H 0.0626 0.4402 0.9557   0.081776
 H 0.3413 0.3789 0.9173   0.131938
 H 0.5048 0.3725 0.9127   0.093412
 H 0.2263 0.4355 0.9494   0.125816
 H 0.0131 0.7837 0.4349   0.09009
 H 0.6425 0.1929 0.8351   0.114779
 H 0.9745 0.114 0.6922   0.127733
 H 0.4957 0.8057 0.4263   0.094672
 H 0.1767 0.7726 0.4407   0.144997
 H 0.9548 0.0341 0.6125   0.098665
 H 0.5883 0.1533 0.1072   0.112312
 H 0.5696 0.0757 0.1832   0.127636
 H 0.9318 0.2634 0.8539   0.110915
 H 0.6051 0.9376 0.355   0.098594
 H 0.8916 0.006 0.3363   0.10905
 H 0.3322 0.8093 0.42   0.129997
 H 0.9661 0.2004 0.7754   0.122424
 H 0.8761 0.2037 0.1399   0.104371
 H 0.5739 0.9986 0.2731   0.111687
 H 0.6639 0.0019 0.6303   0.102545
 H 0.0626 0.9402 0.5443   0.081776
 H 0.3413 0.8789 0.5827   0.131938
 H 0.5048 0.8725 0.5873   0.093413
 H 0.2263 0.9355 0.5506   0.125816
 H 0.9869 0.2163 0.5651   0.09009
 H 0.3575 0.8071 0.1649   0.114779
 H 0.0255 0.886 0.3078   0.127733
 H 0.5043 0.1943 0.5737   0.094671
 H 0.8233 0.2274 0.5593   0.144997
 H 0.0452 0.9659 0.3875   0.098665
 H 0.4117 0.8467 0.8928   0.112312
 H 0.4304 0.9243 0.8168   0.127636
 H 0.0682 0.7366 0.1461   0.110915
 H 0.3949 0.0624 0.645   0.098594
 H 0.1084 0.994 0.6637   0.10905
 H 0.6678 0.1907 0.58   0.129996
 H 0.0339 0.7996 0.2246   0.122424
 H 0.1239 0.7963 0.8601   0.104371
 H 0.4261 0.0014 0.7269   0.111687
 H 0.3361 0.9981 0.3697   0.102544
 H 0.9374 0.0598 0.4557   0.081776
 H 0.6587 0.1211 0.4173   0.131938
 H 0.4952 0.1275 0.4127   0.093412
 H 0.7737 0.0645 0.4494   0.125816
 H 0.9869 0.7163 0.9349   0.09009
 H 0.3575 0.3071 0.3351   0.114779
 H 0.0255 0.386 0.1922   0.127733
 H 0.5043 0.6943 0.9263   0.094672
 H 0.8233 0.7274 0.9407   0.144997
 H 0.0452 0.4659 0.1125   0.098665
 H 0.4117 0.3467 0.6072   0.112312
 H 0.4304 0.4243 0.6832   0.127636
 H 0.0682 0.2366 0.3539   0.110915
 H 0.3949 0.5624 0.855   0.098594
 H 0.1084 0.494 0.8363   0.10905
 H 0.6678 0.6907 0.92   0.129997
 H 0.0339 0.2996 0.2754   0.122424
 H 0.1239 0.2963 0.6399   0.104371
 H 0.4261 0.5014 0.7731   0.111687
 H 0.3361 0.4981 0.1303   0.102544
 H 0.9374 0.5598 0.0443   0.081776
 H 0.6587 0.6211 0.0827   0.131938
 H 0.4952 0.6275 0.0873   0.093413
 H 0.7737 0.5645 0.0506   0.125816
 C 0.7997 0.455 0.9309   0.665379
 C 0.3214 0.3488 0.0023   0.113004
 C 0.8286 0.6084 0.7928   0.069123
 C 0.7366 0.5718 0.813   -0.243418
 C 0.8245 0.6524 0.7442   0.066887
 C 0.2171 0.3551 0.0039   0.102386
 C 0.7349 0.6865 0.3847   -0.136496
 C 0.056 0.3133 0.0406   0.168123
 C 0.7114 0.5909 0.293   0.056727
 C 0.727 0.6523 0.7253   -0.252271
 C 0.7066 0.6932 0.6763   0.024739
 C 0.7832 0.7328 0.6466   -0.131397
 C 0.9123 0.5927 0.8203   -0.129787
 C 0.7469 0.7422 0.4308   0.673224
 C 0.803 0.6279 0.3102   -0.204871
 C 0.4653 0.3209 0.041   0.180835
 C 0.8091 0.5468 0.2218   -0.230759
 C 0.1543 0.3072 0.0385   -0.201654
 C 0.9 0.5433 0.8681   -0.014085
 C 0.7673 0.4242 0.0931   0.657341
 C 0.6424 0.6474 0.3709   -0.011137
 C 0.6314 0.601 0.3258   -0.114845
 C 0.8078 0.5093 0.8856   -0.148631
 C 0.7509 0.4678 0.1448   -0.154906
 C 0.712 0.5435 0.2419   0.073482
 C 0.8807 0.7351 0.6661   0.005845
 C 0.6569 0.4651 0.165   -0.003636
 C 0.8277 0.5066 0.1748   0.029433
 C 0.3663 0.3245 0.0456   -0.189703
 C 0.9015 0.6973 0.7128   -0.113702
 C 0.8147 0.6768 0.3526   0.027029
 C 0.6378 0.5021 0.2136   -0.109097
 C 0.7641 0.7739 0.5943   0.677454
 C 0.726 0.5242 0.8578   0.033783
 C 0.0857 0.4058 0.9765   0.195689
 C 0.3722 0.3649 0.9502   -0.201653
 C 0.4707 0.3599 0.9476   0.158592
 C 0.1843 0.4039 0.9727   -0.186962
 C 0.7997 0.955 0.5691   0.665379
 C 0.3214 0.8488 0.4977   0.113004
 C 0.8286 0.1084 0.7072   0.069123
 C 0.7366 0.0718 0.687   -0.243418
 C 0.8245 0.1524 0.7558   0.066887
 C 0.2171 0.8551 0.4961   0.102386
 C 0.7349 0.1865 0.1153   -0.136496
 C 0.056 0.8133 0.4594   0.168122
 C 0.7114 0.0909 0.207   0.056727
 C 0.727 0.1523 0.7747   -0.252271
 C 0.7066 0.1932 0.8237   0.024739
 C 0.7832 0.2328 0.8534   -0.131396
 C 0.9123 0.0927 0.6797   -0.129787
 C 0.7469 0.2422 0.0692   0.673224
 C 0.803 0.1279 0.1898   -0.204871
 C 0.4653 0.8209 0.459   0.180835
 C 0.8091 0.0468 0.2782   -0.230759
 C 0.1543 0.8072 0.4615   -0.201654
 C 0.9 0.0433 0.6319   -0.014085
 C 0.7673 0.9242 0.4069   0.657341
 C 0.6424 0.1474 0.1291   -0.011137
 C 0.6314 0.101 0.1742   -0.114845
 C 0.8078 0.0093 0.6144   -0.148631
 C 0.7509 0.9678 0.3552   -0.154906
 C 0.712 0.0435 0.2581   0.073482
 C 0.8807 0.2351 0.8339   0.005845
 C 0.6569 0.9651 0.335   -0.003636
 C 0.8277 0.0066 0.3252   0.029433
 C 0.3663 0.8245 0.4544   -0.189703
 C 0.9015 0.1973 0.7872   -0.113702
 C 0.8147 0.1768 0.1474   0.027028
 C 0.6378 0.0021 0.2864   -0.109098
 C 0.7641 0.2739 0.9057   0.677454
 C 0.726 0.0242 0.6422   0.033783
 C 0.0857 0.9058 0.5235   0.195689
 C 0.3722 0.8649 0.5498   -0.201653
 C 0.4707 0.8599 0.5524   0.158592
 C 0.1843 0.9039 0.5273   -0.186962
 C 0.2003 0.045 0.4309   0.665379
 C 0.6786 0.1512 0.5023   0.113004
 C 0.1714 0.8916 0.2928   0.069123
 C 0.2634 0.9282 0.313   -0.243418
 C 0.1755 0.8476 0.2442   0.066887
 C 0.7829 0.1449 0.5039   0.102386
 C 0.2651 0.8135 0.8847   -0.136496
 C 0.944 0.1867 0.5406   0.168123
 C 0.2886 0.9091 0.793   0.056727
 C 0.273 0.8477 0.2253   -0.252271
 C 0.2934 0.8068 0.1763   0.024739
 C 0.2168 0.7672 0.1466   -0.131397
 C 0.0877 0.9073 0.3203   -0.129787
 C 0.2531 0.7578 0.9308   0.673224
 C 0.197 0.8721 0.8102   -0.204871
 C 0.5347 0.1791 0.541   0.180834
 C 0.1909 0.9532 0.7218   -0.230759
 C 0.8457 0.1928 0.5385   -0.201654
 C 0.1 0.9567 0.3681   -0.014085
 C 0.2327 0.0758 0.5931   0.657341
 C 0.3576 0.8526 0.8709   -0.011137
 C 0.3686 0.899 0.8258   -0.114845
 C 0.1922 0.9907 0.3856   -0.148631
 C 0.2491 0.0322 0.6448   -0.154906
 C 0.288 0.9565 0.7419   0.073482
 C 0.1193 0.7649 0.1661   0.005845
 C 0.3431 0.0349 0.665   -0.003636
 C 0.1723 0.9934 0.6748   0.029433
 C 0.6337 0.1755 0.5456   -0.189703
 C 0.0985 0.8027 0.2128   -0.113702
 C 0.1853 0.8232 0.8526   0.027029
 C 0.3622 0.9979 0.7136   -0.109097
 C 0.2359 0.7261 0.0943   0.677454
 C 0.274 0.9758 0.3578   0.033783
 C 0.9143 0.0942 0.4765   0.195689
 C 0.6278 0.1351 0.4502   -0.201653
 C 0.5293 0.1401 0.4476   0.158592
 C 0.8157 0.0961 0.4727   -0.186962
 C 0.2003 0.545 0.0691   0.665379
 C 0.6786 0.6512 0.9977   0.113004
 C 0.1714 0.3916 0.2072   0.069123
 C 0.2634 0.4282 0.187   -0.243418
 C 0.1755 0.3476 0.2558   0.066887
 C 0.7829 0.6449 0.9961   0.102386
 C 0.2651 0.3135 0.6153   -0.136496
 C 0.944 0.6867 0.9594   0.168122
 C 0.2886 0.4091 0.707   0.056727
 C 0.273 0.3477 0.2747   -0.252271
 C 0.2934 0.3068 0.3237   0.024739
 C 0.2168 0.2672 0.3534   -0.131396
 C 0.0877 0.4073 0.1797   -0.129787
 C 0.2531 0.2578 0.5692   0.673224
 C 0.197 0.3721 0.6898   -0.204871
 C 0.5347 0.6791 0.959   0.180834
 C 0.1909 0.4532 0.7782   -0.230759
 C 0.8457 0.6928 0.9615   -0.201654
 C 0.1 0.4567 0.1319   -0.014085
 C 0.2327 0.5758 0.9069   0.657341
 C 0.3576 0.3526 0.6291   -0.011137
 C 0.3686 0.399 0.6742   -0.114845
 C 0.1922 0.4907 0.1144   -0.148631
 C 0.2491 0.5322 0.8552   -0.154906
 C 0.288 0.4565 0.7581   0.073482
 C 0.1193 0.2649 0.3339   0.005845
 C 0.3431 0.5349 0.835   -0.003636
 C 0.1723 0.4934 0.8252   0.029433
 C 0.6337 0.6755 0.9544   -0.189703
 C 0.0985 0.3027 0.2872   -0.113702
 C 0.1853 0.3232 0.6474   0.027029
 C 0.3622 0.4979 0.7864   -0.109097
 C 0.2359 0.2261 0.4057   0.677454
 C 0.274 0.4758 0.1422   0.033783
 C 0.9143 0.5942 0.0235   0.195689
 C 0.6278 0.6351 0.0498   -0.201653
 C 0.5293 0.6401 0.0524   0.158592
 C 0.8157 0.5961 0.0273   -0.186962
 S 0.64341 0.59638 0.7688   1.165358
 S 0.8938 0.60637 0.26281   1.107541
 S 0.64341 0.09638 0.7312   1.165358
 S 0.8938 0.10637 0.23719   1.107541
 S 0.35659 0.90362 0.2688   1.165358
 S 0.1062 0.89363 0.76281   1.107541
 S 0.35659 0.40362 0.2312   1.165358
 S 0.1062 0.39363 0.73719   1.107541
 N 0.0223 0.3607 0.0083   -0.308675
 N 0.518 0.3381 0.9927   -0.296647
 N 0.0223 0.8607 0.4917   -0.308675
 N 0.518 0.8381 0.5073   -0.296647
 N 0.9777 0.1393 0.5083   -0.308675
 N 0.482 0.1619 0.4927   -0.296647
 N 0.9777 0.6393 0.9917   -0.308675
 N 0.482 0.6619 0.0073   -0.296647
 O 0.6703 0.7511 0.4593   -0.598997
 O 0.8581 0.4256 0.0779   -0.594145
 O 0.7118 0.4232 0.9438   -0.621764
 O 0.8311 0.7808 0.4393   -0.608573
 O 0.8758 0.4414 0.9531   -0.560626
 O 0.6942 0.3926 0.0658   -0.58437
 O 0.677 0.7794 0.5825   -0.587188
 O 0.8387 0.7994 0.5626   -0.616417
 O 0.9579 0.5686 0.298   -0.557749
 O 0.5844 0.6328 0.8025   -0.553572
 O 0.5979 0.5363 0.734   -0.565309
 O 0.936 0.6664 0.2268   -0.54649
 O 0.6703 0.2511 0.0407   -0.598997
 O 0.8581 0.9256 0.4221   -0.594145
 O 0.7118 0.9232 0.5562   -0.621764
 O 0.8311 0.2808 0.0607   -0.608573
 O 0.8758 0.9414 0.5469   -0.560626
 O 0.6942 0.8926 0.4342   -0.58437
 O 0.677 0.2794 0.9175   -0.587188
 O 0.8387 0.2994 0.9374   -0.616417
 O 0.9579 0.0686 0.202   -0.557749
 O 0.5844 0.1328 0.6975   -0.553572
 O 0.5979 0.0363 0.766   -0.565309
 O 0.936 0.1664 0.2732   -0.54649
 O 0.3297 0.7489 0.9593   -0.598997
 O 0.1419 0.0744 0.5779   -0.594145
 O 0.2882 0.0768 0.4438   -0.621764
 O 0.1689 0.7192 0.9393   -0.608573
 O 0.1242 0.0586 0.4531   -0.560626
 O 0.3058 0.1074 0.5658   -0.58437
 O 0.323 0.7206 0.0825   -0.587188
 O 0.1613 0.7006 0.0626   -0.616417
 O 0.0421 0.9314 0.798   -0.557749
 O 0.4156 0.8672 0.3025   -0.553572
 O 0.4021 0.9637 0.234   -0.565309
 O 0.064 0.8336 0.7268   -0.54649
 O 0.3297 0.2489 0.5407   -0.598997
 O 0.1419 0.5744 0.9221   -0.594145
 O 0.2882 0.5768 0.0562   -0.621764
 O 0.1689 0.2192 0.5607   -0.608573
 O 0.1242 0.5586 0.0469   -0.560626
 O 0.3058 0.6074 0.9342   -0.58437
 O 0.323 0.2206 0.4175   -0.587188
 O 0.1613 0.2006 0.4374   -0.616417
 O 0.0421 0.4314 0.702   -0.557749
 O 0.4156 0.3672 0.1975   -0.553572
 O 0.4021 0.4637 0.266   -0.565309
 O 0.064 0.3336 0.7732   -0.54649
