{'_ref': 'TBD', '_srcid': 'CAKYAQ_clean', 'submitters': [{'name': 'Dalar Nazarian Jeff Camp and David Sholl', 'email': 'dalar@gatech.edu jcamp6@gatech.edu'}], '_method': 'VASP DFT with PBE;DDEC'}
data_ZnH20C24S(N2O3)2
_symmetry_space_group_name_H-M   'P 1'
_cell_length_a   10.13890000
_cell_length_b   14.18370000
_cell_length_c   22.05180000
_cell_angle_alpha   90.00000000
_cell_angle_beta   90.00000000
_cell_angle_gamma   90.00000000
_symmetry_Int_Tables_number   1
_chemical_formula_structural   ZnH20C24S(N2O3)2
_chemical_formula_sum   'Zn4 H80 C96 S4 N16 O24'
_cell_volume   3171.20575907
_cell_formula_units_Z   4
loop_
 _symmetry_equiv_pos_site_id
 _symmetry_equiv_pos_as_xyz
  1  'x, y, z'
loop_
 _atom_site_label
 _atom_site_fract_x
 _atom_site_fract_y
 _atom_site_fract_z
 _atom_site_charge
 Zn 0.49383 0.25 0.52546   0.896843
 Zn 0.50617 0.75 0.47454   0.896843
 Zn 0.49383 0.75 0.97454   0.896843
 Zn 0.50617 0.25 0.02546   0.896843
 H 0.4446 0.25 0.7815   0.099508
 H 0.5554 0.75 0.2185   0.099508
 H 0.4446 0.75 0.7185   0.099508
 H 0.5554 0.25 0.2815   0.099508
 H 0.1729 0.25 0.9137   0.101332
 H 0.8271 0.75 0.0863   0.101332
 H 0.1729 0.75 0.5863   0.101332
 H 0.8271 0.25 0.4137   0.101332
 H 0.0779 0.25 0.6422   0.120041
 H 0.9221 0.75 0.3578   0.120041
 H 0.0779 0.75 0.8578   0.120041
 H 0.9221 0.25 0.1422   0.120041
 H 0.2807 0.25 0.7082   0.117172
 H 0.7193 0.75 0.2918   0.117172
 H 0.2807 0.75 0.7918   0.117172
 H 0.7193 0.25 0.2082   0.117172
 H 0.2908 0.1335 0.4494   0.097446
 H 0.7092 0.6335 0.5506   0.097446
 H 0.2908 0.8665 0.0506   0.097446
 H 0.7092 0.3665 0.9494   0.097446
 H 0.7092 0.8665 0.5506   0.097445
 H 0.2908 0.3665 0.4494   0.097445
 H 0.7092 0.1335 0.9494   0.097445
 H 0.2908 0.6335 0.0506   0.097445
 H 0.8729 0.25 0.5967   0.092718
 H 0.1271 0.75 0.4033   0.092718
 H 0.8729 0.75 0.9033   0.092718
 H 0.1271 0.25 0.0967   0.092718
 H 0.1535 0.9912 0.4243   0.107647
 H 0.8465 0.4912 0.5757   0.107647
 H 0.1535 0.0088 0.0757   0.107647
 H 0.8465 0.5088 0.9243   0.107647
 H 0.8465 0.0088 0.5757   0.107647
 H 0.1535 0.5088 0.4243   0.107647
 H 0.8465 0.9912 0.9243   0.107647
 H 0.1535 0.4912 0.0757   0.107647
 H 0.2009 0.8988 0.4568   0.091468
 H 0.7991 0.3988 0.5432   0.091468
 H 0.2009 0.1012 0.0432   0.091468
 H 0.7991 0.6012 0.9568   0.091468
 H 0.7991 0.1012 0.5432   0.091468
 H 0.2009 0.6012 0.4568   0.091468
 H 0.7991 0.8988 0.9568   0.091468
 H 0.2009 0.3988 0.0432   0.091468
 H 0.6928 0.25 0.7596   0.11373
 H 0.3072 0.75 0.2404   0.11373
 H 0.6928 0.75 0.7404   0.11373
 H 0.3072 0.25 0.2596   0.11373
 H 0.0466 0.9239 0.5343   0.08094
 H 0.9534 0.4239 0.4657   0.08094
 H 0.0466 0.0761 0.9657   0.08094
 H 0.9534 0.5761 0.0343   0.08094
 H 0.9534 0.0761 0.4657   0.08094
 H 0.0466 0.5761 0.5343   0.08094
 H 0.9534 0.9239 0.0343   0.08094
 H 0.0466 0.4239 0.9657   0.08094
 H 0.9764 0.9134 0.4714   0.08325
 H 0.0236 0.4134 0.5286   0.08325
 H 0.9764 0.0866 0.0286   0.08325
 H 0.0236 0.5866 0.9714   0.08325
 H 0.0236 0.0866 0.5286   0.083251
 H 0.9764 0.5866 0.4714   0.083251
 H 0.0236 0.9134 0.9714   0.083251
 H 0.9764 0.4134 0.0286   0.083251
 H 0.4346 0.0702 0.6087   0.119973
 H 0.5654 0.5702 0.3913   0.119973
 H 0.4346 0.9298 0.8913   0.119973
 H 0.5654 0.4298 0.1087   0.119973
 H 0.5654 0.9298 0.3913   0.119973
 H 0.4346 0.4298 0.6087   0.119973
 H 0.5654 0.0702 0.1087   0.119973
 H 0.4346 0.5702 0.8913   0.119973
 H 0.2966 0.9396 0.5759   0.128842
 H 0.7034 0.4396 0.4241   0.128842
 H 0.2966 0.0604 0.9241   0.128842
 H 0.7034 0.5604 0.0759   0.128842
 H 0.7034 0.0604 0.4241   0.128842
 H 0.2966 0.5604 0.5759   0.128842
 H 0.7034 0.9396 0.0759   0.128842
 H 0.2966 0.4396 0.9241   0.128842
 C 0.1277 0.25 0.767   0.053738
 C 0.8723 0.75 0.233   0.053738
 C 0.1277 0.75 0.733   0.053737
 C 0.8723 0.25 0.267   0.053737
 C 0.3566 0.25 0.7933   0.006036
 C 0.6434 0.75 0.2067   0.006036
 C 0.3566 0.75 0.7067   0.006036
 C 0.6434 0.25 0.2933   0.006036
 C 0.4348 0.25 0.9018   0.640397
 C 0.5652 0.75 0.0982   0.640397
 C 0.4348 0.75 0.5982   0.640397
 C 0.5652 0.25 0.4018   0.640397
 C 0.0979 0.25 0.8291   -0.255611
 C 0.9021 0.75 0.1709   -0.255611
 C 0.0979 0.75 0.6709   -0.255611
 C 0.9021 0.25 0.3291   -0.255611
 C 0.7615 0.25 0.6724   -0.142208
 C 0.2385 0.75 0.3276   -0.142208
 C 0.7615 0.75 0.8276   -0.142208
 C 0.2385 0.25 0.1724   -0.142208
 C 0.1945 0.25 0.8727   0.009049
 C 0.8055 0.75 0.1273   0.009049
 C 0.1945 0.75 0.6273   0.009049
 C 0.8055 0.25 0.3727   0.009049
 C 0.0017 0.25 0.6656   -0.136459
 C 0.9983 0.75 0.3344   -0.136459
 C 0.0017 0.75 0.8344   -0.136459
 C 0.9983 0.25 0.1656   -0.136459
 C 0.0086 0.25 0.7287   0.07215
 C 0.9914 0.75 0.2713   0.07215
 C 0.0086 0.75 0.7713   0.07215
 C 0.9914 0.25 0.2287   0.07215
 C 0.2586 0.25 0.7491   -0.108727
 C 0.7414 0.75 0.2509   -0.108727
 C 0.2586 0.75 0.7509   -0.108727
 C 0.7414 0.25 0.2491   -0.108727
 C 0.3096 0.1011 0.48507   0.14911
 C 0.6904 0.6011 0.51493   0.14911
 C 0.3096 0.8989 0.01493   0.14911
 C 0.6904 0.3989 0.98507   0.14911
 C 0.6904 0.8989 0.51493   0.149111
 C 0.3096 0.3989 0.48507   0.149111
 C 0.6904 0.1011 0.98507   0.149111
 C 0.3096 0.6011 0.01493   0.149111
 C 0.8783 0.25 0.6388   -0.027762
 C 0.1217 0.75 0.3612   -0.027762
 C 0.8783 0.75 0.8612   -0.027762
 C 0.1217 0.25 0.1388   -0.027762
 C 0.1658 0.9615 0.4636   -0.035565
 C 0.8342 0.4615 0.5364   -0.035565
 C 0.1658 0.0385 0.0364   -0.035565
 C 0.8342 0.5385 0.9636   -0.035565
 C 0.8342 0.0385 0.5364   -0.035566
 C 0.1658 0.5385 0.4636   -0.035566
 C 0.8342 0.9615 0.9636   -0.035566
 C 0.1658 0.4615 0.0364   -0.035566
 C 0.7688 0.25 0.736   0.037186
 C 0.2312 0.75 0.264   0.037186
 C 0.7688 0.75 0.764   0.037185
 C 0.2312 0.25 0.236   0.037185
 C 0.0336 0.9538 0.4952   -0.154757
 C 0.9664 0.4538 0.5048   -0.154757
 C 0.0336 0.0462 0.0048   -0.154757
 C 0.9664 0.5462 0.9952   -0.154757
 C 0.9664 0.0462 0.5048   -0.154755
 C 0.0336 0.5462 0.4952   -0.154755
 C 0.9664 0.9538 0.9952   -0.154755
 C 0.0336 0.4538 0.0048   -0.154755
 C 0.6298 0.25 0.6406   0.6633
 C 0.3702 0.75 0.3594   0.6633
 C 0.6298 0.75 0.8594   0.6633
 C 0.3702 0.25 0.1406   0.6633
 C 0.3261 0.25 0.854   -0.146361
 C 0.6739 0.75 0.146   -0.146361
 C 0.3261 0.75 0.646   -0.146361
 C 0.6739 0.25 0.354   -0.146361
 C 0.891 0.25 0.7621   -0.236252
 C 0.109 0.75 0.2379   -0.236252
 C 0.891 0.75 0.7379   -0.236252
 C 0.109 0.25 0.2621   -0.236252
 C 0.3887 0.0666 0.5723   0.024873
 C 0.6113 0.5666 0.4277   0.024873
 C 0.3887 0.9334 0.9277   0.024873
 C 0.6113 0.4334 0.0723   0.024873
 C 0.6113 0.9334 0.4277   0.024873
 C 0.3887 0.4334 0.5723   0.024873
 C 0.6113 0.0666 0.0723   0.024873
 C 0.3887 0.5666 0.9277   0.024873
 C 0.3119 0.9947 0.5542   -0.142167
 C 0.6881 0.4947 0.4458   -0.142167
 C 0.3119 0.0053 0.9458   -0.142167
 C 0.6881 0.5053 0.0542   -0.142167
 C 0.6881 0.0053 0.4458   -0.142167
 C 0.3119 0.5053 0.5542   -0.142167
 C 0.6881 0.9947 0.0542   -0.142167
 C 0.3119 0.4947 0.9458   -0.142167
 S 0.92709 0.25 0.8408   1.187104
 S 0.07291 0.75 0.1592   1.187104
 S 0.92709 0.75 0.6592   1.187104
 S 0.07291 0.25 0.3408   1.187104
 N 0.3876 0.1335 0.52747   -0.40326
 N 0.6124 0.6335 0.47253   -0.40326
 N 0.3876 0.8665 0.97253   -0.40326
 N 0.6124 0.3665 0.02747   -0.40326
 N 0.6124 0.8665 0.47253   -0.40326
 N 0.3876 0.3665 0.52747   -0.40326
 N 0.6124 0.1335 0.02747   -0.40326
 N 0.3876 0.6335 0.97253   -0.40326
 N 0.2598 0.016 0.49863   0.054649
 N 0.7402 0.516 0.50137   0.054649
 N 0.2598 0.984 0.00137   0.054649
 N 0.7402 0.484 0.99863   0.054649
 N 0.7402 0.984 0.50137   0.054649
 N 0.2598 0.484 0.49863   0.054649
 N 0.7402 0.016 0.99863   0.054649
 N 0.2598 0.516 0.00137   0.054649
 O 0.5515 0.25 0.887   -0.572527
 O 0.4485 0.75 0.113   -0.572527
 O 0.5515 0.75 0.613   -0.572527
 O 0.4485 0.25 0.387   -0.572527
 O 0.8868 0.1643 0.86919   -0.572071
 O 0.1132 0.6643 0.13081   -0.572071
 O 0.8868 0.8357 0.63081   -0.572071
 O 0.1132 0.3357 0.36919   -0.572071
 O 0.1132 0.8357 0.13081   -0.572071
 O 0.8868 0.3357 0.86919   -0.572071
 O 0.1132 0.1643 0.36919   -0.572071
 O 0.8868 0.6643 0.63081   -0.572071
 O 0.6373 0.25 0.58325   -0.624789
 O 0.3627 0.75 0.41675   -0.624789
 O 0.6373 0.75 0.91675   -0.624789
 O 0.3627 0.25 0.08325   -0.624789
 O 0.3898 0.25 0.95593   -0.629222
 O 0.6102 0.75 0.04407   -0.629222
 O 0.3898 0.75 0.54407   -0.629222
 O 0.6102 0.25 0.45593   -0.629222
 O 0.5276 0.25 0.6698   -0.591144
 O 0.4724 0.75 0.3302   -0.591144
 O 0.5276 0.75 0.8302   -0.591144
 O 0.4724 0.25 0.1698   -0.591144
