{'_ref': 'TBD', '_srcid': 'CAKYAQ_clean', 'submitters': [{'name': 'Dalar Nazarian Jeff Camp and David Sholl', 'email': 'dalar@gatech.edu jcamp6@gatech.edu'}], '_method': 'VASP DFT with PBE;DDEC'}
data_CoMo6H20C24(N4O3)3
_symmetry_space_group_name_H-M   'P 1'
_cell_length_a   9.51930050
_cell_length_b   10.95340020
_cell_length_c   11.49350000
_cell_angle_alpha   91.78599736
_cell_angle_beta   113.80000038
_cell_angle_gamma   105.46900146
_symmetry_Int_Tables_number   1
_chemical_formula_structural   CoMo6H20C24(N4O3)3
_chemical_formula_sum   'Co1 Mo6 H20 C24 N12 O9'
_cell_volume   1043.60517623
_cell_formula_units_Z   1
loop_
 _symmetry_equiv_pos_site_id
 _symmetry_equiv_pos_as_xyz
  1  'x, y, z'
loop_
 _atom_site_label
 _atom_site_fract_x
 _atom_site_fract_y
 _atom_site_fract_z
 _atom_site_charge
 Co 0.0 0.5 0.5   0.569173
 Mo 0.41889 0.62111 0.74983   1.256207
 Mo 0.51151 0.64734 0.06347   0.666014
 Mo 0.52394 0.92865 0.86002   0.702142
 Mo 0.58111 0.37889 0.25017   1.256211
 Mo 0.48849 0.35266 0.93653   0.666023
 Mo 0.47606 0.07135 0.13998   0.702151
 H 0.8898 0.5706 0.222   0.083219
 H 0.2506 0.7632 0.5407   0.066634
 H 0.3314 0.9196 0.4321   0.121922
 H 0.1871 0.9023 0.2117   0.036591
 H 0.9497 0.5824 0.735   0.073262
 H 0.7986 0.6812 0.3948   0.029552
 H 0.6711 0.8081 0.4501   0.086283
 H 0.6806 0.8206 0.6557   0.104396
 H 0.1306 0.7682 0.8962   0.344485
 H 0.1987 0.7785 0.039   0.26045
 H 0.1102 0.4294 0.778   0.08322
 H 0.7494 0.2368 0.4593   0.066634
 H 0.6686 0.0804 0.5679   0.121914
 H 0.8129 0.0977 0.7883   0.036591
 H 0.0503 0.4176 0.265   0.073263
 H 0.2014 0.3188 0.6052   0.029552
 H 0.3289 0.1919 0.5499   0.086282
 H 0.3194 0.1794 0.3443   0.104394
 H 0.8694 0.2318 0.1038   0.344485
 H 0.8013 0.2215 0.961   0.26045
 C 0.9115 0.7153 0.057   0.208232
 C 0.0201 0.7332 0.1944   -0.107872
 C 0.9801 0.6417 0.2648   0.127568
 C 0.1923 0.7542 0.452   0.15596
 C 0.2409 0.8493 0.3871   -0.172299
 C 0.1556 0.8399 0.2568   -0.015809
 C 0.8236 0.7008 0.8477   0.229197
 C 0.8177 0.7018 0.7174   -0.141375
 C 0.8926 0.6283 0.6771   0.136323
 C 0.8042 0.6865 0.4776   0.109056
 C 0.7265 0.7628 0.5098   -0.14048
 C 0.7324 0.7706 0.6316   -0.019525
 C 0.0885 0.2847 0.943   0.208232
 C 0.9799 0.2668 0.8056   -0.10787
 C 0.0199 0.3583 0.7352   0.127568
 C 0.8077 0.2458 0.548   0.155959
 C 0.7591 0.1507 0.6129   -0.1723
 C 0.8444 0.1601 0.7432   -0.015815
 C 0.1764 0.2992 0.1523   0.229197
 C 0.1823 0.2982 0.2826   -0.141375
 C 0.1074 0.3717 0.3229   0.136324
 C 0.1958 0.3135 0.5224   0.109057
 C 0.2735 0.2372 0.4902   -0.140487
 C 0.2676 0.2294 0.3684   -0.019528
 N 0.7544 0.6821 0.007   -0.183521
 N 0.6995 0.674 0.8755   -0.312983
 N 0.9598 0.7275 0.9586   0.148549
 N 0.1168 0.7626 0.9655   -0.631455
 N 0.0652 0.6503 0.392   -0.267916
 N 0.8865 0.6205 0.5589   -0.278475
 N 0.2456 0.3179 0.993   -0.183521
 N 0.3005 0.326 0.1245   -0.312983
 N 0.0402 0.2725 0.0414   0.148549
 N 0.8832 0.2374 0.0345   -0.631455
 N 0.9348 0.3497 0.608   -0.267916
 N 0.1135 0.3795 0.4411   -0.278475
 O 0.4298 0.5103 0.8855   -0.684537
 O 0.4764 0.7897 0.7209   -0.710186
 O 0.2081 0.58 0.6694   -0.624551
 O 0.4668 0.7441 0.9283   -0.59997
 O 0.5702 0.4897 0.1145   -0.684537
 O 0.5236 0.2103 0.2791   -0.710187
 O 0.7919 0.42 0.3306   -0.624551
 O 0.5332 0.2559 0.0717   -0.599971
 O 0.5 0.0 0.0   -0.679342
