{'_ref': 'TBD', '_srcid': 'CAKYAQ_clean', 'submitters': [{'name': 'Dalar Nazarian Jeff Camp and David Sholl', 'email': 'dalar@gatech.edu jcamp6@gatech.edu'}], '_method': 'VASP DFT with PBE;DDEC'}
data_CoH10C11N2O5
_symmetry_space_group_name_H-M   'P 1'
_cell_length_a   11.31080000
_cell_length_b   11.31080000
_cell_length_c   25.23800000
_cell_angle_alpha   90.00000000
_cell_angle_beta   90.00000000
_cell_angle_gamma   90.00000000
_symmetry_Int_Tables_number   1
_chemical_formula_structural   CoH10C11N2O5
_chemical_formula_sum   'Co8 H80 C88 N16 O40'
_cell_volume   3228.8032548
_cell_formula_units_Z   8
loop_
 _symmetry_equiv_pos_site_id
 _symmetry_equiv_pos_as_xyz
  1  'x, y, z'
loop_
 _atom_site_label
 _atom_site_fract_x
 _atom_site_fract_y
 _atom_site_fract_z
 _atom_site_charge
 Co 0.5 0.29678 0.0   1.160859
 Co 0.5 0.70322 0.5   1.160859
 Co 0.70322 0.5 0.25   1.160859
 Co 0.29678 0.5 0.75   1.160859
 Co 0.40371 0.40371 0.875   1.139647
 Co 0.59629 0.59629 0.375   1.139647
 Co 0.59629 0.40371 0.125   1.139647
 Co 0.40371 0.59629 0.625   1.139647
 H 0.441 0.5758 0.0387   0.328291
 H 0.3299 0.0521 0.8192   0.105005
 H 0.4198 0.7561 0.9383   0.086323
 H 0.4321 0.9487 0.9629   0.099268
 H 0.3031 0.8596 0.7955   0.107464
 H 0.1782 0.7057 0.9827   0.063091
 H 0.103 0.6146 0.0163   0.062162
 H 0.1885 0.5008 0.9462   0.320983
 H 0.2394 0.6041 0.0787   0.058531
 H 0.2913 0.7213 0.0538   0.070882
 H 0.559 0.4242 0.5387   0.328291
 H 0.6701 0.9479 0.3192   0.105005
 H 0.5802 0.2439 0.4383   0.086323
 H 0.5679 0.0513 0.4629   0.099268
 H 0.6969 0.1404 0.2955   0.107464
 H 0.8218 0.2943 0.4827   0.063091
 H 0.897 0.3854 0.5163   0.062162
 H 0.8115 0.4992 0.4462   0.320983
 H 0.7606 0.3959 0.5787   0.058531
 H 0.7087 0.2787 0.5538   0.070882
 H 0.4242 0.441 0.2887   0.328291
 H 0.9479 0.3299 0.0692   0.105005
 H 0.2439 0.4198 0.1883   0.086323
 H 0.0513 0.4321 0.2129   0.099268
 H 0.1404 0.3031 0.0455   0.107464
 H 0.2943 0.1782 0.2327   0.063091
 H 0.3854 0.103 0.2663   0.062162
 H 0.4992 0.1885 0.1962   0.320983
 H 0.3959 0.2394 0.3287   0.058531
 H 0.2787 0.2913 0.3038   0.070882
 H 0.5758 0.559 0.7887   0.328291
 H 0.0521 0.6701 0.5692   0.105005
 H 0.7561 0.5802 0.6883   0.086323
 H 0.9487 0.5679 0.7129   0.099268
 H 0.8596 0.6969 0.5455   0.107464
 H 0.7057 0.8218 0.7327   0.063091
 H 0.6146 0.897 0.7663   0.062162
 H 0.5008 0.8115 0.6962   0.320983
 H 0.6041 0.7606 0.8287   0.058531
 H 0.7213 0.7087 0.8038   0.070882
 H 0.559 0.5758 0.9613   0.32829
 H 0.6701 0.0521 0.1808   0.105004
 H 0.5802 0.7561 0.0617   0.086323
 H 0.5679 0.9487 0.0371   0.099268
 H 0.6969 0.8596 0.2045   0.107464
 H 0.8218 0.7057 0.0173   0.063091
 H 0.897 0.6146 0.9837   0.062163
 H 0.8115 0.5008 0.0538   0.320983
 H 0.7606 0.6041 0.9213   0.058532
 H 0.7087 0.7213 0.9462   0.070882
 H 0.441 0.4242 0.4613   0.32829
 H 0.3299 0.9479 0.6808   0.105004
 H 0.4198 0.2439 0.5617   0.086323
 H 0.4321 0.0513 0.5371   0.099268
 H 0.3031 0.1404 0.7045   0.107464
 H 0.1782 0.2943 0.5173   0.063091
 H 0.103 0.3854 0.4837   0.062163
 H 0.1885 0.4992 0.5538   0.320983
 H 0.2394 0.3959 0.4213   0.058532
 H 0.2913 0.2787 0.4462   0.070882
 H 0.5758 0.441 0.7113   0.32829
 H 0.0521 0.3299 0.9308   0.105004
 H 0.7561 0.4198 0.8117   0.086323
 H 0.9487 0.4321 0.7871   0.099268
 H 0.8596 0.3031 0.9545   0.107464
 H 0.7057 0.1782 0.7673   0.063091
 H 0.6146 0.103 0.7337   0.062163
 H 0.5008 0.1885 0.8038   0.320983
 H 0.6041 0.2394 0.6713   0.058532
 H 0.7213 0.2913 0.6962   0.070882
 H 0.4242 0.559 0.2113   0.32829
 H 0.9479 0.6701 0.4308   0.105004
 H 0.2439 0.5802 0.3117   0.086323
 H 0.0513 0.5679 0.2871   0.099268
 H 0.1404 0.6969 0.4545   0.107464
 H 0.2943 0.8218 0.2673   0.063091
 H 0.3854 0.897 0.2337   0.062163
 H 0.4992 0.8115 0.3038   0.320983
 H 0.3959 0.7606 0.1713   0.058532
 H 0.2787 0.7087 0.1962   0.070882
 C 0.3373 0.5088 0.9845   0.728975
 C 0.3845 0.0203 0.8944   -0.110235
 C 0.3617 0.7852 0.8635   -0.123507
 C 0.3461 0.9921 0.8434   -0.085399
 C 0.4001 0.8152 0.9142   -0.085097
 C 0.3551 0.6597 0.8463   0.658258
 C 0.4088 0.9305 0.9286   -0.059297
 C 0.3325 0.8773 0.829   -0.067069
 C 0.1813 0.6326 0.0028   0.051478
 C 0.4023 0.1471 0.9105   0.676577
 C 0.2698 0.6398 0.0465   0.061982
 C 0.6627 0.4912 0.4845   0.728975
 C 0.6155 0.9797 0.3944   -0.110235
 C 0.6383 0.2148 0.3635   -0.123507
 C 0.6539 0.0079 0.3434   -0.085399
 C 0.5999 0.1848 0.4142   -0.085097
 C 0.6449 0.3403 0.3463   0.658258
 C 0.5912 0.0695 0.4286   -0.059297
 C 0.6675 0.1227 0.329   -0.067069
 C 0.8187 0.3674 0.5028   0.051478
 C 0.5977 0.8529 0.4105   0.676577
 C 0.7302 0.3602 0.5465   0.061982
 C 0.4912 0.3373 0.2345   0.728975
 C 0.9797 0.3845 0.1444   -0.110235
 C 0.2148 0.3617 0.1135   -0.123507
 C 0.0079 0.3461 0.0934   -0.085399
 C 0.1848 0.4001 0.1642   -0.085097
 C 0.3403 0.3551 0.0963   0.658258
 C 0.0695 0.4088 0.1786   -0.059297
 C 0.1227 0.3325 0.079   -0.067069
 C 0.3674 0.1813 0.2528   0.051478
 C 0.8529 0.4023 0.1605   0.676577
 C 0.3602 0.2698 0.2965   0.061982
 C 0.5088 0.6627 0.7345   0.728975
 C 0.0203 0.6155 0.6444   -0.110235
 C 0.7852 0.6383 0.6135   -0.123507
 C 0.9921 0.6539 0.5934   -0.085399
 C 0.8152 0.5999 0.6642   -0.085097
 C 0.6597 0.6449 0.5963   0.658258
 C 0.9305 0.5912 0.6786   -0.059297
 C 0.8773 0.6675 0.579   -0.067069
 C 0.6326 0.8187 0.7528   0.051478
 C 0.1471 0.5977 0.6605   0.676577
 C 0.6398 0.7302 0.7965   0.061982
 C 0.6627 0.5088 0.0155   0.728975
 C 0.6155 0.0203 0.1056   -0.110235
 C 0.6383 0.7852 0.1365   -0.123507
 C 0.6539 0.9921 0.1566   -0.0854
 C 0.5999 0.8152 0.0858   -0.085097
 C 0.6449 0.6597 0.1537   0.658258
 C 0.5912 0.9305 0.0714   -0.059297
 C 0.6675 0.8773 0.171   -0.067068
 C 0.8187 0.6326 0.9972   0.051478
 C 0.5977 0.1471 0.0895   0.676577
 C 0.7302 0.6398 0.9535   0.061982
 C 0.3373 0.4912 0.5155   0.728975
 C 0.3845 0.9797 0.6056   -0.110235
 C 0.3617 0.2148 0.6365   -0.123507
 C 0.3461 0.0079 0.6566   -0.0854
 C 0.4001 0.1848 0.5858   -0.085097
 C 0.3551 0.3403 0.6537   0.658258
 C 0.4088 0.0695 0.5714   -0.059297
 C 0.3325 0.1227 0.671   -0.067068
 C 0.1813 0.3674 0.4972   0.051478
 C 0.4023 0.8529 0.5895   0.676577
 C 0.2698 0.3602 0.4535   0.061982
 C 0.5088 0.3373 0.7655   0.728975
 C 0.0203 0.3845 0.8556   -0.110235
 C 0.7852 0.3617 0.8865   -0.123507
 C 0.9921 0.3461 0.9066   -0.0854
 C 0.8152 0.4001 0.8358   -0.085097
 C 0.6597 0.3551 0.9037   0.658258
 C 0.9305 0.4088 0.8214   -0.059297
 C 0.8773 0.3325 0.921   -0.067068
 C 0.6326 0.1813 0.7472   0.051478
 C 0.1471 0.4023 0.8395   0.676577
 C 0.6398 0.2698 0.7035   0.061982
 C 0.4912 0.6627 0.2655   0.728975
 C 0.9797 0.6155 0.3556   -0.110235
 C 0.2148 0.6383 0.3865   -0.123507
 C 0.0079 0.6539 0.4066   -0.0854
 C 0.1848 0.5999 0.3358   -0.085097
 C 0.3403 0.6449 0.4037   0.658258
 C 0.0695 0.5912 0.3214   -0.059297
 C 0.1227 0.6675 0.421   -0.067068
 C 0.3674 0.8187 0.2472   0.051478
 C 0.8529 0.5977 0.3395   0.676577
 C 0.3602 0.7302 0.2035   0.061982
 N 0.3705 0.5734 0.0259   -0.498345
 N 0.2275 0.5359 0.9709   -0.469781
 N 0.6295 0.4266 0.5259   -0.498345
 N 0.7725 0.4641 0.4709   -0.469781
 N 0.4266 0.3705 0.2759   -0.498345
 N 0.4641 0.2275 0.2209   -0.469781
 N 0.5734 0.6295 0.7759   -0.498345
 N 0.5359 0.7725 0.7209   -0.469781
 N 0.6295 0.5734 0.9741   -0.498345
 N 0.7725 0.5359 0.0291   -0.469781
 N 0.3705 0.4266 0.4741   -0.498345
 N 0.2275 0.4641 0.5291   -0.469781
 N 0.5734 0.3705 0.7241   -0.498345
 N 0.5359 0.2275 0.7791   -0.469781
 N 0.4266 0.6295 0.2241   -0.498345
 N 0.4641 0.7725 0.2791   -0.469781
 O 0.4099 0.5853 0.8749   -0.626964
 O 0.4046 0.224 0.8747   -0.622239
 O 0.4125 0.1671 0.9597   -0.592725
 O 0.4019 0.4342 0.9609   -0.684543
 O 0.2996 0.6361 0.8048   -0.604321
 O 0.5901 0.4147 0.3749   -0.626964
 O 0.5954 0.776 0.3747   -0.622239
 O 0.5875 0.8329 0.4597   -0.592725
 O 0.5981 0.5658 0.4609   -0.684543
 O 0.7004 0.3639 0.3048   -0.604321
 O 0.4147 0.4099 0.1249   -0.626964
 O 0.776 0.4046 0.1247   -0.622239
 O 0.8329 0.4125 0.2097   -0.592725
 O 0.5658 0.4019 0.2109   -0.684543
 O 0.3639 0.2996 0.0548   -0.604321
 O 0.5853 0.5901 0.6249   -0.626964
 O 0.224 0.5954 0.6247   -0.622239
 O 0.1671 0.5875 0.7097   -0.592725
 O 0.4342 0.5981 0.7109   -0.684543
 O 0.6361 0.7004 0.5548   -0.604321
 O 0.5901 0.5853 0.1251   -0.626964
 O 0.5954 0.224 0.1253   -0.622239
 O 0.5875 0.1671 0.0403   -0.592725
 O 0.5981 0.4342 0.0391   -0.684543
 O 0.7004 0.6361 0.1952   -0.604321
 O 0.4099 0.4147 0.6251   -0.626964
 O 0.4046 0.776 0.6253   -0.622239
 O 0.4125 0.8329 0.5403   -0.592725
 O 0.4019 0.5658 0.5391   -0.684543
 O 0.2996 0.3639 0.6952   -0.604321
 O 0.5853 0.4099 0.8751   -0.626964
 O 0.224 0.4046 0.8753   -0.622239
 O 0.1671 0.4125 0.7903   -0.592725
 O 0.4342 0.4019 0.7891   -0.684543
 O 0.6361 0.2996 0.9452   -0.604321
 O 0.4147 0.5901 0.3751   -0.626964
 O 0.776 0.5954 0.3753   -0.622239
 O 0.8329 0.5875 0.2903   -0.592725
 O 0.5658 0.5981 0.2891   -0.684543
 O 0.3639 0.7004 0.4452   -0.604321
