{'_ref': 'TBD', '_srcid': 'CAKYAQ_clean', 'submitters': [{'name': 'Dalar Nazarian Jeff Camp and David Sholl', 'email': 'dalar@gatech.edu jcamp6@gatech.edu'}], '_method': 'VASP DFT with PBE;DDEC'}
data_CoH6(C3N2)2
_symmetry_space_group_name_H-M   'P 1'
_cell_length_a   9.08099952
_cell_length_b   9.91790019
_cell_length_c   14.57810000
_cell_angle_alpha   81.80230273
_cell_angle_beta   71.85270205
_cell_angle_gamma   62.75440019
_symmetry_Int_Tables_number   1
_chemical_formula_structural   CoH6(C3N2)2
_chemical_formula_sum   'Co4 H24 C24 N16'
_cell_volume   1109.23505838
_cell_formula_units_Z   4
loop_
 _symmetry_equiv_pos_site_id
 _symmetry_equiv_pos_as_xyz
  1  'x, y, z'
loop_
 _atom_site_label
 _atom_site_fract_x
 _atom_site_fract_y
 _atom_site_fract_z
 _atom_site_charge
 Co 0.59239 0.57008 0.87396   0.790887
 Co 0.03643 0.42992 0.12604   0.792262
 Co 0.21635 0.07008 0.62604   0.792779
 Co 0.91247 0.92992 0.37396   0.793204
 H 0.8464 0.2424 0.7702   0.059682
 H 0.171 0.4092 0.6388   0.095034
 H 0.9228 0.604 0.7418   0.092928
 H 0.8986 0.4632 0.953   0.042214
 H 0.6143 0.6508 0.202   0.089783
 H 0.4274 0.7086 0.0986   0.091698
 H 0.859 0.7576 0.2298   0.060218
 H 0.219 0.5908 0.3612   0.093552
 H 0.2686 0.396 0.2582   0.093265
 H 0.3148 0.5368 0.047   0.042962
 H 0.4671 0.3492 0.798   0.089566
 H 0.2346 0.2914 0.9014   0.092749
 H 0.3666 0.7424 0.7298   0.05864
 H 0.5598 0.9092 0.8612   0.094986
 H 0.4146 0.104 0.7582   0.09292
 H 0.6016 0.9632 0.547   0.043387
 H 0.5663 0.1508 0.298   0.090305
 H 0.276 0.2086 0.4014   0.091055
 H 0.8388 0.2576 0.2702   0.060371
 H 0.3302 0.0908 0.1388   0.095913
 H 0.2768 0.896 0.2418   0.093035
 H 0.1118 0.0368 0.453   0.042313
 H 0.0151 0.8492 0.702   0.089654
 H 0.886 0.7914 0.5986   0.091663
 C 0.89593 0.3094 0.74954   0.254575
 C 0.074 0.399 0.678   -0.010899
 C 0.9367 0.5068 0.7346   -0.018137
 C 0.8032 0.519 0.0026   0.260529
 C 0.6507 0.6192 0.1384   -0.003147
 C 0.5467 0.6524 0.0812   -0.032268
 C 0.95487 0.6906 0.25046   0.25627
 C 0.151 0.601 0.322   -0.009898
 C 0.1781 0.4932 0.2654   -0.017109
 C 0.3248 0.481 0.9974   0.258215
 C 0.4083 0.3808 0.8616   -0.002855
 C 0.2803 0.3476 0.9188   -0.032988
 C 0.39547 0.8094 0.75046   0.257993
 C 0.502 0.899 0.822   -0.011502
 C 0.4213 0.0068 0.7654   -0.016066
 C 0.5558 0.019 0.4974   0.259042
 C 0.5391 0.1192 0.3616   -0.004106
 C 0.3779 0.1524 0.4188   -0.032649
 C 0.95533 0.1906 0.24954   0.253071
 C 0.223 0.101 0.178   -0.011188
 C 0.1935 0.9932 0.2346   -0.019573
 C 0.0722 0.981 0.5026   0.259585
 C 0.0199 0.8808 0.6384   -0.004007
 C 0.9491 0.8476 0.5812   -0.030703
 N 0.81826 0.4516 0.78068   -0.432608
 N 0.04962 0.2714 0.68676   -0.429721
 N 0.64836 0.589 0.99288   -0.411774
 N 0.81504 0.5332 0.08932   -0.440006
 N 0.05054 0.5484 0.21932   -0.43526
 N 0.00778 0.7286 0.31324   -0.430842
 N 0.23024 0.411 0.00712   -0.410663
 N 0.43756 0.4668 0.91068   -0.439251
 N 0.34894 0.9516 0.71932   -0.43644
 N 0.48638 0.7714 0.81324   -0.429803
 N 0.39124 0.089 0.50712   -0.410623
 N 0.65436 0.0332 0.41068   -0.439475
 N 0.01986 0.0484 0.28068   -0.432642
 N 0.07102 0.2286 0.18676   -0.428341
 N 0.98736 0.911 0.49288   -0.411354
 N 0.09824 0.9668 0.58932   -0.440409
