{'_ref': 'TBD', '_srcid': 'CAKYAQ_clean', 'submitters': [{'name': 'Dalar Nazarian Jeff Camp and David Sholl', 'email': 'dalar@gatech.edu jcamp6@gatech.edu'}], '_method': 'VASP DFT with PBE;DDEC'}
data_CoH6(C3N2)2
_symmetry_space_group_name_H-M   'P 1'
_cell_length_a   8.88300024
_cell_length_b   9.93550024
_cell_length_c   14.50520000
_cell_angle_alpha   82.13259811
_cell_angle_beta   72.16990224
_cell_angle_gamma   63.44660083
_symmetry_Int_Tables_number   1
_chemical_formula_structural   CoH6(C3N2)2
_chemical_formula_sum   'Co4 H24 C24 N16'
_cell_volume   1090.14667739
_cell_formula_units_Z   4
loop_
 _symmetry_equiv_pos_site_id
 _symmetry_equiv_pos_as_xyz
  1  'x, y, z'
loop_
 _atom_site_label
 _atom_site_fract_x
 _atom_site_fract_y
 _atom_site_fract_z
 _atom_site_charge
 Co 0.025 0.58116 0.87242   0.78411
 Co 0.47858 0.41884 0.12758   0.784257
 Co 0.14742 0.08116 0.62758   0.785
 Co 0.85616 0.91884 0.37242   0.783018
 H 0.7347 0.4728 0.9504   0.047852
 H 0.8252 0.714 0.0986   0.088095
 H 0.6033 0.6484 0.2012   0.083706
 H 0.2045 0.257 0.7684   0.05963
 H 0.7975 0.616 0.732   0.087076
 H 0.8416 0.4178 0.633   0.099035
 H 0.1579 0.5272 0.0496   0.048126
 H 0.6378 0.286 0.9014   0.087879
 H 0.4529 0.3516 0.7988   0.083965
 H 0.2299 0.743 0.2316   0.060498
 H 0.1455 0.384 0.268   0.086355
 H 0.8924 0.5822 0.367   0.098435
 H 0.9351 0.9728 0.5496   0.048336
 H 0.1738 0.214 0.4014   0.087588
 H 0.0545 0.1484 0.2988   0.083766
 H 0.2229 0.757 0.7316   0.06234
 H 0.7795 0.116 0.768   0.087015
 H 0.7246 0.9178 0.867   0.09975
 H 0.4575 0.0272 0.4504   0.048221
 H 0.7892 0.786 0.5986   0.085599
 H 0.5017 0.8516 0.7012   0.083934
 H 0.7115 0.243 0.2684   0.060665
 H 0.6635 0.884 0.232   0.087804
 H 0.5094 0.0822 0.133   0.098702
 C 0.7322 0.522 0.0012   0.252647
 C 0.7807 0.6556 0.081   0.001972
 C 0.6609 0.6176 0.1372   -0.005463
 C 0.1091 0.323 0.7462   0.248952
 C 0.8865 0.5188 0.7274   -0.00413
 C 0.9112 0.41 0.672   -0.023649
 C 0.2554 0.478 0.9988   0.253215
 C 0.5173 0.3444 0.919   0.001835
 C 0.4157 0.3824 0.8628   -0.00536
 C 0.1783 0.677 0.2538   0.24738
 C 0.1327 0.4812 0.2726   -0.003925
 C 0.9932 0.59 0.328   -0.02139
 C 0.9834 0.022 0.4988   0.251594
 C 0.1117 0.1556 0.419   0.002664
 C 0.0481 0.1176 0.3628   -0.005596
 C 0.1053 0.823 0.7538   0.245252
 C 0.8639 0.0188 0.7726   -0.003782
 C 0.8332 0.91 0.828   -0.023634
 C 0.5042 0.978 0.5012   0.252531
 C 0.6863 0.8444 0.581   0.006156
 C 0.5285 0.8824 0.6372   -0.006942
 C 0.6821 0.177 0.2462   0.248432
 C 0.6553 0.9812 0.2274   -0.006466
 C 0.5712 0.09 0.172   -0.020937
 N 0.8299 0.5954 0.9926   -0.430238
 N 0.6307 0.527 0.0904   -0.433337
 N 0.0108 0.4666 0.7764   -0.434709
 N 0.05624 0.2854 0.68232   -0.421905
 N 0.4179 0.4046 0.0074   -0.431356
 N 0.2481 0.473 0.9096   -0.433183
 N 0.2538 0.5334 0.2236   -0.434666
 N 0.02396 0.7146 0.31768   -0.421823
 N 0.0725 0.0954 0.5074   -0.430247
 N 0.9711 0.027 0.4096   -0.432824
 N 0.0372 0.9666 0.7236   -0.434947
 N 0.98856 0.7854 0.81768   -0.42146
 N 0.6753 0.9046 0.4926   -0.43152
 N 0.4077 0.973 0.5904   -0.43289
 N 0.7274 0.0334 0.2764   -0.434043
 N 0.59164 0.2146 0.18232   -0.422964
