{'_ref': 'TBD', '_srcid': 'CAKYAQ_clean', 'submitters': [{'name': 'Dalar Nazarian Jeff Camp and David Sholl', 'email': 'dalar@gatech.edu jcamp6@gatech.edu'}], '_method': 'VASP DFT with PBE;DDEC'}
data_CdH8C14(SN2)3
_symmetry_space_group_name_H-M   'P 1'
_cell_length_a   7.35800037
_cell_length_b   9.99700006
_cell_length_c   15.05780000
_cell_angle_alpha   109.38699814
_cell_angle_beta   98.49800252
_cell_angle_gamma   89.99999922
_symmetry_Int_Tables_number   1
_chemical_formula_structural   CdH8C14(SN2)3
_chemical_formula_sum   'Cd2 H16 C28 S6 N12'
_cell_volume   1031.91591083
_cell_formula_units_Z   2
loop_
 _symmetry_equiv_pos_site_id
 _symmetry_equiv_pos_as_xyz
  1  'x, y, z'
loop_
 _atom_site_label
 _atom_site_fract_x
 _atom_site_fract_y
 _atom_site_fract_z
 _atom_site_charge
 Cd 0.0 0.5 0.5   0.815825
 Cd 0.5 0.0 0.5   0.816242
 H 0.8238 0.4744 0.6764   0.07965
 H 0.7597 0.5949 0.8254   0.128283
 H 0.8762 0.9582 0.784   0.128977
 H 0.9438 0.8269 0.637   0.074319
 H 0.6762 0.798 0.3236   0.078946
 H 0.7403 0.7695 0.1746   0.127135
 H 0.6238 0.1742 0.216   0.129624
 H 0.5562 0.1899 0.363   0.073131
 H 0.1762 0.5256 0.3236   0.079648
 H 0.2403 0.4051 0.1746   0.128279
 H 0.1238 0.0418 0.216   0.128976
 H 0.0562 0.1731 0.363   0.074319
 H 0.3238 0.202 0.6764   0.078944
 H 0.2597 0.2305 0.8254   0.12713
 H 0.3762 0.8258 0.784   0.129623
 H 0.4438 0.8101 0.637   0.073131
 C 0.839 0.57299 0.69918   0.179468
 C 0.7986 0.64464 0.78868   -0.196332
 C 0.8167 0.79181 0.82342   0.079473
 C 0.8682 0.85958 0.76456   -0.172889
 C 0.9084 0.77942 0.67584   0.18069
 C 0.7799 0.87035 0.9205   0.156777
 C 0.6065 0.65007 0.44314   0.351708
 C 0.661 0.87381 0.30082   0.178411
 C 0.7014 0.85596 0.21132   -0.193674
 C 0.6833 0.96839 0.17658   0.080145
 C 0.6318 0.09502 0.23544   -0.1747
 C 0.5916 0.10358 0.32416   0.182764
 C 0.7201 0.94985 0.0795   0.155948
 C 0.8935 0.20693 0.55686   0.352983
 C 0.161 0.42701 0.30082   0.179468
 C 0.2014 0.35536 0.21132   -0.196331
 C 0.1833 0.20819 0.17658   0.079473
 C 0.1318 0.14042 0.23544   -0.172887
 C 0.0916 0.22058 0.32416   0.180691
 C 0.2201 0.12965 0.0795   0.156777
 C 0.3935 0.34993 0.55686   0.351708
 C 0.339 0.12619 0.69918   0.178411
 C 0.2986 0.14404 0.78868   -0.193673
 C 0.3167 0.03161 0.82342   0.080145
 C 0.3682 0.90498 0.76456   -0.174697
 C 0.4084 0.89642 0.67584   0.182765
 C 0.2799 0.05015 0.9205   0.155948
 C 0.1065 0.79307 0.44314   0.352983
 S 0.65913 0.48379 0.39684   -0.39751
 S 0.84087 0.08695 0.60316   -0.398535
 S 0.34087 0.51621 0.60316   -0.397508
 S 0.15913 0.91305 0.39684   -0.398534
 S 0.75 0.78587 0.0   0.057451
 S 0.25 0.21413 0.0   0.057462
 N 0.8987 0.63745 0.6433   -0.315025
 N 0.7671 0.00685 0.9537   -0.217003
 N 0.5704 0.76649 0.47518   -0.496334
 N 0.6013 0.99415 0.3567   -0.315142
 N 0.7329 0.05315 0.0463   -0.217877
 N 0.9296 0.29131 0.52482   -0.496904
 N 0.1013 0.36255 0.3567   -0.315025
 N 0.2329 0.99315 0.0463   -0.217002
 N 0.4296 0.23351 0.52482   -0.496334
 N 0.3987 0.00585 0.6433   -0.315142
 N 0.2671 0.94685 0.9537   -0.217877
 N 0.0704 0.70869 0.47518   -0.496903
