{'_ref': 'TBD', '_srcid': 'CAKYAQ_clean', 'submitters': [{'name': 'Dalar Nazarian Jeff Camp and David Sholl', 'email': 'dalar@gatech.edu jcamp6@gatech.edu'}], '_method': 'VASP DFT with PBE;DDEC'}
data_Co3H20(C7O4)4
_symmetry_space_group_name_H-M   'P 1'
_cell_length_a   9.97799995
_cell_length_b   11.22300003
_cell_length_c   11.28300000
_cell_angle_alpha   102.25999912
_cell_angle_beta   113.51999971
_cell_angle_gamma   92.72999978
_symmetry_Int_Tables_number   1
_chemical_formula_structural   Co3H20(C7O4)4
_chemical_formula_sum   'Co3 H20 C28 O16'
_cell_volume   1119.69029386
_cell_formula_units_Z   1
loop_
 _symmetry_equiv_pos_site_id
 _symmetry_equiv_pos_as_xyz
  1  'x, y, z'
loop_
 _atom_site_label
 _atom_site_fract_x
 _atom_site_fract_y
 _atom_site_fract_z
 _atom_site_charge
 Co 0.16449 0.31664 0.24362   1.148682
 Co 0.83551 0.68336 0.75638   1.14869
 Co 0.5 0.5 0.5   1.047679
 H 0.3264 0.8223 0.391   0.106067
 H 0.7243 0.9953 0.677   0.110154
 H 0.1759 0.597 0.5087   0.082157
 H 0.2057 0.6166 0.3871   0.078128
 H 0.9528 0.5749 0.3149   0.081328
 H 0.9675 0.4556 0.3683   0.072063
 H 0.1665 0.1642 0.674   0.108406
 H 0.9073 0.0138 0.2761   0.113236
 H 0.3548 0.416 0.7687   0.11496
 H 0.7312 0.6217 0.0741   0.109236
 H 0.6736 0.1777 0.609   0.106066
 H 0.2757 0.0047 0.323   0.110157
 H 0.8241 0.403 0.4913   0.08215
 H 0.7943 0.3834 0.6129   0.078128
 H 0.0472 0.4251 0.6851   0.081323
 H 0.0325 0.5444 0.6317   0.072054
 H 0.8335 0.8358 0.326   0.108417
 H 0.0927 0.9862 0.7239   0.113259
 H 0.6452 0.584 0.2313   0.114956
 H 0.2688 0.3783 0.9259   0.109234
 C 0.3998 0.8969 0.4373   -0.058234
 C 0.6301 0.9964 0.6029   -0.060534
 C 0.5295 0.8926 0.5404   -0.097551
 C 0.5631 0.7748 0.5809   0.702345
 C 0.1685 0.5563 0.4209   0.087235
 C 0.009 0.507 0.3285   0.084288
 C 0.0937 0.2188 0.4385   0.629268
 C 0.043 0.1056 0.4699   -0.112518
 C 0.0973 0.0961 0.6018   -0.073843
 C 0.9458 0.0082 0.3691   -0.062655
 C 0.6038 0.5462 0.806   0.697042
 C 0.5522 0.5212 0.9077   -0.0997
 C 0.4153 0.4505 0.8644   -0.062007
 C 0.6353 0.5708 0.0432   -0.057302
 C 0.6002 0.1031 0.5627   -0.058209
 C 0.3699 0.0036 0.3971   -0.060508
 C 0.4705 0.1074 0.4596   -0.097557
 C 0.4369 0.2252 0.4191   0.702345
 C 0.8315 0.4437 0.5791   0.087236
 C 0.991 0.493 0.6715   0.08429
 C 0.9063 0.7812 0.5615   0.629266
 C 0.957 0.8944 0.5301   -0.112521
 C 0.9027 0.9039 0.3982   -0.073834
 C 0.0542 0.9918 0.6309   -0.062644
 C 0.3962 0.4538 0.194   0.697042
 C 0.4478 0.4788 0.0923   -0.0997
 C 0.5847 0.5495 0.1356   -0.062009
 C 0.3647 0.4292 0.9568   -0.057299
 O 0.4822 0.6778 0.5008   -0.511427
 O 0.5087 0.5247 0.6888   -0.510816
 O 0.2566 0.4575 0.4315   -0.467889
 O 0.999 0.436 0.2026   -0.44862
 O 0.1796 0.3052 0.5344   -0.444471
 O 0.0483 0.2191 0.3167   -0.589675
 O 0.7391 0.5878 0.8471   -0.588161
 O 0.6692 0.783 0.6923   -0.603067
 O 0.5178 0.3222 0.4992   -0.511428
 O 0.4913 0.4753 0.3112   -0.510816
 O 0.7434 0.5425 0.5685   -0.467889
 O 0.000999999999998 0.564 0.7974   -0.448623
 O 0.8204 0.6948 0.4656   -0.444471
 O 0.9517 0.7809 0.6833   -0.589676
 O 0.2609 0.4122 0.1529   -0.588163
 O 0.3308 0.217 0.3077   -0.603067
