{'_ref': 'TBD', '_srcid': 'CAKYAQ_clean', 'submitters': [{'name': 'Dalar Nazarian Jeff Camp and David Sholl', 'email': 'dalar@gatech.edu jcamp6@gatech.edu'}], '_method': 'VASP DFT with PBE;DDEC'}
data_LaH5(C4O3)3
_symmetry_space_group_name_H-M   'P 1'
_cell_length_a   10.53399962
_cell_length_b   11.30000036
_cell_length_c   12.66100000
_cell_angle_alpha   101.90099817
_cell_angle_beta   108.72999953
_cell_angle_gamma   99.04399983
_symmetry_Int_Tables_number   1
_chemical_formula_structural   LaH5(C4O3)3
_chemical_formula_sum   'La2 H10 C24 O18'
_cell_volume   1355.40602705
_cell_formula_units_Z   2
loop_
 _symmetry_equiv_pos_site_id
 _symmetry_equiv_pos_as_xyz
  1  'x, y, z'
loop_
 _atom_site_label
 _atom_site_fract_x
 _atom_site_fract_y
 _atom_site_fract_z
 _atom_site_charge
 La 0.8968 0.4556 0.31768   2.134146
 La 0.1032 0.5444 0.68232   2.134146
 H 0.0739 0.8775 0.7066   0.396601
 H 0.7381 0.6058 0.7448   0.413289
 H 0.8141 0.0867 0.0573   0.412827
 H 0.9858 0.8565 0.3367   0.129182
 H 0.5997 0.4377 0.3677   0.115237
 H 0.9261 0.1225 0.2934   0.396601
 H 0.2619 0.3942 0.2552   0.413289
 H 0.1859 0.9133 0.9427   0.412827
 H 0.0142 0.1435 0.6633   0.129183
 H 0.4003 0.5623 0.6323   0.115237
 C 0.0319 0.9701 0.6063   0.326619
 C 0.0229 0.8827 0.5058   -0.270293
 C 0.9915 0.9147 0.4028   -0.14036
 C 0.0414 0.7537 0.5071   0.809427
 C 0.582 0.5511 0.6177   0.332861
 C 0.6433 0.5144 0.5371   -0.265892
 C 0.5593 0.4632 0.4211   -0.123065
 C 0.7938 0.5311 0.573   0.791172
 C 0.6375 0.018 0.0125   0.294713
 C 0.593 0.1106 0.0732   -0.280471
 C 0.4541 0.0922 0.0593   0.002274
 C 0.6955 0.2289 0.1497   0.727317
 C 0.9681 0.0299 0.3937   0.326608
 C 0.9771 0.1173 0.4942   -0.27029
 C 0.0085 0.0853 0.5972   -0.140373
 C 0.9586 0.2463 0.4929   0.809426
 C 0.418 0.4489 0.3823   0.332858
 C 0.3567 0.4856 0.4629   -0.265892
 C 0.4407 0.5368 0.5789   -0.123068
 C 0.2062 0.4689 0.427   0.791172
 C 0.3625 0.982 0.9875   0.294714
 C 0.407 0.8894 0.9268   -0.28047
 C 0.5459 0.9078 0.9407   0.002273
 C 0.3045 0.7711 0.8503   0.727317
 O 0.016 0.6772 0.4125   -0.751718
 O 0.0813 0.7312 0.605   -0.693516
 O 0.0624 0.9483 0.7115   -0.506676
 O 0.8493 0.5065 0.4989   -0.798471
 O 0.867 0.5687 0.6797   -0.674812
 O 0.6559 0.6012 0.7324   -0.508579
 O 0.8144 0.2515 0.1489   -0.686934
 O 0.6555 0.3059 0.2135   -0.700719
 O 0.7623 0.0196 0.0155   -0.484145
 O 0.984 0.3228 0.5875   -0.751718
 O 0.9187 0.2688 0.395   -0.693516
 O 0.9376 0.0517 0.2885   -0.506676
 O 0.1507 0.4935 0.5011   -0.798471
 O 0.133 0.4313 0.3203   -0.674812
 O 0.3441 0.3988 0.2676   -0.50858
 O 0.1856 0.7485 0.8511   -0.686934
 O 0.3445 0.6941 0.7865   -0.700719
 O 0.2377 0.9804 0.9845   -0.484146
