{'_ref': 'TBD', '_srcid': 'CAKYAQ_clean', 'submitters': [{'name': 'Dalar Nazarian Jeff Camp and David Sholl', 'email': 'dalar@gatech.edu jcamp6@gatech.edu'}], '_method': 'VASP DFT with PBE;DDEC'}
data_LaH2(C4O3)3
_symmetry_space_group_name_H-M   'P 1'
_cell_length_a   10.43400039
_cell_length_b   11.16299963
_cell_length_c   12.42200000
_cell_angle_alpha   102.67599823
_cell_angle_beta   106.31300162
_cell_angle_gamma   99.41499917
_symmetry_Int_Tables_number   1
_chemical_formula_structural   LaH2(C4O3)3
_chemical_formula_sum   'La2 H4 C24 O18'
_cell_volume   1314.98278993
_cell_formula_units_Z   2
loop_
 _symmetry_equiv_pos_site_id
 _symmetry_equiv_pos_as_xyz
  1  'x, y, z'
loop_
 _atom_site_label
 _atom_site_fract_x
 _atom_site_fract_y
 _atom_site_fract_z
 _atom_site_charge
 La 0.40366 0.45694 0.81635   2.132564
 La 0.59634 0.54306 0.18365   2.132568
 H 0.11 0.4458 0.8673   0.11034
 H 0.4889 0.8532 0.8318   0.137662
 H 0.89 0.5542 0.1327   0.110309
 H 0.5111 0.1468 0.1682   0.137661
 C 0.1407 0.0115 0.5149   0.067618
 C 0.0743 0.5494 0.1187   0.339713
 C 0.957 0.0995 0.5572   0.329895
 C 0.0652 0.4682 0.9209   -0.055047
 C 0.0953 0.1114 0.5723   -0.192764
 C 0.5287 0.8831 0.0065   -0.202637
 C 0.2947 0.5386 0.078   0.755446
 C 0.1432 0.5188 0.0395   -0.192316
 C 0.198 0.2301 0.6456   0.699441
 C 0.5559 0.7564 0.0082   0.766966
 C 0.4935 0.9125 0.8993   -0.080853
 C 0.5342 0.9725 0.1077   0.345022
 C 0.8593 0.9885 0.4851   0.067625
 C 0.9257 0.4506 0.8813   0.339956
 C 0.043 0.9005 0.4428   0.329911
 C 0.9348 0.5318 0.0791   -0.054766
 C 0.9047 0.8886 0.4277   -0.192767
 C 0.4713 0.1169 0.9935   -0.202636
 C 0.7053 0.4614 0.922   0.755461
 C 0.8568 0.4812 0.9605   -0.192397
 C 0.802 0.7699 0.3544   0.699442
 C 0.4441 0.2436 0.9918   0.766977
 C 0.5065 0.0875 0.1007   -0.080848
 C 0.4658 0.0275 0.8923   0.345025
 O 0.1426 0.5978 0.2365   -0.291466
 O 0.5388 0.6771 0.9124   -0.745011
 O 0.5964 0.7335 0.1076   -0.623008
 O 0.3219 0.246 0.6482   -0.629652
 O 0.1604 0.3158 0.708   -0.676133
 O 0.5687 0.9527 0.2162   -0.315396
 O 0.3557 0.5187 0.0023   -0.813019
 O 0.362 0.5763 0.1857   -0.587781
 O 0.8991 0.1906 0.6035   -0.279816
 O 0.8574 0.4022 0.7635   -0.291472
 O 0.4612 0.3229 0.0876   -0.745012
 O 0.4036 0.2665 0.8924   -0.623007
 O 0.6781 0.754 0.3518   -0.629649
 O 0.8396 0.6842 0.292   -0.676134
 O 0.4313 0.0473 0.7838   -0.315396
 O 0.6443 0.4813 0.9977   -0.813024
 O 0.638 0.4237 0.8143   -0.587782
 O 0.1009 0.8094 0.3965   -0.279811
