{'_ref': 'TBD', '_srcid': 'CAKYAQ_clean', 'submitters': [{'name': 'Dalar Nazarian Jeff Camp and David Sholl', 'email': 'dalar@gatech.edu jcamp6@gatech.edu'}], '_method': 'VASP DFT with PBE;DDEC'}
data_GdH6(C4O3)3
_symmetry_space_group_name_H-M   'P 1'
_cell_length_a   10.52259992
_cell_length_b   11.05449976
_cell_length_c   12.77110000
_cell_angle_alpha   103.82599814
_cell_angle_beta   110.02400175
_cell_angle_gamma   96.60199842
_symmetry_Int_Tables_number   1
_chemical_formula_structural   GdH6(C4O3)3
_chemical_formula_sum   'Gd2 H12 C24 O18'
_cell_volume   1323.4087017
_cell_formula_units_Z   2
loop_
 _symmetry_equiv_pos_site_id
 _symmetry_equiv_pos_as_xyz
  1  'x, y, z'
loop_
 _atom_site_label
 _atom_site_fract_x
 _atom_site_fract_y
 _atom_site_fract_z
 _atom_site_charge
 Gd 0.89696 0.45217 0.31832   2.15799
 Gd 0.10304 0.54783 0.68168   2.15799
 H 0.0569 0.8743 0.7032   0.403883
 H 0.7517 0.6046 0.7422   0.416194
 H 0.816 0.0835 0.0467   0.419455
 H 0.9982 0.8513 0.3393   0.131172
 H 0.5882 0.4407 0.3576   0.127489
 H 0.441 0.1628 0.1138   0.143386
 H 0.9431 0.1257 0.2968   0.403883
 H 0.2483 0.3954 0.2578   0.416194
 H 0.184 0.9165 0.9533   0.419454
 H 0.0018 0.1487 0.6607   0.131173
 H 0.4118 0.5593 0.6424   0.127488
 H 0.559 0.8372 0.8862   0.143386
 C 0.0235 0.9701 0.6052   0.331071
 C 0.0218 0.8788 0.5066   -0.273867
 C 0.9987 0.9116 0.4042   -0.14419
 C 0.0386 0.7464 0.5072   0.824827
 C 0.589 0.5508 0.6175   0.329202
 C 0.6427 0.5154 0.5307   -0.263313
 C 0.5525 0.4648 0.4149   -0.12692
 C 0.7937 0.5313 0.5611   0.818382
 C 0.6359 0.0116 0.0049   0.316679
 C 0.5999 0.1091 0.0736   -0.240556
 C 0.4645 0.0972 0.0681   -0.139759
 C 0.7047 0.2284 0.1533   0.716141
 C 0.9765 0.0299 0.3948   0.331058
 C 0.9782 0.1212 0.4934   -0.273864
 C 0.0013 0.0884 0.5958   -0.144205
 C 0.9614 0.2536 0.4928   0.824825
 C 0.411 0.4492 0.3825   0.329204
 C 0.3573 0.4846 0.4693   -0.263315
 C 0.4475 0.5352 0.5851   -0.126918
 C 0.2063 0.4687 0.4389   0.818382
 C 0.3641 0.9884 0.9951   0.316681
 C 0.4001 0.8909 0.9264   -0.240557
 C 0.5355 0.9028 0.9319   -0.139759
 C 0.2953 0.7716 0.8467   0.716141
 O 0.0166 0.6663 0.4124   -0.770137
 O 0.0731 0.7255 0.6057   -0.703964
 O 0.045 0.9472 0.7083   -0.509144
 O 0.841 0.5063 0.4824   -0.818503
 O 0.8744 0.57 0.6683   -0.704837
 O 0.6702 0.6015 0.733   -0.514789
 O 0.8245 0.2456 0.1516   -0.70251
 O 0.6707 0.3101 0.2193   -0.705095
 O 0.7649 0.0148 0.0036   -0.518274
 O 0.9834 0.3337 0.5876   -0.770136
 O 0.9269 0.2745 0.3943   -0.703964
 O 0.955 0.0528 0.2917   -0.509143
 O 0.159 0.4937 0.5176   -0.818504
 O 0.1256 0.43 0.3317   -0.704837
 O 0.3298 0.3985 0.267   -0.514789
 O 0.1755 0.7544 0.8484   -0.70251
 O 0.3293 0.6899 0.7807   -0.705095
 O 0.2351 0.9852 0.9964   -0.518273
