{'_ref': 'TBD', '_srcid': 'CAKYAQ_clean', 'submitters': [{'name': 'Dalar Nazarian Jeff Camp and David Sholl', 'email': 'dalar@gatech.edu jcamp6@gatech.edu'}], '_method': 'VASP DFT with PBE;DDEC'}
data_GdH6(C4O3)3
_symmetry_space_group_name_H-M   'P 1'
_cell_length_a   10.41399996
_cell_length_b   10.95399976
_cell_length_c   12.43200000
_cell_angle_alpha   104.28599779
_cell_angle_beta   106.96099787
_cell_angle_gamma   98.02700248
_symmetry_Int_Tables_number   1
_chemical_formula_structural   GdH6(C4O3)3
_chemical_formula_sum   'Gd2 H12 C24 O18'
_cell_volume   1279.8270146
_cell_formula_units_Z   2
loop_
 _symmetry_equiv_pos_site_id
 _symmetry_equiv_pos_as_xyz
  1  'x, y, z'
loop_
 _atom_site_label
 _atom_site_fract_x
 _atom_site_fract_y
 _atom_site_fract_z
 _atom_site_charge
 Gd 0.89352 0.92423 0.80621   2.207366
 Gd 0.09433 0.06687 0.19436   2.179122
 H 0.30459 0.50616 0.19119   0.373301
 H 0.61238 0.05058 0.86156   0.144769
 H 0.78231 0.31828 0.88323   0.147886
 H 0.57622 0.92102 0.24595   0.387174
 H 0.74062 0.63843 0.90202   0.402403
 H 0.37396 0.96142 0.13593   0.11837
 H 0.19879 0.66303 0.13389   0.118796
 H 0.28776 0.13493 0.8165   0.410351
 H 0.43966 0.6566 0.63575   0.144962
 H 0.55992 0.32862 0.35026   0.16325
 H 0.81054 0.6195 0.48929   0.402855
 H 0.21682 0.53324 0.55972   0.396181
 C 0.634 0.51093 0.48721   0.322089
 C 0.4663 0.58626 0.57266   -0.210202
 C 0.70577 0.71909 0.65903   0.680586
 C 0.56444 0.97131 0.09713   0.316041
 C 0.56093 0.02886 0.92105   -0.168687
 C 0.98789 0.21548 0.99206   0.684183
 C 0.99057 0.35723 0.00444   -0.179083
 C 0.10772 0.45784 0.07661   0.309295
 C 0.87461 0.39232 0.93811   -0.18172
 C 0.78579 0.99638 0.04765   0.779953
 C 0.63348 0.99296 0.01807   -0.199495
 C 0.60153 0.60457 0.57095   -0.185725
 C 0.36459 0.47707 0.49483   0.309834
 C 0.53363 0.39943 0.41326   -0.183629
 C 0.29199 0.26826 0.33051   0.700025
 C 0.42525 0.0464 0.90338   0.316421
 C 0.42625 0.98411 0.0773   -0.215081
 C 0.99931 0.7622 0.01391   0.798799
 C 0.99172 0.62259 0.01162   -0.206953
 C 0.87282 0.52183 0.94195   0.320287
 C 0.10694 0.58815 0.07975   -0.218172
 C 0.20087 0.01529 0.95051   0.685789
 C 0.35391 0.02127 0.98079   -0.183378
 C 0.39857 0.38249 0.41462   -0.152804
 O 0.86364 0.03675 0.15389   -0.754856
 O 0.85028 0.97246 0.97512   -0.735557
 O 0.89455 0.13057 0.9031   -0.740265
 O 0.08694 0.18113 0.05924   -0.525782
 O 0.83498 0.72725 0.68317   -0.706929
 O 0.67452 0.81792 0.71744   -0.721449
 O 0.22622 0.42796 0.14238   -0.472345
 O 0.63331 0.93467 0.19459   -0.50427
 O 0.76173 0.52645 0.4706   -0.510147
 O 0.12389 0.97859 0.84392   -0.810451
 O 0.13347 0.03535 0.02202   -0.622866
 O 0.06439 0.85027 0.11345   -0.785706
 O 0.94197 0.78515 0.91607   -0.689291
 O 0.16479 0.27159 0.29774   -0.675792
 O 0.31742 0.15884 0.28642   -0.739565
 O 0.74881 0.5455 0.87835   -0.521766
 O 0.3673 0.0937 0.80994   -0.5329
 O 0.23051 0.46033 0.49883   -0.485218
