{'_ref': 'TBD', '_srcid': 'CAKYAQ_clean', 'submitters': [{'name': 'Dalar Nazarian Jeff Camp and David Sholl', 'email': 'dalar@gatech.edu jcamp6@gatech.edu'}], '_method': 'VASP DFT with PBE;DDEC'}
data_ErH6(C4O3)3
_symmetry_space_group_name_H-M   'P 1'
_cell_length_a   10.55070030
_cell_length_b   10.92650020
_cell_length_c   12.89780000
_cell_angle_alpha   103.18399950
_cell_angle_beta   111.14700193
_cell_angle_gamma   96.56599927
_symmetry_Int_Tables_number   1
_chemical_formula_structural   ErH6(C4O3)3
_chemical_formula_sum   'Er2 H12 C24 O18'
_cell_volume   1318.17202755
_cell_formula_units_Z   2
loop_
 _symmetry_equiv_pos_site_id
 _symmetry_equiv_pos_as_xyz
  1  'x, y, z'
loop_
 _atom_site_label
 _atom_site_fract_x
 _atom_site_fract_y
 _atom_site_fract_z
 _atom_site_charge
 Er 0.89354 0.45347 0.31733   1.537406
 Er 0.10646 0.54653 0.68267   1.537406
 H 0.0532 0.87 0.7016   0.403097
 H 0.7634 0.596 0.7372   0.412335
 H 0.816 0.0884 0.0494   0.414648
 H 0.000900000000001 0.852 0.3413   0.142564
 H 0.5771 0.4448 0.3526   0.142194
 H 0.4402 0.1608 0.1127   0.147742
 H 0.9468 0.13 0.2984   0.403097
 H 0.2366 0.404 0.2628   0.412335
 H 0.184 0.9116 0.9506   0.414647
 H 0.9991 0.148 0.6587   0.142564
 H 0.4229 0.5552 0.6474   0.142193
 H 0.5598 0.8392 0.8873   0.147742
 C 0.021 0.9678 0.6031   0.355807
 C 0.0209 0.8771 0.5064   -0.225321
 C 0.000300000000003 0.9117 0.4053   -0.1208
 C 0.0368 0.7433 0.5076   0.744656
 C 0.5954 0.547 0.6158   0.354519
 C 0.6422 0.5139 0.5273   -0.233055
 C 0.5457 0.467 0.4118   -0.103435
 C 0.7932 0.5278 0.5516   0.748417
 C 0.636 0.0132 0.0059   0.344148
 C 0.6007 0.1103 0.0753   -0.211281
 C 0.4642 0.0959 0.0676   -0.111222
 C 0.7046 0.2302 0.1543   0.677508
 C 0.979 0.0322 0.3969   0.355802
 C 0.9791 0.1229 0.4936   -0.22532
 C 0.9997 0.0883 0.5947   -0.120807
 C 0.9632 0.2567 0.4924   0.744656
 C 0.4046 0.453 0.3842   0.354524
 C 0.3578 0.4861 0.4727   -0.233057
 C 0.4543 0.533 0.5882   -0.10343
 C 0.2068 0.4722 0.4484   0.748418
 C 0.364 0.9868 0.9941   0.344146
 C 0.3993 0.8897 0.9247   -0.211279
 C 0.5358 0.9041 0.9324   -0.111225
 C 0.2954 0.7698 0.8457   0.677508
 O 0.0149 0.6628 0.4134   -0.695619
 O 0.0717 0.7199 0.6051   -0.650369
 O 0.0411 0.9435 0.706   -0.454807
 O 0.8318 0.5031 0.4699   -0.691466
 O 0.8792 0.5648 0.6572   -0.685163
 O 0.6828 0.5939 0.7303   -0.457683
 O 0.8263 0.2497 0.1552   -0.670962
 O 0.6718 0.312 0.2199   -0.660436
 O 0.7652 0.0191 0.0058   -0.453418
 O 0.9851 0.3372 0.5866   -0.695619
 O 0.9283 0.2801 0.3949   -0.650369
 O 0.9589 0.0565 0.294   -0.454808
 O 0.1682 0.4969 0.5301   -0.691467
 O 0.1208 0.4352 0.3428   -0.685163
 O 0.3172 0.4061 0.2697   -0.457683
 O 0.1737 0.7503 0.8448   -0.670962
 O 0.3282 0.688 0.7801   -0.660436
 O 0.2348 0.9809 0.9942   -0.453419
