{'_ref': 'TBD', '_srcid': 'CAKYAQ_clean', 'submitters': [{'name': 'Dalar Nazarian Jeff Camp and David Sholl', 'email': 'dalar@gatech.edu jcamp6@gatech.edu'}], '_method': 'VASP DFT with PBE;DDEC'}
data_MnH12C14(NO2)2
_symmetry_space_group_name_H-M   'P 1'
_cell_length_a   8.85200000
_cell_length_b   11.68599984
_cell_length_c   17.84700000
_cell_angle_alpha   90.00000000
_cell_angle_beta   90.00000000
_cell_angle_gamma   99.66999853
_symmetry_Int_Tables_number   1
_chemical_formula_structural   MnH12C14(NO2)2
_chemical_formula_sum   'Mn4 H48 C56 N8 O16'
_cell_volume   1819.94221961
_cell_formula_units_Z   4
loop_
 _symmetry_equiv_pos_site_id
 _symmetry_equiv_pos_as_xyz
  1  'x, y, z'
loop_
 _atom_site_label
 _atom_site_fract_x
 _atom_site_fract_y
 _atom_site_fract_z
 _atom_site_charge
 Mn 0.79412 0.38127 0.17015   1.014465
 Mn 0.70588 0.61873 0.67015   1.014465
 Mn 0.20588 0.61873 0.82985   1.014465
 Mn 0.29412 0.38127 0.32985   1.014465
 H 0.9809 0.187 0.2357   0.070889
 H 0.9837 0.9927 0.2371   0.109085
 H 0.6161 0.9484 0.1062   0.135499
 H 0.6238 0.1441 0.1082   0.075627
 H 0.951 0.6152 0.2469   0.074559
 H 0.9583 0.8108 0.2502   0.112317
 H 0.6358 0.7747 0.0917   0.128164
 H 0.6379 0.5789 0.0931   0.091926
 H 0.719 0.3862 0.8817   0.080861
 H 0.8857 0.4014 0.9144   0.094377
 H 0.8838 0.5919 0.9439   0.120739
 H 0.7071 0.5788 0.9284   0.121262
 H 0.5191 0.813 0.7357   0.070889
 H 0.5163 0.0073 0.7371   0.109085
 H 0.8839 0.0516 0.6062   0.135499
 H 0.8762 0.8559 0.6082   0.075627
 H 0.549 0.3848 0.7469   0.074559
 H 0.5417 0.1892 0.7502   0.112317
 H 0.8642 0.2253 0.5917   0.128164
 H 0.8621 0.4211 0.5931   0.091926
 H 0.781 0.6138 0.3817   0.080861
 H 0.6143 0.5986 0.4144   0.094377
 H 0.6162 0.4081 0.4439   0.120739
 H 0.7929 0.4212 0.4284   0.121262
 H 0.0191 0.813 0.7643   0.070889
 H 0.0163 0.0073 0.7629   0.109086
 H 0.3839 0.0516 0.8938   0.135498
 H 0.3762 0.8559 0.8918   0.075627
 H 0.049 0.3848 0.7531   0.074559
 H 0.0417 0.1892 0.7498   0.112317
 H 0.3642 0.2253 0.9083   0.128164
 H 0.3621 0.4211 0.9069   0.091926
 H 0.281 0.6138 0.1183   0.080861
 H 0.1143 0.5986 0.0856   0.094377
 H 0.1162 0.4081 0.0561   0.120739
 H 0.2929 0.4212 0.0716   0.121262
 H 0.4809 0.187 0.2643   0.070889
 H 0.4837 0.9927 0.2629   0.109086
 H 0.1161 0.9484 0.3938   0.135498
 H 0.1238 0.1441 0.3918   0.075627
 H 0.451 0.6152 0.2531   0.074559
 H 0.4583 0.8108 0.2498   0.112317
 H 0.1358 0.7747 0.4083   0.128164
 H 0.1379 0.5789 0.4069   0.091926
 H 0.219 0.3862 0.6183   0.080861
 H 0.3857 0.4014 0.5856   0.094377
 H 0.3838 0.5919 0.5561   0.120739
 H 0.2071 0.5788 0.5716   0.121262
 C 0.9055 0.1384 0.2092   0.198173
 C 0.9079 0.0211 0.2103   -0.201879
 C 0.7996 0.9457 0.17216   0.102123
 C 0.6923 0.9951 0.1334   -0.207379
 C 0.6977 0.1133 0.135   0.17991
 C 0.8866 0.6477 0.2151   0.18834
 C 0.8914 0.7658 0.2174   -0.200906
 C 0.7971 0.8181 0.17115   0.074817
 C 0.7015 0.7446 0.1241   -0.178872
 C 0.7035 0.6265 0.1251   0.194459
 C 0.7212 0.3827 0.99707   0.722198
 C 0.7859 0.4239 0.9207   -0.244042
 C 0.8011 0.554 0.91228   -0.297215
 C 0.8336 0.589 0.83167   0.737631
 C 0.5945 0.8616 0.7092   0.198173
 C 0.5921 0.9789 0.7103   -0.201879
 C 0.7004 0.0543 0.67216   0.102123
 C 0.8077 0.0049 0.6334   -0.207379
 C 0.8023 0.8867 0.635   0.17991
 C 0.6134 0.3523 0.7151   0.18834
 C 0.6086 0.2342 0.7174   -0.200906
 C 0.7029 0.1819 0.67115   0.074817
 C 0.7985 0.2554 0.6241   -0.178872
 C 0.7965 0.3735 0.6251   0.194459
 C 0.7788 0.6173 0.49707   0.722198
 C 0.7141 0.5761 0.4207   -0.244042
 C 0.6989 0.446 0.41228   -0.297215
 C 0.6664 0.411 0.33167   0.737631
 C 0.0945 0.8616 0.7908   0.198173
 C 0.0921 0.9789 0.7897   -0.20188
 C 0.2004 0.0543 0.82784   0.102122
 C 0.3077 0.0049 0.8666   -0.20738
 C 0.3023 0.8867 0.865   0.17991
 C 0.1134 0.3523 0.7849   0.18834
 C 0.1086 0.2342 0.7826   -0.200906
 C 0.2029 0.1819 0.82885   0.074817
 C 0.2985 0.2554 0.8759   -0.178872
 C 0.2965 0.3735 0.8749   0.194459
 C 0.2788 0.6173 0.00293   0.722198
 C 0.2141 0.5761 0.0793   -0.244042
 C 0.1989 0.446 0.08772   -0.297215
 C 0.1664 0.411 0.16833   0.737631
 C 0.4055 0.1384 0.2908   0.198173
 C 0.4079 0.0211 0.2897   -0.20188
 C 0.2996 0.9457 0.32784   0.102122
 C 0.1923 0.9951 0.3666   -0.20738
 C 0.1977 0.1133 0.365   0.17991
 C 0.3866 0.6477 0.2849   0.18834
 C 0.3914 0.7658 0.2826   -0.200906
 C 0.2971 0.8181 0.32885   0.074817
 C 0.2015 0.7446 0.3759   -0.178872
 C 0.2035 0.6265 0.3749   0.194459
 C 0.2212 0.3827 0.50293   0.722198
 C 0.2859 0.4239 0.5793   -0.244042
 C 0.3011 0.554 0.58772   -0.297215
 C 0.3336 0.589 0.66833   0.737631
 N 0.8017 0.1859 0.17237   -0.349351
 N 0.7948 0.5778 0.16987   -0.348056
 N 0.6983 0.8141 0.67237   -0.349351
 N 0.7052 0.4222 0.66987   -0.348056
 N 0.1983 0.8141 0.82763   -0.349351
 N 0.2052 0.4222 0.83013   -0.348056
 N 0.3017 0.1859 0.32763   -0.349351
 N 0.2948 0.5778 0.33013   -0.348056
 O 0.8162 0.3858 0.04956   -0.661875
 O 0.5817 0.3509 0.00255   -0.663619
 O 0.7257 0.6121 0.79231   -0.632511
 O 0.9654 0.588 0.80634   -0.641716
 O 0.6838 0.6142 0.54956   -0.661875
 O 0.9183 0.6491 0.50255   -0.663619
 O 0.7743 0.3879 0.29231   -0.632511
 O 0.5346 0.412 0.30634   -0.641716
 O 0.1838 0.6142 0.95044   -0.661875
 O 0.4183 0.6491 0.99745   -0.663619
 O 0.2743 0.3879 0.20769   -0.632512
 O 0.0346 0.412 0.19366   -0.641716
 O 0.3162 0.3858 0.45044   -0.661875
 O 0.0817 0.3509 0.49745   -0.663619
 O 0.2257 0.6121 0.70769   -0.632512
 O 0.4654 0.588 0.69366   -0.641716
