{'_ref': 'TBD', '_srcid': 'CAKYAQ_clean', 'submitters': [{'name': 'Dalar Nazarian Jeff Camp and David Sholl', 'email': 'dalar@gatech.edu jcamp6@gatech.edu'}], '_method': 'VASP DFT with PBE;DDEC'}
data_ScH3C8O5
_symmetry_space_group_name_H-M   'P 1'
_cell_length_a   12.38449937
_cell_length_b   12.49439172
_cell_length_c   12.49437284
_cell_angle_alpha   75.78142786
_cell_angle_beta   60.29061627
_cell_angle_gamma   60.29056741
_symmetry_Int_Tables_number   1
_chemical_formula_structural   ScH3C8O5
_chemical_formula_sum   'Sc4 H12 C32 O20'
_cell_volume   1458.47110829
_cell_formula_units_Z   4
loop_
 _symmetry_equiv_pos_site_id
 _symmetry_equiv_pos_as_xyz
  1  'x, y, z'
loop_
 _atom_site_label
 _atom_site_fract_x
 _atom_site_fract_y
 _atom_site_fract_z
 _atom_site_charge
 Sc 0.81278 0.37444 0.0   2.024496
 Sc 0.18722 0.62556 0.0   2.024378
 Sc 0.43722 0.5 0.12556   2.024481
 Sc 0.06278 0.5 0.87444   2.024357
 H 0.769 0.4427 0.6771   0.12028
 H 0.8888 0.5573 0.3229   0.120268
 H 0.4617 0.1771 0.0573   0.120277
 H 0.6961 0.8229 0.9427   0.120271
 H 0.3612 0.1771 0.9427   0.120263
 H 0.481 0.8229 0.0573   0.120273
 H 0.5539 0.5573 0.6771   0.120267
 H 0.7883 0.4427 0.3229   0.120272
 H 0.1136 0.5 0.5   0.12176
 H 0.8636 0.0 0.0   0.121764
 H 0.1364 0.0 0.0   0.12176
 H 0.3864 0.5 0.5   0.12176
 C 0.95706 0.44402 0.72226   0.768859
 C 0.83125 0.46692 0.60524   -0.039229
 C 0.94271 0.46887 0.60663   -0.1458
 C 0.12334 0.55598 0.27774   0.768789
 C 0.90341 0.53308 0.39476   -0.039262
 C 0.01821 0.53113 0.39337   -0.145801
 C 0.65108 0.22226 0.05598   0.768846
 C 0.54817 0.10524 0.03308   -0.039229
 C 0.66158 0.10663 0.03113   -0.145814
 C 0.92932 0.77774 0.94402   0.768819
 C 0.68649 0.89476 0.96692   -0.039263
 C 0.79934 0.89337 0.96887   -0.145773
 C 0.12666 0.22226 0.94402   0.768796
 C 0.34659 0.10524 0.96692   -0.03926
 C 0.23179 0.10663 0.96887   -0.145791
 C 0.29294 0.77774 0.05598   0.768862
 C 0.41875 0.89476 0.03308   -0.039222
 C 0.30729 0.89337 0.03113   -0.145794
 C 0.32068 0.55598 0.72226   0.76885
 C 0.56351 0.53308 0.60524   -0.039256
 C 0.45066 0.53113 0.60663   -0.145794
 C 0.59892 0.44402 0.27774   0.768864
 C 0.70183 0.46692 0.39476   -0.039228
 C 0.58842 0.46887 0.39337   -0.145819
 C 0.811 0.5 0.5   0.017887
 C 0.0369 0.5 0.5   0.031422
 C 0.561 0.0 0.0   0.017884
 C 0.7869 0.0 0.0   0.031413
 C 0.439 0.0 0.0   0.017879
 C 0.2131 0.0 0.0   0.031408
 C 0.689 0.5 0.5   0.017881
 C 0.4631 0.5 0.5   0.031427
 O 0.89742 0.38396 0.80598   -0.69613
 O 0.02914 0.48412 0.72974   -0.687459
 O 0.08736 0.61604 0.19402   -0.696029
 O 0.243 0.51588 0.27026   -0.68736
 O 0.53138 0.30598 0.11604   -0.696081
 O 0.76326 0.22974 0.01588   -0.687428
 O 0.9534 0.69402 0.88396   -0.696078
 O 0.00888 0.77026 0.98412   -0.687398
 O 0.16264 0.30598 0.88396   -0.696028
 O 0.007 0.22974 0.98412   -0.687362
 O 0.35258 0.69402 0.11604   -0.696124
 O 0.22086 0.77026 0.01588   -0.687468
 O 0.2966 0.61604 0.80598   -0.696091
 O 0.24112 0.51588 0.72974   -0.687401
 O 0.71862 0.38396 0.19402   -0.696091
 O 0.48674 0.48412 0.27026   -0.687423
 O 0.87704 0.49796 0.99796   -0.836593
 O 0.37296 0.50204 0.00204   -0.836596
 O 0.625 0.49796 0.00204   -0.836854
 O 0.125 0.50204 0.99796   -0.836485
