{'_ref': 'TBD', '_srcid': 'CAKYAQ_clean', 'submitters': [{'name': 'Dalar Nazarian Jeff Camp and David Sholl', 'email': 'dalar@gatech.edu jcamp6@gatech.edu'}], '_method': 'VASP DFT with PBE;DDEC'}
data_CdH18C34(N3O4)2
_symmetry_space_group_name_H-M   'P 1'
_cell_length_a   15.21400000
_cell_length_b   15.21399957
_cell_length_c   19.68600000
_cell_angle_alpha   90.00000000
_cell_angle_beta   90.00000000
_cell_angle_gamma   120.00000093
_symmetry_Int_Tables_number   1
_chemical_formula_structural   CdH18C34(N3O4)2
_chemical_formula_sum   'Cd3 H54 C102 N18 O24'
_cell_volume   3946.16208969
_cell_formula_units_Z   3
loop_
 _symmetry_equiv_pos_site_id
 _symmetry_equiv_pos_as_xyz
  1  'x, y, z'
loop_
 _atom_site_label
 _atom_site_fract_x
 _atom_site_fract_y
 _atom_site_fract_z
 _atom_site_charge
 Cd 0.14365 0.0 0.1667   0.855181
 Cd 0.0 0.14365 0.833367   0.855144
 Cd 0.85635 0.85635 0.500033   0.85516
 H 0.6907 0.5724 0.2392   0.113988
 H 0.4276 0.1183 0.905867   0.113901
 H 0.8817 0.3093 0.572533   0.113917
 H 0.5724 0.6907 0.7608   0.114009
 H 0.3093 0.8817 0.427467   0.113919
 H 0.1183 0.4276 0.094133   0.113879
 H 0.7216 0.482 0.3215   0.106278
 H 0.518 0.2396 0.988167   0.106269
 H 0.7604 0.2784 0.654833   0.106296
 H 0.482 0.7216 0.6785   0.106282
 H 0.2784 0.7604 0.345167   0.106256
 H 0.2396 0.518 0.011833   0.106307
 H 0.82 0.7306 0.205   0.109916
 H 0.2694 0.0894 0.871667   0.109908
 H 0.9106 0.18 0.538333   0.109992
 H 0.7306 0.82 0.795   0.109931
 H 0.18 0.9106 0.461667   0.109984
 H 0.0894 0.2694 0.128333   0.109889
 H 0.2854 0.9386 0.256   0.071602
 H 0.0614 0.3468 0.922667   0.071698
 H 0.6532 0.7146 0.589333   0.0716
 H 0.9386 0.2854 0.744   0.071774
 H 0.7146 0.6532 0.410667   0.071691
 H 0.3468 0.0614 0.077333   0.071822
 H 0.4346 0.9341 0.2568   0.116229
 H 0.0659 0.5005 0.923467   0.116296
 H 0.4995 0.5654 0.590133   0.116217
 H 0.9341 0.4346 0.7432   0.116315
 H 0.5654 0.4995 0.409867   0.116336
 H 0.5005 0.0659 0.076533   0.116464
 H 0.9989 0.0968 0.9928   0.07163
 H 0.9032 0.9021 0.659467   0.071657
 H 0.0979 0.0011 0.326133   0.071607
 H 0.0968 0.9989 0.0072   0.071621
 H 0.0011 0.0979 0.673867   0.071613
 H 0.9021 0.9032 0.340533   0.071569
 H 0.913 0.0731 0.093   0.123969
 H 0.9269 0.8399 0.759667   0.124048
 H 0.1601 0.087 0.426333   0.123994
 H 0.0731 0.913 0.907   0.123914
 H 0.087 0.1601 0.573667   0.123955
 H 0.8399 0.9269 0.240333   0.124017
 H 0.684 0.0522 0.9874   0.113828
 H 0.9478 0.6318 0.654067   0.113791
 H 0.3682 0.316 0.320733   0.113873
 H 0.0522 0.684 0.0126   0.113729
 H 0.316 0.3682 0.679267   0.113811
 H 0.6318 0.9478 0.345933   0.113796
 H 0.7811 0.0965 0.8919   0.092601
 H 0.9035 0.6846 0.558567   0.092478
 H 0.3154 0.2189 0.225233   0.092587
 H 0.0965 0.7811 0.1081   0.092559
 H 0.2189 0.3154 0.774767   0.092543
 H 0.6846 0.9035 0.441433   0.09245
 C 0.7549 0.5996 0.2585   -0.106743
 C 0.4004 0.1553 0.925167   -0.106739
 C 0.8447 0.2451 0.591833   -0.106808
 C 0.5996 0.7549 0.7415   -0.106795
 C 0.2451 0.8447 0.408167   -0.10678
 C 0.1553 0.4004 0.074833   -0.106737
 C 0.7734 0.5454 0.3078   -0.064051
 C 0.4546 0.228 0.974467   -0.064038
 C 0.772 0.2266 0.641133   -0.064064
 C 0.5454 0.7734 0.6922   -0.064085
 C 0.2266 0.772 0.358867   -0.063996
 C 0.228 0.4546 0.025533   -0.064107
 C 0.8695 0.5861 0.3365   -0.118611
 C 0.4139 0.2834 0.003167   -0.118582
 C 0.7166 0.1305 0.669833   -0.1186
 C 0.5861 0.8695 0.6635   -0.118577
 C 0.1305 0.7166 0.330167   -0.118626
 C 0.2834 0.4139 0.996833   -0.118595
 C 0.9469 0.6808 0.316   0.09787
 C 0.3192 0.2661 0.982667   0.097884
 C 0.7339 0.0531 0.649333   0.097927
 C 0.6808 0.9469 0.684   0.097805
 C 0.0531 0.7339 0.350667   0.097939
 C 0.2661 0.3192 0.017333   0.09792
 C 0.9284 0.735 0.2667   -0.158027
 C 0.265 0.1934 0.933367   -0.158023
 C 0.8066 0.0716 0.600033   -0.157997
 C 0.735 0.9284 0.7333   -0.157957
 C 0.0716 0.8066 0.399967   -0.15804
 C 0.1934 0.265 0.066633   -0.158069
 C 0.8324 0.6944 0.238   -0.025839
 C 0.3056 0.138 0.904667   -0.025891
 C 0.862 0.1676 0.571333   -0.025872
 C 0.6944 0.8324 0.762   -0.02587
 C 0.1676 0.862 0.428667   -0.025886
 C 0.138 0.3056 0.095333   -0.025894
 C 0.873 0.513 0.378   0.610817
 C 0.487 0.36 0.044667   0.610808
 C 0.64 0.127 0.711333   0.61078
 C 0.513 0.873 0.622   0.610796
 C 0.127 0.64 0.288667   0.610803
 C 0.36 0.487 0.955333   0.610805
 C 0.006 0.8293 0.2338   0.685979
 C 0.1707 0.1767 0.900467   0.686005
 C 0.8233 0.994 0.567133   0.685955
 C 0.8293 0.006 0.7662   0.686023
 C 0.994 0.8233 0.432867   0.685968
 C 0.1767 0.1707 0.099533   0.686015
 C 0.3292 0.9635 0.219   0.17035
 C 0.0365 0.3657 0.885667   0.170355
 C 0.6343 0.6708 0.552333   0.170372
 C 0.9635 0.3292 0.781   0.170021
 C 0.6708 0.6343 0.447667   0.170084
 C 0.3657 0.0365 0.114333   0.170006
 C 0.4187 0.9616 0.2198   -0.145148
 C 0.0384 0.4571 0.886467   -0.14517
 C 0.5429 0.5813 0.553133   -0.145193
 C 0.9616 0.4187 0.7802   -0.145447
 C 0.5813 0.5429 0.446867   -0.145515
 C 0.4571 0.0384 0.113533   -0.145581
 C 0.9348 0.0904 0.992   0.157042
 C 0.9096 0.8444 0.658667   0.156982
 C 0.1556 0.0652 0.325333   0.156999
 C 0.0904 0.9348 0.008   0.157032
 C 0.0652 0.1556 0.674667   0.157045
 C 0.8444 0.9096 0.341333   0.157044
 C 0.8821 0.0715 0.0519   -0.134302
 C 0.9285 0.8106 0.718567   -0.134414
 C 0.1894 0.1179 0.385233   -0.134357
 C 0.0715 0.8821 0.9481   -0.134268
 C 0.1179 0.1894 0.614767   -0.134379
 C 0.8106 0.9285 0.281433   -0.134385
 C 0.7802 0.0497 0.0502   -0.000543
 C 0.9503 0.7305 0.716867   -0.000621
 C 0.2695 0.2198 0.383533   -0.000621
 C 0.0497 0.7802 0.9498   -0.000854
 C 0.2198 0.2695 0.616467   -0.000842
 C 0.7305 0.9503 0.283133   -0.000772
 C 0.7492 0.0618 0.9906   -0.131184
 C 0.9382 0.6874 0.657267   -0.13111
 C 0.3126 0.2508 0.323933   -0.131104
 C 0.0618 0.7492 0.0094   -0.131107
 C 0.2508 0.3126 0.676067   -0.131114
 C 0.6874 0.9382 0.342733   -0.131217
 C 0.807 0.0876 0.9325   0.150962
 C 0.9124 0.7194 0.599167   0.151056
 C 0.2806 0.193 0.265833   0.150976
 C 0.0876 0.807 0.0675   0.151005
 C 0.193 0.2806 0.734167   0.150998
 C 0.7194 0.9124 0.400833   0.151067
 C 0.721 0.0227 0.112   0.503448
 C 0.9773 0.6983 0.778667   0.503548
 C 0.3017 0.279 0.445333   0.503499
 C 0.0227 0.721 0.888   0.504245
 C 0.279 0.3017 0.554667   0.504232
 C 0.6983 0.9773 0.221333   0.504314
 C 0.5805 0.0 0.1667   0.494887
 C 0.0 0.5805 0.833367   0.494883
 C 0.4195 0.4195 0.500033   0.494883
 C 0.4834 0.0 0.1667   0.008812
 C 0.0 0.4834 0.833367   0.008811
 C 0.5166 0.5166 0.500033   0.008849
 N 0.3055 0.0 0.1667   -0.323848
 N 0.0 0.3055 0.833367   -0.323911
 N 0.6945 0.6945 0.500033   -0.323828
 N 0.8989 0.0998 0.9342   -0.313283
 N 0.9002 0.7991 0.600867   -0.313275
 N 0.2009 0.1011 0.267533   -0.313294
 N 0.0998 0.8989 0.0658   -0.313419
 N 0.1011 0.2009 0.732467   -0.31342
 N 0.7991 0.9002 0.399133   -0.313469
 N 0.7567 0.0 0.1667   -0.464466
 N 0.0 0.7567 0.833367   -0.464457
 N 0.2433 0.2433 0.500033   -0.464404
 N 0.6356 0.0262 0.1093   -0.496758
 N 0.9738 0.6094 0.775967   -0.496747
 N 0.3906 0.3644 0.442633   -0.496744
 N 0.0262 0.6356 0.8907   -0.49698
 N 0.3644 0.3906 0.557367   -0.497022
 N 0.6094 0.9738 0.224033   -0.496994
 O 0.092 0.8465 0.2315   -0.597261
 O 0.1535 0.2455 0.898167   -0.597235
 O 0.7545 0.908 0.564833   -0.597234
 O 0.8465 0.092 0.7685   -0.597296
 O 0.908 0.7545 0.435167   -0.597249
 O 0.2455 0.1535 0.101833   -0.597268
 O 0.908 0.552 0.43   -0.29964
 O 0.448 0.356 0.096667   -0.299658
 O 0.644 0.092 0.763333   -0.299632
 O 0.552 0.908 0.57   -0.299665
 O 0.092 0.644 0.236667   -0.299597
 O 0.356 0.448 0.903333   -0.299655
 O 0.851 0.418 0.387   -0.41107
 O 0.582 0.433 0.053667   -0.411137
 O 0.567 0.149 0.720333   -0.410992
 O 0.418 0.851 0.613   -0.411082
 O 0.149 0.567 0.279667   -0.411022
 O 0.433 0.582 0.946333   -0.411097
 O 0.9823 0.8869 0.213   -0.5791
 O 0.1131 0.0954 0.879667   -0.579107
 O 0.9046 0.0177 0.546333   -0.57908
 O 0.8869 0.9823 0.787   -0.57918
 O 0.0177 0.9046 0.453667   -0.5791
 O 0.0954 0.1131 0.120333   -0.579171
