{'_ref': 'TBD', '_srcid': 'CAKYAQ_clean', 'submitters': [{'name': 'Dalar Nazarian Jeff Camp and David Sholl', 'email': 'dalar@gatech.edu jcamp6@gatech.edu'}], '_method': 'VASP DFT with PBE;DDEC'}
data_CdH18C22(NO)4
_symmetry_space_group_name_H-M   'P 1'
_cell_length_a   8.02210000
_cell_length_b   18.87250000
_cell_length_c   18.87250000
_cell_angle_alpha   90.00000000
_cell_angle_beta   90.00000000
_cell_angle_gamma   90.00000000
_symmetry_Int_Tables_number   1
_chemical_formula_structural   CdH18C22(NO)4
_chemical_formula_sum   'Cd4 H72 C88 N16 O16'
_cell_volume   2857.24143476
_cell_formula_units_Z   4
loop_
 _symmetry_equiv_pos_site_id
 _symmetry_equiv_pos_as_xyz
  1  'x, y, z'
loop_
 _atom_site_label
 _atom_site_fract_x
 _atom_site_fract_y
 _atom_site_fract_z
 _atom_site_charge
 Cd 0.5 0.2156 0.7844   0.955236
 Cd 0.5 0.7844 0.2156   0.955236
 Cd 0.5 0.7156 0.7156   0.955236
 Cd 0.5 0.2844 0.2844   0.955236
 H 0.2739 0.7904 0.8137   0.149232
 H 0.2739 0.2096 0.1863   0.149232
 H 0.2739 0.6863 0.2904   0.149232
 H 0.2739 0.3137 0.7096   0.149232
 H 0.7261 0.7096 0.3137   0.149232
 H 0.7261 0.2904 0.6863   0.149232
 H 0.7261 0.8137 0.7904   0.149232
 H 0.7261 0.1863 0.2096   0.149232
 H 0.1078 0.8291 0.7932   0.138061
 H 0.1078 0.1709 0.2068   0.138061
 H 0.1078 0.7068 0.3291   0.138061
 H 0.1078 0.2932 0.6709   0.138061
 H 0.8922 0.6709 0.2932   0.138061
 H 0.8922 0.3291 0.7068   0.138061
 H 0.8922 0.7932 0.8291   0.138061
 H 0.8922 0.2068 0.1709   0.138061
 H 0.2419 0.8683 0.8391   0.15338
 H 0.2419 0.1317 0.1609   0.15338
 H 0.2419 0.6609 0.3683   0.15338
 H 0.2419 0.3391 0.6317   0.15338
 H 0.7581 0.6317 0.3391   0.15338
 H 0.7581 0.3683 0.6609   0.153379
 H 0.7581 0.8391 0.8683   0.15338
 H 0.7581 0.1609 0.1317   0.153379
 H 0.5573 0.8672 0.6149   0.104547
 H 0.5573 0.1328 0.3851   0.104547
 H 0.5573 0.8851 0.3672   0.104547
 H 0.5573 0.1149 0.6328   0.104547
 H 0.4427 0.6328 0.1149   0.104547
 H 0.4427 0.3672 0.8851   0.104547
 H 0.4427 0.6149 0.8672   0.104547
 H 0.4427 0.3851 0.1328   0.104547
 H 0.3839 0.9741 0.6205   0.131231
 H 0.3839 0.0259 0.3795   0.131231
 H 0.3839 0.8795 0.4741   0.131232
 H 0.3839 0.1205 0.5259   0.131232
 H 0.6161 0.5259 0.1205   0.131231
 H 0.6161 0.4741 0.8795   0.131231
 H 0.6161 0.6205 0.9741   0.131232
 H 0.6161 0.3795 0.0259   0.131232
 H 0.2737 0.058 0.7355   0.121311
 H 0.2737 0.942 0.2645   0.121311
 H 0.2737 0.7645 0.558   0.121311
 H 0.2737 0.2355 0.442   0.121311
 H 0.7263 0.442 0.2355   0.121311
 H 0.7263 0.558 0.7645   0.121311
 H 0.7263 0.7355 0.058   0.121311
 H 0.7263 0.2645 0.942   0.121311
 H 0.9464 0.9008 0.7118   0.122756
 H 0.9464 0.0992 0.2882   0.122756
 H 0.9464 0.7882 0.4008   0.122755
 H 0.9464 0.2118 0.5992   0.122755
 H 0.0536 0.5992 0.2118   0.122756
 H 0.0536 0.4008 0.7882   0.122756
 H 0.0536 0.7118 0.9008   0.122755
 H 0.0536 0.2882 0.0992   0.122755
 H 0.0643 0.1351 0.7596   0.097814
 H 0.0643 0.8649 0.2404   0.097814
 H 0.0643 0.7404 0.6351   0.097814
 H 0.0643 0.2596 0.3649   0.097814
 H 0.9357 0.3649 0.2596   0.097814
 H 0.9357 0.6351 0.7404   0.097814
 H 0.9357 0.7596 0.1351   0.097814
 H 0.9357 0.2404 0.8649   0.097814
 H 0.7341 0.9762 0.7427   0.087871
 H 0.7341 0.0238 0.2573   0.087871
 H 0.7341 0.7573 0.4762   0.087871
 H 0.7341 0.2427 0.5238   0.087871
 H 0.2659 0.5238 0.2427   0.087871
 H 0.2659 0.4762 0.7573   0.087871
 H 0.2659 0.7427 0.9762   0.087871
 H 0.2659 0.2573 0.0238   0.087871
 C 0.2251 0.8352 0.8012   -0.434505
 C 0.2251 0.1648 0.1988   -0.434505
 C 0.2251 0.6988 0.3352   -0.434505
 C 0.2251 0.3012 0.6648   -0.434505
 C 0.7749 0.6648 0.3012   -0.434505
 C 0.7749 0.3352 0.6988   -0.434505
 C 0.7749 0.8012 0.8352   -0.434505
 C 0.7749 0.1988 0.1648   -0.434505
 C 0.3042 0.8622 0.7364   0.375536
 C 0.3042 0.1378 0.2636   0.375536
 C 0.3042 0.7636 0.3622   0.375536
 C 0.3042 0.2364 0.6378   0.375536
 C 0.6958 0.6378 0.2364   0.375536
 C 0.6958 0.3622 0.7636   0.375536
 C 0.6958 0.7364 0.8622   0.375536
 C 0.6958 0.2636 0.1378   0.375536
 C 0.473 0.8758 0.6476   0.032222
 C 0.473 0.1242 0.3524   0.032222
 C 0.473 0.8524 0.3758   0.032222
 C 0.473 0.1476 0.6242   0.032222
 C 0.527 0.6242 0.1476   0.032222
 C 0.527 0.3758 0.8524   0.032222
 C 0.527 0.6476 0.8758   0.032222
 C 0.527 0.3524 0.1242   0.032222
 C 0.3769 0.9347 0.6499   -0.151035
 C 0.3769 0.0653 0.3501   -0.151035
 C 0.3769 0.8501 0.4347   -0.151035
 C 0.3769 0.1499 0.5653   -0.151035
 C 0.6231 0.5653 0.1499   -0.151035
 C 0.6231 0.4347 0.8501   -0.151035
 C 0.6231 0.6499 0.9347   -0.151035
 C 0.6231 0.3501 0.0653   -0.151035
 C 0.1311 0.9715 0.7233   0.135484
 C 0.1311 0.0285 0.2767   0.135484
 C 0.1311 0.7767 0.4715   0.135484
 C 0.1311 0.2233 0.5285   0.135484
 C 0.8689 0.5285 0.2233   0.135484
 C 0.8689 0.4715 0.7767   0.135484
 C 0.8689 0.7233 0.9715   0.135484
 C 0.8689 0.2767 0.0285   0.135484
 C 0.1642 0.0419 0.7365   -0.172394
 C 0.1642 0.9581 0.2635   -0.172394
 C 0.1642 0.7635 0.5419   -0.172394
 C 0.1642 0.2365 0.4581   -0.172394
 C 0.8358 0.4581 0.2365   -0.172394
 C 0.8358 0.5419 0.7635   -0.172394
 C 0.8358 0.7365 0.0419   -0.172394
 C 0.8358 0.2635 0.9581   -0.172394
 C 0.9697 0.9477 0.7232   -0.194042
 C 0.9697 0.0523 0.2768   -0.194042
 C 0.9697 0.7768 0.4477   -0.194041
 C 0.9697 0.2232 0.5523   -0.194041
 C 0.0303 0.5523 0.2232   -0.194042
 C 0.0303 0.4477 0.7768   -0.194042
 C 0.0303 0.7232 0.9477   -0.194041
 C 0.0303 0.2768 0.0523   -0.194041
 C 0.0395 0.0878 0.751   0.00322
 C 0.0395 0.9122 0.249   0.00322
 C 0.0395 0.749 0.5878   0.00322
 C 0.0395 0.251 0.4122   0.00322
 C 0.9605 0.4122 0.251   0.00322
 C 0.9605 0.5878 0.749   0.00322
 C 0.9605 0.751 0.0878   0.00322
 C 0.9605 0.249 0.9122   0.00322
 C 0.8426 0.9933 0.7401   -0.01628
 C 0.8426 0.0067 0.2599   -0.01628
 C 0.8426 0.7599 0.4933   -0.01628
 C 0.8426 0.2401 0.5067   -0.01628
 C 0.1574 0.5067 0.2401   -0.01628
 C 0.1574 0.4933 0.7599   -0.01628
 C 0.1574 0.7401 0.9933   -0.01628
 C 0.1574 0.2599 0.0067   -0.01628
 C 0.8729 0.0649 0.7533   -0.148721
 C 0.8729 0.9351 0.2467   -0.148721
 C 0.8729 0.7467 0.5649   -0.148721
 C 0.8729 0.2533 0.4351   -0.148721
 C 0.1271 0.4351 0.2533   -0.148721
 C 0.1271 0.5649 0.7467   -0.148721
 C 0.1271 0.7533 0.0649   -0.148721
 C 0.1271 0.2467 0.9351   -0.148721
 C 0.7337 0.1151 0.7699   0.652878
 C 0.7337 0.8849 0.2301   0.652878
 C 0.7337 0.7301 0.6151   0.652878
 C 0.7337 0.2699 0.3849   0.652878
 C 0.2663 0.3849 0.2699   0.652878
 C 0.2663 0.6151 0.7301   0.652878
 C 0.2663 0.7699 0.1151   0.652878
 C 0.2663 0.2301 0.8849   0.652878
 N 0.4255 0.8299 0.7022   -0.458107
 N 0.4255 0.1701 0.2978   -0.458107
 N 0.4255 0.7978 0.3299   -0.458107
 N 0.4255 0.2022 0.6701   -0.458107
 N 0.5745 0.6701 0.2022   -0.458107
 N 0.5745 0.3299 0.7978   -0.458107
 N 0.5745 0.7022 0.8299   -0.458107
 N 0.5745 0.2978 0.1701   -0.458107
 N 0.266 0.9243 0.7052   -0.00872
 N 0.266 0.0757 0.2948   -0.00872
 N 0.266 0.7948 0.4243   -0.00872
 N 0.266 0.2052 0.5757   -0.00872
 N 0.734 0.5757 0.2052   -0.00872
 N 0.734 0.4243 0.7948   -0.00872
 N 0.734 0.7052 0.9243   -0.00872
 N 0.734 0.2948 0.0757   -0.00872
 O 0.7705 0.1796 0.7715   -0.595633
 O 0.7705 0.8204 0.2285   -0.595633
 O 0.7705 0.7285 0.6796   -0.595633
 O 0.7705 0.2715 0.3204   -0.595633
 O 0.2295 0.3204 0.2715   -0.595633
 O 0.2295 0.6796 0.7285   -0.595633
 O 0.2295 0.7715 0.1796   -0.595633
 O 0.2295 0.2285 0.8204   -0.595633
 O 0.5905 0.0928 0.7795   -0.603724
 O 0.5905 0.9072 0.2205   -0.603724
 O 0.5905 0.7205 0.5928   -0.603724
 O 0.5905 0.2795 0.4072   -0.603724
 O 0.4095 0.4072 0.2795   -0.603724
 O 0.4095 0.5928 0.7205   -0.603724
 O 0.4095 0.7795 0.0928   -0.603724
 O 0.4095 0.2205 0.9072   -0.603724
