{'_ref': 'TBD', '_srcid': 'CAKYAQ_clean', 'submitters': [{'name': 'Dalar Nazarian Jeff Camp and David Sholl', 'email': 'dalar@gatech.edu jcamp6@gatech.edu'}], '_method': 'VASP DFT with PBE;DDEC'}
data_Co3H34C44S3(NO3)4
_symmetry_space_group_name_H-M   'P 1'
_cell_length_a   15.09200000
_cell_length_b   16.74400000
_cell_length_c   22.51800000
_cell_angle_alpha   90.00000000
_cell_angle_beta   90.00000000
_cell_angle_gamma   90.00000000
_symmetry_Int_Tables_number   1
_chemical_formula_structural   Co3H34C44S3(NO3)4
_chemical_formula_sum   'Co12 H136 C176 S12 N16 O48'
_cell_volume   5690.30868806
_cell_formula_units_Z   4
loop_
 _symmetry_equiv_pos_site_id
 _symmetry_equiv_pos_as_xyz
  1  'x, y, z'
loop_
 _atom_site_label
 _atom_site_fract_x
 _atom_site_fract_y
 _atom_site_fract_z
 _atom_site_charge
 Co 0.26612 0.27396 0.38195   0.900491
 Co 0.73388 0.22604 0.38195   0.900491
 Co 0.26612 0.72604 0.11805   0.900491
 Co 0.73388 0.77396 0.11805   0.900491
 Co 0.73388 0.72604 0.61805   0.900491
 Co 0.26612 0.77396 0.61805   0.900491
 Co 0.73388 0.27396 0.88195   0.900491
 Co 0.26612 0.22604 0.88195   0.900491
 Co 0.5 0.25 0.40268   1.195169
 Co 0.5 0.75 0.09732   1.195169
 Co 0.5 0.75 0.59732   1.195169
 Co 0.5 0.25 0.90268   1.195169
 H 0.5582 0.4374 0.2786   0.108302
 H 0.4947 0.4214 0.5614   0.12784
 H 0.47 0.553 0.6055   0.108905
 H 0.0923 0.2839 0.4523   0.058458
 H 0.9691 0.3558 0.462   0.129974
 H 0.041 0.4786 0.3274   0.114738
 H 0.1644 0.4 0.3185   0.069646
 H 0.8701 0.4568 0.4263   0.096195
 H 0.9338 0.5235 0.4493   0.089982
 H 0.9472 0.5722 0.3567   0.044963
 H 0.8876 0.5045 0.3322   0.0442
 H 0.8345 0.637 0.3897   0.103707
 H 0.7709 0.5662 0.3747   0.090779
 H 0.6759 0.6128 0.3024   0.13632
 H 0.6512 0.6786 0.2165   0.077586
 H 0.9002 0.7112 0.1909   0.056606
 H 0.9326 0.6492 0.2778   0.123767
 H 0.4418 0.0626 0.2786   0.108302
 H 0.5053 0.0786 0.5614   0.127842
 H 0.53 0.947 0.6055   0.108904
 H 0.9077 0.2161 0.4523   0.058459
 H 0.0309 0.1442 0.462   0.129975
 H 0.959 0.0214 0.3274   0.114738
 H 0.8356 0.1 0.3185   0.069646
 H 0.1299 0.0432 0.4263   0.096195
 H 0.0662 0.9765 0.4493   0.089982
 H 0.0528 0.9278 0.3567   0.044964
 H 0.1124 0.9955 0.3322   0.0442
 H 0.1655 0.863 0.3897   0.103707
 H 0.2291 0.9338 0.3747   0.090779
 H 0.3241 0.8872 0.3024   0.13632
 H 0.3488 0.8214 0.2165   0.077586
 H 0.0998 0.7888 0.1909   0.056606
 H 0.0674 0.8508 0.2778   0.123767
 H 0.5582 0.5626 0.2214   0.108301
 H 0.4947 0.5786 0.9386   0.12784
 H 0.47 0.447 0.8945   0.108904
 H 0.0923 0.7161 0.0477   0.058458
 H 0.9691 0.6442 0.038   0.129974
 H 0.041 0.5214 0.1726   0.114739
 H 0.1644 0.6 0.1815   0.069647
 H 0.8701 0.5432 0.0737   0.096195
 H 0.9338 0.4765 0.0507   0.089982
 H 0.9472 0.4278 0.1433   0.044963
 H 0.8876 0.4955 0.1678   0.0442
 H 0.8345 0.363 0.1103   0.103707
 H 0.7709 0.4338 0.1253   0.090779
 H 0.6759 0.3872 0.1976   0.13632
 H 0.6512 0.3214 0.2835   0.077586
 H 0.9002 0.2888 0.3091   0.056606
 H 0.9326 0.3508 0.2222   0.123767
 H 0.4418 0.9374 0.2214   0.108301
 H 0.5053 0.9214 0.9386   0.127842
 H 0.53 0.053 0.8945   0.108904
 H 0.9077 0.7839 0.0477   0.058459
 H 0.0309 0.8558 0.038   0.129975
 H 0.959 0.9786 0.1726   0.114739
 H 0.8356 0.9 0.1815   0.069647
 H 0.1299 0.9568 0.0737   0.096195
 H 0.0662 0.0235 0.0507   0.089982
 H 0.0528 0.0722 0.1433   0.044964
 H 0.1124 0.0045 0.1678   0.0442
 H 0.1655 0.137 0.1103   0.103707
 H 0.2291 0.0662 0.1253   0.090779
 H 0.3241 0.1128 0.1976   0.13632
 H 0.3488 0.1786 0.2835   0.077586
 H 0.0998 0.2112 0.3091   0.056606
 H 0.0674 0.1492 0.2222   0.123768
 H 0.4418 0.5626 0.7214   0.108302
 H 0.5053 0.5786 0.4386   0.12784
 H 0.53 0.447 0.3945   0.108904
 H 0.9077 0.7161 0.5477   0.058459
 H 0.0309 0.6442 0.538   0.129975
 H 0.959 0.5214 0.6726   0.114738
 H 0.8356 0.6 0.6815   0.069646
 H 0.1299 0.5432 0.5737   0.096196
 H 0.0662 0.4765 0.5507   0.089983
 H 0.0528 0.4278 0.6433   0.044964
 H 0.1124 0.4955 0.6678   0.0442
 H 0.1655 0.363 0.6103   0.103708
 H 0.2291 0.4338 0.6253   0.09078
 H 0.3241 0.3872 0.6976   0.13632
 H 0.3488 0.3214 0.7835   0.077586
 H 0.0998 0.2888 0.8091   0.056606
 H 0.0674 0.3508 0.7222   0.123767
 H 0.5582 0.9374 0.7214   0.108302
 H 0.4947 0.9214 0.4386   0.127843
 H 0.47 0.053 0.3945   0.108904
 H 0.0923 0.7839 0.5477   0.05846
 H 0.9691 0.8558 0.538   0.129976
 H 0.041 0.9786 0.6726   0.114738
 H 0.1644 0.9 0.6815   0.069646
 H 0.8701 0.9568 0.5737   0.096196
 H 0.9338 0.0235 0.5507   0.089983
 H 0.9472 0.0722 0.6433   0.044964
 H 0.8876 0.0045 0.6678   0.0442
 H 0.8345 0.137 0.6103   0.103709
 H 0.7709 0.0662 0.6253   0.09078
 H 0.6759 0.1128 0.6976   0.136321
 H 0.6512 0.1786 0.7835   0.077586
 H 0.9002 0.2112 0.8091   0.056606
 H 0.9326 0.1492 0.7222   0.123767
 H 0.4418 0.4374 0.7786   0.108301
 H 0.5053 0.4214 0.0614   0.12784
 H 0.53 0.553 0.1055   0.108904
 H 0.9077 0.2839 0.9523   0.058459
 H 0.0309 0.3558 0.962   0.129975
 H 0.959 0.4786 0.8274   0.114739
 H 0.8356 0.4 0.8185   0.069647
 H 0.1299 0.4568 0.9263   0.096196
 H 0.0662 0.5235 0.9493   0.089983
 H 0.0528 0.5722 0.8567   0.044964
 H 0.1124 0.5045 0.8322   0.0442
 H 0.1655 0.637 0.8897   0.103708
 H 0.2291 0.5662 0.8747   0.09078
 H 0.3241 0.6128 0.8024   0.13632
 H 0.3488 0.6786 0.7165   0.077586
 H 0.0998 0.7112 0.6909   0.056606
 H 0.0674 0.6492 0.7778   0.123767
 H 0.5582 0.0626 0.7786   0.108301
 H 0.4947 0.0786 0.0614   0.127843
 H 0.47 0.947 0.1055   0.108904
 H 0.0923 0.2161 0.9523   0.05846
 H 0.9691 0.1442 0.962   0.129976
 H 0.041 0.0214 0.8274   0.114739
 H 0.1644 0.1 0.8185   0.069647
 H 0.8701 0.0432 0.9263   0.096196
 H 0.9338 0.9765 0.9493   0.089983
 H 0.9472 0.9278 0.8567   0.044964
 H 0.8876 0.9955 0.8322   0.0442
 H 0.8345 0.863 0.8897   0.103709
 H 0.7709 0.9338 0.8747   0.09078
 H 0.6759 0.8872 0.8024   0.136321
 H 0.6512 0.8214 0.7165   0.077586
 H 0.9002 0.7888 0.6909   0.056606
 H 0.9326 0.8508 0.7778   0.123768
 C 0.4 0.3678 0.3158   0.704931
 C 0.4242 0.4389 0.2811   -0.178069
 C 0.5069 0.4641 0.2671   -0.076128
 C 0.3788 0.3598 0.4746   0.709709
 C 0.382 0.4313 0.5138   -0.182506
 C 0.446 0.4533 0.5525   -0.07765
 C 0.4319 0.5295 0.5781   -0.041323
 C 0.3558 0.5647 0.558   -0.210755
 C 0.3217 0.6442 0.5749   0.68713
 C 0.0851 0.327 0.4267   0.178673
 C 0.0114 0.3721 0.4345   -0.242475
 C 0.9985 0.4351 0.4058   0.198751
 C 0.0536 0.4412 0.3567   -0.251732
 C 0.127 0.3924 0.3509   0.172274
 C 0.9207 0.4894 0.4156   -0.200427
 C 0.895 0.5406 0.3655   -0.030196
 C 0.8239 0.5939 0.3618   -0.194983
 C 0.8058 0.6295 0.3033   0.187576
 C 0.7232 0.635 0.2818   -0.237415
 C 0.7095 0.6736 0.2293   0.202521
 C 0.8537 0.693 0.2144   0.179073
 C 0.8738 0.6563 0.2666   -0.266394
 C 0.6 0.1322 0.3158   0.704931
 C 0.5758 0.0611 0.2811   -0.178069
 C 0.4931 0.0359 0.2671   -0.076128
 C 0.6212 0.1402 0.4746   0.709709
 C 0.618 0.0687 0.5138   -0.182505
 C 0.554 0.0467 0.5525   -0.077651
 C 0.5681 0.9705 0.5781   -0.041323
 C 0.6442 0.9353 0.558   -0.210755
 C 0.6783 0.8558 0.5749   0.68713
 C 0.9149 0.173 0.4267   0.178673
 C 0.9886 0.1279 0.4345   -0.242476
 C 0.0015 0.0649 0.4058   0.198751
 C 0.9464 0.0588 0.3567   -0.251732
 C 0.873 0.1076 0.3509   0.172273
 C 0.0793 0.0106 0.4156   -0.200427
 C 0.105 0.9594 0.3655   -0.030196
 C 0.1761 0.9061 0.3618   -0.194983
 C 0.1942 0.8705 0.3033   0.187576
 C 0.2768 0.865 0.2818   -0.237415
 C 0.2905 0.8264 0.2293   0.202521
 C 0.1463 0.807 0.2144   0.179073
 C 0.1262 0.8437 0.2666   -0.266394
 C 0.4 0.6322 0.1842   0.704931
 C 0.4242 0.5611 0.2189   -0.17807
 C 0.5069 0.5359 0.2329   -0.076124
 C 0.3788 0.6402 0.0254   0.709709
 C 0.382 0.5687 0.9862   -0.182505
 C 0.446 0.5467 0.9475   -0.07765
 C 0.4319 0.4705 0.9219   -0.041323
 C 0.3558 0.4353 0.942   -0.210755
 C 0.3217 0.3558 0.9251   0.68713
 C 0.0851 0.673 0.0733   0.178673
 C 0.0114 0.6279 0.0655   -0.242475
 C 0.9985 0.5649 0.0942   0.198751
 C 0.0536 0.5588 0.1433   -0.251732
 C 0.127 0.6076 0.1491   0.172273
 C 0.9207 0.5106 0.0844   -0.200427
 C 0.895 0.4594 0.1345   -0.030196
 C 0.8239 0.4061 0.1382   -0.194983
 C 0.8058 0.3705 0.1967   0.187576
 C 0.7232 0.365 0.2182   -0.237415
 C 0.7095 0.3264 0.2707   0.202521
 C 0.8537 0.307 0.2856   0.179073
 C 0.8738 0.3437 0.2334   -0.266394
 C 0.6 0.8678 0.1842   0.704931
 C 0.5758 0.9389 0.2189   -0.17807
 C 0.4931 0.9641 0.2329   -0.076124
 C 0.6212 0.8598 0.0254   0.709709
 C 0.618 0.9313 0.9862   -0.182505
 C 0.554 0.9533 0.9475   -0.077651
 C 0.5681 0.0295 0.9219   -0.041323
 C 0.6442 0.0647 0.942   -0.210755
 C 0.6783 0.1442 0.9251   0.68713
 C 0.9149 0.827 0.0733   0.178673
 C 0.9886 0.8721 0.0655   -0.242476
 C 0.0015 0.9351 0.0942   0.198751
 C 0.9464 0.9412 0.1433   -0.251732
 C 0.873 0.8924 0.1491   0.172273
 C 0.0793 0.9894 0.0844   -0.200427
 C 0.105 0.0406 0.1345   -0.030196
 C 0.1761 0.0939 0.1382   -0.194983
 C 0.1942 0.1295 0.1967   0.187576
 C 0.2768 0.135 0.2182   -0.237415
 C 0.2905 0.1736 0.2707   0.202521
 C 0.1463 0.193 0.2856   0.179073
 C 0.1262 0.1563 0.2334   -0.266394
 C 0.6 0.6322 0.6842   0.704931
 C 0.5758 0.5611 0.7189   -0.178069
 C 0.4931 0.5359 0.7329   -0.076128
 C 0.6212 0.6402 0.5254   0.70971
 C 0.618 0.5687 0.4862   -0.182505
 C 0.554 0.5467 0.4475   -0.07765
 C 0.5681 0.4705 0.4219   -0.041323
 C 0.6442 0.4353 0.442   -0.210755
 C 0.6783 0.3558 0.4251   0.68713
 C 0.9149 0.673 0.5733   0.178673
 C 0.9886 0.6279 0.5655   -0.242476
 C 0.0015 0.5649 0.5942   0.198751
 C 0.9464 0.5588 0.6433   -0.251732
 C 0.873 0.6076 0.6491   0.172274
 C 0.0793 0.5106 0.5844   -0.200427
 C 0.105 0.4594 0.6345   -0.030196
 C 0.1761 0.4061 0.6382   -0.194984
 C 0.1942 0.3705 0.6967   0.187576
 C 0.2768 0.365 0.7182   -0.237415
 C 0.2905 0.3264 0.7707   0.202521
 C 0.1463 0.307 0.7856   0.179073
 C 0.1262 0.3437 0.7334   -0.266394
 C 0.4 0.8678 0.6842   0.704931
 C 0.4242 0.9389 0.7189   -0.178069
 C 0.5069 0.9641 0.7329   -0.076128
 C 0.3788 0.8598 0.5254   0.70971
 C 0.382 0.9313 0.4862   -0.182505
 C 0.446 0.9533 0.4475   -0.077651
 C 0.4319 0.0295 0.4219   -0.041323
 C 0.3558 0.0647 0.442   -0.210755
 C 0.3217 0.1442 0.4251   0.68713
 C 0.0851 0.827 0.5733   0.178673
 C 0.0114 0.8721 0.5655   -0.242476
 C 0.9985 0.9351 0.5942   0.198751
 C 0.0536 0.9412 0.6433   -0.251732
 C 0.127 0.8924 0.6491   0.172274
 C 0.9207 0.9894 0.5844   -0.200427
 C 0.895 0.0406 0.6345   -0.030196
 C 0.8239 0.0939 0.6382   -0.194984
 C 0.8058 0.1295 0.6967   0.187576
 C 0.7232 0.135 0.7182   -0.237415
 C 0.7095 0.1736 0.7707   0.202521
 C 0.8537 0.193 0.7856   0.179073
 C 0.8738 0.1563 0.7334   -0.266394
 C 0.6 0.3678 0.8158   0.704931
 C 0.5758 0.4389 0.7811   -0.17807
 C 0.4931 0.4641 0.7671   -0.076124
 C 0.6212 0.3598 0.9746   0.70971
 C 0.618 0.4313 0.0138   -0.182505
 C 0.554 0.4533 0.0525   -0.07765
 C 0.5681 0.5295 0.0781   -0.041323
 C 0.6442 0.5647 0.058   -0.210755
 C 0.6783 0.6442 0.0749   0.68713
 C 0.9149 0.327 0.9267   0.178673
 C 0.9886 0.3721 0.9345   -0.242476
 C 0.0015 0.4351 0.9058   0.198751
 C 0.9464 0.4412 0.8567   -0.251732
 C 0.873 0.3924 0.8509   0.172273
 C 0.0793 0.4894 0.9156   -0.200427
 C 0.105 0.5406 0.8655   -0.030196
 C 0.1761 0.5939 0.8618   -0.194984
 C 0.1942 0.6295 0.8033   0.187576
 C 0.2768 0.635 0.7818   -0.237415
 C 0.2905 0.6736 0.7293   0.202521
 C 0.1463 0.693 0.7144   0.179073
 C 0.1262 0.6563 0.7666   -0.266394
 C 0.4 0.1322 0.8158   0.704931
 C 0.4242 0.0611 0.7811   -0.17807
 C 0.5069 0.0359 0.7671   -0.076124
 C 0.3788 0.1402 0.9746   0.70971
 C 0.382 0.0687 0.0138   -0.182505
 C 0.446 0.0467 0.0525   -0.077651
 C 0.4319 0.9705 0.0781   -0.041323
 C 0.3558 0.9353 0.058   -0.210755
 C 0.3217 0.8558 0.0749   0.68713
 C 0.0851 0.173 0.9267   0.178673
 C 0.0114 0.1279 0.9345   -0.242476
 C 0.9985 0.0649 0.9058   0.198751
 C 0.0536 0.0588 0.8567   -0.251732
 C 0.127 0.1076 0.8509   0.172273
 C 0.9207 0.0106 0.9156   -0.200427
 C 0.895 0.9594 0.8655   -0.030196
 C 0.8239 0.9061 0.8618   -0.194984
 C 0.8058 0.8705 0.8033   0.187576
 C 0.7232 0.865 0.7818   -0.237415
 C 0.7095 0.8264 0.7293   0.202521
 C 0.8537 0.807 0.7144   0.179073
 C 0.8738 0.8437 0.7666   -0.266394
 S 0.30148 0.50399 0.50779   0.123582
 S 0.69852 0.99601 0.50779   0.123582
 S 0.30148 0.49601 0.99221   0.123582
 S 0.69852 0.00399 0.99221   0.123582
 S 0.69852 0.49601 0.49221   0.123582
 S 0.30148 0.00399 0.49221   0.123582
 S 0.69852 0.50399 0.00779   0.123582
 S 0.30148 0.99601 0.00779   0.123582
 S 0.34463 0.5 0.25   0.109416
 S 0.65537 0.0 0.25   0.109416
 S 0.65537 0.5 0.75   0.109416
 S 0.34463 0.0 0.75   0.109416
 N 0.1456 0.3376 0.388   -0.318601
 N 0.7717 0.7045 0.195   -0.357594
 N 0.8544 0.1624 0.388   -0.318601
 N 0.2283 0.7955 0.195   -0.357594
 N 0.1456 0.6624 0.112   -0.318601
 N 0.7717 0.2955 0.305   -0.357594
 N 0.8544 0.8376 0.112   -0.318601
 N 0.2283 0.2045 0.305   -0.357594
 N 0.8544 0.6624 0.612   -0.318601
 N 0.2283 0.2955 0.805   -0.357594
 N 0.1456 0.8376 0.612   -0.318601
 N 0.7717 0.2045 0.805   -0.357594
 N 0.8544 0.3376 0.888   -0.318601
 N 0.2283 0.7045 0.695   -0.357594
 N 0.1456 0.1624 0.888   -0.318601
 N 0.7717 0.7955 0.695   -0.357594
 O 0.4623 0.3285 0.3364   -0.601936
 O 0.3186 0.3542 0.3231   -0.597753
 O 0.4508 0.3226 0.4684   -0.599815
 O 0.3052 0.344 0.4522   -0.600546
 O 0.3733 0.6906 0.604   -0.634672
 O 0.2432 0.6643 0.5636   -0.57801
 O 0.5377 0.1715 0.3364   -0.601936
 O 0.6814 0.1458 0.3231   -0.597753
 O 0.5492 0.1774 0.4684   -0.599812
 O 0.6948 0.156 0.4522   -0.600545
 O 0.6267 0.8094 0.604   -0.634672
 O 0.7568 0.8357 0.5636   -0.57801
 O 0.4623 0.6715 0.1636   -0.601937
 O 0.3186 0.6458 0.1769   -0.597753
 O 0.4508 0.6774 0.0316   -0.599815
 O 0.3052 0.656 0.0478   -0.600546
 O 0.3733 0.3094 0.896   -0.634672
 O 0.2432 0.3357 0.9364   -0.57801
 O 0.5377 0.8285 0.1636   -0.601936
 O 0.6814 0.8542 0.1769   -0.597753
 O 0.5492 0.8226 0.0316   -0.599812
 O 0.6948 0.844 0.0478   -0.600545
 O 0.6267 0.1906 0.896   -0.634672
 O 0.7568 0.1643 0.9364   -0.57801
 O 0.5377 0.6715 0.6636   -0.601936
 O 0.6814 0.6458 0.6769   -0.597753
 O 0.5492 0.6774 0.5316   -0.599815
 O 0.6948 0.656 0.5478   -0.600546
 O 0.6267 0.3094 0.396   -0.634671
 O 0.7568 0.3357 0.4364   -0.57801
 O 0.4623 0.8285 0.6636   -0.601935
 O 0.3186 0.8542 0.6769   -0.597753
 O 0.4508 0.8226 0.5316   -0.599812
 O 0.3052 0.844 0.5478   -0.600546
 O 0.3733 0.1906 0.396   -0.634671
 O 0.2432 0.1643 0.4364   -0.57801
 O 0.5377 0.3285 0.8364   -0.601936
 O 0.6814 0.3542 0.8231   -0.597753
 O 0.5492 0.3226 0.9684   -0.599815
 O 0.6948 0.344 0.9522   -0.600546
 O 0.6267 0.6906 0.104   -0.634671
 O 0.7568 0.6643 0.0636   -0.57801
 O 0.4623 0.1715 0.8364   -0.601935
 O 0.3186 0.1458 0.8231   -0.597753
 O 0.4508 0.1774 0.9684   -0.599812
 O 0.3052 0.156 0.9522   -0.600546
 O 0.3733 0.8094 0.104   -0.634671
 O 0.2432 0.8357 0.0636   -0.57801
