{'_ref': 'TBD', '_srcid': 'CAKYAQ_clean', 'submitters': [{'name': 'Dalar Nazarian Jeff Camp and David Sholl', 'email': 'dalar@gatech.edu jcamp6@gatech.edu'}], '_method': 'VASP DFT with PBE;DDEC'}
data_CdH2C2N3Cl
_symmetry_space_group_name_H-M   'P 1'
_cell_length_a   8.44130000
_cell_length_b   8.44129981
_cell_length_c   16.68800000
_cell_angle_alpha   90.00000000
_cell_angle_beta   90.00000000
_cell_angle_gamma   90.78229671
_symmetry_Int_Tables_number   1
_chemical_formula_structural   CdH2C2N3Cl
_chemical_formula_sum   'Cd6 H12 C12 N18 Cl6'
_cell_volume   1189.00168303
_cell_formula_units_Z   6
loop_
 _symmetry_equiv_pos_site_id
 _symmetry_equiv_pos_as_xyz
  1  'x, y, z'
loop_
 _atom_site_label
 _atom_site_fract_x
 _atom_site_fract_y
 _atom_site_fract_z
 _atom_site_charge
 Cd 0.93855 0.06145 0.32061   0.897132
 Cd 0.30719 0.69281 0.1798   0.900327
 Cd 0.62063 0.37937 0.28458   0.780248
 Cd 0.06145 0.93855 0.82061   0.897132
 Cd 0.69281 0.30719 0.6798   0.900327
 Cd 0.37937 0.62063 0.78458   0.780248
 H 0.6698 0.776 0.2581   0.061163
 H 0.3628 0.0938 0.1999   0.071309
 H 0.3302 0.224 0.7581   0.061163
 H 0.6372 0.9062 0.6999   0.071309
 H 0.776 0.6698 0.7581   0.061162
 H 0.0938 0.3628 0.6999   0.071308
 H 0.224 0.3302 0.2581   0.061162
 H 0.9062 0.6372 0.1999   0.071308
 H 0.5758 0.4242 0.4891   0.080214
 H 0.8949 0.1051 0.5291   0.074865
 H 0.4242 0.5758 0.9891   0.080214
 H 0.1051 0.8949 0.0291   0.074865
 C 0.6215 0.8731 0.25   0.286552
 C 0.4546 0.046 0.2181   0.261483
 C 0.3785 0.1269 0.75   0.286552
 C 0.5454 0.954 0.7181   0.261483
 C 0.8731 0.6215 0.75   0.286557
 C 0.046 0.4546 0.7181   0.261483
 C 0.1269 0.3785 0.25   0.286557
 C 0.954 0.5454 0.2181   0.261483
 C 0.6526 0.3474 0.4825   0.279124
 C 0.8256 0.1744 0.5044   0.277997
 C 0.3474 0.6526 0.9825   0.279124
 C 0.1744 0.8256 0.0044   0.277997
 N 0.6882 0.0114 0.2692   -0.313621
 N 0.5786 0.126 0.2473   -0.238992
 N 0.4764 0.8884 0.2177   -0.445147
 N 0.3118 0.9886 0.7692   -0.313621
 N 0.4214 0.874 0.7473   -0.238992
 N 0.5236 0.1116 0.7177   -0.445147
 N 0.0114 0.6882 0.7692   -0.313623
 N 0.126 0.5786 0.7473   -0.238992
 N 0.8884 0.4764 0.7177   -0.44515
 N 0.9886 0.3118 0.2692   -0.313623
 N 0.874 0.4214 0.2473   -0.238992
 N 0.1116 0.5236 0.2177   -0.44515
 N 0.7018 0.2982 0.4133   -0.24444
 N 0.8128 0.1872 0.4284   -0.308644
 N 0.728 0.272 0.5455   -0.469328
 N 0.2982 0.7018 0.9133   -0.24444
 N 0.1872 0.8128 0.9284   -0.308644
 N 0.272 0.728 0.0455   -0.469328
 Cl 0.0761 0.9239 0.2006   -0.514649
 Cl 0.4312 0.5688 0.3437   -0.563739
 Cl 0.52 0.48 0.1428   -0.5546
 Cl 0.9239 0.0761 0.7006   -0.514649
 Cl 0.5688 0.4312 0.8437   -0.563739
 Cl 0.48 0.52 0.6428   -0.5546
