{'_ref': 'TBD', '_srcid': 'CAKYAQ_clean', 'submitters': [{'name': 'Dalar Nazarian Jeff Camp and David Sholl', 'email': 'dalar@gatech.edu jcamp6@gatech.edu'}], '_method': 'VASP DFT with PBE;DDEC'}
data_ZnH10C10(NO4)2
_symmetry_space_group_name_H-M   'P 1'
_cell_length_a   9.59200037
_cell_length_b   9.59200036
_cell_length_c   11.02100000
_cell_angle_alpha   91.42040220
_cell_angle_beta   91.42040220
_cell_angle_gamma   105.97950168
_symmetry_Int_Tables_number   1
_chemical_formula_structural   ZnH10C10(NO4)2
_chemical_formula_sum   'Zn2 H20 C20 N4 O16'
_cell_volume   973.99561129
_cell_formula_units_Z   2
loop_
 _symmetry_equiv_pos_site_id
 _symmetry_equiv_pos_as_xyz
  1  'x, y, z'
loop_
 _atom_site_label
 _atom_site_fract_x
 _atom_site_fract_y
 _atom_site_fract_z
 _atom_site_charge
 Zn 0.5004 0.50223 0.25294   1.18079
 Zn 0.49737 0.50519 0.75283   1.178486
 H 0.53224 0.05328 0.72487   0.107831
 H 0.94967 0.47211 0.78089   0.108019
 H 0.46491 0.95391 0.28103   0.104669
 H 0.04809 0.53537 0.22502   0.106524
 H 0.87683 0.8125 0.45711   0.383344
 H 0.8277 0.8124 0.6048   0.391002
 H 0.91883 0.69347 0.55463   0.420628
 H 0.23865 0.12743 0.86195   0.396683
 H 0.22585 0.22436 0.99106   0.403459
 H 0.36191 0.1424 0.97909   0.450843
 H 0.14643 0.26064 0.36742   0.394972
 H 0.08093 0.35478 0.47486   0.425437
 H 0.24719 0.32575 0.49659   0.433959
 H 0.7706 0.9203 0.9679   0.390109
 H 0.68071 0.89774 0.10075   0.421164
 H 0.8283 0.83319 0.08391   0.382795
 H 0.67011 0.75195 0.00574   0.445045
 H 0.74322 0.67156 0.50788   0.447558
 H 0.09423 0.18478 0.50314   0.370189
 H 0.18743 0.03998 0.9933   0.378394
 C 0.5002 0.1196 0.42384   -0.101903
 C 0.49341 0.23512 0.3368   0.608246
 C 0.51988 0.14573 0.55117   -0.078069
 C 0.51655 0.03027 0.62786   -0.118951
 C 0.54489 0.29085 0.609   0.670884
 C 0.88276 0.50182 0.08207   -0.113458
 C 0.76723 0.50799 0.16923   0.598682
 C 0.8569 0.48353 0.95461   -0.077486
 C 0.97248 0.48715 0.87796   -0.112903
 C 0.71181 0.4588 0.89663   0.66651
 C 0.49697 0.88757 0.58207   -0.109895
 C 0.50341 0.77209 0.66921   0.600228
 C 0.47761 0.86147 0.45468   -0.07986
 C 0.48073 0.97691 0.37803   -0.114989
 C 0.453 0.71636 0.39679   0.66929
 C 0.11502 0.5059 0.92385   -0.106652
 C 0.23052 0.49914 0.83678   0.601457
 C 0.14092 0.52452 0.05127   -0.089939
 C 0.02531 0.52066 0.12794   -0.116946
 C 0.28605 0.54941 0.1091   0.673974
 N 0.84177 0.74755 0.53114   -0.735089
 N 0.25344 0.13359 0.95634   -0.714793
 N 0.14216 0.28149 0.46049   -0.719609
 N 0.73744 0.85087 0.0396   -0.732938
 O 0.51564 0.37894 0.37576   -0.646359
 O 0.46748 0.20416 0.22912   -0.60692
 O 0.65347 0.38696 0.58786   -0.547837
 O 0.44741 0.31601 0.69235   -0.780619
 O 0.62366 0.48712 0.13017   -0.634181
 O 0.79793 0.53226 0.27709   -0.604512
 O 0.61533 0.35067 0.91812   -0.54752
 O 0.68692 0.55592 0.81281   -0.776383
 O 0.48155 0.62835 0.63019   -0.642284
 O 0.52876 0.80294 0.77693   -0.603258
 O 0.34473 0.61993 0.41809   -0.547418
 O 0.55046 0.69157 0.31327   -0.783135
 O 0.37409 0.51978 0.87591   -0.634028
 O 0.1998 0.47468 0.72893   -0.608034
 O 0.38225 0.65791 0.08791   -0.548504
 O 0.31122 0.45187 0.19239   -0.776704
