{'_ref': 'TBD', '_srcid': 'CAKYAQ_clean', 'submitters': [{'name': 'Dalar Nazarian Jeff Camp and David Sholl', 'email': 'dalar@gatech.edu jcamp6@gatech.edu'}], '_method': 'VASP DFT with PBE;DDEC'}
data_KMnH16(C4O5)3
_symmetry_space_group_name_H-M   'P 1'
_cell_length_a   5.84780025
_cell_length_b   9.10800054
_cell_length_c   11.03490000
_cell_angle_alpha   91.71300132
_cell_angle_beta   93.05400049
_cell_angle_gamma   97.67200140
_symmetry_Int_Tables_number   1
_chemical_formula_structural   KMnH16(C4O5)3
_chemical_formula_sum   'K1 Mn1 H16 C12 O15'
_cell_volume   581.243136489
_cell_formula_units_Z   1
loop_
 _symmetry_equiv_pos_site_id
 _symmetry_equiv_pos_as_xyz
  1  'x, y, z'
loop_
 _atom_site_label
 _atom_site_fract_x
 _atom_site_fract_y
 _atom_site_fract_z
 _atom_site_charge
 K 0.1779 0.9542 0.5748   0.808953
 Mn 0.5568 0.85471 0.84498   0.906539
 H 0.166 0.937 0.865   0.39756
 H 0.116 0.297 0.658   0.346526
 H 0.752 0.593 0.781   0.40261
 H 0.9 0.626 0.561   0.367025
 H 0.025 0.937 0.302   0.348787
 H 0.377 0.844 0.072   0.391895
 H 0.565 0.855 0.638   0.362815
 H 0.704 0.991 0.632   0.321749
 H 0.2687 0.1544 0.9689   0.07345
 H 0.055 0.2887 0.8517   0.060887
 H 0.3663 0.449 0.9235   0.074618
 H 0.4661 0.4683 0.6751   0.075327
 H 0.7424 0.5505 0.3933   -0.02792
 H 0.0049 0.6876 0.2808   0.053674
 H 0.6828 0.9482 0.1715   0.05222
 H 0.6644 0.6396 0.1622   0.070624
 C 0.5582 0.19 0.8737   0.483006
 C 0.3034 0.1496 0.8849   0.089981
 C 0.2009 0.2699 0.8184   0.172202
 C 0.3938 0.4011 0.8479   0.086724
 C 0.4351 0.5168 0.7519   0.045361
 C 0.2217 0.5989 0.7343   0.626022
 C 0.5138 0.7021 0.3932   0.521042
 C 0.7517 0.6578 0.4083   0.108883
 C 0.8784 0.7389 0.3077   0.173847
 C 0.6881 0.8585 0.1245   0.078376
 C 0.6789 0.7308 0.2096   0.089347
 C 0.9107 0.875 0.0551   0.596282
 O 0.7017 0.1076 0.8697   -0.466415
 O 0.6094 0.3331 0.8596   -0.298584
 O 0.2496 0.0051 0.8369   -0.571271
 O 0.1731 0.2316 0.6947   -0.65547
 O 0.6282 0.6231 0.7906   -0.534154
 O 0.0363 0.5197 0.6947   -0.601146
 O 0.2435 0.7332 0.7607   -0.59207
 O 0.3806 0.716 0.4718   -0.534109
 O 0.4707 0.7362 0.2782   -0.301785
 O 0.8472 0.696 0.5282   -0.532386
 O 0.9584 0.8855 0.352   -0.667534
 O 0.4951 0.8339 0.0372   -0.548652
 O 0.892 0.8608 0.9412   -0.544733
 O 0.0969 0.9026 0.1176   -0.600275
 O 0.6867 0.9092 0.6676   -0.70983
