{'_ref': 'TBD', '_srcid': 'CAKYAQ_clean', 'submitters': [{'name': 'Dalar Nazarian Jeff Camp and David Sholl', 'email': 'dalar@gatech.edu jcamp6@gatech.edu'}], '_method': 'VASP DFT with PBE;DDEC'}
data_Nd2H18(C5O4)3
_symmetry_space_group_name_H-M   'P 1'
_cell_length_a   8.06100020
_cell_length_b   8.54967714
_cell_length_c   19.74000000
_cell_angle_alpha   88.25667398
_cell_angle_beta   86.29999964
_cell_angle_gamma   61.87359158
_symmetry_Int_Tables_number   1
_chemical_formula_structural   Nd2H18(C5O4)3
_chemical_formula_sum   'Nd4 H36 C30 O24'
_cell_volume   1197.30204072
_cell_formula_units_Z   2
loop_
 _symmetry_equiv_pos_site_id
 _symmetry_equiv_pos_as_xyz
  1  'x, y, z'
loop_
 _atom_site_label
 _atom_site_fract_x
 _atom_site_fract_y
 _atom_site_fract_z
 _atom_site_charge
 Nd 0.7833 0.92454 0.01188   2.291087
 Nd 0.29216 0.92454 0.48812   2.291134
 Nd 0.2167 0.07546 0.98812   2.291087
 Nd 0.70784 0.07546 0.51188   2.291133
 H 0.093 0.714 0.162   0.123691
 H 0.239 0.756 0.199   0.135847
 H 0.4 0.452 0.175   0.071402
 H 0.488 0.542 0.122   0.076696
 H 0.21 0.444 0.091   0.129919
 H 0.301 0.532 0.038   0.14281
 H 0.892 0.552 0.209   0.117734
 H 0.721 0.534 0.18   0.121886
 H 0.507 0.81 0.233   0.073337
 H 0.193 0.714 0.338   0.12364
 H 0.005 0.756 0.301   0.136169
 H 0.148 0.452 0.325   0.071812
 H 0.97 0.542 0.378   0.077117
 H 0.346 0.444 0.409   0.129595
 H 0.167 0.532 0.462   0.14267
 H 0.556 0.552 0.291   0.117552
 H 0.745 0.534 0.32   0.122023
 H 0.683 0.81 0.267   0.073354
 H 0.907 0.286 0.838   0.123691
 H 0.761 0.244 0.801   0.135847
 H 0.6 0.548 0.825   0.071402
 H 0.512 0.458 0.878   0.076696
 H 0.79 0.556 0.909   0.129919
 H 0.699 0.468 0.962   0.14281
 H 0.108 0.448 0.791   0.117734
 H 0.279 0.466 0.82   0.121886
 H 0.493 0.19 0.767   0.073337
 H 0.807 0.286 0.662   0.12364
 H 0.995 0.244 0.699   0.136169
 H 0.852 0.548 0.675   0.071812
 H 0.03 0.458 0.622   0.077117
 H 0.654 0.556 0.591   0.129595
 H 0.833 0.468 0.538   0.14267
 H 0.444 0.448 0.709   0.117552
 H 0.255 0.466 0.68   0.122023
 H 0.317 0.19 0.733   0.073354
 C 0.1955 0.8514 0.1019   0.812919
 C 0.2127 0.7186 0.1553   -0.357798
 C 0.3746 0.5318 0.1354   -0.008579
 C 0.3259 0.4514 0.0779   -0.370768
 C 0.4796 0.2726 0.0573   0.81866
 C 0.7709 0.7256 0.1298   0.728855
 C 0.7644 0.619 0.1921   -0.338201
 C 0.9531 0.8514 0.3981   0.813443
 C 0.0687 0.7186 0.3447   -0.358639
 C 0.0936 0.5318 0.3646   -0.00931
 C 0.2227 0.4514 0.4221   -0.369863
 C 0.2478 0.2726 0.4427   0.817861
 C 0.5035 0.7256 0.3702   0.729991
 C 0.6166 0.619 0.3079   -0.339
 C 0.8045 0.1486 0.8981   0.812919
 C 0.7873 0.2814 0.8447   -0.357798
 C 0.6254 0.4682 0.8646   -0.008579
 C 0.6741 0.5486 0.9221   -0.370768
 C 0.5204 0.7274 0.9427   0.81866
 C 0.2291 0.2744 0.8702   0.728855
 C 0.2356 0.381 0.8079   -0.338201
 C 0.0469 0.1486 0.6019   0.813443
 C 0.9313 0.2814 0.6553   -0.358639
 C 0.9064 0.4682 0.6354   -0.00931
 C 0.7773 0.5486 0.5779   -0.369863
 C 0.7522 0.7274 0.5573   0.817861
 C 0.4965 0.2744 0.6298   0.729991
 C 0.3834 0.381 0.6921   -0.339
 C 0.6331 0.7338 0.25   -0.02863
 C 0.3669 0.2662 0.75   -0.02863
 O 0.0582 0.9102 0.0621   -0.904464
 O 0.6825 0.0984 0.9058   -0.673828
 O 0.4346 0.1604 0.034   -0.871099
 O 0.65 0.2328 0.0607   -0.672397
 O 0.7095 0.8896 0.1328   -0.677071
 O 0.8451 0.6452 0.074   -0.756171
 O 0.0316 0.9102 0.4379   -0.904297
 O 0.2191 0.0984 0.5942   -0.673994
 O 0.405 0.1604 0.466   -0.870608
 O 0.1172 0.2328 0.4393   -0.672454
 O 0.4009 0.8896 0.3672   -0.677395
 O 0.5097 0.6452 0.426   -0.756637
 O 0.9418 0.0898 0.9379   -0.904464
 O 0.3175 0.9016 0.0942   -0.673828
 O 0.5654 0.8396 0.966   -0.871099
 O 0.35 0.7672 0.9393   -0.672397
 O 0.2905 0.1104 0.8672   -0.677071
 O 0.1549 0.3548 0.926   -0.756171
 O 0.9684 0.0898 0.5621   -0.904297
 O 0.7809 0.9016 0.4058   -0.673994
 O 0.595 0.8396 0.534   -0.870608
 O 0.8828 0.7672 0.5607   -0.672454
 O 0.5991 0.1104 0.6328   -0.677395
 O 0.4903 0.3548 0.574   -0.756637
