{'_ref': 'TBD', '_srcid': 'CAKYAQ_clean', 'submitters': [{'name': 'Dalar Nazarian Jeff Camp and David Sholl', 'email': 'dalar@gatech.edu jcamp6@gatech.edu'}], '_method': 'VASP DFT with PBE;DDEC'}
data_NiH5C9O5
_symmetry_space_group_name_H-M   'P 1'
_cell_length_a   13.34639994
_cell_length_b   13.89450000
_cell_length_c   14.56500000
_cell_angle_alpha   90.00000000
_cell_angle_beta   114.55300164
_cell_angle_gamma   90.00000000
_symmetry_Int_Tables_number   1
_chemical_formula_structural   NiH5C9O5
_chemical_formula_sum   'Ni8 H40 C72 O40'
_cell_volume   2456.72839287
_cell_formula_units_Z   8
loop_
 _symmetry_equiv_pos_site_id
 _symmetry_equiv_pos_as_xyz
  1  'x, y, z'
loop_
 _atom_site_label
 _atom_site_fract_x
 _atom_site_fract_y
 _atom_site_fract_z
 _atom_site_charge
 Ni 0.4767 0.59877 0.23692   1.010639
 Ni 0.65827 0.73417 0.42509   0.95418
 Ni 0.0233 0.09877 0.26308   1.010639
 Ni 0.84173 0.23417 0.07491   0.95418
 Ni 0.5233 0.40123 0.76308   1.010639
 Ni 0.34173 0.26583 0.57491   0.95418
 Ni 0.9767 0.90123 0.73692   1.010639
 Ni 0.15827 0.76583 0.92509   0.95418
 H 0.067 0.1706 0.8194   0.06375
 H 0.9628 0.2337 0.8026   0.07086
 H 0.9645 0.2339 0.4984   0.132445
 H 0.7596 0.3996 0.2707   0.114246
 H 0.8029 0.452 0.5561   0.139262
 H 0.0423 0.2121 0.9742   0.126753
 H 0.2432 0.4215 0.9593   0.142021
 H 0.249 0.3457 0.2277   0.107286
 H 0.9741 0.184 0.648   0.068138
 H 0.0754 0.2539 0.6769   0.076966
 H 0.433 0.6706 0.6806   0.06375
 H 0.5372 0.7337 0.6974   0.07086
 H 0.5355 0.7339 0.0016   0.132445
 H 0.7404 0.8996 0.2293   0.114246
 H 0.6971 0.952 0.9439   0.139262
 H 0.4577 0.7121 0.5258   0.126753
 H 0.2568 0.9215 0.5407   0.142021
 H 0.251 0.8457 0.2723   0.107286
 H 0.5259 0.684 0.852   0.068138
 H 0.4246 0.7539 0.8231   0.076966
 H 0.933 0.8294 0.1806   0.06375
 H 0.0372 0.7663 0.1974   0.07086
 H 0.0355 0.7661 0.5016   0.132444
 H 0.2404 0.6004 0.7293   0.114239
 H 0.1971 0.548 0.4439   0.13926
 H 0.9577 0.7879 0.0258   0.126753
 H 0.7568 0.5785 0.0407   0.142015
 H 0.751 0.6543 0.7723   0.107284
 H 0.0259 0.816 0.352   0.068137
 H 0.9246 0.7461 0.3231   0.076965
 H 0.567 0.3294 0.3194   0.06375
 H 0.4628 0.2663 0.3026   0.07086
 H 0.4645 0.2661 0.9984   0.132444
 H 0.2596 0.1004 0.7707   0.114239
 H 0.3029 0.048 0.0561   0.13926
 H 0.5423 0.2879 0.4742   0.126753
 H 0.7432 0.0785 0.4593   0.142015
 H 0.749 0.1543 0.7277   0.107284
 H 0.4741 0.316 0.148   0.068137
 H 0.5754 0.2461 0.1769   0.076965
 C 0.6944 0.52568 0.3726   0.718139
 C 0.7709 0.4404 0.4083   -0.098817
 C 0.2592 0.39502 0.10154   -0.092107
 C 0.8906 0.3393 0.54321   0.267561
 C 0.031 0.2317 0.7938   0.075264
 C 0.8665 0.3093 0.37307   -0.089669
 C 0.9157 0.2854 0.4759   -0.196204
 C 0.7935 0.3853 0.3392   -0.066462
 C 0.819 0.4162 0.5101   -0.154405
 C 0.0968 0.2577 0.0061   -0.214386
 C 0.2173 0.3832 0.9972   -0.158411
 C 0.137 0.3146 0.9502   0.274726
 C 0.2205 0.3382 0.15797   -0.053847
 C 0.3453 0.4697 0.15285   0.611139
 C 0.0076 0.2423 0.6845   0.078815
 C 0.1391 0.26998 0.11051   -0.100274
 C 0.8952 0.25353 0.2995   0.713944
 C 0.0974 0.21073 0.172   0.677018
 C 0.8056 0.02568 0.1274   0.718139
 C 0.7291 0.9404 0.0917   -0.098817
 C 0.2408 0.89502 0.39846   -0.092107
 C 0.6094 0.8393 0.95679   0.267561
 C 0.469 0.7317 0.7062   0.075264
 C 0.6335 0.8093 0.12693   -0.089669
 C 0.5843 0.7854 0.0241   -0.196204
 C 0.7065 0.8853 0.1608   -0.066462
 C 0.681 0.9162 0.9899   -0.154405
 C 0.4032 0.7577 0.4939   -0.214386
 C 0.2827 0.8832 0.5028   -0.158411
 C 0.363 0.8146 0.5498   0.274726
 C 0.2795 0.8382 0.34203   -0.053847
 C 0.1547 0.9697 0.34715   0.611139
 C 0.4924 0.7423 0.8155   0.078815
 C 0.3609 0.76998 0.38949   -0.100274
 C 0.6048 0.75353 0.2005   0.713944
 C 0.4026 0.71073 0.328   0.677018
 C 0.3056 0.47432 0.6274   0.718139
 C 0.2291 0.5596 0.5917   -0.098819
 C 0.7408 0.60498 0.89846   -0.092109
 C 0.1094 0.6607 0.45679   0.26756
 C 0.969 0.7683 0.2062   0.075265
 C 0.1335 0.6907 0.62693   -0.089672
 C 0.0843 0.7146 0.5241   -0.196202
 C 0.2065 0.6147 0.6608   -0.066461
 C 0.181 0.5838 0.4899   -0.154406
 C 0.9032 0.7423 0.9939   -0.214385
 C 0.7827 0.6168 0.0028   -0.158408
 C 0.863 0.6854 0.0498   0.274726
 C 0.7795 0.6618 0.84203   -0.053847
 C 0.6547 0.5303 0.84715   0.611139
 C 0.9924 0.7577 0.3155   0.078815
 C 0.8609 0.73002 0.88949   -0.100275
 C 0.1048 0.74647 0.7005   0.713945
 C 0.9026 0.78927 0.828   0.677018
 C 0.1944 0.97432 0.8726   0.718139
 C 0.2709 0.0596 0.9083   -0.098819
 C 0.7592 0.10498 0.60154   -0.092109
 C 0.3906 0.1607 0.04321   0.26756
 C 0.531 0.2683 0.2938   0.075265
 C 0.3665 0.1907 0.87307   -0.089672
 C 0.4157 0.2146 0.9759   -0.196202
 C 0.2935 0.1147 0.8392   -0.066461
 C 0.319 0.0838 0.0101   -0.154406
 C 0.5968 0.2423 0.5061   -0.214385
 C 0.7173 0.1168 0.4972   -0.158408
 C 0.637 0.1854 0.4502   0.274726
 C 0.7205 0.1618 0.65797   -0.053847
 C 0.8453 0.0303 0.65285   0.611139
 C 0.5076 0.2577 0.1845   0.078815
 C 0.6391 0.23002 0.61051   -0.100275
 C 0.3952 0.24647 0.7995   0.713944
 C 0.5974 0.28927 0.672   0.677018
 O 0.10117 0.30962 0.8472   -0.285271
 O 0.93391 0.32208 0.64569   -0.290159
 O 0.37774 0.48406 0.24595   -0.532733
 O 0.61359 0.51794 0.28784   -0.577982
 O 0.38592 0.51922 0.1045   -0.537156
 O 0.71731 0.59766 0.4294   -0.602695
 O 0.97383 0.19365 0.33554   -0.558739
 O 0.84266 0.27096 0.2079   -0.622191
 O 0.000689999999999 0.17322 0.1321   -0.662308
 O 0.15567 0.19417 0.26324   -0.529325
 O 0.39883 0.80962 0.6528   -0.285271
 O 0.56609 0.82208 0.85431   -0.290159
 O 0.12226 0.98406 0.25405   -0.532733
 O 0.88641 0.01794 0.21216   -0.577982
 O 0.11408 0.01922 0.3955   -0.537156
 O 0.78269 0.09766 0.0706   -0.602694
 O 0.52617 0.69365 0.16446   -0.558739
 O 0.65734 0.77096 0.2921   -0.622191
 O 0.49931 0.67322 0.3679   -0.662308
 O 0.34433 0.69417 0.23676   -0.529325
 O 0.89883 0.69038 0.1528   -0.285271
 O 0.06609 0.67792 0.35431   -0.290159
 O 0.62226 0.51594 0.75405   -0.532733
 O 0.38641 0.48206 0.71216   -0.577982
 O 0.61408 0.48078 0.8955   -0.537158
 O 0.28269 0.40234 0.5706   -0.602695
 O 0.02617 0.80635 0.66446   -0.558739
 O 0.15734 0.72904 0.7921   -0.622191
 O 0.99931 0.82678 0.8679   -0.662308
 O 0.84433 0.80583 0.73676   -0.529326
 O 0.60117 0.19038 0.3472   -0.285271
 O 0.43391 0.17792 0.14569   -0.290159
 O 0.87774 0.01594 0.74595   -0.532733
 O 0.11359 0.98206 0.78784   -0.577981
 O 0.88592 0.98078 0.6045   -0.537158
 O 0.21731 0.90234 0.9294   -0.602694
 O 0.47383 0.30635 0.83554   -0.558739
 O 0.34266 0.22904 0.7079   -0.622191
 O 0.50069 0.32678 0.6321   -0.662308
 O 0.65567 0.30583 0.76324   -0.529325
