{'_ref': 'TBD', '_srcid': 'CAKYAQ_clean', 'submitters': [{'name': 'Dalar Nazarian Jeff Camp and David Sholl', 'email': 'dalar@gatech.edu jcamp6@gatech.edu'}], '_method': 'VASP DFT with PBE;DDEC'}
data_CdH6(C3N)6
_symmetry_space_group_name_H-M   'P 1'
_cell_length_a   10.88180000
_cell_length_b   12.95149999
_cell_length_c   12.95150000
_cell_angle_alpha   120.00000004
_cell_angle_beta   90.00000000
_cell_angle_gamma   90.00000000
_symmetry_Int_Tables_number   1
_chemical_formula_structural   CdH6(C3N)6
_chemical_formula_sum   'Cd2 H12 C36 N12'
_cell_volume   1580.78028325
_cell_formula_units_Z   2
loop_
 _symmetry_equiv_pos_site_id
 _symmetry_equiv_pos_as_xyz
  1  'x, y, z'
loop_
 _atom_site_label
 _atom_site_fract_x
 _atom_site_fract_y
 _atom_site_fract_z
 _atom_site_charge
 Cd 0.5 0.66667 0.33334   1.099173
 Cd 0.5 0.33333 0.66666   1.099173
 H 0.8973 0.5666 0.1789   0.105176
 H 0.8973 0.6123 0.4334   0.105175
 H 0.8973 0.8211 0.3877   0.105175
 H 0.1027 0.6123 0.1789   0.105176
 H 0.1027 0.8211 0.4334   0.105175
 H 0.1027 0.5666 0.3877   0.105175
 H 0.1027 0.4334 0.8211   0.105176
 H 0.1027 0.3877 0.5666   0.105175
 H 0.1027 0.1789 0.6123   0.105175
 H 0.8973 0.3877 0.8211   0.105176
 H 0.8973 0.1789 0.5666   0.105175
 H 0.8973 0.4334 0.6123   0.105175
 C 0.9385 0.5386 0.1049   -0.130492
 C 0.678 0.4844 0.1061   0.444957
 C 0.9385 0.5663 0.4614   -0.130495
 C 0.678 0.6217 0.5156   0.44498
 C 0.9385 0.8951 0.4337   -0.130495
 C 0.678 0.8939 0.3783   0.444967
 C 0.0615 0.5663 0.1049   -0.130493
 C 0.322 0.6217 0.1061   0.444957
 C 0.0615 0.8951 0.4614   -0.130496
 C 0.322 0.8939 0.5156   0.44498
 C 0.0615 0.5386 0.4337   -0.130495
 C 0.322 0.4844 0.3783   0.444967
 C 0.0615 0.4614 0.8951   -0.130492
 C 0.322 0.5156 0.8939   0.444958
 C 0.0615 0.4337 0.5386   -0.130496
 C 0.322 0.3783 0.4844   0.444981
 C 0.0615 0.1049 0.5663   -0.130495
 C 0.322 0.1061 0.6217   0.444968
 C 0.9385 0.4337 0.8951   -0.130493
 C 0.678 0.3783 0.8939   0.444958
 C 0.9385 0.1049 0.5386   -0.130496
 C 0.678 0.1061 0.4844   0.444981
 C 0.9385 0.4614 0.5663   -0.130495
 C 0.678 0.5156 0.6217   0.444968
 C 0.7436 0.4419 0.0   -0.357904
 C 0.8742 0.4713 0.0   0.145004
 C 0.7436 0.5581 0.5581   -0.357919
 C 0.8742 0.5287 0.5287   0.145006
 C 0.7436 0.0 0.4419   -0.357919
 C 0.8742 0.0 0.4713   0.145006
 C 0.2564 0.5581 0.0   -0.357904
 C 0.1258 0.5287 0.0   0.145004
 C 0.2564 0.0 0.5581   -0.357919
 C 0.1258 0.0 0.5287   0.145007
 C 0.2564 0.4419 0.4419   -0.357919
 C 0.1258 0.4713 0.4713   0.145006
 N 0.6242 0.518 0.192   -0.496372
 N 0.6242 0.674 0.482   -0.496408
 N 0.6242 0.808 0.326   -0.496392
 N 0.3758 0.674 0.192   -0.496372
 N 0.3758 0.808 0.482   -0.496408
 N 0.3758 0.518 0.326   -0.496393
 N 0.3758 0.482 0.808   -0.496372
 N 0.3758 0.326 0.518   -0.496408
 N 0.3758 0.192 0.674   -0.496393
 N 0.6242 0.326 0.808   -0.496372
 N 0.6242 0.192 0.518   -0.496408
 N 0.6242 0.482 0.674   -0.496393
