{'_ref': 'TBD', '_srcid': 'CAKYAQ_clean', 'submitters': [{'name': 'Dalar Nazarian Jeff Camp and David Sholl', 'email': 'dalar@gatech.edu jcamp6@gatech.edu'}], '_method': 'VASP DFT with PBE;DDEC'}
data_MnH6(C3N)6
_symmetry_space_group_name_H-M   'P 1'
_cell_length_a   10.85320000
_cell_length_b   13.01579961
_cell_length_c   13.01580000
_cell_angle_alpha   120.00000099
_cell_angle_beta   90.00000000
_cell_angle_gamma   90.00000000
_symmetry_Int_Tables_number   1
_chemical_formula_structural   MnH6(C3N)6
_chemical_formula_sum   'Mn2 H12 C36 N12'
_cell_volume   1592.31928049
_cell_formula_units_Z   2
loop_
 _symmetry_equiv_pos_site_id
 _symmetry_equiv_pos_as_xyz
  1  'x, y, z'
loop_
 _atom_site_label
 _atom_site_fract_x
 _atom_site_fract_y
 _atom_site_fract_z
 _atom_site_charge
 Mn 0.0 0.33333 0.66666   0.739022
 Mn 0.0 0.66667 0.33334   0.73904
 H 0.6046 0.61 0.1802   0.110688
 H 0.6046 0.5702 0.39   0.110739
 H 0.6046 0.8198 0.4298   0.110711
 H 0.3954 0.5702 0.1802   0.110799
 H 0.3954 0.8198 0.39   0.110845
 H 0.3954 0.61 0.4298   0.110807
 H 0.3954 0.39 0.8198   0.110687
 H 0.3954 0.4298 0.61   0.110738
 H 0.3954 0.1802 0.5702   0.110711
 H 0.6046 0.4298 0.8198   0.110799
 H 0.6046 0.1802 0.61   0.110845
 H 0.6046 0.39 0.5702   0.110807
 C 0.8258 0.5035 0.895   0.404391
 C 0.5623 0.565 0.107   -0.130401
 C 0.8258 0.3915 0.4965   0.404352
 C 0.5623 0.542 0.435   -0.13037
 C 0.8258 0.105 0.6085   0.404536
 C 0.5623 0.893 0.458   -0.130342
 C 0.1742 0.3915 0.895   0.404478
 C 0.4377 0.542 0.107   -0.130349
 C 0.1742 0.105 0.4965   0.404312
 C 0.4377 0.893 0.435   -0.130317
 C 0.1742 0.5035 0.6085   0.40451
 C 0.4377 0.565 0.458   -0.130286
 C 0.1742 0.4965 0.105   0.404488
 C 0.4377 0.435 0.893   -0.130393
 C 0.1742 0.6085 0.5035   0.404452
 C 0.4377 0.458 0.565   -0.130361
 C 0.1742 0.895 0.3915   0.404633
 C 0.4377 0.107 0.542   -0.130334
 C 0.8258 0.6085 0.105   0.404576
 C 0.5623 0.458 0.893   -0.130344
 C 0.8258 0.895 0.5035   0.40441
 C 0.5623 0.107 0.565   -0.130312
 C 0.8258 0.4965 0.3915   0.404614
 C 0.5623 0.435 0.542   -0.130281
 C 0.7605 0.546 0.0   -0.32385
 C 0.6264 0.5223 0.0   0.128786
 C 0.7605 0.454 0.454   -0.323993
 C 0.6264 0.4777 0.4777   0.128864
 C 0.7605 0.0 0.546   -0.323996
 C 0.6264 0.0 0.5223   0.128866
 C 0.2395 0.454 0.0   -0.32385
 C 0.3736 0.4777 0.0   0.128786
 C 0.2395 0.0 0.454   -0.323995
 C 0.3736 0.0 0.4777   0.128866
 C 0.2395 0.546 0.546   -0.323993
 C 0.3736 0.5223 0.5223   0.128863
 N 0.88 0.4676 0.807   -0.410574
 N 0.88 0.3394 0.5324   -0.410322
 N 0.88 0.193 0.6606   -0.41065
 N 0.12 0.3394 0.807   -0.410612
 N 0.12 0.193 0.5324   -0.41027
 N 0.12 0.4676 0.6606   -0.410659
 N 0.12 0.5324 0.193   -0.410586
 N 0.12 0.6606 0.4676   -0.410335
 N 0.12 0.807 0.3394   -0.410662
 N 0.88 0.6606 0.193   -0.410625
 N 0.88 0.807 0.4676   -0.410283
 N 0.88 0.5324 0.3394   -0.410673
