{'_ref': 'TBD', '_srcid': 'CAKYAQ_clean', 'submitters': [{'name': 'Dalar Nazarian Jeff Camp and David Sholl', 'email': 'dalar@gatech.edu jcamp6@gatech.edu'}], '_method': 'VASP DFT with PBE;DDEC'}
data_MnH6(C3N)6
_symmetry_space_group_name_H-M   'P 1'
_cell_length_a   12.88140000
_cell_length_b   12.88140031
_cell_length_c   22.05910000
_cell_angle_alpha   90.00000000
_cell_angle_beta   90.00000000
_cell_angle_gamma   119.99999919
_symmetry_Int_Tables_number   1
_chemical_formula_structural   MnH6(C3N)6
_chemical_formula_sum   'Mn4 H24 C72 N24'
_cell_volume   3169.8927465
_cell_formula_units_Z   4
loop_
 _symmetry_equiv_pos_site_id
 _symmetry_equiv_pos_as_xyz
  1  'x, y, z'
loop_
 _atom_site_label
 _atom_site_fract_x
 _atom_site_fract_y
 _atom_site_fract_z
 _atom_site_charge
 Mn 0.33333 0.66666 0.5   0.713495
 Mn 0.66667 0.33334 0.0   0.713495
 Mn 0.66667 0.33334 0.5   0.713492
 Mn 0.33333 0.66666 0.0   0.713492
 H 0.5247 0.1808 0.3028   0.108988
 H 0.6561 0.4753 0.3028   0.108953
 H 0.8192 0.3439 0.3028   0.108953
 H 0.4753 0.8192 0.8028   0.108988
 H 0.3439 0.5247 0.8028   0.108953
 H 0.1808 0.6561 0.8028   0.108953
 H 0.3439 0.8192 0.1972   0.108988
 H 0.1808 0.5247 0.1972   0.108954
 H 0.4753 0.6561 0.1972   0.108953
 H 0.6561 0.1808 0.6972   0.108988
 H 0.8192 0.4753 0.6972   0.108954
 H 0.5247 0.3439 0.6972   0.108953
 H 0.4753 0.8192 0.6972   0.10899
 H 0.3439 0.5247 0.6972   0.108955
 H 0.1808 0.6561 0.6972   0.108958
 H 0.5247 0.1808 0.1972   0.10899
 H 0.6561 0.4753 0.1972   0.108955
 H 0.8192 0.3439 0.1972   0.108958
 H 0.6561 0.1808 0.8028   0.10899
 H 0.8192 0.4753 0.8028   0.108956
 H 0.5247 0.3439 0.8028   0.108957
 H 0.3439 0.8192 0.3028   0.10899
 H 0.1808 0.5247 0.3028   0.108956
 H 0.4753 0.6561 0.3028   0.108957
 C 0.3748 0.8925 0.41417   0.410213
 C 0.487 0.1067 0.28165   -0.132578
 C 0.5177 0.6252 0.41417   0.410001
 C 0.6197 0.513 0.28165   -0.132532
 C 0.1075 0.4823 0.41417   0.40996
 C 0.8933 0.3803 0.28165   -0.132506
 C 0.6252 0.1075 0.91417   0.410213
 C 0.513 0.8933 0.78165   -0.132578
 C 0.4823 0.3748 0.91417   0.410001
 C 0.3803 0.487 0.78165   -0.132532
 C 0.8925 0.5177 0.91417   0.40996
 C 0.1067 0.6197 0.78165   -0.132506
 C 0.4823 0.1075 0.08583   0.410209
 C 0.3803 0.8933 0.21835   -0.132581
 C 0.8925 0.3748 0.08583   0.409998
 C 0.1067 0.487 0.21835   -0.132535
 C 0.6252 0.5177 0.08583   0.409958
 C 0.513 0.6197 0.21835   -0.132508
 C 0.5177 0.8925 0.58583   0.410209
 C 0.6197 0.1067 0.71835   -0.132581
 C 0.1075 0.6252 0.58583   0.409998
 C 0.8933 0.513 0.71835   -0.132535
 C 0.3748 0.4823 0.58583   0.409958
 C 0.487 0.3803 0.71835   -0.132508
 C 0.6252 0.1075 0.58583   0.410203
 C 0.513 0.8933 0.71835   -0.132598
 C 0.4823 0.3748 0.58583   0.409989
 C 0.3803 0.487 0.71835   -0.13256
 C 0.8925 0.5177 0.58583   0.409949
 C 0.1067 0.6197 0.71835   -0.132533
 C 0.3748 0.8925 0.08583   0.410203
 C 0.487 0.1067 0.21835   -0.132598
 C 0.5177 0.6252 0.08583   0.409989
 C 0.6197 0.513 0.21835   -0.13256
 C 0.1075 0.4823 0.08583   0.409949
 C 0.8933 0.3803 0.21835   -0.132533
 C 0.5177 0.8925 0.91417   0.4102
 C 0.6197 0.1067 0.78165   -0.132598
 C 0.1075 0.6252 0.91417   0.409986
 C 0.8933 0.513 0.78165   -0.13256
 C 0.3748 0.4823 0.91417   0.409947
 C 0.487 0.3803 0.78165   -0.132532
 C 0.4823 0.1075 0.41417   0.4102
 C 0.3803 0.8933 0.28165   -0.132598
 C 0.8925 0.3748 0.41417   0.409986
 C 0.1067 0.487 0.28165   -0.13256
 C 0.6252 0.5177 0.41417   0.409947
 C 0.513 0.6197 0.28165   -0.132532
 C 0.4326 0.0 0.31412   0.133835
 C 0.4289 0.0 0.3807   -0.337201
 C 0.5674 0.5674 0.31412   0.133454
 C 0.5711 0.5711 0.3807   -0.336388
 C 0.0 0.4326 0.31412   0.133454
 C 0.0 0.4289 0.3807   -0.336387
 C 0.5674 0.0 0.81412   0.133835
 C 0.5711 0.0 0.8807   -0.337201
 C 0.4326 0.4326 0.81412   0.133454
 C 0.4289 0.4289 0.8807   -0.336388
 C 0.0 0.5674 0.81412   0.133454
 C 0.0 0.5711 0.8807   -0.336387
 C 0.4326 0.0 0.18588   0.133836
 C 0.4289 0.0 0.1193   -0.337201
 C 0.0 0.4326 0.18588   0.133454
 C 0.0 0.4289 0.1193   -0.336387
 C 0.5674 0.5674 0.18588   0.133454
 C 0.5711 0.5711 0.1193   -0.336388
 C 0.5674 0.0 0.68588   0.133836
 C 0.5711 0.0 0.6193   -0.337201
 C 0.0 0.5674 0.68588   0.133454
 C 0.0 0.5711 0.6193   -0.336387
 C 0.4326 0.4326 0.68588   0.133454
 C 0.4289 0.4289 0.6193   -0.336388
 N 0.334 0.807 0.44176   -0.403331
 N 0.473 0.666 0.44176   -0.404656
 N 0.193 0.527 0.44176   -0.403546
 N 0.666 0.193 0.94176   -0.403331
 N 0.527 0.334 0.94176   -0.404656
 N 0.807 0.473 0.94176   -0.403546
 N 0.527 0.193 0.05824   -0.403329
 N 0.807 0.334 0.05824   -0.404653
 N 0.666 0.473 0.05824   -0.403545
 N 0.473 0.807 0.55824   -0.403329
 N 0.193 0.666 0.55824   -0.404653
 N 0.334 0.527 0.55824   -0.403545
 N 0.666 0.193 0.55824   -0.403329
 N 0.527 0.334 0.55824   -0.404654
 N 0.807 0.473 0.55824   -0.403544
 N 0.334 0.807 0.05824   -0.403329
 N 0.473 0.666 0.05824   -0.404654
 N 0.193 0.527 0.05824   -0.403544
 N 0.473 0.807 0.94176   -0.403328
 N 0.193 0.666 0.94176   -0.404651
 N 0.334 0.527 0.94176   -0.403544
 N 0.527 0.193 0.44176   -0.403328
 N 0.807 0.334 0.44176   -0.404651
 N 0.666 0.473 0.44176   -0.403544
