{'_ref': 'TBD', '_srcid': 'CAKYAQ_clean', 'submitters': [{'name': 'Dalar Nazarian Jeff Camp and David Sholl', 'email': 'dalar@gatech.edu jcamp6@gatech.edu'}], '_method': 'VASP DFT with PBE;DDEC'}
data_La2Cu3H54C36(NO4)6
_symmetry_space_group_name_H-M   'P 1'
_cell_length_a   7.49350000
_cell_length_b   13.62239960
_cell_length_c   13.62240000
_cell_angle_alpha   120.00000097
_cell_angle_beta   90.00000000
_cell_angle_gamma   90.00000000
_symmetry_Int_Tables_number   1
_chemical_formula_structural   La2Cu3H54C36(NO4)6
_chemical_formula_sum   'La2 Cu3 H54 C36 N6 O24'
_cell_volume   1204.26643889
_cell_formula_units_Z   1
loop_
 _symmetry_equiv_pos_site_id
 _symmetry_equiv_pos_as_xyz
  1  'x, y, z'
loop_
 _atom_site_label
 _atom_site_fract_x
 _atom_site_fract_y
 _atom_site_fract_z
 _atom_site_charge
 La 0.34102 0.33333 0.66666   2.148466
 La 0.65898 0.66667 0.33334   2.148466
 Cu 0.0 0.0 0.5   0.834786
 Cu 0.0 0.5 0.0   0.834812
 Cu 0.0 0.5 0.5   0.834782
 H 0.8601 0.9681 0.645   0.267334
 H 0.9531 0.1423 0.8029   0.057318
 H 0.7684 0.1831 0.7312   0.086191
 H 0.6414 0.0655 0.7874   0.110681
 H 0.5411 0.9975 0.668   0.127672
 H 0.4947 0.128 0.7526   0.123019
 H 0.019 0.9899 0.7879   0.12669
 H 0.1376 0.1006 0.8618   0.130971
 H 0.2089 0.0028 0.7417   0.116361
 H 0.8601 0.6769 0.0319   0.267332
 H 0.9531 0.6606 0.8577   0.057312
 H 0.7684 0.5481 0.8169   0.086185
 H 0.6414 0.7219 0.9345   0.110679
 H 0.5411 0.6705 0.0025   0.127677
 H 0.4947 0.6246 0.872   0.123016
 H 0.019 0.798 0.0101   0.126688
 H 0.1376 0.7612 0.8994   0.130963
 H 0.2089 0.7389 0.9972   0.116363
 H 0.8601 0.355 0.3231   0.267335
 H 0.9531 0.1971 0.3394   0.057319
 H 0.7684 0.2688 0.4519   0.086187
 H 0.6414 0.2126 0.2781   0.110683
 H 0.5411 0.332 0.3295   0.127676
 H 0.4947 0.2474 0.3754   0.123014
 H 0.019 0.2121 0.202   0.126694
 H 0.1376 0.1382 0.2388   0.13097
 H 0.2089 0.2583 0.2611   0.116364
 H 0.1399 0.0319 0.355   0.267333
 H 0.0469 0.8577 0.1971   0.057317
 H 0.2316 0.8169 0.2688   0.086191
 H 0.3586 0.9345 0.2126   0.110686
 H 0.4589 0.0025 0.332   0.127673
 H 0.5053 0.872 0.2474   0.12302
 H 0.981 0.0101 0.2121   0.126687
 H 0.8624 0.8994 0.1382   0.13097
 H 0.7911 0.9972 0.2583   0.116362
 H 0.1399 0.3231 0.9681   0.267331
 H 0.0469 0.3394 0.1423   0.057311
 H 0.2316 0.4519 0.1831   0.086185
 H 0.3586 0.2781 0.0655   0.110683
 H 0.4589 0.3295 0.9975   0.127678
 H 0.5053 0.3754 0.128   0.123018
 H 0.981 0.202 0.9899   0.126685
 H 0.8624 0.2388 0.1006   0.130963
 H 0.7911 0.2611 0.0028   0.116363
 H 0.1399 0.645 0.6769   0.267334
 H 0.0469 0.8029 0.6606   0.057317
 H 0.2316 0.7312 0.5481   0.086187
 H 0.3586 0.7874 0.7219   0.110687
 H 0.4589 0.668 0.6705   0.127677
 H 0.5053 0.7526 0.6246   0.123015
 H 0.981 0.7879 0.798   0.126691
 H 0.8624 0.8618 0.7612   0.13097
 H 0.7911 0.7417 0.7389   0.116364
 C 0.1365 0.17742 0.72401   0.621846
 C 0.0321 0.0893 0.7391   0.09708
 C 0.7322 0.1056 0.6704   0.02433
 C 0.6871 0.12036 0.57016   0.698626
 C 0.5901 0.0712 0.7242   -0.346706
 C 0.1026 0.0435 0.7847   -0.391179
 C 0.1365 0.54659 0.82258   0.621852
 C 0.0321 0.6498 0.9107   0.097082
 C 0.7322 0.5648 0.8944   0.024338
 C 0.6871 0.4498 0.87964   0.698617
 C 0.5901 0.653 0.9288   -0.346708
 C 0.1026 0.7412 0.9565   -0.391172
 C 0.1365 0.27599 0.45341   0.621839
 C 0.0321 0.2609 0.3502   0.097083
 C 0.7322 0.3296 0.4352   0.024331
 C 0.6871 0.42984 0.5502   0.698623
 C 0.5901 0.2758 0.347   -0.346708
 C 0.1026 0.2153 0.2588   -0.39118
 C 0.8635 0.82258 0.27599   0.621846
 C 0.9679 0.9107 0.2609   0.09708
 C 0.2678 0.8944 0.3296   0.02433
 C 0.3129 0.87964 0.42984   0.698626
 C 0.4099 0.9288 0.2758   -0.346708
 C 0.8974 0.9565 0.2153   -0.391178
 C 0.8635 0.45341 0.17742   0.621852
 C 0.9679 0.3502 0.0893   0.097082
 C 0.2678 0.4352 0.1056   0.024338
 C 0.3129 0.5502 0.12036   0.698617
 C 0.4099 0.347 0.0712   -0.346711
 C 0.8974 0.2588 0.0435   -0.391171
 C 0.8635 0.72401 0.54659   0.621839
 C 0.9679 0.7391 0.6498   0.097083
 C 0.2678 0.6704 0.5648   0.024331
 C 0.3129 0.57016 0.4498   0.698623
 C 0.4099 0.7242 0.653   -0.34671
 C 0.8974 0.7847 0.7412   -0.391179
 N 0.8941 0.03594 0.64963   -0.416232
 N 0.8941 0.61369 0.96406   -0.416238
 N 0.8941 0.35037 0.38631   -0.416234
 N 0.1059 0.96406 0.35037   -0.416232
 N 0.1059 0.38631 0.03594   -0.416238
 N 0.1059 0.64963 0.61369   -0.416233
 O 0.2419 0.24152 0.79935   -0.620144
 O 0.1173 0.17965 0.63333   -0.695189
 O 0.7886 0.07682 0.48477   -0.555788
 O 0.5519 0.17767 0.57822   -0.696426
 O 0.2419 0.55783 0.75848   -0.620152
 O 0.1173 0.45368 0.82035   -0.695209
 O 0.7886 0.40795 0.92318   -0.555799
 O 0.5519 0.40055 0.82233   -0.696414
 O 0.2419 0.20065 0.44217   -0.620146
 O 0.1173 0.36667 0.54632   -0.695168
 O 0.7886 0.51523 0.59205   -0.555786
 O 0.5519 0.42178 0.59945   -0.696421
 O 0.7581 0.75848 0.20065   -0.620144
 O 0.8827 0.82035 0.36667   -0.695189
 O 0.2114 0.92318 0.51523   -0.555788
 O 0.4481 0.82233 0.42178   -0.696426
 O 0.7581 0.44217 0.24152   -0.620152
 O 0.8827 0.54632 0.17965   -0.695209
 O 0.2114 0.59205 0.07682   -0.555799
 O 0.4481 0.59945 0.17767   -0.696414
 O 0.7581 0.79935 0.55783   -0.620146
 O 0.8827 0.63333 0.45368   -0.695168
 O 0.2114 0.48477 0.40795   -0.555786
 O 0.4481 0.57822 0.40055   -0.696421
