{'_ref': 'TBD', '_srcid': 'CAKYAQ_clean', 'submitters': [{'name': 'Dalar Nazarian Jeff Camp and David Sholl', 'email': 'dalar@gatech.edu jcamp6@gatech.edu'}], '_method': 'VASP DFT with PBE;DDEC'}
data_Cd3H28(C12O5)4
_symmetry_space_group_name_H-M   'P 1'
_cell_length_a   9.86200035
_cell_length_b   10.38100052
_cell_length_c   18.34800000
_cell_angle_alpha   100.22200187
_cell_angle_beta   104.61299761
_cell_angle_gamma   91.28100187
_symmetry_Int_Tables_number   1
_chemical_formula_structural   Cd3H28(C12O5)4
_chemical_formula_sum   'Cd3 H28 C48 O20'
_cell_volume   1784.35739386
_cell_formula_units_Z   1
loop_
 _symmetry_equiv_pos_site_id
 _symmetry_equiv_pos_as_xyz
  1  'x, y, z'
loop_
 _atom_site_label
 _atom_site_fract_x
 _atom_site_fract_y
 _atom_site_fract_z
 _atom_site_charge
 Cd 0.44213 0.23997 0.34218   1.077243
 Cd 0.55787 0.76003 0.65782   1.077243
 Cd 0.5 0.5 0.5   1.253879
 H 0.4366 0.7822 0.3474   0.123692
 H 0.3457 0.8586 0.1338   0.14635
 H 0.3542 0.4813 0.1659   0.149328
 H 0.0964 0.6223 0.0342   0.053501
 H 0.1591 0.4856 0.0349   0.04991
 H 0.2732 0.4116 0.9217   0.116098
 H 0.2 0.3607 0.7889   0.113848
 H 0.8928 0.6082 0.791   0.117619
 H 0.9661 0.6591 0.9239   0.113759
 H 0.9435 0.5012 0.6735   0.067214
 H 0.9407 0.3558 0.6846   0.082145
 H 0.258 0.3516 0.5645   0.131321
 H 0.9465 0.2734 0.3684   0.114252
 H 0.8549 0.37 0.573   0.120499
 H 0.5634 0.2178 0.6526   0.123692
 H 0.6543 0.1414 0.8662   0.146349
 H 0.6458 0.5187 0.8341   0.149328
 H 0.9036 0.3777 0.9658   0.053501
 H 0.8409 0.5144 0.9651   0.04991
 H 0.7268 0.5884 0.0783   0.116098
 H 0.8 0.6393 0.2111   0.113848
 H 0.1072 0.3918 0.209   0.117619
 H 0.0339 0.3409 0.0761   0.113759
 H 0.0565 0.4988 0.3265   0.067214
 H 0.0593 0.6442 0.3154   0.082145
 H 0.742 0.6484 0.4355   0.131321
 H 0.0535 0.7266 0.6316   0.114252
 H 0.1451 0.63 0.427   0.120498
 C 0.3966 0.6193 0.2638   -0.115357
 C 0.4126 0.7526 0.2946   -0.028209
 C 0.392 0.84 0.245   -0.089839
 C 0.3574 0.7986 0.1666   -0.135586
 C 0.3403 0.6623 0.1376   0.24586
 C 0.3622 0.571 0.1855   -0.155499
 C 0.4243 0.5264 0.3161   0.692735
 C 0.405 0.9856 0.2769   0.616443
 C 0.1657 0.5679 0.0174   0.103566
 C 0.1269 0.5404 0.936   0.014621
 C 0.197 0.451 0.8955   -0.103462
 C 0.1531 0.4205 0.8159   -0.122298
 C 0.0391 0.4794 0.77677   0.027907
 C 0.9691 0.5688 0.8172   -0.105906
 C 0.013 0.5993 0.8968   -0.115005
 C 0.000599999999999 0.4361 0.6958   0.094983
 C 0.0645 0.371 0.5801   0.266314
 C 0.1631 0.345 0.539   -0.128392
 C 0.1204 0.308 0.4579   -0.112377
 C 0.9764 0.2968 0.4216   -0.014055
 C 0.8765 0.3204 0.4641   -0.080319
 C 0.9203 0.3562 0.5442   -0.177356
 C 0.2255 0.2818 0.4117   0.671158
 C 0.7236 0.3031 0.421   0.67966
 C 0.6034 0.3807 0.7362   -0.115357
 C 0.5874 0.2474 0.7054   -0.028209
 C 0.608 0.16 0.755   -0.089839
 C 0.6426 0.2014 0.8334   -0.135586
 C 0.6597 0.3377 0.8624   0.24586
 C 0.6378 0.429 0.8145   -0.155498
 C 0.5757 0.4736 0.6839   0.692735
 C 0.595 0.0144 0.7231   0.616443
 C 0.8343 0.4321 0.9826   0.103566
 C 0.8731 0.4596 0.064   0.014621
 C 0.803 0.549 0.1045   -0.103461
 C 0.8469 0.5795 0.1841   -0.122298
 C 0.9609 0.5206 0.22323   0.027907
 C 0.0309 0.4312 0.1828   -0.105905
 C 0.987 0.4007 0.1032   -0.115005
 C 0.9994 0.5639 0.3042   0.094983
 C 0.9355 0.629 0.4199   0.266314
 C 0.8369 0.655 0.461   -0.128391
 C 0.8796 0.692 0.5421   -0.112377
 C 0.0236 0.7032 0.5784   -0.014054
 C 0.1235 0.6796 0.5359   -0.080319
 C 0.0797 0.6438 0.4558   -0.177356
 C 0.7745 0.7182 0.5883   0.671158
 C 0.2764 0.6969 0.579   0.67966
 O 0.4514 0.5633 0.386   -0.618289
 O 0.405 0.4061 0.283   -0.577739
 O 0.443 0.0204 0.3481   -0.496837
 O 0.3808 0.0679 0.2325   -0.521365
 O 0.3026 0.6317 0.056   -0.310743
 O 0.1049 0.4119 0.6569   -0.225548
 O 0.351 0.3131 0.4462   -0.643757
 O 0.1894 0.232 0.3424   -0.541584
 O 0.6811 0.2451 0.354   -0.541879
 O 0.647 0.3504 0.4621   -0.655568
 O 0.5486 0.4367 0.614   -0.618289
 O 0.595 0.5939 0.717   -0.577739
 O 0.557 0.9796 0.6519   -0.496837
 O 0.6192 0.9321 0.7675   -0.521365
 O 0.6974 0.3683 0.944   -0.310743
 O 0.8951 0.5881 0.3431   -0.225548
 O 0.649 0.6869 0.5538   -0.643757
 O 0.8106 0.768 0.6576   -0.541584
 O 0.3189 0.7549 0.646   -0.541879
 O 0.353 0.6496 0.5379   -0.655568
