{'_ref': 'TBD', '_srcid': 'CAKYAQ_clean', 'submitters': [{'name': 'Dalar Nazarian Jeff Camp and David Sholl', 'email': 'dalar@gatech.edu jcamp6@gatech.edu'}], '_method': 'VASP DFT with PBE;DDEC'}
data_CdH13C18N3O4
_symmetry_space_group_name_H-M   'P 1'
_cell_length_a   11.71400000
_cell_length_b   14.29600000
_cell_length_c   17.31700000
_cell_angle_alpha   90.00000000
_cell_angle_beta   90.00000000
_cell_angle_gamma   90.00000000
_symmetry_Int_Tables_number   1
_chemical_formula_structural   CdH13C18N3O4
_chemical_formula_sum   'Cd4 H52 C72 N12 O16'
_cell_volume   2899.96272805
_cell_formula_units_Z   4
loop_
 _symmetry_equiv_pos_site_id
 _symmetry_equiv_pos_as_xyz
  1  'x, y, z'
loop_
 _atom_site_label
 _atom_site_fract_x
 _atom_site_fract_y
 _atom_site_fract_z
 _atom_site_charge
 Cd 0.0 0.63455 0.98256   0.959231
 Cd 0.0 0.36545 0.01744   0.959231
 Cd 0.0 0.86545 0.48256   0.959231
 Cd 0.0 0.13455 0.51744   0.959231
 H 0.7852 0.5969 0.8753   0.076869
 H 0.5876 0.6492 0.0885   0.120173
 H 0.7808 0.6532 0.0862   0.071949
 H 0.5908 0.6056 0.8685   0.122558
 H 0.7852 0.4031 0.1247   0.076869
 H 0.5876 0.3508 0.9115   0.120173
 H 0.7808 0.3468 0.9138   0.071949
 H 0.5908 0.3944 0.1315   0.122558
 H 0.2148 0.9031 0.3753   0.076869
 H 0.4124 0.8508 0.5885   0.120173
 H 0.2192 0.8468 0.5862   0.071949
 H 0.4092 0.8944 0.3685   0.122558
 H 0.2148 0.0969 0.6247   0.076869
 H 0.4124 0.1492 0.4115   0.120173
 H 0.2192 0.1532 0.4138   0.071949
 H 0.4092 0.1056 0.6315   0.122558
 H 0.2148 0.4031 0.1247   0.07687
 H 0.4124 0.3508 0.9115   0.120173
 H 0.2192 0.3468 0.9138   0.071949
 H 0.4092 0.3944 0.1315   0.122558
 H 0.2148 0.5969 0.8753   0.07687
 H 0.4124 0.6492 0.0885   0.120174
 H 0.2192 0.6532 0.0862   0.071949
 H 0.4092 0.6056 0.8685   0.122558
 H 0.7852 0.0969 0.6247   0.07687
 H 0.5876 0.1492 0.4115   0.120173
 H 0.7808 0.1532 0.4138   0.071949
 H 0.5908 0.1056 0.6315   0.122558
 H 0.7852 0.9031 0.3753   0.07687
 H 0.5876 0.8508 0.5885   0.120174
 H 0.7808 0.8468 0.5862   0.071949
 H 0.5908 0.8944 0.3685   0.122558
 H 0.0 0.5903 0.7807   0.125057
 H 0.0 0.4873 0.5669   0.12131
 H 0.0 0.3111 0.7471   0.08994
 H 0.0 0.6502 0.5908   0.337547
 H 0.0 0.6876 0.671   0.332395
 H 0.0 0.4097 0.2193   0.125057
 H 0.0 0.5127 0.4331   0.12131
 H 0.0 0.6889 0.2529   0.08994
 H 0.0 0.3498 0.4092   0.337547
 H 0.0 0.3124 0.329   0.332395
 H 0.0 0.9097 0.2807   0.125057
 H 0.0 0.0127 0.0669   0.12131
 H 0.0 0.1889 0.2471   0.089939
 H 0.0 0.8498 0.0908   0.337547
 H 0.0 0.8124 0.171   0.332394
 H 0.0 0.0903 0.7193   0.125057
 H 0.0 0.9873 0.9331   0.12131
 H 0.0 0.8111 0.7529   0.089939
 H 0.0 0.1502 0.9092   0.337547
 H 0.0 0.1876 0.829   0.332394
 C 0.7451 0.612 0.92   0.185959
 C 0.6252 0.6417 0.0416   -0.20638
 C 0.7426 0.6421 0.04   0.18849
 C 0.5649 0.6309 0.9777   0.105354
 C 0.6267 0.615 0.9158   -0.206607
 C 0.7451 0.388 0.08   0.185959
 C 0.6252 0.3583 0.9584   -0.20638
 C 0.7426 0.3579 0.96   0.18849
 C 0.5649 0.3691 0.0223   0.105354
 C 0.6267 0.385 0.0842   -0.206608
 C 0.2549 0.888 0.42   0.185959
 C 0.3748 0.8583 0.5416   -0.20638
 C 0.2574 0.8579 0.54   0.18849
 C 0.4351 0.8691 0.4777   0.105354
 C 0.3733 0.885 0.4158   -0.206607
 C 0.2549 0.112 0.58   0.185959
 C 0.3748 0.1417 0.4584   -0.20638
 C 0.2574 0.1421 0.46   0.18849
 C 0.4351 0.1309 0.5223   0.105354
 C 0.3733 0.115 0.5842   -0.206608
 C 0.2549 0.388 0.08   0.185959
 C 0.3748 0.3583 0.9584   -0.20638
 C 0.2574 0.3579 0.96   0.18849
 C 0.4351 0.3691 0.0223   0.105354
 C 0.3733 0.385 0.0842   -0.206607
 C 0.2549 0.612 0.92   0.185959
 C 0.3748 0.6417 0.0416   -0.20638
 C 0.2574 0.6421 0.04   0.18849
 C 0.4351 0.6309 0.9777   0.105355
 C 0.3733 0.615 0.9158   -0.206608
 C 0.7451 0.112 0.58   0.185959
 C 0.6252 0.1417 0.4584   -0.20638
 C 0.7426 0.1421 0.46   0.18849
 C 0.5649 0.1309 0.5223   0.105354
 C 0.6267 0.115 0.5842   -0.206607
 C 0.7451 0.888 0.42   0.185959
 C 0.6252 0.8583 0.5416   -0.20638
 C 0.7426 0.8579 0.54   0.18849
 C 0.5649 0.8691 0.4777   0.105355
 C 0.6267 0.885 0.4158   -0.206608
 C 0.0 0.4308 0.8639   0.668186
 C 0.0 0.4481 0.7786   -0.147624
 C 0.0 0.386 0.6473   -0.109075
 C 0.0 0.5502 0.6686   0.302515
 C 0.0 0.3032 0.5965   0.663131
 C 0.0 0.5386 0.7481   -0.192598
 C 0.0 0.4767 0.6199   -0.172361
 C 0.0 0.3717 0.7276   -0.095258
 C 0.0 0.5692 0.1361   0.668186
 C 0.0 0.5519 0.2214   -0.147624
 C 0.0 0.614 0.3527   -0.109075
 C 0.0 0.4498 0.3314   0.302515
 C 0.0 0.6968 0.4035   0.663131
 C 0.0 0.4614 0.2519   -0.192598
 C 0.0 0.5233 0.3801   -0.17236
 C 0.0 0.6283 0.2724   -0.095258
 C 0.0 0.0692 0.3639   0.668187
 C 0.0 0.0519 0.2786   -0.147624
 C 0.0 0.114 0.1473   -0.109075
 C 0.0 0.9498 0.1686   0.302515
 C 0.0 0.1968 0.0965   0.663131
 C 0.0 0.9614 0.2481   -0.192598
 C 0.0 0.0233 0.1199   -0.172361
 C 0.0 0.1283 0.2276   -0.095258
 C 0.0 0.9308 0.6361   0.668187
 C 0.0 0.9481 0.7214   -0.147624
 C 0.0 0.886 0.8527   -0.109075
 C 0.0 0.0502 0.8314   0.302515
 C 0.0 0.8032 0.9035   0.663131
 C 0.0 0.0386 0.7519   -0.192598
 C 0.0 0.9767 0.8801   -0.17236
 C 0.0 0.8717 0.7724   -0.095258
 N 0.802 0.6286 0.9805   -0.300966
 N 0.802 0.3714 0.0195   -0.300966
 N 0.198 0.8714 0.4805   -0.300966
 N 0.198 0.1286 0.5195   -0.300966
 N 0.198 0.3714 0.0195   -0.300966
 N 0.198 0.6286 0.9805   -0.300966
 N 0.802 0.1286 0.5195   -0.300966
 N 0.802 0.8714 0.4805   -0.300966
 N 0.0 0.6408 0.6398   -0.725403
 N 0.0 0.3592 0.3602   -0.725403
 N 0.0 0.8592 0.1398   -0.725402
 N 0.0 0.1408 0.8602   -0.725402
 O 0.0 0.4968 0.9098   -0.647697
 O 0.0 0.3477 0.886   -0.576906
 O 0.0 0.2226 0.6262   -0.630244
 O 0.0 0.3118 0.5254   -0.616944
 O 0.0 0.5032 0.0902   -0.647697
 O 0.0 0.6523 0.114   -0.576906
 O 0.0 0.7774 0.3738   -0.630244
 O 0.0 0.6882 0.4746   -0.616944
 O 0.0 0.0032 0.4098   -0.647697
 O 0.0 0.1523 0.386   -0.576906
 O 0.0 0.2774 0.1262   -0.630244
 O 0.0 0.1882 0.0254   -0.616944
 O 0.0 0.9968 0.5902   -0.647697
 O 0.0 0.8477 0.614   -0.576906
 O 0.0 0.7226 0.8738   -0.630244
 O 0.0 0.8118 0.9746   -0.616944
