{'_ref': 'TBD', '_srcid': 'CAKYAQ_clean', 'submitters': [{'name': 'Dalar Nazarian Jeff Camp and David Sholl', 'email': 'dalar@gatech.edu jcamp6@gatech.edu'}], '_method': 'VASP DFT with PBE;DDEC'}
data_CdH13C18N3O4
_symmetry_space_group_name_H-M   'P 1'
_cell_length_a   11.71400000
_cell_length_b   14.23300000
_cell_length_c   17.31300000
_cell_angle_alpha   90.00000000
_cell_angle_beta   90.00000000
_cell_angle_gamma   90.00000000
_symmetry_Int_Tables_number   1
_chemical_formula_structural   CdH13C18N3O4
_chemical_formula_sum   'Cd4 H52 C72 N12 O16'
_cell_volume   2886.51619231
_cell_formula_units_Z   4
loop_
 _symmetry_equiv_pos_site_id
 _symmetry_equiv_pos_as_xyz
  1  'x, y, z'
loop_
 _atom_site_label
 _atom_site_fract_x
 _atom_site_fract_y
 _atom_site_fract_z
 _atom_site_charge
 Cd 0.01464 0.63532 0.01723   0.97554
 Cd 0.01464 0.36468 0.98277   0.97554
 Cd 0.98536 0.86468 0.51723   0.97554
 Cd 0.98536 0.13532 0.48277   0.97554
 H 0.2334 0.6199 0.1288   0.089056
 H 0.2379 0.6304 0.9055   0.083249
 H 0.432 0.6375 0.9026   0.134802
 H 0.4249 0.6279 0.1317   0.125177
 H 0.9991 0.309 0.251   0.095167
 H 0.7946 0.7027 0.9255   0.081355
 H 0.6015 0.6968 0.9191   0.132203
 H 0.6038 0.5548 0.1184   0.129832
 H 0.7986 0.5586 0.1158   0.089985
 H 0.0391 0.4803 0.4321   0.123902
 H 0.0385 0.5862 0.2185   0.122123
 H 0.0701 0.6869 0.3346   0.331866
 H 0.0546 0.6471 0.4134   0.342023
 H 0.2334 0.3801 0.8712   0.089056
 H 0.2379 0.3696 0.0945   0.083249
 H 0.432 0.3625 0.0974   0.134802
 H 0.4249 0.3721 0.8683   0.125177
 H 0.9991 0.691 0.749   0.095167
 H 0.7946 0.2973 0.0745   0.081355
 H 0.6015 0.3032 0.0809   0.132203
 H 0.6038 0.4452 0.8816   0.129832
 H 0.7986 0.4414 0.8842   0.089985
 H 0.0391 0.5197 0.5679   0.123903
 H 0.0385 0.4138 0.7815   0.122123
 H 0.0701 0.3131 0.6654   0.331866
 H 0.0546 0.3529 0.5866   0.342023
 H 0.7666 0.8801 0.6288   0.089056
 H 0.7621 0.8696 0.4055   0.083249
 H 0.568 0.8625 0.4026   0.134802
 H 0.5751 0.8721 0.6317   0.125177
 H 0.000900000000001 0.191 0.751   0.095167
 H 0.2054 0.7973 0.4255   0.081356
 H 0.3985 0.8032 0.4191   0.132203
 H 0.3962 0.9452 0.6184   0.129832
 H 0.2014 0.9414 0.6158   0.089985
 H 0.9609 0.0197 0.9321   0.123902
 H 0.9615 0.9138 0.7185   0.122123
 H 0.9299 0.8131 0.8346   0.331866
 H 0.9454 0.8529 0.9134   0.342023
 H 0.7666 0.1199 0.3712   0.089056
 H 0.7621 0.1304 0.5945   0.083249
 H 0.568 0.1375 0.5974   0.134802
 H 0.5751 0.1279 0.3683   0.125177
 H 0.000900000000001 0.809 0.249   0.095167
 H 0.2054 0.2027 0.5745   0.081356
 H 0.3985 0.1968 0.5809   0.132203
 H 0.3962 0.0548 0.3816   0.129832
 H 0.2014 0.0586 0.3842   0.089985
 H 0.9609 0.9803 0.0679   0.123903
 H 0.9615 0.0862 0.2815   0.122123
 H 0.9299 0.1869 0.1654   0.331866
 H 0.9454 0.1471 0.0866   0.342023
 C 0.2726 0.6248 0.0823   0.189091
 C 0.2767 0.6308 0.9523   0.176869
 C 0.3934 0.6333 0.9495   -0.216466
 C 0.3886 0.6274 0.0839   -0.208041
 C 0.4531 0.6293 0.0201   0.103151
 C 0.0118 0.4301 0.1374   0.654078
 C 0.5781 0.6303 0.019   0.095334
 C 0.9982 0.3695 0.2711   -0.062805
 C 0.7557 0.6708 0.9643   0.189109
 C 0.639 0.6701 0.9611   -0.205082
 C 0.9903 0.2999 0.4013   0.659426
 C 0.6413 0.5854 0.0783   -0.215518
 C 0.7583 0.5875 0.0761   0.177864
 C 0.9919 0.3828 0.3497   -0.128472
 C 0.0224 0.4734 0.3799   -0.156962
 C 0.0251 0.5362 0.2518   -0.172368
 C 0.0269 0.5507 0.3311   0.273997
 C 0.0034 0.4467 0.2216   -0.15333
 C 0.2726 0.3752 0.9177   0.189091
 C 0.2767 0.3692 0.0477   0.176869
 C 0.3934 0.3667 0.0505   -0.216466
 C 0.3886 0.3726 0.9161   -0.208041
 C 0.4531 0.3707 0.9799   0.103151
 C 0.0118 0.5699 0.8626   0.654078
 C 0.5781 0.3697 0.981   0.095334
 C 0.9982 0.6305 0.7289   -0.062805
 C 0.7557 0.3292 0.0357   0.189109
 C 0.639 0.3299 0.0389   -0.205082
 C 0.9903 0.7001 0.5987   0.659426
 C 0.6413 0.4146 0.9217   -0.215518
 C 0.7583 0.4125 0.9239   0.177864
 C 0.9919 0.6172 0.6503   -0.128472
 C 0.0224 0.5266 0.6201   -0.156962
 C 0.0251 0.4638 0.7482   -0.172368
 C 0.0269 0.4493 0.6689   0.273997
 C 0.0034 0.5533 0.7784   -0.15333
 C 0.7274 0.8752 0.5823   0.189091
 C 0.7233 0.8692 0.4523   0.176869
 C 0.6066 0.8667 0.4495   -0.216466
 C 0.6114 0.8726 0.5839   -0.208041
 C 0.5469 0.8707 0.5201   0.103151
 C 0.9882 0.0699 0.6374   0.654078
 C 0.4219 0.8697 0.519   0.095334
 C 0.0018 0.1305 0.7711   -0.062805
 C 0.2443 0.8292 0.4643   0.18911
 C 0.361 0.8299 0.4611   -0.205081
 C 0.0097 0.2001 0.9013   0.659427
 C 0.3587 0.9146 0.5783   -0.215518
 C 0.2417 0.9125 0.5761   0.177864
 C 0.0081 0.1172 0.8497   -0.128472
 C 0.9776 0.0266 0.8799   -0.156961
 C 0.9749 0.9638 0.7518   -0.172368
 C 0.9731 0.9493 0.8311   0.273997
 C 0.9966 0.0533 0.7216   -0.15333
 C 0.7274 0.1248 0.4177   0.189091
 C 0.7233 0.1308 0.5477   0.176869
 C 0.6066 0.1333 0.5505   -0.216466
 C 0.6114 0.1274 0.4161   -0.208041
 C 0.5469 0.1293 0.4799   0.103151
 C 0.9882 0.9301 0.3626   0.654078
 C 0.4219 0.1303 0.481   0.095334
 C 0.0018 0.8695 0.2289   -0.062805
 C 0.2443 0.1708 0.5357   0.189109
 C 0.361 0.1701 0.5389   -0.205081
 C 0.0097 0.7999 0.0987   0.659427
 C 0.3587 0.0854 0.4217   -0.215518
 C 0.2417 0.0875 0.4239   0.177864
 C 0.0081 0.8828 0.1503   -0.128472
 C 0.9776 0.9734 0.1201   -0.156961
 C 0.9749 0.0362 0.2482   -0.172368
 C 0.9731 0.0507 0.1689   0.273997
 C 0.9966 0.9467 0.2784   -0.15333
 N 0.2129 0.6288 0.0174   -0.32234
 N 0.8174 0.6294 0.0189   -0.326587
 N 0.0542 0.6401 0.3641   -0.730741
 N 0.2129 0.3712 0.9826   -0.32234
 N 0.8174 0.3706 0.9811   -0.326587
 N 0.0542 0.3599 0.6359   -0.730741
 N 0.7871 0.8712 0.5174   -0.322341
 N 0.1826 0.8706 0.5189   -0.326587
 N 0.9458 0.8599 0.8641   -0.730741
 N 0.7871 0.1288 0.4826   -0.322341
 N 0.1826 0.1294 0.4811   -0.326587
 N 0.9458 0.1401 0.1359   -0.730741
 O 0.0141 0.4975 0.0902   -0.654736
 O 0.0122 0.3462 0.1137   -0.583703
 O 0.9992 0.3107 0.4737   -0.633104
 O 0.9782 0.2219 0.3724   -0.604947
 O 0.0141 0.5025 0.9098   -0.654736
 O 0.0122 0.6538 0.8863   -0.583703
 O 0.9992 0.6893 0.5263   -0.633104
 O 0.9782 0.7781 0.6276   -0.604947
 O 0.9859 0.0025 0.5902   -0.654736
 O 0.9878 0.1538 0.6137   -0.583703
 O 0.000799999999998 0.1893 0.9737   -0.633104
 O 0.0218 0.2781 0.8724   -0.604947
 O 0.9859 0.9975 0.4098   -0.654736
 O 0.9878 0.8462 0.3863   -0.583703
 O 0.000799999999998 0.8107 0.0263   -0.633104
 O 0.0218 0.7219 0.1276   -0.604947
