{'_ref': 'TBD', '_srcid': 'CAKYAQ_clean', 'submitters': [{'name': 'Dalar Nazarian Jeff Camp and David Sholl', 'email': 'dalar@gatech.edu jcamp6@gatech.edu'}], '_method': 'VASP DFT with PBE;DDEC'}
data_CuH13C18N3O4
_symmetry_space_group_name_H-M   'P 1'
_cell_length_a   11.09800000
_cell_length_b   14.30400000
_cell_length_c   16.97000000
_cell_angle_alpha   90.00000000
_cell_angle_beta   90.00000000
_cell_angle_gamma   90.00000000
_symmetry_Int_Tables_number   1
_chemical_formula_structural   CuH13C18N3O4
_chemical_formula_sum   'Cu4 H52 C72 N12 O16'
_cell_volume   2693.91609024
_cell_formula_units_Z   4
loop_
 _symmetry_equiv_pos_site_id
 _symmetry_equiv_pos_as_xyz
  1  'x, y, z'
loop_
 _atom_site_label
 _atom_site_fract_x
 _atom_site_fract_y
 _atom_site_fract_z
 _atom_site_charge
 Cu 0.0 0.84887 0.98452   0.88903
 Cu 0.0 0.65113 0.48452   0.88903
 Cu 0.0 0.15113 0.01548   0.88903
 Cu 0.0 0.34887 0.51548   0.88903
 H 0.2021 0.7891 0.0847   0.085635
 H 0.2011 0.9181 0.8858   0.090077
 H 0.408 0.7885 0.088   0.129812
 H 0.4054 0.9229 0.8842   0.125072
 H 0.7979 0.7109 0.5847   0.085635
 H 0.7989 0.5819 0.3858   0.090077
 H 0.592 0.7115 0.588   0.129812
 H 0.5946 0.5771 0.3842   0.125072
 H 0.7979 0.7891 0.0847   0.085634
 H 0.7989 0.9181 0.8858   0.090076
 H 0.592 0.7885 0.088   0.129827
 H 0.5946 0.9229 0.8842   0.125083
 H 0.2021 0.7109 0.5847   0.085634
 H 0.2011 0.5819 0.3858   0.090076
 H 0.408 0.7115 0.588   0.129827
 H 0.4054 0.5771 0.3842   0.125083
 H 0.0 0.0926 0.214   0.126215
 H 0.0 0.9886 0.4338   0.126203
 H 0.0 0.8149 0.2492   0.088706
 H 0.0 0.1944 0.329   0.32464
 H 0.0 0.1538 0.4098   0.338315
 H 0.0 0.4074 0.714   0.126215
 H 0.0 0.5114 0.9338   0.126203
 H 0.0 0.6851 0.7492   0.088706
 H 0.0 0.3056 0.829   0.32464
 H 0.0 0.3462 0.9098   0.338315
 H 0.2021 0.2109 0.9153   0.085635
 H 0.2011 0.0819 0.1142   0.090076
 H 0.408 0.2115 0.912   0.129814
 H 0.4054 0.0771 0.1158   0.125074
 H 0.7979 0.2891 0.4153   0.085635
 H 0.7989 0.4181 0.6142   0.090076
 H 0.592 0.2885 0.412   0.129814
 H 0.5946 0.4229 0.6158   0.125074
 H 0.7979 0.2109 0.9153   0.085635
 H 0.7989 0.0819 0.1142   0.090076
 H 0.592 0.2115 0.912   0.129828
 H 0.5946 0.0771 0.1158   0.125085
 H 0.2021 0.2891 0.4153   0.085635
 H 0.2011 0.4181 0.6142   0.090076
 H 0.408 0.2885 0.412   0.129828
 H 0.4054 0.4229 0.6158   0.125085
 H 0.0 0.9074 0.786   0.126216
 H 0.0 0.0114 0.5662   0.126198
 H 0.0 0.1851 0.7508   0.088708
 H 0.0 0.8056 0.671   0.324642
 H 0.0 0.8462 0.5902   0.338315
 H 0.0 0.5926 0.286   0.126216
 H 0.0 0.4886 0.0662   0.126198
 H 0.0 0.3149 0.2508   0.088708
 H 0.0 0.6944 0.171   0.324642
 H 0.0 0.6538 0.0902   0.338315
 C 0.2438 0.8162 0.043   0.18113
 C 0.243 0.8914 0.9275   0.183305
 C 0.3684 0.8157 0.0455   -0.200604
 C 0.4337 0.8551 0.9854   0.092281
 C 0.3665 0.8941 0.9262   -0.203816
 C 0.7562 0.6838 0.543   0.18113
 C 0.757 0.6086 0.4275   0.183306
 C 0.6316 0.6843 0.5455   -0.200604
 C 0.5663 0.6449 0.4854   0.092281
 C 0.6335 0.6059 0.4262   -0.203816
 C 0.7562 0.8162 0.043   0.181131
 C 0.757 0.8914 0.9275   0.183307
 C 0.6316 0.8157 0.0455   -0.200607
 C 0.5663 0.8551 0.9854   0.092289
 C 0.6335 0.8941 0.9262   -0.20382
 C 0.2438 0.6838 0.543   0.181131
 C 0.243 0.6086 0.4275   0.183307
 C 0.3684 0.6843 0.5455   -0.200607
 C 0.4337 0.6449 0.4854   0.092289
 C 0.3665 0.6059 0.4262   -0.20382
 C 0.0 0.9416 0.1295   0.655056
 C 0.0 0.9514 0.2185   -0.120822
 C 0.0 0.0419 0.2483   -0.206234
 C 0.0 0.0567 0.3275   0.29323
 C 0.0 0.9794 0.3795   -0.180208
 C 0.0 0.8891 0.348   -0.098111
 C 0.0 0.8754 0.2693   -0.096634
 C 0.0 0.8094 0.4069   0.642011
 C 0.0 0.5584 0.6295   0.655056
 C 0.0 0.5486 0.7185   -0.120822
 C 0.0 0.4581 0.7483   -0.206234
 C 0.0 0.4433 0.8275   0.29323
 C 0.0 0.5206 0.8795   -0.180208
 C 0.0 0.6109 0.848   -0.098111
 C 0.0 0.6246 0.7693   -0.096634
 C 0.0 0.6906 0.9069   0.642011
 C 0.2438 0.1838 0.957   0.181129
 C 0.243 0.1086 0.0725   0.183305
 C 0.3684 0.1843 0.9545   -0.200604
 C 0.4337 0.1449 0.0146   0.092281
 C 0.3665 0.1059 0.0738   -0.203818
 C 0.7562 0.3162 0.457   0.181129
 C 0.757 0.3914 0.5725   0.183305
 C 0.6316 0.3157 0.4545   -0.200604
 C 0.5663 0.3551 0.5146   0.092281
 C 0.6335 0.3941 0.5738   -0.203818
 C 0.7562 0.1838 0.957   0.181131
 C 0.757 0.1086 0.0725   0.183307
 C 0.6316 0.1843 0.9545   -0.200607
 C 0.5663 0.1449 0.0146   0.092289
 C 0.6335 0.1059 0.0738   -0.203822
 C 0.2438 0.3162 0.457   0.181131
 C 0.243 0.3914 0.5725   0.183307
 C 0.3684 0.3157 0.4545   -0.200607
 C 0.4337 0.3551 0.5146   0.092289
 C 0.3665 0.3941 0.5738   -0.203822
 C 0.0 0.0584 0.8705   0.655056
 C 0.0 0.0486 0.7815   -0.120821
 C 0.0 0.9581 0.7517   -0.206234
 C 0.0 0.9433 0.6725   0.293229
 C 0.0 0.0206 0.6205   -0.180207
 C 0.0 0.1109 0.652   -0.098111
 C 0.0 0.1246 0.7307   -0.096635
 C 0.0 0.1906 0.5931   0.642011
 C 0.0 0.4416 0.3705   0.655056
 C 0.0 0.4514 0.2815   -0.120821
 C 0.0 0.5419 0.2517   -0.206234
 C 0.0 0.5567 0.1725   0.293229
 C 0.0 0.4794 0.1205   -0.180207
 C 0.0 0.3891 0.152   -0.098111
 C 0.0 0.3754 0.2307   -0.096635
 C 0.0 0.3094 0.0931   0.642011
 N 0.181 0.8529 0.9849   -0.299077
 N 0.819 0.6471 0.4849   -0.299077
 N 0.819 0.8529 0.9849   -0.299078
 N 0.181 0.6471 0.4849   -0.299078
 N 0.0 0.1464 0.3595   -0.711531
 N 0.0 0.3536 0.8595   -0.711531
 N 0.181 0.1471 0.0151   -0.299077
 N 0.819 0.3529 0.5151   -0.299077
 N 0.819 0.1471 0.0151   -0.299077
 N 0.181 0.3529 0.5151   -0.299077
 N 0.0 0.8536 0.6405   -0.711532
 N 0.0 0.6464 0.1405   -0.711532
 O 0.0 0.8585 0.1017   -0.58996
 O 0.0 0.0121 0.0891   -0.641093
 O 0.0 0.7267 0.3822   -0.583101
 O 0.0 0.8265 0.4792   -0.623372
 O 0.0 0.6415 0.6017   -0.58996
 O 0.0 0.4879 0.5891   -0.641093
 O 0.0 0.7733 0.8822   -0.583101
 O 0.0 0.6735 0.9792   -0.623372
 O 0.0 0.1415 0.8983   -0.58996
 O 0.0 0.9879 0.9109   -0.641093
 O 0.0 0.2733 0.6178   -0.583101
 O 0.0 0.1735 0.5208   -0.623372
 O 0.0 0.3585 0.3983   -0.58996
 O 0.0 0.5121 0.4109   -0.641093
 O 0.0 0.2267 0.1178   -0.583101
 O 0.0 0.3265 0.0208   -0.623372
