{'_ref': 'TBD', '_srcid': 'CAKYAQ_clean', 'submitters': [{'name': 'Dalar Nazarian Jeff Camp and David Sholl', 'email': 'dalar@gatech.edu jcamp6@gatech.edu'}], '_method': 'VASP DFT with PBE;DDEC'}
data_CuH16(C5N2)4
_symmetry_space_group_name_H-M   'P 1'
_cell_length_a   3.88100000
_cell_length_b   21.61400000
_cell_length_c   21.61400000
_cell_angle_alpha   90.00000000
_cell_angle_beta   90.00000000
_cell_angle_gamma   90.00000000
_symmetry_Int_Tables_number   1
_chemical_formula_structural   CuH16(C5N2)4
_chemical_formula_sum   'Cu4 H64 C80 N32'
_cell_volume   1813.06734948
_cell_formula_units_Z   4
loop_
 _symmetry_equiv_pos_site_id
 _symmetry_equiv_pos_as_xyz
  1  'x, y, z'
loop_
 _atom_site_label
 _atom_site_fract_x
 _atom_site_fract_y
 _atom_site_fract_z
 _atom_site_charge
 Cu 0.75 0.5 0.0   0.864943
 Cu 0.25 0.0 0.5   0.864943
 Cu 0.0 0.0 0.0   0.864943
 Cu 0.5 0.5 0.5   0.864943
 H 0.69 0.1548 0.9572   0.14419
 H 0.19 0.6548 0.4572   0.14419
 H 0.94 0.0428 0.6548   0.14419
 H 0.44 0.5428 0.1548   0.14419
 H 0.69 0.8452 0.0428   0.14419
 H 0.19 0.3452 0.5428   0.14419
 H 0.94 0.9572 0.3452   0.14419
 H 0.44 0.4572 0.8452   0.14419
 H 0.0765 0.3405 0.0462   0.131782
 H 0.5765 0.8405 0.5462   0.131782
 H 0.3265 0.9538 0.8405   0.131783
 H 0.8265 0.4538 0.3405   0.131783
 H 0.0765 0.6595 0.9538   0.131783
 H 0.5765 0.1595 0.4538   0.131783
 H 0.3265 0.0462 0.1595   0.131783
 H 0.8265 0.5462 0.6595   0.131783
 H 0.8517 0.3136 0.1355   0.111872
 H 0.3517 0.8136 0.6355   0.111872
 H 0.1017 0.8645 0.8136   0.111872
 H 0.6017 0.3645 0.3136   0.111872
 H 0.8517 0.6864 0.8645   0.111872
 H 0.3517 0.1864 0.3645   0.111872
 H 0.1017 0.1355 0.1864   0.111873
 H 0.6017 0.6355 0.6864   0.111873
 H 0.7435 0.248 0.1594   0.138846
 H 0.2435 0.748 0.6594   0.138846
 H 0.9935 0.8406 0.748   0.138849
 H 0.4935 0.3406 0.248   0.138849
 H 0.7435 0.752 0.8406   0.138849
 H 0.2435 0.252 0.3406   0.138849
 H 0.9935 0.1594 0.252   0.138852
 H 0.4935 0.6594 0.752   0.138852
 H 0.4637 0.2936 0.1337   0.130545
 H 0.9637 0.7936 0.6337   0.130545
 H 0.7137 0.8663 0.7936   0.130545
 H 0.2137 0.3663 0.2936   0.130545
 H 0.4637 0.7064 0.8663   0.130545
 H 0.9637 0.2064 0.3663   0.130545
 H 0.7137 0.1337 0.2064   0.130545
 H 0.2137 0.6337 0.7064   0.130545
 H 0.9968 0.1741 0.8539   0.141587
 H 0.4968 0.6741 0.3539   0.141587
 H 0.2468 0.1461 0.6741   0.141587
 H 0.7468 0.6461 0.1741   0.141587
 H 0.9968 0.8259 0.1461   0.141587
 H 0.4968 0.3259 0.6461   0.141587
 H 0.2468 0.8539 0.3259   0.141587
 H 0.7468 0.3539 0.8259   0.141587
 H 0.2587 0.2288 0.8615   0.120287
 H 0.7587 0.7288 0.3615   0.120287
 H 0.5087 0.1385 0.7288   0.120288
 H 0.0087 0.6385 0.2288   0.120288
 H 0.2587 0.7712 0.1385   0.120288
 H 0.7587 0.2712 0.6385   0.120288
 H 0.5087 0.8615 0.2712   0.120288
 H 0.0087 0.3615 0.7712   0.120288
 H 0.8639 0.2426 0.8548   0.123403
 H 0.3639 0.7426 0.3548   0.123403
 H 0.1139 0.1452 0.7426   0.123404
 H 0.6139 0.6452 0.2426   0.123404
 H 0.8639 0.7574 0.1452   0.123404
 H 0.3639 0.2574 0.6452   0.123404
 H 0.1139 0.8548 0.2574   0.123404
 H 0.6139 0.3548 0.7574   0.123404
 C 0.6765 0.2094 0.035   0.249347
 C 0.1765 0.7094 0.535   0.249347
 C 0.9265 0.965 0.7094   0.249347
 C 0.4265 0.465 0.2094   0.249347
 C 0.6765 0.7906 0.965   0.249347
 C 0.1765 0.2906 0.465   0.249347
 C 0.9265 0.035 0.2906   0.249347
 C 0.4265 0.535 0.7906   0.249347
 C 0.7618 0.1938 0.9742   -0.256106
 C 0.2618 0.6938 0.4742   -0.256106
 C 0.0118 0.0258 0.6938   -0.256106
 C 0.5118 0.5258 0.1938   -0.256106
 C 0.7618 0.8062 0.0258   -0.256106
 C 0.2618 0.3062 0.5258   -0.256106
 C 0.0118 0.9742 0.3062   -0.256106
 C 0.5118 0.4742 0.8062   -0.256106
 C 0.9602 0.2349 0.9376   0.095047
 C 0.4602 0.7349 0.4376   0.095047
 C 0.2102 0.0624 0.7349   0.095047
 C 0.7102 0.5624 0.2349   0.095047
 C 0.9602 0.7651 0.0624   0.095047
 C 0.4602 0.2651 0.5624   0.095047
 C 0.2102 0.9376 0.2651   0.095047
 C 0.7102 0.4376 0.7651   0.095047
 C 0.0778 0.2908 0.963   0.252806
 C 0.5778 0.7908 0.463   0.252806
 C 0.3278 0.037 0.7908   0.252806
 C 0.8278 0.537 0.2908   0.252806
 C 0.0778 0.7092 0.037   0.252806
 C 0.5778 0.2092 0.537   0.252806
 C 0.3278 0.963 0.2092   0.252806
 C 0.8278 0.463 0.7092   0.252806
 C 0.9855 0.3034 0.0281   -0.244847
 C 0.4855 0.8034 0.5281   -0.244847
 C 0.2355 0.9719 0.8034   -0.244847
 C 0.7355 0.4719 0.3034   -0.244847
 C 0.9855 0.6966 0.9719   -0.244847
 C 0.4855 0.1966 0.4719   -0.244847
 C 0.2355 0.0281 0.1966   -0.244847
 C 0.7355 0.5281 0.6966   -0.244847
 C 0.7985 0.2684 0.0625   0.103983
 C 0.2985 0.7684 0.5625   0.103983
 C 0.0485 0.9375 0.7684   0.103983
 C 0.5485 0.4375 0.2684   0.103983
 C 0.7985 0.7316 0.9375   0.103984
 C 0.2985 0.2316 0.4375   0.103984
 C 0.0485 0.0625 0.2316   0.103984
 C 0.5485 0.5625 0.7316   0.103984
 C 0.697 0.2795 0.1293   -0.356306
 C 0.197 0.7795 0.6293   -0.356306
 C 0.947 0.8707 0.7795   -0.356307
 C 0.447 0.3707 0.2795   -0.356307
 C 0.697 0.7205 0.8707   -0.356308
 C 0.197 0.2205 0.3707   -0.356308
 C 0.947 0.1293 0.2205   -0.356309
 C 0.447 0.6293 0.7205   -0.356309
 C 0.0311 0.2145 0.8715   -0.355826
 C 0.5311 0.7145 0.3715   -0.355826
 C 0.2811 0.1285 0.7145   -0.355826
 C 0.7811 0.6285 0.2145   -0.355826
 C 0.0311 0.7855 0.1285   -0.355826
 C 0.5311 0.2855 0.6285   -0.355826
 C 0.2811 0.8715 0.2855   -0.355826
 C 0.7811 0.3715 0.7855   -0.355826
 C 0.3641 0.1206 0.0497   0.549949
 C 0.8641 0.6206 0.5497   0.549949
 C 0.6141 0.9503 0.6206   0.549949
 C 0.1141 0.4503 0.1206   0.549949
 C 0.3641 0.8794 0.9503   0.549949
 C 0.8641 0.3794 0.4503   0.549949
 C 0.6141 0.0497 0.3794   0.549949
 C 0.1141 0.5497 0.8794   0.549949
 C 0.3972 0.3806 0.9515   0.552934
 C 0.8972 0.8806 0.4515   0.552934
 C 0.6472 0.0485 0.8806   0.552934
 C 0.1472 0.5485 0.3806   0.552934
 C 0.3972 0.6194 0.0485   0.552934
 C 0.8972 0.1194 0.5485   0.552934
 C 0.6472 0.9515 0.1194   0.552934
 C 0.1472 0.4515 0.6194   0.552934
 N 0.4834 0.172 0.0712   -0.438775
 N 0.9834 0.672 0.5712   -0.438775
 N 0.7334 0.9288 0.672   -0.438775
 N 0.2334 0.4288 0.172   -0.438775
 N 0.4834 0.828 0.9288   -0.438775
 N 0.9834 0.328 0.4288   -0.438775
 N 0.7334 0.0712 0.328   -0.438775
 N 0.2334 0.5712 0.828   -0.438775
 N 0.244 0.0721 0.0365   -0.609445
 N 0.744 0.5721 0.5365   -0.609445
 N 0.494 0.9635 0.5721   -0.609445
 N 0.994 0.4635 0.0721   -0.609445
 N 0.244 0.9279 0.9635   -0.609445
 N 0.744 0.4279 0.4635   -0.609445
 N 0.494 0.0365 0.4279   -0.609445
 N 0.994 0.5365 0.9279   -0.609445
 N 0.2741 0.3268 0.9282   -0.447851
 N 0.7741 0.8268 0.4282   -0.447851
 N 0.5241 0.0718 0.8268   -0.447851
 N 0.0241 0.5718 0.3268   -0.447851
 N 0.2741 0.6732 0.0718   -0.447851
 N 0.7741 0.1732 0.5718   -0.447851
 N 0.5241 0.9282 0.1732   -0.447851
 N 0.0241 0.4282 0.6732   -0.447851
 N 0.5183 0.4261 0.9658   -0.569899
 N 0.0183 0.9261 0.4658   -0.569899
 N 0.7683 0.0342 0.9261   -0.569899
 N 0.2683 0.5342 0.4261   -0.569899
 N 0.5183 0.5739 0.0342   -0.569899
 N 0.0183 0.0739 0.5342   -0.569899
 N 0.7683 0.9658 0.0739   -0.569899
 N 0.2683 0.4658 0.5739   -0.569899
