{'_ref': 'TBD', '_srcid': 'CAKYAQ_clean', 'submitters': [{'name': 'Dalar Nazarian Jeff Camp and David Sholl', 'email': 'dalar@gatech.edu jcamp6@gatech.edu'}], '_method': 'VASP DFT with PBE;DDEC'}
data_ZnH7C8N5O2
_symmetry_space_group_name_H-M   'P 1'
_cell_length_a   9.77480017
_cell_length_b   11.97950029
_cell_length_c   11.97950000
_cell_angle_alpha   90.30779979
_cell_angle_beta   110.04900181
_cell_angle_gamma   110.04899976
_symmetry_Int_Tables_number   1
_chemical_formula_structural   ZnH7C8N5O2
_chemical_formula_sum   'Zn4 H28 C32 N20 O8'
_cell_volume   1225.83806689
_cell_formula_units_Z   4
loop_
 _symmetry_equiv_pos_site_id
 _symmetry_equiv_pos_as_xyz
  1  'x, y, z'
loop_
 _atom_site_label
 _atom_site_fract_x
 _atom_site_fract_y
 _atom_site_fract_z
 _atom_site_charge
 Zn 0.84653 0.15922 0.37406   0.794857
 Zn 0.34653 0.37406 0.15922   0.794857
 Zn 0.65347 0.62594 0.84078   0.794857
 Zn 0.15347 0.84078 0.62594   0.794857
 H 0.1994 0.4734 0.7446   0.125577
 H 0.9931 0.1261 0.7609   0.115795
 H 0.3226 0.5038 0.949   0.071119
 H 0.1247 0.1646 0.9648   0.083616
 H 0.2029 0.4777 0.3443   0.166395
 H 0.0554 0.4481 0.2259   0.148906
 H 0.0346 0.4188 0.3478   0.160198
 H 0.6994 0.7446 0.4734   0.125577
 H 0.4931 0.7609 0.1261   0.115797
 H 0.8226 0.949 0.5038   0.07112
 H 0.6247 0.9648 0.1646   0.083616
 H 0.7029 0.3443 0.4777   0.166395
 H 0.5554 0.2259 0.4481   0.148906
 H 0.5346 0.3478 0.4188   0.160198
 H 0.3006 0.2554 0.5266   0.125577
 H 0.5069 0.2391 0.8739   0.115795
 H 0.1774 0.051 0.4962   0.071119
 H 0.3753 0.0352 0.8354   0.083619
 H 0.2971 0.6557 0.5223   0.166394
 H 0.4446 0.7741 0.5519   0.148905
 H 0.4654 0.6522 0.5812   0.160198
 H 0.8006 0.5266 0.2554   0.125577
 H 0.0069 0.8739 0.2391   0.115796
 H 0.6774 0.4962 0.051   0.07112
 H 0.8753 0.8354 0.0352   0.08362
 H 0.7971 0.5223 0.6557   0.166394
 H 0.9446 0.5519 0.7741   0.148905
 H 0.9654 0.5812 0.6522   0.160198
 C 0.000100000000003 0.2771 0.5961   0.615486
 C 0.1017 0.3024 0.2798   0.438638
 C 0.0814 0.2965 0.7303   -0.011428
 C 0.1818 0.4093 0.7881   -0.143731
 C 0.0599 0.2036 0.7974   -0.126177
 C 0.2559 0.4268 0.9106   0.166265
 C 0.1391 0.2278 0.9198   0.148589
 C 0.0983 0.4221 0.3013   -0.46544
 C 0.5001 0.5961 0.2771   0.615486
 C 0.6017 0.2798 0.3024   0.438639
 C 0.5814 0.7303 0.2965   -0.011428
 C 0.6818 0.7881 0.4093   -0.14373
 C 0.5599 0.7974 0.2036   -0.126178
 C 0.7559 0.9106 0.4268   0.166264
 C 0.6391 0.9198 0.2278   0.148589
 C 0.5983 0.3013 0.4221   -0.46544
 C 0.4999 0.4039 0.7229   0.615486
 C 0.3983 0.7202 0.6976   0.438639
 C 0.4186 0.2697 0.7035   -0.011429
 C 0.3182 0.2119 0.5907   -0.143731
 C 0.4401 0.2026 0.7964   -0.126175
 C 0.2441 0.0894 0.5732   0.166265
 C 0.3609 0.0802 0.7722   0.148588
 C 0.4017 0.6987 0.5779   -0.465441
 C 0.9999 0.7229 0.4039   0.615486
 C 0.8983 0.6976 0.7202   0.438638
 C 0.9186 0.7035 0.2697   -0.011429
 C 0.8182 0.5907 0.2119   -0.143731
 C 0.9401 0.7964 0.2026   -0.126175
 C 0.7441 0.5732 0.0894   0.166264
 C 0.8609 0.7722 0.0802   0.148588
 C 0.9017 0.5779 0.6987   -0.465441
 N 0.0151 0.20038 0.30582   -0.315808
 N 0.2357 0.33719 0.97689   -0.324316
 N 0.0546 0.113 0.2706   -0.070114
 N 0.193 0.27865 0.22915   -0.30832
 N 0.1606 0.1592 0.2252   -0.131075
 N 0.5151 0.30582 0.20038   -0.315808
 N 0.7357 0.97689 0.33719   -0.324315
 N 0.5546 0.2706 0.113   -0.070113
 N 0.693 0.22915 0.27865   -0.308321
 N 0.6606 0.2252 0.1592   -0.131074
 N 0.4849 0.69418 0.79962   -0.315808
 N 0.2643 0.02311 0.66281   -0.324316
 N 0.4454 0.7294 0.887   -0.070113
 N 0.307 0.77085 0.72135   -0.308321
 N 0.3394 0.7748 0.8408   -0.131075
 N 0.9849 0.79962 0.69418   -0.315808
 N 0.7643 0.66281 0.02311   -0.324315
 N 0.9454 0.887 0.7294   -0.070113
 N 0.807 0.72135 0.77085   -0.30832
 N 0.8394 0.8408 0.7748   -0.131074
 O 0.9104 0.16993 0.54817   -0.594409
 O 0.0204 0.36089 0.53891   -0.544626
 O 0.4104 0.54817 0.16993   -0.594409
 O 0.5204 0.53891 0.36089   -0.544626
 O 0.5896 0.45183 0.83007   -0.594409
 O 0.4796 0.46109 0.63911   -0.544623
 O 0.0896 0.83007 0.45183   -0.594409
 O 0.9796 0.63911 0.46109   -0.544623
