{'_ref': 'TBD', '_srcid': 'CAKYAQ_clean', 'submitters': [{'name': 'Dalar Nazarian Jeff Camp and David Sholl', 'email': 'dalar@gatech.edu jcamp6@gatech.edu'}], '_method': 'VASP DFT with PBE;DDEC'}
data_Zn4H24C51(O7F9)2
_symmetry_space_group_name_H-M   'P 1'
_cell_length_a   7.54200000
_cell_length_b   17.89900002
_cell_length_c   23.65940000
_cell_angle_alpha   92.66070124
_cell_angle_beta   90.00000000
_cell_angle_gamma   90.00000000
_symmetry_Int_Tables_number   1
_chemical_formula_structural   Zn4H24C51(O7F9)2
_chemical_formula_sum   'Zn8 H48 C102 O28 F36'
_cell_volume   3190.43998502
_cell_formula_units_Z   2
loop_
 _symmetry_equiv_pos_site_id
 _symmetry_equiv_pos_as_xyz
  1  'x, y, z'
loop_
 _atom_site_label
 _atom_site_fract_x
 _atom_site_fract_y
 _atom_site_fract_z
 _atom_site_charge
 Zn 0.47332 0.42081 0.96959   1.096686
 Zn 0.79009 0.49032 0.91268   1.02236
 Zn 0.47332 0.07919 0.53041   1.096686
 Zn 0.79009 0.00968 0.58732   1.02236
 Zn 0.52668 0.57919 0.03041   1.096686
 Zn 0.20991 0.50968 0.08732   1.022361
 Zn 0.52668 0.92081 0.46959   1.096686
 Zn 0.20991 0.99032 0.41268   1.022361
 H 0.0498 0.6091 0.7854   0.087823
 H 0.2305 0.6775 0.7295   0.112402
 H 0.5624 0.7122 0.8602   0.111976
 H 0.5575 0.9968 0.7414   0.096176
 H 0.4263 0.9941 0.8286   0.097366
 H 0.9949 0.0912 0.7675   0.116338
 H 0.1241 0.0919 0.6798   0.095628
 H 0.2284 0.176 0.8581   0.111942
 H 0.1215 0.2928 0.882   0.102616
 H 0.6628 0.2015 0.9279   0.101163
 H 0.7742 0.0848 0.9062   0.101467
 H 0.3761 0.6455 0.9156   0.076302
 H 0.0498 0.8909 0.7146   0.087823
 H 0.2305 0.8225 0.7705   0.112402
 H 0.5624 0.7878 0.6398   0.111976
 H 0.5575 0.5032 0.7586   0.096176
 H 0.4263 0.5059 0.6714   0.097366
 H 0.9949 0.4088 0.7325   0.116338
 H 0.1241 0.4081 0.8202   0.095628
 H 0.2284 0.324 0.6419   0.111942
 H 0.1215 0.2072 0.618   0.102616
 H 0.6628 0.2985 0.5721   0.101163
 H 0.7742 0.4152 0.5938   0.101467
 H 0.3761 0.8545 0.5844   0.076302
 H 0.9502 0.3909 0.2146   0.087823
 H 0.7695 0.3225 0.2705   0.112402
 H 0.4376 0.2878 0.1398   0.111976
 H 0.4425 0.0032 0.2586   0.096176
 H 0.5737 0.0059 0.1714   0.097366
 H 0.0051 0.9088 0.2325   0.116338
 H 0.8759 0.9081 0.3202   0.095628
 H 0.7716 0.824 0.1419   0.111942
 H 0.8785 0.7072 0.118   0.102616
 H 0.3372 0.7985 0.0721   0.101162
 H 0.2258 0.9152 0.0938   0.101467
 H 0.6239 0.3545 0.0844   0.076302
 H 0.9502 0.1091 0.2854   0.087823
 H 0.7695 0.1775 0.2295   0.112402
 H 0.4376 0.2122 0.3602   0.111976
 H 0.4425 0.4968 0.2414   0.096176
 H 0.5737 0.4941 0.3286   0.097366
 H 0.0051 0.5912 0.2675   0.116338
 H 0.8759 0.5919 0.1798   0.095628
 H 0.7716 0.676 0.3581   0.111942
 H 0.8785 0.7928 0.382   0.102616
 H 0.3372 0.7015 0.4279   0.101162
 H 0.2258 0.5848 0.4062   0.101467
 H 0.6239 0.1455 0.4156   0.076302
 C 0.8022 0.3352 0.9202   0.722228
 C 0.0671 0.5802 0.8935   0.622107
 C 0.1903 0.622 0.857   -0.14463
 C 0.1516 0.631 0.8009   -0.003331
 C 0.2602 0.6717 0.7672   -0.14369
 C 0.4134 0.7042 0.789   0.089407
 C 0.4575 0.6927 0.8451   -0.148241
 C 0.6499 0.8067 0.783   0.686712
 C 0.4412 0.045 0.6448   0.706247
 C 0.3545 0.045 0.7009   -0.170078
 C 0.4436 0.0158 0.7465   0.003788
 C 0.3655 0.0144 0.7988   -0.159587
 C 0.1971 0.0432 0.8075   0.089553
 C 0.1086 0.0719 0.7623   -0.143841
 C 0.1863 0.0726 0.7098   0.003538
 C 0.0992 0.0412 0.865   -0.307115
 C 0.9608 0.9776 0.859   0.689313
 C 0.2234 0.0237 0.9142   0.700442
 C 0.0146 0.1175 0.8797   0.088841
 C 0.1142 0.181 0.8726   -0.146188
 C 0.0503 0.251 0.8863   -0.016692
 C 0.8776 0.2594 0.9067   -0.157558
 C 0.7776 0.1966 0.9139   -0.00534
 C 0.8442 0.1266 0.9008   -0.146675
 C 0.3458 0.6524 0.8781   0.00282
 C 0.8022 0.1648 0.5798   0.722228
 C 0.0671 0.9198 0.6065   0.622107
 C 0.1903 0.878 0.643   -0.144631
 C 0.1516 0.869 0.6991   -0.003332
 C 0.2602 0.8283 0.7328   -0.14369
 C 0.4134 0.7958 0.711   0.089407
 C 0.4575 0.8073 0.6549   -0.148241
 C 0.6499 0.6933 0.717   0.686712
 C 0.4412 0.455 0.8552   0.706247
 C 0.3545 0.455 0.7991   -0.170079
 C 0.4436 0.4842 0.7535   0.003788
 C 0.3655 0.4856 0.7012   -0.159588
 C 0.1971 0.4568 0.6925   0.089553
 C 0.1086 0.4281 0.7377   -0.143841
 C 0.1863 0.4274 0.7902   0.003539
 C 0.0992 0.4588 0.635   -0.307115
 C 0.9608 0.5224 0.641   0.689313
 C 0.2234 0.4763 0.5858   0.700442
 C 0.0146 0.3825 0.6203   0.088841
 C 0.1142 0.319 0.6274   -0.146187
 C 0.0503 0.249 0.6137   -0.016692
 C 0.8776 0.2406 0.5933   -0.157559
 C 0.7776 0.3034 0.5861   -0.00534
 C 0.8442 0.3734 0.5992   -0.146675
 C 0.3458 0.8476 0.6219   0.00282
 C 0.1978 0.6648 0.0798   0.722228
 C 0.9329 0.4198 0.1065   0.622107
 C 0.8097 0.378 0.143   -0.14463
 C 0.8484 0.369 0.1991   -0.003331
 C 0.7398 0.3283 0.2328   -0.14369
 C 0.5866 0.2958 0.211   0.089407
 C 0.5425 0.3073 0.1549   -0.148241
 C 0.3501 0.1933 0.217   0.686712
 C 0.5588 0.955 0.3552   0.706247
 C 0.6455 0.955 0.2991   -0.170078
 C 0.5564 0.9842 0.2535   0.003788
 C 0.6345 0.9856 0.2012   -0.159587
 C 0.8029 0.9568 0.1925   0.089553
 C 0.8914 0.9281 0.2377   -0.143841
 C 0.8137 0.9274 0.2902   0.003538
 C 0.9008 0.9588 0.135   -0.307115
 C 0.0392 0.0224 0.141   0.689313
 C 0.7766 0.9763 0.0858   0.700443
 C 0.9854 0.8825 0.1203   0.088841
 C 0.8858 0.819 0.1274   -0.146188
 C 0.9497 0.749 0.1137   -0.016692
 C 0.1224 0.7406 0.0933   -0.157559
 C 0.2224 0.8034 0.0861   -0.00534
 C 0.1558 0.8734 0.0992   -0.146675
 C 0.6542 0.3476 0.1219   0.00282
 C 0.1978 0.8352 0.4202   0.722228
 C 0.9329 0.0802 0.3935   0.622107
 C 0.8097 0.122 0.357   -0.14463
 C 0.8484 0.131 0.3009   -0.003332
 C 0.7398 0.1717 0.2672   -0.14369
 C 0.5866 0.2042 0.289   0.089407
 C 0.5425 0.1927 0.3451   -0.148241
 C 0.3501 0.3067 0.283   0.686712
 C 0.5588 0.545 0.1448   0.706247
 C 0.6455 0.545 0.2009   -0.170079
 C 0.5564 0.5158 0.2465   0.003788
 C 0.6345 0.5144 0.2988   -0.159588
 C 0.8029 0.5432 0.3075   0.089553
 C 0.8914 0.5719 0.2623   -0.143841
 C 0.8137 0.5726 0.2098   0.003539
 C 0.9008 0.5412 0.365   -0.307115
 C 0.0392 0.4776 0.359   0.689313
 C 0.7766 0.5237 0.4142   0.700443
 C 0.9854 0.6175 0.3797   0.088841
 C 0.8858 0.681 0.3726   -0.146188
 C 0.9497 0.751 0.3863   -0.016692
 C 0.1224 0.7594 0.4067   -0.157559
 C 0.2224 0.6966 0.4139   -0.00534
 C 0.1558 0.6266 0.4008   -0.146675
 C 0.6542 0.1524 0.3781   0.00282
 C 0.529 0.75 0.75   -0.303576
 C 0.471 0.25 0.25   -0.303576
 O 0.6549 0.33882 0.94342   -0.627533
 O 0.8949 0.39046 0.90716   -0.568628
 O 0.9236 0.55898 0.87078   -0.540231
 O 0.105 0.57018 0.94328   -0.414368
 O 0.5905 0.01591 0.64101   -0.596134
 O 0.3597 0.07252 0.60472   -0.584113
 O 0.673 0.49635 0.98705   -0.768035
 O 0.6549 0.16118 0.55658   -0.627533
 O 0.8949 0.10954 0.59284   -0.568628
 O 0.9236 0.94102 0.62922   -0.540231
 O 0.105 0.92982 0.55672   -0.414368
 O 0.5905 0.48409 0.85899   -0.596134
 O 0.3597 0.42748 0.89528   -0.584114
 O 0.673 0.00365 0.51295   -0.768035
 O 0.3451 0.66118 0.05658   -0.627533
 O 0.1051 0.60954 0.09284   -0.568628
 O 0.0764 0.44102 0.12922   -0.540231
 O 0.895 0.42982 0.05672   -0.414368
 O 0.4095 0.98409 0.35899   -0.596134
 O 0.6403 0.92748 0.39528   -0.584113
 O 0.327 0.50365 0.01295   -0.768035
 O 0.3451 0.83882 0.44342   -0.627533
 O 0.1051 0.89046 0.40716   -0.568628
 O 0.0764 0.05898 0.37078   -0.540231
 O 0.895 0.07018 0.44328   -0.414368
 O 0.4095 0.51591 0.14101   -0.596134
 O 0.6403 0.57252 0.10472   -0.584114
 O 0.327 0.99635 0.48705   -0.768035
 F 0.5577 0.84685 0.82115   -0.193956
 F 0.7819 0.77463 0.81053   -0.20845
 F 0.7237 0.8544 0.7493   -0.188648
 F 0.8301 0.99467 0.82417   -0.187438
 F 0.0345 0.91478 0.83788   -0.200027
 F 0.887 0.96119 0.90789   -0.201947
 F 0.3644 0.06829 0.91669   -0.196337
 F 0.2845 0.95353 0.91173   -0.208543
 F 0.1429 0.03314 0.96384   -0.206096
 F 0.5577 0.65315 0.67885   -0.193956
 F 0.7819 0.72537 0.68947   -0.208449
 F 0.7237 0.6456 0.7507   -0.188647
 F 0.8301 0.50533 0.67583   -0.187438
 F 0.0345 0.58522 0.66212   -0.200027
 F 0.887 0.53881 0.59211   -0.201947
 F 0.3644 0.43171 0.58331   -0.196337
 F 0.2845 0.54647 0.58827   -0.208543
 F 0.1429 0.46686 0.53616   -0.206096
 F 0.4423 0.15315 0.17885   -0.193956
 F 0.2181 0.22537 0.18947   -0.20845
 F 0.2763 0.1456 0.2507   -0.188648
 F 0.1699 0.00533 0.17583   -0.187438
 F 0.9655 0.08522 0.16212   -0.200027
 F 0.113 0.03881 0.09211   -0.201947
 F 0.6356 0.93171 0.08331   -0.196337
 F 0.7155 0.04647 0.08827   -0.208543
 F 0.8571 0.96686 0.03616   -0.206097
 F 0.4423 0.34685 0.32115   -0.193956
 F 0.2181 0.27463 0.31053   -0.208449
 F 0.2763 0.3544 0.2493   -0.188647
 F 0.1699 0.49467 0.32417   -0.187438
 F 0.9655 0.41478 0.33788   -0.200027
 F 0.113 0.46119 0.40789   -0.201947
 F 0.6356 0.56829 0.41669   -0.196337
 F 0.7155 0.45353 0.41173   -0.208543
 F 0.8571 0.53314 0.46384   -0.206097
