{'_ref': 'TBD', '_srcid': 'CAKYAQ_clean', 'submitters': [{'name': 'Dalar Nazarian Jeff Camp and David Sholl', 'email': 'dalar@gatech.edu jcamp6@gatech.edu'}], '_method': 'VASP DFT with PBE;DDEC'}
data_SmH4C7(NO3)2
_symmetry_space_group_name_H-M   'P 1'
_cell_length_a   10.25499955
_cell_length_b   11.26800000
_cell_length_c   22.19400000
_cell_angle_alpha   90.00000000
_cell_angle_beta   97.06100020
_cell_angle_gamma   90.00000000
_symmetry_Int_Tables_number   1
_chemical_formula_structural   SmH4C7(NO3)2
_chemical_formula_sum   'Sm8 H32 C56 N16 O48'
_cell_volume   2545.14045095
_cell_formula_units_Z   8
loop_
 _symmetry_equiv_pos_site_id
 _symmetry_equiv_pos_as_xyz
  1  'x, y, z'
loop_
 _atom_site_label
 _atom_site_fract_x
 _atom_site_fract_y
 _atom_site_fract_z
 _atom_site_charge
 Sm 0.38992 0.18834 0.77449   2.195965
 Sm 0.73977 0.91485 0.93583   2.351983
 Sm 0.11008 0.68834 0.72551   2.195965
 Sm 0.76023 0.41485 0.56417   2.351983
 Sm 0.61008 0.81166 0.22551   2.195964
 Sm 0.26023 0.08515 0.06417   2.351987
 Sm 0.88992 0.31166 0.27449   2.195964
 Sm 0.23977 0.58515 0.43583   2.351987
 H 0.6627 0.9741 0.665   0.337541
 H 0.8846 0.1207 0.838   0.30516
 H 0.8905 0.7953 0.5927   0.174519
 H 0.7386 0.8159 0.5791   0.151075
 H 0.8352 0.924 0.5806   0.14972
 H 0.8827 0.1473 0.7289   0.125998
 H 0.0123 0.0981 0.7074   0.184729
 H 0.9937 0.2351 0.7149   0.166713
 H 0.8373 0.4741 0.835   0.337541
 H 0.6154 0.6207 0.662   0.30516
 H 0.6095 0.2953 0.9073   0.174519
 H 0.7614 0.3159 0.9209   0.151075
 H 0.6648 0.424 0.9194   0.14972
 H 0.6173 0.6473 0.7711   0.125998
 H 0.4877 0.5981 0.7926   0.184729
 H 0.5063 0.7351 0.7851   0.166713
 H 0.3373 0.0259 0.335   0.337541
 H 0.1154 0.8793 0.162   0.30516
 H 0.1095 0.2047 0.4073   0.174519
 H 0.2614 0.1841 0.4209   0.151074
 H 0.1648 0.076 0.4194   0.149719
 H 0.1173 0.8527 0.2711   0.125998
 H 0.9877 0.9019 0.2926   0.184729
 H 0.0063 0.7649 0.2851   0.166713
 H 0.1627 0.5259 0.165   0.337541
 H 0.3846 0.3793 0.338   0.30516
 H 0.3905 0.7047 0.0927   0.174519
 H 0.2386 0.6841 0.0791   0.151074
 H 0.3352 0.576 0.0806   0.149719
 H 0.3827 0.3527 0.2289   0.125998
 H 0.5123 0.4019 0.2074   0.184729
 H 0.4937 0.2649 0.2149   0.166713
 C 0.2652 0.4552 0.7856   0.543505
 C 0.2042 0.4088 0.7225   0.544857
 C 0.66 0.0073 0.7836   0.759737
 C 0.7405 0.9297 0.7477   -0.093269
 C 0.8119 0.8636 0.6642   0.457811
 C 0.8198 0.8484 0.5983   -0.450647
 C 0.8501 0.8559 0.7618   0.014801
 C 0.9194 0.815 0.8203   0.741053
 C 0.9929 0.1147 0.9515   0.808004
 C 0.0509 0.1305 0.8936   -0.092151
 C 0.0355 0.1505 0.7937   0.489789
 C 0.976 0.1584 0.7309   -0.482846
 C 0.1738 0.1499 0.877   0.059303
 C 0.3062 0.1521 0.9127   0.808623
 C 0.2348 0.9552 0.7144   0.543505
 C 0.2958 0.9088 0.7775   0.544857
 C 0.84 0.5073 0.7164   0.759737
 C 0.7595 0.4297 0.7523   -0.09327
 C 0.6881 0.3636 0.8358   0.457811
 C 0.6802 0.3484 0.9017   -0.450647
 C 0.6499 0.3559 0.7382   0.014801
 C 0.5806 0.315 0.6797   0.741053
 C 0.5071 0.6147 0.5485   0.808004
 C 0.4491 0.6305 0.6064   -0.092151
 C 0.4645 0.6505 0.7063   0.489789
 C 0.524 0.6584 0.7691   -0.482846
 C 0.3262 0.6499 0.623   0.059303
 C 0.1938 0.6521 0.5873   0.808623
 C 0.7348 0.5448 0.2144   0.543505
 C 0.7958 0.5912 0.2775   0.544857
 C 0.34 0.9927 0.2164   0.759737
 C 0.2595 0.0703 0.2523   -0.093269
 C 0.1881 0.1364 0.3358   0.457811
 C 0.1802 0.1516 0.4017   -0.450647
 C 0.1499 0.1441 0.2382   0.014801
 C 0.0806 0.185 0.1797   0.741053
 C 0.0071 0.8853 0.0485   0.808004
 C 0.9491 0.8695 0.1064   -0.092151
 C 0.9645 0.8495 0.2063   0.489789
 C 0.024 0.8416 0.2691   -0.482846
 C 0.8262 0.8501 0.123   0.059303
 C 0.6938 0.8479 0.0873   0.808623
 C 0.7652 0.0448 0.2856   0.543505
 C 0.7042 0.0912 0.2225   0.544857
 C 0.16 0.4927 0.2836   0.759737
 C 0.2405 0.5703 0.2477   -0.09327
 C 0.3119 0.6364 0.1642   0.457811
 C 0.3198 0.6516 0.0983   -0.450647
 C 0.3501 0.6441 0.2618   0.014801
 C 0.4194 0.685 0.3203   0.741053
 C 0.4929 0.3853 0.4515   0.808004
 C 0.5509 0.3695 0.3936   -0.092151
 C 0.5355 0.3495 0.2937   0.489789
 C 0.476 0.3416 0.2309   -0.482846
 C 0.6738 0.3501 0.377   0.059303
 C 0.8062 0.3479 0.4127   0.808623
 N 0.8928 0.8171 0.7094   -0.553761
 N 0.7223 0.9334 0.6865   -0.279053
 N 0.1632 0.1615 0.8153   -0.553506
 N 0.9682 0.1312 0.8408   -0.267044
 N 0.6072 0.3171 0.7906   -0.553761
 N 0.7777 0.4334 0.8135   -0.279053
 N 0.3368 0.6615 0.6847   -0.553506
 N 0.5318 0.6312 0.6592   -0.267044
 N 0.1072 0.1829 0.2906   -0.553761
 N 0.2777 0.0666 0.3135   -0.279053
 N 0.8368 0.8385 0.1847   -0.553506
 N 0.0318 0.8688 0.1592   -0.267044
 N 0.3928 0.6829 0.2094   -0.553761
 N 0.2223 0.5666 0.1865   -0.279053
 N 0.6632 0.3385 0.3153   -0.553506
 N 0.4682 0.3688 0.3408   -0.267044
 O 0.3413 0.3882 0.8158   -0.649228
 O 0.2283 0.5573 0.8007   -0.654479
 O 0.2308 0.3059 0.709   -0.628234
 O 0.133 0.4792 0.6896   -0.691763
 O 0.5723 0.0621 0.7518   -0.667453
 O 0.6863 0.0154 0.8398   -0.831817
 O 0.8757 0.8403 0.8689   -0.817453
 O 0.0245 0.7581 0.8176   -0.604235
 O 0.0614 0.1341 0.0015   -0.736687
 O 0.8746 0.0886 0.9456   -0.756473
 O 0.3203 0.1279 0.9678   -0.88816
 O 0.4023 0.1774 0.8838   -0.672629
 O 0.1587 0.8882 0.6842   -0.649228
 O 0.2717 0.0573 0.6993   -0.654479
 O 0.2692 0.8059 0.791   -0.628233
 O 0.367 0.9792 0.8104   -0.691762
 O 0.9277 0.5621 0.7482   -0.667453
 O 0.8137 0.5154 0.6602   -0.831817
 O 0.6243 0.3403 0.6311   -0.817453
 O 0.4755 0.2581 0.6824   -0.604235
 O 0.4386 0.6341 0.4985   -0.736687
 O 0.6254 0.5886 0.5544   -0.756473
 O 0.1797 0.6279 0.5322   -0.88816
 O 0.0977 0.6774 0.6162   -0.672629
 O 0.6587 0.6118 0.1842   -0.649228
 O 0.7717 0.4427 0.1993   -0.654479
 O 0.7692 0.6941 0.291   -0.628234
 O 0.867 0.5208 0.3104   -0.691763
 O 0.4277 0.9379 0.2482   -0.667453
 O 0.3137 0.9846 0.1602   -0.831818
 O 0.1243 0.1597 0.1311   -0.817453
 O 0.9755 0.2419 0.1824   -0.604235
 O 0.9386 0.8659 0.9985   -0.736687
 O 0.1254 0.9114 0.0544   -0.756473
 O 0.6797 0.8721 0.0322   -0.88816
 O 0.5977 0.8226 0.1162   -0.672629
 O 0.8413 0.1118 0.3158   -0.649228
 O 0.7283 0.9427 0.3007   -0.654479
 O 0.7308 0.1941 0.209   -0.628233
 O 0.633 0.0208 0.1896   -0.691762
 O 0.0723 0.4379 0.2518   -0.667453
 O 0.1863 0.4846 0.3398   -0.831817
 O 0.3757 0.6597 0.3689   -0.817453
 O 0.5245 0.7419 0.3176   -0.604235
 O 0.5614 0.3659 0.5015   -0.736687
 O 0.3746 0.4114 0.4456   -0.756473
 O 0.8203 0.3721 0.4678   -0.88816
 O 0.9023 0.3226 0.3838   -0.672629
