{'_ref': 'TBD', '_srcid': 'CAKYAQ_clean', 'submitters': [{'name': 'Dalar Nazarian Jeff Camp and David Sholl', 'email': 'dalar@gatech.edu jcamp6@gatech.edu'}], '_method': 'VASP DFT with PBE;DDEC'}
data_AgH6(CN2)3
_symmetry_space_group_name_H-M   'P 1'
_cell_length_a   6.56469977
_cell_length_b   6.56469987
_cell_length_c   11.34700000
_cell_angle_alpha   99.81670246
_cell_angle_beta   99.81670261
_cell_angle_gamma   102.91300330
_symmetry_Int_Tables_number   1
_chemical_formula_structural   AgH6(CN2)3
_chemical_formula_sum   'Ag2 H12 C6 N12'
_cell_volume   458.445752299
_cell_formula_units_Z   2
loop_
 _symmetry_equiv_pos_site_id
 _symmetry_equiv_pos_as_xyz
  1  'x, y, z'
loop_
 _atom_site_label
 _atom_site_fract_x
 _atom_site_fract_y
 _atom_site_fract_z
 _atom_site_charge
 Ag 0.73801 0.01231 0.74605   0.067122
 Ag 0.01231 0.73801 0.24605   0.067122
 H 0.6652 0.6812 0.5187   0.340928
 H 0.7263 0.6611 0.3976   0.321043
 H 0.1859 0.9991 0.8807   0.346876
 H 0.4148 0.059 0.8723   0.336953
 H 0.4147 0.9861 0.3741   0.301262
 H 0.5846 0.0714 0.4884   0.316105
 H 0.6812 0.6652 0.0187   0.340929
 H 0.6611 0.7263 0.8976   0.321043
 H 0.9991 0.1859 0.3807   0.346876
 H 0.059 0.4148 0.3723   0.336954
 H 0.9861 0.4147 0.8741   0.301262
 H 0.0714 0.5846 0.9884   0.316105
 C 0.9631 0.8079 0.5313   0.69651
 C 0.2174 0.9472 0.7042   0.701519
 C 0.3081 0.9479 0.5195   0.696583
 C 0.8079 0.9631 0.0313   0.696511
 C 0.9472 0.2174 0.2042   0.701519
 C 0.9479 0.3081 0.0195   0.696583
 N 0.0117 0.8729 0.6523   -0.665207
 N 0.3762 0.984 0.6425   -0.645872
 N 0.1081 0.8527 0.4607   -0.61223
 N 0.7608 0.7044 0.476   -0.719707
 N 0.2815 0.0105 0.8372   -0.771096
 N 0.4534 0.0092 0.4525   -0.71079
 N 0.8729 0.0117 0.1523   -0.665207
 N 0.984 0.3762 0.1425   -0.645872
 N 0.8527 0.1081 0.9607   -0.61223
 N 0.7044 0.7608 0.976   -0.719707
 N 0.0105 0.2815 0.3372   -0.771096
 N 0.0092 0.4534 0.9525   -0.710791
