{'_ref': 'TBD', '_srcid': 'CAKYAQ_clean', 'submitters': [{'name': 'Dalar Nazarian Jeff Camp and David Sholl', 'email': 'dalar@gatech.edu jcamp6@gatech.edu'}], '_method': 'VASP DFT with PBE;DDEC'}
data_Co2H8C12N5ClO4
_symmetry_space_group_name_H-M   'P 1'
_cell_length_a   12.17200002
_cell_length_b   16.39737878
_cell_length_c   16.39739973
_cell_angle_alpha   114.08942652
_cell_angle_beta   104.32599873
_cell_angle_gamma   104.32582354
_symmetry_Int_Tables_number   1
_chemical_formula_structural   Co2H8C12N5ClO4
_chemical_formula_sum   'Co12 H48 C72 N30 Cl6 O24'
_cell_volume   2660.746502
_cell_formula_units_Z   6
loop_
 _symmetry_equiv_pos_site_id
 _symmetry_equiv_pos_as_xyz
  1  'x, y, z'
loop_
 _atom_site_label
 _atom_site_fract_x
 _atom_site_fract_y
 _atom_site_fract_z
 _atom_site_charge
 Co 0.93024 0.55276 0.95335   1.007814
 Co 0.2111 0.60697 0.96019   0.924578
 Co 0.97689 0.04665 0.59941   1.008746
 Co 0.25091 0.03981 0.64678   0.925342
 Co 0.37748 0.40059 0.44724   1.007899
 Co 0.60413 0.35322 0.39303   0.92547
 Co 0.06976 0.44724 0.04665   1.007814
 Co 0.7889 0.39303 0.03981   0.924579
 Co 0.02311 0.95335 0.40059   1.008747
 Co 0.74909 0.96019 0.35322   0.925344
 Co 0.62252 0.59941 0.55276   1.007899
 Co 0.39587 0.64678 0.60697   0.925471
 H 0.4785 0.2305 0.7942   0.073679
 H 0.5818 0.1447 0.5308   0.126811
 H 0.7968 0.5943 0.716   0.06139
 H 0.8726 0.7126 0.5629   0.075324
 H 0.1463 0.7069 0.7507   0.109034
 H 0.712 0.29 0.6732   0.091397
 H 0.0775 0.7497 0.6347   0.115937
 H 0.403 0.0491 0.5244   0.066142
 H 0.6843 0.2058 0.4363   0.073083
 H 0.051 0.4692 0.6139   0.126747
 H 0.0808 0.284 0.8783   0.061663
 H 0.3097 0.4371 0.1497   0.07449
 H 0.3956 0.2493 0.9562   0.107129
 H 0.0388 0.3268 0.6168   0.091146
 H 0.4428 0.3653 0.115   0.116279
 H 0.8786 0.4756 0.5247   0.066314
 H 0.248 0.5637 0.7695   0.073221
 H 0.4371 0.3861 0.8553   0.126281
 H 0.2025 0.1217 0.4057   0.062353
 H 0.16 0.8503 0.2874   0.074885
 H 0.4394 0.0438 0.2931   0.107801
 H 0.422 0.3832 0.71   0.090601
 H 0.3278 0.885 0.2503   0.116127
 H 0.3539 0.4753 0.9509   0.066268
 H 0.5215 0.7695 0.2058   0.073679
 H 0.4182 0.8553 0.4692   0.126811
 H 0.2032 0.4057 0.284   0.06139
 H 0.1274 0.2874 0.4371   0.075325
 H 0.8537 0.2931 0.2493   0.109038
 H 0.288 0.71 0.3268   0.091397
 H 0.9225 0.2503 0.3653   0.115937
 H 0.597 0.9509 0.4756   0.066142
 H 0.3157 0.7942 0.5637   0.073083
 H 0.949 0.5308 0.3861   0.126747
 H 0.9192 0.716 0.1217   0.061663
 H 0.6903 0.5629 0.8503   0.07449
 H 0.6044 0.7507 0.0438   0.107134
 H 0.9612 0.6732 0.3832   0.091146
 H 0.5572 0.6347 0.885   0.116279
 H 0.1214 0.5244 0.4753   0.066314
 H 0.752 0.4363 0.2305   0.073221
 H 0.5629 0.6139 0.1447   0.126281
 H 0.7975 0.8783 0.5943   0.062353
 H 0.84 0.1497 0.7126   0.074886
 H 0.5606 0.9562 0.7069   0.107805
 H 0.578 0.6168 0.29   0.090601
 H 0.6722 0.115 0.7497   0.116127
 H 0.6461 0.5247 0.0491   0.066268
 C 0.6087 0.2743 0.7489   -0.208047
 C 0.4994 0.2132 0.7404   0.200139
 C 0.9765 0.6439 0.7435   -0.212764
 C 0.5623 0.1639 0.5854   -0.187675
 C 0.8542 0.6242 0.6981   0.205729
 C 0.8986 0.6942 0.6086   0.198161
 C 0.6935 0.3664 0.8464   0.691436
 C 0.0629 0.6919 0.7207   0.045042
 C 0.64 0.2497 0.6697   0.06499
 C 0.0111 0.613 0.8182   0.70027
 C 0.0215 0.7171 0.6517   -0.182681
 C 0.4551 0.1066 0.5821   0.184386
 C 0.8598 0.2511 0.5254   -0.209107
 C 0.759 0.2596 0.4728   0.200897
 C 0.233 0.2565 0.9004   -0.213127
 C 0.9769 0.4146 0.5785   -0.187771
 C 0.1561 0.3019 0.9261   0.202698
 C 0.29 0.3914 0.0856   0.200736
 C 0.8471 0.1536 0.52   0.69043
 C 0.3422 0.2793 0.9712   0.049276
 C 0.9703 0.3303 0.58   0.065533
 C 0.1929 0.1818 0.7948   0.700066
 C 0.3698 0.3483 0.0654   -0.186713
 C 0.873 0.4179 0.5245   0.183912
 C 0.3344 0.4746 0.7257   -0.210524
 C 0.2862 0.5272 0.7868   0.19887
 C 0.3326 0.0996 0.3561   -0.213836
 C 0.3984 0.4215 0.8361   -0.188662
 C 0.23 0.0739 0.3758   0.204609
 C 0.2044 0.9144 0.3058   0.200285
 C 0.3271 0.48 0.6336   0.693579
 C 0.371 0.0288 0.3081   0.047615
 C 0.3903 0.42 0.7503   0.069303
 C 0.3981 0.2052 0.387   0.699946
 C 0.3044 0.9346 0.2829   -0.184047
 C 0.3485 0.4755 0.8934   0.181905
 C 0.3913 0.7257 0.2511   -0.208047
 C 0.5006 0.7868 0.2596   0.200139
 C 0.0235 0.3561 0.2565   -0.212763
 C 0.4377 0.8361 0.4146   -0.187675
 C 0.1458 0.3758 0.3019   0.205729
 C 0.1014 0.3058 0.3914   0.198161
 C 0.3065 0.6336 0.1536   0.691435
 C 0.9371 0.3081 0.2793   0.045041
 C 0.36 0.7503 0.3303   0.06499
 C 0.9889 0.387 0.1818   0.70027
 C 0.9785 0.2829 0.3483   -0.182682
 C 0.5449 0.8934 0.4179   0.184386
 C 0.1402 0.7489 0.4746   -0.209107
 C 0.241 0.7404 0.5272   0.200897
 C 0.767 0.7435 0.0996   -0.213126
 C 0.0231 0.5854 0.4215   -0.187772
 C 0.8439 0.6981 0.0739   0.202698
 C 0.71 0.6086 0.9144   0.200736
 C 0.1529 0.8464 0.48   0.69043
 C 0.6578 0.7207 0.0288   0.049275
 C 0.0297 0.6697 0.42   0.065533
 C 0.8071 0.8182 0.2052   0.700066
 C 0.6302 0.6517 0.9346   -0.186713
 C 0.127 0.5821 0.4755   0.183912
 C 0.6656 0.5254 0.2743   -0.210524
 C 0.7138 0.4728 0.2132   0.19887
 C 0.6674 0.9004 0.6439   -0.213835
 C 0.6016 0.5785 0.1639   -0.188662
 C 0.77 0.9261 0.6242   0.204609
 C 0.7956 0.0856 0.6942   0.200284
 C 0.6729 0.52 0.3664   0.693579
 C 0.629 0.9712 0.6919   0.047614
 C 0.6097 0.58 0.2497   0.069303
 C 0.6019 0.7948 0.613   0.699945
 C 0.6956 0.0654 0.7171   -0.184047
 C 0.6515 0.5245 0.1066   0.181905
 N 0.4233 0.1304 0.6579   -0.377171
 N 0.8141 0.6459 0.629   -0.364404
 N 0.0607 0.4821 0.9314   -0.855258
 N 0.0181 0.4146 0.8465   0.580249
 N 0.9766 0.3526 0.7708   -0.266529
 N 0.7654 0.3421 0.4725   -0.376196
 N 0.1851 0.371 0.0169   -0.361311
 N 0.1293 0.0686 0.5507   -0.855065
 N 0.1716 0.1535 0.5681   0.579888
 N 0.2058 0.2292 0.5818   -0.265763
 N 0.2929 0.5275 0.8696   -0.372517
 N 0.1682 0.9831 0.3541   -0.364534
 N 0.5786 0.4493 0.5179   -0.855018
 N 0.6035 0.4319 0.5854   0.579232
 N 0.624 0.4182 0.6474   -0.265291
 N 0.5767 0.8696 0.3421   -0.377171
 N 0.1859 0.3541 0.371   -0.364404
 N 0.9393 0.5179 0.0686   -0.855259
 N 0.9819 0.5854 0.1535   0.580249
 N 0.0234 0.6474 0.2292   -0.266529
 N 0.2346 0.6579 0.5275   -0.376196
 N 0.8149 0.629 0.9831   -0.361311
 N 0.8707 0.9314 0.4493   -0.855065
 N 0.8284 0.8465 0.4319   0.579888
 N 0.7942 0.7708 0.4182   -0.265763
 N 0.7071 0.4725 0.1304   -0.372517
 N 0.8318 0.0169 0.6459   -0.364534
 N 0.4214 0.5507 0.4821   -0.855018
 N 0.3965 0.5681 0.4146   0.579232
 N 0.376 0.5818 0.3526   -0.265291
 Cl 0.11861 0.70509 0.06124   -0.52465
 Cl 0.05737 0.93876 0.64385   -0.52508
 Cl 0.41352 0.35615 0.29491   -0.524815
 Cl 0.88139 0.29491 0.93876   -0.52465
 Cl 0.94263 0.06124 0.35615   -0.52508
 Cl 0.58648 0.64385 0.70509   -0.524815
 O 0.9283 0.5813 0.8421   -0.559308
 O 0.7819 0.4232 0.8466   -0.545827
 O 0.1203 0.6208 0.8479   -0.610975
 O 0.6677 0.375 0.9182   -0.62835
 O 0.0862 0.1579 0.7392   -0.558305
 O 0.9353 0.1534 0.5766   -0.546662
 O 0.2724 0.1521 0.7729   -0.611389
 O 0.7495 0.0818 0.4568   -0.62682
 O 0.347 0.2608 0.4187   -0.558732
 O 0.3587 0.4234 0.5768   -0.549507
 O 0.4995 0.2271 0.3792   -0.611857
 O 0.2927 0.5432 0.625   -0.626853
 O 0.0717 0.4187 0.1579   -0.559308
 O 0.2181 0.5768 0.1534   -0.545827
 O 0.8797 0.3792 0.1521   -0.610975
 O 0.3323 0.625 0.0818   -0.62835
 O 0.9138 0.8421 0.2608   -0.558305
 O 0.0647 0.8466 0.4234   -0.546662
 O 0.7276 0.8479 0.2271   -0.611389
 O 0.2505 0.9182 0.5432   -0.62682
 O 0.653 0.7392 0.5813   -0.558732
 O 0.6413 0.5766 0.4232   -0.549507
 O 0.5005 0.7729 0.6208   -0.611857
 O 0.7073 0.4568 0.375   -0.626853
