{'_ref': 'TBD', '_srcid': 'CAKYAQ_clean', 'submitters': [{'name': 'Dalar Nazarian Jeff Camp and David Sholl', 'email': 'dalar@gatech.edu jcamp6@gatech.edu'}], '_method': 'VASP DFT with PBE;DDEC'}
data_AgH12C10S4N4ClO4
_symmetry_space_group_name_H-M   'P 1'
_cell_length_a   8.41500046
_cell_length_b   12.50300001
_cell_length_c   12.68200000
_cell_angle_alpha   62.90799917
_cell_angle_beta   87.26100179
_cell_angle_gamma   71.41599900
_symmetry_Int_Tables_number   1
_chemical_formula_structural   AgH12C10S4N4ClO4
_chemical_formula_sum   'Ag2 H24 C20 S8 N8 Cl2 O8'
_cell_volume   1118.44446342
_cell_formula_units_Z   2
loop_
 _symmetry_equiv_pos_site_id
 _symmetry_equiv_pos_as_xyz
  1  'x, y, z'
loop_
 _atom_site_label
 _atom_site_fract_x
 _atom_site_fract_y
 _atom_site_fract_z
 _atom_site_charge
 Ag 0.75664 0.48594 0.48561   0.336593
 Ag 0.24336 0.51406 0.51439   0.336593
 H 0.4945 0.813 0.4468   0.161611
 H 0.4729 0.7716 0.5819   0.154111
 H 0.5082 0.6717 0.5339   0.117694
 H 0.0213 0.8666 0.6894   0.117164
 H 0.2099 0.8611 0.6811   0.141618
 H 0.1528 0.951 0.4681   0.095421
 H 0.7831 0.7065 0.224   0.124994
 H 0.6937 0.7518 0.098   0.162447
 H 0.7647 0.6061 0.1881   0.139498
 H 0.8726 0.0206 0.1757   0.139079
 H 0.0614 0.0126 0.1609   0.115994
 H 0.8919 0.9315 0.0392   0.100348
 H 0.5055 0.187 0.5532   0.161611
 H 0.5271 0.2284 0.4181   0.154111
 H 0.4918 0.3283 0.4661   0.117694
 H 0.9787 0.1334 0.3106   0.117163
 H 0.7901 0.1389 0.3189   0.141617
 H 0.8472 0.049 0.5319   0.095415
 H 0.2169 0.2935 0.776   0.124994
 H 0.3063 0.2482 0.902   0.162447
 H 0.2353 0.3939 0.8119   0.139498
 H 0.1274 0.9794 0.8243   0.139078
 H 0.9386 0.9874 0.8391   0.115991
 H 0.1081 0.0685 0.9608   0.100343
 C 0.5316 0.7449 0.5266   -0.393163
 C 0.7152 0.7119 0.5531   0.233223
 C 0.9913 0.6927 0.6085   0.074089
 C 0.1172 0.8534 0.6457   -0.117779
 C 0.0727 0.9536 0.5208   -0.114973
 C 0.7117 0.6899 0.1806   -0.375254
 C 0.545 0.6981 0.2304   0.238672
 C 0.2617 0.753 0.2731   0.090512
 C 0.9802 0.9714 0.1633   -0.117187
 C 0.962 0.9725 0.0469   -0.113191
 C 0.4684 0.2551 0.4734   -0.393163
 C 0.2848 0.2881 0.4469   0.233222
 C 0.0087 0.3073 0.3915   0.074088
 C 0.8828 0.1466 0.3543   -0.117787
 C 0.9273 0.0464 0.4792   -0.114917
 C 0.2883 0.3101 0.8194   -0.375254
 C 0.455 0.3019 0.7696   0.238672
 C 0.7383 0.247 0.7269   0.090512
 C 0.0198 0.0286 0.8367   -0.117191
 C 0.038 0.0275 0.9531   -0.113163
 S 0.79372 0.78922 0.60834   0.173167
 S 0.17802 0.69208 0.66164   -0.012374
 S 0.36339 0.82215 0.15326   0.159614
 S 0.04853 0.81173 0.28823   0.014793
 S 0.20628 0.21078 0.39166   0.173169
 S 0.82198 0.30792 0.33836   -0.01237
 S 0.63661 0.17785 0.84674   0.159616
 S 0.95147 0.18827 0.71177   0.014793
 N 0.8309 0.6235 0.5376   -0.195618
 N 0.9919 0.6133 0.5692   -0.182003
 N 0.5243 0.615 0.3332   -0.217688
 N 0.3586 0.646 0.3583   -0.174695
 N 0.1691 0.3765 0.4624   -0.195618
 N 0.0081 0.3867 0.4308   -0.182003
 N 0.4757 0.385 0.6668   -0.217688
 N 0.6414 0.354 0.6417   -0.174695
 Cl 0.5223 0.9349 0.78321   1.568325
 Cl 0.4777 0.0651 0.21679   1.568325
 O 0.6735 0.9627 0.7477   -0.638168
 O 0.4656 0.8991 0.7096   -0.596463
 O 0.56 0.83 0.899   -0.615935
 O 0.3994 0.0438 0.7786   -0.594506
 O 0.3265 0.0373 0.2523   -0.638168
 O 0.5344 0.1009 0.2904   -0.596463
 O 0.44 0.17 0.101   -0.615935
 O 0.6006 0.9562 0.2214   -0.594506
