{'_ref': 'TBD', '_srcid': 'CAKYAQ_clean', 'submitters': [{'name': 'Dalar Nazarian Jeff Camp and David Sholl', 'email': 'dalar@gatech.edu jcamp6@gatech.edu'}], '_method': 'VASP DFT with PBE;DDEC'}
data_LaMo2H5C7NO9
_symmetry_space_group_name_H-M   'P 1'
_cell_length_a   11.55200012
_cell_length_b   12.74199966
_cell_length_c   14.58900000
_cell_angle_alpha   94.22000055
_cell_angle_beta   109.01000179
_cell_angle_gamma   115.57000058
_symmetry_Int_Tables_number   1
_chemical_formula_structural   LaMo2H5C7NO9
_chemical_formula_sum   'La4 Mo8 H20 C28 N4 O36'
_cell_volume   1772.77547347
_cell_formula_units_Z   4
loop_
 _symmetry_equiv_pos_site_id
 _symmetry_equiv_pos_as_xyz
  1  'x, y, z'
loop_
 _atom_site_label
 _atom_site_fract_x
 _atom_site_fract_y
 _atom_site_fract_z
 _atom_site_charge
 La 0.11849 0.5483 0.16889   2.154054
 La 0.26551 0.47562 0.55631   2.00962
 La 0.88151 0.4517 0.83111   2.154054
 La 0.73449 0.52438 0.44369   2.00962
 Mo 0.12723 0.07303 0.27191   0.699384
 Mo 0.12198 0.87432 0.11559   1.276976
 Mo 0.15075 0.2407 0.11396   1.271165
 Mo 0.1463 0.04356 0.96191   1.147906
 Mo 0.87277 0.92697 0.72809   0.699384
 Mo 0.87802 0.12568 0.88441   1.276976
 Mo 0.84925 0.7593 0.88604   1.271165
 Mo 0.8537 0.95644 0.03809   1.147906
 H 0.3865 0.6601 0.4432   0.473818
 H 0.4174 0.5882 0.4701   0.38539
 H 0.0941 0.6238 0.4623   0.468631
 H 0.1234 0.5848 0.5623   0.361235
 H 0.7865 0.1673 0.2943   0.131619
 H 0.5819 0.0717 0.1485   0.092086
 H 0.5768 0.15 0.0093   0.110679
 H 0.4523 0.6127 0.0974   0.129091
 H 0.6147 0.656 0.0247   0.053623
 H 0.8112 0.6343 0.1013   0.139236
 H 0.6135 0.3399 0.5568   0.473817
 H 0.5826 0.4118 0.5299   0.38539
 H 0.9059 0.3762 0.5377   0.468631
 H 0.8766 0.4152 0.4377   0.361235
 H 0.2135 0.8327 0.7057   0.131619
 H 0.4181 0.9283 0.8515   0.092085
 H 0.4232 0.85 0.9907   0.110677
 H 0.5477 0.3873 0.9026   0.129091
 H 0.3853 0.344 0.9753   0.053623
 H 0.1888 0.3657 0.8987   0.139236
 C 0.8923 0.3013 0.2396   0.120132
 C 0.7806 0.1979 0.238   -0.0956
 C 0.6594 0.1404 0.1511   -0.027031
 C 0.6562 0.1871 0.0688   -0.126739
 C 0.7728 0.29 0.0758   0.147243
 C 0.0261 0.3729 0.3313   0.683549
 C 0.7812 0.3476 0.9911   0.625664
 C 0.5612 0.5769 0.2187   0.083592
 C 0.5337 0.6081 0.1283   -0.07695
 C 0.6297 0.6326 0.0845   -0.021653
 C 0.7473 0.6217 0.1305   -0.04698
 C 0.7677 0.5912 0.2221   0.095754
 C 0.4661 0.5516 0.2751   0.689861
 C 0.8979 0.5851 0.2812   0.703315
 C 0.1077 0.6987 0.7604   0.120132
 C 0.2194 0.8021 0.762   -0.0956
 C 0.3406 0.8596 0.8489   -0.027031
 C 0.3438 0.8129 0.9312   -0.126738
 C 0.2272 0.71 0.9242   0.147243
 C 0.9739 0.6271 0.6687   0.683549
 C 0.2188 0.6524 0.0089   0.625664
 C 0.4388 0.4231 0.7813   0.083592
 C 0.4663 0.3919 0.8717   -0.07695
 C 0.3703 0.3674 0.9155   -0.021654
 C 0.2527 0.3783 0.8695   -0.04698
 C 0.2323 0.4088 0.7779   0.095754
 C 0.5339 0.4484 0.7249   0.689861
 C 0.1021 0.4149 0.7188   0.703315
 N 0.8895 0.3467 0.16   -0.39412
 N 0.6778 0.5694 0.265   -0.552264
 N 0.1105 0.6533 0.84   -0.39412
 N 0.3222 0.4306 0.735   -0.552264
 O 0.1254 0.4584 0.3225   -0.742953
 O 0.0306 0.3449 0.4127   -0.725372
 O 0.8837 0.4523 0.01207   -0.710898
 O 0.3082 0.707 0.0959   -0.637957
 O 0.9087 0.5619 0.3652   -0.733021
 O 0.9873 0.6057 0.2456   -0.673132
 O 0.5063 0.5236 0.3561   -0.763594
 O 0.3583 0.5601 0.239   -0.684358
 O 0.1186 0.3601 0.103   -0.648377
 O 0.1042 0.0473 0.09722   -0.849082
 O 0.0847 0.9104 0.22757   -0.638473
 O 0.1114 0.2069 0.2274   -0.650616
 O 0.8945 0.9835 0.1664   -0.524469
 O 0.077 0.726 0.1081   -0.655993
 O 0.8857 0.8185 0.02651   -0.689185
 O 0.0924 0.8805 0.97447   -0.686894
 O 0.4278 0.6456 0.4944   -0.864717
 O 0.1656 0.6203 0.513   -0.833195
 O 0.8746 0.5416 0.6775   -0.742953
 O 0.9694 0.6551 0.5873   -0.725372
 O 0.1163 0.5477 0.98793   -0.710897
 O 0.6918 0.293 0.9041   -0.637957
 O 0.0913 0.4381 0.6348   -0.733021
 O 0.0127 0.3943 0.7544   -0.673132
 O 0.4937 0.4764 0.6439   -0.763594
 O 0.6417 0.4399 0.761   -0.684358
 O 0.8814 0.6399 0.897   -0.648376
 O 0.8958 0.9527 0.90278   -0.849082
 O 0.9153 0.0896 0.77243   -0.638473
 O 0.8886 0.7931 0.7726   -0.650616
 O 0.1055 0.0165 0.8336   -0.524469
 O 0.923 0.274 0.8919   -0.655993
 O 0.1143 0.1815 0.97349   -0.689185
 O 0.9076 0.1195 0.02553   -0.686894
 O 0.5722 0.3544 0.5056   -0.864717
 O 0.8344 0.3797 0.487   -0.833195
