{'_ref': 'TBD', '_srcid': 'CAKYAQ_clean', 'submitters': [{'name': 'Dalar Nazarian Jeff Camp and David Sholl', 'email': 'dalar@gatech.edu jcamp6@gatech.edu'}], '_method': 'VASP DFT with PBE;DDEC'}
data_ZnH4C8(N2O)2
_symmetry_space_group_name_H-M   'P 1'
_cell_length_a   6.79100000
_cell_length_b   9.60360432
_cell_length_c   34.11300000
_cell_angle_alpha   90.00000000
_cell_angle_beta   90.00000000
_cell_angle_gamma   106.42474343
_symmetry_Int_Tables_number   1
_chemical_formula_structural   ZnH4C8(N2O)2
_chemical_formula_sum   'Zn8 H32 C64 N32 O16'
_cell_volume   2133.99516178
_cell_formula_units_Z   8
loop_
 _symmetry_equiv_pos_site_id
 _symmetry_equiv_pos_as_xyz
  1  'x, y, z'
loop_
 _atom_site_label
 _atom_site_fract_x
 _atom_site_fract_y
 _atom_site_fract_z
 _atom_site_charge
 Zn 0.70933 0.67375 0.37498   0.902206
 Zn 0.79067 0.32625 0.37498   0.902206
 Zn 0.20933 0.17375 0.87498   0.902206
 Zn 0.29067 0.82625 0.87498   0.902206
 Zn 0.29067 0.32625 0.62502   0.902206
 Zn 0.20933 0.67375 0.62502   0.902206
 Zn 0.79067 0.82625 0.12502   0.902206
 Zn 0.70933 0.17375 0.12502   0.902206
 H 0.8615 0.7168 0.4915   0.11369
 H 0.6385 0.2832 0.4915   0.113689
 H 0.3615 0.2168 0.9915   0.11369
 H 0.1385 0.7832 0.9915   0.113689
 H 0.1385 0.2832 0.5085   0.113689
 H 0.3615 0.7168 0.5085   0.113688
 H 0.6385 0.7832 0.0085   0.113689
 H 0.8615 0.2168 0.0085   0.113688
 H 0.8728 0.7193 0.5601   0.107456
 H 0.6272 0.2807 0.5601   0.107457
 H 0.3728 0.2193 0.0601   0.107456
 H 0.1272 0.7807 0.0601   0.107457
 H 0.1272 0.2807 0.4399   0.107456
 H 0.3728 0.7193 0.4399   0.107457
 H 0.6272 0.7807 0.9399   0.107456
 H 0.8728 0.2193 0.9399   0.107457
 H 0.5423 0.2986 0.2595   0.119617
 H 0.9577 0.7014 0.2595   0.119617
 H 0.0423 0.7986 0.7595   0.119617
 H 0.4577 0.2014 0.7595   0.119617
 H 0.4577 0.7014 0.7405   0.119617
 H 0.0423 0.2986 0.7405   0.119618
 H 0.9577 0.2014 0.2405   0.119617
 H 0.5423 0.7986 0.2405   0.119618
 H 0.5415 0.3055 0.1905   0.080911
 H 0.9585 0.6945 0.1905   0.080912
 H 0.0415 0.8055 0.6905   0.080911
 H 0.4585 0.1945 0.6905   0.080912
 H 0.4585 0.6945 0.8095   0.080911
 H 0.0415 0.3055 0.8095   0.080912
 H 0.9585 0.1945 0.3095   0.080911
 H 0.5415 0.8055 0.3095   0.080912
 C 0.75 0.5 0.4415   0.656733
 C 0.25 0.0 0.9415   0.656733
 C 0.25 0.5 0.5585   0.656733
 C 0.75 0.0 0.0585   0.656733
 C 0.75 0.5 0.4859   -0.138412
 C 0.25 0.0 0.9859   -0.138412
 C 0.25 0.5 0.5141   -0.138412
 C 0.75 0.0 0.0141   -0.138412
 C 0.8173 0.6282 0.5057   -0.024471
 C 0.6827 0.3718 0.5057   -0.02447
 C 0.3173 0.1282 0.0057   -0.024471
 C 0.1827 0.8718 0.0057   -0.02447
 C 0.1827 0.3718 0.4943   -0.02447
 C 0.3173 0.6282 0.4943   -0.02447
 C 0.6827 0.8718 0.9943   -0.02447
 C 0.8173 0.1282 0.9943   -0.02447
 C 0.8217 0.6304 0.5463   -0.084164
 C 0.6783 0.3696 0.5463   -0.084164
 C 0.3217 0.1304 0.0463   -0.084164
 C 0.1783 0.8696 0.0463   -0.084164
 C 0.1783 0.3696 0.4537   -0.084164
 C 0.3217 0.6304 0.4537   -0.084164
 C 0.6783 0.8696 0.9537   -0.084164
 C 0.8217 0.1304 0.9537   -0.084164
 C 0.75 0.5 0.5666   -0.055934
 C 0.25 0.0 0.0666   -0.055934
 C 0.25 0.5 0.4334   -0.055934
 C 0.75 0.0 0.9334   -0.055934
 C 0.75 0.5 0.609   0.369223
 C 0.25 0.0 0.109   0.369223
 C 0.25 0.5 0.391   0.369223
 C 0.75 0.0 0.891   0.369223
 C 0.75 0.5 0.3102   0.680814
 C 0.25 0.0 0.8102   0.680814
 C 0.25 0.5 0.6898   0.680814
 C 0.75 0.0 0.1898   0.680814
 C 0.75 0.5 0.2662   -0.144816
 C 0.25 0.0 0.7662   -0.144816
 C 0.25 0.5 0.7338   -0.144816
 C 0.75 0.0 0.2338   -0.144816
 C 0.6225 0.3795 0.2462   -0.033062
 C 0.8775 0.6205 0.2462   -0.033062
 C 0.1225 0.8795 0.7462   -0.033062
 C 0.3775 0.1205 0.7462   -0.033062
 C 0.3775 0.6205 0.7538   -0.033063
 C 0.1225 0.3795 0.7538   -0.033062
 C 0.8775 0.1205 0.2538   -0.033063
 C 0.6225 0.8795 0.2538   -0.033062
 C 0.6235 0.3804 0.2046   -0.074053
 C 0.8765 0.6196 0.2046   -0.074053
 C 0.1235 0.8804 0.7046   -0.074053
 C 0.3765 0.1196 0.7046   -0.074053
 C 0.3765 0.6196 0.7954   -0.074053
 C 0.1235 0.3804 0.7954   -0.074053
 C 0.8765 0.1196 0.2954   -0.074053
 C 0.6235 0.8804 0.2954   -0.074053
 C 0.75 0.5 0.1413   0.360864
 C 0.25 0.0 0.6413   0.360864
 C 0.25 0.5 0.8587   0.360864
 C 0.75 0.0 0.3587   0.360864
 C 0.75 0.5 0.1852   -0.065445
 C 0.25 0.0 0.6852   -0.065445
 C 0.25 0.5 0.8148   -0.065445
 C 0.75 0.0 0.3148   -0.065445
 N 0.5938 0.4314 0.6322   -0.337772
 N 0.9062 0.5686 0.6322   -0.337777
 N 0.0938 0.9314 0.1322   -0.337772
 N 0.4062 0.0686 0.1322   -0.337777
 N 0.4062 0.5686 0.3678   -0.337772
 N 0.0938 0.4314 0.3678   -0.337777
 N 0.9062 0.0686 0.8678   -0.337772
 N 0.5938 0.9314 0.8678   -0.337777
 N 0.6562 0.4578 0.6698   -0.048134
 N 0.8438 0.5422 0.6698   -0.048098
 N 0.1562 0.9578 0.1698   -0.048134
 N 0.3438 0.0422 0.1698   -0.048098
 N 0.3438 0.5422 0.3302   -0.048134
 N 0.1562 0.4578 0.3302   -0.048098
 N 0.8438 0.0422 0.8302   -0.048134
 N 0.6562 0.9578 0.8302   -0.048098
 N 0.7617 0.6157 0.1193   -0.298611
 N 0.7383 0.3843 0.1193   -0.298617
 N 0.2617 0.1157 0.6193   -0.298611
 N 0.2383 0.8843 0.6193   -0.298617
 N 0.2383 0.3843 0.8807   -0.298611
 N 0.2617 0.6157 0.8807   -0.298617
 N 0.7383 0.8843 0.3807   -0.298611
 N 0.7617 0.1157 0.3807   -0.298617
 N 0.7462 0.5652 0.0825   -0.078271
 N 0.7538 0.4348 0.0825   -0.078217
 N 0.2462 0.0652 0.5825   -0.078271
 N 0.2538 0.9348 0.5825   -0.078217
 N 0.2538 0.4348 0.9175   -0.078271
 N 0.2462 0.5652 0.9175   -0.078217
 N 0.7538 0.9348 0.4175   -0.078271
 N 0.7462 0.0652 0.4175   -0.078217
 O 0.8053 0.6228 0.425   -0.583082
 O 0.6947 0.3772 0.425   -0.583083
 O 0.3053 0.1228 0.925   -0.583082
 O 0.1947 0.8772 0.925   -0.583083
 O 0.1947 0.3772 0.575   -0.583082
 O 0.3053 0.6228 0.575   -0.583083
 O 0.6947 0.8772 0.075   -0.583082
 O 0.8053 0.1228 0.075   -0.583083
 O 0.818 0.6191 0.3268   -0.593813
 O 0.682 0.3809 0.3268   -0.593812
 O 0.318 0.1191 0.8268   -0.593813
 O 0.182 0.8809 0.8268   -0.593812
 O 0.182 0.3809 0.6732   -0.593813
 O 0.318 0.6191 0.6732   -0.593812
 O 0.682 0.8809 0.1732   -0.593813
 O 0.818 0.1191 0.1732   -0.593812
