{'_ref': 'TBD', '_srcid': 'CAKYAQ_clean', 'submitters': [{'name': 'Dalar Nazarian Jeff Camp and David Sholl', 'email': 'dalar@gatech.edu jcamp6@gatech.edu'}], '_method': 'VASP DFT with PBE;DDEC'}
data_ZnH14C17NO4
_symmetry_space_group_name_H-M   'P 1'
_cell_length_a   9.62820000
_cell_length_b   15.21000000
_cell_length_c   15.21000000
_cell_angle_alpha   90.00000000
_cell_angle_beta   90.00090453
_cell_angle_gamma   90.00090453
_symmetry_Int_Tables_number   1
_chemical_formula_structural   ZnH14C17NO4
_chemical_formula_sum   'Zn2 H28 C34 N2 O8'
_cell_volume   2227.42726362
_cell_formula_units_Z   2
loop_
 _symmetry_equiv_pos_site_id
 _symmetry_equiv_pos_as_xyz
  1  'x, y, z'
loop_
 _atom_site_label
 _atom_site_fract_x
 _atom_site_fract_y
 _atom_site_fract_z
 _atom_site_charge
 Zn 0.6662 0.006887 0.993707   1.066156
 Zn 0.33432 0.006853 0.993723   1.065649
 H 0.71864 0.280237 0.024937   0.097659
 H 0.7186 0.440547 0.027207   0.106849
 H 0.71786 0.733397 0.961067   0.098569
 H 0.71774 0.573107 0.958937   0.10694
 H 0.7186 0.975707 0.720407   0.097275
 H 0.7185 0.973327 0.560127   0.107134
 H 0.71846 0.038107 0.267147   0.099476
 H 0.71838 0.040477 0.427417   0.106617
 H 0.28204 0.280413 0.963393   0.096817
 H 0.2823 0.440653 0.961133   0.10691
 H 0.28294 0.733343 0.027143   0.097224
 H 0.28318 0.573083 0.029453   0.107391
 H 0.28228 0.975403 0.267273   0.097643
 H 0.28254 0.972983 0.427483   0.106599
 H 0.28218 0.037743 0.720323   0.09645
 H 0.28242 0.040193 0.560073   0.106909
 H 0.88052 0.964999 0.126839   0.102057
 H 0.88038 0.081609 0.111809   0.098262
 H 0.87956 0.912199 0.890199   0.099716
 H 0.88142 0.867159 0.998759   0.095307
 H 0.88052 0.143819 0.962739   0.096658
 H 0.8803 0.072519 0.869419   0.098247
 H 0.12048 0.070181 0.868171   0.096533
 H 0.11944 0.143131 0.960191   0.092623
 H 0.1206 0.083711 0.110441   0.104224
 H 0.1193 0.967371 0.127491   0.096344
 H 0.11936 0.867221 0.001361   0.095911
 H 0.12038 0.910251 0.891991   0.101076
 C 0.50024 0.166215 0.994115   0.690848
 C 0.5003 0.265985 0.994195   -0.111646
 C 0.50044 0.456465 0.994195   0.069279
 C 0.50032 0.847475 0.994045   0.688315
 C 0.5004 0.747705 0.994135   -0.110096
 C 0.50046 0.557225 0.994195   0.068599
 C 0.50034 0.006715 0.834405   0.693198
 C 0.50038 0.006695 0.734655   -0.112178
 C 0.50046 0.006745 0.544175   0.068873
 C 0.50028 0.006765 0.153135   0.688683
 C 0.50036 0.006755 0.252895   -0.10941
 C 0.50046 0.006745 0.443385   0.066635
 C 0.91968 0.018749 0.083869   -0.081022
 C 0.91964 0.922809 0.957979   -0.078253
 C 0.91958 0.079699 0.937819   -0.077471
 C 0.08082 0.078511 0.936341   -0.071993
 C 0.08074 0.020521 0.083591   -0.080117
 C 0.08074 0.922061 0.959671   -0.077614
 C 0.62242 0.314386 0.011046   -0.055866
 C 0.62236 0.407396 0.011616   -0.156643
 C 0.62204 0.699286 0.976056   -0.056862
 C 0.62194 0.606276 0.975526   -0.15652
 C 0.62242 0.989706 0.686256   -0.055536
 C 0.62232 0.989116 0.593246   -0.156678
 C 0.62234 0.023936 0.301286   -0.058656
 C 0.62226 0.024546 0.394306   -0.155043
 C 0.37828 0.314464 0.977334   -0.054305
 C 0.37848 0.407464 0.976764   -0.156854
 C 0.3788 0.699254 0.012234   -0.05492
 C 0.37896 0.606254 0.012844   -0.157237
 C 0.37844 0.989554 0.301354   -0.055986
 C 0.37864 0.988934 0.394344   -0.154796
 C 0.37838 0.023734 0.686214   -0.054224
 C 0.37858 0.024374 0.593214   -0.156646
 N 0.86636 0.007059 0.993299   -0.144449
 N 0.13406 0.007011 0.993271   -0.146171
 O 0.61508 0.007076 0.111086   -0.635647
 O 0.38544 0.006494 0.111124   -0.635187
 O 0.38548 0.889484 0.994304   -0.632489
 O 0.3853 0.124214 0.993764   -0.635398
 O 0.38534 0.006984 0.876394   -0.637993
 O 0.61514 0.889516 0.993656   -0.633956
 O 0.61512 0.124196 0.994316   -0.633753
 O 0.61532 0.006496 0.876396   -0.63804
