{'_ref': 'TBD', '_srcid': 'CAKYAQ_clean', 'submitters': [{'name': 'Dalar Nazarian Jeff Camp and David Sholl', 'email': 'dalar@gatech.edu jcamp6@gatech.edu'}], '_method': 'VASP DFT with PBE;DDEC'}
data_CoHgC4(SN)4
_symmetry_space_group_name_H-M   'P 1'
_cell_length_a   7.68380000
_cell_length_b   14.95300000
_cell_length_c   15.95500000
_cell_angle_alpha   90.00000000
_cell_angle_beta   90.00000000
_cell_angle_gamma   90.00000000
_symmetry_Int_Tables_number   1
_chemical_formula_structural   CoHgC4(SN)4
_chemical_formula_sum   'Co4 Hg4 C16 S16 N16'
_cell_volume   1833.16346864
_cell_formula_units_Z   4
loop_
 _symmetry_equiv_pos_site_id
 _symmetry_equiv_pos_as_xyz
  1  'x, y, z'
loop_
 _atom_site_label
 _atom_site_fract_x
 _atom_site_fract_y
 _atom_site_fract_z
 _atom_site_charge
 Co 0.9777 0.6934 0.3721   0.978372
 Co 0.0223 0.1934 0.6279   0.978372
 Co 0.5223 0.6934 0.8721   0.978372
 Co 0.4777 0.1934 0.1279   0.978372
 Hg 0.4517 0.5 0.5646   0.400167
 Hg 0.5483 0.0 0.4354   0.400167
 Hg 0.0483 0.5 0.0646   0.400168
 Hg 0.9517 0.0 0.9354   0.400168
 C 0.31 0.6839 0.4929   0.373255
 C 0.37 0.5362 0.756   0.411093
 C 0.186 0.3487 0.5116   0.373351
 C 0.826 0.5358 0.4842   0.356708
 C 0.69 0.1839 0.5071   0.373254
 C 0.63 0.0362 0.244   0.411093
 C 0.814 0.8487 0.4884   0.37335
 C 0.174 0.0358 0.5158   0.356708
 C 0.19 0.6839 0.9929   0.373255
 C 0.13 0.5362 0.256   0.411092
 C 0.314 0.3487 0.0116   0.373352
 C 0.674 0.5358 0.9842   0.356707
 C 0.81 0.1839 0.0071   0.373254
 C 0.87 0.0362 0.744   0.411092
 C 0.686 0.8487 0.9884   0.373351
 C 0.326 0.0358 0.0158   0.356707
 S 0.472 0.668 0.5596   -0.223568
 S 0.2987 0.4497 0.6972   -0.276621
 S 0.2506 0.4316 0.4513   -0.196963
 S 0.7605 0.4455 0.5415   -0.231675
 S 0.528 0.168 0.4404   -0.223568
 S 0.7013 0.9497 0.3028   -0.276621
 S 0.7494 0.9316 0.5487   -0.196962
 S 0.2395 0.9455 0.4585   -0.231675
 S 0.028 0.668 0.0596   -0.223568
 S 0.2013 0.4497 0.1972   -0.276623
 S 0.2494 0.4316 0.9513   -0.196965
 S 0.7395 0.4455 0.0415   -0.231675
 S 0.972 0.168 0.9404   -0.223568
 S 0.7987 0.9497 0.8028   -0.276623
 S 0.7506 0.9316 0.0487   -0.196965
 S 0.2605 0.9455 0.9585   -0.231675
 N 0.203 0.6954 0.4477   -0.475799
 N 0.413 0.5924 0.7944   -0.510271
 N 0.141 0.292 0.553   -0.512348
 N 0.87 0.5949 0.4474   -0.465699
 N 0.797 0.1954 0.5523   -0.475798
 N 0.587 0.0924 0.2056   -0.510271
 N 0.859 0.792 0.447   -0.512348
 N 0.13 0.0949 0.5526   -0.465698
 N 0.297 0.6954 0.9477   -0.475799
 N 0.087 0.5924 0.2944   -0.510271
 N 0.359 0.292 0.053   -0.512348
 N 0.63 0.5949 0.9474   -0.465698
 N 0.703 0.1954 0.0523   -0.475798
 N 0.913 0.0924 0.7056   -0.510271
 N 0.641 0.792 0.947   -0.512348
 N 0.37 0.0949 0.0526   -0.465698
