{'_ref': 'TBD', '_srcid': 'CAKYAQ_clean', 'submitters': [{'name': 'Dalar Nazarian Jeff Camp and David Sholl', 'email': 'dalar@gatech.edu jcamp6@gatech.edu'}], '_method': 'VASP DFT with PBE;DDEC'}
data_CaErH12(C4O5)3
_symmetry_space_group_name_H-M   'P 1'
_cell_length_a   18.72689988
_cell_length_b   18.72690004
_cell_length_c   18.72690000
_cell_angle_alpha   60.00000006
_cell_angle_beta   59.99999979
_cell_angle_gamma   60.00000115
_symmetry_Int_Tables_number   1
_chemical_formula_structural   CaErH12(C4O5)3
_chemical_formula_sum   'Ca8 Er8 H96 C96 O120'
_cell_volume   4643.89806047
_cell_formula_units_Z   8
loop_
 _symmetry_equiv_pos_site_id
 _symmetry_equiv_pos_as_xyz
  1  'x, y, z'
loop_
 _atom_site_label
 _atom_site_fract_x
 _atom_site_fract_y
 _atom_site_fract_z
 _atom_site_charge
 Ca 0.5 0.5 0.5   1.513984
 Ca 0.0 0.0 0.5   1.513984
 Ca 0.0 0.5 0.0   1.513984
 Ca 0.0 0.5 0.5   1.513986
 Ca 0.5 0.5 0.0   1.513984
 Ca 0.0 0.0 0.0   1.513984
 Ca 0.5 0.0 0.5   1.513984
 Ca 0.5 0.0 0.0   1.513986
 Er 0.75 0.25 0.25   1.193162
 Er 0.75 0.25 0.75   1.19316
 Er 0.75 0.75 0.25   1.193156
 Er 0.25 0.25 0.25   1.193157
 Er 0.25 0.75 0.75   1.193162
 Er 0.25 0.75 0.25   1.19316
 Er 0.25 0.25 0.75   1.193156
 Er 0.75 0.75 0.75   1.193156
 H 0.5166 0.4154 0.3448   0.102942
 H 0.5763 0.4737 0.2949   0.109338
 H 0.9154 0.0166 0.7232   0.102942
 H 0.9737 0.0763 0.6551   0.109338
 H 0.8448 0.7232 0.0166   0.102947
 H 0.7949 0.6551 0.0763   0.109336
 H 0.2232 0.3448 0.4154   0.102947
 H 0.1551 0.2949 0.4737   0.109336
 H 0.5166 0.3448 0.7232   0.102942
 H 0.5763 0.2949 0.6551   0.109338
 H 0.9154 0.7232 0.3448   0.102947
 H 0.9737 0.6551 0.2949   0.109336
 H 0.8448 0.0166 0.4154   0.102947
 H 0.7949 0.0763 0.4737   0.109336
 H 0.2232 0.4154 0.0166   0.102946
 H 0.1551 0.4737 0.0763   0.109336
 H 0.5166 0.7232 0.4154   0.102946
 H 0.5763 0.6551 0.4737   0.109336
 H 0.9154 0.3448 0.0166   0.102942
 H 0.9737 0.2949 0.0763   0.109338
 H 0.8448 0.4154 0.7232   0.102947
 H 0.7949 0.4737 0.6551   0.109336
 H 0.2232 0.0166 0.3448   0.102947
 H 0.1551 0.0763 0.2949   0.109336
 H 0.5846 0.4834 0.1552   0.102943
 H 0.5263 0.4237 0.2051   0.109338
 H 0.9834 0.0846 0.7768   0.102943
 H 0.9237 0.0263 0.8449   0.109338
 H 0.2768 0.1552 0.4834   0.102947
 H 0.3449 0.2051 0.4237   0.109336
 H 0.6552 0.7768 0.0846   0.102947
 H 0.7051 0.8449 0.0263   0.109336
 H 0.6552 0.4834 0.7768   0.102947
 H 0.7051 0.4237 0.8449   0.109336
 H 0.2768 0.0846 0.1552   0.102947
 H 0.3449 0.0263 0.2051   0.109336
 H 0.9834 0.1552 0.0846   0.102943
 H 0.9237 0.2051 0.0263   0.109338
 H 0.5846 0.7768 0.4834   0.102947
 H 0.5263 0.8449 0.4237   0.109336
 H 0.2768 0.4834 0.0846   0.102947
 H 0.3449 0.4237 0.0263   0.109336
 H 0.6552 0.0846 0.4834   0.102947
 H 0.7051 0.0263 0.4237   0.109336
 H 0.5846 0.1552 0.7768   0.102943
 H 0.5263 0.2051 0.8449   0.109339
 H 0.9834 0.7768 0.1552   0.102947
 H 0.9237 0.8449 0.2051   0.109336
 H 0.4834 0.5846 0.6552   0.102944
 H 0.4237 0.5263 0.7051   0.109338
 H 0.0846 0.9834 0.2768   0.102943
 H 0.0263 0.9237 0.3449   0.109338
 H 0.1552 0.2768 0.9834   0.102948
 H 0.2051 0.3449 0.9237   0.109336
 H 0.7768 0.6552 0.5846   0.102948
 H 0.8449 0.7051 0.5263   0.109336
 H 0.4834 0.6552 0.2768   0.102943
 H 0.4237 0.7051 0.3449   0.109338
 H 0.0846 0.2768 0.6552   0.102948
 H 0.0263 0.3449 0.7051   0.109336
 H 0.1552 0.9834 0.5846   0.102948
 H 0.2051 0.9237 0.5263   0.109336
 H 0.7768 0.5846 0.9834   0.102948
 H 0.8449 0.5263 0.9237   0.109336
 H 0.4834 0.2768 0.5846   0.102948
 H 0.4237 0.3449 0.5263   0.109336
 H 0.0846 0.6552 0.9834   0.102944
 H 0.0263 0.7051 0.9237   0.109338
 H 0.1552 0.5846 0.2768   0.102948
 H 0.2051 0.5263 0.3449   0.109336
 H 0.7768 0.9834 0.6552   0.102948
 H 0.8449 0.9237 0.7051   0.109336
 H 0.4154 0.5166 0.8448   0.102944
 H 0.4737 0.5763 0.7949   0.109339
 H 0.0166 0.9154 0.2232   0.102944
 H 0.0763 0.9737 0.1551   0.109339
 H 0.7232 0.8448 0.5166   0.102948
 H 0.6551 0.7949 0.5763   0.109337
 H 0.3448 0.2232 0.9154   0.102948
 H 0.2949 0.1551 0.9737   0.109337
 H 0.3448 0.5166 0.2232   0.102948
 H 0.2949 0.5763 0.1551   0.109337
 H 0.7232 0.9154 0.8448   0.102948
 H 0.6551 0.9737 0.7949   0.109337
 H 0.0166 0.8448 0.9154   0.102944
 H 0.0763 0.7949 0.9737   0.109339
 H 0.4154 0.2232 0.5166   0.102948
 H 0.4737 0.1551 0.5763   0.109337
 H 0.7232 0.5166 0.9154   0.102948
 H 0.6551 0.5763 0.9737   0.109337
 H 0.3448 0.9154 0.5166   0.102949
 H 0.2949 0.9737 0.5763   0.109337
 H 0.4154 0.8448 0.2232   0.102944
 H 0.4737 0.7949 0.1551   0.109339
 H 0.0166 0.2232 0.8448   0.102948
 H 0.0763 0.1551 0.7949   0.109337
 C 0.5767 0.41414 0.31806   -0.112021
 C 0.6212 0.35952 0.38508   0.700692
 C 0.91414 0.0767 0.6911   -0.112021
 C 0.85952 0.1212 0.6342   0.700692
 C 0.81806 0.6911 0.0767   -0.112029
 C 0.88508 0.6342 0.1212   0.700693
 C 0.1911 0.31806 0.41414   -0.112029
 C 0.1342 0.38508 0.35952   0.700693
 C 0.5767 0.31806 0.6911   -0.112021
 C 0.6212 0.38508 0.6342   0.700693
 C 0.91414 0.6911 0.31806   -0.112029
 C 0.85952 0.6342 0.38508   0.700692
 C 0.81806 0.0767 0.41414   -0.112029
 C 0.88508 0.1212 0.35952   0.700692
 C 0.1911 0.41414 0.0767   -0.112029
 C 0.1342 0.35952 0.1212   0.700692
 C 0.5767 0.6911 0.41414   -0.112029
 C 0.6212 0.6342 0.35952   0.700692
 C 0.91414 0.31806 0.0767   -0.112021
 C 0.85952 0.38508 0.1212   0.700692
 C 0.81806 0.41414 0.6911   -0.112029
 C 0.88508 0.35952 0.6342   0.700692
 C 0.1911 0.0767 0.31806   -0.112029
 C 0.1342 0.1212 0.38508   0.700693
 C 0.58586 0.4233 0.18194   -0.112022
 C 0.64048 0.3788 0.11492   0.700692
 C 0.9233 0.08586 0.8089   -0.112022
 C 0.8788 0.14048 0.8658   0.700692
 C 0.3089 0.18194 0.4233   -0.11203
 C 0.3658 0.11492 0.3788   0.700693
 C 0.68194 0.8089 0.08586   -0.11203
 C 0.61492 0.8658 0.14048   0.700693
 C 0.68194 0.4233 0.8089   -0.11203
 C 0.61492 0.3788 0.8658   0.700693
 C 0.3089 0.08586 0.18194   -0.11203
 C 0.3658 0.14048 0.11492   0.700692
 C 0.9233 0.18194 0.08586   -0.112022
 C 0.8788 0.11492 0.14048   0.700692
 C 0.58586 0.8089 0.4233   -0.11203
 C 0.64048 0.8658 0.3788   0.700692
 C 0.3089 0.4233 0.08586   -0.11203
 C 0.3658 0.3788 0.14048   0.700692
 C 0.68194 0.08586 0.4233   -0.112029
 C 0.61492 0.14048 0.3788   0.700692
 C 0.58586 0.18194 0.8089   -0.112022
 C 0.64048 0.11492 0.8658   0.700692
 C 0.9233 0.8089 0.18194   -0.11203
 C 0.8788 0.8658 0.11492   0.700693
 C 0.4233 0.58586 0.68194   -0.112022
 C 0.3788 0.64048 0.61492   0.700692
 C 0.08586 0.9233 0.3089   -0.112022
 C 0.14048 0.8788 0.3658   0.700692
 C 0.18194 0.3089 0.9233   -0.11203
 C 0.11492 0.3658 0.8788   0.700693
 C 0.8089 0.68194 0.58586   -0.11203
 C 0.8658 0.61492 0.64048   0.700693
 C 0.4233 0.68194 0.3089   -0.112022
 C 0.3788 0.61492 0.3658   0.700693
 C 0.08586 0.3089 0.68194   -0.11203
 C 0.14048 0.3658 0.61492   0.700693
 C 0.18194 0.9233 0.58586   -0.11203
 C 0.11492 0.8788 0.64048   0.700692
 C 0.8089 0.58586 0.9233   -0.11203
 C 0.8658 0.64048 0.8788   0.700693
 C 0.4233 0.3089 0.58586   -0.11203
 C 0.3788 0.3658 0.64048   0.700692
 C 0.08586 0.68194 0.9233   -0.112022
 C 0.14048 0.61492 0.8788   0.700692
 C 0.18194 0.58586 0.3089   -0.11203
 C 0.11492 0.64048 0.3658   0.700693
 C 0.8089 0.9233 0.68194   -0.11203
 C 0.8658 0.8788 0.61492   0.700693
 C 0.41414 0.5767 0.81806   -0.112022
 C 0.35952 0.6212 0.88508   0.700692
 C 0.0767 0.91414 0.1911   -0.112022
 C 0.1212 0.85952 0.1342   0.700693
 C 0.6911 0.81806 0.5767   -0.112031
 C 0.6342 0.88508 0.6212   0.700693
 C 0.31806 0.1911 0.91414   -0.112031
 C 0.38508 0.1342 0.85952   0.700693
 C 0.31806 0.5767 0.1911   -0.11203
 C 0.38508 0.6212 0.1342   0.700693
 C 0.6911 0.91414 0.81806   -0.112031
 C 0.6342 0.85952 0.88508   0.700693
 C 0.0767 0.81806 0.91414   -0.112022
 C 0.1212 0.88508 0.85952   0.700692
 C 0.41414 0.1911 0.5767   -0.112031
 C 0.35952 0.1342 0.6212   0.700693
 C 0.6911 0.5767 0.91414   -0.11203
 C 0.6342 0.6212 0.85952   0.700692
 C 0.31806 0.91414 0.5767   -0.11203
 C 0.38508 0.85952 0.6212   0.700692
 C 0.41414 0.81806 0.1911   -0.112023
 C 0.35952 0.88508 0.1342   0.700692
 C 0.0767 0.1911 0.81806   -0.112031
 C 0.1212 0.1342 0.88508   0.700693
 O 0.68759 0.29479 0.37181   -0.499548
 O 0.59022 0.3806 0.4508   -0.644425
 O 0.79479 0.18759 0.64581   -0.499547
 O 0.8806 0.09022 0.57838   -0.644424
 O 0.87181 0.64581 0.18759   -0.499547
 O 0.9508 0.57838 0.09022   -0.644424
 O 0.14581 0.37181 0.29479   -0.499548
 O 0.07838 0.4508 0.3806   -0.644424
 O 0.68759 0.37181 0.64581   -0.499548
 O 0.59022 0.4508 0.57838   -0.644425
 O 0.79479 0.64581 0.37181   -0.499548
 O 0.8806 0.57838 0.4508   -0.644424
 O 0.87181 0.18759 0.29479   -0.499547
 O 0.9508 0.09022 0.3806   -0.644424
 O 0.14581 0.29479 0.18759   -0.499547
 O 0.07838 0.3806 0.09022   -0.644424
 O 0.68759 0.64581 0.29479   -0.499547
 O 0.59022 0.57838 0.3806   -0.644424
 O 0.79479 0.37181 0.18759   -0.499548
 O 0.8806 0.4508 0.09022   -0.644425
 O 0.87181 0.29479 0.64581   -0.499548
 O 0.9508 0.3806 0.57838   -0.644424
 O 0.14581 0.18759 0.37181   -0.499547
 O 0.07838 0.09022 0.4508   -0.644424
 O 0.70521 0.31241 0.12819   -0.499548
 O 0.6194 0.40978 0.0492   -0.644425
 O 0.81241 0.20521 0.85419   -0.499548
 O 0.90978 0.1194 0.92162   -0.644424
 O 0.35419 0.12819 0.31241   -0.499547
 O 0.42162 0.0492 0.40978   -0.644424
 O 0.62819 0.85419 0.20521   -0.499548
 O 0.5492 0.92162 0.1194   -0.644425
 O 0.62819 0.31241 0.85419   -0.499547
 O 0.5492 0.40978 0.92162   -0.644424
 O 0.35419 0.20521 0.12819   -0.499548
 O 0.42162 0.1194 0.0492   -0.644425
 O 0.81241 0.12819 0.20521   -0.499548
 O 0.90978 0.0492 0.1194   -0.644425
 O 0.70521 0.85419 0.31241   -0.499547
 O 0.6194 0.92162 0.40978   -0.644424
 O 0.35419 0.31241 0.20521   -0.499547
 O 0.42162 0.40978 0.1194   -0.644424
 O 0.62819 0.20521 0.31241   -0.499547
 O 0.5492 0.1194 0.40978   -0.644424
 O 0.70521 0.12819 0.85419   -0.499548
 O 0.6194 0.0492 0.92162   -0.644425
 O 0.81241 0.85419 0.12819   -0.499547
 O 0.90978 0.92162 0.0492   -0.644424
 O 0.31241 0.70521 0.62819   -0.499548
 O 0.40978 0.6194 0.5492   -0.644425
 O 0.20521 0.81241 0.35419   -0.499547
 O 0.1194 0.90978 0.42162   -0.644424
 O 0.12819 0.35419 0.81241   -0.499547
 O 0.0492 0.42162 0.90978   -0.644424
 O 0.85419 0.62819 0.70521   -0.499548
 O 0.92162 0.5492 0.6194   -0.644424
 O 0.31241 0.62819 0.35419   -0.499548
 O 0.40978 0.5492 0.42162   -0.644425
 O 0.20521 0.35419 0.62819   -0.499548
 O 0.1194 0.42162 0.5492   -0.644424
 O 0.12819 0.81241 0.70521   -0.499547
 O 0.0492 0.90978 0.6194   -0.644424
 O 0.85419 0.70521 0.81241   -0.499547
 O 0.92162 0.6194 0.90978   -0.644424
 O 0.31241 0.35419 0.70521   -0.499547
 O 0.40978 0.42162 0.6194   -0.644424
 O 0.20521 0.62819 0.81241   -0.499548
 O 0.1194 0.5492 0.90978   -0.644425
 O 0.12819 0.70521 0.35419   -0.499548
 O 0.0492 0.6194 0.42162   -0.644424
 O 0.85419 0.81241 0.62819   -0.499547
 O 0.92162 0.90978 0.5492   -0.644424
 O 0.29479 0.68759 0.87181   -0.499548
 O 0.3806 0.59022 0.9508   -0.644425
 O 0.18759 0.79479 0.14581   -0.499548
 O 0.09022 0.8806 0.07838   -0.644424
 O 0.64581 0.87181 0.68759   -0.499547
 O 0.57838 0.9508 0.59022   -0.644424
 O 0.37181 0.14581 0.79479   -0.499548
 O 0.4508 0.07838 0.8806   -0.644425
 O 0.37181 0.68759 0.14581   -0.499547
 O 0.4508 0.59022 0.07838   -0.644424
 O 0.64581 0.79479 0.87181   -0.499548
 O 0.57838 0.8806 0.9508   -0.644425
 O 0.18759 0.87181 0.79479   -0.499548
 O 0.09022 0.9508 0.8806   -0.644425
 O 0.29479 0.14581 0.68759   -0.499547
 O 0.3806 0.07838 0.59022   -0.644424
 O 0.64581 0.68759 0.79479   -0.499547
 O 0.57838 0.59022 0.8806   -0.644424
 O 0.37181 0.79479 0.68759   -0.499547
 O 0.4508 0.8806 0.59022   -0.644424
 O 0.29479 0.87181 0.14581   -0.499548
 O 0.3806 0.9508 0.07838   -0.644425
 O 0.18759 0.14581 0.87181   -0.499547
 O 0.09022 0.07838 0.9508   -0.644424
 O 0.62036 0.37964 0.25   -0.216341
 O 0.87964 0.12036 0.75   -0.216341
 O 0.75 0.75 0.12036   -0.21633
 O 0.25 0.25 0.37964   -0.21633
 O 0.62036 0.25 0.75   -0.216341
 O 0.87964 0.75 0.25   -0.21633
 O 0.75 0.12036 0.37964   -0.216331
 O 0.25 0.37964 0.12036   -0.216331
 O 0.62036 0.75 0.37964   -0.216331
 O 0.87964 0.25 0.12036   -0.216341
 O 0.75 0.37964 0.75   -0.216331
 O 0.25 0.12036 0.25   -0.21633
 O 0.37964 0.62036 0.75   -0.216341
 O 0.12036 0.87964 0.25   -0.216341
 O 0.25 0.25 0.87964   -0.21633
 O 0.75 0.75 0.62036   -0.21633
 O 0.37964 0.75 0.25   -0.21634
 O 0.12036 0.25 0.75   -0.21633
 O 0.25 0.87964 0.62036   -0.216331
 O 0.75 0.62036 0.87964   -0.21633
 O 0.37964 0.25 0.62036   -0.21633
 O 0.12036 0.75 0.87964   -0.216341
 O 0.25 0.62036 0.25   -0.21633
 O 0.75 0.87964 0.75   -0.21633
