{'_ref': 'TBD', '_srcid': 'CAKYAQ_clean', 'submitters': [{'name': 'Dalar Nazarian Jeff Camp and David Sholl', 'email': 'dalar@gatech.edu jcamp6@gatech.edu'}], '_method': 'VASP DFT with PBE;DDEC'}
data_CaTmH12(C4O5)3
_symmetry_space_group_name_H-M   'P 1'
_cell_length_a   18.67590014
_cell_length_b   18.67589961
_cell_length_c   18.67590000
_cell_angle_alpha   59.99999931
_cell_angle_beta   60.00000025
_cell_angle_gamma   59.99999923
_symmetry_Int_Tables_number   1
_chemical_formula_structural   CaTmH12(C4O5)3
_chemical_formula_sum   'Ca8 Tm8 H96 C96 O120'
_cell_volume   4606.06022245
_cell_formula_units_Z   8
loop_
 _symmetry_equiv_pos_site_id
 _symmetry_equiv_pos_as_xyz
  1  'x, y, z'
loop_
 _atom_site_label
 _atom_site_fract_x
 _atom_site_fract_y
 _atom_site_fract_z
 _atom_site_charge
 Ca 0.5 0.5 0.5   1.518255
 Ca 0.0 0.0 0.5   1.518255
 Ca 0.0 0.5 0.0   1.518255
 Ca 0.0 0.5 0.5   1.518256
 Ca 0.5 0.5 0.0   1.518255
 Ca 0.0 0.0 0.0   1.518255
 Ca 0.5 0.0 0.5   1.518255
 Ca 0.5 0.0 0.0   1.518256
 Tm 0.75 0.25 0.25   2.119097
 Tm 0.75 0.25 0.75   2.119098
 Tm 0.75 0.75 0.25   2.119097
 Tm 0.25 0.25 0.25   2.119098
 Tm 0.25 0.75 0.75   2.119097
 Tm 0.25 0.75 0.25   2.119098
 Tm 0.25 0.25 0.75   2.119097
 Tm 0.75 0.75 0.75   2.119098
 H 0.5165 0.4163 0.3441   0.100233
 H 0.5775 0.4735 0.2943   0.107546
 H 0.9163 0.0165 0.7231   0.100233
 H 0.9735 0.0775 0.6547   0.107547
 H 0.8441 0.7231 0.0165   0.100233
 H 0.7943 0.6547 0.0775   0.107546
 H 0.2231 0.3441 0.4163   0.100233
 H 0.1547 0.2943 0.4735   0.107547
 H 0.5165 0.3441 0.7231   0.100233
 H 0.5775 0.2943 0.6547   0.107546
 H 0.9163 0.7231 0.3441   0.100233
 H 0.9735 0.6547 0.2943   0.107547
 H 0.8441 0.0165 0.4163   0.100233
 H 0.7943 0.0775 0.4735   0.107546
 H 0.2231 0.4163 0.0165   0.100233
 H 0.1547 0.4735 0.0775   0.107547
 H 0.5165 0.7231 0.4163   0.100233
 H 0.5775 0.6547 0.4735   0.107547
 H 0.9163 0.3441 0.0165   0.100233
 H 0.9735 0.2943 0.0775   0.107546
 H 0.8441 0.4163 0.7231   0.100233
 H 0.7943 0.4735 0.6547   0.107547
 H 0.2231 0.0165 0.3441   0.100233
 H 0.1547 0.0775 0.2943   0.107546
 H 0.5837 0.4835 0.1559   0.100233
 H 0.5265 0.4225 0.2057   0.107546
 H 0.9835 0.0837 0.7769   0.100233
 H 0.9225 0.0265 0.8453   0.107546
 H 0.2769 0.1559 0.4835   0.100233
 H 0.3453 0.2057 0.4225   0.107546
 H 0.6559 0.7769 0.0837   0.100233
 H 0.7057 0.8453 0.0265   0.107546
 H 0.6559 0.4835 0.7769   0.100233
 H 0.7057 0.4225 0.8453   0.107546
 H 0.2769 0.0837 0.1559   0.100233
 H 0.3453 0.0265 0.2057   0.107547
 H 0.9835 0.1559 0.0837   0.100233
 H 0.9225 0.2057 0.0265   0.107546
 H 0.5837 0.7769 0.4835   0.100233
 H 0.5265 0.8453 0.4225   0.107546
 H 0.2769 0.4835 0.0837   0.100233
 H 0.3453 0.4225 0.0265   0.107546
 H 0.6559 0.0837 0.4835   0.100233
 H 0.7057 0.0265 0.4225   0.107546
 H 0.5837 0.1559 0.7769   0.100233
 H 0.5265 0.2057 0.8453   0.107546
 H 0.9835 0.7769 0.1559   0.100233
 H 0.9225 0.8453 0.2057   0.107546
 H 0.4835 0.5837 0.6559   0.100233
 H 0.4225 0.5265 0.7057   0.107546
 H 0.0837 0.9835 0.2769   0.100233
 H 0.0265 0.9225 0.3453   0.107546
 H 0.1559 0.2769 0.9835   0.100233
 H 0.2057 0.3453 0.9225   0.107546
 H 0.7769 0.6559 0.5837   0.100232
 H 0.8453 0.7057 0.5265   0.107546
 H 0.4835 0.6559 0.2769   0.100233
 H 0.4225 0.7057 0.3453   0.107546
 H 0.0837 0.2769 0.6559   0.100232
 H 0.0265 0.3453 0.7057   0.107547
 H 0.1559 0.9835 0.5837   0.100233
 H 0.2057 0.9225 0.5265   0.107546
 H 0.7769 0.5837 0.9835   0.100233
 H 0.8453 0.5265 0.9225   0.107546
 H 0.4835 0.2769 0.5837   0.100233
 H 0.4225 0.3453 0.5265   0.107546
 H 0.0837 0.6559 0.9835   0.100233
 H 0.0265 0.7057 0.9225   0.107546
 H 0.1559 0.5837 0.2769   0.100232
 H 0.2057 0.5265 0.3453   0.107546
 H 0.7769 0.9835 0.6559   0.100233
 H 0.8453 0.9225 0.7057   0.107546
 H 0.4163 0.5165 0.8441   0.100233
 H 0.4735 0.5775 0.7943   0.107546
 H 0.0165 0.9163 0.2231   0.100233
 H 0.0775 0.9735 0.1547   0.107546
 H 0.7231 0.8441 0.5165   0.100233
 H 0.6547 0.7943 0.5775   0.107546
 H 0.3441 0.2231 0.9163   0.100232
 H 0.2943 0.1547 0.9735   0.107546
 H 0.3441 0.5165 0.2231   0.100233
 H 0.2943 0.5775 0.1547   0.107546
 H 0.7231 0.9163 0.8441   0.100232
 H 0.6547 0.9735 0.7943   0.107546
 H 0.0165 0.8441 0.9163   0.100233
 H 0.0775 0.7943 0.9735   0.107546
 H 0.4163 0.2231 0.5165   0.100233
 H 0.4735 0.1547 0.5775   0.107546
 H 0.7231 0.5165 0.9163   0.100233
 H 0.6547 0.5775 0.9735   0.107546
 H 0.3441 0.9163 0.5165   0.100233
 H 0.2943 0.9735 0.5775   0.107546
 H 0.4163 0.8441 0.2231   0.100232
 H 0.4735 0.7943 0.1547   0.107546
 H 0.0165 0.2231 0.8441   0.100233
 H 0.0775 0.1547 0.7943   0.107546
 C 0.57722 0.41418 0.31748   -0.090376
 C 0.6214 0.3586 0.3856   0.732548
 C 0.91418 0.07722 0.69112   -0.090376
 C 0.8586 0.1214 0.6344   0.732548
 C 0.81748 0.69112 0.07722   -0.090375
 C 0.8856 0.6344 0.1214   0.732548
 C 0.19112 0.31748 0.41418   -0.090375
 C 0.1344 0.3856 0.3586   0.732548
 C 0.57722 0.31748 0.69112   -0.090375
 C 0.6214 0.3856 0.6344   0.732548
 C 0.91418 0.69112 0.31748   -0.090375
 C 0.8586 0.6344 0.3856   0.732548
 C 0.81748 0.07722 0.41418   -0.090376
 C 0.8856 0.1214 0.3586   0.732548
 C 0.19112 0.41418 0.07722   -0.090376
 C 0.1344 0.3586 0.1214   0.732548
 C 0.57722 0.69112 0.41418   -0.090376
 C 0.6214 0.6344 0.3586   0.732548
 C 0.91418 0.31748 0.07722   -0.090376
 C 0.8586 0.3856 0.1214   0.732548
 C 0.81748 0.41418 0.69112   -0.090375
 C 0.8856 0.3586 0.6344   0.732548
 C 0.19112 0.07722 0.31748   -0.090375
 C 0.1344 0.1214 0.3856   0.732548
 C 0.58582 0.42278 0.18252   -0.090376
 C 0.6414 0.3786 0.1144   0.732548
 C 0.92278 0.08582 0.80888   -0.090376
 C 0.8786 0.1414 0.8656   0.732548
 C 0.30888 0.18252 0.42278   -0.090375
 C 0.3656 0.1144 0.3786   0.732548
 C 0.68252 0.80888 0.08582   -0.090375
 C 0.6144 0.8656 0.1414   0.732548
 C 0.68252 0.42278 0.80888   -0.090375
 C 0.6144 0.3786 0.8656   0.732548
 C 0.30888 0.08582 0.18252   -0.090375
 C 0.3656 0.1414 0.1144   0.732548
 C 0.92278 0.18252 0.08582   -0.090376
 C 0.8786 0.1144 0.1414   0.732548
 C 0.58582 0.80888 0.42278   -0.090376
 C 0.6414 0.8656 0.3786   0.732548
 C 0.30888 0.42278 0.08582   -0.090376
 C 0.3656 0.3786 0.1414   0.732548
 C 0.68252 0.08582 0.42278   -0.090376
 C 0.6144 0.1414 0.3786   0.732548
 C 0.58582 0.18252 0.80888   -0.090375
 C 0.6414 0.1144 0.8656   0.732548
 C 0.92278 0.80888 0.18252   -0.090375
 C 0.8786 0.8656 0.1144   0.732548
 C 0.42278 0.58582 0.68252   -0.090376
 C 0.3786 0.6414 0.6144   0.732548
 C 0.08582 0.92278 0.30888   -0.090376
 C 0.1414 0.8786 0.3656   0.732548
 C 0.18252 0.30888 0.92278   -0.090375
 C 0.1144 0.3656 0.8786   0.732548
 C 0.80888 0.68252 0.58582   -0.090375
 C 0.8656 0.6144 0.6414   0.732548
 C 0.42278 0.68252 0.30888   -0.090375
 C 0.3786 0.6144 0.3656   0.732548
 C 0.08582 0.30888 0.68252   -0.090375
 C 0.1414 0.3656 0.6144   0.732548
 C 0.18252 0.92278 0.58582   -0.090376
 C 0.1144 0.8786 0.6414   0.732548
 C 0.80888 0.58582 0.92278   -0.090376
 C 0.8656 0.6414 0.8786   0.732548
 C 0.42278 0.30888 0.58582   -0.090376
 C 0.3786 0.3656 0.6414   0.732548
 C 0.08582 0.68252 0.92278   -0.090376
 C 0.1414 0.6144 0.8786   0.732548
 C 0.18252 0.58582 0.30888   -0.090375
 C 0.1144 0.6414 0.3656   0.732548
 C 0.80888 0.92278 0.68252   -0.090375
 C 0.8656 0.8786 0.6144   0.732548
 C 0.41418 0.57722 0.81748   -0.090376
 C 0.3586 0.6214 0.8856   0.732548
 C 0.07722 0.91418 0.19112   -0.090376
 C 0.1214 0.8586 0.1344   0.732548
 C 0.69112 0.81748 0.57722   -0.090375
 C 0.6344 0.8856 0.6214   0.732548
 C 0.31748 0.19112 0.91418   -0.090375
 C 0.3856 0.1344 0.8586   0.732548
 C 0.31748 0.57722 0.19112   -0.090375
 C 0.3856 0.6214 0.1344   0.732548
 C 0.69112 0.91418 0.81748   -0.090375
 C 0.6344 0.8586 0.8856   0.732548
 C 0.07722 0.81748 0.91418   -0.090376
 C 0.1214 0.8856 0.8586   0.732548
 C 0.41418 0.19112 0.57722   -0.090376
 C 0.3586 0.1344 0.6214   0.732548
 C 0.69112 0.57722 0.91418   -0.090376
 C 0.6344 0.6214 0.8586   0.732548
 C 0.31748 0.91418 0.57722   -0.090376
 C 0.3856 0.8586 0.6214   0.732548
 C 0.41418 0.81748 0.19112   -0.090375
 C 0.3586 0.8856 0.1344   0.732548
 C 0.07722 0.19112 0.81748   -0.090375
 C 0.1214 0.1344 0.8856   0.732548
 O 0.68812 0.29406 0.37178   -0.635994
 O 0.5902 0.38044 0.45134   -0.656343
 O 0.79406 0.18812 0.64604   -0.635993
 O 0.88044 0.0902 0.57802   -0.656342
 O 0.87178 0.64604 0.18812   -0.635993
 O 0.95134 0.57802 0.0902   -0.656342
 O 0.14604 0.37178 0.29406   -0.635993
 O 0.07802 0.45134 0.38044   -0.656342
 O 0.68812 0.37178 0.64604   -0.635993
 O 0.5902 0.45134 0.57802   -0.656342
 O 0.79406 0.64604 0.37178   -0.635993
 O 0.88044 0.57802 0.45134   -0.656342
 O 0.87178 0.18812 0.29406   -0.635994
 O 0.95134 0.0902 0.38044   -0.656343
 O 0.14604 0.29406 0.18812   -0.635994
 O 0.07802 0.38044 0.0902   -0.656342
 O 0.68812 0.64604 0.29406   -0.635994
 O 0.5902 0.57802 0.38044   -0.656342
 O 0.79406 0.37178 0.18812   -0.635994
 O 0.88044 0.45134 0.0902   -0.656342
 O 0.87178 0.29406 0.64604   -0.635993
 O 0.95134 0.38044 0.57802   -0.656342
 O 0.14604 0.18812 0.37178   -0.635993
 O 0.07802 0.0902 0.45134   -0.656342
 O 0.70594 0.31188 0.12822   -0.635994
 O 0.61956 0.4098 0.04866   -0.656343
 O 0.81188 0.20594 0.85396   -0.635994
 O 0.9098 0.11956 0.92198   -0.656342
 O 0.35396 0.12822 0.31188   -0.635993
 O 0.42198 0.04866 0.4098   -0.656342
 O 0.62822 0.85396 0.20594   -0.635993
 O 0.54866 0.92198 0.11956   -0.656342
 O 0.62822 0.31188 0.85396   -0.635993
 O 0.54866 0.4098 0.92198   -0.656342
 O 0.35396 0.20594 0.12822   -0.635993
 O 0.42198 0.11956 0.04866   -0.656342
 O 0.81188 0.12822 0.20594   -0.635994
 O 0.9098 0.04866 0.11956   -0.656343
 O 0.70594 0.85396 0.31188   -0.635994
 O 0.61956 0.92198 0.4098   -0.656342
 O 0.35396 0.31188 0.20594   -0.635993
 O 0.42198 0.4098 0.11956   -0.656342
 O 0.62822 0.20594 0.31188   -0.635994
 O 0.54866 0.11956 0.4098   -0.656343
 O 0.70594 0.12822 0.85396   -0.635993
 O 0.61956 0.04866 0.92198   -0.656342
 O 0.81188 0.85396 0.12822   -0.635993
 O 0.9098 0.92198 0.04866   -0.656342
 O 0.31188 0.70594 0.62822   -0.635994
 O 0.4098 0.61956 0.54866   -0.656343
 O 0.20594 0.81188 0.35396   -0.635993
 O 0.11956 0.9098 0.42198   -0.656342
 O 0.12822 0.35396 0.81188   -0.635993
 O 0.04866 0.42198 0.9098   -0.656342
 O 0.85396 0.62822 0.70594   -0.635993
 O 0.92198 0.54866 0.61956   -0.656342
 O 0.31188 0.62822 0.35396   -0.635993
 O 0.4098 0.54866 0.42198   -0.656342
 O 0.20594 0.35396 0.62822   -0.635993
 O 0.11956 0.42198 0.54866   -0.656342
 O 0.12822 0.81188 0.70594   -0.635994
 O 0.04866 0.9098 0.61956   -0.656343
 O 0.85396 0.70594 0.81188   -0.635994
 O 0.92198 0.61956 0.9098   -0.656342
 O 0.31188 0.35396 0.70594   -0.635994
 O 0.4098 0.42198 0.61956   -0.656342
 O 0.20594 0.62822 0.81188   -0.635994
 O 0.11956 0.54866 0.9098   -0.656342
 O 0.12822 0.70594 0.35396   -0.635993
 O 0.04866 0.61956 0.42198   -0.656342
 O 0.85396 0.81188 0.62822   -0.635993
 O 0.92198 0.9098 0.54866   -0.656342
 O 0.29406 0.68812 0.87178   -0.635994
 O 0.38044 0.5902 0.95134   -0.656343
 O 0.18812 0.79406 0.14604   -0.635994
 O 0.0902 0.88044 0.07802   -0.656342
 O 0.64604 0.87178 0.68812   -0.635993
 O 0.57802 0.95134 0.5902   -0.656342
 O 0.37178 0.14604 0.79406   -0.635993
 O 0.45134 0.07802 0.88044   -0.656342
 O 0.37178 0.68812 0.14604   -0.635993
 O 0.45134 0.5902 0.07802   -0.656342
 O 0.64604 0.79406 0.87178   -0.635993
 O 0.57802 0.88044 0.95134   -0.656342
 O 0.18812 0.87178 0.79406   -0.635994
 O 0.0902 0.95134 0.88044   -0.656343
 O 0.29406 0.14604 0.68812   -0.635994
 O 0.38044 0.07802 0.5902   -0.656342
 O 0.64604 0.68812 0.79406   -0.635993
 O 0.57802 0.5902 0.88044   -0.656342
 O 0.37178 0.79406 0.68812   -0.635994
 O 0.45134 0.88044 0.5902   -0.656343
 O 0.29406 0.87178 0.14604   -0.635993
 O 0.38044 0.95134 0.07802   -0.656342
 O 0.18812 0.14604 0.87178   -0.635993
 O 0.0902 0.07802 0.95134   -0.656342
 O 0.62018 0.37982 0.25   -0.327683
 O 0.87982 0.12018 0.75   -0.327683
 O 0.75 0.75 0.12018   -0.327683
 O 0.25 0.25 0.37982   -0.327683
 O 0.62018 0.25 0.75   -0.327683
 O 0.87982 0.75 0.25   -0.327683
 O 0.75 0.12018 0.37982   -0.327683
 O 0.25 0.37982 0.12018   -0.327683
 O 0.62018 0.75 0.37982   -0.327683
 O 0.87982 0.25 0.12018   -0.327683
 O 0.75 0.37982 0.75   -0.327683
 O 0.25 0.12018 0.25   -0.327683
 O 0.37982 0.62018 0.75   -0.327683
 O 0.12018 0.87982 0.25   -0.327683
 O 0.25 0.25 0.87982   -0.327683
 O 0.75 0.75 0.62018   -0.327683
 O 0.37982 0.75 0.25   -0.327683
 O 0.12018 0.25 0.75   -0.327683
 O 0.25 0.87982 0.62018   -0.327683
 O 0.75 0.62018 0.87982   -0.327683
 O 0.37982 0.25 0.62018   -0.327683
 O 0.12018 0.75 0.87982   -0.327683
 O 0.25 0.62018 0.25   -0.327683
 O 0.75 0.87982 0.75   -0.327683
