{'_ref': 'TBD', '_srcid': 'CAKYAQ_clean', 'submitters': [{'name': 'Dalar Nazarian Jeff Camp and David Sholl', 'email': 'dalar@gatech.edu jcamp6@gatech.edu'}], '_method': 'VASP DFT with PBE;DDEC'}
data_NiH22C34(NO)4
_symmetry_space_group_name_H-M   'P 1'
_cell_length_a   8.37220000
_cell_length_b   11.48879993
_cell_length_c   34.92300000
_cell_angle_alpha   90.00000000
_cell_angle_beta   90.00000000
_cell_angle_gamma   105.59000175
_symmetry_Int_Tables_number   1
_chemical_formula_structural   NiH22C34(NO)4
_chemical_formula_sum   'Ni4 H88 C136 N16 O16'
_cell_volume   3235.53835934
_cell_formula_units_Z   4
loop_
 _symmetry_equiv_pos_site_id
 _symmetry_equiv_pos_as_xyz
  1  'x, y, z'
loop_
 _atom_site_label
 _atom_site_fract_x
 _atom_site_fract_y
 _atom_site_fract_z
 _atom_site_charge
 Ni 0.47694 0.5091 0.8514   0.722523
 Ni 0.52306 0.9909 0.3514   0.722523
 Ni 0.52306 0.4909 0.1486   0.722523
 Ni 0.47694 0.0091 0.6486   0.722523
 H 0.8676 0.7844 0.7809   0.093788
 H 0.1709 0.8766 0.7736   0.12825
 H 0.3791 0.8965 0.7297   0.073786
 H 0.1881 0.0986 0.6647   0.090326
 H 0.9782 0.0895 0.7075   0.129276
 H 0.8933 0.136 0.7716   0.099325
 H 0.5326 0.9187 0.8343   0.105494
 H 0.8678 0.2753 0.8177   0.130909
 H 0.7735 0.4347 0.8365   0.071828
 H 0.3172 0.2345 0.837   0.082782
 H 0.3989 0.0683 0.8193   0.126231
 H 0.8527 0.2491 0.9066   0.087369
 H 0.8521 0.2633 0.021   0.100606
 H 0.2614 0.4318 0.9624   0.094327
 H 0.3258 0.5428 0.0153   0.120554
 H 0.4713 0.5905 0.0706   0.073526
 H 0.1913 0.3116 0.1218   0.068632
 H 0.0365 0.2552 0.0682   0.135366
 H 0.6378 0.0942 0.9133   0.123515
 H 0.3573 0.0025 0.913   0.061346
 H 0.3046 0.1348 0.0115   0.060167
 H 0.5815 0.2327 0.015   0.125608
 H 0.1324 0.7156 0.2809   0.093788
 H 0.8291 0.6234 0.2736   0.12825
 H 0.6209 0.6035 0.2297   0.073786
 H 0.8119 0.4014 0.1647   0.090326
 H 0.0218 0.4105 0.2075   0.129276
 H 0.1067 0.364 0.2716   0.099325
 H 0.4674 0.5813 0.3343   0.105494
 H 0.1322 0.2247 0.3177   0.130909
 H 0.2265 0.0653 0.3365   0.071828
 H 0.6828 0.2655 0.337   0.082782
 H 0.6011 0.4317 0.3193   0.126231
 H 0.1473 0.2509 0.4066   0.087369
 H 0.1479 0.2367 0.521   0.100606
 H 0.7386 0.0682 0.4624   0.094327
 H 0.6742 0.9572 0.5153   0.120554
 H 0.5287 0.9095 0.5706   0.073526
 H 0.8087 0.1884 0.6218   0.068633
 H 0.9635 0.2448 0.5682   0.135366
 H 0.3622 0.4058 0.4133   0.123515
 H 0.6427 0.4975 0.413   0.061346
 H 0.6954 0.3652 0.5115   0.060167
 H 0.4185 0.2673 0.515   0.125608
 H 0.1324 0.2156 0.2191   0.093787
 H 0.8291 0.1234 0.2264   0.128251
 H 0.6209 0.1035 0.2703   0.073786
 H 0.8119 0.9014 0.3353   0.090327
 H 0.0218 0.9105 0.2925   0.129276
 H 0.1067 0.864 0.2284   0.099324
 H 0.4674 0.0813 0.1657   0.105494
 H 0.1322 0.7247 0.1823   0.130909
 H 0.2265 0.5653 0.1635   0.071828
 H 0.6828 0.7655 0.163   0.082782
 H 0.6011 0.9317 0.1807   0.126231
 H 0.1473 0.7509 0.0934   0.087369
 H 0.1479 0.7367 0.979   0.100606
 H 0.7386 0.5682 0.0376   0.094328
 H 0.6742 0.4572 0.9847   0.120555
 H 0.5287 0.4095 0.9294   0.073526
 H 0.8087 0.6884 0.8782   0.068632
 H 0.9635 0.7448 0.9318   0.135364
 H 0.3622 0.9058 0.0867   0.123515
 H 0.6427 0.9975 0.087   0.061344
 H 0.6954 0.8652 0.9885   0.060167
 H 0.4185 0.7673 0.985   0.12561
 H 0.8676 0.2844 0.7191   0.093787
 H 0.1709 0.3766 0.7264   0.128251
 H 0.3791 0.3965 0.7703   0.073786
 H 0.1881 0.5986 0.8353   0.090327
 H 0.9782 0.5895 0.7925   0.129276
 H 0.8933 0.636 0.7284   0.099324
 H 0.5326 0.4187 0.6657   0.105494
 H 0.8678 0.7753 0.6823   0.130909
 H 0.7735 0.9347 0.6635   0.071828
 H 0.3172 0.7345 0.663   0.082782
 H 0.3989 0.5683 0.6807   0.126231
 H 0.8527 0.7491 0.5934   0.087369
 H 0.8521 0.7633 0.479   0.100606
 H 0.2614 0.9318 0.5376   0.094328
 H 0.3258 0.0428 0.4847   0.120555
 H 0.4713 0.0905 0.4294   0.073526
 H 0.1913 0.8116 0.3782   0.068633
 H 0.0365 0.7552 0.4318   0.135364
 H 0.6378 0.5942 0.5867   0.123515
 H 0.3573 0.5025 0.587   0.061344
 H 0.3046 0.6348 0.4885   0.060167
 H 0.5815 0.7327 0.485   0.12561
 C 0.608 0.7113 0.82607   0.598224
 C 0.6878 0.8334 0.80985   -0.098253
 C 0.8261 0.8497 0.78665   -0.083559
 C 0.9039 0.9639 0.77174   0.01213
 C 0.0461 0.9784 0.74551   0.125285
 C 0.1711 0.9222 0.75162   -0.224042
 C 0.2958 0.9343 0.72488   0.166756
 C 0.1844 0.0533 0.68694   0.168248
 C 0.0567 0.0475 0.71239   -0.212064
 C 0.8419 0.0598 0.78135   -0.093336
 C 0.7048 0.0459 0.80508   0.021256
 C 0.6263 0.9303 0.81897   -0.077853
 C 0.6445 0.1511 0.8162   0.113051
 C 0.7549 0.2645 0.82162   -0.194463
 C 0.697 0.3603 0.83271   0.164642
 C 0.4296 0.2427 0.83316   0.16338
 C 0.4777 0.1421 0.82242   -0.215814
 C 0.1635 0.3668 0.89105   0.648827
 C 0.0725 0.3426 0.92868   -0.099349
 C 0.9074 0.2753 0.92952   -0.063897
 C 0.8224 0.2463 0.96403   0.009734
 C 0.9068 0.2841 0.9978   -0.11301
 C 0.0723 0.3525 0.99792   0.001153
 C 0.1527 0.3834 0.96283   -0.075024
 C 0.1644 0.39 0.03408   0.129463
 C 0.2961 0.4927 0.03653   -0.216107
 C 0.3833 0.521 0.07011   0.169773
 C 0.2202 0.3586 0.09993   0.158222
 C 0.1261 0.3236 0.06758   -0.210595
 C 0.6436 0.1792 0.9639   0.122295
 C 0.5726 0.1062 0.93372   -0.231891
 C 0.4025 0.0503 0.93388   0.193887
 C 0.3721 0.1274 0.99095   0.20965
 C 0.54 0.1873 0.99338   -0.229544
 C 0.392 0.7887 0.32607   0.598224
 C 0.3122 0.6666 0.30985   -0.098253
 C 0.1739 0.6503 0.28665   -0.083559
 C 0.0961 0.5361 0.27174   0.01213
 C 0.9539 0.5216 0.24551   0.125285
 C 0.8289 0.5778 0.25162   -0.224042
 C 0.7042 0.5657 0.22488   0.166756
 C 0.8156 0.4467 0.18694   0.168248
 C 0.9433 0.4525 0.21239   -0.212064
 C 0.1581 0.4402 0.28135   -0.093336
 C 0.2952 0.4541 0.30508   0.021256
 C 0.3737 0.5697 0.31897   -0.077853
 C 0.3555 0.3489 0.3162   0.113051
 C 0.2451 0.2355 0.32162   -0.194463
 C 0.303 0.1397 0.33271   0.164642
 C 0.5704 0.2573 0.33316   0.16338
 C 0.5223 0.3579 0.32242   -0.215814
 C 0.8365 0.1332 0.39105   0.648827
 C 0.9275 0.1574 0.42868   -0.099349
 C 0.0926 0.2247 0.42952   -0.063897
 C 0.1776 0.2537 0.46403   0.009734
 C 0.0932 0.2159 0.4978   -0.11301
 C 0.9277 0.1475 0.49792   0.001153
 C 0.8473 0.1166 0.46283   -0.075024
 C 0.8356 0.11 0.53408   0.129463
 C 0.7039 0.0073 0.53653   -0.216107
 C 0.6167 0.979 0.57011   0.169773
 C 0.7798 0.1414 0.59993   0.158221
 C 0.8739 0.1764 0.56758   -0.210595
 C 0.3564 0.3208 0.4639   0.122295
 C 0.4274 0.3938 0.43372   -0.231891
 C 0.5975 0.4497 0.43388   0.193887
 C 0.6279 0.3726 0.49095   0.20965
 C 0.46 0.3127 0.49338   -0.229544
 C 0.392 0.2887 0.17393   0.598226
 C 0.3122 0.1666 0.19015   -0.098253
 C 0.1739 0.1503 0.21335   -0.083559
 C 0.0961 0.0361 0.22826   0.012129
 C 0.9539 0.0216 0.25449   0.125285
 C 0.8289 0.0778 0.24838   -0.224042
 C 0.7042 0.0657 0.27512   0.166757
 C 0.8156 0.9467 0.31306   0.168249
 C 0.9433 0.9525 0.28761   -0.212064
 C 0.1581 0.9402 0.21865   -0.093336
 C 0.2952 0.9541 0.19492   0.021256
 C 0.3737 0.0697 0.18103   -0.077853
 C 0.3555 0.8489 0.1838   0.113052
 C 0.2451 0.7355 0.17838   -0.194463
 C 0.303 0.6397 0.16729   0.164642
 C 0.5704 0.7573 0.16684   0.16338
 C 0.5223 0.8579 0.17758   -0.215814
 C 0.8365 0.6332 0.10895   0.648828
 C 0.9275 0.6574 0.07132   -0.099348
 C 0.0926 0.7247 0.07048   -0.063898
 C 0.1776 0.7537 0.03597   0.009734
 C 0.0932 0.7159 0.0022   -0.11301
 C 0.9277 0.6475 0.00208   0.001153
 C 0.8473 0.6166 0.03717   -0.075025
 C 0.8356 0.61 0.96592   0.129463
 C 0.7039 0.5073 0.96347   -0.216108
 C 0.6167 0.479 0.92989   0.169773
 C 0.7798 0.6414 0.90007   0.158222
 C 0.8739 0.6764 0.93242   -0.210593
 C 0.3564 0.8208 0.0361   0.122295
 C 0.4274 0.8938 0.06628   -0.231892
 C 0.5975 0.9497 0.06612   0.193887
 C 0.6279 0.8726 0.00905   0.209649
 C 0.46 0.8127 0.00662   -0.229545
 C 0.608 0.2113 0.67393   0.598226
 C 0.6878 0.3334 0.69015   -0.098253
 C 0.8261 0.3497 0.71335   -0.083559
 C 0.9039 0.4639 0.72826   0.012129
 C 0.0461 0.4784 0.75449   0.125285
 C 0.1711 0.4222 0.74838   -0.224042
 C 0.2958 0.4343 0.77512   0.166757
 C 0.1844 0.5533 0.81306   0.168249
 C 0.0567 0.5475 0.78761   -0.212064
 C 0.8419 0.5598 0.71865   -0.093336
 C 0.7048 0.5459 0.69492   0.021256
 C 0.6263 0.4303 0.68103   -0.077853
 C 0.6445 0.6511 0.6838   0.113052
 C 0.7549 0.7645 0.67838   -0.194463
 C 0.697 0.8603 0.66729   0.164642
 C 0.4296 0.7427 0.66684   0.16338
 C 0.4777 0.6421 0.67758   -0.215814
 C 0.1635 0.8668 0.60895   0.648828
 C 0.0725 0.8426 0.57132   -0.099348
 C 0.9074 0.7753 0.57048   -0.063898
 C 0.8224 0.7463 0.53597   0.009734
 C 0.9068 0.7841 0.5022   -0.11301
 C 0.0723 0.8525 0.50208   0.001153
 C 0.1527 0.8834 0.53717   -0.075025
 C 0.1644 0.89 0.46592   0.129463
 C 0.2961 0.9927 0.46347   -0.216108
 C 0.3833 0.021 0.42989   0.169773
 C 0.2202 0.8586 0.40007   0.158221
 C 0.1261 0.8236 0.43242   -0.210593
 C 0.6436 0.6792 0.5361   0.122295
 C 0.5726 0.6062 0.56628   -0.231892
 C 0.4025 0.5503 0.56612   0.193887
 C 0.3721 0.6274 0.50905   0.209649
 C 0.54 0.6873 0.50662   -0.229545
 N 0.3036 0.997 0.6925   -0.287269
 N 0.5357 0.3523 0.8384   -0.315952
 N 0.3504 0.4557 0.10201   -0.301046
 N 0.3025 0.0614 0.96187   -0.435351
 N 0.6964 0.503 0.1925   -0.287269
 N 0.4643 0.1477 0.3384   -0.315952
 N 0.6496 0.0443 0.60201   -0.301046
 N 0.6975 0.4386 0.46187   -0.435351
 N 0.6964 0.003 0.3075   -0.287269
 N 0.4643 0.6477 0.1616   -0.315952
 N 0.6496 0.5443 0.89799   -0.301046
 N 0.6975 0.9386 0.03813   -0.435351
 N 0.3036 0.497 0.8075   -0.287269
 N 0.5357 0.8523 0.6616   -0.315952
 N 0.3504 0.9557 0.39799   -0.301046
 N 0.3025 0.5614 0.53813   -0.435351
 O 0.6572 0.62155 0.81514   -0.56096
 O 0.4945 0.6991 0.85064   -0.544543
 O 0.1075 0.2995 0.86364   -0.600308
 O 0.2952 0.4541 0.89113   -0.59728
 O 0.3428 0.87845 0.31514   -0.56096
 O 0.5055 0.8009 0.35064   -0.544543
 O 0.8925 0.2005 0.36364   -0.600308
 O 0.7048 0.0459 0.39113   -0.59728
 O 0.3428 0.37845 0.18486   -0.56096
 O 0.5055 0.3009 0.14936   -0.544544
 O 0.8925 0.7005 0.13636   -0.600308
 O 0.7048 0.5459 0.10887   -0.59728
 O 0.6572 0.12155 0.68486   -0.56096
 O 0.4945 0.1991 0.64936   -0.544544
 O 0.1075 0.7995 0.63636   -0.600308
 O 0.2952 0.9541 0.60887   -0.59728
