{'_ref': 'TBD', '_srcid': 'CAKYAQ_clean', 'submitters': [{'name': 'Dalar Nazarian Jeff Camp and David Sholl', 'email': 'dalar@gatech.edu jcamp6@gatech.edu'}], '_method': 'VASP DFT with PBE;DDEC'}
data_CuH4C8N3O4
_symmetry_space_group_name_H-M   'P 1'
_cell_length_a   4.71010000
_cell_length_b   10.77039961
_cell_length_c   20.02890000
_cell_angle_alpha   90.00000000
_cell_angle_beta   90.00000000
_cell_angle_gamma   95.47200131
_symmetry_Int_Tables_number   1
_chemical_formula_structural   CuH4C8N3O4
_chemical_formula_sum   'Cu4 H16 C32 N12 O16'
_cell_volume   1011.42900431
_cell_formula_units_Z   4
loop_
 _symmetry_equiv_pos_site_id
 _symmetry_equiv_pos_as_xyz
  1  'x, y, z'
loop_
 _atom_site_label
 _atom_site_fract_x
 _atom_site_fract_y
 _atom_site_fract_z
 _atom_site_charge
 Cu 0.311 0.465 0.6636   0.78323
 Cu 0.689 0.035 0.1636   0.78323
 Cu 0.689 0.535 0.3364   0.78323
 Cu 0.311 0.965 0.8364   0.78323
 H 0.23466 0.43135 0.91538   0.102438
 H 0.40361 0.53635 0.8168   0.110085
 H 0.61129 0.35527 0.57496   0.099258
 H 0.17998 0.63198 0.53545   0.100041
 H 0.76534 0.06865 0.41538   0.102439
 H 0.59639 0.96365 0.3168   0.110085
 H 0.38871 0.14473 0.07496   0.099258
 H 0.82002 0.86802 0.03545   0.100041
 H 0.76534 0.56865 0.08462   0.102442
 H 0.59639 0.46365 0.1832   0.110085
 H 0.38871 0.64473 0.42504   0.099257
 H 0.82002 0.36802 0.46455   0.100041
 H 0.23466 0.93135 0.58462   0.102442
 H 0.40361 0.03635 0.6832   0.110085
 H 0.61129 0.85527 0.92504   0.099258
 H 0.17998 0.13198 0.96455   0.100041
 C 0.059 0.3 0.755   0.058964
 C 0.957 0.24 0.813   0.164061
 C 0.188 0.4 0.872   0.121878
 C 0.289 0.459 0.8154   0.10125
 C 0.007 0.24 0.685   0.546556
 C 0.784 0.12 0.82   0.585396
 C 0.567 0.416 0.543   0.095242
 C 0.314 0.577 0.521   0.087681
 C 0.941 0.2 0.255   0.058964
 C 0.043 0.26 0.313   0.164061
 C 0.812 0.1 0.372   0.121877
 C 0.711 0.041 0.3154   0.10125
 C 0.993 0.26 0.185   0.546556
 C 0.216 0.38 0.32   0.585396
 C 0.433 0.084 0.043   0.095242
 C 0.686 0.923 0.021   0.087681
 C 0.941 0.7 0.245   0.058964
 C 0.043 0.76 0.187   0.164061
 C 0.812 0.6 0.128   0.121876
 C 0.711 0.541 0.1846   0.10125
 C 0.993 0.76 0.315   0.546556
 C 0.216 0.88 0.18   0.585396
 C 0.433 0.584 0.457   0.095244
 C 0.686 0.423 0.479   0.087684
 C 0.059 0.8 0.745   0.058964
 C 0.957 0.74 0.687   0.164061
 C 0.188 0.9 0.628   0.121876
 C 0.289 0.959 0.6846   0.10125
 C 0.007 0.74 0.815   0.546556
 C 0.784 0.62 0.68   0.585396
 C 0.567 0.916 0.957   0.095244
 C 0.314 0.077 0.979   0.087684
 N 0.22 0.404 0.7563   -0.23688
 N 0.025 0.29 0.871   -0.346347
 N 0.389 0.493 0.5632   -0.197295
 N 0.78 0.096 0.2563   -0.23688
 N 0.975 0.21 0.371   -0.346347
 N 0.611 0.007 0.0632   -0.197295
 N 0.78 0.596 0.2437   -0.23688
 N 0.975 0.71 0.129   -0.346347
 N 0.611 0.507 0.4368   -0.197296
 N 0.22 0.904 0.7437   -0.23688
 N 0.025 0.79 0.629   -0.346347
 N 0.389 0.993 0.9368   -0.197296
 O 0.129 0.305 0.63   -0.577654
 O 0.872 0.136 0.686   -0.486999
 O 0.495 0.136 0.817   -0.575994
 O 0.886 0.027 0.837   -0.534915
 O 0.871 0.195 0.13   -0.577654
 O 0.128 0.364 0.186   -0.486999
 O 0.505 0.364 0.317   -0.575994
 O 0.114 0.473 0.337   -0.534915
 O 0.871 0.695 0.37   -0.577654
 O 0.128 0.864 0.314   -0.486999
 O 0.505 0.864 0.183   -0.575994
 O 0.114 0.973 0.163   -0.534915
 O 0.129 0.805 0.87   -0.577654
 O 0.872 0.636 0.814   -0.486999
 O 0.495 0.636 0.683   -0.575994
 O 0.886 0.527 0.663   -0.534915
