{'_ref': 'TBD', '_srcid': 'CAKYAQ_clean', 'submitters': [{'name': 'Dalar Nazarian Jeff Camp and David Sholl', 'email': 'dalar@gatech.edu jcamp6@gatech.edu'}], '_method': 'VASP DFT with PBE;DDEC'}
data_CuH4C8N3O4
_symmetry_space_group_name_H-M   'P 1'
_cell_length_a   4.73310000
_cell_length_b   10.86779950
_cell_length_c   19.92440000
_cell_angle_alpha   90.00000000
_cell_angle_beta   90.00000000
_cell_angle_gamma   96.00899933
_symmetry_Int_Tables_number   1
_chemical_formula_structural   CuH4C8N3O4
_chemical_formula_sum   'Cu4 H16 C32 N12 O16'
_cell_volume   1019.24766209
_cell_formula_units_Z   4
loop_
 _symmetry_equiv_pos_site_id
 _symmetry_equiv_pos_as_xyz
  1  'x, y, z'
loop_
 _atom_site_label
 _atom_site_fract_x
 _atom_site_fract_y
 _atom_site_fract_z
 _atom_site_charge
 Cu 0.2968 0.4621 0.6631   0.811889
 Cu 0.7032 0.0379 0.1631   0.811889
 Cu 0.7032 0.5379 0.3369   0.811889
 Cu 0.2968 0.9621 0.8369   0.811889
 H 0.22478 0.44767 0.91533   0.096902
 H 0.42094 0.5311 0.8148   0.117418
 H 0.58119 0.33035 0.56006   0.119424
 H 0.27948 0.65146 0.55022   0.103542
 H 0.77522 0.05233 0.41533   0.096902
 H 0.57906 0.9689 0.3148   0.117418
 H 0.41881 0.16965 0.06006   0.119424
 H 0.72052 0.84854 0.05022   0.103542
 H 0.77522 0.55233 0.08467   0.096898
 H 0.57906 0.4689 0.1852   0.117418
 H 0.41881 0.66965 0.43994   0.119424
 H 0.72052 0.34854 0.44978   0.103542
 H 0.22478 0.94767 0.58467   0.096898
 H 0.42094 0.0311 0.6852   0.117418
 H 0.58119 0.83035 0.93994   0.119424
 H 0.27948 0.15146 0.94978   0.103542
 C 0.047 0.295 0.7566   0.045999
 C 0.931 0.247 0.8155   0.154786
 C 0.174 0.406 0.8727   0.133489
 C 0.29 0.458 0.8147   0.098127
 C 0.999 0.236 0.6872   0.62964
 C 0.741 0.129 0.8239   0.620409
 C 0.547 0.404 0.5366   0.102636
 C 0.372 0.588 0.5305   0.085269
 C 0.953 0.205 0.2566   0.045999
 C 0.069 0.253 0.3155   0.154786
 C 0.826 0.094 0.3727   0.133489
 C 0.71 0.042 0.3147   0.098127
 C 0.000999999999998 0.264 0.1872   0.62964
 C 0.259 0.371 0.3239   0.620409
 C 0.453 0.096 0.0366   0.102636
 C 0.628 0.912 0.0305   0.085269
 C 0.953 0.705 0.2434   0.045999
 C 0.069 0.753 0.1845   0.154786
 C 0.826 0.594 0.1273   0.13349
 C 0.71 0.542 0.1853   0.098127
 C 0.000999999999998 0.764 0.3128   0.62964
 C 0.259 0.871 0.1761   0.620409
 C 0.453 0.596 0.4634   0.102639
 C 0.628 0.412 0.4695   0.085273
 C 0.047 0.795 0.7434   0.045999
 C 0.931 0.747 0.6845   0.154786
 C 0.174 0.906 0.6273   0.13349
 C 0.29 0.958 0.6853   0.098127
 C 0.999 0.736 0.8128   0.62964
 C 0.741 0.629 0.6761   0.620409
 C 0.547 0.904 0.9634   0.102639
 C 0.372 0.088 0.9695   0.085273
 N 0.222 0.4 0.7563   -0.231994
 N 0.997 0.303 0.8732   -0.382664
 N 0.425 0.4909 0.5663   -0.230312
 N 0.778 0.1 0.2563   -0.231994
 N 0.003 0.197 0.3732   -0.382664
 N 0.575 0.0091 0.0663   -0.230312
 N 0.778 0.6 0.2437   -0.231994
 N 0.003 0.697 0.1268   -0.382664
 N 0.575 0.5091 0.4337   -0.230313
 N 0.222 0.9 0.7437   -0.231994
 N 0.997 0.803 0.6268   -0.382664
 N 0.425 0.9909 0.9337   -0.230313
 O 0.12 0.2971 0.641   -0.587737
 O 0.835 0.1426 0.6817   -0.540556
 O 0.484 0.1344 0.8109   -0.53477
 O 0.85 0.0318 0.8303   -0.611498
 O 0.88 0.2029 0.141   -0.587737
 O 0.165 0.3574 0.1817   -0.540556
 O 0.516 0.3656 0.3109   -0.53477
 O 0.15 0.4682 0.3303   -0.611498
 O 0.88 0.7029 0.359   -0.587737
 O 0.165 0.8574 0.3183   -0.540556
 O 0.516 0.8656 0.1891   -0.53477
 O 0.15 0.9682 0.1697   -0.611498
 O 0.12 0.7971 0.859   -0.587737
 O 0.835 0.6426 0.8183   -0.540556
 O 0.484 0.6344 0.6891   -0.53477
 O 0.85 0.5318 0.6697   -0.611498
