{'_ref': 'TBD', '_srcid': 'CAKYAQ_clean', 'submitters': [{'name': 'Dalar Nazarian Jeff Camp and David Sholl', 'email': 'dalar@gatech.edu jcamp6@gatech.edu'}], '_method': 'VASP DFT with PBE;DDEC'}
data_CuH4C8N3O4
_symmetry_space_group_name_H-M   'P 1'
_cell_length_a   4.71540000
_cell_length_b   10.71239996
_cell_length_c   19.82680000
_cell_angle_alpha   90.00000000
_cell_angle_beta   90.00000000
_cell_angle_gamma   95.06499915
_symmetry_Int_Tables_number   1
_chemical_formula_structural   CuH4C8N3O4
_chemical_formula_sum   'Cu4 H16 C32 N12 O16'
_cell_volume   997.605383359
_cell_formula_units_Z   4
loop_
 _symmetry_equiv_pos_site_id
 _symmetry_equiv_pos_as_xyz
  1  'x, y, z'
loop_
 _atom_site_label
 _atom_site_fract_x
 _atom_site_fract_y
 _atom_site_fract_z
 _atom_site_charge
 Cu 0.2934 0.462 0.66293   0.767168
 Cu 0.7066 0.038 0.16293   0.767168
 Cu 0.7066 0.538 0.33707   0.767168
 Cu 0.2934 0.962 0.83707   0.767168
 H 0.2056 0.43967 0.9204   0.115798
 H 0.40215 0.53586 0.81049   0.112007
 H 0.63182 0.33349 0.56442   0.124916
 H 0.19364 0.61902 0.55797   0.091579
 H 0.7944 0.06033 0.4204   0.115795
 H 0.59785 0.96414 0.31049   0.112007
 H 0.36818 0.16651 0.06442   0.124913
 H 0.80636 0.88098 0.05797   0.091579
 H 0.7944 0.56033 0.0796   0.115767
 H 0.59785 0.46414 0.18951   0.112008
 H 0.36818 0.66651 0.43558   0.124913
 H 0.80636 0.38098 0.44203   0.091578
 H 0.2056 0.93967 0.5796   0.115765
 H 0.40215 0.03586 0.68951   0.112008
 H 0.63182 0.83349 0.93558   0.12491
 H 0.19364 0.11902 0.94203   0.091578
 C 0.03 0.301 0.7532   0.026199
 C 0.94 0.247 0.814   0.152741
 C 0.169 0.405 0.8767   0.144626
 C 0.282 0.46 0.8124   0.108372
 C 0.015 0.239 0.691   0.569606
 C 0.762 0.114 0.8246   0.600965
 C 0.586 0.4 0.5361   0.113126
 C 0.32 0.574 0.5322   0.089012
 C 0.97 0.199 0.2532   0.026199
 C 0.06 0.253 0.314   0.152741
 C 0.831 0.095 0.3767   0.144626
 C 0.718 0.04 0.3124   0.108371
 C 0.985 0.261 0.191   0.569606
 C 0.238 0.386 0.3246   0.600965
 C 0.414 0.1 0.0361   0.113127
 C 0.68 0.926 0.0322   0.089012
 C 0.97 0.699 0.2468   0.026199
 C 0.06 0.753 0.186   0.152741
 C 0.831 0.595 0.1233   0.144634
 C 0.718 0.54 0.1876   0.108369
 C 0.985 0.761 0.309   0.569607
 C 0.238 0.886 0.1754   0.600966
 C 0.414 0.6 0.4639   0.113139
 C 0.68 0.426 0.4678   0.089027
 C 0.03 0.801 0.7468   0.026199
 C 0.94 0.747 0.686   0.152741
 C 0.169 0.905 0.6233   0.144635
 C 0.282 0.96 0.6876   0.108369
 C 0.015 0.739 0.809   0.569607
 C 0.762 0.614 0.6754   0.600966
 C 0.586 0.9 0.9639   0.11314
 C 0.32 0.074 0.9678   0.089027
 N 0.22 0.404 0.7509   -0.249172
 N 0.000999999999998 0.299 0.8757   -0.35492
 N 0.421 0.478 0.5607   -0.232816
 N 0.78 0.096 0.2509   -0.249172
 N 0.999 0.201 0.3757   -0.35492
 N 0.579 0.022 0.0607   -0.232816
 N 0.78 0.596 0.2491   -0.249172
 N 0.999 0.701 0.1243   -0.354922
 N 0.579 0.522 0.4393   -0.23282
 N 0.22 0.904 0.7491   -0.249172
 N 0.000999999999998 0.799 0.6243   -0.354922
 N 0.421 0.978 0.9393   -0.23282
 O 0.127 0.29 0.6364   -0.54
 O 0.838 0.135 0.684   -0.560581
 O 0.479 0.134 0.8173   -0.579703
 O 0.871 0.03 0.8415   -0.498919
 O 0.873 0.21 0.1364   -0.54
 O 0.162 0.365 0.184   -0.560581
 O 0.521 0.366 0.3173   -0.579703
 O 0.129 0.47 0.3415   -0.498919
 O 0.873 0.71 0.3636   -0.54
 O 0.162 0.865 0.316   -0.560581
 O 0.521 0.866 0.1827   -0.579703
 O 0.129 0.97 0.1585   -0.498919
 O 0.127 0.79 0.8636   -0.54
 O 0.838 0.635 0.816   -0.560581
 O 0.479 0.634 0.6827   -0.579703
 O 0.871 0.53 0.6585   -0.498919
