{'_ref': 'TBD', '_srcid': 'CAKYAQ_clean', 'submitters': [{'name': 'Dalar Nazarian Jeff Camp and David Sholl', 'email': 'dalar@gatech.edu jcamp6@gatech.edu'}], '_method': 'VASP DFT with PBE;DDEC'}
data_PrH12(C3O2)3
_symmetry_space_group_name_H-M   'P 1'
_cell_length_a   8.65499983
_cell_length_b   9.93660027
_cell_length_c   11.71700000
_cell_angle_alpha   74.71000109
_cell_angle_beta   69.79499772
_cell_angle_gamma   85.95900242
_symmetry_Int_Tables_number   1
_chemical_formula_structural   PrH12(C3O2)3
_chemical_formula_sum   'Pr2 H24 C18 O12'
_cell_volume   911.957623891
_cell_formula_units_Z   2
loop_
 _symmetry_equiv_pos_site_id
 _symmetry_equiv_pos_as_xyz
  1  'x, y, z'
loop_
 _atom_site_label
 _atom_site_fract_x
 _atom_site_fract_y
 _atom_site_fract_z
 _atom_site_charge
 Pr 0.74555 0.97761 0.01192   2.159984
 Pr 0.25445 0.02239 0.98808   2.159977
 H 0.2656 0.9754 0.6721   0.13725
 H 0.2458 0.8135 0.7254   0.126532
 H 0.0951 0.7984 0.6028   0.067106
 H 0.0857 0.9614 0.5604   0.062065
 H 0.3742 0.9729 0.4571   0.066148
 H 0.3762 0.8096 0.4934   0.066142
 H 0.2045 0.9595 0.3365   0.128391
 H 0.2338 0.7987 0.3624   0.132246
 H 0.7549 0.4833 0.2183   0.120426
 H 0.7209 0.4696 0.0988   0.112298
 H 0.0349 0.5225 0.1027   0.065801
 H 0.9767 0.3782 0.0994   0.063249
 H 0.7344 0.0246 0.3279   0.137251
 H 0.7542 0.1865 0.2746   0.126529
 H 0.9049 0.2016 0.3972   0.067109
 H 0.9143 0.0386 0.4396   0.062067
 H 0.6258 0.0271 0.5429   0.066146
 H 0.6238 0.1904 0.5066   0.066143
 H 0.7955 0.0405 0.6635   0.128393
 H 0.7662 0.2013 0.6376   0.132248
 H 0.2451 0.5167 0.7817   0.120429
 H 0.2791 0.5304 0.9012   0.112293
 H 0.9651 0.4775 0.8973   0.0658
 H 0.0233 0.6218 0.9006   0.06325
 C 0.0446 0.9156 0.8068   0.780361
 C 0.1899 0.897 0.6972   -0.360178
 C 0.155 0.8853 0.5829   -0.061655
 C 0.3109 0.8894 0.472   -0.065982
 C 0.2829 0.8882 0.3512   -0.350393
 C 0.5644 0.0873 0.7633   0.800269
 C 0.7622 0.6715 0.0928   0.737273
 C 0.7894 0.5166 0.1274   -0.319405
 C 0.9672 0.4784 0.0713   -0.076552
 C 0.9554 0.0844 0.1932   0.780361
 C 0.8101 0.103 0.3028   -0.360177
 C 0.845 0.1147 0.4171   -0.061658
 C 0.6891 0.1106 0.528   -0.065981
 C 0.7171 0.1118 0.6488   -0.350394
 C 0.4356 0.9127 0.2367   0.800269
 C 0.2378 0.3285 0.9072   0.737273
 C 0.2106 0.4834 0.8726   -0.319403
 C 0.0328 0.5216 0.9287   -0.076554
 O 0.5777 0.0448 0.87212   -0.873107
 O 0.5751 0.8927 0.2468   -0.643141
 O 0.8625 0.753 0.0983   -0.701397
 O 0.6416 0.7186 0.0591   -0.688273
 O 0.9006 0.8836 0.8188   -0.64757
 O 0.0681 0.9647 0.88908   -0.837885
 O 0.4223 0.9552 0.12788   -0.873107
 O 0.4249 0.1073 0.7532   -0.643141
 O 0.1375 0.247 0.9017   -0.701397
 O 0.3584 0.2814 0.9409   -0.688273
 O 0.0994 0.1164 0.1812   -0.64757
 O 0.9319 0.0353 0.11092   -0.837885
