{'_ref': 'TBD', '_srcid': 'CAKYAQ_clean', 'submitters': [{'name': 'Dalar Nazarian Jeff Camp and David Sholl', 'email': 'dalar@gatech.edu jcamp6@gatech.edu'}], '_method': 'VASP DFT with PBE;DDEC'}
data_Cu3H21(C5N2)4
_symmetry_space_group_name_H-M   'P 1'
_cell_length_a   11.42869997
_cell_length_b   11.70309966
_cell_length_c   12.91800000
_cell_angle_alpha   64.00500149
_cell_angle_beta   89.78299774
_cell_angle_gamma   71.12899609
_symmetry_Int_Tables_number   1
_chemical_formula_structural   Cu3H21(C5N2)4
_chemical_formula_sum   'Cu6 H42 C40 N16'
_cell_volume   1450.06070993
_cell_formula_units_Z   2
loop_
 _symmetry_equiv_pos_site_id
 _symmetry_equiv_pos_as_xyz
  1  'x, y, z'
loop_
 _atom_site_label
 _atom_site_fract_x
 _atom_site_fract_y
 _atom_site_fract_z
 _atom_site_charge
 Cu 0.62499 0.83158 0.91995   0.300812
 Cu 0.45441 0.13139 0.502   0.244889
 Cu 0.68451 0.36193 0.2039   0.306359
 Cu 0.37501 0.16842 0.08005   0.300812
 Cu 0.54559 0.86861 0.498   0.244888
 Cu 0.31549 0.63807 0.7961   0.306359
 H 0.0905 0.4792 0.0678   0.136365
 H 0.0327 0.5675 0.1308   0.134087
 H 0.1716 0.542 0.1086   0.132565
 H 0.3185 0.3736 0.278   0.283968
 H 0.5976 0.1248 0.7873   0.284997
 H 0.2111 0.061 0.5827   0.132243
 H 0.0789 0.0917 0.5208   0.1207
 H 0.1995 0.9958 0.5018   0.139059
 H 0.9079 0.3904 0.2362   0.118212
 H 0.931 0.2539 0.3496   0.115035
 H 0.1389 0.1553 0.1929   0.117452
 H 0.1076 0.0615 0.0755   0.077006
 H 0.9096 0.0691 0.0297   0.118572
 H 0.6636 0.1429 0.1602   0.129434
 H 0.6382 0.2826 0.0496   0.119169
 H 0.5487 0.3682 0.7388   0.142851
 H 0.5777 0.3985 0.8408   0.135603
 H 0.6859 0.3504 0.7776   0.125829
 H 0.7403 0.7901 0.1512   0.125971
 H 0.7855 0.8718 0.201   0.12843
 H 0.647 0.8759 0.202   0.127451
 H 0.9095 0.5208 0.9322   0.136365
 H 0.9673 0.4325 0.8692   0.134086
 H 0.8284 0.458 0.8914   0.132565
 H 0.6815 0.6264 0.722   0.283969
 H 0.4024 0.8752 0.2127   0.284997
 H 0.7889 0.939 0.4173   0.132244
 H 0.9211 0.9083 0.4792   0.120699
 H 0.8005 0.0042 0.4982   0.139059
 H 0.0921 0.6096 0.7638   0.118212
 H 0.069 0.7461 0.6504   0.115035
 H 0.8611 0.8447 0.8071   0.117452
 H 0.8924 0.9385 0.9245   0.077004
 H 0.0904 0.9309 0.9703   0.118568
 H 0.3364 0.8571 0.8398   0.129435
 H 0.3618 0.7174 0.9504   0.119169
 H 0.4513 0.6318 0.2612   0.142851
 H 0.4223 0.6015 0.1592   0.135604
 H 0.3141 0.6496 0.2224   0.125828
 H 0.2597 0.2099 0.8488   0.125971
 H 0.2145 0.1282 0.799   0.12843
 H 0.353 0.1241 0.798   0.127451
 C 0.1077 0.5028 0.1271   -0.371554
 C 0.1508 0.3795 0.2407   0.180419
 C 0.0922 0.2911 0.3103   -0.208717
 C 0.1773 0.1967 0.4094   0.23252
 C 0.1656 0.0752 0.5131   -0.370092
 C 0.9628 0.2957 0.2781   -0.191485
 C 0.9553 0.228 0.2063   0.294568
 C 0.059 0.1612 0.1708   -0.230288
 C 0.0403 0.1041 0.1026   0.039883
 C 0.9222 0.1099 0.0742   -0.249761
 C 0.8238 0.1754 0.1115   0.292647
 C 0.6909 0.187 0.0866   -0.208366
 C 0.6093 0.3413 0.8041   -0.363391
 C 0.6336 0.1964 0.8901   0.181616
 C 0.6698 0.1256 0.009   -0.205484
 C 0.6776 0.9919 0.0422   0.228287
 C 0.716 0.8718 0.1595   -0.3668
 C 0.5207 0.0102 0.6585   -0.11925
 C 0.59 0.2941 0.316   -0.167151
 C 0.6571 0.6523 0.0236   -0.152168
 C 0.8923 0.4972 0.8729   -0.371554
 C 0.8492 0.6205 0.7593   0.180419
 C 0.9078 0.7089 0.6897   -0.208716
 C 0.8227 0.8033 0.5906   0.232521
 C 0.8344 0.9248 0.4869   -0.370092
 C 0.0372 0.7043 0.7219   -0.191485
 C 0.0447 0.772 0.7937   0.294568
 C 0.941 0.8388 0.8292   -0.230288
 C 0.9597 0.8959 0.8974   0.039883
 C 0.0778 0.8901 0.9258   -0.24976
 C 0.1762 0.8246 0.8885   0.292647
 C 0.3091 0.813 0.9134   -0.208366
 C 0.3907 0.6587 0.1959   -0.363391
 C 0.3664 0.8036 0.1099   0.181616
 C 0.3302 0.8744 0.991   -0.205484
 C 0.3224 0.0081 0.9578   0.228287
 C 0.284 0.1282 0.8405   -0.3668
 C 0.4793 0.9898 0.3415   -0.119249
 C 0.41 0.7059 0.684   -0.167151
 C 0.3429 0.3477 0.9764   -0.152168
 N 0.2843 0.2193 0.4059   -0.239519
 N 0.2642 0.3349 0.3013   -0.12565
 N 0.8402 0.235 0.1754   -0.357569
 N 0.6208 0.1052 0.8582   -0.131516
 N 0.6485 0.9787 0.9497   -0.261924
 N 0.5628 0.9405 0.7545   -0.311001
 N 0.5359 0.2449 0.3861   -0.288238
 N 0.6719 0.5397 0.0926   -0.327075
 N 0.7157 0.7807 0.5941   -0.239519
 N 0.7358 0.6651 0.6987   -0.12565
 N 0.1598 0.765 0.8246   -0.357569
 N 0.3792 0.8948 0.1418   -0.131516
 N 0.3515 0.0213 0.0503   -0.261924
 N 0.4372 0.0595 0.2455   -0.311001
 N 0.4641 0.7551 0.6139   -0.288238
 N 0.3281 0.4603 0.9074   -0.327075
