{'_ref': 'TBD', '_srcid': 'CAKYAQ_clean', 'submitters': [{'name': 'Dalar Nazarian Jeff Camp and David Sholl', 'email': 'dalar@gatech.edu jcamp6@gatech.edu'}], '_method': 'VASP DFT with PBE;DDEC'}
data_Cu2H21C21(NO3)3
_symmetry_space_group_name_H-M   'P 1'
_cell_length_a   8.53099966
_cell_length_b   12.56999983
_cell_length_c   13.25200000
_cell_angle_alpha   105.07800235
_cell_angle_beta   90.12300032
_cell_angle_gamma   107.13899968
_symmetry_Int_Tables_number   1
_chemical_formula_structural   Cu2H21C21(NO3)3
_chemical_formula_sum   'Cu4 H42 C42 N6 O18'
_cell_volume   1306.42517099
_cell_formula_units_Z   2
loop_
 _symmetry_equiv_pos_site_id
 _symmetry_equiv_pos_as_xyz
  1  'x, y, z'
loop_
 _atom_site_label
 _atom_site_fract_x
 _atom_site_fract_y
 _atom_site_fract_z
 _atom_site_charge
 Cu 0.49221 0.59596 0.97948   0.802703
 Cu 0.9907 0.59489 0.56727   0.787779
 Cu 0.50779 0.40404 0.02052   0.802697
 Cu 0.0093 0.40511 0.43273   0.787772
 H 0.232 0.0254 0.0262   0.305809
 H 0.4492 0.3623 0.4489   0.136602
 H 0.496 0.2629 0.4855   0.126087
 H 0.4837 0.4771 0.629   0.069705
 H 0.3441 0.3553 0.6143   0.070084
 H 0.6817 0.3956 0.6895   0.132856
 H 0.5352 0.2796 0.6824   0.131723
 H 0.0522 0.6315 0.0187   0.136672
 H 0.0078 0.7335 0.1023   0.115135
 H 0.0144 0.5213 0.1441   0.067959
 H 0.1561 0.6426 0.1875   0.078053
 H 0.821 0.6094 0.2405   0.129954
 H 0.9722 0.7228 0.2907   0.123721
 H 0.4001 0.8194 0.0799   0.093559
 H 0.2585 0.9343 0.8482   0.118829
 H 0.3336 0.7926 0.7285   0.131224
 H 0.4412 0.6705 0.7868   0.080592
 H 0.1272 0.0196 0.325   0.136949
 H 0.0481 0.1699 0.4231   0.075307
 H 0.1115 0.3329 0.2062   0.101953
 H 0.2112 0.1802 0.1025   0.117321
 H 0.768 0.9746 0.9738   0.30581
 H 0.5508 0.6377 0.5511   0.136602
 H 0.504 0.7371 0.5145   0.126087
 H 0.5163 0.5229 0.371   0.069704
 H 0.6559 0.6447 0.3857   0.070081
 H 0.3183 0.6044 0.3105   0.132856
 H 0.4648 0.7204 0.3176   0.131723
 H 0.9478 0.3685 0.9813   0.136674
 H 0.9922 0.2665 0.8977   0.115135
 H 0.9856 0.4787 0.8559   0.06796
 H 0.8439 0.3574 0.8125   0.078054
 H 0.179 0.3906 0.7595   0.129953
 H 0.0278 0.2772 0.7093   0.123718
 H 0.5999 0.1806 0.9201   0.093561
 H 0.7415 0.0657 0.1518   0.11883
 H 0.6664 0.2074 0.2715   0.131225
 H 0.5588 0.3295 0.2132   0.080593
 H 0.8728 0.9804 0.675   0.136945
 H 0.9519 0.8301 0.5769   0.075299
 H 0.8885 0.6671 0.7938   0.101954
 H 0.7888 0.8198 0.8975   0.117321
 C 0.6929 0.405 0.4947   0.719691
 C 0.5164 0.3475 0.5016   -0.345699
 C 0.4634 0.3925 0.6126   -0.026498
 C 0.5627 0.3647 0.6971   -0.341413
 C 0.5314 0.413 0.809   0.693274
 C 0.8074 0.5931 0.0411   0.71104
 C 0.9851 0.6485 0.0782   -0.336606
 C 0.0365 0.6062 0.1677   -0.026211
 C 0.9401 0.6375 0.2634   -0.331286
 C 0.9695 0.5862 0.3521   0.695495
 C 0.3866 0.8155 0.0078   0.078359
 C 0.3201 0.8936 0.9801   0.121407
 C 0.3023 0.8829 0.8718   -0.119696
 C 0.3468 0.8003 0.8015   -0.115549
 C 0.4105 0.7287 0.8367   0.147852
 C 0.13 0.0841 0.2994   -0.156342
 C 0.183 0.0922 0.212   0.012121
 C 0.0784 0.1726 0.3547   0.172068
 C 0.115 0.2698 0.2321   0.17296
 C 0.1765 0.179 0.1704   -0.201041
 C 0.251 0.9899 0.1561   0.42312
 C 0.3071 0.595 0.5053   0.719691
 C 0.4836 0.6525 0.4984   -0.3457
 C 0.5366 0.6075 0.3874   -0.026497
 C 0.4373 0.6353 0.3029   -0.341413
 C 0.4686 0.587 0.191   0.693274
 C 0.1926 0.4069 0.9589   0.711039
 C 0.0149 0.3515 0.9218   -0.336606
 C 0.9635 0.3938 0.8323   -0.026212
 C 0.0599 0.3625 0.7366   -0.331284
 C 0.0305 0.4138 0.6479   0.695494
 C 0.6134 0.1845 0.9922   0.078358
 C 0.6799 0.1064 0.0199   0.121408
 C 0.6977 0.1171 0.1282   -0.119696
 C 0.6532 0.1997 0.1985   -0.115548
 C 0.5895 0.2713 0.1633   0.147851
 C 0.87 0.9159 0.7006   -0.156341
 C 0.817 0.9078 0.788   0.01212
 C 0.9216 0.8274 0.6453   0.17207
 C 0.885 0.7302 0.7679   0.172961
 C 0.8235 0.821 0.8296   -0.201042
 C 0.749 0.0101 0.8439   0.423122
 N 0.432 0.7359 0.9378   -0.313504
 N 0.2632 0.9766 0.0524   -0.361511
 N 0.0645 0.2628 0.3245   -0.311451
 N 0.568 0.2641 0.0622   -0.313503
 N 0.7368 0.0234 0.9476   -0.361512
 N 0.9355 0.7372 0.6755   -0.311453
 O 0.7532 0.5062 0.545   -0.566148
 O 0.9823 0.4856 0.3282   -0.56597
 O 0.5216 0.5143 0.835   -0.564924
 O 0.7693 0.3441 0.4377   -0.579899
 O 0.7417 0.4905 0.0415   -0.566924
 O 0.7329 0.6539 0.0109   -0.588722
 O 0.526 0.3494 0.8692   -0.549719
 O 0.9695 0.6483 0.4431   -0.561509
 O 0.3043 0.9268 0.2093   -0.487331
 O 0.2468 0.4938 0.455   -0.566147
 O 0.0177 0.5144 0.6718   -0.565971
 O 0.4784 0.4857 0.165   -0.564924
 O 0.2307 0.6559 0.5623   -0.579899
 O 0.2583 0.5095 0.9585   -0.566925
 O 0.2671 0.3461 0.9891   -0.588721
 O 0.474 0.6506 0.1308   -0.549719
 O 0.0305 0.3517 0.5569   -0.561508
 O 0.6957 0.0732 0.7907   -0.487331
