{'_ref': 'TBD', '_srcid': 'CAKYAQ_clean', 'submitters': [{'name': 'Dalar Nazarian Jeff Camp and David Sholl', 'email': 'dalar@gatech.edu jcamp6@gatech.edu'}], '_method': 'VASP DFT with PBE;DDEC'}
data_Cd2H18C26N4O13
_symmetry_space_group_name_H-M   'P 1'
_cell_length_a   14.29410000
_cell_length_b   15.40159980
_cell_length_c   16.72560000
_cell_angle_alpha   90.00000000
_cell_angle_beta   90.00000000
_cell_angle_gamma   115.90400183
_symmetry_Int_Tables_number   1
_chemical_formula_structural   Cd2H18C26N4O13
_chemical_formula_sum   'Cd8 H72 C104 N16 O52'
_cell_volume   3312.2162985
_cell_formula_units_Z   4
loop_
 _symmetry_equiv_pos_site_id
 _symmetry_equiv_pos_as_xyz
  1  'x, y, z'
loop_
 _atom_site_label
 _atom_site_fract_x
 _atom_site_fract_y
 _atom_site_fract_z
 _atom_site_charge
 Cd 0.83284 0.20662 0.36975   1.018079
 Cd 0.12354 0.27352 0.36419   1.019326
 Cd 0.66716 0.29338 0.86975   1.018079
 Cd 0.37646 0.22648 0.86419   1.019326
 Cd 0.16716 0.79338 0.63025   1.018079
 Cd 0.87646 0.72648 0.63581   1.019326
 Cd 0.33284 0.70662 0.13025   1.018079
 Cd 0.62354 0.77352 0.13581   1.019326
 H 0.3177 0.3373 0.4838   0.10679
 H 0.4368 0.2167 0.6612   0.058875
 H 0.5381 0.3182 0.6577   0.059221
 H 0.3479 0.1085 0.5766   0.127278
 H 0.6397 0.1705 0.487   0.104766
 H 0.6532 0.4142 0.5859   0.126749
 H 0.8874 0.416 0.4494   0.074956
 H 0.9337 0.528 0.3235   0.124825
 H 0.8513 0.644 0.3065   0.033338
 H 0.9106 0.6355 0.3858   0.057984
 H 0.9841 0.9424 0.3679   0.137391
 H 0.7865 0.9671 0.2071   0.076939
 H 0.7569 0.7075 0.264   0.100743
 H 0.1557 0.7569 0.2106   0.105747
 H 0.1703 0.5074 0.2049   0.074505
 H 0.1038 0.0747 0.4371   0.07182
 H 0.9984 0.3035 0.4662   0.426349
 H 0.9623 0.1889 0.4759   0.411891
 H 0.1823 0.1627 0.9838   0.10679
 H 0.0632 0.2833 0.1612   0.058875
 H 0.9619 0.1818 0.1577   0.059221
 H 0.1521 0.3915 0.0766   0.127278
 H 0.8603 0.3295 0.987   0.104766
 H 0.8468 0.0858 0.0859   0.126749
 H 0.6126 0.084 0.9494   0.074956
 H 0.5663 0.972 0.8235   0.124825
 H 0.6487 0.856 0.8065   0.033338
 H 0.5894 0.8645 0.8858   0.057984
 H 0.5159 0.5576 0.8679   0.137391
 H 0.7135 0.5329 0.7071   0.076939
 H 0.7431 0.7925 0.764   0.100743
 H 0.3443 0.7431 0.7106   0.105747
 H 0.3297 0.9926 0.7049   0.074504
 H 0.3962 0.4253 0.9371   0.07182
 H 0.5016 0.1965 0.9662   0.426349
 H 0.5377 0.3111 0.9759   0.411891
 H 0.6823 0.6627 0.5162   0.10679
 H 0.5632 0.7833 0.3388   0.058875
 H 0.4619 0.6818 0.3423   0.059221
 H 0.6521 0.8915 0.4234   0.127278
 H 0.3603 0.8295 0.513   0.104766
 H 0.3468 0.5858 0.4141   0.126749
 H 0.1126 0.584 0.5506   0.074956
 H 0.0663 0.472 0.6765   0.124825
 H 0.1487 0.356 0.6935   0.033338
 H 0.0894 0.3645 0.6142   0.057984
 H 0.0159 0.0576 0.6321   0.137391
 H 0.2135 0.0329 0.7929   0.076939
 H 0.2431 0.2925 0.736   0.100743
 H 0.8443 0.2431 0.7894   0.105746
 H 0.8297 0.4926 0.7951   0.074504
 H 0.8962 0.9253 0.5629   0.071819
 H 0.0016 0.6965 0.5338   0.426349
 H 0.0377 0.8111 0.5241   0.411891
 H 0.8177 0.8373 0.0162   0.10679
 H 0.9368 0.7167 0.8388   0.058875
 H 0.0381 0.8182 0.8423   0.059221
 H 0.8479 0.6085 0.9234   0.127278
 H 0.1397 0.6705 0.013   0.104766
 H 0.1532 0.9142 0.9141   0.126749
 H 0.3874 0.916 0.0506   0.074956
 H 0.4337 0.028 0.1765   0.124825
 H 0.3513 0.144 0.1935   0.033338
 H 0.4106 0.1355 0.1142   0.057984
 H 0.4841 0.4424 0.1321   0.137391
 H 0.2865 0.4671 0.2929   0.076939
 H 0.2569 0.2075 0.236   0.100743
 H 0.6557 0.2569 0.2894   0.105746
 H 0.6703 0.0074 0.2951   0.074504
 H 0.6038 0.5747 0.0629   0.071819
 H 0.4984 0.8035 0.0338   0.426349
 H 0.4623 0.6889 0.0241   0.411891
 C 0.2918 0.2694 0.4901   0.053024
 C 0.3466 0.2332 0.5379   0.190876
 C 0.4875 0.265 0.6247   0.299593
 C 0.3101 0.1345 0.5461   -0.126595
 C 0.2182 0.0745 0.5095   -0.153529
 C 0.1745 0.9665 0.5177   0.668287
 C 0.6766 0.2382 0.4953   0.054575
 C 0.6327 0.2823 0.5447   0.195776
 C 0.6837 0.3811 0.5554   -0.118967
 C 0.7807 0.4305 0.5204   -0.15721
 C 0.8408 0.5382 0.533   0.658198
 C 0.8208 0.3814 0.4729   0.1559
 C 0.0014 0.3943 0.2872   0.690817
 C 0.0438 0.5003 0.2646   -0.143353
 C 0.9957 0.556 0.2927   -0.128979
 C 0.0411 0.6539 0.2743   0.198984
 C 0.9101 0.6798 0.3431   0.309533
 C 0.8735 0.8146 0.3242   0.173782
 C 0.9263 0.9141 0.3328   -0.069163
 C 0.8919 0.971 0.2885   -0.164727
 C 0.8098 0.9276 0.2368   0.161159
 C 0.7919 0.7756 0.2702   0.027617
 C 0.9429 0.0798 0.2974   0.68086
 C 0.1283 0.6911 0.2263   0.048843
 C 0.1353 0.5446 0.221   0.152941
 C 0.167 0.1159 0.4627   0.160832
 C 0.2082 0.2306 0.9901   0.053024
 C 0.1534 0.2668 0.0379   0.190876
 C 0.0125 0.235 0.1247   0.299593
 C 0.1899 0.3655 0.0461   -0.126595
 C 0.2818 0.4255 0.0095   -0.153529
 C 0.3255 0.5335 0.0177   0.668287
 C 0.8234 0.2618 0.9953   0.054575
 C 0.8673 0.2177 0.0447   0.195777
 C 0.8163 0.1189 0.0554   -0.118967
 C 0.7193 0.0695 0.0204   -0.15721
 C 0.6592 0.9618 0.033   0.658198
 C 0.6792 0.1186 0.9729   0.1559
 C 0.4986 0.1057 0.7872   0.690817
 C 0.4562 0.9997 0.7646   -0.143353
 C 0.5043 0.944 0.7927   -0.128979
 C 0.4589 0.8461 0.7743   0.198984
 C 0.5899 0.8202 0.8431   0.309533
 C 0.6265 0.6854 0.8242   0.173782
 C 0.5737 0.5859 0.8328   -0.069163
 C 0.6081 0.529 0.7885   -0.164727
 C 0.6902 0.5724 0.7368   0.161159
 C 0.7081 0.7244 0.7702   0.027617
 C 0.5571 0.4202 0.7974   0.68086
 C 0.3717 0.8089 0.7263   0.048843
 C 0.3647 0.9554 0.721   0.152941
 C 0.333 0.3841 0.9627   0.160832
 C 0.7082 0.7306 0.5099   0.053024
 C 0.6534 0.7668 0.4621   0.190876
 C 0.5125 0.735 0.3753   0.299593
 C 0.6899 0.8655 0.4539   -0.126596
 C 0.7818 0.9255 0.4905   -0.153529
 C 0.8255 0.0335 0.4823   0.668287
 C 0.3234 0.7618 0.5047   0.054576
 C 0.3673 0.7177 0.4553   0.195777
 C 0.3163 0.6189 0.4446   -0.118967
 C 0.2193 0.5695 0.4796   -0.157209
 C 0.1592 0.4618 0.467   0.658197
 C 0.1792 0.6186 0.5271   0.155901
 C 0.9986 0.6057 0.7128   0.690817
 C 0.9562 0.4997 0.7354   -0.143353
 C 0.0043 0.444 0.7073   -0.128979
 C 0.9589 0.3461 0.7257   0.198985
 C 0.0899 0.3202 0.6569   0.309533
 C 0.1265 0.1854 0.6758   0.173782
 C 0.0737 0.0859 0.6672   -0.069163
 C 0.1081 0.029 0.7115   -0.164728
 C 0.1902 0.0724 0.7632   0.161159
 C 0.2081 0.2244 0.7298   0.027618
 C 0.0571 0.9202 0.7026   0.68086
 C 0.8717 0.3089 0.7737   0.048844
 C 0.8647 0.4554 0.779   0.152941
 C 0.833 0.8841 0.5373   0.160832
 C 0.7918 0.7694 0.0099   0.053024
 C 0.8466 0.7332 0.9621   0.190876
 C 0.9875 0.765 0.8753   0.299593
 C 0.8101 0.6345 0.9539   -0.126596
 C 0.7182 0.5745 0.9905   -0.153529
 C 0.6745 0.4665 0.9823   0.668287
 C 0.1766 0.7382 0.0047   0.054576
 C 0.1327 0.7823 0.9553   0.195777
 C 0.1837 0.8811 0.9446   -0.118967
 C 0.2807 0.9305 0.9796   -0.157209
 C 0.3408 0.0382 0.967   0.658197
 C 0.3208 0.8814 0.0271   0.155901
 C 0.5014 0.8943 0.2128   0.690817
 C 0.5438 0.000300000000003 0.2354   -0.143353
 C 0.4957 0.056 0.2073   -0.128979
 C 0.5411 0.1539 0.2257   0.198985
 C 0.4101 0.1798 0.1569   0.309533
 C 0.3735 0.3146 0.1758   0.173782
 C 0.4263 0.4141 0.1672   -0.069163
 C 0.3919 0.471 0.2115   -0.164728
 C 0.3098 0.4276 0.2632   0.161159
 C 0.2919 0.2756 0.2298   0.027618
 C 0.4429 0.5798 0.2026   0.68086
 C 0.6283 0.1911 0.2737   0.048844
 C 0.6353 0.0446 0.279   0.152941
 C 0.667 0.6159 0.0373   0.160832
 N 0.768 0.2856 0.4588   -0.335801
 N 0.761 0.8315 0.2266   -0.316928
 N 0.204 0.2113 0.4528   -0.337114
 N 0.1757 0.6382 0.201   -0.32279
 N 0.732 0.2144 0.9588   -0.335801
 N 0.739 0.6685 0.7266   -0.316928
 N 0.296 0.2887 0.9528   -0.337114
 N 0.3243 0.8618 0.701   -0.32279
 N 0.232 0.7144 0.5412   -0.335801
 N 0.239 0.1685 0.7734   -0.316928
 N 0.796 0.7887 0.5472   -0.337114
 N 0.8243 0.3618 0.799   -0.32279
 N 0.268 0.7856 0.0412   -0.335801
 N 0.261 0.3315 0.2734   -0.316928
 N 0.704 0.7113 0.0472   -0.337114
 N 0.6757 0.1382 0.299   -0.32279
 O 0.7961 0.579 0.5715   -0.611513
 O 0.435 0.3016 0.574   -0.305969
 O 0.2278 0.9347 0.5575   -0.622038
 O 0.5403 0.2216 0.5807   -0.292524
 O 0.9319 0.5773 0.5049   -0.586706
 O 0.8865 0.1216 0.2821   -0.616639
 O 0.9077 0.3539 0.31   -0.604513
 O 0.0062 0.7188 0.3006   -0.298727
 O 0.9019 0.7592 0.3754   -0.259092
 O 0.0636 0.3575 0.2809   -0.622849
 O 0.0885 0.9171 0.4856   -0.579563
 O 0.0371 0.1193 0.3179   -0.597689
 O 0.9819 0.2473 0.4454   -0.826191
 O 0.7039 0.921 0.0715   -0.611513
 O 0.065 0.1984 0.074   -0.305969
 O 0.2722 0.5653 0.0575   -0.622038
 O 0.9597 0.2784 0.0807   -0.292524
 O 0.5681 0.9227 0.0049   -0.586706
 O 0.6135 0.3784 0.7821   -0.616639
 O 0.5923 0.1461 0.81   -0.604513
 O 0.4938 0.7812 0.8006   -0.298727
 O 0.5981 0.7408 0.8754   -0.259092
 O 0.4364 0.1425 0.7809   -0.622849
 O 0.4115 0.5829 0.9856   -0.579563
 O 0.4629 0.3807 0.8179   -0.597689
 O 0.5181 0.2527 0.9454   -0.826191
 O 0.2039 0.421 0.4285   -0.611513
 O 0.565 0.6984 0.426   -0.305969
 O 0.7722 0.0653 0.4425   -0.622038
 O 0.4597 0.7784 0.4193   -0.292524
 O 0.0681 0.4227 0.4951   -0.586706
 O 0.1135 0.8784 0.7179   -0.616639
 O 0.0923 0.6461 0.69   -0.604513
 O 0.9938 0.2812 0.6994   -0.298727
 O 0.0981 0.2408 0.6246   -0.259092
 O 0.9364 0.6425 0.7191   -0.622849
 O 0.9115 0.0829 0.5144   -0.579563
 O 0.9629 0.8807 0.6821   -0.597689
 O 0.0181 0.7527 0.5546   -0.826191
 O 0.2961 0.079 0.9285   -0.611513
 O 0.935 0.8016 0.926   -0.305969
 O 0.7278 0.4347 0.9425   -0.622038
 O 0.0403 0.7216 0.9193   -0.292524
 O 0.4319 0.0773 0.9951   -0.586706
 O 0.3865 0.6216 0.2179   -0.616639
 O 0.4077 0.8539 0.19   -0.604513
 O 0.5062 0.2188 0.1994   -0.298727
 O 0.4019 0.2592 0.1246   -0.259092
 O 0.5636 0.8575 0.2191   -0.622849
 O 0.5885 0.4171 0.0144   -0.579563
 O 0.5371 0.6193 0.1821   -0.597689
 O 0.4819 0.7473 0.0546   -0.826191
