{'_ref': 'TBD', '_srcid': 'CAKYAQ_clean', 'submitters': [{'name': 'Dalar Nazarian Jeff Camp and David Sholl', 'email': 'dalar@gatech.edu jcamp6@gatech.edu'}], '_method': 'VASP DFT with PBE;DDEC'}
data_CdH28C26(N3O2)2
_symmetry_space_group_name_H-M   'P 1'
_cell_length_a   5.21330000
_cell_length_b   18.41400000
_cell_length_c   28.51700000
_cell_angle_alpha   90.00000000
_cell_angle_beta   90.00000000
_cell_angle_gamma   90.00000000
_symmetry_Int_Tables_number   1
_chemical_formula_structural   CdH28C26(N3O2)2
_chemical_formula_sum   'Cd4 H112 C104 N24 O16'
_cell_volume   2737.56658771
_cell_formula_units_Z   4
loop_
 _symmetry_equiv_pos_site_id
 _symmetry_equiv_pos_as_xyz
  1  'x, y, z'
loop_
 _atom_site_label
 _atom_site_fract_x
 _atom_site_fract_y
 _atom_site_fract_z
 _atom_site_charge
 Cd 0.10212 0.67025 0.65991   1.045858
 Cd 0.60212 0.32975 0.34009   1.045858
 Cd 0.10212 0.17025 0.84009   1.045858
 Cd 0.60212 0.82975 0.15991   1.045858
 H 0.3069 0.3291 0.8181   0.123526
 H 0.5635 0.3715 0.8269   0.117697
 H 0.1554 0.3097 0.7365   0.102731
 H 0.1453 0.3527 0.6607   0.101973
 H 0.7884 0.4635 0.6829   0.108105
 H 0.807 0.4198 0.7584   0.093203
 H 0.615 0.457 0.6037   0.151825
 H 0.3769 0.407 0.5944   0.112839
 H 0.3445 0.5429 0.7319   0.064764
 H 0.7155 0.6429 0.7566   0.101309
 H 0.5754 0.5685 0.8336   0.08595
 H 0.7618 0.5048 0.8468   0.105165
 H 0.4557 0.7365 0.8735   0.11846
 H 0.6461 0.7328 0.831   0.129132
 H 0.4648 0.667 0.8418   0.112163
 H 0.6924 0.8065 0.9028   0.130769
 H 0.6477 0.7902 0.9561   0.111085
 H 0.9134 0.82 0.939   0.126576
 H 0.9783 0.462 0.9003   0.111941
 H 0.2245 0.4905 0.8747   0.114016
 H 0.2283 0.4782 0.9291   0.112245
 H 0.4837 0.5898 0.9738   0.113942
 H 0.2752 0.5923 0.0134   0.106661
 H 0.2967 0.524 0.9808   0.125115
 H 0.1835 0.7753 0.9838   0.11013
 H 0.3046 0.7051 0.0057   0.09256
 H 0.9684 0.8318 0.0555   0.131173
 H 0.5894 0.6665 0.1013   0.078978
 H 0.8069 0.6709 0.1819   0.123526
 H 0.0635 0.6285 0.1731   0.117698
 H 0.6554 0.6903 0.2635   0.102731
 H 0.6453 0.6473 0.3393   0.101973
 H 0.2884 0.5365 0.3171   0.108105
 H 0.307 0.5802 0.2416   0.093203
 H 0.115 0.543 0.3963   0.151825
 H 0.8769 0.593 0.4056   0.112839
 H 0.8445 0.4571 0.2681   0.064764
 H 0.2155 0.3571 0.2434   0.101309
 H 0.0754 0.4315 0.1664   0.08595
 H 0.2618 0.4952 0.1532   0.105165
 H 0.9557 0.2635 0.1265   0.11846
 H 0.1461 0.2672 0.169   0.129132
 H 0.9648 0.333 0.1582   0.112163
 H 0.1924 0.1935 0.0972   0.130769
 H 0.1477 0.2098 0.0439   0.111085
 H 0.4134 0.18 0.061   0.126576
 H 0.4783 0.538 0.0997   0.111943
 H 0.7245 0.5095 0.1253   0.114017
 H 0.7283 0.5218 0.0709   0.112245
 H 0.9837 0.4102 0.0262   0.113941
 H 0.7752 0.4077 0.9866   0.106662
 H 0.7967 0.476 0.0192   0.125114
 H 0.6835 0.2247 0.0162   0.11013
 H 0.8046 0.2949 0.9943   0.09256
 H 0.4684 0.1682 0.9445   0.131173
 H 0.0894 0.3335 0.8987   0.07898
 H 0.3069 0.8291 0.6819   0.123526
 H 0.5635 0.8715 0.6731   0.117697
 H 0.1554 0.8097 0.7635   0.102733
 H 0.1453 0.8527 0.8393   0.101977
 H 0.7884 0.9635 0.8171   0.108105
 H 0.807 0.9198 0.7416   0.093203
 H 0.615 0.957 0.8963   0.151822
 H 0.3769 0.907 0.9056   0.112836
 H 0.3445 0.0429 0.7681   0.064764
 H 0.7155 0.1429 0.7434   0.101309
 H 0.5754 0.0685 0.6664   0.08595
 H 0.7618 0.0048 0.6532   0.105165
 H 0.4557 0.2365 0.6265   0.118461
 H 0.6461 0.2328 0.669   0.129135
 H 0.4648 0.167 0.6582   0.112164
 H 0.6924 0.3065 0.5972   0.13077
 H 0.6477 0.2902 0.5439   0.111082
 H 0.9134 0.32 0.561   0.126576
 H 0.9783 0.962 0.5997   0.111941
 H 0.2245 0.9905 0.6253   0.114016
 H 0.2283 0.9782 0.5709   0.112245
 H 0.4837 0.0898 0.5262   0.113942
 H 0.2752 0.0923 0.4866   0.106661
 H 0.2967 0.024 0.5192   0.125115
 H 0.1835 0.2753 0.5162   0.110129
 H 0.3046 0.2051 0.4943   0.09256
 H 0.9684 0.3318 0.4445   0.131172
 H 0.5894 0.1665 0.3987   0.078978
 H 0.8069 0.1709 0.3181   0.123526
 H 0.0635 0.1285 0.3269   0.117698
 H 0.6554 0.1903 0.2365   0.102733
 H 0.6453 0.1473 0.1607   0.101977
 H 0.2884 0.0365 0.1829   0.108105
 H 0.307 0.0802 0.2584   0.093203
 H 0.115 0.043 0.1037   0.151822
 H 0.8769 0.093 0.0944   0.112836
 H 0.8445 0.9571 0.2319   0.064764
 H 0.2155 0.8571 0.2566   0.101309
 H 0.0754 0.9315 0.3336   0.08595
 H 0.2618 0.9952 0.3468   0.105165
 H 0.9557 0.7635 0.3735   0.118461
 H 0.1461 0.7672 0.331   0.129135
 H 0.9648 0.833 0.3418   0.112164
 H 0.1924 0.6935 0.4028   0.13077
 H 0.1477 0.7098 0.4561   0.111082
 H 0.4134 0.68 0.439   0.126577
 H 0.4783 0.038 0.4003   0.111943
 H 0.7245 0.0095 0.3747   0.114017
 H 0.7283 0.0218 0.4291   0.112245
 H 0.9837 0.9102 0.4738   0.113941
 H 0.7752 0.9077 0.5134   0.106662
 H 0.7967 0.976 0.4808   0.125114
 H 0.6835 0.7247 0.4838   0.110129
 H 0.8046 0.7949 0.5057   0.09256
 H 0.4684 0.6682 0.5555   0.131172
 H 0.0894 0.8335 0.6013   0.07898
 C 0.6248 0.2637 0.8119   0.724841
 C 0.4819 0.3353 0.8072   -0.368953
 C 0.4789 0.3621 0.7562   0.094531
 C 0.2829 0.3411 0.726   -0.136207
 C 0.2776 0.3669 0.6806   -0.141035
 C 0.4673 0.4141 0.6637   0.110892
 C 0.6597 0.4326 0.6935   -0.131565
 C 0.6705 0.4069 0.7392   -0.150739
 C 0.4451 0.4443 0.6149   -0.371044
 C 0.2729 0.5114 0.6122   0.757081
 C 0.1951 0.5579 0.7469   0.307754
 C 0.8572 0.6125 0.7593   0.168358
 C 0.7537 0.5561 0.839   -0.036046
 C 0.8556 0.6005 0.8801   -0.102982
 C 0.7702 0.6725 0.8873   0.039723
 C 0.565 0.7052 0.8554   -0.357649
 C 0.8643 0.7129 0.9239   0.03676
 C 0.771 0.7893 0.9311   -0.338912
 C 0.0427 0.6821 0.9542   -0.09121
 C 0.1243 0.6101 0.9481   0.041386
 C 0.0375 0.57 0.9105   0.041452
 C 0.125 0.4933 0.903   -0.331111
 C 0.312 0.5759 0.9821   -0.343113
 C 0.1458 0.7266 0.9947   -0.059069
 C 0.9035 0.7852 0.0599   0.163504
 C 0.7011 0.6955 0.0841   0.278977
 C 0.1248 0.7363 0.1881   0.724841
 C 0.9819 0.6647 0.1928   -0.368953
 C 0.9789 0.6379 0.2438   0.094531
 C 0.7829 0.6589 0.274   -0.136207
 C 0.7776 0.6331 0.3194   -0.141035
 C 0.9673 0.5859 0.3363   0.110892
 C 0.1597 0.5674 0.3065   -0.131565
 C 0.1705 0.5931 0.2608   -0.150739
 C 0.9451 0.5557 0.3851   -0.371044
 C 0.7729 0.4886 0.3878   0.757081
 C 0.6951 0.4421 0.2531   0.307754
 C 0.3572 0.3875 0.2407   0.168358
 C 0.2537 0.4439 0.161   -0.036046
 C 0.3556 0.3995 0.1199   -0.102982
 C 0.2702 0.3275 0.1127   0.039723
 C 0.065 0.2948 0.1446   -0.357649
 C 0.3643 0.2871 0.0761   0.03676
 C 0.271 0.2107 0.0689   -0.338912
 C 0.5427 0.3179 0.0458   -0.09121
 C 0.6243 0.3899 0.0519   0.041386
 C 0.5375 0.43 0.0895   0.041452
 C 0.625 0.5067 0.097   -0.331112
 C 0.812 0.4241 0.0179   -0.343113
 C 0.6458 0.2734 0.0053   -0.059069
 C 0.4035 0.2148 0.9401   0.163504
 C 0.2011 0.3045 0.9159   0.278976
 C 0.6248 0.7637 0.6881   0.724841
 C 0.4819 0.8353 0.6928   -0.368953
 C 0.4789 0.8621 0.7438   0.094531
 C 0.2829 0.8411 0.774   -0.136206
 C 0.2776 0.8669 0.8194   -0.141036
 C 0.4673 0.9141 0.8363   0.110892
 C 0.6597 0.9326 0.8065   -0.131565
 C 0.6705 0.9069 0.7608   -0.150739
 C 0.4451 0.9443 0.8851   -0.371042
 C 0.2729 0.0114 0.8878   0.75708
 C 0.1951 0.0579 0.7531   0.307754
 C 0.8572 0.1125 0.7407   0.168358
 C 0.7537 0.0561 0.661   -0.036046
 C 0.8556 0.1005 0.6199   -0.102982
 C 0.7702 0.1725 0.6127   0.039724
 C 0.565 0.2052 0.6446   -0.35765
 C 0.8643 0.2129 0.5761   0.03676
 C 0.771 0.2893 0.5689   -0.338912
 C 0.0427 0.1821 0.5458   -0.09121
 C 0.1243 0.1101 0.5519   0.041386
 C 0.0375 0.07 0.5895   0.041452
 C 0.125 0.9933 0.597   -0.331111
 C 0.312 0.0759 0.5179   -0.343113
 C 0.1458 0.2266 0.5053   -0.059069
 C 0.9035 0.2852 0.4401   0.163504
 C 0.7011 0.1955 0.4159   0.278977
 C 0.1248 0.2363 0.3119   0.724841
 C 0.9819 0.1647 0.3072   -0.368953
 C 0.9789 0.1379 0.2562   0.094531
 C 0.7829 0.1589 0.226   -0.136206
 C 0.7776 0.1331 0.1806   -0.141036
 C 0.9673 0.0859 0.1637   0.110892
 C 0.1597 0.0674 0.1935   -0.131565
 C 0.1705 0.0931 0.2392   -0.150739
 C 0.9451 0.0557 0.1149   -0.371042
 C 0.7729 0.9886 0.1122   0.75708
 C 0.6951 0.9421 0.2469   0.307754
 C 0.3572 0.8875 0.2593   0.168358
 C 0.2537 0.9439 0.339   -0.036046
 C 0.3556 0.8995 0.3801   -0.102982
 C 0.2702 0.8275 0.3873   0.039724
 C 0.065 0.7948 0.3554   -0.35765
 C 0.3643 0.7871 0.4239   0.03676
 C 0.271 0.7107 0.4311   -0.338912
 C 0.5427 0.8179 0.4542   -0.09121
 C 0.6243 0.8899 0.4481   0.041386
 C 0.5375 0.93 0.4105   0.041452
 C 0.625 0.0067 0.403   -0.331112
 C 0.812 0.9241 0.4821   -0.343113
 C 0.6458 0.7734 0.4947   -0.059069
 C 0.4035 0.7148 0.5599   0.163505
 C 0.2011 0.8045 0.5841   0.278976
 N 0.7403 0.7671 0.09378   -0.457583
 N 0.9607 0.7302 0.0338   0.174603
 N 0.8327 0.6711 0.0489   -0.379718
 N 0.9029 0.5695 0.7959   0.139818
 N 0.1282 0.5327 0.78794   -0.374714
 N 0.0366 0.6066 0.72749   -0.418382
 N 0.2403 0.2329 0.90622   -0.457582
 N 0.4607 0.2698 0.9662   0.174603
 N 0.3327 0.3289 0.9511   -0.379718
 N 0.4029 0.4305 0.2041   0.139818
 N 0.6282 0.4673 0.21206   -0.374714
 N 0.5366 0.3934 0.27251   -0.418382
 N 0.7403 0.2671 0.40622   -0.457583
 N 0.9607 0.2302 0.4662   0.174603
 N 0.8327 0.1711 0.4511   -0.379718
 N 0.9029 0.0695 0.7041   0.139818
 N 0.1282 0.0327 0.71206   -0.374714
 N 0.0366 0.1066 0.77251   -0.418382
 N 0.2403 0.7329 0.59378   -0.457583
 N 0.4607 0.7698 0.5338   0.174603
 N 0.3327 0.8289 0.5489   -0.379718
 N 0.4029 0.9305 0.2959   0.139818
 N 0.6282 0.9673 0.28794   -0.374714
 N 0.5366 0.8934 0.22749   -0.418382
 O 0.0838 0.5082 0.5862   -0.676496
 O 0.3284 0.5643 0.63747   -0.687615
 O 0.8609 0.2676 0.819   -0.61751
 O 0.5005 0.205 0.8082   -0.647918
 O 0.5838 0.4918 0.4138   -0.676499
 O 0.8284 0.4357 0.36253   -0.687615
 O 0.3609 0.7324 0.181   -0.61751
 O 0.000500000000002 0.795 0.1918   -0.647918
 O 0.0838 0.0082 0.9138   -0.676496
 O 0.3284 0.0643 0.86253   -0.687615
 O 0.8609 0.7676 0.681   -0.61751
 O 0.5005 0.705 0.6918   -0.647918
 O 0.5838 0.9918 0.0862   -0.676498
 O 0.8284 0.9357 0.13747   -0.687615
 O 0.3609 0.2324 0.319   -0.61751
 O 0.000500000000002 0.295 0.3082   -0.647918
