{'_ref': 'TBD', '_srcid': 'CAKYAQ_clean', 'submitters': [{'name': 'Dalar Nazarian Jeff Camp and David Sholl', 'email': 'dalar@gatech.edu jcamp6@gatech.edu'}], '_method': 'VASP DFT with PBE;DDEC'}
data_Zn3H10(C8O5)2
_symmetry_space_group_name_H-M   'P 1'
_cell_length_a   15.26050000
_cell_length_b   17.73740014
_cell_length_c   18.26350000
_cell_angle_alpha   113.07100123
_cell_angle_beta   90.00000000
_cell_angle_gamma   90.00000000
_symmetry_Int_Tables_number   1
_chemical_formula_structural   Zn3H10(C8O5)2
_chemical_formula_sum   'Zn18 H60 C96 O60'
_cell_volume   4548.2044702
_cell_formula_units_Z   6
loop_
 _symmetry_equiv_pos_site_id
 _symmetry_equiv_pos_as_xyz
  1  'x, y, z'
loop_
 _atom_site_label
 _atom_site_fract_x
 _atom_site_fract_y
 _atom_site_fract_z
 _atom_site_charge
 Zn 0.4954 0.50025 0.83424   1.186579
 Zn 0.09639 0.00199 0.16618   1.087001
 Zn 0.59603 0.49773 0.99521   1.102711
 Zn 0.90684 0.99805 0.16714   1.093405
 Zn 0.9954 0.99975 0.66576   1.186579
 Zn 0.59639 0.49801 0.33382   1.087001
 Zn 0.09603 0.00227 0.50479   1.10271
 Zn 0.40684 0.50195 0.33286   1.093405
 Zn 0.5046 0.49975 0.16576   1.186579
 Zn 0.90361 0.99801 0.83382   1.087001
 Zn 0.40397 0.50227 0.00479   1.10271
 Zn 0.09316 0.00195 0.83286   1.093405
 Zn 0.0046 0.000250000000001 0.33424   1.186579
 Zn 0.40361 0.50199 0.66618   1.087001
 Zn 0.90397 0.99773 0.49521   1.10271
 Zn 0.59316 0.49805 0.66714   1.093405
 Zn 0.0 0.0 0.0   1.189843
 Zn 0.5 0.5 0.5   1.189843
 H 0.4951 0.3928 0.6881   0.453686
 H 0.4999 0.6076 0.9799   0.45592
 H 0.9972 0.107 0.1454   0.456958
 H 0.8244 0.1677 0.798   0.093692
 H 0.7482 0.2809 0.8803   0.101339
 H 0.6062 0.2781 0.6943   0.098002
 H 0.6879 0.1679 0.6106   0.108914
 H 0.1195 0.7825 0.8706   0.098959
 H 0.2063 0.6766 0.7871   0.112973
 H 0.3817 0.7201 0.9631   0.100659
 H 0.2948 0.8267 0.0467   0.10801
 H 0.6772 0.6665 0.9736   0.096092
 H 0.7468 0.7859 0.0547   0.099791
 H 0.8233 0.8262 0.8631   0.093792
 H 0.7525 0.7083 0.7819   0.098695
 H 0.9951 0.1072 0.8119   0.453685
 H 0.9999 0.8924 0.5201   0.45592
 H 0.4972 0.393 0.3546   0.456958
 H 0.3244 0.3323 0.702   0.093692
 H 0.2482 0.2191 0.6197   0.101339
 H 0.1062 0.2219 0.8057   0.098002
 H 0.1879 0.3321 0.8894   0.108914
 H 0.6195 0.7175 0.6294   0.098959
 H 0.7063 0.8234 0.7129   0.112973
 H 0.8817 0.7799 0.5369   0.100659
 H 0.7948 0.6733 0.4533   0.10801
 H 0.1772 0.8335 0.5264   0.096092
 H 0.2468 0.7141 0.4453   0.099791
 H 0.3233 0.6738 0.6369   0.093792
 H 0.2525 0.7917 0.7181   0.098695
 H 0.5049 0.6072 0.3119   0.453686
 H 0.5001 0.3924 0.0201   0.45592
 H 0.0028 0.893 0.8546   0.456958
 H 0.1756 0.8323 0.202   0.093692
 H 0.2518 0.7191 0.1197   0.101339
 H 0.3938 0.7219 0.3057   0.098002
 H 0.3121 0.8321 0.3894   0.108914
 H 0.8805 0.2175 0.1294   0.098959
 H 0.7937 0.3234 0.2129   0.112973
 H 0.6183 0.2799 0.0369   0.100659
 H 0.7052 0.1733 0.9533   0.10801
 H 0.3228 0.3335 0.0264   0.096092
 H 0.2532 0.2141 0.9453   0.099791
 H 0.1767 0.1738 0.1369   0.093792
 H 0.2475 0.2917 0.2181   0.098695
 H 0.0049 0.8928 0.1881   0.453685
 H 0.000100000000003 0.1076 0.4799   0.45592
 H 0.5028 0.607 0.6454   0.456958
 H 0.6756 0.6677 0.298   0.093692
 H 0.7518 0.7809 0.3803   0.101339
 H 0.8938 0.7781 0.1943   0.098002
 H 0.8121 0.6679 0.1106   0.108914
 H 0.3805 0.2825 0.3706   0.098959
 H 0.2937 0.1766 0.2871   0.112973
 H 0.1183 0.2201 0.4631   0.100659
 H 0.2052 0.3267 0.5467   0.10801
 H 0.8228 0.1665 0.4736   0.096092
 H 0.7532 0.2859 0.5547   0.099791
 H 0.6767 0.3262 0.3631   0.093792
 H 0.7475 0.2083 0.2819   0.098695
 C 0.8249 0.0905 0.6422   0.712692
 C 0.7663 0.1576 0.6952   -0.123259
 C 0.7821 0.191 0.7767   -0.046536
 C 0.7359 0.2583 0.8261   -0.056298
 C 0.6708 0.2929 0.7956   -0.125946
 C 0.6239 0.3688 0.8489   0.707032
 C 0.6515 0.2573 0.7149   -0.050724
 C 0.7 0.1906 0.6649   -0.057482
 C 0.1417 0.8834 0.0212   0.702207
 C 0.1985 0.8157 0.9673   -0.131249
 C 0.1722 0.7703 0.8891   -0.048525
 C 0.2242 0.7071 0.8391   -0.05559
 C 0.3034 0.6893 0.8666   -0.123768
 C 0.36 0.6214 0.8119   0.69812
 C 0.3295 0.7331 0.9444   -0.054391
 C 0.2771 0.7967 0.9946   -0.051542
 C 0.6592 0.5996 0.8165   0.714785
 C 0.7071 0.6758 0.8695   -0.127733
 C 0.7059 0.6987 0.9514   -0.054958
 C 0.7481 0.7701 0.9998   -0.050674
 C 0.7922 0.8185 0.9678   -0.132258
 C 0.8411 0.8937 0.0198   0.716707
 C 0.7937 0.7945 0.8854   -0.052344
 C 0.7514 0.7239 0.8368   -0.054485
 C 0.3249 0.4095 0.8578   0.712692
 C 0.2663 0.3424 0.8048   -0.123259
 C 0.2821 0.309 0.7233   -0.046536
 C 0.2359 0.2417 0.6739   -0.056299
 C 0.1708 0.2071 0.7044   -0.125945
 C 0.1239 0.1312 0.6511   0.707032
 C 0.1515 0.2427 0.7851   -0.050724
 C 0.2 0.3094 0.8351   -0.057482
 C 0.6417 0.6166 0.4788   0.702207
 C 0.6985 0.6843 0.5327   -0.131249
 C 0.6722 0.7297 0.6109   -0.048525
 C 0.7242 0.7929 0.6609   -0.05559
 C 0.8034 0.8107 0.6334   -0.123768
 C 0.86 0.8786 0.6881   0.69812
 C 0.8295 0.7669 0.5556   -0.054391
 C 0.7771 0.7033 0.5054   -0.051542
 C 0.1592 0.9004 0.6835   0.714785
 C 0.2071 0.8242 0.6305   -0.127733
 C 0.2059 0.8013 0.5486   -0.054958
 C 0.2481 0.7299 0.5002   -0.050674
 C 0.2922 0.6815 0.5322   -0.132258
 C 0.3411 0.6063 0.4802   0.716707
 C 0.2937 0.7055 0.6146   -0.052344
 C 0.2514 0.7761 0.6632   -0.054485
 C 0.1751 0.9095 0.3578   0.712692
 C 0.2337 0.8424 0.3048   -0.123259
 C 0.2179 0.809 0.2233   -0.046536
 C 0.2641 0.7417 0.1739   -0.056298
 C 0.3292 0.7071 0.2044   -0.125946
 C 0.3761 0.6312 0.1511   0.707032
 C 0.3485 0.7427 0.2851   -0.050724
 C 0.3 0.8094 0.3351   -0.057482
 C 0.8583 0.1166 0.9788   0.702207
 C 0.8015 0.1843 0.0327   -0.131249
 C 0.8278 0.2297 0.1109   -0.048525
 C 0.7758 0.2929 0.1609   -0.05559
 C 0.6966 0.3107 0.1334   -0.123768
 C 0.64 0.3786 0.1881   0.69812
 C 0.6705 0.2669 0.0556   -0.054391
 C 0.7229 0.2033 0.0054   -0.051542
 C 0.3408 0.4004 0.1835   0.714785
 C 0.2929 0.3242 0.1305   -0.127733
 C 0.2941 0.3013 0.0486   -0.054958
 C 0.2519 0.2299 0.0002   -0.050674
 C 0.2078 0.1815 0.0322   -0.132258
 C 0.1589 0.1063 0.9802   0.716707
 C 0.2063 0.2055 0.1146   -0.052344
 C 0.2486 0.2761 0.1632   -0.054485
 C 0.6751 0.5905 0.1422   0.712692
 C 0.7337 0.6576 0.1952   -0.123259
 C 0.7179 0.691 0.2767   -0.046536
 C 0.7641 0.7583 0.3261   -0.056299
 C 0.8292 0.7929 0.2956   -0.125945
 C 0.8761 0.8688 0.3489   0.707032
 C 0.8485 0.7573 0.2149   -0.050724
 C 0.8 0.6906 0.1649   -0.057482
 C 0.3583 0.3834 0.5212   0.702207
 C 0.3015 0.3157 0.4673   -0.131249
 C 0.3278 0.2703 0.3891   -0.048525
 C 0.2758 0.2071 0.3391   -0.05559
 C 0.1966 0.1893 0.3666   -0.123768
 C 0.14 0.1214 0.3119   0.69812
 C 0.1705 0.2331 0.4444   -0.054391
 C 0.2229 0.2967 0.4946   -0.051542
 C 0.8408 0.0996 0.3165   0.714785
 C 0.7929 0.1758 0.3695   -0.127733
 C 0.7941 0.1987 0.4514   -0.054958
 C 0.7519 0.2701 0.4998   -0.050674
 C 0.7078 0.3185 0.4678   -0.132258
 C 0.6589 0.3937 0.5198   0.716707
 C 0.7063 0.2945 0.3854   -0.052344
 C 0.7486 0.2239 0.3368   -0.054485
 O 0.49647 0.45287 0.71131   -0.997858
 O 0.49819 0.5476 0.95668   -1.002899
 O 0.9987 0.04698 0.12214   -1.000225
 O 0.33035 0.58335 0.74219   -0.601679
 O 0.17226 0.92327 0.08997   -0.600132
 O 0.82353 0.07582 0.56806   -0.621705
 O 0.55384 0.38823 0.82539   -0.639159
 O 0.43229 0.60832 0.83653   -0.637027
 O 0.8797 0.9347 0.98914   -0.621517
 O 0.65874 0.40842 0.91614   -0.615851
 O 0.06928 0.89581 0.99637   -0.639207
 O 0.87065 0.05308 0.67295   -0.627001
 O 0.6207 0.55743 0.84639   -0.626543
 O 0.8385 0.9094 0.0943   -0.634154
 O 0.66155 0.5851 0.74235   -0.630922
 O 0.99647 0.04713 0.78869   -0.997858
 O 0.99819 0.9524 0.54332   -1.002899
 O 0.4987 0.45302 0.37786   -1.000225
 O 0.83035 0.91665 0.75781   -0.601679
 O 0.67226 0.57673 0.41003   -0.600132
 O 0.32353 0.42418 0.93194   -0.621705
 O 0.05384 0.11177 0.67461   -0.639159
 O 0.93229 0.89168 0.66347   -0.637027
 O 0.3797 0.5653 0.51086   -0.621517
 O 0.15874 0.09158 0.58386   -0.615851
 O 0.56928 0.60419 0.50363   -0.639207
 O 0.37065 0.44692 0.82705   -0.627002
 O 0.1207 0.94257 0.65361   -0.626543
 O 0.3385 0.5906 0.4057   -0.634154
 O 0.16155 0.9149 0.75765   -0.630922
 O 0.50353 0.54713 0.28869   -0.997858
 O 0.50181 0.4524 0.04332   -1.002899
 O 0.0013 0.95302 0.87786   -1.000225
 O 0.66965 0.41665 0.25781   -0.601679
 O 0.82774 0.07673 0.91003   -0.600132
 O 0.17647 0.92418 0.43194   -0.621705
 O 0.44616 0.61177 0.17461   -0.639159
 O 0.56771 0.39168 0.16347   -0.637027
 O 0.1203 0.0653 0.01086   -0.621517
 O 0.34126 0.59158 0.08386   -0.615851
 O 0.93072 0.10419 0.00363   -0.639207
 O 0.12935 0.94692 0.32705   -0.627001
 O 0.3793 0.44257 0.15361   -0.626543
 O 0.1615 0.0906 0.9057   -0.634154
 O 0.33845 0.4149 0.25765   -0.630922
 O 0.00353 0.95287 0.21131   -0.997858
 O 0.00181 0.0476 0.45668   -1.002899
 O 0.5013 0.54698 0.62214   -1.000225
 O 0.16965 0.08335 0.24219   -0.601679
 O 0.32774 0.42327 0.58997   -0.600132
 O 0.67647 0.57582 0.06806   -0.621705
 O 0.94616 0.88823 0.32539   -0.639159
 O 0.06771 0.10832 0.33653   -0.637027
 O 0.6203 0.4347 0.48914   -0.621517
 O 0.84126 0.90842 0.41614   -0.615851
 O 0.43072 0.39581 0.49637   -0.639207
 O 0.62935 0.55308 0.17295   -0.627002
 O 0.8793 0.05743 0.34639   -0.626543
 O 0.6615 0.4094 0.5943   -0.634154
 O 0.83845 0.0851 0.24235   -0.630922
