{'_ref': 'TBD', '_srcid': 'CAKYAQ_clean', 'submitters': [{'name': 'Dalar Nazarian Jeff Camp and David Sholl', 'email': 'dalar@gatech.edu jcamp6@gatech.edu'}], '_method': 'VASP DFT with PBE;DDEC'}
data_MnH4(C2O)4
_symmetry_space_group_name_H-M   'P 1'
_cell_length_a   10.79640035
_cell_length_b   13.49959992
_cell_length_c   14.42740000
_cell_angle_alpha   76.52630126
_cell_angle_beta   68.02749838
_cell_angle_gamma   66.42949990
_symmetry_Int_Tables_number   1
_chemical_formula_structural   MnH4(C2O)4
_chemical_formula_sum   'Mn6 H24 C48 O24'
_cell_volume   1778.70261974
_cell_formula_units_Z   6
loop_
 _symmetry_equiv_pos_site_id
 _symmetry_equiv_pos_as_xyz
  1  'x, y, z'
loop_
 _atom_site_label
 _atom_site_fract_x
 _atom_site_fract_y
 _atom_site_fract_z
 _atom_site_charge
 Mn 0.85968 0.03834 0.1107   1.103284
 Mn 0.50872 0.46166 0.3893   1.103234
 Mn 0.14032 0.96166 0.8893   1.103285
 Mn 0.49128 0.53834 0.6107   1.103234
 Mn 0.78488 0.25 0.25   1.253642
 Mn 0.21512 0.75 0.75   1.253642
 H 0.2013 0.1803 0.8475   0.099669
 H 0.2959 0.3126 0.753   0.107746
 H 0.955 0.541 0.9076   0.108798
 H 0.8671 0.4078 0.0092   0.093844
 H 0.548 0.1602 0.4504   0.09615
 H 0.5786 0.8773 0.3841   0.107638
 H 0.7291 0.3197 0.6525   0.099216
 H 0.8615 0.1874 0.747   0.106271
 H 0.9036 0.959 0.5924   0.108091
 H 0.7841 0.0922 0.4908   0.095378
 H 0.6586 0.3398 0.0496   0.095881
 H 0.34 0.6227 0.1159   0.108164
 H 0.7987 0.8197 0.1525   0.09967
 H 0.7041 0.6874 0.247   0.107747
 H 0.045 0.459 0.0924   0.108798
 H 0.1329 0.5922 0.9908   0.093844
 H 0.452 0.8398 0.5496   0.096149
 H 0.4214 0.1227 0.6159   0.107639
 H 0.2709 0.6803 0.3475   0.099217
 H 0.1385 0.8126 0.253   0.106272
 H 0.0964 0.041 0.4076   0.108091
 H 0.2159 0.9078 0.5092   0.095378
 H 0.3414 0.6602 0.9504   0.09588
 H 0.66 0.3773 0.8841   0.108165
 C 0.96886 0.19495 0.00393   0.733499
 C 0.02569 0.28102 0.9392   -0.156436
 C 0.15318 0.2525 0.86114   -0.04254
 C 0.2086 0.33212 0.80348   -0.058339
 C 0.13494 0.44017 0.82055   -0.119579
 C 0.00605 0.46842 0.89668   -0.059025
 C 0.95241 0.38862 0.95696   -0.032715
 C 0.19972 0.52496 0.7596   0.711648
 C 0.66413 0.04406 0.29548   0.691476
 C 0.57761 0.02173 0.40125   -0.120293
 C 0.52907 0.09568 0.47038   -0.052108
 C 0.5475 0.92648 0.43072   -0.059413
 C 0.66774 0.30505 0.49607   0.733789
 C 0.74591 0.21898 0.5608   -0.156227
 C 0.76682 0.2475 0.63886   -0.041716
 C 0.8442 0.16788 0.69652   -0.056806
 C 0.89566 0.05983 0.67945   -0.12154
 C 0.87115 0.03158 0.60332   -0.055935
 C 0.79799 0.11138 0.54304   -0.035826
 C 0.98428 0.97504 0.7404   0.711292
 C 0.50367 0.45594 0.20452   0.691997
 C 0.50059 0.47827 0.09875   -0.120273
 C 0.59513 0.40432 0.02962   -0.051598
 C 0.4047 0.57352 0.06928   -0.060534
 C 0.03114 0.80505 0.99607   0.733499
 C 0.97431 0.71898 0.0608   -0.156436
 C 0.84682 0.7475 0.13886   -0.04254
 C 0.7914 0.66788 0.19652   -0.058339
 C 0.86506 0.55983 0.17945   -0.119578
 C 0.99395 0.53158 0.10332   -0.059025
 C 0.04759 0.61138 0.04304   -0.032715
 C 0.80028 0.47504 0.2404   0.711648
 C 0.33587 0.95594 0.70452   0.691476
 C 0.42239 0.97827 0.59875   -0.120295
 C 0.47093 0.90432 0.52962   -0.052103
 C 0.4525 0.07352 0.56928   -0.059406
 C 0.33226 0.69495 0.50393   0.733789
 C 0.25409 0.78102 0.4392   -0.156227
 C 0.23318 0.7525 0.36114   -0.041716
 C 0.1558 0.83212 0.30348   -0.056805
 C 0.10434 0.94017 0.32055   -0.121539
 C 0.12885 0.96842 0.39668   -0.055935
 C 0.20201 0.88862 0.45696   -0.035825
 C 0.01572 0.02496 0.2596   0.711291
 C 0.49633 0.54406 0.79548   0.691998
 C 0.49941 0.52173 0.90125   -0.120274
 C 0.40487 0.59568 0.97038   -0.051592
 C 0.5953 0.42648 0.93072   -0.060527
 O 0.01783 0.10129 0.97569   -0.639948
 O 0.87065 0.21591 0.08631   -0.645409
 O 0.13614 0.62085 0.78279   -0.623078
 O 0.31451 0.49133 0.69145   -0.623562
 O 0.68431 0.13331 0.26769   -0.652908
 O 0.71448 0.97247 0.23657   -0.594742
 O 0.59481 0.39871 0.52431   -0.639961
 O 0.67287 0.28409 0.41369   -0.646046
 O 0.03978 0.87915 0.71721   -0.623557
 O 0.99729 0.00867 0.80855   -0.622231
 O 0.58531 0.36669 0.23231   -0.65389
 O 0.42352 0.52753 0.26343   -0.594487
 O 0.98217 0.89871 0.02431   -0.639948
 O 0.12935 0.78409 0.91369   -0.645409
 O 0.86386 0.37915 0.21721   -0.623078
 O 0.68549 0.50867 0.30855   -0.623562
 O 0.31569 0.86669 0.73231   -0.652908
 O 0.28552 0.02753 0.76343   -0.594742
 O 0.40519 0.60129 0.47569   -0.639961
 O 0.32713 0.71591 0.58631   -0.646046
 O 0.96022 0.12085 0.28279   -0.623557
 O 0.00271 0.99133 0.19145   -0.622231
 O 0.41469 0.63331 0.76769   -0.65389
 O 0.57648 0.47247 0.73657   -0.594488
