{'_ref': 'TBD', '_srcid': 'CAKYAQ_clean', 'submitters': [{'name': 'Dalar Nazarian Jeff Camp and David Sholl', 'email': 'dalar@gatech.edu jcamp6@gatech.edu'}], '_method': 'VASP DFT with PBE;DDEC'}
data_MnH4(C2O)4
_symmetry_space_group_name_H-M   'P 1'
_cell_length_a   10.77679948
_cell_length_b   13.50569970
_cell_length_c   14.42480000
_cell_angle_alpha   76.58719814
_cell_angle_beta   68.06520000
_cell_angle_gamma   66.48609967
_symmetry_Int_Tables_number   1
_chemical_formula_structural   MnH4(C2O)4
_chemical_formula_sum   'Mn6 H24 C48 O24'
_cell_volume   1777.29646163
_cell_formula_units_Z   6
loop_
 _symmetry_equiv_pos_site_id
 _symmetry_equiv_pos_as_xyz
  1  'x, y, z'
loop_
 _atom_site_label
 _atom_site_fract_x
 _atom_site_fract_y
 _atom_site_fract_z
 _atom_site_charge
 Mn 0.85899 0.03856 0.11038   1.10188
 Mn 0.50793 0.46144 0.38962   1.102575
 Mn 0.14101 0.96144 0.88962   1.101884
 Mn 0.49207 0.53856 0.61038   1.102579
 Mn 0.78416 0.25 0.25   1.260417
 Mn 0.21584 0.75 0.75   1.260417
 H 0.2015 0.1806 0.8472   0.100325
 H 0.2961 0.3129 0.7529   0.107714
 H 0.955 0.5412 0.9078   0.109083
 H 0.8664 0.408 0.009   0.094115
 H 0.5477 0.1603 0.4501   0.095111
 H 0.5785 0.8771 0.3843   0.108051
 H 0.7293 0.3194 0.6528   0.099713
 H 0.8619 0.1871 0.7471   0.106559
 H 0.904 0.9588 0.5922   0.108495
 H 0.7834 0.092 0.491   0.094903
 H 0.6581 0.3397 0.0499   0.096044
 H 0.3399 0.6229 0.1157   0.108244
 H 0.7985 0.8194 0.1528   0.100325
 H 0.7039 0.6871 0.2471   0.107714
 H 0.045 0.4588 0.0922   0.109083
 H 0.1336 0.592 0.991   0.094115
 H 0.4523 0.8397 0.5499   0.095111
 H 0.4215 0.1229 0.6157   0.108051
 H 0.2707 0.6806 0.3472   0.099712
 H 0.1381 0.8129 0.2529   0.106558
 H 0.096 0.0412 0.4078   0.108495
 H 0.2166 0.908 0.509   0.094903
 H 0.3419 0.6603 0.9501   0.096044
 H 0.6601 0.3771 0.8843   0.108244
 C 0.96883 0.19501 0.00393   0.731762
 C 0.02563 0.28097 0.93917   -0.155964
 C 0.15329 0.25266 0.86096   -0.042878
 C 0.20868 0.3324 0.80344   -0.057789
 C 0.13523 0.44046 0.82048   -0.120521
 C 0.00593 0.46865 0.89669   -0.058797
 C 0.95199 0.38875 0.95687   -0.033933
 C 0.1999 0.52516 0.75984   0.710898
 C 0.66311 0.04406 0.29492   0.692654
 C 0.57722 0.02192 0.40104   -0.121451
 C 0.52899 0.09573 0.47009   -0.049965
 C 0.54748 0.92635 0.43069   -0.060883
 C 0.66777 0.30499 0.49607   0.733465
 C 0.74577 0.21903 0.56083   -0.155432
 C 0.76691 0.24734 0.63904   -0.042663
 C 0.84452 0.1676 0.69656   -0.056125
 C 0.89617 0.05954 0.67952   -0.122245
 C 0.87127 0.03135 0.60331   -0.056212
 C 0.79761 0.11125 0.54313   -0.036364
 C 0.9849 0.97484 0.74016   0.711819
 C 0.50209 0.45594 0.20508   0.691315
 C 0.50018 0.47808 0.09896   -0.119325
 C 0.59481 0.40427 0.02991   -0.052173
 C 0.40452 0.57365 0.06931   -0.061117
 C 0.03117 0.80499 0.99607   0.731762
 C 0.97437 0.71903 0.06083   -0.155964
 C 0.84671 0.74734 0.13904   -0.042879
 C 0.79132 0.6676 0.19656   -0.057792
 C 0.86477 0.55954 0.17952   -0.120521
 C 0.99407 0.53135 0.10331   -0.0588
 C 0.04801 0.61125 0.04313   -0.033933
 C 0.8001 0.47484 0.24016   0.710899
 C 0.33689 0.95594 0.70508   0.692653
 C 0.42278 0.97808 0.59896   -0.121453
 C 0.47101 0.90427 0.52991   -0.049963
 C 0.45252 0.07365 0.56931   -0.060885
 C 0.33223 0.69501 0.50393   0.733466
 C 0.25423 0.78097 0.43917   -0.155432
 C 0.23309 0.75266 0.36096   -0.042664
 C 0.15548 0.8324 0.30344   -0.056129
 C 0.10383 0.94046 0.32048   -0.122244
 C 0.12873 0.96865 0.39669   -0.056215
 C 0.20239 0.88875 0.45687   -0.036363
 C 0.0151 0.02516 0.25984   0.711819
 C 0.49791 0.54406 0.79492   0.691314
 C 0.49982 0.52192 0.90104   -0.119327
 C 0.40519 0.59573 0.97009   -0.05217
 C 0.59548 0.42635 0.93069   -0.061118
 O 0.01785 0.10123 0.97585   -0.638869
 O 0.87004 0.21623 0.08627   -0.64571
 O 0.13646 0.62091 0.78297   -0.621574
 O 0.3153 0.49143 0.69157   -0.624954
 O 0.6833 0.13346 0.26714   -0.655899
 O 0.71295 0.97263 0.23607   -0.592361
 O 0.59493 0.39877 0.52415   -0.639338
 O 0.67254 0.28377 0.41373   -0.647419
 O 0.04034 0.87909 0.71703   -0.622672
 O 0.9983 0.00857 0.80843   -0.624087
 O 0.5839 0.36654 0.23286   -0.655937
 O 0.42165 0.52737 0.26393   -0.59248
 O 0.98215 0.89877 0.02415   -0.638869
 O 0.12996 0.78377 0.91373   -0.64571
 O 0.86354 0.37909 0.21703   -0.621574
 O 0.6847 0.50857 0.30843   -0.624953
 O 0.3167 0.86654 0.73286   -0.655899
 O 0.28705 0.02737 0.76393   -0.592361
 O 0.40507 0.60123 0.47585   -0.639338
 O 0.32746 0.71623 0.58627   -0.64742
 O 0.95966 0.12091 0.28297   -0.622672
 O 0.0017 0.99143 0.19157   -0.624086
 O 0.4161 0.63346 0.76714   -0.655937
 O 0.57835 0.47263 0.73607   -0.592481
