{'_ref': 'TBD', '_srcid': 'CAKYAQ_clean', 'submitters': [{'name': 'Dalar Nazarian Jeff Camp and David Sholl', 'email': 'dalar@gatech.edu jcamp6@gatech.edu'}], '_method': 'VASP DFT with PBE;DDEC'}
data_MnH4(C2O)4
_symmetry_space_group_name_H-M   'P 1'
_cell_length_a   10.72799995
_cell_length_b   13.50009960
_cell_length_c   14.39970000
_cell_angle_alpha   76.70420126
_cell_angle_beta   68.12969816
_cell_angle_gamma   66.58869974
_symmetry_Int_Tables_number   1
_chemical_formula_structural   MnH4(C2O)4
_chemical_formula_sum   'Mn6 H24 C48 O24'
_cell_volume   1767.82530766
_cell_formula_units_Z   6
loop_
 _symmetry_equiv_pos_site_id
 _symmetry_equiv_pos_as_xyz
  1  'x, y, z'
loop_
 _atom_site_label
 _atom_site_fract_x
 _atom_site_fract_y
 _atom_site_fract_z
 _atom_site_charge
 Mn 0.85768 0.03897 0.10975   1.102544
 Mn 0.5064 0.46103 0.39025   1.102222
 Mn 0.14232 0.96103 0.89025   1.102544
 Mn 0.4936 0.53897 0.60975   1.102223
 Mn 0.78271 0.25 0.25   1.254131
 Mn 0.21729 0.75 0.75   1.254131
 H 0.2012 0.1813 0.8469   0.098983
 H 0.297 0.3131 0.7527   0.108209
 H 0.9545 0.5415 0.9081   0.108994
 H 0.8653 0.4085 0.0091   0.094357
 H 0.5465 0.1611 0.4487   0.095808
 H 0.5791 0.8761 0.3847   0.108885
 H 0.7294 0.3187 0.6531   0.098878
 H 0.8628 0.1869 0.7473   0.110321
 H 0.9041 0.9585 0.5919   0.109096
 H 0.7829 0.0915 0.4909   0.093365
 H 0.6563 0.3389 0.0513   0.095772
 H 0.3399 0.6239 0.1153   0.109048
 H 0.7988 0.8187 0.1531   0.098983
 H 0.703 0.6869 0.2473   0.10821
 H 0.0455 0.4585 0.0919   0.108994
 H 0.1347 0.5915 0.9909   0.094357
 H 0.4535 0.8389 0.5513   0.095808
 H 0.4209 0.1239 0.6153   0.108886
 H 0.2706 0.6813 0.3469   0.098878
 H 0.1372 0.8131 0.2527   0.110322
 H 0.0959 0.0415 0.4081   0.109096
 H 0.2171 0.9085 0.5091   0.093365
 H 0.3437 0.6611 0.9487   0.095771
 H 0.6601 0.3761 0.8847   0.109049
 C 0.96833 0.1953 0.00404   0.730867
 C 0.02512 0.28128 0.93908   -0.156312
 C 0.15303 0.25333 0.86081   -0.040788
 C 0.20934 0.33262 0.8031   -0.056854
 C 0.13515 0.44062 0.82048   -0.119674
 C 0.00547 0.46899 0.89687   -0.058763
 C 0.95121 0.38926 0.95692   -0.033823
 C 0.20063 0.52535 0.76019   0.706632
 C 0.6611 0.04429 0.29411   0.693707
 C 0.57621 0.02209 0.40049   -0.121837
 C 0.5281 0.09634 0.46926   -0.049389
 C 0.54765 0.92574 0.43096   -0.062074
 C 0.66767 0.3047 0.49596   0.731773
 C 0.74548 0.21872 0.56092   -0.157527
 C 0.76717 0.24667 0.63919   -0.038477
 C 0.84506 0.16738 0.6969   -0.060909
 C 0.89625 0.05938 0.67952   -0.11982
 C 0.87133 0.03101 0.60313   -0.058012
 C 0.79739 0.11074 0.54308   -0.033598
 C 0.98617 0.97465 0.73981   0.707923
 C 0.4995 0.45571 0.20589   0.690845
 C 0.49879 0.47791 0.09951   -0.119257
 C 0.5937 0.40366 0.03074   -0.050874
 C 0.40435 0.57426 0.06904   -0.06236
 C 0.03167 0.8047 0.99596   0.730867
 C 0.97488 0.71872 0.06092   -0.156312
 C 0.84697 0.74667 0.13919   -0.040789
 C 0.79066 0.66738 0.1969   -0.056854
 C 0.86485 0.55938 0.17952   -0.119674
 C 0.99453 0.53101 0.10313   -0.058763
 C 0.04879 0.61074 0.04308   -0.033822
 C 0.79937 0.47465 0.23981   0.706632
 C 0.3389 0.95571 0.70589   0.693707
 C 0.42379 0.97791 0.59951   -0.12184
 C 0.4719 0.90366 0.53074   -0.049382
 C 0.45235 0.07426 0.56904   -0.062067
 C 0.33233 0.6953 0.50404   0.731773
 C 0.25452 0.78128 0.43908   -0.157527
 C 0.23283 0.75333 0.36081   -0.038477
 C 0.15494 0.83262 0.3031   -0.060909
 C 0.10375 0.94062 0.32048   -0.119819
 C 0.12867 0.96899 0.39687   -0.058011
 C 0.20261 0.88926 0.45692   -0.033597
 C 0.01383 0.02535 0.26019   0.707922
 C 0.5005 0.54429 0.79411   0.690846
 C 0.50121 0.52209 0.90049   -0.119259
 C 0.4063 0.59634 0.96926   -0.050869
 C 0.59565 0.42574 0.93096   -0.062354
 O 0.01825 0.10115 0.97595   -0.639497
 O 0.86896 0.21641 0.08627   -0.643995
 O 0.13683 0.62127 0.78347   -0.619566
 O 0.3169 0.49152 0.69188   -0.623497
 O 0.6815 0.13357 0.26603   -0.655418
 O 0.71063 0.97284 0.2349   -0.594693
 O 0.59535 0.39885 0.52405   -0.63996
 O 0.67164 0.28359 0.41373   -0.644014
 O 0.04157 0.87873 0.71653   -0.620047
 O 0.000300000000003 0.00848 0.80812   -0.623634
 O 0.5811 0.36643 0.23397   -0.654143
 O 0.41837 0.52716 0.2651   -0.593562
 O 0.98175 0.89885 0.02405   -0.639497
 O 0.13104 0.78359 0.91373   -0.643995
 O 0.86317 0.37873 0.21653   -0.619566
 O 0.6831 0.50848 0.30812   -0.623497
 O 0.3185 0.86643 0.73397   -0.655418
 O 0.28937 0.02716 0.7651   -0.594693
 O 0.40465 0.60115 0.47595   -0.63996
 O 0.32836 0.71641 0.58627   -0.644014
 O 0.95843 0.12127 0.28347   -0.620047
 O 0.9997 0.99152 0.19188   -0.623634
 O 0.4189 0.63357 0.76603   -0.654143
 O 0.58163 0.47284 0.7349   -0.593562
