{'_ref': 'TBD', '_srcid': 'CAKYAQ_clean', 'submitters': [{'name': 'Dalar Nazarian Jeff Camp and David Sholl', 'email': 'dalar@gatech.edu jcamp6@gatech.edu'}], '_method': 'VASP DFT with PBE;DDEC'}
data_MnH4(C2O)4
_symmetry_space_group_name_H-M   'P 1'
_cell_length_a   10.65699985
_cell_length_b   13.53688666
_cell_length_c   14.41727898
_cell_angle_alpha   76.98171659
_cell_angle_beta   68.30971182
_cell_angle_gamma   66.81963494
_symmetry_Int_Tables_number   1
_chemical_formula_structural   MnH4(C2O)4
_chemical_formula_sum   'Mn6 H24 C48 O24'
_cell_volume   1768.82385885
_cell_formula_units_Z   6
loop_
 _symmetry_equiv_pos_site_id
 _symmetry_equiv_pos_as_xyz
  1  'x, y, z'
loop_
 _atom_site_label
 _atom_site_fract_x
 _atom_site_fract_y
 _atom_site_fract_z
 _atom_site_charge
 Mn 0.50408 0.46084 0.39084   1.104474
 Mn 0.85576 0.03915 0.10916   1.104604
 Mn 0.49593 0.53915 0.60916   1.104367
 Mn 0.14424 0.96085 0.89084   1.104516
 Mn 0.78017 0.25 0.25   1.251518
 Mn 0.21983 0.75 0.75   1.2512
 H 0.7301 0.318 0.6528   0.101389
 H 0.8637 0.1865 0.7471   0.110619
 H 0.9006 0.9576 0.5924   0.11095
 H 0.7797 0.0904 0.491   0.094385
 H 0.6519 0.3373 0.0531   0.098791
 H 0.342 0.6266 0.114   0.109721
 H 0.2009 0.182 0.8472   0.100259
 H 0.2973 0.3135 0.7529   0.110456
 H 0.9506 0.5424 0.9076   0.111309
 H 0.8611 0.4096 0.009   0.095945
 H 0.5423 0.1627 0.4469   0.097477
 H 0.5826 0.8734 0.386   0.109737
 H 0.2699 0.682 0.3472   0.101386
 H 0.1363 0.8135 0.2529   0.110608
 H 0.0994 0.0424 0.4076   0.110966
 H 0.2203 0.9096 0.509   0.094398
 H 0.3481 0.6627 0.9469   0.098811
 H 0.658 0.3734 0.886   0.109731
 H 0.7991 0.818 0.1528   0.100253
 H 0.7027 0.6865 0.2471   0.110448
 H 0.0494 0.4576 0.0924   0.111326
 H 0.1389 0.5904 0.991   0.095961
 H 0.4577 0.8373 0.5531   0.0975
 H 0.4174 0.1266 0.614   0.109745
 C 0.6669 0.30436 0.49546   0.725136
 C 0.74474 0.21802 0.56054   -0.155998
 C 0.76734 0.24625 0.63899   -0.042796
 C 0.84558 0.16696 0.6967   -0.060351
 C 0.89693 0.0583 0.6792   -0.120177
 C 0.86945 0.02985 0.60303   -0.058656
 C 0.79529 0.10955 0.54281   -0.032474
 C 0.98689 0.97418 0.73966   0.703026
 C 0.49541 0.45618 0.20698   0.682142
 C 0.49648 0.47835 0.10011   -0.119705
 C 0.59119 0.40237 0.03183   -0.053174
 C 0.40518 0.576 0.06846   -0.059711
 C 0.96672 0.19564 0.00454   0.725458
 C 0.0233 0.28198 0.93946   -0.157501
 C 0.15258 0.25375 0.86101   -0.036595
 C 0.20924 0.33304 0.8033   -0.062952
 C 0.13443 0.4417 0.8208   -0.119817
 C 0.00233 0.47015 0.89697   -0.058046
 C 0.94765 0.39045 0.95719   -0.035857
 C 0.20073 0.52582 0.76034   0.704833
 C 0.65857 0.04382 0.29302   0.683128
 C 0.57494 0.02165 0.39989   -0.118221
 C 0.52539 0.09763 0.46817   -0.052335
 C 0.54964 0.924 0.43154   -0.060709
 C 0.3331 0.69564 0.50454   0.725101
 C 0.25526 0.78198 0.43946   -0.155939
 C 0.23266 0.75375 0.36101   -0.042828
 C 0.15442 0.83304 0.3033   -0.060328
 C 0.10307 0.9417 0.3208   -0.120226
 C 0.13055 0.97015 0.39697   -0.058649
 C 0.20471 0.89045 0.45719   -0.032491
 C 0.01311 0.02582 0.26034   0.703084
 C 0.50459 0.54382 0.79302   0.682076
 C 0.50352 0.52165 0.89989   -0.119638
 C 0.40881 0.59763 0.96817   -0.053188
 C 0.59482 0.424 0.93154   -0.059722
 C 0.03328 0.80436 0.99546   0.725415
 C 0.9767 0.71802 0.06054   -0.157447
 C 0.84742 0.74625 0.13899   -0.036624
 C 0.79076 0.66696 0.1967   -0.062931
 C 0.86557 0.5583 0.1792   -0.119855
 C 0.99767 0.52985 0.10303   -0.058039
 C 0.05235 0.60955 0.04281   -0.03587
 C 0.79927 0.47418 0.23966   0.704877
 C 0.34143 0.95618 0.70698   0.683059
 C 0.42506 0.97835 0.60011   -0.118152
 C 0.47461 0.90237 0.53183   -0.052349
 C 0.45036 0.076 0.56846   -0.060717
 O 0.5959 0.39859 0.52393   -0.639278
 O 0.66948 0.28307 0.41339   -0.640885
 O 0.04295 0.87817 0.71559   -0.619933
 O 0.0015 0.00796 0.80808   -0.622015
 O 0.57584 0.36618 0.2361   -0.651729
 O 0.41401 0.52831 0.26597   -0.589319
 O 0.01842 0.10141 0.97607   -0.639519
 O 0.86594 0.21693 0.08661   -0.641098
 O 0.13671 0.62183 0.78441   -0.620405
 O 0.31754 0.49204 0.69192   -0.623306
 O 0.67812 0.13382 0.2639   -0.653294
 O 0.70829 0.97169 0.23403   -0.589315
 O 0.4041 0.60141 0.47607   -0.639346
 O 0.33052 0.71693 0.58661   -0.640801
 O 0.95705 0.12183 0.28441   -0.619972
 O 0.9985 0.99204 0.19192   -0.621973
 O 0.42416 0.63382 0.7639   -0.651679
 O 0.58599 0.47169 0.73403   -0.589366
 O 0.98158 0.89859 0.02393   -0.639568
 O 0.13406 0.78307 0.91339   -0.641012
 O 0.86329 0.37817 0.21559   -0.620438
 O 0.68246 0.50796 0.30808   -0.623255
 O 0.32188 0.86618 0.7361   -0.653242
 O 0.29171 0.02831 0.76597   -0.589364
