{'_ref': 'TBD', '_srcid': 'CAKYAQ_clean', 'submitters': [{'name': 'Dalar Nazarian Jeff Camp and David Sholl', 'email': 'dalar@gatech.edu jcamp6@gatech.edu'}], '_method': 'VASP DFT with PBE;DDEC'}
data_P2H24PbC26(IO)2
_symmetry_space_group_name_H-M   'P 1'
_cell_length_a   9.41529992
_cell_length_b   13.33899975
_cell_length_c   13.41500000
_cell_angle_alpha   98.42000173
_cell_angle_beta   98.75999730
_cell_angle_gamma   99.07000184
_symmetry_Int_Tables_number   1
_chemical_formula_structural   P2H24PbC26(IO)2
_chemical_formula_sum   'P4 H48 Pb2 C52 I4 O4'
_cell_volume   1619.05861117
_cell_formula_units_Z   2
loop_
 _symmetry_equiv_pos_site_id
 _symmetry_equiv_pos_as_xyz
  1  'x, y, z'
loop_
 _atom_site_label
 _atom_site_fract_x
 _atom_site_fract_y
 _atom_site_fract_z
 _atom_site_charge
 P 0.809 0.4598 0.3748   1.070243
 P 0.6914 0.125 0.0401   1.049541
 P 0.191 0.5402 0.6252   1.070243
 P 0.3086 0.875 0.9599   1.049541
 H 0.5139 0.3725 0.3148   0.074121
 H 0.2972 0.4278 0.3065   0.093174
 H 0.2935 0.6039 0.3545   0.090466
 H 0.5077 0.7123 0.4301   0.095944
 H 0.7234 0.659 0.4388   0.073894
 H 0.8647 0.6494 0.2901   0.112761
 H 0.027 0.6909 0.1692   0.078006
 H 0.1145 0.5691 0.079   0.087153
 H 0.0855 0.4084 0.1071   0.09477
 H 0.9321 0.3576 0.2225   0.081326
 H 0.881 0.511 0.5505   0.151804
 H 0.9549 0.5951 0.4931   0.142109
 H 0.7722 0.0696 0.8415   0.078803
 H 0.9972 0.0663 0.7877   0.099599
 H 0.2136 0.1468 0.8986   0.095597
 H 0.2048 0.1918 0.0731   0.092462
 H 0.9827 0.1828 0.1275   0.077877
 H 0.5696 0.2803 0.1441   0.090552
 H 0.426 0.397 0.0906   0.089331
 H 0.3869 0.4185 0.9257   0.086614
 H 0.4676 0.3242 0.8048   0.089565
 H 0.6388 0.2098 0.8535   0.109377
 H 0.6202 0.9488 0.9909   0.152901
 H 0.5495 0.0058 0.9057   0.14457
 H 0.4861 0.6275 0.6852   0.074121
 H 0.7028 0.5722 0.6935   0.093174
 H 0.7065 0.3961 0.6455   0.090468
 H 0.4923 0.2877 0.5699   0.095945
 H 0.2766 0.341 0.5612   0.073894
 H 0.1353 0.3506 0.7099   0.112765
 H 0.973 0.3091 0.8308   0.078008
 H 0.8855 0.4309 0.921   0.087153
 H 0.9145 0.5916 0.8929   0.09477
 H 0.0679 0.6424 0.7775   0.081326
 H 0.119 0.489 0.4495   0.151805
 H 0.0451 0.4049 0.5069   0.142109
 H 0.2278 0.9304 0.1585   0.078803
 H 0.0028 0.9337 0.2123   0.099601
 H 0.7864 0.8532 0.1014   0.095598
 H 0.7952 0.8082 0.9269   0.092462
 H 0.0173 0.8172 0.8725   0.077877
 H 0.4304 0.7197 0.8559   0.090552
 H 0.574 0.603 0.9094   0.089331
 H 0.6131 0.5815 0.0743   0.086614
 H 0.5324 0.6758 0.1952   0.089567
 H 0.3612 0.7902 0.1465   0.10938
 H 0.3798 0.0512 0.0091   0.152902
 H 0.4505 0.9942 0.0943   0.14457
 Pb 0.7504 0.15961 0.34036   0.997729
 Pb 0.2496 0.84039 0.65964   0.997729
 C 0.6433 0.5118 0.3723   -0.341782
 C 0.5125 0.4426 0.336   0.031098
 C 0.385 0.4751 0.3311   -0.104299
 C 0.382 0.5793 0.3624   -0.060234
 C 0.509 0.6432 0.404   -0.076509
 C 0.637 0.612 0.4093   0.024847
 C 0.9007 0.4974 0.2735   -0.30226
 C 0.912 0.6006 0.2567   -0.046413
 C 0.005 0.6228 0.1809   -0.080492
 C 0.06 0.551 0.1288   -0.050796
 C 0.041 0.457 0.1435   -0.083662
 C 0.953 0.4273 0.2157   0.011452
 C 0.931 0.5209 0.4928   -0.394875
 C 0.858 0.1279 0.9891   -0.323229
 C 0.86 0.0938 0.8884   0.008513
 C 0.995 0.095 0.8556   -0.073212
 C 0.124 0.1379 0.922   -0.072928
 C 0.118 0.1678 0.0253   -0.096772
 C 0.985 0.1625 0.0578   0.020026
 C 0.5979 0.2274 0.0017   -0.28949
 C 0.549 0.2866 0.0747   0.002787
 C 0.466 0.3569 0.043   -0.078916
 C 0.442 0.3691 0.944   -0.056844
 C 0.492 0.3162 0.8734   -0.085336
 C 0.589 0.2428 0.9002   -0.042569
 C 0.571 0.0068 0.9796   -0.396144
 C 0.3567 0.4882 0.6277   -0.341782
 C 0.4875 0.5574 0.664   0.031098
 C 0.615 0.5249 0.6689   -0.104299
 C 0.618 0.4207 0.6376   -0.060233
 C 0.491 0.3568 0.596   -0.076509
 C 0.363 0.388 0.5907   0.024847
 C 0.0993 0.5026 0.7265   -0.30226
 C 0.088 0.3994 0.7433   -0.046414
 C 0.995 0.3772 0.8191   -0.080492
 C 0.94 0.449 0.8712   -0.050795
 C 0.959 0.543 0.8565   -0.083662
 C 0.047 0.5727 0.7843   0.011452
 C 0.069 0.4791 0.5072   -0.394875
 C 0.142 0.8721 0.0109   -0.323229
 C 0.14 0.9062 0.1116   0.008513
 C 0.005 0.905 0.1444   -0.073213
 C 0.876 0.8621 0.078   -0.072928
 C 0.882 0.8322 0.9747   -0.096772
 C 0.015 0.8375 0.9422   0.020026
 C 0.4021 0.7726 0.9983   -0.289489
 C 0.451 0.7134 0.9253   0.002787
 C 0.534 0.6431 0.957   -0.078916
 C 0.558 0.6309 0.056   -0.056843
 C 0.508 0.6838 0.1266   -0.085335
 C 0.411 0.7572 0.0998   -0.042569
 C 0.429 0.9932 0.0204   -0.396144
 I 0.4217 0.13081 0.32265   -0.557788
 I 0.0784 0.17756 0.36942   -0.553815
 I 0.5783 0.86919 0.67735   -0.557789
 I 0.9216 0.82244 0.63058   -0.553816
 O 0.7807 0.3445 0.3664   -0.714847
 O 0.7174 0.1341 0.1561   -0.715811
 O 0.2193 0.6555 0.6336   -0.714847
 O 0.2826 0.8659 0.8439   -0.715811
