{'_ref': 'TBD', '_srcid': 'CAKYAQ_clean', 'submitters': [{'name': 'Dalar Nazarian Jeff Camp and David Sholl', 'email': 'dalar@gatech.edu jcamp6@gatech.edu'}], '_method': 'VASP DFT with PBE;DDEC'}
data_Cd3H24C38(N2O7)2
_symmetry_space_group_name_H-M   'P 1'
_cell_length_a   7.41060032
_cell_length_b   16.62199949
_cell_length_c   16.68300000
_cell_angle_alpha   104.23999991
_cell_angle_beta   101.49000295
_cell_angle_gamma   98.66999793
_symmetry_Int_Tables_number   1
_chemical_formula_structural   Cd3H24C38(N2O7)2
_chemical_formula_sum   'Cd6 H48 C76 N8 O28'
_cell_volume   1908.28875824
_cell_formula_units_Z   2
loop_
 _symmetry_equiv_pos_site_id
 _symmetry_equiv_pos_as_xyz
  1  'x, y, z'
loop_
 _atom_site_label
 _atom_site_fract_x
 _atom_site_fract_y
 _atom_site_fract_z
 _atom_site_charge
 Cd 0.48669 0.483 0.62798   1.072917
 Cd 0.31649 0.95599 0.54158   1.1005
 Cd 0.50972 0.50125 0.88126   1.051842
 Cd 0.51331 0.517 0.37202   1.072917
 Cd 0.68351 0.04401 0.45842   1.100496
 Cd 0.49028 0.49875 0.11874   1.051842
 H 0.3962 0.6593 0.5745   0.126993
 H 0.4965 0.8045 0.6675   0.127483
 H 0.7026 0.6497 0.7905   0.113498
 H 0.6391 0.9131 0.7813   0.107107
 H 0.8203 0.0272 0.8885   0.091448
 H 0.021 0.8707 0.0137   0.09592
 H 0.8487 0.7561 0.9037   0.12585
 H 0.2556 0.3176 0.7313   0.130477
 H 0.2264 0.1766 0.7497   0.132327
 H 0.5824 0.3396 0.9551   0.115838
 H 0.5989 0.2401 0.0208   0.12617
 H 0.6366 0.131 0.0804   0.089006
 H 0.3267 0.9648 0.8656   0.086859
 H 0.2928 0.0724 0.8053   0.103981
 H 0.9998 0.5104 0.6304   0.118077
 H 0.2457 0.7229 0.8198   0.122629
 H 0.9086 0.736 0.6062   0.116401
 H 0.9036 0.8512 0.6812   0.087906
 H 0.0232 0.9331 0.7519   0.111645
 H 0.038 0.252 0.9264   0.124707
 H 0.6898 0.2473 0.7064   0.111478
 H 0.9784 0.4704 0.8726   0.11954
 H 0.6333 0.0431 0.7383   0.12125
 H 0.5787 0.1235 0.7153   0.090818
 H 0.6038 0.3407 0.4255   0.126993
 H 0.5035 0.1955 0.3325   0.127483
 H 0.2974 0.3503 0.2095   0.113498
 H 0.3609 0.0869 0.2187   0.107107
 H 0.1797 0.9728 0.1115   0.091448
 H 0.979 0.1293 0.9863   0.095922
 H 0.1513 0.2439 0.0963   0.125851
 H 0.7444 0.6824 0.2687   0.130477
 H 0.7736 0.8234 0.2503   0.132327
 H 0.4176 0.6604 0.0449   0.115838
 H 0.4011 0.7599 0.9792   0.126171
 H 0.3634 0.869 0.9196   0.089006
 H 0.6733 0.0352 0.1344   0.086859
 H 0.7072 0.9276 0.1947   0.103981
 H 0.0002 0.4896 0.3696   0.118077
 H 0.7543 0.2771 0.1802   0.12263
 H 0.0914 0.264 0.3938   0.116401
 H 0.0964 0.1488 0.3188   0.087906
 H 0.9768 0.0669 0.2481   0.111645
 H 0.962 0.748 0.0736   0.124708
 H 0.3102 0.7527 0.2936   0.111478
 H 0.0216 0.5296 0.1274   0.11954
 H 0.3667 0.9569 0.2617   0.12125
 H 0.4213 0.8765 0.2847   0.090818
 C 0.471 0.6758 0.63   0.075221
 C 0.5254 0.7561 0.681   -0.160726
 C 0.6387 0.67 0.7483   0.176558
 C 0.7316 0.8227 0.8294   0.123919
 C 0.7198 0.9044 0.8274   -0.164508
 C 0.8259 0.9728 0.8925   -0.083711
 C 0.942 0.9632 0.9647   0.012167
 C 0.946 0.8798 0.9663   -0.064696
 C 0.8431 0.8108 0.9004   -0.148491
 C 0.3175 0.3041 0.7789   0.070912
 C 0.3003 0.2264 0.7886   -0.152898
 C 0.4971 0.317 0.9021   0.170643
 C 0.4397 0.1669 0.9061   0.131131
 C 0.5439 0.1843 0.989   -0.156244
 C 0.5661 0.1184 0.0244   -0.061526
 C 0.4884 0.0351 0.9804   0.012324
 C 0.3839 0.0203 0.8977   -0.068404
 C 0.3621 0.085 0.8615   -0.17024
 C 0.258 0.5597 0.7766   0.639961
 C 0.7855 0.5727 0.5251   0.643837
 C 0.9287 0.6167 0.6067   -0.048955
 C 0.0208 0.569 0.6525   -0.074211
 C 0.1438 0.6095 0.7313   -0.070936
 C 0.1687 0.6963 0.7655   -0.180213
 C 0.0786 0.7436 0.7186   0.222381
 C 0.9635 0.704 0.6388   -0.218336
 C 0.0309 0.8809 0.7123   -0.053275
 C 0.1403 0.9023 0.6498   0.644642
 C 0.7083 0.4133 0.7311   0.64425
 C 0.1936 0.4158 0.9865   0.640383
 C 0.0378 0.3681 0.9103   -0.060368
 C 0.9856 0.2805 0.8892   -0.197405
 C 0.8561 0.2347 0.8134   0.240039
 C 0.7727 0.2774 0.7586   -0.214997
 C 0.8154 0.3656 0.7832   -0.048424
 C 0.9487 0.4114 0.8578   -0.081359
 C 0.6822 0.095 0.726   -0.091229
 C 0.7527 0.0721 0.6461   0.67893
 C 0.529 0.3242 0.37   0.075221
 C 0.4746 0.2439 0.319   -0.160726
 C 0.3613 0.33 0.2517   0.176558
 C 0.2684 0.1773 0.1706   0.123919
 C 0.2802 0.0956 0.1726   -0.164508
 C 0.1741 0.0272 0.1075   -0.083711
 C 0.058 0.0368 0.0353   0.012167
 C 0.054 0.1202 0.0337   -0.064696
 C 0.1569 0.1892 0.0996   -0.148491
 C 0.6825 0.6959 0.2211   0.070912
 C 0.6997 0.7736 0.2114   -0.152898
 C 0.5029 0.683 0.0979   0.170643
 C 0.5603 0.8331 0.0939   0.131132
 C 0.4561 0.8157 0.011   -0.156244
 C 0.4339 0.8816 0.9756   -0.061526
 C 0.5116 0.9649 0.0196   0.012323
 C 0.6161 0.9797 0.1023   -0.068404
 C 0.6379 0.915 0.1385   -0.170239
 C 0.742 0.4403 0.2234   0.639961
 C 0.2145 0.4273 0.4749   0.643837
 C 0.0713 0.3833 0.3933   -0.048955
 C 0.9792 0.431 0.3475   -0.074211
 C 0.8562 0.3905 0.2687   -0.070936
 C 0.8313 0.3037 0.2345   -0.180214
 C 0.9214 0.2564 0.2814   0.222381
 C 0.0365 0.296 0.3612   -0.218336
 C 0.9691 0.1191 0.2877   -0.053275
 C 0.8597 0.0977 0.3502   0.644642
 C 0.2917 0.5867 0.2689   0.64425
 C 0.8064 0.5842 0.0135   0.640383
 C 0.9622 0.6319 0.0897   -0.060368
 C 0.0144 0.7195 0.1108   -0.197405
 C 0.1439 0.7653 0.1866   0.240039
 C 0.2273 0.7226 0.2414   -0.214997
 C 0.1846 0.6344 0.2168   -0.048424
 C 0.0513 0.5886 0.1422   -0.081359
 C 0.3178 0.905 0.274   -0.091229
 C 0.2473 0.9279 0.3539   0.67893
 N 0.5427 0.622 0.6723   -0.417745
 N 0.6332 0.7523 0.7577   0.036406
 N 0.4406 0.3618 0.8501   -0.422046
 N 0.4145 0.2344 0.8682   0.02921
 N 0.4573 0.378 0.3277   -0.417745
 N 0.3668 0.2477 0.2423   0.036406
 N 0.5594 0.6382 0.1499   -0.422046
 N 0.5855 0.7656 0.1318   0.02921
 O 0.6965 0.4997 0.5147   -0.615721
 O 0.753 0.6126 0.4693   -0.59504
 O 0.279 0.4888 0.7356   -0.619861
 O 0.3374 0.5942 0.8547   -0.585909
 O 0.1158 0.8293 0.7592   -0.239601
 O 0.313 0.9261 0.6731   -0.577501
 O 0.0456 0.8979 0.576   -0.58462
 O 0.6851 0.4851 0.7671   -0.62779
 O 0.643 0.3794 0.652   -0.581653
 O 0.2358 0.3839 0.0463   -0.580861
 O 0.2855 0.4869 0.9869   -0.631257
 O 0.8222 0.1484 0.7995   -0.241936
 O 0.9139 0.1003 0.6451   -0.524684
 O 0.6289 0.0228 0.5805   -0.698204
 O 0.3035 0.5003 0.4853   -0.615721
 O 0.247 0.3874 0.5307   -0.595041
 O 0.721 0.5112 0.2644   -0.619862
 O 0.6626 0.4058 0.1453   -0.585909
 O 0.8842 0.1707 0.2408   -0.239601
 O 0.687 0.0739 0.3269   -0.577501
 O 0.9544 0.1021 0.424   -0.58462
 O 0.3149 0.5149 0.2329   -0.62779
 O 0.357 0.6206 0.348   -0.581653
 O 0.7642 0.6161 0.9537   -0.580861
 O 0.7145 0.5131 0.0131   -0.631257
 O 0.1778 0.8516 0.2005   -0.241936
 O 0.0861 0.8997 0.3549   -0.524685
 O 0.3711 0.9772 0.4195   -0.698204
