{'_ref': 'TBD', '_srcid': 'CAKYAQ_clean', 'submitters': [{'name': 'Dalar Nazarian Jeff Camp and David Sholl', 'email': 'dalar@gatech.edu jcamp6@gatech.edu'}], '_method': 'VASP DFT with PBE;DDEC'}
data_Ag8H20(C6N5)5
_symmetry_space_group_name_H-M   'P 1'
_cell_length_a   12.02160013
_cell_length_b   13.93789991
_cell_length_c   22.76580000
_cell_angle_alpha   95.82500065
_cell_angle_beta   104.72199908
_cell_angle_gamma   104.03599968
_symmetry_Int_Tables_number   1
_chemical_formula_structural   Ag8H20(C6N5)5
_chemical_formula_sum   'Ag16 H40 C60 N50'
_cell_volume   3524.65827776
_cell_formula_units_Z   2
loop_
 _symmetry_equiv_pos_site_id
 _symmetry_equiv_pos_as_xyz
  1  'x, y, z'
loop_
 _atom_site_label
 _atom_site_fract_x
 _atom_site_fract_y
 _atom_site_fract_z
 _atom_site_charge
 Ag 0.2914 0.2013 0.84736   -0.268466
 Ag 0.18624 0.42535 0.55908   0.319302
 Ag 0.02276 0.84439 0.69686   0.385908
 Ag 0.48499 0.05671 0.91452   0.222989
 Ag 0.13613 0.99746 0.85705   0.123041
 Ag 0.14848 0.66093 0.99892   0.222093
 Ag 0.59678 0.88059 0.82367   0.365891
 Ag 0.6856 0.17265 0.06493   0.153917
 Ag 0.7086 0.7987 0.15264   -0.268466
 Ag 0.81376 0.57465 0.44092   0.3193
 Ag 0.97724 0.15561 0.30314   0.385908
 Ag 0.51501 0.94329 0.08548   0.22299
 Ag 0.86387 0.00254 0.14295   0.123041
 Ag 0.85152 0.33907 0.00108   0.222094
 Ag 0.40322 0.11941 0.17633   0.365892
 Ag 0.3144 0.82735 0.93507   0.153918
 H 0.4465 0.4634 0.0861   0.143279
 H 0.2707 0.3803 0.9043   0.122609
 H 0.7667 0.7522 0.9144   0.114492
 H 0.1501 0.6371 0.569   0.078593
 H 0.9985 0.9545 0.0574   0.100052
 H 0.406 0.675 0.761   0.116832
 H 0.188 0.781 0.6383   0.101548
 H 0.4309 0.7761 0.598   0.065146
 H 0.7904 0.7029 0.6572   0.105008
 H 0.6478 0.6244 0.5637   0.07386
 H 0.1312 0.8619 0.0589   0.08298
 H 0.5608 0.851 0.6918   0.094889
 H 0.0616 0.0304 0.6228   0.108023
 H 0.1822 0.5036 0.9124   0.066594
 H 0.1642 0.9059 0.4832   0.135204
 H 0.3466 0.5896 0.0857   0.072955
 H 0.3506 0.526 0.6898   0.08471
 H 0.1984 0.179 0.627   0.062036
 H 0.3031 0.059 0.4952   0.076691
 H 0.9017 0.6642 0.921   0.072993
 H 0.5535 0.5366 0.9139   0.143279
 H 0.7293 0.6197 0.0957   0.122609
 H 0.2333 0.2478 0.0856   0.114492
 H 0.8499 0.3629 0.431   0.078593
 H 0.0015 0.0455 0.9426   0.100052
 H 0.594 0.325 0.239   0.116831
 H 0.812 0.219 0.3617   0.101548
 H 0.5691 0.2239 0.402   0.065146
 H 0.2096 0.2971 0.3428   0.105009
 H 0.3522 0.3756 0.4363   0.073859
 H 0.8688 0.1381 0.9411   0.082981
 H 0.4392 0.149 0.3082   0.09489
 H 0.9384 0.9696 0.3772   0.108027
 H 0.8178 0.4964 0.0876   0.066596
 H 0.8358 0.0941 0.5168   0.13521
 H 0.6534 0.4104 0.9143   0.07296
 H 0.6494 0.474 0.3102   0.084711
 H 0.8016 0.821 0.373   0.062037
 H 0.6969 0.941 0.5048   0.07669
 H 0.0983 0.3358 0.079   0.072995
 C 0.419 0.3238 0.9934   0.242272
 C 0.392 0.4699 0.0506   -0.196494
 C 0.287 0.4207 0.9422   -0.152099
 C 0.6913 0.785 0.6833   0.033191
 C 0.7773 0.9193 0.9883   0.269542
 C 0.84 0.7755 0.945   -0.171073
 C 0.1991 0.6436 0.6088   0.106246
 C 0.9768 0.8952 0.0293   -0.155856
 C 0.3502 0.6669 0.7229   -0.208205
 C 0.8628 0.8633 0.9865   0.016861
 C 0.2956 0.7421 0.7073   0.008837
 C 0.3097 0.8285 0.755   0.30417
 C 0.223 0.7305 0.6501   -0.154703
 C 0.362 0.4048 0.9942   0.030921
 C 0.5033 0.7606 0.6108   0.197984
 C 0.7174 0.7179 0.646   -0.177748
 C 0.632 0.6714 0.59   0.222154
 C 0.017 0.8529 0.5485   0.329039
 C 0.1 0.9492 0.5552   0.026927
 C 0.0562 0.8396 0.03   0.109614
 C 0.58 0.8062 0.6657   -0.188159
 C 0.11 0.0342 0.5968   -0.18794
 C 0.7773 0.8392 0.742   0.296464
 C 0.237 0.496 0.9475   0.117151
 C 0.172 0.9591 0.5136   -0.195492
 C 0.333 0.5468 0.0489   0.12548
 C 0.318 0.5783 0.6792   0.140486
 C 0.192 0.1228 0.5993   0.215012
 C 0.253 0.0511 0.5207   0.186219
 C 0.922 0.7237 0.9488   0.120722
 C 0.581 0.6762 0.0066   0.242271
 C 0.608 0.5301 0.9494   -0.196494
 C 0.713 0.5793 0.0578   -0.152099
 C 0.3087 0.215 0.3167   0.033191
 C 0.2227 0.0807 0.0117   0.269542
 C 0.16 0.2245 0.055   -0.171073
 C 0.8009 0.3564 0.3912   0.106246
 C 0.0232 0.1048 0.9707   -0.155856
 C 0.6498 0.3331 0.2771   -0.208205
 C 0.1372 0.1367 0.0135   0.016861
 C 0.7044 0.2579 0.2927   0.008837
 C 0.6903 0.1715 0.245   0.30417
 C 0.777 0.2695 0.3499   -0.154702
 C 0.638 0.5952 0.0058   0.030921
 C 0.4967 0.2394 0.3892   0.197984
 C 0.2826 0.2821 0.354   -0.177748
 C 0.368 0.3286 0.41   0.222154
 C 0.983 0.1471 0.4515   0.329039
 C 0.9 0.0508 0.4448   0.026928
 C 0.9438 0.1604 0.97   0.109613
 C 0.42 0.1938 0.3343   -0.18816
 C 0.89 0.9658 0.4032   -0.187941
 C 0.2227 0.1608 0.258   0.296464
 C 0.763 0.504 0.0525   0.117151
 C 0.828 0.0409 0.4864   -0.195494
 C 0.667 0.4532 0.9511   0.125479
 C 0.682 0.4217 0.3208   0.140485
 C 0.808 0.8772 0.4007   0.215012
 C 0.747 0.9489 0.4793   0.18622
 C 0.078 0.2763 0.0512   0.120721
 N 0.9739 0.7866 0.4963   -0.356007
 N 0.7541 0.8781 0.793   -0.247805
 N 0.2176 0.8688 0.7555   -0.302902
 N 0.0283 0.7521 0.9893   -0.294992
 N 0.9446 0.914 0.8109   0.037247
 N 0.3718 0.9416 0.833   0.002986
 N 0.9761 0.8143 0.593   -0.255326
 N 0.2622 0.9407 0.8072   0.010421
 N 0.8986 0.8605 0.7534   -0.289458
 N 0.784 0.9817 0.0389   -0.213185
 N 0.2454 0.5675 0.6247   -0.301062
 N 0.6836 0.9208 0.94   -0.262342
 N 0.4718 0.1956 0.9639   -0.041714
 N 0.4043 0.8719 0.8015   -0.27633
 N 0.634 0.9851 0.9621   -0.04756
 N 0.5291 0.6926 0.5737   -0.454635
 N 0.693 0.0244 0.0229   -0.042818
 N 0.8592 0.9244 0.8364   -0.098607
 N 0.5366 0.2336 0.022   0.024361
 N 0.3986 0.2499 0.9454   -0.10711
 N 0.8994 0.7214 0.5665   -0.16766
 N 0.5045 0.312 0.0423   -0.358087
 N 0.263 0.1303 0.563   -0.454602
 N 0.9017 0.7083 0.5079   0.057199
 N 0.2596 0.5619 0.9995   -0.27471
 N 0.0261 0.2134 0.5037   -0.356007
 N 0.2459 0.1219 0.207   -0.247805
 N 0.7824 0.1312 0.2445   -0.302902
 N 0.9717 0.2479 0.0107   -0.294991
 N 0.0554 0.086 0.1891   0.037247
 N 0.6282 0.0584 0.167   0.002986
 N 0.0239 0.1857 0.407   -0.255326
 N 0.7378 0.0593 0.1928   0.010421
 N 0.1014 0.1395 0.2466   -0.289458
 N 0.216 0.0183 0.9611   -0.213185
 N 0.7546 0.4325 0.3753   -0.301062
 N 0.3164 0.0792 0.06   -0.262342
 N 0.5282 0.8044 0.0361   -0.041714
 N 0.5957 0.1281 0.1985   -0.276331
 N 0.366 0.0149 0.0379   -0.04756
 N 0.4709 0.3074 0.4263   -0.454635
 N 0.307 0.9756 0.9771   -0.042818
 N 0.1408 0.0756 0.1636   -0.098607
 N 0.4634 0.7664 0.978   0.024361
 N 0.6014 0.7501 0.0546   -0.10711
 N 0.1006 0.2786 0.4335   -0.16766
 N 0.4955 0.688 0.9577   -0.358087
 N 0.737 0.8697 0.437   -0.454603
 N 0.0983 0.2917 0.4921   0.057199
 N 0.7404 0.4381 0.000500000000002   -0.274709
