{'_ref': 'TBD', '_srcid': 'CAKYAQ_clean', 'submitters': [{'name': 'Dalar Nazarian Jeff Camp and David Sholl', 'email': 'dalar@gatech.edu jcamp6@gatech.edu'}], '_method': 'VASP DFT with PBE;DDEC'}
data_Ag7H20(C6N5)5
_symmetry_space_group_name_H-M   'P 1'
_cell_length_a   12.01169961
_cell_length_b   13.93599978
_cell_length_c   22.60200000
_cell_angle_alpha   77.08799824
_cell_angle_beta   74.65700046
_cell_angle_gamma   75.52400032
_symmetry_Int_Tables_number   1
_chemical_formula_structural   Ag7H20(C6N5)5
_chemical_formula_sum   'Ag14 H40 C60 N50'
_cell_volume   3482.28459561
_cell_formula_units_Z   2
loop_
 _symmetry_equiv_pos_site_id
 _symmetry_equiv_pos_as_xyz
  1  'x, y, z'
loop_
 _atom_site_label
 _atom_site_fract_x
 _atom_site_fract_y
 _atom_site_fract_z
 _atom_site_charge
 Ag 0.84312 0.16768 0.50339   0.20651
 Ag 0.32794 0.65101 0.19661   0.370626
 Ag 0.22497 0.38041 0.67379   0.366586
 Ag 0.70763 0.51679 0.64645   0.309714
 Ag 0.38463 0.66786 0.43519   0.161227
 Ag 0.36935 0.92406 0.93943   0.305882
 Ag 0.43478 0.56319 0.58375   0.234923
 Ag 0.15688 0.83232 0.49661   0.206507
 Ag 0.67206 0.34899 0.80339   0.370626
 Ag 0.77503 0.61959 0.32621   0.366586
 Ag 0.29237 0.48321 0.35355   0.309715
 Ag 0.61537 0.33214 0.56481   0.161226
 Ag 0.63065 0.07594 0.06057   0.30588
 Ag 0.56522 0.43681 0.41625   0.234923
 H 0.8092 0.4398 0.9906   0.080115
 H 0.0171 0.163 0.5817   0.078744
 H 0.1353 0.7942 0.1569   0.097517
 H 0.7362 0.0017 0.5893   0.080037
 H 0.0613 0.4556 0.4405   0.094884
 H 0.3252 0.0293 0.8074   0.083484
 H 0.7233 0.1077 0.413   0.086216
 H 0.5794 0.3199 0.1295   0.075252
 H 0.923 0.3665 0.441   0.080012
 H 0.0812 0.8795 0.0642   0.08352
 H 0.6477 0.871 0.5907   0.131991
 H 0.429 0.1258 0.9313   0.075097
 H 0.6784 0.5938 0.9804   0.129427
 H 0.3492 0.1749 0.7355   0.116857
 H 0.6369 0.977 0.4092   0.137548
 H 0.4428 0.4719 0.1261   0.106685
 H 0.1572 0.2473 0.5862   0.119687
 H 0.866 0.6456 0.1935   0.093171
 H 0.8184 0.7312 0.1   0.06922
 H 0.4567 0.274 0.8639   0.101455
 H 0.1908 0.5602 0.0094   0.080114
 H 0.9829 0.837 0.4183   0.078746
 H 0.8647 0.2058 0.8431   0.09752
 H 0.2638 0.9983 0.4107   0.080041
 H 0.9387 0.5444 0.5595   0.094884
 H 0.6748 0.9707 0.1926   0.083487
 H 0.2767 0.8923 0.587   0.086221
 H 0.4206 0.6801 0.8705   0.075254
 H 0.077 0.6335 0.559   0.080013
 H 0.9188 0.1205 0.9358   0.08352
 H 0.3523 0.129 0.4093   0.131992
 H 0.571 0.8742 0.0687   0.075096
 H 0.3216 0.4062 0.0196   0.129431
 H 0.6508 0.8251 0.2645   0.116856
 H 0.3631 0.023 0.5908   0.137545
 H 0.5572 0.5281 0.8739   0.106687
 H 0.8428 0.7527 0.4138   0.119686
 H 0.134 0.3544 0.8065   0.093172
 H 0.1816 0.2688 0.9   0.069219
 H 0.5433 0.726 0.1361   0.101455
 C 0.735 0.4476 0.0172   0.197118
 C 0.0274 0.2238 0.5525   0.091596
 C 0.0382 0.6584 0.2441   0.304721
 C 0.4671 0.6469 0.0478   0.305315
 C 0.0693 0.7818 0.1459   -0.176014
 C 0.7155 0.9969 0.5522   0.105453
 C 0.054 0.3956 0.4701   -0.174924
 C 0.3538 0.0803 0.8185   0.105385
 C 0.5479 0.5498 0.0535   0.042175
 C 0.7085 0.0584 0.4495   0.110143
 C 0.599 0.3777 0.0996   0.196329
 C 0.9726 0.3419 0.4704   0.113097
 C 0.0379 0.8318 0.0912   0.199758
 C 0.6638 0.9189 0.5532   -0.169001
 C 0.2135 0.4188 0.512   0.298121
 C 0.4141 0.1363 0.8904   0.111315
 C 0.6577 0.539 0.012   -0.192045
 C 0.6347 0.9096 0.4999   0.030293
 C 0.4448 0.3259 0.7453   0.29308
 C 0.3684 0.166 0.7753   -0.197271
 C 0.0051 0.7124 0.1858   0.017959
 C 0.577 0.8277 0.5004   0.318744
 C 0.1259 0.3619 0.5132   0.004743
 C 0.657 0.9812 0.4468   -0.185065
 C 0.5185 0.4669 0.0976   -0.197502
 C 0.1105 0.2733 0.5555   -0.167901
 C 0.9111 0.6941 0.1675   -0.188034
 C 0.4116 0.2387 0.7911   -0.01658
 C 0.8829 0.7446 0.1126   0.198213
 C 0.4315 0.2241 0.8507   -0.182864
 C 0.265 0.5524 0.9828   0.197118
 C 0.9726 0.7762 0.4475   0.091595
 C 0.9618 0.3416 0.7559   0.304721
 C 0.5329 0.3531 0.9522   0.305315
 C 0.9307 0.2182 0.8541   -0.176015
 C 0.2845 0.0031 0.4478   0.105452
 C 0.946 0.6044 0.5299   -0.174924
 C 0.6462 0.9197 0.1815   0.105384
 C 0.4521 0.4502 0.9465   0.042175
 C 0.2915 0.9416 0.5505   0.110141
 C 0.401 0.6223 0.9004   0.196328
 C 0.0274 0.6581 0.5296   0.113097
 C 0.9621 0.1682 0.9088   0.199759
 C 0.3362 0.0811 0.4468   -0.169
 C 0.7865 0.5812 0.488   0.298121
 C 0.5859 0.8637 0.1096   0.111315
 C 0.3423 0.461 0.988   -0.192047
 C 0.3653 0.0904 0.5001   0.030293
 C 0.5552 0.6741 0.2547   0.29308
 C 0.6316 0.834 0.2247   -0.19727
 C 0.9949 0.2876 0.8142   0.017959
 C 0.423 0.1723 0.4996   0.318744
 C 0.8741 0.6381 0.4868   0.004743
 C 0.343 0.0188 0.5532   -0.185063
 C 0.4815 0.5331 0.9024   -0.197503
 C 0.8895 0.7267 0.4445   -0.167901
 C 0.0889 0.3059 0.8325   -0.188034
 C 0.5884 0.7613 0.2089   -0.01658
 C 0.1171 0.2554 0.8874   0.198213
 C 0.5685 0.7759 0.1493   -0.182864
 N 0.4896 0.7364 0.4732   0.017826
 N 0.5545 0.757 0.55   -0.373633
 N 0.3305 0.7761 0.0655   -0.153421
 N 0.2575 0.4216 0.5604   -0.277966
 N 0.7382 0.0662 0.5012   -0.26789
 N 0.9449 0.8128 0.0758   -0.455437
 N 0.1384 0.584 0.3126   -0.019407
 N 0.7048 0.3706 0.0598   -0.454148
 N 0.9584 0.2565 0.51   -0.294616
 N 0.3891 0.7899 0.0067   0.052825
 N 0.5388 0.8167 0.4518   -0.365829
 N 0.2564 0.4803 0.4609   -0.278665
 N 0.4754 0.7113 0.9942   -0.352524
 N 0.3783 0.6847 0.0928   -0.239744
 N 0.4992 0.7005 0.5323   0.000518
 N 0.5436 0.4367 0.6932   -0.070222
 N 0.4596 0.4405 0.6651   0.001799
 N 0.1476 0.6368 0.2543   -0.281742
 N 0.3308 0.4863 0.5376   -0.055973
 N 0.9638 0.6199 0.2947   -0.240042
 N 0.329 0.5218 0.4785   -0.016622
 N 0.3948 0.3707 0.697   -0.279368
 N 0.5363 0.3657 0.7444   -0.26725
 N 0.0286 0.5739 0.3371   -0.094546
 N 0.3769 0.0638 0.875   -0.306673
 N 0.5104 0.2636 0.5268   0.017826
 N 0.4455 0.243 0.45   -0.373633
 N 0.6695 0.2239 0.9345   -0.153421
 N 0.7425 0.5784 0.4396   -0.277966
 N 0.2618 0.9338 0.4988   -0.267889
 N 0.0551 0.1872 0.9242   -0.455437
 N 0.8616 0.416 0.6874   -0.019407
 N 0.2952 0.6294 0.9402   -0.454148
 N 0.0416 0.7435 0.49   -0.294615
 N 0.6109 0.2101 0.9933   0.052825
 N 0.4612 0.1833 0.5482   -0.365829
 N 0.7436 0.5197 0.5391   -0.278665
 N 0.5246 0.2887 0.0058   -0.352524
 N 0.6217 0.3153 0.9072   -0.239744
 N 0.5008 0.2995 0.4677   0.000518
 N 0.4564 0.5633 0.3068   -0.070222
 N 0.5404 0.5595 0.3349   0.001799
 N 0.8524 0.3632 0.7457   -0.281742
 N 0.6692 0.5137 0.4624   -0.055974
 N 0.0362 0.3801 0.7053   -0.240042
 N 0.671 0.4782 0.5215   -0.016622
 N 0.6052 0.6293 0.303   -0.279368
 N 0.4637 0.6343 0.2556   -0.26725
 N 0.9714 0.4261 0.6629   -0.094546
 N 0.6231 0.9362 0.125   -0.306673
