{'_ref': 'TBD', '_srcid': 'CAKYAQ_clean', 'submitters': [{'name': 'Dalar Nazarian Jeff Camp and David Sholl', 'email': 'dalar@gatech.edu jcamp6@gatech.edu'}], '_method': 'VASP DFT with PBE;DDEC'}
data_ZnH12C9N4O3
_symmetry_space_group_name_H-M   'P 1'
_cell_length_a   8.96870000
_cell_length_b   10.90600049
_cell_length_c   14.58500000
_cell_angle_alpha   96.56700193
_cell_angle_beta   90.00000000
_cell_angle_gamma   90.00000000
_symmetry_Int_Tables_number   1
_chemical_formula_structural   ZnH12C9N4O3
_chemical_formula_sum   'Zn4 H48 C36 N16 O12'
_cell_volume   1417.23725421
_cell_formula_units_Z   4
loop_
 _symmetry_equiv_pos_site_id
 _symmetry_equiv_pos_as_xyz
  1  'x, y, z'
loop_
 _atom_site_label
 _atom_site_fract_x
 _atom_site_fract_y
 _atom_site_fract_z
 _atom_site_charge
 Zn 0.25328 0.0652 0.28097   0.828938
 Zn 0.74755 0.36913 0.18782   0.815948
 Zn 0.75328 0.9348 0.71903   0.828938
 Zn 0.24755 0.63087 0.81218   0.815948
 H 0.1435 0.4266 0.7581   0.312396
 H 0.156 0.4961 0.6771   0.326659
 H 0.5504 0.2 0.2793   0.060123
 H 0.2482 0.1849 0.0817   0.111107
 H 0.5616 0.5147 0.0637   0.077731
 H 0.3636 0.3328 0.974   0.114087
 H 0.5415 0.3252 0.9764   0.111963
 H 0.2574 0.603 0.288   0.161348
 H 0.1561 0.6497 0.2087   0.11864
 H 0.1234 0.8783 0.2106   0.321989
 H 0.2772 0.8747 0.1732   0.335108
 H 0.1964 0.7993 0.3418   0.068279
 H 0.3663 0.8066 0.31   0.067716
 H 0.2585 0.7328 0.6141   0.119599
 H 0.2587 0.5046 0.1022   0.28809
 H 0.6064 0.0298 0.5441   0.073066
 H 0.3287 0.0498 0.6146   0.303077
 H 0.3871 0.363 0.7446   0.064232
 H 0.4064 0.4428 0.6598   0.064404
 H 0.5501 0.7771 0.8183   0.0542
 H 0.2168 0.2317 0.6596   0.136646
 H 0.2228 0.3149 0.5762   0.139718
 H 0.3819 0.8472 0.495   0.116368
 H 0.5569 0.8238 0.4984   0.110434
 H 0.6435 0.5734 0.2419   0.312396
 H 0.656 0.5039 0.3229   0.326657
 H 0.0504 0.8 0.7207   0.060123
 H 0.7482 0.8151 0.9183   0.111107
 H 0.0616 0.4853 0.9363   0.077731
 H 0.8636 0.6672 0.026   0.114088
 H 0.0415 0.6748 0.0236   0.111965
 H 0.7574 0.397 0.712   0.161346
 H 0.6561 0.3503 0.7913   0.11864
 H 0.6234 0.1217 0.7894   0.321991
 H 0.7772 0.1253 0.8268   0.335109
 H 0.6964 0.2007 0.6582   0.068279
 H 0.8663 0.1934 0.69   0.067716
 H 0.7585 0.2672 0.3859   0.119599
 H 0.7587 0.4954 0.8978   0.28809
 H 0.1064 0.9702 0.4559   0.073067
 H 0.8287 0.9502 0.3854   0.303077
 H 0.8871 0.637 0.2554   0.064232
 H 0.9064 0.5572 0.3402   0.064403
 H 0.0501 0.2229 0.1817   0.0542
 H 0.7168 0.7683 0.3404   0.136647
 H 0.7228 0.6851 0.4238   0.139717
 H 0.8819 0.1528 0.505   0.116368
 H 0.0569 0.1762 0.5016   0.110434
 C 0.5 0.2132 0.224   0.261224
 C 0.3355 0.2051 0.1171   -0.09035
 C 0.4441 0.2833 0.0944   0.165895
 C 0.4391 0.5521 0.9476   0.605637
 C 0.4605 0.4925 0.038   0.049478
 C 0.4524 0.3527 0.0131   -0.232702
 C 0.2533 0.661 0.2406   -0.370427
 C 0.2632 0.7912 0.2874   0.115644
 C 0.4576 0.8284 0.6228   0.195141
 C 0.3438 0.7584 0.65   -0.095686
 C 0.4814 0.0265 0.4229   0.625957
 C 0.5021 0.0079 0.5243   0.048656
 C 0.3754 0.63 0.1722   0.566836
 C 0.3347 0.3935 0.6919   0.131762
 C 0.5029 0.7819 0.7605   0.242548
 C 0.2826 0.284 0.6258   -0.383867
 C 0.4738 0.8707 0.5303   -0.238786
 C 0.4061 0.2073 0.5834   0.587929
 C 0.0 0.7868 0.776   0.261224
 C 0.8355 0.7949 0.8829   -0.09035
 C 0.9441 0.7167 0.9056   0.165895
 C 0.9391 0.4479 0.0524   0.605637
 C 0.9605 0.5075 0.962   0.049478
 C 0.9524 0.6473 0.9869   -0.232703
 C 0.7533 0.339 0.7594   -0.370427
 C 0.7632 0.2088 0.7126   0.115644
 C 0.9576 0.1716 0.3772   0.195141
 C 0.8438 0.2416 0.35   -0.095686
 C 0.9814 0.9735 0.5771   0.625957
 C 0.0021 0.9921 0.4757   0.048656
 C 0.8754 0.37 0.8278   0.566836
 C 0.8347 0.6065 0.3081   0.131762
 C 0.0029 0.2181 0.2395   0.242549
 C 0.7826 0.716 0.3742   -0.383867
 C 0.9738 0.1293 0.4697   -0.238786
 C 0.9061 0.7927 0.4166   0.587929
 N 0.207 0.4742 0.7275   -0.645632
 N 0.373 0.7306 0.7382   -0.401276
 N 0.3699 0.1592 0.199   -0.418706
 N 0.5536 0.2877 0.1642   -0.472388
 N 0.2223 0.8883 0.2266   -0.647076
 N 0.5633 0.8428 0.6925   -0.485397
 N 0.3479 0.5385 0.1056   -0.417563
 N 0.3965 0.0836 0.5819   -0.451744
 N 0.707 0.5258 0.2725   -0.645632
 N 0.873 0.2694 0.2618   -0.401275
 N 0.8699 0.8408 0.801   -0.418706
 N 0.0536 0.7123 0.8358   -0.472388
 N 0.7223 0.1117 0.7734   -0.647077
 N 0.0633 0.1572 0.3075   -0.485397
 N 0.8479 0.4615 0.8944   -0.417562
 N 0.8965 0.9164 0.4181   -0.451744
 O 0.3123 0.6028 0.935   -0.589055
 O 0.5431 0.5442 0.8902   -0.585777
 O 0.3515 0.0609 0.4   -0.603221
 O 0.5001 0.6808 0.1804   -0.583207
 O 0.5892 0.0002 0.3694   -0.601404
 O 0.5153 0.2551 0.5473   -0.58431
 O 0.8123 0.3972 0.065   -0.589055
 O 0.0431 0.4558 0.1098   -0.585777
 O 0.8515 0.9391 0.6   -0.603221
 O 0.000100000000003 0.3192 0.8196   -0.583207
 O 0.0892 0.9998 0.6306   -0.601404
 O 0.0153 0.7449 0.4527   -0.58431
