{'_ref': 'TBD', '_srcid': 'CAKYAQ_clean', 'submitters': [{'name': 'Dalar Nazarian Jeff Camp and David Sholl', 'email': 'dalar@gatech.edu jcamp6@gatech.edu'}], '_method': 'VASP DFT with PBE;DDEC'}
data_CuH2(C3O2)2
_symmetry_space_group_name_H-M   'P 1'
_cell_length_a   18.62730000
_cell_length_b   18.62730010
_cell_length_c   18.62730000
_cell_angle_alpha   60.00000017
_cell_angle_beta   59.99999999
_cell_angle_gamma   60.00000120
_symmetry_Int_Tables_number   1
_chemical_formula_structural   CuH2(C3O2)2
_chemical_formula_sum   'Cu12 H24 C72 O48'
_cell_volume   4570.19505618
_cell_formula_units_Z   12
loop_
 _symmetry_equiv_pos_site_id
 _symmetry_equiv_pos_as_xyz
  1  'x, y, z'
loop_
 _atom_site_label
 _atom_site_fract_x
 _atom_site_fract_y
 _atom_site_fract_z
 _atom_site_charge
 Cu 0.57057 0.0 0.42943   0.936082
 Cu 0.0 0.57057 0.0   0.936082
 Cu 0.42943 0.0 0.57057   0.93608
 Cu 0.0 0.42943 0.0   0.93608
 Cu 0.57057 0.42943 0.0   0.936082
 Cu 0.0 0.0 0.42943   0.936082
 Cu 0.42943 0.57057 0.0   0.93608
 Cu 0.0 0.0 0.57057   0.93608
 Cu 0.57057 0.0 0.0   0.936082
 Cu 0.0 0.42943 0.57057   0.936082
 Cu 0.42943 0.0 0.0   0.93608
 Cu 0.0 0.57057 0.42943   0.93608
 H 0.728 0.728 0.5116   0.114704
 H 0.728 0.728 0.0324   0.114704
 H 0.5116 0.0324 0.728   0.114704
 H 0.0324 0.5116 0.728   0.114704
 H 0.728 0.5116 0.0324   0.114704
 H 0.728 0.0324 0.5116   0.114704
 H 0.5116 0.728 0.728   0.114704
 H 0.0324 0.728 0.728   0.114704
 H 0.728 0.0324 0.728   0.114704
 H 0.728 0.5116 0.728   0.114704
 H 0.5116 0.728 0.0324   0.114704
 H 0.0324 0.728 0.5116   0.114704
 H 0.272 0.272 0.4884   0.114703
 H 0.272 0.272 0.9676   0.114702
 H 0.9676 0.4884 0.272   0.114702
 H 0.4884 0.9676 0.272   0.114702
 H 0.4884 0.272 0.9676   0.114702
 H 0.9676 0.272 0.4884   0.114702
 H 0.272 0.4884 0.272   0.114703
 H 0.272 0.9676 0.272   0.114702
 H 0.9676 0.272 0.272   0.114702
 H 0.4884 0.272 0.272   0.114703
 H 0.272 0.4884 0.9676   0.114702
 H 0.272 0.9676 0.4884   0.114702
 C 0.257 0.969 0.387   -0.170037
 C 0.969 0.257 0.387   -0.170038
 C 0.387 0.387 0.257   -0.170037
 C 0.387 0.387 0.969   -0.170038
 C 0.257 0.387 0.387   -0.170038
 C 0.969 0.387 0.387   -0.170039
 C 0.387 0.257 0.969   -0.170038
 C 0.387 0.969 0.257   -0.170039
 C 0.257 0.387 0.969   -0.170038
 C 0.969 0.387 0.257   -0.170039
 C 0.387 0.969 0.387   -0.170038
 C 0.387 0.257 0.387   -0.170039
 C 0.031 0.743 0.613   -0.170037
 C 0.743 0.031 0.613   -0.170038
 C 0.613 0.613 0.743   -0.170037
 C 0.613 0.613 0.031   -0.170038
 C 0.613 0.743 0.613   -0.170037
 C 0.613 0.031 0.613   -0.170038
 C 0.743 0.613 0.031   -0.170037
 C 0.031 0.613 0.743   -0.170038
 C 0.613 0.743 0.031   -0.170038
 C 0.613 0.031 0.743   -0.170039
 C 0.031 0.613 0.613   -0.170037
 C 0.743 0.613 0.613   -0.170039
 C 0.5687 0.5687 0.8377   0.692404
 C 0.5687 0.5687 0.0249   0.692405
 C 0.8377 0.0249 0.5687   0.692405
 C 0.0249 0.8377 0.5687   0.692405
 C 0.5687 0.8377 0.0249   0.692405
 C 0.5687 0.0249 0.8377   0.692405
 C 0.8377 0.5687 0.5687   0.692405
 C 0.0249 0.5687 0.5687   0.692405
 C 0.5687 0.0249 0.5687   0.692405
 C 0.5687 0.8377 0.5687   0.692404
 C 0.8377 0.5687 0.0249   0.692405
 C 0.0249 0.5687 0.8377   0.692405
 C 0.4313 0.4313 0.1623   0.692405
 C 0.4313 0.4313 0.9751   0.692406
 C 0.9751 0.1623 0.4313   0.692405
 C 0.1623 0.9751 0.4313   0.692405
 C 0.1623 0.4313 0.9751   0.692405
 C 0.9751 0.4313 0.1623   0.692405
 C 0.4313 0.1623 0.4313   0.692405
 C 0.4313 0.9751 0.4313   0.692406
 C 0.9751 0.4313 0.4313   0.692406
 C 0.1623 0.4313 0.4313   0.692405
 C 0.4313 0.1623 0.9751   0.692405
 C 0.4313 0.9751 0.1623   0.692405
 C 0.3006 0.9684 0.4304   0.034202
 C 0.9684 0.3006 0.3006   0.034203
 C 0.4304 0.3006 0.3006   0.034202
 C 0.3006 0.4304 0.9684   0.034203
 C 0.3006 0.4304 0.3006   0.034201
 C 0.9684 0.3006 0.4304   0.034202
 C 0.4304 0.3006 0.9684   0.034202
 C 0.3006 0.9684 0.3006   0.034202
 C 0.3006 0.3006 0.9684   0.034202
 C 0.9684 0.4304 0.3006   0.034202
 C 0.4304 0.9684 0.3006   0.034202
 C 0.3006 0.3006 0.4304   0.034201
 C 0.0316 0.6994 0.5696   0.034201
 C 0.6994 0.0316 0.6994   0.034201
 C 0.6994 0.5696 0.6994   0.0342
 C 0.5696 0.6994 0.0316   0.034201
 C 0.5696 0.6994 0.6994   0.0342
 C 0.6994 0.0316 0.5696   0.034201
 C 0.6994 0.5696 0.0316   0.0342
 C 0.0316 0.6994 0.6994   0.034201
 C 0.6994 0.6994 0.0316   0.0342
 C 0.5696 0.0316 0.6994   0.0342
 C 0.0316 0.5696 0.6994   0.0342
 C 0.6994 0.6994 0.5696   0.034199
 O 0.61201 0.49247 0.87425   -0.569656
 O 0.49247 0.61201 0.02127   -0.569656
 O 0.87425 0.02127 0.61201   -0.569656
 O 0.02127 0.87425 0.49247   -0.569656
 O 0.61201 0.87425 0.02127   -0.569656
 O 0.49247 0.02127 0.87425   -0.569656
 O 0.87425 0.61201 0.49247   -0.569656
 O 0.02127 0.49247 0.61201   -0.569657
 O 0.61201 0.02127 0.49247   -0.569657
 O 0.49247 0.87425 0.61201   -0.569656
 O 0.87425 0.49247 0.02127   -0.569656
 O 0.02127 0.61201 0.87425   -0.569656
 O 0.50753 0.38799 0.12575   -0.569656
 O 0.38799 0.50753 0.97873   -0.569656
 O 0.97873 0.12575 0.38799   -0.569656
 O 0.12575 0.97873 0.50753   -0.569656
 O 0.12575 0.38799 0.97873   -0.569656
 O 0.97873 0.50753 0.12575   -0.569656
 O 0.38799 0.12575 0.50753   -0.569656
 O 0.50753 0.97873 0.38799   -0.569657
 O 0.97873 0.38799 0.50753   -0.569657
 O 0.12575 0.50753 0.38799   -0.569656
 O 0.50753 0.12575 0.97873   -0.569656
 O 0.38799 0.97873 0.12575   -0.569656
 O 0.38799 0.50753 0.12575   -0.569655
 O 0.50753 0.38799 0.97873   -0.569656
 O 0.12575 0.97873 0.38799   -0.569656
 O 0.97873 0.12575 0.50753   -0.569655
 O 0.38799 0.12575 0.97873   -0.569656
 O 0.50753 0.97873 0.12575   -0.569656
 O 0.12575 0.38799 0.50753   -0.569655
 O 0.97873 0.50753 0.38799   -0.569656
 O 0.38799 0.97873 0.50753   -0.569656
 O 0.50753 0.12575 0.38799   -0.569656
 O 0.12575 0.50753 0.97873   -0.569656
 O 0.97873 0.38799 0.12575   -0.569656
 O 0.49247 0.61201 0.87425   -0.569655
 O 0.61201 0.49247 0.02127   -0.569656
 O 0.02127 0.87425 0.61201   -0.569656
 O 0.87425 0.02127 0.49247   -0.569656
 O 0.87425 0.61201 0.02127   -0.569656
 O 0.02127 0.49247 0.87425   -0.569655
 O 0.61201 0.87425 0.49247   -0.569656
 O 0.49247 0.02127 0.61201   -0.569656
 O 0.02127 0.61201 0.49247   -0.569656
 O 0.87425 0.49247 0.61201   -0.569655
 O 0.49247 0.87425 0.02127   -0.569655
 O 0.61201 0.02127 0.87425   -0.569656
