{'_ref': 'TBD', '_srcid': 'CAKYAQ_clean', 'submitters': [{'name': 'Dalar Nazarian Jeff Camp and David Sholl', 'email': 'dalar@gatech.edu jcamp6@gatech.edu'}], '_method': 'VASP DFT with PBE;DDEC'}
data_CoH2(CO2)2
_symmetry_space_group_name_H-M   'P 1'
_cell_length_a   9.83350000
_cell_length_b   11.27270037
_cell_length_c   14.42490000
_cell_angle_alpha   91.24199965
_cell_angle_beta   90.00000000
_cell_angle_gamma   90.00000000
_symmetry_Int_Tables_number   1
_chemical_formula_structural   CoH2(CO2)2
_chemical_formula_sum   'Co12 H24 C24 O48'
_cell_volume   1598.62593033
_cell_formula_units_Z   12
loop_
 _symmetry_equiv_pos_site_id
 _symmetry_equiv_pos_as_xyz
  1  'x, y, z'
loop_
 _atom_site_label
 _atom_site_fract_x
 _atom_site_fract_y
 _atom_site_fract_z
 _atom_site_charge
 Co 0.91933 0.75532 0.63285   1.118368
 Co 0.60929 0.76008 0.68877   1.105741
 Co 0.41933 0.74468 0.86715   1.118368
 Co 0.10929 0.73992 0.81123   1.105741
 Co 0.08067 0.24468 0.36715   1.118367
 Co 0.39071 0.23992 0.31123   1.105741
 Co 0.58067 0.25532 0.13285   1.118367
 Co 0.89071 0.26008 0.18877   1.105741
 Co 0.0 0.5 0.5   1.130579
 Co 0.5 0.0 0.0   1.130579
 Co 0.0 0.0 0.5   1.144028
 Co 0.5 0.5 0.0   1.144028
 H 0.164 0.701 0.432   0.00637
 H 0.714 0.989 0.504   0.011782
 H 0.758 0.859 0.865   -0.010158
 H 0.623 0.554 0.541   0.00223
 H 0.189 0.982 0.744   0.014624
 H 0.039 0.484 0.758   -0.020696
 H 0.664 0.799 0.068   0.00637
 H 0.214 0.511 0.996   0.011782
 H 0.258 0.641 0.635   -0.010158
 H 0.123 0.946 0.959   0.002228
 H 0.689 0.518 0.756   0.014622
 H 0.539 0.016 0.742   -0.020696
 H 0.836 0.299 0.568   0.006355
 H 0.286 0.011 0.496   0.011779
 H 0.242 0.141 0.135   -0.010158
 H 0.377 0.446 0.459   0.002215
 H 0.811 0.018 0.256   0.014618
 H 0.961 0.516 0.242   -0.020705
 H 0.336 0.201 0.932   0.006355
 H 0.786 0.489 0.004   0.011778
 H 0.742 0.359 0.365   -0.010158
 H 0.877 0.054 0.041   0.002213
 H 0.311 0.482 0.244   0.014616
 H 0.461 0.984 0.258   -0.020705
 C 0.1086 0.7424 0.4713   0.712442
 C 0.7205 0.9266 0.5478   0.685502
 C 0.8276 0.8322 0.8301   0.712758
 C 0.7113 0.575 0.5475   0.702709
 C 0.1256 0.9559 0.6891   0.644253
 C 0.0134 0.5167 0.7123   0.751731
 C 0.6086 0.7576 0.0287   0.712442
 C 0.2205 0.5734 0.9522   0.685503
 C 0.3276 0.6678 0.6699   0.712756
 C 0.2113 0.925 0.9525   0.702709
 C 0.6256 0.5441 0.8109   0.644252
 C 0.5134 0.9833 0.7877   0.751729
 C 0.8914 0.2576 0.5287   0.712444
 C 0.2795 0.0734 0.4522   0.685499
 C 0.1724 0.1678 0.1699   0.712755
 C 0.2887 0.425 0.4525   0.702707
 C 0.8744 0.0441 0.3109   0.64425
 C 0.9866 0.4833 0.2877   0.751731
 C 0.3914 0.2424 0.9713   0.712444
 C 0.7795 0.4266 0.0478   0.685499
 C 0.6724 0.3322 0.3301   0.712753
 C 0.7887 0.075 0.0475   0.702707
 C 0.3744 0.4559 0.1891   0.644249
 C 0.4866 0.0167 0.2123   0.751729
 O 0.0275 0.685 0.52351   -0.680894
 O 0.1169 0.8512 0.4678   -0.591989
 O 0.8443 0.8963 0.55865   -0.664877
 O 0.6213 0.8866 0.5899   -0.576858
 O 0.799 0.8105 0.74521   -0.670365
 O 0.9383 0.8163 0.86798   -0.585561
 O 0.742 0.6529 0.6088   -0.686302
 O 0.7917 0.5176 0.4983   -0.587805
 O 0.0832 0.8503 0.69528   -0.661974
 O 0.0993 0.0253 0.626   -0.57156
 O 0.0031 0.6287 0.71948   -0.690185
 O 0.998 0.4569 0.6407   -0.606558
 O 0.5275 0.815 0.97649   -0.680894
 O 0.6169 0.6488 0.0322   -0.591989
 O 0.3443 0.6037 0.94135   -0.664877
 O 0.1213 0.6134 0.9101   -0.576859
 O 0.299 0.6895 0.75479   -0.670365
 O 0.4383 0.6837 0.63202   -0.585562
 O 0.242 0.8471 0.8912   -0.686302
 O 0.2917 0.9824 0.0017   -0.587805
 O 0.5832 0.6497 0.80472   -0.661973
 O 0.5993 0.4747 0.874   -0.57156
 O 0.5031 0.8713 0.78052   -0.690185
 O 0.498 0.0431 0.8593   -0.606558
 O 0.9725 0.315 0.47649   -0.680894
 O 0.8831 0.1488 0.5322   -0.591989
 O 0.1557 0.1037 0.44135   -0.664877
 O 0.3787 0.1134 0.4101   -0.576858
 O 0.201 0.1895 0.25479   -0.670365
 O 0.0617 0.1837 0.13202   -0.585561
 O 0.258 0.3471 0.3912   -0.686302
 O 0.2083 0.4824 0.5017   -0.587803
 O 0.9168 0.1497 0.30472   -0.661973
 O 0.9007 0.9747 0.374   -0.57156
 O 0.9969 0.3713 0.28052   -0.690185
 O 0.002 0.5431 0.3593   -0.606556
 O 0.4725 0.185 0.02351   -0.680894
 O 0.3831 0.3512 0.9678   -0.591989
 O 0.6557 0.3963 0.05865   -0.664877
 O 0.8787 0.3866 0.0899   -0.576859
 O 0.701 0.3105 0.24521   -0.670364
 O 0.5617 0.3163 0.36798   -0.585562
 O 0.758 0.1529 0.1088   -0.686302
 O 0.7083 0.0176 0.9983   -0.587803
 O 0.4168 0.3503 0.19528   -0.661973
 O 0.4007 0.5253 0.126   -0.57156
 O 0.4969 0.1287 0.21948   -0.690185
 O 0.502 0.9569 0.1407   -0.606556
