{'_ref': 'TBD', '_srcid': 'CAKYAQ_clean', 'submitters': [{'name': 'Dalar Nazarian Jeff Camp and David Sholl', 'email': 'dalar@gatech.edu jcamp6@gatech.edu'}], '_method': 'VASP DFT with PBE;DDEC'}
data_MgH8(C5O3)2
_symmetry_space_group_name_H-M   'P 1'
_cell_length_a   7.33320002
_cell_length_b   7.70880000
_cell_length_c   12.07000000
_cell_angle_alpha   90.00000000
_cell_angle_beta   91.41999966
_cell_angle_gamma   90.00000000
_symmetry_Int_Tables_number   1
_chemical_formula_structural   MgH8(C5O3)2
_chemical_formula_sum   'Mg2 H16 C20 O12'
_cell_volume   682.109640145
_cell_formula_units_Z   2
loop_
 _symmetry_equiv_pos_site_id
 _symmetry_equiv_pos_as_xyz
  1  'x, y, z'
loop_
 _atom_site_label
 _atom_site_fract_x
 _atom_site_fract_y
 _atom_site_fract_z
 _atom_site_charge
 Mg 0.0 0.5 0.5   1.614258
 Mg 0.5 0.0 0.5   1.61426
 H 0.441 0.6074 0.7049   0.104768
 H 0.5396 0.7829 0.7351   0.092844
 H 0.3444 0.6848 0.8793   0.10112
 H 0.7794 0.3907 0.9528   0.122499
 H 0.059 0.1074 0.2951   0.104768
 H 0.9604 0.2829 0.2649   0.092844
 H 0.1556 0.1848 0.1207   0.10112
 H 0.7206 0.8907 0.0472   0.122499
 H 0.559 0.3926 0.2951   0.104767
 H 0.4604 0.2171 0.2649   0.092843
 H 0.6556 0.3152 0.1207   0.101121
 H 0.2206 0.6093 0.0472   0.122501
 H 0.941 0.8926 0.7049   0.104767
 H 0.0396 0.7171 0.7351   0.092843
 H 0.8444 0.8152 0.8793   0.101121
 H 0.2794 0.1093 0.9528   0.122501
 C 0.6644 0.6526 0.6081   0.793115
 C 0.5591 0.6626 0.7151   -0.101875
 C 0.5743 0.5424 0.899   0.227707
 C 0.407 0.6102 0.9274   -0.198818
 C 0.6662 0.4346 0.9716   -0.162237
 C 0.8356 0.1526 0.3919   0.793115
 C 0.9409 0.1626 0.2849   -0.101875
 C 0.9257 0.0424 0.101   0.227707
 C 0.093 0.1102 0.0726   -0.198819
 C 0.8338 0.9346 0.0284   -0.162235
 C 0.3356 0.3474 0.3919   0.793117
 C 0.4409 0.3374 0.2849   -0.101875
 C 0.4257 0.4576 0.101   0.227709
 C 0.593 0.3898 0.0726   -0.198827
 C 0.3338 0.5654 0.0284   -0.162245
 C 0.1644 0.8474 0.6081   0.793116
 C 0.0591 0.8374 0.7151   -0.101875
 C 0.0743 0.9576 0.899   0.227709
 C 0.907 0.8898 0.9274   -0.198827
 C 0.1662 0.0654 0.9716   -0.162244
 O 0.7893 0.5436 0.6028   -0.758293
 O 0.6162 0.7537 0.53087   -0.785078
 O 0.6604 0.5775 0.80032   -0.242876
 O 0.7107 0.0436 0.3972   -0.758293
 O 0.8838 0.2537 0.46913   -0.785077
 O 0.8396 0.0775 0.19968   -0.242876
 O 0.2107 0.4564 0.3972   -0.758293
 O 0.3838 0.2463 0.46913   -0.785078
 O 0.3396 0.4225 0.19968   -0.242876
 O 0.2893 0.9564 0.6028   -0.758293
 O 0.1162 0.7463 0.53087   -0.785077
 O 0.1604 0.9225 0.80032   -0.242876
