{'_ref': 'TBD', '_srcid': 'CAKYAQ_clean', 'submitters': [{'name': 'Dalar Nazarian Jeff Camp and David Sholl', 'email': 'dalar@gatech.edu jcamp6@gatech.edu'}], '_method': 'VASP DFT with PBE;DDEC'}
data_NaMnH16C14(NO2)2
_symmetry_space_group_name_H-M   'P 1'
_cell_length_a   10.82810000
_cell_length_b   10.82810000
_cell_length_c   19.04300000
_cell_angle_alpha   90.00000000
_cell_angle_beta   90.00000000
_cell_angle_gamma   90.00000000
_symmetry_Int_Tables_number   1
_chemical_formula_structural   NaMnH16C14(NO2)2
_chemical_formula_sum   'Na4 Mn4 H64 C56 N8 O16'
_cell_volume   2232.74889582
_cell_formula_units_Z   4
loop_
 _symmetry_equiv_pos_site_id
 _symmetry_equiv_pos_as_xyz
  1  'x, y, z'
loop_
 _atom_site_label
 _atom_site_fract_x
 _atom_site_fract_y
 _atom_site_fract_z
 _atom_site_charge
 Na 0.4816 0.1827 0.0561   0.949602
 Na 0.5184 0.8173 0.5561   0.949602
 Na 0.8173 0.4816 0.3061   0.949602
 Na 0.1827 0.5184 0.8061   0.949602
 Mn 0.39729 0.0229 0.89477   1.063378
 Mn 0.60271 0.9771 0.39477   1.063378
 Mn 0.9771 0.39729 0.14477   1.063378
 Mn 0.0229 0.60271 0.64477   1.063378
 H 0.1438 0.2049 0.7334   0.121907
 H 0.0072 0.0843 0.6712   0.102394
 H 0.9912 0.877 0.6939   0.086696
 H 0.1151 0.7848 0.7769   0.085335
 H 0.563 0.2734 0.8332   0.120124
 H 0.5062 0.4061 0.8392   0.113879
 H 0.5878 0.3535 0.9003   0.136236
 H 0.4149 0.3859 0.9878   0.113058
 H 0.3399 0.4463 0.9263   0.100528
 H 0.2825 0.3371 0.9694   0.127079
 H 0.5705 0.6952 0.9532   0.130411
 H 0.4825 0.6221 0.9027   0.11364
 H 0.5477 0.7428 0.8765   0.116384
 H 0.2816 0.7793 0.0241   0.125091
 H 0.3079 0.6462 0.9953   0.116559
 H 0.4067 0.7134 0.0418   0.126775
 H 0.8562 0.7951 0.2334   0.121907
 H 0.9928 0.9157 0.1712   0.102394
 H 0.0088 0.123 0.1939   0.086696
 H 0.8849 0.2152 0.2769   0.085335
 H 0.437 0.7266 0.3332   0.120124
 H 0.4938 0.5939 0.3392   0.113879
 H 0.4122 0.6465 0.4003   0.136236
 H 0.5851 0.6141 0.4878   0.113058
 H 0.6601 0.5537 0.4263   0.100528
 H 0.7175 0.6629 0.4694   0.127079
 H 0.4295 0.3048 0.4532   0.130411
 H 0.5175 0.3779 0.4027   0.11364
 H 0.4523 0.2572 0.3765   0.116384
 H 0.7184 0.2207 0.5241   0.125091
 H 0.6921 0.3538 0.4953   0.116559
 H 0.5933 0.2866 0.5418   0.126775
 H 0.7951 0.1438 0.9834   0.121907
 H 0.9157 0.0072 0.9212   0.102394
 H 0.123 0.9912 0.9439   0.086695
 H 0.2152 0.1151 0.0269   0.085335
 H 0.7266 0.563 0.0832   0.120124
 H 0.5939 0.5062 0.0892   0.113879
 H 0.6465 0.5878 0.1503   0.136236
 H 0.6141 0.4149 0.2378   0.113058
 H 0.5537 0.3399 0.1763   0.100528
 H 0.6629 0.2825 0.2194   0.127079
 H 0.3048 0.5705 0.2032   0.130411
 H 0.3779 0.4825 0.1527   0.11364
 H 0.2572 0.5477 0.1265   0.116384
 H 0.2207 0.2816 0.2741   0.12509
 H 0.3538 0.3079 0.2453   0.116559
 H 0.2866 0.4067 0.2918   0.126776
 H 0.2049 0.8562 0.4834   0.121907
 H 0.0843 0.9928 0.4212   0.102394
 H 0.877 0.0088 0.4439   0.086695
 H 0.7848 0.8849 0.5269   0.085335
 H 0.2734 0.437 0.5832   0.120124
 H 0.4061 0.4938 0.5892   0.113879
 H 0.3535 0.4122 0.6503   0.136236
 H 0.3859 0.5851 0.7378   0.113058
 H 0.4463 0.6601 0.6763   0.100528
 H 0.3371 0.7175 0.7194   0.127079
 H 0.6952 0.4295 0.7032   0.130411
 H 0.6221 0.5175 0.6527   0.11364
 H 0.7428 0.4523 0.6265   0.116384
 H 0.7793 0.7184 0.7741   0.12509
 H 0.6462 0.6921 0.7453   0.116559
 H 0.7134 0.5933 0.7918   0.126776
 C 0.2088 0.938 0.80375   0.178587
 C 0.2159 0.0659 0.79158   0.1757
 C 0.1393 0.1204 0.7418   -0.170246
 C 0.0572 0.0485 0.7052   -0.09037
 C 0.0483 0.9243 0.7185   -0.08295
 C 0.1228 0.8688 0.7679   -0.165296
 C 0.3192 0.248 0.84342   0.555404
 C 0.4133 0.2789 0.8994   0.32104
 C 0.5282 0.333 0.8648   -0.397785
 C 0.3576 0.3704 0.9504   -0.408822
 C 0.3045 0.784 0.88304   0.558454
 C 0.4012 0.7791 0.94205   0.316188
 C 0.5106 0.7027 0.9162   -0.397799
 C 0.3442 0.7246 0.0066   -0.400314
 C 0.7912 0.062 0.30375   0.178587
 C 0.7841 0.9341 0.29158   0.1757
 C 0.8607 0.8796 0.2418   -0.170246
 C 0.9428 0.9515 0.2052   -0.090369
 C 0.9517 0.0757 0.2185   -0.08295
 C 0.8772 0.1312 0.2679   -0.165296
 C 0.6808 0.752 0.34342   0.555404
 C 0.5867 0.7211 0.3994   0.32104
 C 0.4718 0.667 0.3648   -0.397785
 C 0.6424 0.6296 0.4504   -0.408822
 C 0.6955 0.216 0.38304   0.558454
 C 0.5988 0.2209 0.44205   0.316188
 C 0.4894 0.2973 0.4162   -0.397799
 C 0.6558 0.2754 0.5066   -0.400314
 C 0.062 0.2088 0.05375   0.178587
 C 0.9341 0.2159 0.04158   0.175699
 C 0.8796 0.1393 0.9918   -0.170246
 C 0.9515 0.0572 0.9552   -0.09037
 C 0.0757 0.0483 0.9685   -0.082951
 C 0.1312 0.1228 0.0179   -0.165296
 C 0.752 0.3192 0.09342   0.555403
 C 0.7211 0.4133 0.1494   0.32104
 C 0.667 0.5282 0.1148   -0.397785
 C 0.6296 0.3576 0.2004   -0.408822
 C 0.216 0.3045 0.13304   0.558454
 C 0.2209 0.4012 0.19205   0.316188
 C 0.2973 0.5106 0.1662   -0.397799
 C 0.2754 0.3442 0.2566   -0.400314
 C 0.938 0.7912 0.55375   0.178587
 C 0.0659 0.7841 0.54158   0.175699
 C 0.1204 0.8607 0.4918   -0.170246
 C 0.0485 0.9428 0.4552   -0.09037
 C 0.9243 0.9517 0.4685   -0.082951
 C 0.8688 0.8772 0.5179   -0.165296
 C 0.248 0.6808 0.59342   0.555403
 C 0.2789 0.5867 0.6494   0.32104
 C 0.333 0.4718 0.6148   -0.397785
 C 0.3704 0.6424 0.7004   -0.408822
 C 0.784 0.6955 0.63304   0.558454
 C 0.7791 0.5988 0.69205   0.316188
 C 0.7027 0.4894 0.6662   -0.397799
 C 0.7246 0.6558 0.7566   -0.400314
 N 0.3024 0.1269 0.83467   -0.546435
 N 0.2923 0.8972 0.85557   -0.556466
 N 0.6976 0.8731 0.33467   -0.546435
 N 0.7077 0.1028 0.35557   -0.556466
 N 0.8731 0.3024 0.08467   -0.546435
 N 0.1028 0.2923 0.10557   -0.556466
 N 0.1269 0.6976 0.58467   -0.546435
 N 0.8972 0.7077 0.60557   -0.556466
 O 0.4467 0.16985 0.93727   -0.748016
 O 0.2666 0.3314 0.81007   -0.663312
 O 0.4431 0.90023 0.95774   -0.660352
 O 0.248 0.68962 0.86488   -0.666286
 O 0.5533 0.83015 0.43727   -0.748016
 O 0.7334 0.6686 0.31007   -0.663312
 O 0.5569 0.09977 0.45774   -0.660352
 O 0.752 0.31038 0.36488   -0.666286
 O 0.83015 0.4467 0.18727   -0.748016
 O 0.6686 0.2666 0.06007   -0.663312
 O 0.09977 0.4431 0.20774   -0.660352
 O 0.31038 0.248 0.11488   -0.666286
 O 0.16985 0.5533 0.68727   -0.748016
 O 0.3314 0.7334 0.56007   -0.663312
 O 0.90023 0.5569 0.70774   -0.660352
 O 0.68962 0.752 0.61488   -0.666286
