{'_ref': 'TBD', '_srcid': 'CAKYAQ_clean', 'submitters': [{'name': 'Dalar Nazarian Jeff Camp and David Sholl', 'email': 'dalar@gatech.edu jcamp6@gatech.edu'}], '_method': 'VASP DFT with PBE;DDEC'}
data_Gd2H7C18S3O13
_symmetry_space_group_name_H-M   'P 1'
_cell_length_a   10.80380000
_cell_length_b   17.53870044
_cell_length_c   17.72830000
_cell_angle_alpha   104.79300025
_cell_angle_beta   90.00000000
_cell_angle_gamma   90.00000000
_symmetry_Int_Tables_number   1
_chemical_formula_structural   Gd2H7C18S3O13
_chemical_formula_sum   'Gd8 H28 C72 S12 O52'
_cell_volume   3247.89665067
_cell_formula_units_Z   4
loop_
 _symmetry_equiv_pos_site_id
 _symmetry_equiv_pos_as_xyz
  1  'x, y, z'
loop_
 _atom_site_label
 _atom_site_fract_x
 _atom_site_fract_y
 _atom_site_fract_z
 _atom_site_charge
 Gd 0.61505 0.58311 0.98698   2.13911
 Gd 0.57362 0.88833 0.01272   2.141197
 Gd 0.11505 0.91689 0.51302   2.13911
 Gd 0.07362 0.61167 0.48728   2.141198
 Gd 0.38495 0.41689 0.01302   2.139173
 Gd 0.42638 0.11167 0.98728   2.141225
 Gd 0.88495 0.08311 0.48698   2.139173
 Gd 0.92638 0.38833 0.51272   2.141225
 H 0.738 0.7937 0.7796   0.111388
 H 0.8524 0.7254 0.6613   0.130468
 H 0.6721 0.1761 0.6827   0.119969
 H 0.5787 0.2341 0.8119   0.127971
 H 0.3763 0.5876 0.6745   0.12822
 H 0.4581 0.5815 0.8021   0.104501
 H 0.448 0.75 0.975   0.301794
 H 0.238 0.7063 0.7204   0.111359
 H 0.3524 0.7746 0.8387   0.130486
 H 0.1721 0.3239 0.8173   0.119966
 H 0.0787 0.2659 0.6881   0.127975
 H 0.8763 0.9124 0.8255   0.128196
 H 0.9581 0.9185 0.6979   0.104498
 H 0.948 0.75 0.525   0.30182
 H 0.262 0.2063 0.2204   0.111388
 H 0.1476 0.2746 0.3387   0.130466
 H 0.3279 0.8239 0.3173   0.119969
 H 0.4213 0.7659 0.1881   0.12797
 H 0.6237 0.4124 0.3255   0.128221
 H 0.5419 0.4185 0.1979   0.104502
 H 0.552 0.25 0.025   0.301794
 H 0.762 0.2937 0.2796   0.111359
 H 0.6476 0.2254 0.1613   0.130485
 H 0.8279 0.6761 0.1827   0.119966
 H 0.9213 0.7341 0.3119   0.127974
 H 0.1237 0.0876 0.1745   0.128197
 H 0.0419 0.0815 0.3021   0.104498
 H 0.052 0.25 0.475   0.30182
 C 0.6195 0.7106 0.8723   0.796593
 C 0.69 0.6889 0.7983   -0.237909
 C 0.7433 0.7379 0.7616   -0.023478
 C 0.8084 0.699 0.6936   -0.052978
 C 0.8005 0.6195 0.6798   -0.16775
 C 0.8544 0.5581 0.6145   0.788531
 C 0.8376 0.2655 0.6166   0.78268
 C 0.7669 0.2788 0.6918   -0.203485
 C 0.689 0.228 0.7134   -0.051098
 C 0.6356 0.2613 0.7873   -0.031183
 C 0.6742 0.3365 0.8194   -0.200392
 C 0.6355 0.3905 0.8938   0.802412
 C 0.1616 0.5021 0.6119   0.787633
 C 0.2356 0.514 0.6852   -0.180765
 C 0.3391 0.5576 0.706   -0.0783
 C 0.3863 0.554 0.7788   -0.027015
 C 0.3176 0.507 0.8117   -0.203939
 C 0.3347 0.4894 0.888   0.756785
 C 0.1195 0.7894 0.6277   0.796593
 C 0.19 0.8111 0.7017   -0.237913
 C 0.2433 0.7621 0.7384   -0.023426
 C 0.3084 0.801 0.8064   -0.052978
 C 0.3005 0.8805 0.8202   -0.167749
 C 0.3544 0.9419 0.8855   0.788531
 C 0.3376 0.2345 0.8834   0.782682
 C 0.2669 0.2212 0.8082   -0.203518
 C 0.189 0.272 0.7866   -0.051069
 C 0.1356 0.2387 0.7127   -0.031222
 C 0.1742 0.1635 0.6806   -0.200371
 C 0.1355 0.1095 0.6062   0.802414
 C 0.6616 0.9979 0.8881   0.787634
 C 0.7356 0.986 0.8148   -0.180768
 C 0.8391 0.9424 0.794   -0.078294
 C 0.8863 0.946 0.7212   -0.027018
 C 0.8176 0.993 0.6883   -0.203928
 C 0.8347 0.0106 0.612   0.756781
 C 0.3805 0.2894 0.1277   0.796597
 C 0.31 0.3111 0.2017   -0.237908
 C 0.2567 0.2621 0.2384   -0.023481
 C 0.1916 0.301 0.3064   -0.05296
 C 0.1995 0.3805 0.3202   -0.167751
 C 0.1456 0.4419 0.3855   0.788542
 C 0.1624 0.7345 0.3834   0.782689
 C 0.2331 0.7212 0.3082   -0.203487
 C 0.311 0.772 0.2866   -0.051097
 C 0.3644 0.7387 0.2127   -0.031182
 C 0.3258 0.6635 0.1806   -0.200395
 C 0.3645 0.6095 0.1062   0.80243
 C 0.8384 0.4979 0.3881   0.787653
 C 0.7644 0.486 0.3148   -0.180767
 C 0.6609 0.4424 0.294   -0.0783
 C 0.6137 0.446 0.2212   -0.027014
 C 0.6824 0.493 0.1883   -0.203941
 C 0.6653 0.5106 0.112   0.756801
 C 0.8805 0.2106 0.3723   0.796596
 C 0.81 0.1889 0.2983   -0.237913
 C 0.7567 0.2379 0.2616   -0.023429
 C 0.6916 0.199 0.1936   -0.052961
 C 0.6995 0.1195 0.1798   -0.167749
 C 0.6456 0.0581 0.1145   0.788542
 C 0.6624 0.7655 0.1166   0.782691
 C 0.7331 0.7788 0.1918   -0.203519
 C 0.811 0.728 0.2134   -0.051069
 C 0.8644 0.7613 0.2873   -0.031221
 C 0.8258 0.8365 0.3194   -0.200373
 C 0.8645 0.8905 0.3938   0.802433
 C 0.3384 0.0021 0.1119   0.787653
 C 0.2644 0.014 0.1852   -0.18077
 C 0.1609 0.0576 0.206   -0.078293
 C 0.1137 0.054 0.2788   -0.027017
 C 0.1824 0.007 0.3117   -0.20393
 C 0.1653 0.9894 0.388   0.756797
 S 0.71534 0.59162 0.75011   0.157175
 S 0.77759 0.36803 0.75988   0.18657
 S 0.1935 0.46644 0.7542   0.202547
 S 0.21534 0.90838 0.74989   0.157176
 S 0.27759 0.13197 0.74012   0.186572
 S 0.6935 0.03356 0.7458   0.202547
 S 0.28466 0.40838 0.24989   0.157175
 S 0.22241 0.63197 0.24012   0.186571
 S 0.8065 0.53356 0.2458   0.202548
 S 0.78466 0.09162 0.25011   0.157176
 S 0.72241 0.86803 0.25988   0.186572
 S 0.3065 0.96644 0.2542   0.202547
 O 0.5737 0.6562 0.8987   -0.754051
 O 0.608 0.7823 0.903   -0.702176
 O 0.8228 0.4879 0.6086   -0.680759
 O 0.9278 0.5796 0.5688   -0.746359
 O 0.9092 0.3201 0.6098   -0.672942
 O 0.818 0.2026 0.5666   -0.737158
 O 0.6777 0.4587 0.9117   -0.735494
 O 0.5556 0.3635 0.9341   -0.675786
 O 0.0829 0.4479 0.5997   -0.662499
 O 0.1861 0.5474 0.5693   -0.694797
 O 0.2563 0.4502 0.9129   -0.638528
 O 0.437 0.5109 0.9262   -0.818259
 O 0.395 0.7833 0.0041   -0.588545
 O 0.0737 0.8438 0.6013   -0.754052
 O 0.108 0.7177 0.597   -0.702177
 O 0.3228 0.0121 0.8914   -0.680759
 O 0.4278 0.9204 0.9312   -0.746356
 O 0.4092 0.1799 0.8902   -0.672941
 O 0.318 0.2974 0.9334   -0.737157
 O 0.1777 0.0413 0.5883   -0.735495
 O 0.0556 0.1365 0.5659   -0.675785
 O 0.5829 0.0521 0.9003   -0.662499
 O 0.6861 0.9526 0.9307   -0.694797
 O 0.7563 0.0498 0.5871   -0.638528
 O 0.937 0.9891 0.5738   -0.818258
 O 0.895 0.7167 0.4959   -0.588547
 O 0.4263 0.3438 0.1013   -0.754055
 O 0.392 0.2177 0.097   -0.702178
 O 0.1772 0.5121 0.3914   -0.680759
 O 0.0722 0.4204 0.4312   -0.746357
 O 0.0908 0.6799 0.3902   -0.672927
 O 0.182 0.7974 0.4334   -0.737156
 O 0.3223 0.5413 0.0883   -0.735499
 O 0.4444 0.6365 0.0659   -0.6758
 O 0.9171 0.5521 0.4003   -0.662499
 O 0.8139 0.4526 0.4307   -0.694795
 O 0.7437 0.5498 0.0871   -0.638528
 O 0.563 0.4891 0.0738   -0.818265
 O 0.605 0.2167 0.9959   -0.58854
 O 0.9263 0.1562 0.3987   -0.754056
 O 0.892 0.2823 0.403   -0.702178
 O 0.6772 0.9879 0.1086   -0.680759
 O 0.5722 0.0796 0.0688   -0.746353
 O 0.5908 0.8201 0.1098   -0.672927
 O 0.682 0.7026 0.0666   -0.737155
 O 0.8223 0.9587 0.4117   -0.735499
 O 0.9444 0.8635 0.4341   -0.675799
 O 0.4171 0.9479 0.0997   -0.662499
 O 0.3139 0.0474 0.0693   -0.694795
 O 0.2437 0.9502 0.4129   -0.638527
 O 0.063 0.0109 0.4262   -0.818265
 O 0.105 0.2833 0.5041   -0.588543
