{'_ref': 'TBD', '_srcid': 'CAKYAQ_clean', 'submitters': [{'name': 'Dalar Nazarian Jeff Camp and David Sholl', 'email': 'dalar@gatech.edu jcamp6@gatech.edu'}], '_method': 'VASP DFT with PBE;DDEC'}
data_ZnH12C22BrNO4
_symmetry_space_group_name_H-M   'P 1'
_cell_length_a   11.20380000
_cell_length_b   13.97500000
_cell_length_c   15.84800000
_cell_angle_alpha   90.00000000
_cell_angle_beta   90.00000000
_cell_angle_gamma   90.00000000
_symmetry_Int_Tables_number   1
_chemical_formula_structural   ZnH12C22BrNO4
_chemical_formula_sum   'Zn2 H24 C44 Br2 N2 O8'
_cell_volume   2481.37056804
_cell_formula_units_Z   2
loop_
 _symmetry_equiv_pos_site_id
 _symmetry_equiv_pos_as_xyz
  1  'x, y, z'
loop_
 _atom_site_label
 _atom_site_fract_x
 _atom_site_fract_y
 _atom_site_fract_z
 _atom_site_charge
 Zn 0.5 0.89623 0.0   0.907285
 Zn 0.5 0.10377 0.0   0.907285
 H 0.862 0.8566 0.6724   0.107359
 H 0.7521 0.8564 0.7961   0.09309
 H 0.138 0.1434 0.6724   0.107358
 H 0.2479 0.1436 0.7961   0.09309
 H 0.138 0.8566 0.3276   0.107359
 H 0.2479 0.8564 0.2039   0.09309
 H 0.862 0.1434 0.3276   0.107358
 H 0.7521 0.1436 0.2039   0.09309
 H 0.138 0.1434 0.3276   0.107363
 H 0.2479 0.1436 0.2039   0.09309
 H 0.862 0.8566 0.3276   0.107363
 H 0.7521 0.8564 0.2039   0.09309
 H 0.862 0.1434 0.6724   0.107363
 H 0.7521 0.1436 0.7961   0.09309
 H 0.138 0.8566 0.6724   0.107363
 H 0.2479 0.8564 0.7961   0.09309
 H 0.6677 0.7393 0.0   0.087796
 H 0.6774 0.5745 0.0   0.130715
 H 0.3323 0.2607 0.0   0.087796
 H 0.3226 0.4255 0.0   0.130715
 H 0.3323 0.7393 0.0   0.087797
 H 0.3226 0.5745 0.0   0.130708
 H 0.6677 0.2607 0.0   0.087797
 H 0.6774 0.4255 0.0   0.130708
 C 0.8382 0.9157 0.6969   -0.154616
 C 0.7727 0.9155 0.7702   -0.023466
 C 0.1618 0.0843 0.6969   -0.154615
 C 0.2273 0.0845 0.7702   -0.023466
 C 0.1618 0.9157 0.3031   -0.154616
 C 0.2273 0.9155 0.2298   -0.023466
 C 0.8382 0.0843 0.3031   -0.154616
 C 0.7727 0.0845 0.2298   -0.023466
 C 0.1618 0.0843 0.3031   -0.154618
 C 0.2273 0.0845 0.2298   -0.023465
 C 0.8382 0.9157 0.3031   -0.154617
 C 0.7727 0.9155 0.2298   -0.023465
 C 0.8382 0.0843 0.6969   -0.154618
 C 0.7727 0.0845 0.7702   -0.023465
 C 0.1618 0.9157 0.6969   -0.154617
 C 0.2273 0.9155 0.7702   -0.023465
 C 0.8788 0.0 0.5   0.018103
 C 0.1212 0.0 0.5   0.018104
 C 0.5 0.5508 0.0   0.110536
 C 0.5 0.4492 0.0   0.110532
 C 0.9394 0.0 0.5773   -0.004148
 C 0.8699 0.0 0.6584   0.070855
 C 0.7368 0.0 0.8063   -0.146216
 C 0.6559 0.0 0.8831   0.7064
 C 0.0606 0.0 0.5773   -0.004102
 C 0.1301 0.0 0.6584   0.070849
 C 0.2632 0.0 0.8063   -0.146215
 C 0.3441 0.0 0.8831   0.7064
 C 0.0606 0.0 0.4227   -0.004148
 C 0.1301 0.0 0.3416   0.070855
 C 0.2632 0.0 0.1937   -0.146215
 C 0.3441 0.0 0.1169   0.706401
 C 0.9394 0.0 0.4227   -0.004102
 C 0.8699 0.0 0.3416   0.070849
 C 0.7368 0.0 0.1937   -0.146215
 C 0.6559 0.0 0.1169   0.706401
 C 0.5944 0.7052 0.0   0.169368
 C 0.6016 0.6049 0.0   -0.209118
 C 0.4056 0.2948 0.0   0.169367
 C 0.3984 0.3951 0.0   -0.209117
 C 0.4056 0.7052 0.0   0.169367
 C 0.3984 0.6049 0.0   -0.209116
 C 0.5944 0.2948 0.0   0.169367
 C 0.6016 0.3951 0.0   -0.209115
 Br 0.70755 0.0 0.5   -0.081275
 Br 0.29245 0.0 0.5   -0.081276
 N 0.5 0.7542 0.0   -0.232638
 N 0.5 0.2458 0.0   -0.232638
 O 0.6248 0.92103 0.9105   -0.605706
 O 0.3752 0.07897 0.9105   -0.605706
 O 0.3752 0.92103 0.0895   -0.605706
 O 0.6248 0.07897 0.0895   -0.605706
 O 0.3752 0.07897 0.0895   -0.605706
 O 0.6248 0.92103 0.0895   -0.605706
 O 0.6248 0.07897 0.9105   -0.605706
 O 0.3752 0.92103 0.9105   -0.605706
