{'_ref': 'TBD', '_srcid': 'CAKYAQ_clean', 'submitters': [{'name': 'Dalar Nazarian Jeff Camp and David Sholl', 'email': 'dalar@gatech.edu jcamp6@gatech.edu'}], '_method': 'VASP DFT with PBE;DDEC'}
data_ZnH12C23BrN3O4
_symmetry_space_group_name_H-M   'P 1'
_cell_length_a   11.61510031
_cell_length_b   15.64800000
_cell_length_c   18.16300000
_cell_angle_alpha   90.00000000
_cell_angle_beta   93.20199906
_cell_angle_gamma   90.00000000
_symmetry_Int_Tables_number   1
_chemical_formula_structural   ZnH12C23BrN3O4
_chemical_formula_sum   'Zn2 H24 C46 Br2 N6 O8'
_cell_volume   3296.02761545
_cell_formula_units_Z   2
loop_
 _symmetry_equiv_pos_site_id
 _symmetry_equiv_pos_as_xyz
  1  'x, y, z'
loop_
 _atom_site_label
 _atom_site_fract_x
 _atom_site_fract_y
 _atom_site_fract_z
 _atom_site_charge
 Zn 0.99238 0.0 0.91893   0.866754
 Zn 0.00762 0.0 0.08107   0.866753
 H 0.7424 0.7954 0.8888   0.103129
 H 0.758 0.798 0.11   0.097133
 H 0.6488 0.6717 0.1098   0.108019
 H 0.621 0.6718 0.8931   0.105084
 H 0.2576 0.7954 0.1112   0.10313
 H 0.242 0.798 0.89   0.097133
 H 0.3512 0.6717 0.8902   0.10802
 H 0.379 0.6718 0.1069   0.105085
 H 0.2576 0.2046 0.1112   0.103129
 H 0.242 0.202 0.89   0.097133
 H 0.3512 0.3283 0.8902   0.108019
 H 0.379 0.3282 0.1069   0.105084
 H 0.7424 0.2046 0.8888   0.103129
 H 0.758 0.202 0.11   0.097133
 H 0.6488 0.3283 0.1098   0.10802
 H 0.621 0.3282 0.8931   0.105085
 H 0.1598 0.0 0.8026   0.101652
 H 0.827 0.0 0.7899   0.106684
 H 0.1671 0.0 0.6789   0.128844
 H 0.8235 0.0 0.6634   0.130729
 H 0.8402 0.0 0.1974   0.101652
 H 0.173 0.0 0.2101   0.106684
 H 0.8329 0.0 0.3211   0.128844
 H 0.1765 0.0 0.3366   0.130729
 C 0.7648 0.8059 0.0   -0.140837
 C 0.8485 0.8844 0.000999999999998   0.689221
 C 0.5626 0.5777 0.9995   -0.011997
 C 0.6266 0.6607 0.9999   0.073604
 C 0.7241 0.7715 0.9335   -0.043843
 C 0.7343 0.7719 0.0657   -0.037778
 C 0.6664 0.6967 0.0655   -0.148166
 C 0.6511 0.6959 0.9368   -0.147099
 C 0.2352 0.8059 0.0   -0.140837
 C 0.1515 0.8844 0.999   0.689221
 C 0.4374 0.5777 0.000500000000002   -0.011998
 C 0.3734 0.6607 0.000100000000003   0.073605
 C 0.2759 0.7715 0.0665   -0.043842
 C 0.2657 0.7719 0.9343   -0.037777
 C 0.3336 0.6967 0.9345   -0.148167
 C 0.3489 0.6959 0.0632   -0.1471
 C 0.2352 0.1941 0.0   -0.140837
 C 0.1515 0.1156 0.999   0.689222
 C 0.4374 0.4223 0.000500000000002   -0.011997
 C 0.3734 0.3393 0.000100000000003   0.073604
 C 0.2759 0.2285 0.0665   -0.043843
 C 0.2657 0.2281 0.9343   -0.037778
 C 0.3336 0.3033 0.9345   -0.148166
 C 0.3489 0.3041 0.0632   -0.147099
 C 0.7648 0.1941 0.0   -0.140837
 C 0.8485 0.1156 0.000999999999998   0.689222
 C 0.5626 0.4223 0.9995   -0.011998
 C 0.6266 0.3393 0.9999   0.073605
 C 0.7241 0.2285 0.9335   -0.043842
 C 0.7343 0.2281 0.0657   -0.037777
 C 0.6664 0.3033 0.0655   -0.148167
 C 0.6511 0.3041 0.9368   -0.1471
 C 0.0902 0.0 0.7747   0.16437
 C 0.8969 0.0 0.7673   0.14284
 C 0.0954 0.0 0.6992   -0.15728
 C 0.99721 0.0 0.6529   0.019722
 C 0.8941 0.0 0.6902   -0.159815
 C 0.99872 0.0 0.5699   0.35441
 C 0.9098 0.0 0.2253   0.16437
 C 0.1031 0.0 0.2327   0.14284
 C 0.9046 0.0 0.3008   -0.15728
 C 0.00279 0.0 0.3471   0.019722
 C 0.1059 0.0 0.3098   -0.159815
 C 0.00128 0.0 0.4301   0.354401
 C 0.6156 0.5 0.0029   0.036143
 C 0.3844 0.5 0.9971   0.036143
 Br 0.78067 0.5 0.99938   -0.10266
 Br 0.21933 0.5 0.000619999999998   -0.102659
 N 0.99434 0.0 0.8107   -0.244562
 N 0.0998 0.0 0.5387   -0.193846
 N 0.8969 0.0 0.5328   -0.170189
 N 0.00566 0.0 0.1893   -0.244562
 N 0.9002 0.0 0.4613   -0.193809
 N 0.1031 0.0 0.4672   -0.170152
 O 0.8703 0.9089 0.9395   -0.574647
 O 0.8838 0.9091 0.0626   -0.583739
 O 0.1297 0.9089 0.0605   -0.574647
 O 0.1162 0.9091 0.9374   -0.583739
 O 0.1297 0.0911 0.0605   -0.574647
 O 0.1162 0.0909 0.9374   -0.583739
 O 0.8703 0.0911 0.9395   -0.574647
 O 0.8838 0.0909 0.0626   -0.583739
