{'_ref': 'TBD', '_srcid': 'CAKYAQ_clean', 'submitters': [{'name': 'Dalar Nazarian Jeff Camp and David Sholl', 'email': 'dalar@gatech.edu jcamp6@gatech.edu'}], '_method': 'VASP DFT with PBE;DDEC'}
data_CdH16(C9O2)3
_symmetry_space_group_name_H-M   'P 1'
_cell_length_a   7.95350000
_cell_length_b   26.69799980
_cell_length_c   26.69800000
_cell_angle_alpha   120.00000025
_cell_angle_beta   90.00000000
_cell_angle_gamma   90.00000000
_symmetry_Int_Tables_number   1
_chemical_formula_structural   CdH16(C9O2)3
_chemical_formula_sum   'Cd6 H96 C162 O36'
_cell_volume   4909.60293871
_cell_formula_units_Z   6
loop_
 _symmetry_equiv_pos_site_id
 _symmetry_equiv_pos_as_xyz
  1  'x, y, z'
loop_
 _atom_site_label
 _atom_site_fract_x
 _atom_site_fract_y
 _atom_site_fract_z
 _atom_site_charge
 Cd 0.83333 0.0 0.41882   1.087982
 Cd 0.5 0.41882 0.0   1.088018
 Cd 0.16667 0.58118 0.58118   1.087982
 Cd 0.5 0.58119 0.0   1.08798
 Cd 0.16667 0.41881 0.41881   1.087952
 Cd 0.83333 0.0 0.58119   1.087953
 H 0.6315 0.8511 0.2282   0.094981
 H 0.4289 0.7912 0.1634   0.115129
 H 0.0714 0.8721 0.2839   0.112458
 H 0.274 0.932 0.3487   0.109939
 H 0.2628 0.7159 0.128   0.112277
 H 0.0603 0.6515 0.0676   0.109351
 H 0.7028 0.7716 0.1494   0.093841
 H 0.9052 0.8361 0.21   0.114543
 H 0.9851 0.8463 0.3649   0.111157
 H 0.9176 0.7639 0.2783   0.121102
 H 0.4604 0.7613 0.3411   0.114821
 H 0.5279 0.8437 0.4276   0.128858
 H 0.8696 0.6565 0.239   0.115683
 H 0.8018 0.5709 0.1557   0.127931
 H 0.6803 0.8466 0.4819   0.110707
 H 0.4148 0.7209 0.2367   0.122512
 H 0.29817 0.3771 0.1489   0.095043
 H 0.09557 0.3722 0.2088   0.11512
 H 0.73807 0.4118 0.1279   0.112507
 H 0.94067 0.4167 0.068   0.109924
 H 0.92947 0.4121 0.2841   0.11224
 H 0.72697 0.4161 0.3485   0.1094
 H 0.36947 0.3778 0.2284   0.093876
 H 0.57187 0.3739 0.1639   0.114559
 H 0.65177 0.5186 0.1537   0.111137
 H 0.58427 0.5144 0.2361   0.121109
 H 0.12707 0.5798 0.2387   0.114744
 H 0.19457 0.5839 0.1563   0.128882
 H 0.53627 0.5825 0.3435   0.115672
 H 0.46847 0.5848 0.4291   0.128015
 H 0.34697 0.6353 0.1534   0.110687
 H 0.08147 0.5158 0.2791   0.122474
 H 0.96483 0.7718 0.6229   0.094908
 H 0.76223 0.8366 0.6278   0.115131
 H 0.40473 0.7161 0.5882   0.112433
 H 0.60733 0.6513 0.5833   0.109989
 H 0.59613 0.872 0.5879   0.112311
 H 0.39363 0.9324 0.5839   0.109344
 H 0.03613 0.8506 0.6222   0.093898
 H 0.23853 0.79 0.6261   0.1145
 H 0.31843 0.6351 0.4814   0.111094
 H 0.25093 0.7217 0.4856   0.12112
 H 0.79373 0.6589 0.4202   0.114758
 H 0.86123 0.5724 0.4161   0.128899
 H 0.20293 0.761 0.4175   0.115726
 H 0.13513 0.8443 0.4152   0.127939
 H 0.01363 0.5181 0.3647   0.110646
 H 0.74813 0.7633 0.4842   0.122515
 H 0.3685 0.6229 0.7718   0.094981
 H 0.5711 0.6278 0.8366   0.115129
 H 0.9286 0.5882 0.7161   0.112458
 H 0.726 0.5833 0.6513   0.109939
 H 0.7372 0.5879 0.872   0.112277
 H 0.9397 0.5839 0.9324   0.109351
 H 0.2972 0.6222 0.8506   0.093841
 H 0.0948 0.6261 0.79   0.114543
 H 0.0149 0.4814 0.6351   0.111157
 H 0.0824 0.4856 0.7217   0.121102
 H 0.5396 0.4202 0.6589   0.114821
 H 0.4721 0.4161 0.5724   0.128858
 H 0.1304 0.4175 0.761   0.115683
 H 0.1982 0.4152 0.8443   0.127931
 H 0.3197 0.3647 0.5181   0.110707
 H 0.5852 0.4842 0.7633   0.122512
 H 0.70183 0.2282 0.8511   0.095043
 H 0.90443 0.1634 0.7912   0.11512
 H 0.26193 0.2839 0.8721   0.112507
 H 0.05933 0.3487 0.932   0.109924
 H 0.07053 0.128 0.7159   0.11224
 H 0.27303 0.0676 0.6515   0.1094
 H 0.63053 0.1494 0.7716   0.093877
 H 0.42813 0.21 0.8361   0.114559
 H 0.34823 0.3649 0.8463   0.111137
 H 0.41573 0.2783 0.7639   0.121109
 H 0.87293 0.3411 0.7613   0.114744
 H 0.80543 0.4276 0.8437   0.128882
 H 0.46373 0.239 0.6565   0.115672
 H 0.53153 0.1557 0.5709   0.128015
 H 0.65303 0.4819 0.8466   0.110687
 H 0.91853 0.2367 0.7209   0.122478
 H 0.03517 0.1489 0.3771   0.094908
 H 0.23777 0.2088 0.3722   0.115131
 H 0.59527 0.1279 0.4118   0.112433
 H 0.39267 0.068 0.4167   0.109989
 H 0.40387 0.2841 0.4121   0.112311
 H 0.60637 0.3485 0.4161   0.109344
 H 0.96387 0.2284 0.3778   0.093898
 H 0.76147 0.1639 0.3739   0.1145
 H 0.68157 0.1537 0.5186   0.111094
 H 0.74907 0.2361 0.5144   0.121119
 H 0.20627 0.2387 0.5798   0.114758
 H 0.13877 0.1563 0.5839   0.128899
 H 0.79707 0.3435 0.5825   0.115726
 H 0.86487 0.4291 0.5848   0.127939
 H 0.98637 0.1534 0.6353   0.110645
 H 0.25187 0.2791 0.5158   0.122515
 C 0.6069 0.9345 0.3372   0.636552
 C 0.4728 0.89748 0.29488   -0.144365
 C 0.5192 0.8553 0.2393   -0.039172
 C 0.3979 0.81938 0.20048   -0.142102
 C 0.2301 0.82566 0.21715   0.040662
 C 0.1837 0.86785 0.27265   -0.14629
 C 0.3051 0.9038 0.3115   -0.033561
 C 0.1041 0.78239 0.17501   0.039213
 C 0.1505 0.72708 0.13238   -0.148543
 C 0.0292 0.68847 0.09607   -0.032877
 C 0.8615 0.70517 0.10247   -0.14403
 C 0.815 0.76047 0.14517   -0.039221
 C 0.9363 0.79908 0.18138   -0.141928
 C 0.7257 0.6632 0.0652   0.640716
 C 0.8332 0.9095 0.4549   0.623649
 C 0.7632 0.8532 0.4048   0.0257
 C 0.8799 0.8293 0.3601   0.010265
 C 0.8395 0.7799 0.3083   -0.14844
 C 0.6823 0.7544 0.3011   0.076593
 C 0.5656 0.7783 0.3458   -0.143311
 C 0.606 0.8277 0.3977   -0.034487
 C 0.6489 0.6972 0.2461   0.082742
 C 0.7649 0.6523 0.2219   -0.147274
 C 0.7242 0.601 0.1719   -0.017352
 C 0.901 0.8537 0.4483   0.008113
 C 0.7851 0.8295 0.469   0.018971
 C 0.4924 0.6909 0.2205   -0.151518
 C 0.27357 0.4027 0.0655   0.63656
 C 0.13947 0.3974 0.10252   -0.14435
 C 0.18587 0.384 0.1447   -0.039286
 C 0.06457 0.3811 0.18062   -0.142104
 C 0.89677 0.39149 0.17434   0.040707
 C 0.85037 0.4048 0.13215   -0.146389
 C 0.97177 0.4077 0.0962   -0.033497
 C 0.77077 0.39262 0.21761   0.039186
 C 0.81717 0.4053 0.27292   -0.148481
 C 0.69587 0.4076 0.31153   -0.033028
 C 0.52817 0.3973 0.29483   -0.143819
 C 0.48167 0.3847 0.23953   -0.039411
 C 0.60297 0.3823 0.20092   -0.141863
 C 0.39237 0.402 0.3368   0.640643
 C 0.49987 0.5454 0.0905   0.623451
 C 0.42987 0.5516 0.1468   0.025762
 C 0.54657 0.5308 0.1707   0.010286
 C 0.50617 0.5284 0.2201   -0.14845
 C 0.34897 0.5467 0.2456   0.076558
 C 0.23227 0.5675 0.2217   -0.143198
 C 0.27267 0.57 0.1723   -0.03456
 C 0.31557 0.5489 0.3028   0.082759
 C 0.43157 0.5696 0.3477   -0.147268
 C 0.39087 0.5709 0.399   -0.017451
 C 0.56767 0.5946 0.1463   0.008154
 C 0.45177 0.6395 0.1705   0.019004
 C 0.15907 0.5296 0.3091   -0.151472
 C 0.94023 0.6628 0.5973   0.636427
 C 0.80613 0.70512 0.6026   -0.144176
 C 0.85253 0.7607 0.616   -0.039177
 C 0.73123 0.79952 0.6189   -0.142036
 C 0.56343 0.78285 0.60851   0.040587
 C 0.51703 0.72735 0.5952   -0.146258
 C 0.63843 0.6885 0.5923   -0.033718
 C 0.43743 0.82499 0.60738   0.03924
 C 0.48383 0.86762 0.5947   -0.148631
 C 0.36253 0.90393 0.5924   -0.032856
 C 0.19483 0.89753 0.6027   -0.144065
 C 0.14833 0.85483 0.6153   -0.039264
 C 0.26963 0.81862 0.6177   -0.141833
 C 0.05903 0.9348 0.598   0.640814
 C 0.16653 0.5451 0.4546   0.623507
 C 0.09653 0.5952 0.4484   0.025696
 C 0.21323 0.6399 0.4692   0.010354
 C 0.17283 0.6917 0.4716   -0.14843
 C 0.01563 0.6989 0.4533   0.07661
 C 0.89893 0.6542 0.4325   -0.143261
 C 0.93933 0.6023 0.43   -0.034531
 C 0.98223 0.7539 0.4511   0.08274
 C 0.09823 0.7781 0.4304   -0.147358
 C 0.05753 0.8281 0.4291   -0.017366
 C 0.23433 0.5517 0.4054   0.008169
 C 0.11843 0.531 0.3605   0.019008
 C 0.82573 0.7795 0.4704   -0.151478
 C 0.3931 0.5973 0.6628   0.636553
 C 0.5272 0.6026 0.70512   -0.144366
 C 0.4808 0.616 0.7607   -0.039172
 C 0.6021 0.6189 0.79952   -0.142101
 C 0.7699 0.60851 0.78285   0.040662
 C 0.8163 0.5952 0.72735   -0.14629
 C 0.6949 0.5923 0.6885   -0.033561
 C 0.8959 0.60738 0.82499   0.039213
 C 0.8495 0.5947 0.86762   -0.148542
 C 0.9708 0.5924 0.90393   -0.032877
 C 0.1385 0.6027 0.89753   -0.144029
 C 0.185 0.6153 0.85483   -0.039221
 C 0.0637 0.6177 0.81862   -0.141928
 C 0.2743 0.598 0.9348   0.640716
 C 0.1668 0.4546 0.5451   0.623649
 C 0.2368 0.4484 0.5952   0.0257
 C 0.1201 0.4692 0.6399   0.010265
 C 0.1605 0.4716 0.6917   -0.14844
 C 0.3177 0.4533 0.6989   0.076592
 C 0.4344 0.4325 0.6542   -0.143311
 C 0.394 0.43 0.6023   -0.034487
 C 0.3511 0.4511 0.7539   0.082742
 C 0.2351 0.4304 0.7781   -0.147274
 C 0.2758 0.4291 0.8281   -0.017352
 C 0.099 0.4054 0.5517   0.008113
 C 0.2149 0.3605 0.531   0.018971
 C 0.5076 0.4704 0.7795   -0.151518
 C 0.72643 0.3372 0.9345   0.63656
 C 0.86053 0.29488 0.89748   -0.14435
 C 0.81413 0.2393 0.8553   -0.039286
 C 0.93543 0.20048 0.81938   -0.142104
 C 0.10323 0.21715 0.82566   0.040707
 C 0.14963 0.27265 0.86785   -0.146389
 C 0.02823 0.3115 0.9038   -0.033497
 C 0.22923 0.17501 0.78239   0.039184
 C 0.18283 0.13238 0.72708   -0.14848
 C 0.30413 0.09607 0.68847   -0.033028
 C 0.47183 0.10247 0.70517   -0.143818
 C 0.51833 0.14517 0.76047   -0.039411
 C 0.39703 0.18138 0.79908   -0.141862
 C 0.60763 0.0652 0.6632   0.640643
 C 0.50013 0.4549 0.9095   0.623451
 C 0.57013 0.4048 0.8532   0.025762
 C 0.45343 0.3601 0.8293   0.010286
 C 0.49383 0.3083 0.7799   -0.148451
 C 0.65103 0.3011 0.7544   0.076558
 C 0.76773 0.3458 0.7783   -0.143198
 C 0.72733 0.3977 0.8277   -0.03456
 C 0.68443 0.2461 0.6972   0.082761
 C 0.56843 0.2219 0.6523   -0.147268
 C 0.60913 0.1719 0.601   -0.017451
 C 0.43233 0.4483 0.8537   0.008154
 C 0.54823 0.469 0.8295   0.019004
 C 0.84093 0.2205 0.6909   -0.151481
 C 0.05977 0.0655 0.4027   0.636427
 C 0.19387 0.10252 0.3974   -0.144176
 C 0.14747 0.1447 0.384   -0.039177
 C 0.26877 0.18062 0.3811   -0.142036
 C 0.43657 0.17434 0.39149   0.040587
 C 0.48297 0.13215 0.4048   -0.146258
 C 0.36157 0.0962 0.4077   -0.033718
 C 0.56257 0.21761 0.39262   0.03924
 C 0.51617 0.27292 0.4053   -0.148631
 C 0.63747 0.31153 0.4076   -0.032856
 C 0.80517 0.29483 0.3973   -0.144064
 C 0.85167 0.23953 0.3847   -0.039264
 C 0.73037 0.20092 0.3823   -0.141833
 C 0.94097 0.3368 0.402   0.640815
 C 0.83347 0.0905 0.5454   0.623507
 C 0.90347 0.1468 0.5516   0.025696
 C 0.78677 0.1707 0.5308   0.010354
 C 0.82717 0.2201 0.5284   -0.14843
 C 0.98437 0.2456 0.5467   0.07661
 C 0.10107 0.2217 0.5675   -0.143261
 C 0.06067 0.1723 0.57   -0.034531
 C 0.01777 0.3028 0.5489   0.08274
 C 0.90177 0.3477 0.5696   -0.147358
 C 0.94247 0.399 0.5709   -0.017367
 C 0.76567 0.1463 0.5946   0.008168
 C 0.88157 0.1705 0.6395   0.019012
 C 0.17427 0.3091 0.5296   -0.151478
 O 0.5645 0.9709 0.3874   -0.56473
 O 0.7557 0.9297 0.3208   -0.593634
 O 0.5776 0.6792 0.0703   -0.596438
 O 0.7685 0.6129 0.0295   -0.569908
 O 0.9278 0.9327 0.4387   -0.567629
 O 0.7389 0.9332 0.493   -0.559635
 O 0.23117 0.4165 0.0291   -0.564743
 O 0.42237 0.3911 0.0703   -0.593633
 O 0.24427 0.3911 0.3208   -0.596397
 O 0.43517 0.4166 0.3871   -0.569906
 O 0.59447 0.506 0.0673   -0.567584
 O 0.40557 0.5598 0.0668   -0.559583
 O 0.89783 0.6126 0.5835   -0.564715
 O 0.08903 0.6792 0.6089   -0.593562
 O 0.91093 0.9297 0.6089   -0.596489
 O 0.10183 0.9705 0.5834   -0.569932
 O 0.26113 0.5613 0.494   -0.567578
 O 0.07223 0.507 0.4402   -0.559592
 O 0.4355 0.5835 0.6126   -0.56473
 O 0.2443 0.6089 0.6792   -0.593634
 O 0.4224 0.6089 0.9297   -0.596438
 O 0.2315 0.5834 0.9705   -0.569908
 O 0.0722 0.494 0.5613   -0.567629
 O 0.2611 0.4402 0.507   -0.559635
 O 0.76883 0.3874 0.9709   -0.564743
 O 0.57763 0.3208 0.9297   -0.593632
 O 0.75573 0.0703 0.6792   -0.596398
 O 0.56483 0.0295 0.6129   -0.569906
 O 0.40553 0.4387 0.9327   -0.567584
 O 0.59443 0.493 0.9332   -0.559583
 O 0.10217 0.0291 0.4165   -0.564715
 O 0.91097 0.0703 0.3911   -0.593562
 O 0.08907 0.3208 0.3911   -0.596489
 O 0.89817 0.3871 0.4166   -0.569932
 O 0.73887 0.0673 0.506   -0.567578
 O 0.92777 0.0668 0.5598   -0.559592
