{'_ref': 'TBD', '_srcid': 'CAKYAQ_clean', 'submitters': [{'name': 'Dalar Nazarian Jeff Camp and David Sholl', 'email': 'dalar@gatech.edu jcamp6@gatech.edu'}], '_method': 'VASP DFT with PBE;DDEC'}
data_Mn2H3C9ClO6
_symmetry_space_group_name_H-M   'P 1'
_cell_length_a   12.79300000
_cell_length_b   14.74000000
_cell_length_c   15.18300000
_cell_angle_alpha   90.00000000
_cell_angle_beta   90.00000000
_cell_angle_gamma   90.00000000
_symmetry_Int_Tables_number   1
_chemical_formula_structural   Mn2H3C9ClO6
_chemical_formula_sum   'Mn8 H12 C36 Cl4 O24'
_cell_volume   2863.04039406
_cell_formula_units_Z   4
loop_
 _symmetry_equiv_pos_site_id
 _symmetry_equiv_pos_as_xyz
  1  'x, y, z'
loop_
 _atom_site_label
 _atom_site_fract_x
 _atom_site_fract_y
 _atom_site_fract_z
 _atom_site_charge
 Mn 0.25747 0.71786 0.7742   1.063255
 Mn 0.06008 0.58675 0.91327   1.128392
 Mn 0.24253 0.28214 0.2742   1.063255
 Mn 0.43992 0.41325 0.41327   1.128392
 Mn 0.74253 0.21786 0.7258   1.063254
 Mn 0.93992 0.08675 0.58673   1.128391
 Mn 0.75747 0.78214 0.2258   1.063254
 Mn 0.56008 0.91325 0.08673   1.128391
 H 0.4587 0.7044 0.0055   0.084982
 H 0.5108 0.5615 0.2251   0.088377
 H 0.2853 0.4832 0.0596   0.101193
 H 0.0413 0.2956 0.5055   0.084982
 H 0.9892 0.4385 0.7251   0.088377
 H 0.2147 0.5168 0.5596   0.101193
 H 0.5413 0.2044 0.4945   0.084982
 H 0.4892 0.0615 0.2749   0.088377
 H 0.7147 0.9832 0.4404   0.101193
 H 0.9587 0.7956 0.9945   0.084982
 H 0.0108 0.9385 0.7749   0.088377
 H 0.7853 0.0168 0.9404   0.101193
 C 0.3028 0.6079 0.934   0.736618
 C 0.3634 0.5953 0.0174   -0.18773
 C 0.4426 0.6555 0.0418   0.045236
 C 0.4968 0.6432 0.1189   -0.193998
 C 0.4733 0.5703 0.1734   0.050393
 C 0.3939 0.5104 0.1506   -0.18463
 C 0.3391 0.5229 0.0741   0.049535
 C 0.5842 0.7064 0.1435   0.717283
 C 0.3704 0.4314 0.2108   0.746803
 C 0.1972 0.3921 0.434   0.736618
 C 0.1366 0.4047 0.5174   -0.18773
 C 0.0574 0.3445 0.5418   0.045236
 C 0.0032 0.3568 0.6189   -0.193998
 C 0.0267 0.4297 0.6734   0.050393
 C 0.1061 0.4896 0.6506   -0.18463
 C 0.1609 0.4771 0.5741   0.049535
 C 0.9158 0.2936 0.6435   0.717283
 C 0.1296 0.5686 0.7108   0.746803
 C 0.6972 0.1079 0.566   0.736618
 C 0.6366 0.0953 0.4826   -0.18773
 C 0.5574 0.1555 0.4582   0.045236
 C 0.5032 0.1432 0.3811   -0.193998
 C 0.5267 0.0703 0.3266   0.050393
 C 0.6061 0.0104 0.3494   -0.18463
 C 0.6609 0.0229 0.4259   0.049535
 C 0.4158 0.2064 0.3565   0.717283
 C 0.6296 0.9314 0.2892   0.746803
 C 0.8028 0.8921 0.066   0.736618
 C 0.8634 0.9047 0.9826   -0.18773
 C 0.9426 0.8445 0.9582   0.045236
 C 0.9968 0.8568 0.8811   -0.193998
 C 0.9733 0.9297 0.8266   0.050393
 C 0.8939 0.9896 0.8494   -0.18463
 C 0.8391 0.9771 0.9259   0.049535
 C 0.0842 0.7936 0.8565   0.717283
 C 0.8704 0.0686 0.7892   0.746803
 Cl 0.38735 0.79591 0.69597   -0.594098
 Cl 0.11265 0.20409 0.19597   -0.594098
 Cl 0.61265 0.29591 0.80403   -0.594099
 Cl 0.88735 0.70409 0.30403   -0.594099
 O 0.3363 0.6678 0.88119   -0.575462
 O 0.2251 0.55858 0.9213   -0.638928
 O 0.6038 0.77157 0.0932   -0.665936
 O 0.6354 0.69 0.2114   -0.546413
 O 0.4295 0.4169 0.27292   -0.659838
 O 0.2919 0.3848 0.192   -0.565031
 O 0.1637 0.3322 0.38119   -0.575462
 O 0.2749 0.44142 0.4213   -0.638928
 O 0.8962 0.22843 0.5932   -0.665936
 O 0.8646 0.31 0.7114   -0.546413
 O 0.0705 0.5831 0.77292   -0.659838
 O 0.2081 0.6152 0.692   -0.565031
 O 0.6637 0.1678 0.61881   -0.575462
 O 0.7749 0.05858 0.5787   -0.638927
 O 0.3962 0.27157 0.4068   -0.665936
 O 0.3646 0.19 0.2886   -0.546413
 O 0.5705 0.9169 0.22708   -0.659838
 O 0.7081 0.8848 0.308   -0.565031
 O 0.8363 0.8322 0.11881   -0.575462
 O 0.7251 0.94142 0.0787   -0.638927
 O 0.1038 0.72843 0.9068   -0.665936
 O 0.1354 0.81 0.7886   -0.546413
 O 0.9295 0.0831 0.72708   -0.659838
 O 0.7919 0.1152 0.808   -0.565031
