{'_ref': 'TBD', '_srcid': 'CAKYAQ_clean', 'submitters': [{'name': 'Dalar Nazarian Jeff Camp and David Sholl', 'email': 'dalar@gatech.edu jcamp6@gatech.edu'}], '_method': 'VASP DFT with PBE;DDEC'}
data_ZnH16C27NO4
_symmetry_space_group_name_H-M   'P 1'
_cell_length_a   15.29040028
_cell_length_b   15.29040001
_cell_length_c   17.66737316
_cell_angle_alpha   115.64040784
_cell_angle_beta   115.64040930
_cell_angle_gamma   90.00009908
_symmetry_Int_Tables_number   1
_chemical_formula_structural   ZnH16C27NO4
_chemical_formula_sum   'Zn4 H64 C108 N4 O16'
_cell_volume   3266.81449565
_cell_formula_units_Z   4
loop_
 _symmetry_equiv_pos_site_id
 _symmetry_equiv_pos_as_xyz
  1  'x, y, z'
loop_
 _atom_site_label
 _atom_site_fract_x
 _atom_site_fract_y
 _atom_site_fract_z
 _atom_site_charge
 Zn 0.94412 0.94413 0.88826   1.061366
 Zn 0.55577 0.55579 0.11154   1.05932
 Zn 0.05582 0.0558 0.11159   1.061832
 Zn 0.44429 0.44429 0.8886   1.058695
 H 0.83827 0.70884 0.81955   0.102909
 H 0.74599 0.54867 0.68178   0.089948
 H 0.9356 0.74897 0.74355   0.124754
 H 0.84885 0.65834 0.56737   0.139239
 H 0.98141 0.11042 0.8193   0.10242
 H 0.93595 0.13302 0.68165   0.089656
 H 0.80794 0.99457 0.74356   0.124858
 H 0.71853 0.90905 0.56739   0.13962
 H 0.69795 0.9673 0.8742   0.122706
 H 0.51719 0.90243 0.77387   0.094933
 H 0.17603 0.90667 0.87396   0.121638
 H 0.25625 0.871 0.77344   0.094767
 H 0.51902 0.79028 0.17986   0.118058
 H 0.56479 0.94999 0.31821   0.091633
 H 0.6611 0.38982 0.17999   0.117931
 H 0.75388 0.36868 0.31842   0.092048
 H 0.32363 0.53278 0.12654   0.110025
 H 0.24285 0.59716 0.22661   0.091663
 H 0.49721 0.67358 0.25531   0.117996
 H 0.58272 0.76319 0.43175   0.140285
 H 0.8028 0.59348 0.12625   0.111426
 H 0.98363 0.62922 0.22646   0.091192
 H 0.75813 0.58179 0.25531   0.11828
 H 0.84905 0.6686 0.43175   0.139621
 H 0.09268 0.30191 0.12537   0.11096
 H 0.12828 0.48263 0.22603   0.091382
 H 0.0858 0.25946 0.25539   0.118739
 H 0.17115 0.34998 0.43145   0.138093
 H 0.0327 0.82366 0.12568   0.110486
 H 0.09768 0.74344 0.2262   0.091305
 H 0.16964 0.99596 0.25539   0.118862
 H 0.26031 0.08149 0.43145   0.13772
 H 0.29114 0.01887 0.18071   0.119018
 H 0.45111 0.06404 0.31863   0.094483
 H 0.88983 0.16213 0.18086   0.119314
 H 0.86799 0.25507 0.31886   0.094246
 H 0.46734 0.19736 0.87403   0.11161
 H 0.40278 0.01654 0.77378   0.093394
 H 0.32923 0.24108 0.74484   0.119379
 H 0.2385 0.15057 0.56876   0.138895
 H 0.40647 0.67646 0.8738   0.110537
 H 0.37057 0.75681 0.77336   0.092517
 H 0.41558 0.50376 0.74485   0.119472
 H 0.33024 0.41821 0.56878   0.138638
 H 0.61035 0.48103 0.82022   0.11715
 H 0.63219 0.43505 0.68211   0.092717
 H 0.20984 0.33954 0.82044   0.118264
 H 0.04998 0.24731 0.68222   0.092352
 H 0.78338 0.99261 0.04627   0.109239
 H 0.65378 0.04944 0.0882   0.095991
 H 0.26282 0.05351 0.04604   0.109187
 H 0.43438 0.03867 0.08806   0.095979
 H 0.94593 0.21607 0.9531   0.10906
 H 0.96046 0.34524 0.91054   0.096053
 H 0.00745 0.7373 0.95385   0.108787
 H 0.95073 0.56595 0.91249   0.096253
 H 0.23697 0.50758 0.95417   0.109933
 H 0.06551 0.45112 0.91274   0.097057
 H 0.71672 0.44612 0.95342   0.110018
 H 0.84593 0.46031 0.91078   0.096587
 H 0.49273 0.28336 0.04655   0.108824
 H 0.54933 0.15357 0.08829   0.096165
 H 0.5537 0.76313 0.04635   0.108958
 H 0.53891 0.93469 0.08821   0.09554
 C 0.76744 0.70045 0.90146   0.032329
 C 0.78392 0.667 0.82176   -0.134208
 C 0.7329 0.57319 0.74259   -0.108024
 C 0.88808 0.78349 0.70425   0.144828
 C 0.83903 0.73231 0.6042   -0.209276
 C 0.13406 0.201 0.90142   0.031197
 C 0.03794 0.15464 0.82163   -0.132761
 C 0.0098 0.16937 0.74251   -0.10796
 C 0.81615 0.92075 0.70426   0.14538
 C 0.76516 0.8719 0.6042   -0.210027
 C 0.68974 0.12285 0.93066   0.034116
 C 0.65044 0.01952 0.87375   -0.152556
 C 0.5473 0.98219 0.81709   -0.093335
 C 0.24076 0.80765 0.93049   0.032356
 C 0.22305 0.85397 0.87349   -0.149533
 C 0.26942 0.83454 0.81672   -0.094555
 C 0.36626 0.79919 0.0984   0.033323
 C 0.46253 0.83224 0.17795   -0.151696
 C 0.49088 0.92581 0.25746   -0.104587
 C 0.73234 0.29941 0.09848   0.033369
 C 0.7157 0.34599 0.17807   -0.150594
 C 0.76697 0.33205 0.25765   -0.105929
 C 0.25917 0.37713 0.06983   0.036895
 C 0.27658 0.4804 0.12683   -0.143153
 C 0.22984 0.51745 0.18328   -0.09723
 C 0.57444 0.67345 0.29489   0.147536
 C 0.62322 0.72444 0.39494   -0.210944
 C 0.81062 0.69265 0.06978   0.037184
 C 0.85016 0.64626 0.12668   -0.145278
 C 0.95335 0.66569 0.18321   -0.096192
 C 0.72048 0.62149 0.29489   0.14696
 C 0.77174 0.67054 0.39494   -0.210025
 C 0.1923 0.31026 0.0695   0.037728
 C 0.14562 0.34948 0.12617   -0.145922
 C 0.16497 0.4526 0.18296   -0.096563
 C 0.12409 0.22135 0.29499   0.145284
 C 0.17336 0.27272 0.39504   -0.207013
 C 0.87719 0.75924 0.06955   0.037049
 C 0.98053 0.77678 0.12634   -0.144705
 C 0.01792 0.73035 0.18305   -0.097086
 C 0.17095 0.07367 0.29499   0.144221
 C 0.2217 0.12233 0.39504   -0.205821
 C 0.29959 0.8661 0.09864   0.033312
 C 0.33296 0.96223 0.17843   -0.149854
 C 0.42666 0.99024 0.2577   -0.107106
 C 0.79925 0.23274 0.09872   0.032993
 C 0.84576 0.2165 0.17857   -0.151285
 C 0.83143 0.26786 0.25789   -0.105727
 C 0.62295 0.18946 0.93047   0.036826
 C 0.51966 0.14996 0.87358   -0.146424
 C 0.4825 0.04679 0.81702   -0.0995
 C 0.32846 0.279 0.70523   0.145098
 C 0.27769 0.22763 0.60518   -0.207173
 C 0.30736 0.74085 0.9303   0.036172
 C 0.35368 0.72338 0.87333   -0.144022
 C 0.33416 0.76987 0.81667   -0.098598
 C 0.37674 0.42623 0.70524   0.144399
 C 0.32746 0.37755 0.60518   -0.205751
 C 0.70077 0.63378 0.9017   0.033263
 C 0.65432 0.53747 0.82218   -0.154348
 C 0.66862 0.509 0.74278   -0.101194
 C 0.20096 0.26799 0.90174   0.033757
 C 0.16788 0.28492 0.8223   -0.154633
 C 0.07422 0.23394 0.74284   -0.101771
 C 0.77641 0.77641 0.55281   0.118942
 C 0.72317 0.72318 0.44633   0.120904
 C 0.22335 0.22335 0.4467   0.11753
 C 0.27675 0.27676 0.55352   0.117081
 C 0.82621 0.799 0.99771   -0.06969
 C 0.74493 0.84254 0.02135   0.030528
 C 0.8966 0.87755 0.00047   0.671322
 C 0.73441 0.94072 0.045   -0.141629
 C 0.66016 0.97337 0.06876   -0.085053
 C 0.17149 0.19868 0.99765   -0.06943
 C 0.27641 0.17879 0.02131   0.02929
 C 0.10386 0.12289 0.000419999999998   0.670879
 C 0.31055 0.1042 0.04487   -0.140949
 C 0.40857 0.09534 0.06868   -0.084916
 C 0.80136 0.17381 0.0024   -0.072098
 C 0.82116 0.25493 0.97854   0.027892
 C 0.87712 0.10342 0.99968   0.675351
 C 0.89542 0.26514 0.95448   -0.149731
 C 0.90409 0.33914 0.93037   -0.084563
 C 0.20107 0.82861 0.00239   -0.07171
 C 0.1575 0.72373 0.9788   0.026817
 C 0.12258 0.89627 0.99967   0.675421
 C 0.05934 0.68961 0.95522   -0.148132
 C 0.02674 0.5917 0.93174   -0.084918
 C 0.32832 0.70081 0.00193   -0.069674
 C 0.22349 0.65753 0.97867   0.02771
 C 0.39563 0.62199 0.99859   0.668722
 C 0.18929 0.55949 0.95533   -0.140499
 C 0.09135 0.52706 0.93186   -0.08489
 C 0.67364 0.30115 0.00194   -0.069884
 C 0.75505 0.321 0.97842   0.02794
 C 0.60297 0.37662 0.99859   0.667451
 C 0.76557 0.39537 0.95459   -0.14087
 C 0.83962 0.4039 0.93049   -0.083949
 C 0.29929 0.32653 0.99825   -0.070859
 C 0.34262 0.245 0.02156   0.028733
 C 0.3781 0.39718 0.00159   0.668437
 C 0.44077 0.23438 0.0452   -0.142014
 C 0.47328 0.16002 0.06882   -0.085259
 C 0.69893 0.67171 0.9982   -0.070261
 C 0.67893 0.77655 0.02153   0.027484
 C 0.62346 0.60439 0.00154   0.667689
 C 0.60437 0.81079 0.0451   -0.142327
 C 0.59552 0.90879 0.06878   -0.083912
 N 0.8761 0.87611 0.75223   -0.290811
 N 0.62356 0.62357 0.24708   -0.289474
 N 0.12361 0.12359 0.24716   -0.288969
 N 0.37651 0.37652 0.75305   -0.289521
 O 0.88513 0.87356 0.92305   -0.609459
 O 0.03789 0.04948 0.92302   -0.608853
 O 0.86935 0.03745 0.92007   -0.625537
 O 0.05071 0.88262 0.92008   -0.625877
 O 0.46161 0.62567 0.07577   -0.612023
 O 0.61417 0.45013 0.07575   -0.610584
 O 0.44996 0.46298 0.08141   -0.61926
 O 0.63142 0.61844 0.08137   -0.619082
 O 0.11777 0.1306 0.08016   -0.623634
 O 0.96244 0.94957 0.0802   -0.623187
 O 0.12641 0.96202 0.07698   -0.613218
 O 0.95061 0.11496 0.07697   -0.613297
 O 0.53719 0.36867 0.91876   -0.619195
 O 0.38157 0.55009 0.91877   -0.61917
 O 0.54993 0.53848 0.92437   -0.611244
 O 0.37446 0.3859 0.9244   -0.611708
