{'_ref': 'TBD', '_srcid': 'CAKYAQ_clean', 'submitters': [{'name': 'Dalar Nazarian Jeff Camp and David Sholl', 'email': 'dalar@gatech.edu jcamp6@gatech.edu'}], '_method': 'VASP DFT with PBE;DDEC'}
data_Gd2H12C15(NO2)6
_symmetry_space_group_name_H-M   'P 1'
_cell_length_a   10.57700013
_cell_length_b   10.57699974
_cell_length_c   14.76810000
_cell_angle_alpha   90.59750231
_cell_angle_beta   90.59750228
_cell_angle_gamma   105.75400173
_symmetry_Int_Tables_number   1
_chemical_formula_structural   Gd2H12C15(NO2)6
_chemical_formula_sum   'Gd4 H24 C30 N12 O24'
_cell_volume   1589.85227124
_cell_formula_units_Z   2
loop_
 _symmetry_equiv_pos_site_id
 _symmetry_equiv_pos_as_xyz
  1  'x, y, z'
loop_
 _atom_site_label
 _atom_site_fract_x
 _atom_site_fract_y
 _atom_site_fract_z
 _atom_site_charge
 Gd 0.32477 0.42739 0.94254   2.195608
 Gd 0.07261 0.17523 0.55746   2.195609
 Gd 0.67523 0.57261 0.05746   2.195608
 Gd 0.92739 0.82477 0.44254   2.195609
 H 0.0391 0.6749 0.1594   0.109326
 H 0.1554 0.8028 0.1695   0.127399
 H 0.3855 0.6765 0.2529   0.145356
 H 0.3594 0.7936 0.199   0.127346
 H 0.4382 0.2104 0.2125   0.130987
 H 0.4468 0.3544 0.2446   0.136533
 H 0.8251 0.4609 0.3406   0.109326
 H 0.6972 0.3446 0.3305   0.127399
 H 0.8235 0.1145 0.2471   0.145356
 H 0.7064 0.1406 0.301   0.127347
 H 0.2896 0.0618 0.2875   0.130988
 H 0.1456 0.0532 0.2554   0.136533
 H 0.9609 0.3251 0.8406   0.109326
 H 0.8446 0.1972 0.8305   0.127398
 H 0.6145 0.3235 0.7471   0.145356
 H 0.6406 0.2064 0.801   0.127346
 H 0.5618 0.7896 0.7875   0.130987
 H 0.5532 0.6456 0.7554   0.136533
 H 0.1749 0.5391 0.6594   0.109326
 H 0.3028 0.6554 0.6695   0.127398
 H 0.1765 0.8855 0.7529   0.145356
 H 0.2936 0.8594 0.699   0.127347
 H 0.7104 0.9382 0.7125   0.130988
 H 0.8544 0.9468 0.7446   0.136533
 C 0.1543 0.5141 0.2307   0.58994
 C 0.1107 0.7217 0.1991   -0.195014
 C 0.0534 0.7556 0.2862   0.683817
 C 0.3413 0.6987 0.2   -0.240538
 C 0.4 0.6536 0.1154   0.814389
 C 0.3943 0.2797 0.21   -0.217617
 C 0.3837 0.3195 0.1116   0.787782
 C 0.9859 0.3457 0.2693   0.58994
 C 0.7783 0.3893 0.3009   -0.195014
 C 0.7444 0.4466 0.2138   0.683817
 C 0.8013 0.1587 0.3   -0.240539
 C 0.8464 0.1 0.3846   0.814389
 C 0.2203 0.1057 0.29   -0.217617
 C 0.1805 0.1163 0.3884   0.787783
 C 0.8457 0.4859 0.7693   0.58994
 C 0.8893 0.2783 0.8009   -0.195014
 C 0.9466 0.2444 0.7138   0.683817
 C 0.6587 0.3013 0.8   -0.240538
 C 0.6 0.3464 0.8846   0.814389
 C 0.6057 0.7203 0.79   -0.217617
 C 0.6163 0.6805 0.8884   0.787782
 C 0.0141 0.6543 0.7307   0.58994
 C 0.2217 0.6107 0.6991   -0.195014
 C 0.2556 0.5534 0.7862   0.683817
 C 0.1987 0.8413 0.7   -0.240539
 C 0.1536 0.9 0.6154   0.814389
 C 0.7797 0.8943 0.71   -0.217617
 C 0.8195 0.8837 0.6116   0.787782
 C 0.1858 0.3142 0.25   0.58801
 C 0.8142 0.6858 0.75   0.58801
 N 0.2409 0.4409 0.2312   -0.651326
 N 0.2014 0.643 0.2096   -0.07295
 N 0.0591 0.2591 0.2688   -0.651326
 N 0.857 0.2986 0.2904   -0.07295
 N 0.7591 0.5591 0.7688   -0.651326
 N 0.7986 0.357 0.7904   -0.07295
 N 0.9409 0.7409 0.7312   -0.651326
 N 0.143 0.7014 0.7096   -0.07295
 N 0.0267 0.4733 0.25   -0.639021
 N 0.2656 0.2344 0.25   -0.084287
 N 0.9733 0.5267 0.75   -0.639021
 N 0.7344 0.7656 0.75   -0.084287
 O 0.9505 0.7957 0.2801   -0.728778
 O 0.1051 0.7509 0.3615   -0.670691
 O 0.3242 0.5926 0.0542   -0.733522
 O 0.5245 0.6823 0.1151   -0.738566
 O 0.2861 0.2637 0.064   -0.699503
 O 0.476 0.4098 0.079   -0.83233
 O 0.7043 0.5495 0.2199   -0.728778
 O 0.7491 0.3949 0.1385   -0.670691
 O 0.9074 0.1758 0.4458   -0.733522
 O 0.8177 0.9755 0.3849   -0.738566
 O 0.2363 0.2139 0.436   -0.699503
 O 0.0902 0.024 0.421   -0.83233
 O 0.0495 0.2043 0.7199   -0.728778
 O 0.8949 0.2491 0.6385   -0.670691
 O 0.6758 0.4074 0.9458   -0.733522
 O 0.4755 0.3177 0.8849   -0.738566
 O 0.7139 0.7363 0.936   -0.699503
 O 0.524 0.5902 0.921   -0.83233
 O 0.2957 0.4505 0.7801   -0.728778
 O 0.2509 0.6051 0.8615   -0.670691
 O 0.0926 0.8242 0.5542   -0.733522
 O 0.1823 0.0245 0.6151   -0.738566
 O 0.7637 0.7861 0.564   -0.699503
 O 0.9098 0.976 0.579   -0.83233
