{'_ref': 'TBD', '_srcid': 'CAKYAQ_clean', 'submitters': [{'name': 'Dalar Nazarian Jeff Camp and David Sholl', 'email': 'dalar@gatech.edu jcamp6@gatech.edu'}], '_method': 'VASP DFT with PBE;DDEC'}
data_ZnH(CN2)5
_symmetry_space_group_name_H-M   'P 1'
_cell_length_a   8.64290000
_cell_length_b   8.88480000
_cell_length_c   15.45040000
_cell_angle_alpha   90.00000000
_cell_angle_beta   90.00000000
_cell_angle_gamma   90.00000000
_symmetry_Int_Tables_number   1
_chemical_formula_structural   ZnH(CN2)5
_chemical_formula_sum   'Zn4 H4 C20 N40'
_cell_volume   1186.44298204
_cell_formula_units_Z   4
loop_
 _symmetry_equiv_pos_site_id
 _symmetry_equiv_pos_as_xyz
  1  'x, y, z'
loop_
 _atom_site_label
 _atom_site_fract_x
 _atom_site_fract_y
 _atom_site_fract_z
 _atom_site_charge
 Zn 0.95148 0.25548 0.37354   0.66599
 Zn 0.54852 0.74452 0.87354   0.66599
 Zn 0.04852 0.75548 0.12646   0.66599
 Zn 0.45148 0.24452 0.62646   0.66599
 H 0.556 0.146 0.333   0.07081
 H 0.944 0.854 0.833   0.07081
 H 0.444 0.646 0.167   0.07081
 H 0.056 0.354 0.667   0.07081
 C 0.6208 0.1273 0.2893   0.373451
 C 0.7183 0.9898 0.1831   0.120149
 C 0.7182 0.9052 0.1025   0.299187
 C 0.8352 0.0456 0.2338   0.103849
 C 0.0016 0.0381 0.2325   0.272295
 C 0.8792 0.8727 0.7893   0.373451
 C 0.7817 0.0102 0.6831   0.120149
 C 0.7818 0.0948 0.6025   0.299187
 C 0.6648 0.9544 0.7338   0.103849
 C 0.4984 0.9619 0.7325   0.272295
 C 0.3792 0.6273 0.2107   0.373451
 C 0.2817 0.4898 0.3169   0.120149
 C 0.2818 0.4052 0.3975   0.299187
 C 0.1648 0.5456 0.2662   0.103849
 C 0.9984 0.5381 0.2675   0.272295
 C 0.1208 0.3727 0.7107   0.373451
 C 0.2183 0.5102 0.8169   0.120149
 C 0.2182 0.5948 0.8975   0.299187
 C 0.3352 0.4544 0.7662   0.103849
 C 0.5016 0.4619 0.7675   0.272295
 N 0.7732 0.1329 0.3002   -0.413912
 N 0.5832 0.0401 0.2206   -0.344251
 N 0.5948 0.8926 0.0525   -0.288939
 N 0.648 0.8104 0.9865   0.035209
 N 0.7935 0.7759 0.9954   -0.087223
 N 0.8414 0.8345 0.0702   -0.245662
 N 0.079 0.1287 0.286   -0.232168
 N 0.2307 0.0996 0.2734   -0.065085
 N 0.243 0.9935 0.2142   -0.02241
 N 0.0984 0.954 0.1869   -0.241291
 N 0.7268 0.8671 0.8002   -0.413912
 N 0.9168 0.9599 0.7206   -0.344251
 N 0.9052 0.1074 0.5525   -0.288939
 N 0.852 0.1896 0.4865   0.035209
 N 0.7065 0.2241 0.4954   -0.087223
 N 0.6586 0.1655 0.5702   -0.245662
 N 0.421 0.8713 0.786   -0.232168
 N 0.2693 0.9004 0.7734   -0.065085
 N 0.257 0.0065 0.7142   -0.02241
 N 0.4016 0.046 0.6869   -0.241291
 N 0.2268 0.6329 0.1998   -0.413912
 N 0.4168 0.5401 0.2794   -0.344251
 N 0.4052 0.3926 0.4475   -0.288939
 N 0.352 0.3104 0.5135   0.035209
 N 0.2065 0.2759 0.5046   -0.087223
 N 0.1586 0.3345 0.4298   -0.245662
 N 0.921 0.6287 0.214   -0.232168
 N 0.7693 0.5996 0.2266   -0.065085
 N 0.757 0.4935 0.2858   -0.02241
 N 0.9016 0.454 0.3131   -0.241291
 N 0.2732 0.3671 0.6998   -0.413912
 N 0.0832 0.4599 0.7794   -0.344251
 N 0.0948 0.6074 0.9475   -0.288939
 N 0.148 0.6896 0.0135   0.035209
 N 0.2935 0.7241 0.0046   -0.087223
 N 0.3414 0.6655 0.9298   -0.245662
 N 0.579 0.3713 0.714   -0.232168
 N 0.7307 0.4004 0.7266   -0.065085
 N 0.743 0.5065 0.7858   -0.02241
 N 0.5984 0.546 0.8131   -0.241291
