{'_ref': 'TBD', '_srcid': 'CAKYAQ_clean', 'submitters': [{'name': 'Dalar Nazarian Jeff Camp and David Sholl', 'email': 'dalar@gatech.edu jcamp6@gatech.edu'}], '_method': 'VASP DFT with PBE;DDEC'}
data_Mn2H3CS(NO)5
_symmetry_space_group_name_H-M   'P 1'
_cell_length_a   6.91280000
_cell_length_b   9.24000000
_cell_length_c   16.09500000
_cell_angle_alpha   90.00000000
_cell_angle_beta   90.00000000
_cell_angle_gamma   90.00000000
_symmetry_Int_Tables_number   1
_chemical_formula_structural   Mn2H3CS(NO)5
_chemical_formula_sum   'Mn8 H12 C4 S4 N20 O20'
_cell_volume   1028.05640784
_cell_formula_units_Z   4
loop_
 _symmetry_equiv_pos_site_id
 _symmetry_equiv_pos_as_xyz
  1  'x, y, z'
loop_
 _atom_site_label
 _atom_site_fract_x
 _atom_site_fract_y
 _atom_site_fract_z
 _atom_site_charge
 Mn 0.75 0.19779 0.16521   1.090696
 Mn 0.25 0.30221 0.66521   1.090696
 Mn 0.25 0.80221 0.83479   1.090701
 Mn 0.75 0.69779 0.33479   1.090701
 Mn 0.5 0.5 0.5   0.965385
 Mn 0.5 0.0 0.0   0.965385
 Mn 0.0 0.5 0.5   0.965382
 Mn 0.0 0.0 0.0   0.965382
 H 0.1423 0.3667 0.2879   0.352813
 H 0.8577 0.1333 0.7879   0.352813
 H 0.6423 0.6333 0.7121   0.352813
 H 0.3577 0.8667 0.2121   0.352813
 H 0.8577 0.6333 0.7121   0.352812
 H 0.1423 0.8667 0.2121   0.352812
 H 0.3577 0.3667 0.2879   0.352812
 H 0.6423 0.1333 0.7879   0.352812
 H 0.75 0.205 0.009   0.45161
 H 0.25 0.295 0.509   0.45161
 H 0.25 0.795 0.991   0.45161
 H 0.75 0.705 0.491   0.45161
 C 0.25 0.247 0.2004   0.642135
 C 0.75 0.253 0.7004   0.642135
 C 0.75 0.753 0.7996   0.642139
 C 0.25 0.747 0.2996   0.642139
 S 0.75 0.33681 0.35526   1.635965
 S 0.25 0.16319 0.85526   1.635965
 S 0.25 0.66319 0.64474   1.635965
 S 0.75 0.83681 0.14474   1.635965
 N 0.3434 0.1187 0.10019   -0.036516
 N 0.411 0.1988 0.16298   -0.425182
 N 0.6566 0.3813 0.60019   -0.036516
 N 0.589 0.3012 0.66298   -0.425182
 N 0.8434 0.8813 0.89981   -0.036515
 N 0.911 0.8012 0.83702   -0.425183
 N 0.1566 0.6187 0.39981   -0.036515
 N 0.089 0.6988 0.33702   -0.425183
 N 0.6566 0.8813 0.89981   -0.036395
 N 0.589 0.8012 0.83702   -0.4252
 N 0.3434 0.6187 0.39981   -0.036395
 N 0.411 0.6988 0.33702   -0.4252
 N 0.1566 0.1187 0.10019   -0.036394
 N 0.089 0.1988 0.16298   -0.4252
 N 0.8434 0.3813 0.60019   -0.036394
 N 0.911 0.3012 0.66298   -0.4252
 N 0.25 0.3372 0.2672   -0.733716
 N 0.75 0.1628 0.7672   -0.733716
 N 0.75 0.6628 0.7328   -0.733717
 N 0.25 0.8372 0.2328   -0.733717
 O 0.5766 0.3323 0.40792   -0.730338
 O 0.4234 0.1677 0.90792   -0.730338
 O 0.0766 0.6677 0.59208   -0.730338
 O 0.9234 0.8323 0.09208   -0.730338
 O 0.4234 0.6677 0.59208   -0.730338
 O 0.5766 0.8323 0.09208   -0.730338
 O 0.9234 0.3323 0.40792   -0.730338
 O 0.0766 0.1677 0.90792   -0.730338
 O 0.75 0.4692 0.3046   -0.745121
 O 0.75 0.2107 0.2992   -0.698644
 O 0.75 0.1262 0.03498   -0.929969
 O 0.25 0.0308 0.8046   -0.745121
 O 0.25 0.2893 0.7992   -0.698644
 O 0.25 0.3738 0.53498   -0.929969
 O 0.25 0.5308 0.6954   -0.745121
 O 0.25 0.7893 0.7008   -0.698644
 O 0.25 0.8738 0.96502   -0.929969
 O 0.75 0.9692 0.1954   -0.745121
 O 0.75 0.7107 0.2008   -0.698644
 O 0.75 0.6262 0.46502   -0.929969
