{'_ref': 'TBD', '_srcid': 'CAKYAQ_clean', 'submitters': [{'name': 'Dalar Nazarian Jeff Camp and David Sholl', 'email': 'dalar@gatech.edu jcamp6@gatech.edu'}], '_method': 'VASP DFT with PBE;DDEC'}
data_Ni2H30C34N4O13
_symmetry_space_group_name_H-M   'P 1'
_cell_length_a   10.48740000
_cell_length_b   15.90360000
_cell_length_c   26.13600000
_cell_angle_alpha   90.00000000
_cell_angle_beta   90.00000000
_cell_angle_gamma   90.00000000
_symmetry_Int_Tables_number   1
_chemical_formula_structural   Ni2H30C34N4O13
_chemical_formula_sum   'Ni8 H120 C136 N16 O52'
_cell_volume   4359.15586903
_cell_formula_units_Z   4
loop_
 _symmetry_equiv_pos_site_id
 _symmetry_equiv_pos_as_xyz
  1  'x, y, z'
loop_
 _atom_site_label
 _atom_site_fract_x
 _atom_site_fract_y
 _atom_site_fract_z
 _atom_site_charge
 Ni 0.33822 0.35622 0.61881   0.906791
 Ni 0.10326 0.21715 0.6487   0.960565
 Ni 0.16178 0.64378 0.11881   0.906791
 Ni 0.39674 0.78285 0.1487   0.960565
 Ni 0.66178 0.85622 0.88119   0.906791
 Ni 0.89674 0.71715 0.8513   0.960565
 Ni 0.83822 0.14378 0.38119   0.906791
 Ni 0.60326 0.28285 0.3513   0.960565
 H 0.5845 0.983 0.4613   0.083523
 H 0.4387 0.2089 0.4946   0.086381
 H 0.357 0.0102 0.5839   0.102363
 H 0.9416 0.5058 0.7547   0.077754
 H 0.5764 0.5489 0.7192   0.094554
 H 0.7488 0.335 0.6748   0.091773
 H 0.5249 0.3348 0.5319   0.100948
 H 0.6301 0.4153 0.4707   0.122435
 H 0.5969 0.5614 0.4705   0.105001
 H 0.3309 0.5302 0.576   0.093868
 H 0.3455 0.663 0.5241   0.123308
 H 0.4751 0.6801 0.4961   0.101751
 H 0.6431 0.6217 0.5838   0.086043
 H 0.6666 0.6986 0.5474   0.101265
 H 0.6329 0.714 0.6545   0.104897
 H 0.6581 0.7904 0.6181   0.076724
 H 0.8355 0.6622 0.6375   0.121917
 H 0.8608 0.7371 0.6   0.069914
 H 0.8346 0.7529 0.7069   0.126714
 H 0.9631 0.7628 0.6768   0.11789
 H 0.9944 0.8925 0.6234   0.112478
 H 0.8687 0.8728 0.5933   0.096641
 H 0.702 0.9906 0.5872   0.096646
 H 0.6813 0.1359 0.573   0.136177
 H 0.8396 0.2221 0.6038   0.09464
 H 0.0457 0.0309 0.6463   0.089353
 H 0.47 0.7447 0.574   0.266281
 H 0.432 0.668 0.594   0.308011
 H 0.887 0.889 0.6944   0.282565
 H 0.769 0.881 0.671   0.324408
 H 0.9155 0.017 0.9613   0.083523
 H 0.0613 0.7911 0.9946   0.086381
 H 0.143 0.9898 0.0839   0.102363
 H 0.5584 0.4942 0.2547   0.077754
 H 0.9236 0.4511 0.2192   0.094554
 H 0.7512 0.665 0.1748   0.091773
 H 0.9751 0.6652 0.0319   0.100948
 H 0.8699 0.5847 0.9707   0.122435
 H 0.9031 0.4386 0.9705   0.105001
 H 0.1691 0.4698 0.076   0.093868
 H 0.1545 0.337 0.0241   0.123308
 H 0.0249 0.3199 0.9961   0.101751
 H 0.8569 0.3783 0.0838   0.086043
 H 0.8334 0.3014 0.0474   0.101265
 H 0.8671 0.286 0.1545   0.104897
 H 0.8419 0.2096 0.1181   0.076724
 H 0.6645 0.3378 0.1375   0.121917
 H 0.6392 0.2629 0.1   0.069914
 H 0.6654 0.2471 0.2069   0.126714
 H 0.5369 0.2372 0.1768   0.11789
 H 0.5056 0.1075 0.1234   0.112478
 H 0.6313 0.1272 0.0933   0.096641
 H 0.798 0.0094 0.0872   0.096646
 H 0.8187 0.8641 0.073   0.136177
 H 0.6604 0.7779 0.1038   0.09464
 H 0.4543 0.9691 0.1463   0.089353
 H 0.03 0.2553 0.074   0.266281
 H 0.068 0.332 0.094   0.308011
 H 0.613 0.111 0.1944   0.282565
 H 0.731 0.119 0.171   0.324408
 H 0.4155 0.483 0.0387   0.083523
 H 0.5613 0.7089 0.0054   0.086381
 H 0.643 0.5102 0.9161   0.102363
 H 0.0584 0.0058 0.7453   0.077754
 H 0.4236 0.0489 0.7808   0.094554
 H 0.2512 0.835 0.8252   0.091773
 H 0.4751 0.8348 0.9681   0.100948
 H 0.3699 0.9153 0.0293   0.122435
 H 0.4031 0.0614 0.0295   0.105002
 H 0.6691 0.0302 0.924   0.093868
 H 0.6545 0.163 0.9759   0.123307
 H 0.5249 0.1801 0.0039   0.101751
 H 0.3569 0.1217 0.9162   0.086043
 H 0.3334 0.1986 0.9526   0.101265
 H 0.3671 0.214 0.8455   0.104897
 H 0.3419 0.2904 0.8819   0.076724
 H 0.1645 0.1622 0.8625   0.121917
 H 0.1392 0.2371 0.9   0.069914
 H 0.1654 0.2529 0.7931   0.126714
 H 0.0369 0.2628 0.8232   0.11789
 H 0.0056 0.3925 0.8766   0.112478
 H 0.1313 0.3728 0.9067   0.096641
 H 0.298 0.4906 0.9128   0.096646
 H 0.3187 0.6359 0.927   0.136177
 H 0.1604 0.7221 0.8962   0.09464
 H 0.9543 0.5309 0.8537   0.089353
 H 0.53 0.2447 0.926   0.266281
 H 0.568 0.168 0.906   0.308011
 H 0.113 0.389 0.8056   0.282564
 H 0.231 0.381 0.829   0.324408
 H 0.0845 0.517 0.5387   0.083523
 H 0.9387 0.2911 0.5054   0.086381
 H 0.857 0.4898 0.4161   0.102363
 H 0.4416 0.9942 0.2453   0.077754
 H 0.0764 0.9511 0.2808   0.094554
 H 0.2488 0.165 0.3252   0.091773
 H 0.0249 0.1652 0.4681   0.100948
 H 0.1301 0.0847 0.5293   0.122435
 H 0.0969 0.9386 0.5295   0.105002
 H 0.8309 0.9698 0.424   0.093868
 H 0.8455 0.837 0.4759   0.123307
 H 0.9751 0.8199 0.5039   0.101751
 H 0.1431 0.8783 0.4162   0.086043
 H 0.1666 0.8014 0.4526   0.101265
 H 0.1329 0.786 0.3455   0.104897
 H 0.1581 0.7096 0.3819   0.076724
 H 0.3355 0.8378 0.3625   0.121917
 H 0.3608 0.7629 0.4   0.069914
 H 0.3346 0.7471 0.2931   0.126714
 H 0.4631 0.7372 0.3232   0.11789
 H 0.4944 0.6075 0.3766   0.112478
 H 0.3687 0.6272 0.4067   0.096641
 H 0.202 0.5094 0.4128   0.096646
 H 0.1813 0.3641 0.427   0.136177
 H 0.3396 0.2779 0.3962   0.09464
 H 0.5457 0.4691 0.3537   0.089353
 H 0.97 0.7553 0.426   0.266281
 H 0.932 0.832 0.406   0.308011
 H 0.387 0.611 0.3056   0.282564
 H 0.269 0.619 0.329   0.324408
 C 0.4919 0.8897 0.5361   0.698355
 C 0.4732 0.9821 0.5237   -0.184787
 C 0.5336 0.0171 0.4818   0.00716
 C 0.5206 0.1003 0.4694   -0.164647
 C 0.5868 0.1397 0.4244   0.677384
 C 0.4476 0.152 0.502   0.002385
 C 0.3991 0.0328 0.5557   -0.002463
 C 0.3898 0.1192 0.5442   -0.16784
 C 0.3163 0.1784 0.5794   0.684525
 C 0.9799 0.3581 0.709   0.661184
 C 0.8623 0.4115 0.7134   -0.172699
 C 0.8665 0.4883 0.7391   0.001949
 C 0.7585 0.5387 0.7413   -0.163116
 C 0.6473 0.5138 0.7186   7e-05
 C 0.6405 0.4349 0.6944   -0.168818
 C 0.7514 0.3863 0.6919   0.020945
 C 0.7668 0.6242 0.7687   0.636524
 C 0.5222 0.4052 0.6703   0.619934
 C 0.5074 0.3919 0.5294   0.163229
 C 0.5731 0.4401 0.4934   -0.131384
 C 0.5505 0.5271 0.4925   -0.047984
 C 0.462 0.5608 0.5235   -0.095039
 C 0.3958 0.5077 0.556   0.115095
 C 0.4367 0.6533 0.5256   -0.0616
 C 0.6244 0.6808 0.5786   -0.012039
 C 0.6767 0.7313 0.6236   -0.1696
 C 0.8175 0.7211 0.6313   -0.15882
 C 0.8718 0.7722 0.675   -0.037906
 C 0.903 0.9019 0.6229   -0.051873
 C 0.8776 0.9963 0.6171   -0.123489
 C 0.7674 0.0272 0.5964   -0.022804
 C 0.7531 0.1136 0.5889   -0.136272
 C 0.8504 0.1642 0.6061   0.178667
 C 0.9712 0.0518 0.6318   0.133883
 C 0.0081 0.1103 0.0361   0.698355
 C 0.0268 0.0179 0.0237   -0.184787
 C 0.9664 0.9829 0.9818   0.00716
 C 0.9794 0.8997 0.9694   -0.164647
 C 0.9132 0.8603 0.9244   0.677384
 C 0.0524 0.848 0.002   0.002385
 C 0.1009 0.9672 0.0557   -0.002463
 C 0.1102 0.8808 0.0442   -0.16784
 C 0.1837 0.8216 0.0794   0.684525
 C 0.5201 0.6419 0.209   0.661184
 C 0.6377 0.5885 0.2134   -0.172699
 C 0.6335 0.5117 0.2391   0.001949
 C 0.7415 0.4613 0.2413   -0.163116
 C 0.8527 0.4862 0.2186   7e-05
 C 0.8595 0.5651 0.1944   -0.168818
 C 0.7486 0.6137 0.1919   0.020945
 C 0.7332 0.3758 0.2687   0.636524
 C 0.9778 0.5948 0.1703   0.619934
 C 0.9926 0.6081 0.0294   0.163229
 C 0.9269 0.5599 0.9934   -0.131384
 C 0.9495 0.4729 0.9925   -0.047984
 C 0.038 0.4392 0.0235   -0.095039
 C 0.1042 0.4923 0.056   0.115095
 C 0.0633 0.3467 0.0256   -0.0616
 C 0.8756 0.3192 0.0786   -0.012039
 C 0.8233 0.2687 0.1236   -0.1696
 C 0.6825 0.2789 0.1313   -0.15882
 C 0.6282 0.2278 0.175   -0.037906
 C 0.597 0.0981 0.1229   -0.051873
 C 0.6224 0.0037 0.1171   -0.123489
 C 0.7326 0.9728 0.0964   -0.022804
 C 0.7469 0.8864 0.0889   -0.136272
 C 0.6496 0.8358 0.1061   0.178667
 C 0.5288 0.9482 0.1318   0.133883
 C 0.5081 0.3897 0.9639   0.698355
 C 0.5268 0.4821 0.9763   -0.184787
 C 0.4664 0.5171 0.0182   0.00716
 C 0.4794 0.6003 0.0306   -0.164647
 C 0.4132 0.6397 0.0756   0.677384
 C 0.5524 0.652 0.998   0.002385
 C 0.6009 0.5328 0.9443   -0.002463
 C 0.6102 0.6192 0.9558   -0.16784
 C 0.6837 0.6784 0.9206   0.684525
 C 0.0201 0.8581 0.791   0.661184
 C 0.1377 0.9115 0.7866   -0.172699
 C 0.1335 0.9883 0.7609   0.001949
 C 0.2415 0.0387 0.7587   -0.163116
 C 0.3527 0.0138 0.7814   7e-05
 C 0.3595 0.9349 0.8056   -0.168818
 C 0.2486 0.8863 0.8081   0.020945
 C 0.2332 0.1242 0.7313   0.636524
 C 0.4778 0.9052 0.8297   0.619934
 C 0.4926 0.8919 0.9706   0.163229
 C 0.4269 0.9401 0.0066   -0.131384
 C 0.4495 0.0271 0.0075   -0.047984
 C 0.538 0.0608 0.9765   -0.095039
 C 0.6042 0.0077 0.944   0.115095
 C 0.5633 0.1533 0.9744   -0.0616
 C 0.3756 0.1808 0.9214   -0.012039
 C 0.3233 0.2313 0.8764   -0.1696
 C 0.1825 0.2211 0.8687   -0.158821
 C 0.1282 0.2722 0.825   -0.037906
 C 0.097 0.4019 0.8771   -0.051873
 C 0.1224 0.4963 0.8829   -0.123489
 C 0.2326 0.5272 0.9036   -0.022804
 C 0.2469 0.6136 0.9111   -0.136272
 C 0.1496 0.6642 0.8939   0.178667
 C 0.0288 0.5518 0.8682   0.133883
 C 0.9919 0.6103 0.4639   0.698355
 C 0.9732 0.5179 0.4763   -0.184787
 C 0.0336 0.4829 0.5182   0.00716
 C 0.0206 0.3997 0.5306   -0.164647
 C 0.0868 0.3603 0.5756   0.677384
 C 0.9476 0.348 0.498   0.002385
 C 0.8991 0.4672 0.4443   -0.002463
 C 0.8898 0.3808 0.4558   -0.16784
 C 0.8163 0.3216 0.4206   0.684525
 C 0.4799 0.1419 0.291   0.661184
 C 0.3623 0.0885 0.2866   -0.172699
 C 0.3665 0.0117 0.2609   0.001949
 C 0.2585 0.9613 0.2587   -0.163116
 C 0.1473 0.9862 0.2814   7e-05
 C 0.1405 0.0651 0.3056   -0.168818
 C 0.2514 0.1137 0.3081   0.020945
 C 0.2668 0.8758 0.2313   0.636524
 C 0.0222 0.0948 0.3297   0.619934
 C 0.0074 0.1081 0.4706   0.163229
 C 0.0731 0.0599 0.5066   -0.131384
 C 0.0505 0.9729 0.5075   -0.047984
 C 0.962 0.9392 0.4765   -0.095039
 C 0.8958 0.9923 0.444   0.115095
 C 0.9367 0.8467 0.4744   -0.0616
 C 0.1244 0.8192 0.4214   -0.012039
 C 0.1767 0.7687 0.3764   -0.1696
 C 0.3175 0.7789 0.3687   -0.158821
 C 0.3718 0.7278 0.325   -0.037906
 C 0.403 0.5981 0.3771   -0.051873
 C 0.3776 0.5037 0.3829   -0.123489
 C 0.2674 0.4728 0.4036   -0.022804
 C 0.2531 0.3864 0.4111   -0.136272
 C 0.3504 0.3358 0.3939   0.178667
 C 0.4712 0.4482 0.3682   0.133883
 N 0.4208 0.4253 0.56   -0.269175
 N 0.9585 0.1358 0.62583   -0.26874
 N 0.4888 0.6916 0.573   -0.118735
 N 0.8469 0.8658 0.6693   -0.141059
 N 0.0792 0.5747 0.06   -0.269175
 N 0.5415 0.8642 0.12583   -0.26874
 N 0.0112 0.3084 0.073   -0.118735
 N 0.6531 0.1342 0.1693   -0.141059
 N 0.5792 0.9253 0.94   -0.269175
 N 0.0415 0.6358 0.87417   -0.26874
 N 0.5112 0.1916 0.927   -0.118735
 N 0.1531 0.3658 0.8307   -0.141059
 N 0.9208 0.0747 0.44   -0.269175
 N 0.4585 0.3642 0.37417   -0.26874
 N 0.9888 0.8084 0.427   -0.118735
 N 0.3469 0.6342 0.3307   -0.141059
 O 0.2361 0.1467 0.61014   -0.571727
 O 0.3421 0.2545 0.57432   -0.576551
 O 0.667 0.0941 0.40062   -0.565342
 O 0.5624 0.214 0.41494   -0.570993
 O 0.4266 0.8585 0.5695   -0.679009
 O 0.5795 0.8512 0.5139   -0.717761
 O 0.969 0.2901 0.68542   -0.576102
 O 0.0825 0.3851 0.72838   -0.580034
 O 0.6699 0.669 0.76881   -0.514487
 O 0.8715 0.6411 0.78876   -0.578898
 O 0.5197 0.3343 0.64925   -0.50789
 O 0.4199 0.4499 0.67057   -0.560532
 O 0.2494 0.2948 0.67849   -0.394657
 O 0.2639 0.8533 0.11014   -0.571727
 O 0.1579 0.7455 0.07432   -0.576551
 O 0.833 0.9059 0.90062   -0.565342
 O 0.9376 0.786 0.91494   -0.570993
 O 0.0734 0.1415 0.0695   -0.679009
 O 0.9205 0.1488 0.0139   -0.717761
 O 0.531 0.7099 0.18542   -0.576102
 O 0.4175 0.6149 0.22838   -0.580034
 O 0.8301 0.331 0.26881   -0.514487
 O 0.6285 0.3589 0.28876   -0.578898
 O 0.9803 0.6657 0.14925   -0.50789
 O 0.0801 0.5501 0.17057   -0.560532
 O 0.2506 0.7052 0.17849   -0.394657
 O 0.7639 0.6467 0.88986   -0.571727
 O 0.6579 0.7545 0.92568   -0.576551
 O 0.333 0.5941 0.09938   -0.565342
 O 0.4376 0.714 0.08506   -0.570993
 O 0.5734 0.3585 0.9305   -0.679009
 O 0.4205 0.3512 0.9861   -0.717761
 O 0.031 0.7901 0.81458   -0.576102
 O 0.9175 0.8851 0.77162   -0.580034
 O 0.3301 0.169 0.73119   -0.514487
 O 0.1285 0.1411 0.71124   -0.578898
 O 0.4803 0.8343 0.85075   -0.50789
 O 0.5801 0.9499 0.82943   -0.560532
 O 0.7506 0.7948 0.82151   -0.394658
 O 0.7361 0.3533 0.38986   -0.571727
 O 0.8421 0.2455 0.42568   -0.576551
 O 0.167 0.4059 0.59938   -0.565342
 O 0.0624 0.286 0.58506   -0.570993
 O 0.9266 0.6415 0.4305   -0.679009
 O 0.0795 0.6488 0.4861   -0.717761
 O 0.469 0.2099 0.31458   -0.576102
 O 0.5825 0.1149 0.27162   -0.580034
 O 0.1699 0.831 0.23119   -0.514487
 O 0.3715 0.8589 0.21124   -0.578898
 O 0.0197 0.1657 0.35075   -0.50789
 O 0.9199 0.0501 0.32943   -0.560532
 O 0.7494 0.2052 0.32151   -0.394658
