{'_ref': 'TBD', '_srcid': 'CAKYAQ_clean', 'submitters': [{'name': 'Dalar Nazarian Jeff Camp and David Sholl', 'email': 'dalar@gatech.edu jcamp6@gatech.edu'}], '_method': 'VASP DFT with PBE;DDEC'}
data_Gd2Zn3H24(C4O5)6
_symmetry_space_group_name_H-M   'P 1'
_cell_length_a   14.51040000
_cell_length_b   14.51039998
_cell_length_c   15.77250000
_cell_angle_alpha   90.00000000
_cell_angle_beta   90.00000000
_cell_angle_gamma   120.00000004
_symmetry_Int_Tables_number   1
_chemical_formula_structural   Gd2Zn3H24(C4O5)6
_chemical_formula_sum   'Gd4 Zn6 H48 C48 O60'
_cell_volume   2876.00698323
_cell_formula_units_Z   2
loop_
 _symmetry_equiv_pos_site_id
 _symmetry_equiv_pos_as_xyz
  1  'x, y, z'
loop_
 _atom_site_label
 _atom_site_fract_x
 _atom_site_fract_y
 _atom_site_fract_z
 _atom_site_charge
 Gd 0.33333 0.66666 0.75   2.107562
 Gd 0.66667 0.33334 0.75   2.107562
 Gd 0.66667 0.33334 0.25   2.107562
 Gd 0.33333 0.66666 0.25   2.107562
 Zn 0.0 0.5 0.5   1.185611
 Zn 0.5 0.0 0.5   1.185616
 Zn 0.5 0.5 0.5   1.185615
 Zn 0.5 0.5 0.0   1.185611
 Zn 0.5 0.0 0.0   1.185616
 Zn 0.0 0.5 0.0   1.185616
 H 0.1676 0.8026 0.6602   0.100439
 H 0.0872 0.723 0.7274   0.081388
 H 0.635 0.8324 0.6602   0.100432
 H 0.6358 0.9128 0.7274   0.081389
 H 0.1974 0.365 0.6602   0.100441
 H 0.277 0.3642 0.7274   0.081395
 H 0.8324 0.1974 0.6602   0.100437
 H 0.9128 0.277 0.7274   0.081388
 H 0.365 0.1676 0.6602   0.10043
 H 0.3642 0.0872 0.7274   0.081389
 H 0.8026 0.635 0.6602   0.100439
 H 0.723 0.6358 0.7274   0.081394
 H 0.365 0.1974 0.8398   0.100438
 H 0.3642 0.277 0.7726   0.081387
 H 0.8026 0.1676 0.8398   0.100432
 H 0.723 0.0872 0.7726   0.081388
 H 0.8324 0.635 0.8398   0.100441
 H 0.9128 0.6358 0.7726   0.081393
 H 0.635 0.8026 0.8398   0.100436
 H 0.6358 0.723 0.7726   0.081386
 H 0.1974 0.8324 0.8398   0.10043
 H 0.277 0.9128 0.7726   0.081388
 H 0.1676 0.365 0.8398   0.100439
 H 0.0872 0.3642 0.7726   0.081393
 H 0.8324 0.1974 0.3398   0.10044
 H 0.9128 0.277 0.2726   0.081388
 H 0.365 0.1676 0.3398   0.100434
 H 0.3642 0.0872 0.2726   0.081389
 H 0.8026 0.635 0.3398   0.100443
 H 0.723 0.6358 0.2726   0.081395
 H 0.1676 0.8026 0.3398   0.100438
 H 0.0872 0.723 0.2726   0.081388
 H 0.635 0.8324 0.3398   0.100432
 H 0.6358 0.9128 0.2726   0.081389
 H 0.1974 0.365 0.3398   0.100441
 H 0.277 0.3642 0.2726   0.081395
 H 0.635 0.8026 0.1602   0.10044
 H 0.6358 0.723 0.2274   0.081387
 H 0.1974 0.8324 0.1602   0.100433
 H 0.277 0.9128 0.2274   0.081388
 H 0.1676 0.365 0.1602   0.100442
 H 0.0872 0.3642 0.2274   0.081393
 H 0.365 0.1974 0.1602   0.100438
 H 0.3642 0.277 0.2274   0.081387
 H 0.8026 0.1676 0.1602   0.100431
 H 0.723 0.0872 0.2274   0.081388
 H 0.8324 0.635 0.1602   0.10044
 H 0.9128 0.6358 0.2274   0.081393
 C 0.1319 0.65 0.64   0.729898
 C 0.1509 0.7411 0.6951   -0.058478
 C 0.5181 0.8681 0.64   0.729885
 C 0.5902 0.8491 0.6951   -0.058469
 C 0.35 0.4819 0.64   0.729886
 C 0.2589 0.4098 0.6951   -0.058469
 C 0.8681 0.35 0.64   0.729897
 C 0.8491 0.2589 0.6951   -0.058477
 C 0.4819 0.1319 0.64   0.729884
 C 0.4098 0.1509 0.6951   -0.058468
 C 0.65 0.5181 0.64   0.729885
 C 0.7411 0.5902 0.6951   -0.058468
 C 0.4819 0.35 0.86   0.729897
 C 0.4098 0.2589 0.8049   -0.058477
 C 0.65 0.1319 0.86   0.729884
 C 0.7411 0.1509 0.8049   -0.058468
 C 0.8681 0.5181 0.86   0.729886
 C 0.8491 0.5902 0.8049   -0.058469
 C 0.5181 0.65 0.86   0.729897
 C 0.5902 0.7411 0.8049   -0.058476
 C 0.35 0.8681 0.86   0.729884
 C 0.2589 0.8491 0.8049   -0.058467
 C 0.1319 0.4819 0.86   0.729885
 C 0.1509 0.4098 0.8049   -0.058468
 C 0.8681 0.35 0.36   0.729899
 C 0.8491 0.2589 0.3049   -0.058478
 C 0.4819 0.1319 0.36   0.729885
 C 0.4098 0.1509 0.3049   -0.058469
 C 0.65 0.5181 0.36   0.729886
 C 0.7411 0.5902 0.3049   -0.058469
 C 0.1319 0.65 0.36   0.729898
 C 0.1509 0.7411 0.3049   -0.058477
 C 0.5181 0.8681 0.36   0.729885
 C 0.5902 0.8491 0.3049   -0.058469
 C 0.35 0.4819 0.36   0.729886
 C 0.2589 0.4098 0.3049   -0.058469
 C 0.5181 0.65 0.14   0.729898
 C 0.5902 0.7411 0.1951   -0.058478
 C 0.35 0.8681 0.14   0.729885
 C 0.2589 0.8491 0.1951   -0.058469
 C 0.1319 0.4819 0.14   0.729886
 C 0.1509 0.4098 0.1951   -0.058469
 C 0.4819 0.35 0.14   0.729897
 C 0.4098 0.2589 0.1951   -0.058477
 C 0.65 0.1319 0.14   0.729884
 C 0.7411 0.1509 0.1951   -0.058468
 C 0.8681 0.5181 0.14   0.729886
 C 0.8491 0.5902 0.1951   -0.058469
 O 0.19569 0.61523 0.64559   -0.691949
 O 0.055 0.61731 0.59043   -0.643082
 O 0.41954 0.80431 0.64559   -0.691922
 O 0.56231 0.945 0.59043   -0.643085
 O 0.38477 0.58046 0.64559   -0.691938
 O 0.38269 0.43769 0.59043   -0.643075
 O 0.80431 0.38477 0.64559   -0.691949
 O 0.945 0.38269 0.59043   -0.643082
 O 0.58046 0.19569 0.64559   -0.691922
 O 0.43769 0.055 0.59043   -0.643085
 O 0.61523 0.41954 0.64559   -0.691939
 O 0.61731 0.56231 0.59043   -0.643075
 O 0.58046 0.38477 0.85441   -0.691948
 O 0.43769 0.38269 0.90957   -0.643082
 O 0.61523 0.19569 0.85441   -0.691922
 O 0.61731 0.055 0.90957   -0.643085
 O 0.80431 0.41954 0.85441   -0.691939
 O 0.945 0.56231 0.90957   -0.643076
 O 0.41954 0.61523 0.85441   -0.691948
 O 0.56231 0.61731 0.90957   -0.643082
 O 0.38477 0.80431 0.85441   -0.691922
 O 0.38269 0.945 0.90957   -0.643085
 O 0.19569 0.58046 0.85441   -0.691939
 O 0.055 0.43769 0.90957   -0.643076
 O 0.80431 0.38477 0.35441   -0.691949
 O 0.945 0.38269 0.40957   -0.643081
 O 0.58046 0.19569 0.35441   -0.691922
 O 0.43769 0.055 0.40957   -0.643084
 O 0.61523 0.41954 0.35441   -0.691939
 O 0.61731 0.56231 0.40957   -0.643075
 O 0.19569 0.61523 0.35441   -0.691949
 O 0.055 0.61731 0.40957   -0.643081
 O 0.41954 0.80431 0.35441   -0.691922
 O 0.56231 0.945 0.40957   -0.643084
 O 0.38477 0.58046 0.35441   -0.691939
 O 0.38269 0.43769 0.40957   -0.643075
 O 0.41954 0.61523 0.14559   -0.691948
 O 0.56231 0.61731 0.09043   -0.643081
 O 0.38477 0.80431 0.14559   -0.691922
 O 0.38269 0.945 0.09043   -0.643084
 O 0.19569 0.58046 0.14559   -0.691939
 O 0.055 0.43769 0.09043   -0.643075
 O 0.58046 0.38477 0.14559   -0.691949
 O 0.43769 0.38269 0.09043   -0.643081
 O 0.61523 0.19569 0.14559   -0.691922
 O 0.61731 0.055 0.09043   -0.643084
 O 0.80431 0.41954 0.14559   -0.691939
 O 0.945 0.56231 0.09043   -0.643075
 O 0.23485 0.76515 0.75   -0.331773
 O 0.5303 0.76515 0.75   -0.331772
 O 0.23485 0.4697 0.75   -0.331806
 O 0.76515 0.23485 0.75   -0.331773
 O 0.4697 0.23485 0.75   -0.331772
 O 0.76515 0.5303 0.75   -0.331806
 O 0.76515 0.23485 0.25   -0.331772
 O 0.4697 0.23485 0.25   -0.331772
 O 0.76515 0.5303 0.25   -0.331805
 O 0.23485 0.76515 0.25   -0.331772
 O 0.5303 0.76515 0.25   -0.331772
 O 0.23485 0.4697 0.25   -0.331805
