{'_ref': 'TBD', '_srcid': 'CAKYAQ_clean', 'submitters': [{'name': 'Dalar Nazarian Jeff Camp and David Sholl', 'email': 'dalar@gatech.edu jcamp6@gatech.edu'}], '_method': 'VASP DFT with PBE;DDEC'}
data_ErH9C18S3(NO2)3
_symmetry_space_group_name_H-M   'P 1'
_cell_length_a   12.80419955
_cell_length_b   12.80419996
_cell_length_c   34.63500000
_cell_angle_alpha   82.42539859
_cell_angle_beta   82.42539834
_cell_angle_gamma   63.91839753
_symmetry_Int_Tables_number   1
_chemical_formula_structural   ErH9C18S3(NO2)3
_chemical_formula_sum   'Er8 H72 C144 S24 N24 O48'
_cell_volume   5038.16122852
_cell_formula_units_Z   8
loop_
 _symmetry_equiv_pos_site_id
 _symmetry_equiv_pos_as_xyz
  1  'x, y, z'
loop_
 _atom_site_label
 _atom_site_fract_x
 _atom_site_fract_y
 _atom_site_fract_z
 _atom_site_charge
 Er 0.86245 0.70319 0.05903   1.537752
 Er 0.84844 0.63222 0.18384   1.586511
 Er 0.70319 0.86245 0.55903   1.537752
 Er 0.63222 0.84844 0.68384   1.58651
 Er 0.29681 0.13755 0.44097   1.537752
 Er 0.36778 0.15156 0.31616   1.58651
 Er 0.13755 0.29681 0.94097   1.537752
 Er 0.15156 0.36778 0.81616   1.586511
 H 0.6129 0.0873 0.0837   0.084773
 H 0.4528 0.116 0.2093   0.124478
 H 0.6 0.9426 0.191   0.100221
 H 0.4051 0.5605 0.0671   0.137384
 H 0.5457 0.6309 0.0637   0.10474
 H 0.6016 0.5018 0.1739   0.067959
 H 0.1153 0.8273 0.0697   0.105356
 H 0.2531 0.8935 0.0692   0.117282
 H 0.1664 0.7 0.1795   0.086885
 H 0.2534 0.0832 0.1524   0.095636
 H 0.1019 0.2629 0.1647   0.088737
 H 0.1319 0.3631 0.0517   0.077451
 H 0.8269 0.0503 0.7875   0.101748
 H 0.0057 0.9789 0.8129   0.109132
 H 0.9291 0.7443 0.7428   0.076625
 H 0.1106 0.9868 0.9053   0.138211
 H 0.0213 0.9549 0.9644   0.101504
 H 0.114 0.6286 0.9385   0.084824
 H 0.0873 0.6129 0.5837   0.084773
 H 0.116 0.4528 0.7093   0.124478
 H 0.9426 0.6 0.691   0.100221
 H 0.5605 0.4051 0.5671   0.137384
 H 0.6309 0.5457 0.5637   0.10474
 H 0.5018 0.6016 0.6739   0.067959
 H 0.8273 0.1153 0.5697   0.105356
 H 0.8935 0.2531 0.5692   0.117282
 H 0.7 0.1664 0.6795   0.086885
 H 0.0832 0.2534 0.6524   0.095636
 H 0.2629 0.1019 0.6647   0.088737
 H 0.3631 0.1319 0.5517   0.077451
 H 0.0503 0.8269 0.2875   0.101748
 H 0.9789 0.0057 0.3129   0.109132
 H 0.7443 0.9291 0.2428   0.076625
 H 0.9868 0.1106 0.4053   0.138211
 H 0.9549 0.0213 0.4644   0.101504
 H 0.6286 0.114 0.4385   0.084824
 H 0.9127 0.3871 0.4163   0.084773
 H 0.884 0.5472 0.2907   0.124478
 H 0.0574 0.4 0.309   0.100221
 H 0.4395 0.5949 0.4329   0.137383
 H 0.3691 0.4543 0.4363   0.104739
 H 0.4982 0.3984 0.3261   0.067959
 H 0.1727 0.8847 0.4303   0.105356
 H 0.1065 0.7469 0.4308   0.117283
 H 0.3 0.8336 0.3205   0.086885
 H 0.9168 0.7466 0.3476   0.095636
 H 0.7371 0.8981 0.3353   0.088737
 H 0.6369 0.8681 0.4483   0.077451
 H 0.9497 0.1731 0.7125   0.101747
 H 0.0211 0.9943 0.6871   0.109132
 H 0.2557 0.0709 0.7572   0.076625
 H 0.0132 0.8894 0.5947   0.138211
 H 0.0451 0.9787 0.5356   0.101504
 H 0.3714 0.886 0.5615   0.084824
 H 0.3871 0.9127 0.9163   0.084773
 H 0.5472 0.884 0.7907   0.124478
 H 0.4 0.0574 0.809   0.100221
 H 0.5949 0.4395 0.9329   0.137383
 H 0.4543 0.3691 0.9363   0.104739
 H 0.3984 0.4982 0.8261   0.067959
 H 0.8847 0.1727 0.9303   0.105356
 H 0.7469 0.1065 0.9308   0.117283
 H 0.8336 0.3 0.8205   0.086885
 H 0.7466 0.9168 0.8476   0.095636
 H 0.8981 0.7371 0.8353   0.088737
 H 0.8681 0.6369 0.9483   0.077451
 H 0.1731 0.9497 0.2125   0.101747
 H 0.9943 0.0211 0.1871   0.109132
 H 0.0709 0.2557 0.2572   0.076625
 H 0.8894 0.0132 0.0947   0.138211
 H 0.9787 0.0451 0.0356   0.101504
 H 0.886 0.3714 0.0615   0.084824
 C 0.7178 0.8838 0.1217   0.748254
 C 0.6225 0.9963 0.13454   -0.272253
 C 0.5803 0.0931 0.10941   0.221655
 C 0.4514 0.201 0.156   0.247068
 C 0.4868 0.1088 0.1838   -0.184016
 C 0.5733 0.0067 0.1727   0.060794
 C 0.4246 0.4958 0.1226   0.252067
 C 0.4458 0.5506 0.0886   -0.197423
 C 0.53 0.5918 0.0867   0.051739
 C 0.5906 0.5748 0.1187   -0.248795
 C 0.561 0.5156 0.152   0.257635
 C 0.6833 0.6153 0.1199   0.785241
 C 0.0306 0.7148 0.125   0.722312
 C 0.1248 0.7574 0.1245   -0.24414
 C 0.1537 0.8145 0.0921   0.060045
 C 0.2357 0.8529 0.0915   -0.200456
 C 0.2925 0.8315 0.1239   0.221734
 C 0.1849 0.7387 0.157   0.225601
 C 0.2742 0.1224 0.0942   0.263457
 C 0.226 0.1416 0.1322   -0.208457
 C 0.1369 0.2481 0.1395   0.060075
 C 0.0995 0.3341 0.10878   -0.253256
 C 0.1553 0.3061 0.0724   0.237664
 C 0.0049 0.4511 0.1165   0.765463
 C 0.7411 0.9431 0.7469   0.711914
 C 0.8568 0.904 0.76217   -0.224873
 C 0.8824 0.9748 0.7835   0.057656
 C 0.9891 0.9329 0.7984   -0.187518
 C 0.0715 0.8207 0.7913   0.236666
 C 0.9439 0.7927 0.7568   0.223075
 C 0.1577 0.8307 0.8879   0.262237
 C 0.1088 0.915 0.9124   -0.202806
 C 0.0567 0.8959 0.9475   0.059754
 C 0.0567 0.7869 0.958   -0.215869
 C 0.1117 0.7023 0.9319   0.205921
 C 0.9949 0.7601 0.9953   0.653331
 C 0.8838 0.7178 0.6217   0.748254
 C 0.9963 0.6225 0.63454   -0.272253
 C 0.0931 0.5803 0.60941   0.221655
 C 0.201 0.4514 0.656   0.247068
 C 0.1088 0.4868 0.6838   -0.184016
 C 0.0067 0.5733 0.6727   0.060794
 C 0.4958 0.4246 0.6226   0.252067
 C 0.5506 0.4458 0.5886   -0.197423
 C 0.5918 0.53 0.5867   0.051739
 C 0.5748 0.5906 0.6187   -0.248795
 C 0.5156 0.561 0.652   0.257635
 C 0.6153 0.6833 0.6199   0.785241
 C 0.7148 0.0306 0.625   0.722312
 C 0.7574 0.1248 0.6245   -0.24414
 C 0.8145 0.1537 0.5921   0.060045
 C 0.8529 0.2357 0.5915   -0.200456
 C 0.8315 0.2925 0.6239   0.221734
 C 0.7387 0.1849 0.657   0.225601
 C 0.1224 0.2742 0.5942   0.263457
 C 0.1416 0.226 0.6322   -0.208457
 C 0.2481 0.1369 0.6395   0.060075
 C 0.3341 0.0995 0.60878   -0.253256
 C 0.3061 0.1553 0.5724   0.237664
 C 0.4511 0.0049 0.6165   0.765463
 C 0.9431 0.7411 0.2469   0.711914
 C 0.904 0.8568 0.26217   -0.224873
 C 0.9748 0.8824 0.2835   0.057656
 C 0.9329 0.9891 0.2984   -0.187518
 C 0.8207 0.0715 0.2913   0.236666
 C 0.7927 0.9439 0.2568   0.223075
 C 0.8307 0.1577 0.3879   0.262237
 C 0.915 0.1088 0.4124   -0.202806
 C 0.8959 0.0567 0.4475   0.059754
 C 0.7869 0.0567 0.458   -0.215869
 C 0.7023 0.1117 0.4319   0.20592
 C 0.7601 0.9949 0.4953   0.653331
 C 0.1162 0.2822 0.3783   0.748254
 C 0.0037 0.3775 0.36546   -0.272253
 C 0.9069 0.4197 0.39059   0.221655
 C 0.799 0.5486 0.344   0.247068
 C 0.8912 0.5132 0.3162   -0.184016
 C 0.9933 0.4267 0.3273   0.060794
 C 0.5042 0.5754 0.3774   0.252067
 C 0.4494 0.5542 0.4114   -0.197423
 C 0.4082 0.47 0.4133   0.051738
 C 0.4252 0.4094 0.3813   -0.248795
 C 0.4844 0.439 0.348   0.257635
 C 0.3847 0.3167 0.3801   0.785241
 C 0.2852 0.9694 0.375   0.722312
 C 0.2426 0.8752 0.3755   -0.24414
 C 0.1855 0.8463 0.4079   0.060045
 C 0.1471 0.7643 0.4085   -0.200457
 C 0.1685 0.7075 0.3761   0.221734
 C 0.2613 0.8151 0.343   0.225601
 C 0.8776 0.7258 0.4058   0.263457
 C 0.8584 0.774 0.3678   -0.208458
 C 0.7519 0.8631 0.3605   0.060075
 C 0.6659 0.9005 0.39122   -0.253256
 C 0.6939 0.8447 0.4276   0.237664
 C 0.5489 0.9951 0.3835   0.765463
 C 0.0569 0.2589 0.7531   0.711914
 C 0.096 0.1432 0.73783   -0.224873
 C 0.0252 0.1176 0.7165   0.057656
 C 0.0671 0.0109 0.7016   -0.187519
 C 0.1793 0.9285 0.7087   0.236666
 C 0.2073 0.0561 0.7432   0.223076
 C 0.1693 0.8423 0.6121   0.262236
 C 0.085 0.8912 0.5876   -0.202806
 C 0.1041 0.9433 0.5525   0.059754
 C 0.2131 0.9433 0.542   -0.215869
 C 0.2977 0.8883 0.5681   0.20592
 C 0.2399 0.0051 0.5047   0.653331
 C 0.2822 0.1162 0.8783   0.748254
 C 0.3775 0.0037 0.86546   -0.272253
 C 0.4197 0.9069 0.89059   0.221655
 C 0.5486 0.799 0.844   0.247068
 C 0.5132 0.8912 0.8162   -0.184016
 C 0.4267 0.9933 0.8273   0.060794
 C 0.5754 0.5042 0.8774   0.252067
 C 0.5542 0.4494 0.9114   -0.197423
 C 0.47 0.4082 0.9133   0.051738
 C 0.4094 0.4252 0.8813   -0.248795
 C 0.439 0.4844 0.848   0.257635
 C 0.3167 0.3847 0.8801   0.785241
 C 0.9694 0.2852 0.875   0.722312
 C 0.8752 0.2426 0.8755   -0.24414
 C 0.8463 0.1855 0.9079   0.060045
 C 0.7643 0.1471 0.9085   -0.200457
 C 0.7075 0.1685 0.8761   0.221734
 C 0.8151 0.2613 0.843   0.225601
 C 0.7258 0.8776 0.9058   0.263457
 C 0.774 0.8584 0.8678   -0.208458
 C 0.8631 0.7519 0.8605   0.060075
 C 0.9005 0.6659 0.89122   -0.253256
 C 0.8447 0.6939 0.9276   0.237664
 C 0.9951 0.5489 0.8835   0.765463
 C 0.2589 0.0569 0.2531   0.711914
 C 0.1432 0.096 0.23783   -0.224873
 C 0.1176 0.0252 0.2165   0.057656
 C 0.0109 0.0671 0.2016   -0.187519
 C 0.9285 0.1793 0.2087   0.236666
 C 0.0561 0.2073 0.2432   0.223075
 C 0.8423 0.1693 0.1121   0.262237
 C 0.8912 0.085 0.0876   -0.202806
 C 0.9433 0.1041 0.0525   0.059754
 C 0.9433 0.2131 0.042   -0.215869
 C 0.8883 0.2977 0.0681   0.20592
 C 0.0051 0.2399 0.0047   0.653331
 S 0.3379 0.33326 0.17229   0.045356
 S 0.31041 0.44815 0.1247   0.066689
 S 0.40611 0.87561 0.12662   0.064025
 S 0.39181 0.99035 0.07954   0.041134
 S 0.2225 0.86176 0.84115   -0.005459
 S 0.21343 0.75045 0.80697   0.074728
 S 0.33326 0.3379 0.67229   0.045356
 S 0.44815 0.31041 0.6247   0.066689
 S 0.87561 0.40611 0.62662   0.064025
 S 0.99035 0.39181 0.57954   0.041134
 S 0.86176 0.2225 0.34115   -0.005459
 S 0.75045 0.21343 0.30697   0.074728
 S 0.66674 0.6621 0.32771   0.045356
 S 0.55185 0.68959 0.3753   0.066689
 S 0.12439 0.59389 0.37338   0.064025
 S 0.00965 0.60819 0.42046   0.041135
 S 0.13824 0.7775 0.65885   -0.005459
 S 0.24955 0.78657 0.69303   0.074728
 S 0.6621 0.66674 0.82771   0.045356
 S 0.68959 0.55185 0.8753   0.066689
 S 0.59389 0.12439 0.87338   0.064025
 S 0.60819 0.00965 0.92046   0.041135
 S 0.7775 0.13824 0.15885   -0.005459
 S 0.78657 0.24955 0.19303   0.074728
 N 0.4949 0.1965 0.11868   -0.410287
 N 0.4795 0.4781 0.15456   -0.392992
 N 0.2407 0.2023 0.06501   -0.415643
 N 0.269 0.7746 0.1573   -0.381338
 N 0.0492 0.7514 0.77108   -0.423795
 N 0.1637 0.7249 0.89616   -0.386652
 N 0.1965 0.4949 0.61868   -0.410287
 N 0.4781 0.4795 0.65456   -0.392992
 N 0.2023 0.2407 0.56501   -0.415643
 N 0.7746 0.269 0.6573   -0.381338
 N 0.7514 0.0492 0.27108   -0.423795
 N 0.7249 0.1637 0.39616   -0.386652
 N 0.8035 0.5051 0.38132   -0.410287
 N 0.5219 0.5205 0.34544   -0.392992
 N 0.7977 0.7593 0.43499   -0.415643
 N 0.2254 0.731 0.3427   -0.381338
 N 0.2486 0.9508 0.72892   -0.423795
 N 0.2751 0.8363 0.60384   -0.386652
 N 0.5051 0.8035 0.88132   -0.410287
 N 0.5205 0.5219 0.84544   -0.392992
 N 0.7593 0.7977 0.93499   -0.415643
 N 0.731 0.2254 0.8427   -0.381338
 N 0.9508 0.2486 0.22892   -0.423795
 N 0.8363 0.2751 0.10384   -0.386652
 O 0.7646 0.8038 0.14736   -0.690115
 O 0.744 0.8752 0.08567   -0.659284
 O 0.7209 0.6041 0.15189   -0.711994
 O 0.7149 0.6573 0.08843   -0.701714
 O 0.0012 0.6744 0.1567   -0.64413
 O 0.9891 0.7269 0.093   -0.623506
 O 0.9678 0.4728 0.15048   -0.668319
 O 0.9697 0.5215 0.08655   -0.660937
 O 0.6673 0.0465 0.74988   -0.480882
 O 0.7248 0.8676 0.73247   -0.731227
 O 0.9246 0.8422 0.01488   -0.568287
 O 0.0121 0.6577 0.00653   -0.614071
 O 0.8038 0.7646 0.64736   -0.690115
 O 0.8752 0.744 0.58567   -0.659284
 O 0.6041 0.7209 0.65189   -0.711994
 O 0.6573 0.7149 0.58843   -0.701714
 O 0.6744 0.0012 0.6567   -0.64413
 O 0.7269 0.9891 0.593   -0.623506
 O 0.4728 0.9678 0.65048   -0.668319
 O 0.5215 0.9697 0.58655   -0.660937
 O 0.0465 0.6673 0.24988   -0.480882
 O 0.8676 0.7248 0.23247   -0.731227
 O 0.8422 0.9246 0.51488   -0.568287
 O 0.6577 0.0121 0.50653   -0.614071
 O 0.1962 0.2354 0.35264   -0.690115
 O 0.1248 0.256 0.41433   -0.659284
 O 0.3959 0.2791 0.34811   -0.711994
 O 0.3427 0.2851 0.41157   -0.701714
 O 0.3256 0.9988 0.3433   -0.64413
 O 0.2731 0.0109 0.407   -0.623506
 O 0.5272 0.0322 0.34952   -0.668319
 O 0.4785 0.0303 0.41345   -0.660937
 O 0.9535 0.3327 0.75012   -0.480882
 O 0.1324 0.2752 0.76753   -0.731227
 O 0.1578 0.0754 0.48512   -0.568287
 O 0.3423 0.9879 0.49347   -0.614071
 O 0.2354 0.1962 0.85264   -0.690115
 O 0.256 0.1248 0.91433   -0.659284
 O 0.2791 0.3959 0.84811   -0.711994
 O 0.2851 0.3427 0.91157   -0.701714
 O 0.9988 0.3256 0.8433   -0.64413
 O 0.0109 0.2731 0.907   -0.623506
 O 0.0322 0.5272 0.84952   -0.668319
 O 0.0303 0.4785 0.91345   -0.660937
 O 0.3327 0.9535 0.25012   -0.480882
 O 0.2752 0.1324 0.26753   -0.731227
 O 0.0754 0.1578 0.98512   -0.568287
 O 0.9879 0.3423 0.99347   -0.614071
