{'_ref': 'TBD', '_srcid': 'CAKYAQ_clean', 'submitters': [{'name': 'Dalar Nazarian Jeff Camp and David Sholl', 'email': 'dalar@gatech.edu jcamp6@gatech.edu'}], '_method': 'VASP DFT with PBE;DDEC'}
data_YPH11C7NO5
_symmetry_space_group_name_H-M   'P 1'
_cell_length_a   5.52340026
_cell_length_b   13.34900000
_cell_length_c   20.58600000
_cell_angle_alpha   90.00000000
_cell_angle_beta   95.29000182
_cell_angle_gamma   90.00000000
_symmetry_Int_Tables_number   1
_chemical_formula_structural   YPH11C7NO5
_chemical_formula_sum   'Y4 P4 H44 C28 N4 O20'
_cell_volume   1511.37947669
_cell_formula_units_Z   4
loop_
 _symmetry_equiv_pos_site_id
 _symmetry_equiv_pos_as_xyz
  1  'x, y, z'
loop_
 _atom_site_label
 _atom_site_fract_x
 _atom_site_fract_y
 _atom_site_fract_z
 _atom_site_charge
 Y 0.6264 0.13175 0.9721   2.139352
 Y 0.3736 0.63175 0.5279   2.139352
 Y 0.3736 0.86825 0.0279   2.139352
 Y 0.6264 0.36825 0.4721   2.139352
 P 0.9084 0.02047 0.0851   1.586927
 P 0.0916 0.52047 0.4149   1.586927
 P 0.0916 0.97953 0.9149   1.586927
 P 0.9084 0.47953 0.5851   1.586927
 H 0.7652 0.9718 0.1826   0.164484
 H 0.6664 0.0784 0.1632   0.122642
 H 0.7566 0.1041 0.2854   0.036071
 H 0.884 0.999 0.2911   0.06475
 H 0.0383 0.1021 0.3775   0.080168
 H 0.2474 0.0735 0.3342   0.074899
 H 0.9902 0.2571 0.326   0.104518
 H 0.2302 0.3071 0.2461   0.080908
 H 0.3735 0.2056 0.2513   0.067133
 H 0.0907 0.1982 0.1612   0.074777
 H 0.8798 0.2261 0.204   0.030486
 H 0.2348 0.4718 0.3174   0.164484
 H 0.3336 0.5784 0.3368   0.122642
 H 0.2434 0.6041 0.2146   0.036071
 H 0.116 0.499 0.2089   0.064751
 H 0.9617 0.6021 0.1225   0.080168
 H 0.7526 0.5735 0.1658   0.0749
 H 0.0098 0.7571 0.174   0.104518
 H 0.7698 0.8071 0.2539   0.080909
 H 0.6265 0.7056 0.2487   0.067133
 H 0.9093 0.6982 0.3388   0.074777
 H 0.1202 0.7261 0.296   0.030487
 H 0.2348 0.0282 0.8174   0.164484
 H 0.3336 0.9216 0.8368   0.122642
 H 0.2434 0.8959 0.7146   0.036071
 H 0.116 0.000999999999998 0.7089   0.06475
 H 0.9617 0.8979 0.6225   0.080168
 H 0.7526 0.9265 0.6658   0.074899
 H 0.0098 0.7429 0.674   0.104518
 H 0.7698 0.6929 0.7539   0.080908
 H 0.6265 0.7944 0.7487   0.067133
 H 0.9093 0.8018 0.8388   0.074777
 H 0.1202 0.7739 0.796   0.030486
 H 0.7652 0.5282 0.6826   0.164484
 H 0.6664 0.4216 0.6632   0.122642
 H 0.7566 0.3959 0.7854   0.036071
 H 0.884 0.501 0.7911   0.064751
 H 0.0383 0.3979 0.8775   0.080168
 H 0.2474 0.4265 0.8342   0.0749
 H 0.9902 0.2429 0.826   0.104518
 H 0.2302 0.1929 0.7461   0.080909
 H 0.3735 0.2944 0.7513   0.067133
 H 0.0907 0.3018 0.6612   0.074777
 H 0.8798 0.2739 0.704   0.030487
 C 0.8111 0.0369 0.1666   -0.410184
 C 0.91 0.0696 0.283   0.051282
 C 0.0967 0.1107 0.3349   -0.14789
 C 0.1442 0.2216 0.3232   -0.156726
 C 0.2157 0.236 0.2547   -0.146884
 C 0.0328 0.1904 0.204   0.0369
 C 0.3279 0.2662 0.3749   0.696116
 C 0.1889 0.5369 0.3334   -0.410184
 C 0.09 0.5696 0.217   0.051282
 C 0.9033 0.6107 0.1651   -0.14789
 C 0.8558 0.7216 0.1768   -0.156726
 C 0.7843 0.736 0.2453   -0.146885
 C 0.9672 0.6904 0.296   0.0369
 C 0.6721 0.7662 0.1251   0.696116
 C 0.1889 0.9631 0.8334   -0.410184
 C 0.09 0.9304 0.717   0.051282
 C 0.9033 0.8893 0.6651   -0.147889
 C 0.8558 0.7784 0.6768   -0.156726
 C 0.7843 0.764 0.7453   -0.146884
 C 0.9672 0.8096 0.796   0.0369
 C 0.6721 0.7338 0.6251   0.696116
 C 0.8111 0.4631 0.6666   -0.410184
 C 0.91 0.4304 0.783   0.051282
 C 0.0967 0.3893 0.8349   -0.147889
 C 0.1442 0.2784 0.8232   -0.156726
 C 0.2157 0.264 0.7547   -0.146885
 C 0.0328 0.3096 0.704   0.0369
 C 0.3279 0.2338 0.8749   0.696116
 N 0.9915 0.0825 0.2164   -0.274895
 N 0.0085 0.5825 0.2836   -0.274895
 N 0.0085 0.9175 0.7836   -0.274895
 N 0.9915 0.4175 0.7164   -0.274895
 O 0.6798 0.9799 0.0455   -1.043232
 O 0.9575 0.1219 0.0541   -0.940508
 O 0.1226 0.9504 0.0907   -0.894992
 O 0.3027 0.2488 0.4342   -0.74377
 O 0.4951 0.321 0.3594   -0.652335
 O 0.3202 0.4799 0.4545   -1.043232
 O 0.0425 0.6219 0.4459   -0.940508
 O 0.8774 0.4504 0.4093   -0.894992
 O 0.6973 0.7488 0.0658   -0.74377
 O 0.5049 0.821 0.1406   -0.652335
 O 0.3202 0.0201 0.9545   -1.043232
 O 0.0425 0.8781 0.9459   -0.940508
 O 0.8774 0.0496 0.9093   -0.894992
 O 0.6973 0.7512 0.5658   -0.74377
 O 0.5049 0.679 0.6406   -0.652335
 O 0.6798 0.5201 0.5455   -1.043232
 O 0.9575 0.3781 0.5541   -0.940508
 O 0.1226 0.5496 0.5907   -0.894992
 O 0.3027 0.2512 0.9342   -0.74377
 O 0.4951 0.179 0.8594   -0.652335
