{'_ref': 'TBD', '_srcid': 'CAKYAQ_clean', 'submitters': [{'name': 'Dalar Nazarian Jeff Camp and David Sholl', 'email': 'dalar@gatech.edu jcamp6@gatech.edu'}], '_method': 'VASP DFT with PBE;DDEC'}
data_NdPH11C7NO5
_symmetry_space_group_name_H-M   'P 1'
_cell_length_a   5.58709982
_cell_length_b   13.42400000
_cell_length_c   21.15700000
_cell_angle_alpha   90.00000000
_cell_angle_beta   96.14800103
_cell_angle_gamma   90.00000000
_symmetry_Int_Tables_number   1
_chemical_formula_structural   NdPH11C7NO5
_chemical_formula_sum   'Nd4 P4 H44 C28 N4 O20'
_cell_volume   1577.67460385
_cell_formula_units_Z   4
loop_
 _symmetry_equiv_pos_site_id
 _symmetry_equiv_pos_as_xyz
  1  'x, y, z'
loop_
 _atom_site_label
 _atom_site_fract_x
 _atom_site_fract_y
 _atom_site_fract_z
 _atom_site_charge
 Nd 0.62854 0.13445 0.97151   2.311744
 Nd 0.37146 0.63445 0.52849   2.311744
 Nd 0.37146 0.86555 0.02849   2.311743
 Nd 0.62854 0.36555 0.47151   2.311743
 P 0.9122 0.02307 0.0868   1.625682
 P 0.0878 0.52307 0.4132   1.625682
 P 0.0878 0.97693 0.9132   1.625682
 P 0.9122 0.47693 0.5868   1.625682
 H 0.7647 0.9745 0.1799   0.166078
 H 0.6743 0.0818 0.1615   0.1221
 H 0.7601 0.1006 0.2806   0.035458
 H 0.8894 0.9968 0.2864   0.065281
 H 0.0335 0.0991 0.3713   0.079215
 H 0.2431 0.071 0.3309   0.075089
 H 0.9924 0.2548 0.3225   0.107625
 H 0.2362 0.3033 0.2456   0.078686
 H 0.3705 0.2005 0.2508   0.068408
 H 0.0807 0.1983 0.1613   0.083109
 H 0.8765 0.2238 0.2043   0.031133
 H 0.2353 0.4745 0.3201   0.166078
 H 0.3257 0.5818 0.3385   0.1221
 H 0.2399 0.6006 0.2194   0.035458
 H 0.1106 0.4968 0.2136   0.065283
 H 0.9665 0.5991 0.1287   0.079215
 H 0.7569 0.571 0.1691   0.07509
 H 0.0076 0.7548 0.1775   0.107625
 H 0.7638 0.8033 0.2544   0.078687
 H 0.6295 0.7005 0.2492   0.068408
 H 0.9193 0.6983 0.3387   0.083109
 H 0.1235 0.7238 0.2957   0.031134
 H 0.2353 0.0255 0.8201   0.166078
 H 0.3257 0.9182 0.8385   0.1221
 H 0.2399 0.8994 0.7194   0.035458
 H 0.1106 0.0032 0.7136   0.065281
 H 0.9665 0.9009 0.6287   0.079214
 H 0.7569 0.929 0.6691   0.075089
 H 0.0076 0.7452 0.6775   0.107625
 H 0.7638 0.6967 0.7544   0.078686
 H 0.6295 0.7995 0.7492   0.068408
 H 0.9193 0.8017 0.8387   0.083109
 H 0.1235 0.7762 0.7957   0.031133
 H 0.7647 0.5255 0.6799   0.166078
 H 0.6743 0.4182 0.6615   0.1221
 H 0.7601 0.3994 0.7806   0.035458
 H 0.8894 0.5032 0.7864   0.065283
 H 0.0335 0.4009 0.8713   0.079214
 H 0.2431 0.429 0.8309   0.07509
 H 0.9924 0.2452 0.8225   0.107625
 H 0.2362 0.1967 0.7456   0.078687
 H 0.3705 0.2995 0.7508   0.068408
 H 0.0807 0.3017 0.6613   0.083109
 H 0.8765 0.2762 0.7043   0.031134
 C 0.8149 0.0389 0.1653   -0.415044
 C 0.9132 0.0672 0.279   0.052998
 C 0.0939 0.108 0.3304   -0.1444
 C 0.144 0.2188 0.3204   -0.1567
 C 0.2168 0.2328 0.2537   -0.148496
 C 0.0283 0.1891 0.2032   0.030415
 C 0.326 0.2609 0.3717   0.713876
 C 0.1851 0.5389 0.3347   -0.415045
 C 0.0868 0.5672 0.221   0.052998
 C 0.9061 0.608 0.1696   -0.1444
 C 0.856 0.7188 0.1796   -0.1567
 C 0.7832 0.7328 0.2463   -0.148497
 C 0.9717 0.6891 0.2968   0.030415
 C 0.674 0.7609 0.1283   0.713876
 C 0.1851 0.9611 0.8347   -0.415044
 C 0.0868 0.9328 0.721   0.052998
 C 0.9061 0.892 0.6696   -0.1444
 C 0.856 0.7812 0.6796   -0.1567
 C 0.7832 0.7672 0.7463   -0.148496
 C 0.9717 0.8109 0.7968   0.030415
 C 0.674 0.7391 0.6283   0.713876
 C 0.8149 0.4611 0.6653   -0.415045
 C 0.9132 0.4328 0.779   0.052998
 C 0.0939 0.392 0.8304   -0.1444
 C 0.144 0.2812 0.8204   -0.1567
 C 0.2168 0.2672 0.7537   -0.148497
 C 0.0283 0.3109 0.7032   0.030415
 C 0.326 0.2391 0.8717   0.713876
 N 0.9942 0.0812 0.2151   -0.268911
 N 0.0058 0.5812 0.2849   -0.268911
 N 0.0058 0.9188 0.7849   -0.268911
 N 0.9942 0.4188 0.7151   -0.268911
 O 0.6858 0.9826 0.04648   -1.114101
 O 0.9632 0.1233 0.0574   -0.991437
 O 0.1227 0.9524 0.0919   -0.92929
 O 0.2992 0.2444 0.4294   -0.793899
 O 0.4948 0.3151 0.3579   -0.684619
 O 0.3142 0.4826 0.45352   -1.114101
 O 0.0368 0.6233 0.4426   -0.991437
 O 0.8773 0.4524 0.4081   -0.92929
 O 0.7008 0.7444 0.0706   -0.793899
 O 0.5052 0.8151 0.1421   -0.684619
 O 0.3142 0.0174 0.95352   -1.114101
 O 0.0368 0.8767 0.9426   -0.991437
 O 0.8773 0.0476 0.9081   -0.92929
 O 0.7008 0.7556 0.5706   -0.793899
 O 0.5052 0.6849 0.6421   -0.684619
 O 0.6858 0.5174 0.54648   -1.114101
 O 0.9632 0.3767 0.5574   -0.991437
 O 0.1227 0.5476 0.5919   -0.92929
 O 0.2992 0.2556 0.9294   -0.793899
 O 0.4948 0.1849 0.8579   -0.684619
