{'_ref': 'TBD', '_srcid': 'CAKYAQ_clean', 'submitters': [{'name': 'Dalar Nazarian Jeff Camp and David Sholl', 'email': 'dalar@gatech.edu jcamp6@gatech.edu'}], '_method': 'VASP DFT with PBE;DDEC'}
data_CdH14C22(NO)4
_symmetry_space_group_name_H-M   'P 1'
_cell_length_a   8.11910000
_cell_length_b   18.73309998
_cell_length_c   18.82970000
_cell_angle_alpha   90.00000000
_cell_angle_beta   90.00000000
_cell_angle_gamma   100.57400018
_symmetry_Int_Tables_number   1
_chemical_formula_structural   CdH14C22(NO)4
_chemical_formula_sum   'Cd4 H56 C88 N16 O16'
_cell_volume   2815.28736646
_cell_formula_units_Z   4
loop_
 _symmetry_equiv_pos_site_id
 _symmetry_equiv_pos_as_xyz
  1  'x, y, z'
loop_
 _atom_site_label
 _atom_site_fract_x
 _atom_site_fract_y
 _atom_site_fract_z
 _atom_site_charge
 Cd 0.30712 0.99345 0.06015   0.99662
 Cd 0.69288 0.50655 0.56015   0.99662
 Cd 0.69288 0.00655 0.93985   0.99662
 Cd 0.30712 0.49345 0.43985   0.99662
 H 0.8322 0.297 0.4296   0.101211
 H 0.7737 0.204 0.3454   0.127763
 H 0.4936 0.3951 0.333   0.06491
 H 0.6722 0.1138 0.2739   0.131842
 H 0.5771 0.0291 0.1871   0.078169
 H 0.3302 0.1615 0.0931   0.077168
 H 0.4264 0.2519 0.1748   0.122273
 H 0.1529 0.5708 0.7814   0.094427
 H 0.2346 0.6578 0.87   0.124278
 H 0.7937 0.6785 0.7256   0.057257
 H 0.232 0.7269 0.9695   0.129671
 H 0.3046 0.8247 0.0436   0.069978
 H 0.0842 0.9474 0.9226   0.074245
 H 0.9996 0.8533 0.8452   0.127514
 H 0.1678 0.203 0.9296   0.101211
 H 0.2263 0.296 0.8454   0.127763
 H 0.5064 0.1049 0.833   0.06491
 H 0.3278 0.3862 0.7739   0.131841
 H 0.4229 0.4709 0.6871   0.078169
 H 0.6698 0.3385 0.5931   0.077168
 H 0.5736 0.2481 0.6748   0.122273
 H 0.8471 0.9292 0.2814   0.094427
 H 0.7654 0.8422 0.37   0.124277
 H 0.2063 0.8215 0.2256   0.057257
 H 0.768 0.7731 0.4695   0.129671
 H 0.6954 0.6753 0.5436   0.069978
 H 0.9158 0.5526 0.4226   0.074245
 H 0.000399999999999 0.6467 0.3452   0.127514
 H 0.1678 0.703 0.5704   0.101211
 H 0.2263 0.796 0.6546   0.127763
 H 0.5064 0.6049 0.667   0.06491
 H 0.3278 0.8862 0.7261   0.131841
 H 0.4229 0.9709 0.8129   0.078169
 H 0.6698 0.8385 0.9069   0.077168
 H 0.5736 0.7481 0.8252   0.122273
 H 0.8471 0.4292 0.2186   0.094427
 H 0.7654 0.3422 0.13   0.124278
 H 0.2063 0.3215 0.2744   0.057257
 H 0.768 0.2731 0.0305   0.129672
 H 0.6954 0.1753 0.9564   0.069978
 H 0.9158 0.0526 0.0774   0.074245
 H 0.000399999999999 0.1467 0.1548   0.127515
 H 0.8322 0.797 0.0704   0.101211
 H 0.7737 0.704 0.1546   0.127763
 H 0.4936 0.8951 0.167   0.06491
 H 0.6722 0.6138 0.2261   0.131841
 H 0.5771 0.5291 0.3129   0.078169
 H 0.3302 0.6615 0.4069   0.077168
 H 0.4264 0.7519 0.3252   0.122273
 H 0.1529 0.0708 0.7186   0.094427
 H 0.2346 0.1578 0.63   0.124277
 H 0.7937 0.1785 0.7744   0.057257
 H 0.232 0.2269 0.5305   0.129672
 H 0.3046 0.3247 0.4564   0.069978
 H 0.0842 0.4474 0.5774   0.074245
 H 0.9996 0.3533 0.6548   0.127515
 C 0.6778 0.41339 0.44662   0.676457
 C 0.6635 0.35552 0.3917   -0.220142
 C 0.7503 0.2986 0.3938   0.04572
 C 0.7172 0.2441 0.3436   -0.207235
 C 0.6028 0.2481 0.2912   0.229561
 C 0.5522 0.3557 0.33592   0.209025
 C 0.553 0.19161 0.2352   0.072247
 C 0.6007 0.1251 0.2373   -0.200313
 C 0.5426 0.0748 0.185   0.175865
 C 0.4012 0.1513 0.1304   0.162784
 C 0.4562 0.2054 0.1797   -0.167063
 C 0.9037 0.5617 0.6856   0.672665
 C 0.962 0.6162 0.7437   -0.215875
 C 0.0953 0.6103 0.7871   0.038139
 C 0.1446 0.6619 0.8389   -0.218821
 C 0.0607 0.7197 0.8448   0.236195
 C 0.8866 0.6743 0.7549   0.218577
 C 0.1087 0.7794 0.8967   0.073861
 C 0.2001 0.7719 0.9582   -0.223658
 C 0.2427 0.8306 0.0019   0.169831
 C 0.1148 0.9018 0.9322   0.200346
 C 0.0649 0.846 0.8855   -0.179322
 C 0.3222 0.08661 0.94662   0.676457
 C 0.3365 0.14448 0.8917   -0.220142
 C 0.2497 0.2014 0.8938   0.04572
 C 0.2828 0.2559 0.8436   -0.207235
 C 0.3972 0.2519 0.7912   0.229561
 C 0.4478 0.1443 0.83592   0.209025
 C 0.447 0.30839 0.7352   0.072247
 C 0.3993 0.3749 0.7373   -0.200313
 C 0.4574 0.4252 0.685   0.175865
 C 0.5988 0.3487 0.6304   0.162784
 C 0.5438 0.2946 0.6797   -0.167063
 C 0.0963 0.9383 0.1856   0.672665
 C 0.038 0.8838 0.2437   -0.215875
 C 0.9047 0.8897 0.2871   0.038139
 C 0.8554 0.8381 0.3389   -0.218821
 C 0.9393 0.7803 0.3448   0.236195
 C 0.1134 0.8257 0.2549   0.218577
 C 0.8913 0.7206 0.3967   0.073861
 C 0.7999 0.7281 0.4582   -0.223658
 C 0.7573 0.6694 0.5019   0.169831
 C 0.8852 0.5982 0.4322   0.200346
 C 0.9351 0.654 0.3855   -0.179322
 C 0.3222 0.58661 0.55338   0.676457
 C 0.3365 0.64448 0.6083   -0.220142
 C 0.2497 0.7014 0.6062   0.045721
 C 0.2828 0.7559 0.6564   -0.207235
 C 0.3972 0.7519 0.7088   0.229561
 C 0.4478 0.6443 0.66408   0.209025
 C 0.447 0.80839 0.7648   0.072247
 C 0.3993 0.8749 0.7627   -0.200313
 C 0.4574 0.9252 0.815   0.175865
 C 0.5988 0.8487 0.8696   0.162784
 C 0.5438 0.7946 0.8203   -0.167063
 C 0.0963 0.4383 0.3144   0.672665
 C 0.038 0.3838 0.2563   -0.215874
 C 0.9047 0.3897 0.2129   0.038139
 C 0.8554 0.3381 0.1611   -0.218821
 C 0.9393 0.2803 0.1552   0.236195
 C 0.1134 0.3257 0.2451   0.218577
 C 0.8913 0.2206 0.1033   0.073861
 C 0.7999 0.2281 0.0418   -0.223658
 C 0.7573 0.1694 0.9981   0.169831
 C 0.8852 0.0982 0.0678   0.200346
 C 0.9351 0.154 0.1145   -0.179322
 C 0.6778 0.91339 0.05338   0.676457
 C 0.6635 0.85552 0.1083   -0.220142
 C 0.7503 0.7986 0.1062   0.045721
 C 0.7172 0.7441 0.1564   -0.207235
 C 0.6028 0.7481 0.2088   0.229561
 C 0.5522 0.8557 0.16408   0.209025
 C 0.553 0.69161 0.2648   0.072247
 C 0.6007 0.6251 0.2627   -0.200313
 C 0.5426 0.5748 0.315   0.175865
 C 0.4012 0.6513 0.3696   0.162784
 C 0.4562 0.7054 0.3203   -0.167063
 C 0.9037 0.0617 0.8144   0.672665
 C 0.962 0.1162 0.7563   -0.215875
 C 0.0953 0.1103 0.7129   0.038139
 C 0.1446 0.1619 0.6611   -0.218821
 C 0.0607 0.2197 0.6552   0.236195
 C 0.8866 0.1743 0.7451   0.218577
 C 0.1087 0.2794 0.6033   0.073861
 C 0.2001 0.2719 0.5418   -0.223658
 C 0.2427 0.3306 0.4981   0.169831
 C 0.1148 0.4018 0.5678   0.200346
 C 0.0649 0.346 0.6145   -0.179322
 N 0.5216 0.30458 0.28614   -0.379685
 N 0.4427 0.08587 0.13259   -0.346051
 N 0.9318 0.72552 0.8034   -0.406279
 N 0.2032 0.8956 0.98993   -0.357289
 N 0.4784 0.19542 0.78614   -0.379685
 N 0.5573 0.41413 0.63259   -0.346051
 N 0.0682 0.77448 0.3034   -0.406279
 N 0.7968 0.6044 0.48993   -0.357289
 N 0.4784 0.69542 0.71386   -0.379685
 N 0.5573 0.91413 0.86741   -0.346051
 N 0.0682 0.27448 0.1966   -0.406279
 N 0.7968 0.1044 0.01007   -0.357289
 N 0.5216 0.80458 0.21386   -0.379685
 N 0.4427 0.58587 0.36741   -0.346051
 N 0.9318 0.22552 0.6966   -0.406279
 N 0.2032 0.3956 0.51007   -0.357289
 O 0.5715 0.45462 0.44713   -0.633236
 O 0.792 0.41842 0.49222   -0.57677
 O 0.7755 0.5751 0.65266   -0.629253
 O 0.9733 0.51034 0.67448   -0.597607
 O 0.4285 0.04538 0.94713   -0.633236
 O 0.208 0.08158 0.99222   -0.57677
 O 0.2245 0.9249 0.15266   -0.629253
 O 0.0267 0.98966 0.17448   -0.597607
 O 0.4285 0.54538 0.55287   -0.633236
 O 0.208 0.58158 0.50778   -0.57677
 O 0.2245 0.4249 0.34734   -0.629253
 O 0.0267 0.48966 0.32552   -0.597607
 O 0.5715 0.95462 0.05287   -0.633236
 O 0.792 0.91842 0.00778   -0.57677
 O 0.7755 0.0751 0.84734   -0.629253
 O 0.9733 0.01034 0.82552   -0.597607
