{'_ref': 'TBD', '_srcid': 'CAKYAQ_clean', 'submitters': [{'name': 'Dalar Nazarian Jeff Camp and David Sholl', 'email': 'dalar@gatech.edu jcamp6@gatech.edu'}], '_method': 'VASP DFT with PBE;DDEC'}
data_Zn2H22C33N6O7
_symmetry_space_group_name_H-M   'P 1'
_cell_length_a   6.18020000
_cell_length_b   23.31269965
_cell_length_c   29.42180000
_cell_angle_alpha   90.00000000
_cell_angle_beta   90.00000000
_cell_angle_gamma   95.66300058
_symmetry_Int_Tables_number   1
_chemical_formula_structural   Zn2H22C33N6O7
_chemical_formula_sum   'Zn8 H88 C132 N24 O28'
_cell_volume   4218.3204984
_cell_formula_units_Z   4
loop_
 _symmetry_equiv_pos_site_id
 _symmetry_equiv_pos_as_xyz
  1  'x, y, z'
loop_
 _atom_site_label
 _atom_site_fract_x
 _atom_site_fract_y
 _atom_site_fract_z
 _atom_site_charge
 Zn 0.52453 0.73077 0.92375   0.867646
 Zn 0.47972 0.75274 0.5391   0.976405
 Zn 0.47547 0.76923 0.42375   0.867646
 Zn 0.52028 0.74726 0.0391   0.976405
 Zn 0.47547 0.26923 0.07625   0.867646
 Zn 0.52028 0.24726 0.4609   0.976405
 Zn 0.52453 0.23077 0.57625   0.867646
 Zn 0.47972 0.25274 0.9609   0.976405
 H 0.4704 0.7101 0.7533   0.068692
 H 0.808 0.7827 0.76   0.121404
 H 0.9965 0.7702 0.8274   0.102024
 H 0.1222 0.7141 0.6353   0.125305
 H 0.9184 0.715 0.5694   0.092058
 H 0.4994 0.8071 0.6292   0.082187
 H 0.6804 0.8059 0.6974   0.129078
 H 0.7767 0.3718 0.9771   0.056145
 H 0.2149 0.5112 0.9016   0.119363
 H 0.346 0.4228 0.9171   0.101659
 H 0.5599 0.5286 0.9649   0.110531
 H 0.4269 0.6165 0.9603   0.073
 H 0.9288 0.6784 0.8881   0.081752
 H 0.0831 0.5922 0.8928   0.129649
 H 0.9838 0.1022 0.9392   0.076285
 H 0.3721 0.9453 0.9475   0.112188
 H 0.5475 0.0366 0.958   0.076724
 H 0.7039 0.9381 0.8951   0.134243
 H 0.5181 0.848 0.8907   0.076974
 H 0.9712 0.7796 0.9593   0.088561
 H 0.1698 0.8675 0.966   0.133187
 H 0.277 0.716 0.978   0.441206
 H 0.5296 0.7899 0.2533   0.068692
 H 0.192 0.7173 0.26   0.121404
 H 0.0035 0.7298 0.3274   0.102024
 H 0.8778 0.7859 0.1353   0.125305
 H 0.0816 0.785 0.0694   0.092058
 H 0.5006 0.6929 0.1292   0.082187
 H 0.3196 0.6941 0.1974   0.129078
 H 0.2233 0.1282 0.4771   0.056145
 H 0.7851 0.9888 0.4016   0.119363
 H 0.654 0.0772 0.4171   0.101659
 H 0.4401 0.9714 0.4649   0.110531
 H 0.5731 0.8835 0.4603   0.073
 H 0.0712 0.8216 0.3881   0.081752
 H 0.9169 0.9078 0.3928   0.129649
 H 0.0162 0.3978 0.4392   0.076285
 H 0.6279 0.5547 0.4475   0.112188
 H 0.4525 0.4634 0.458   0.076724
 H 0.2961 0.5619 0.3951   0.134243
 H 0.4819 0.652 0.3907   0.076974
 H 0.0288 0.7204 0.4593   0.088561
 H 0.8302 0.6325 0.466   0.133187
 H 0.723 0.784 0.478   0.441206
 H 0.5296 0.2899 0.2467   0.068692
 H 0.192 0.2173 0.24   0.121404
 H 0.0035 0.2298 0.1726   0.102024
 H 0.8778 0.2859 0.3647   0.125305
 H 0.0816 0.285 0.4306   0.092058
 H 0.5006 0.1929 0.3708   0.082188
 H 0.3196 0.1941 0.3026   0.129078
 H 0.2233 0.6282 0.0229   0.056145
 H 0.7851 0.4888 0.0984   0.119363
 H 0.654 0.5772 0.0829   0.10166
 H 0.4401 0.4714 0.0351   0.110531
 H 0.5731 0.3835 0.0397   0.073
 H 0.0712 0.3216 0.1119   0.081752
 H 0.9169 0.4078 0.1072   0.129649
 H 0.0162 0.8978 0.0608   0.076285
 H 0.6279 0.0547 0.0525   0.112188
 H 0.4525 0.9634 0.042   0.076724
 H 0.2961 0.0619 0.1049   0.134242
 H 0.4819 0.152 0.1093   0.076974
 H 0.0288 0.2204 0.0407   0.088561
 H 0.8302 0.1325 0.034   0.133187
 H 0.723 0.284 0.022   0.441206
 H 0.4704 0.2101 0.7467   0.068692
 H 0.808 0.2827 0.74   0.121404
 H 0.9965 0.2702 0.6726   0.102024
 H 0.1222 0.2141 0.8647   0.125305
 H 0.9184 0.215 0.9306   0.092058
 H 0.4994 0.3071 0.8708   0.082188
 H 0.6804 0.3059 0.8026   0.129078
 H 0.7767 0.8718 0.5229   0.056145
 H 0.2149 0.0112 0.5984   0.119363
 H 0.346 0.9228 0.5829   0.10166
 H 0.5599 0.0286 0.5351   0.110531
 H 0.4269 0.1165 0.5397   0.073
 H 0.9288 0.1784 0.6119   0.081752
 H 0.0831 0.0922 0.6072   0.129649
 H 0.9838 0.6022 0.5608   0.076285
 H 0.3721 0.4453 0.5525   0.112188
 H 0.5475 0.5366 0.542   0.076724
 H 0.7039 0.4381 0.6049   0.134242
 H 0.5181 0.348 0.6093   0.076974
 H 0.9712 0.2796 0.5407   0.088561
 H 0.1698 0.3675 0.534   0.133187
 H 0.277 0.216 0.522   0.441206
 C 0.3936 0.7346 0.8389   0.656865
 C 0.2574 0.74 0.7976   -0.225104
 C 0.3329 0.725 0.7549   0.206211
 C 0.0341 0.7521 0.7193   0.240794
 C 0.9451 0.7675 0.7595   -0.192116
 C 0.0573 0.7607 0.7991   0.051524
 C 0.9201 0.7572 0.6752   0.066284
 C 0.9908 0.732 0.6352   -0.16453
 C 0.8699 0.7333 0.59585   0.179539
 C 0.6245 0.7866 0.631   0.174009
 C 0.7321 0.7865 0.6718   -0.205493
 C 0.1563 0.3319 0.9635   0.654126
 C 0.0769 0.3887 0.95071   -0.207781
 C 0.8705 0.4013 0.963   0.202692
 C 0.9269 0.493 0.9347   0.226669
 C 0.1295 0.4826 0.9185   -0.196429
 C 0.2055 0.4303 0.9272   0.044614
 C 0.839 0.55 0.9299   0.076036
 C 0.6412 0.5592 0.9492   -0.16755
 C 0.5614 0.6114 0.946   0.158143
 C 0.8537 0.6474 0.9044   0.197734
 C 0.9467 0.5959 0.9068   -0.198962
 C 0.3992 0.1386 0.9578   0.655303
 C 0.282 0.0795 0.9507   -0.211549
 C 0.0657 0.0699 0.941   0.213417
 C 0.0772 0.9715 0.938   0.239986
 C 0.2923 0.978 0.9461   -0.193437
 C 0.3954 0.032 0.9524   0.05696
 C 0.959 0.9133 0.9324   0.07882
 C 0.7617 0.9061 0.909   -0.187663
 C 0.6532 0.8522 0.9063   0.154407
 C 0.916 0.8124 0.9462   0.186575
 C 0.0345 0.8647 0.9504   -0.175776
 C 0.6064 0.7654 0.3389   0.656865
 C 0.7426 0.76 0.2976   -0.225104
 C 0.6671 0.775 0.2549   0.206211
 C 0.9659 0.7479 0.2193   0.240794
 C 0.0549 0.7325 0.2595   -0.192116
 C 0.9427 0.7393 0.2991   0.051524
 C 0.0799 0.7428 0.1752   0.066284
 C 0.0092 0.768 0.1352   -0.16453
 C 0.1301 0.7667 0.09585   0.179539
 C 0.3755 0.7134 0.131   0.174009
 C 0.2679 0.7135 0.1718   -0.205493
 C 0.8437 0.1681 0.4635   0.654126
 C 0.9231 0.1113 0.45071   -0.207781
 C 0.1295 0.0987 0.463   0.202692
 C 0.0731 0.007 0.4347   0.226669
 C 0.8705 0.0174 0.4185   -0.196429
 C 0.7945 0.0697 0.4272   0.044614
 C 0.161 0.95 0.4299   0.076036
 C 0.3588 0.9408 0.4492   -0.16755
 C 0.4386 0.8886 0.446   0.158143
 C 0.1463 0.8526 0.4044   0.197734
 C 0.0533 0.9041 0.4068   -0.198962
 C 0.6008 0.3614 0.4578   0.655303
 C 0.718 0.4205 0.4507   -0.211549
 C 0.9343 0.4301 0.441   0.213417
 C 0.9228 0.5285 0.438   0.239986
 C 0.7077 0.522 0.4461   -0.193437
 C 0.6046 0.468 0.4524   0.05696
 C 0.041 0.5867 0.4324   0.07882
 C 0.2383 0.5939 0.409   -0.187663
 C 0.3468 0.6478 0.4063   0.154407
 C 0.084 0.6876 0.4462   0.186575
 C 0.9655 0.6353 0.4504   -0.175776
 C 0.6064 0.2654 0.1611   0.656865
 C 0.7426 0.26 0.2024   -0.225104
 C 0.6671 0.275 0.2451   0.20621
 C 0.9659 0.2479 0.2807   0.240794
 C 0.0549 0.2325 0.2405   -0.192116
 C 0.9427 0.2393 0.2009   0.051524
 C 0.0799 0.2428 0.3248   0.066284
 C 0.0092 0.268 0.3648   -0.16453
 C 0.1301 0.2667 0.40415   0.179539
 C 0.3755 0.2134 0.369   0.174009
 C 0.2679 0.2135 0.3282   -0.205493
 C 0.8437 0.6681 0.0365   0.654126
 C 0.9231 0.6113 0.04929   -0.207781
 C 0.1295 0.5987 0.037   0.202692
 C 0.0731 0.507 0.0653   0.226669
 C 0.8705 0.5174 0.0815   -0.196429
 C 0.7945 0.5697 0.0728   0.044614
 C 0.161 0.45 0.0701   0.076036
 C 0.3588 0.4408 0.0508   -0.16755
 C 0.4386 0.3886 0.054   0.158143
 C 0.1463 0.3526 0.0956   0.197734
 C 0.0533 0.4041 0.0932   -0.198962
 C 0.6008 0.8614 0.0422   0.655303
 C 0.718 0.9205 0.0493   -0.211549
 C 0.9343 0.9301 0.059   0.213417
 C 0.9228 0.0285 0.062   0.239986
 C 0.7077 0.022 0.0539   -0.193437
 C 0.6046 0.968 0.0476   0.05696
 C 0.041 0.0867 0.0676   0.07882
 C 0.2383 0.0939 0.091   -0.187662
 C 0.3468 0.1478 0.0937   0.154407
 C 0.084 0.1876 0.0538   0.186575
 C 0.9655 0.1353 0.0496   -0.175776
 C 0.3936 0.2346 0.6611   0.656865
 C 0.2574 0.24 0.7024   -0.225104
 C 0.3329 0.225 0.7451   0.20621
 C 0.0341 0.2521 0.7807   0.240794
 C 0.9451 0.2675 0.7405   -0.192116
 C 0.0573 0.2607 0.7009   0.051524
 C 0.9201 0.2572 0.8248   0.066284
 C 0.9908 0.232 0.8648   -0.16453
 C 0.8699 0.2333 0.90415   0.179539
 C 0.6245 0.2866 0.869   0.174009
 C 0.7321 0.2865 0.8282   -0.205493
 C 0.1563 0.8319 0.5365   0.654126
 C 0.0769 0.8887 0.54929   -0.207781
 C 0.8705 0.9013 0.537   0.202692
 C 0.9269 0.993 0.5653   0.226669
 C 0.1295 0.9826 0.5815   -0.196429
 C 0.2055 0.9303 0.5728   0.044614
 C 0.839 0.05 0.5701   0.076036
 C 0.6412 0.0592 0.5508   -0.16755
 C 0.5614 0.1114 0.554   0.158143
 C 0.8537 0.1474 0.5956   0.197734
 C 0.9467 0.0959 0.5932   -0.198962
 C 0.3992 0.6386 0.5422   0.655303
 C 0.282 0.5795 0.5493   -0.211549
 C 0.0657 0.5699 0.559   0.213417
 C 0.0772 0.4715 0.562   0.239986
 C 0.2923 0.478 0.5539   -0.193437
 C 0.3954 0.532 0.5476   0.05696
 C 0.959 0.4133 0.5676   0.07882
 C 0.7617 0.4061 0.591   -0.187662
 C 0.6532 0.3522 0.5937   0.154407
 C 0.916 0.3124 0.5538   0.186575
 C 0.0345 0.3647 0.5496   -0.175776
 N 0.2254 0.7301 0.7169   -0.404257
 N 0.6853 0.7596 0.59368   -0.362634
 N 0.7955 0.4523 0.95606   -0.389209
 N 0.6647 0.6558 0.92358   -0.34174
 N 0.9625 0.0176 0.9339   -0.413394
 N 0.7255 0.8052 0.92424   -0.345339
 N 0.7746 0.7699 0.2169   -0.404257
 N 0.3147 0.7404 0.09368   -0.362634
 N 0.2045 0.0477 0.45606   -0.389209
 N 0.3353 0.8442 0.42358   -0.34174
 N 0.0375 0.4824 0.4339   -0.413394
 N 0.2745 0.6948 0.42424   -0.345339
 N 0.7746 0.2699 0.2831   -0.404257
 N 0.3147 0.2404 0.40632   -0.362634
 N 0.2045 0.5477 0.04394   -0.389209
 N 0.3353 0.3442 0.07642   -0.34174
 N 0.0375 0.9824 0.0661   -0.413394
 N 0.2745 0.1948 0.07576   -0.345339
 N 0.2254 0.2301 0.7831   -0.404257
 N 0.6853 0.2596 0.90632   -0.362634
 N 0.7955 0.9523 0.54394   -0.389209
 N 0.6647 0.1558 0.57642   -0.34174
 N 0.9625 0.5176 0.5661   -0.413394
 N 0.7255 0.3052 0.57576   -0.345339
 O 0.3006 0.7396 0.8772   -0.604688
 O 0.5877 0.726 0.83496   -0.594542
 O 0.055 0.30111 0.99212   -0.5697
 O 0.3284 0.32013 0.94333   -0.623698
 O 0.2864 0.18145 0.95188   -0.611965
 O 0.5928 0.1431 0.96815   -0.568816
 O 0.3829 0.7285 0.982   -0.940603
 O 0.6994 0.7604 0.3772   -0.604688
 O 0.4123 0.774 0.33496   -0.594542
 O 0.945 0.19889 0.49212   -0.5697
 O 0.6716 0.17987 0.44333   -0.623698
 O 0.7136 0.31855 0.45188   -0.611965
 O 0.4072 0.3569 0.46815   -0.568816
 O 0.6171 0.7715 0.482   -0.940603
 O 0.6994 0.2604 0.1228   -0.604688
 O 0.4123 0.274 0.16504   -0.594542
 O 0.945 0.69889 0.00788   -0.5697
 O 0.6716 0.67987 0.05667   -0.623698
 O 0.7136 0.81855 0.04812   -0.611965
 O 0.4072 0.8569 0.03185   -0.568816
 O 0.6171 0.2715 0.018   -0.940603
 O 0.3006 0.2396 0.6228   -0.604688
 O 0.5877 0.226 0.66504   -0.594542
 O 0.055 0.80111 0.50788   -0.5697
 O 0.3284 0.82013 0.55667   -0.623698
 O 0.2864 0.68145 0.54812   -0.611965
 O 0.5928 0.6431 0.53185   -0.568816
 O 0.3829 0.2285 0.518   -0.940603
