{'_ref': 'TBD', '_srcid': 'CAKYAQ_clean', 'submitters': [{'name': 'Dalar Nazarian Jeff Camp and David Sholl', 'email': 'dalar@gatech.edu jcamp6@gatech.edu'}], '_method': 'VASP DFT with PBE;DDEC'}
data_Cu3Mo2H24C30(NO)6
_symmetry_space_group_name_H-M   'P 1'
_cell_length_a   9.61890002
_cell_length_b   10.63899983
_cell_length_c   10.98600000
_cell_angle_alpha   79.52300172
_cell_angle_beta   64.99499706
_cell_angle_gamma   70.57400143
_symmetry_Int_Tables_number   1
_chemical_formula_structural   Cu3Mo2H24C30(NO)6
_chemical_formula_sum   'Cu3 Mo2 H24 C30 N6 O6'
_cell_volume   959.758674776
_cell_formula_units_Z   1
loop_
 _symmetry_equiv_pos_site_id
 _symmetry_equiv_pos_as_xyz
  1  'x, y, z'
loop_
 _atom_site_label
 _atom_site_fract_x
 _atom_site_fract_y
 _atom_site_fract_z
 _atom_site_charge
 Cu 0.65174 0.15708 0.54579   0.396699
 Cu 0.34826 0.84292 0.45421   0.396699
 Cu 0.0 0.5 0.5   0.653334
 Mo 0.35329 0.20841 0.40615   1.245584
 Mo 0.64671 0.79159 0.59385   1.245585
 H 0.5611 0.2098 0.8338   0.071751
 H 0.3637 0.2032 0.041   0.073748
 H 0.2141 0.1135 0.2283   0.078277
 H 0.0034 0.1217 0.4285   0.067928
 H 0.7083 0.2011 0.2519   0.000679
 H 0.9104 0.1925 0.0469   0.125264
 H 0.1393 0.0808 0.8739   0.120652
 H 0.3491 0.0793 0.6736   0.073161
 H 0.2351 0.4798 0.825   0.113132
 H 0.2297 0.481 0.6191   0.080735
 H 0.767 0.5215 0.9882   0.10967
 H 0.772 0.5293 0.7786   0.029472
 H 0.4389 0.7902 0.1662   0.071751
 H 0.6363 0.7968 0.959   0.073743
 H 0.7859 0.8865 0.7717   0.078278
 H 0.9966 0.8783 0.5715   0.067929
 H 0.2917 0.7989 0.7481   0.000677
 H 0.0896 0.8075 0.9531   0.125264
 H 0.8607 0.9192 0.1261   0.120651
 H 0.6509 0.9207 0.3264   0.07316
 H 0.7649 0.5202 0.175   0.113141
 H 0.7703 0.519 0.3809   0.080734
 H 0.233 0.4785 0.0118   0.109683
 H 0.228 0.4707 0.2214   0.029468
 C 0.4745 0.1833 0.8421   0.123979
 C 0.3555 0.1812 0.9666   -0.170999
 C 0.2239 0.1466 0.9813   0.07599
 C 0.0883 0.1518 0.1126   0.081746
 C 0.1118 0.1313 0.2303   -0.189133
 C 0.9842 0.137 0.3501   0.148922
 C 0.812 0.183 0.247   0.190826
 C 0.9324 0.1782 0.1238   -0.216279
 C 0.2245 0.1077 0.8683   -0.203364
 C 0.3499 0.1087 0.748   0.131068
 C 0.139 0.489 0.8183   -0.201932
 C 0.1346 0.491 0.6949   0.163976
 C 0.000399999999999 0.5005 0.9326   0.06715
 C 0.8633 0.5145 0.9141   -0.195702
 C 0.867 0.5182 0.7882   0.135903
 C 0.5255 0.8167 0.1579   0.123979
 C 0.6445 0.8188 0.0334   -0.170995
 C 0.7761 0.8534 0.0187   0.075993
 C 0.9117 0.8482 0.8874   0.081752
 C 0.8882 0.8687 0.7697   -0.189133
 C 0.0158 0.863 0.6499   0.148922
 C 0.188 0.817 0.753   0.190834
 C 0.0676 0.8218 0.8762   -0.216277
 C 0.7755 0.8923 0.1317   -0.203363
 C 0.6501 0.8913 0.252   0.131068
 C 0.861 0.511 0.1817   -0.201972
 C 0.8654 0.509 0.3051   0.163989
 C 0.9996 0.4995 0.0674   0.067473
 C 0.1367 0.4855 0.0859   -0.195751
 C 0.133 0.4818 0.2118   0.135918
 N 0.4731 0.1493 0.7319   -0.300106
 N 0.8346 0.163 0.3619   -0.287971
 N 0.000700000000002 0.5065 0.679   -0.323493
 N 0.5269 0.8507 0.2681   -0.300106
 N 0.1654 0.837 0.6381   -0.287972
 N 0.9993 0.4935 0.321   -0.323499
 O 0.4979 0.2085 0.4648   -0.632273
 O 0.2934 0.0658 0.4658   -0.606077
 O 0.1886 0.3492 0.4602   -0.705795
 O 0.5021 0.7915 0.5352   -0.632273
 O 0.7066 0.9342 0.5342   -0.606077
 O 0.8114 0.6508 0.5398   -0.705795
