{'_ref': 'TBD', '_srcid': 'CAKYAQ_clean', 'submitters': [{'name': 'Dalar Nazarian Jeff Camp and David Sholl', 'email': 'dalar@gatech.edu jcamp6@gatech.edu'}], '_method': 'VASP DFT with PBE;DDEC'}
data_Mn3H40C62N4O15
_symmetry_space_group_name_H-M   'P 1'
_cell_length_a   11.12750015
_cell_length_b   11.12750050
_cell_length_c   25.89700000
_cell_angle_alpha   91.91430026
_cell_angle_beta   91.91430032
_cell_angle_gamma   100.23000086
_symmetry_Int_Tables_number   1
_chemical_formula_structural   Mn3H40C62N4O15
_chemical_formula_sum   'Mn6 H80 C124 N8 O30'
_cell_volume   3151.33854643
_cell_formula_units_Z   2
loop_
 _symmetry_equiv_pos_site_id
 _symmetry_equiv_pos_as_xyz
  1  'x, y, z'
loop_
 _atom_site_label
 _atom_site_fract_x
 _atom_site_fract_y
 _atom_site_fract_z
 _atom_site_charge
 Mn 0.16926 0.8153 0.50813   0.962041
 Mn 0.1847 0.83074 0.99187   0.962041
 Mn 0.83074 0.1847 0.49187   0.962041
 Mn 0.8153 0.16926 0.00813   0.962041
 Mn 0.0 0.5 0.5   1.20887
 Mn 0.5 0.0 0.0   1.208869
 H 0.9237 0.9509 0.398   0.0922
 H 0.7837 0.0023 0.3382   0.138584
 H 0.6489 0.6459 0.3099   0.123242
 H 0.784 0.5954 0.3722   0.102218
 H 0.6996 0.2424 0.6314   0.0932
 H 0.6165 0.2625 0.7111   0.12671
 H 0.6153 0.6163 0.6863   0.125023
 H 0.7024 0.5958 0.6074   0.083299
 H 0.3409 0.6921 0.5853   0.094625
 H 0.5221 0.7389 0.6338   0.117564
 H 0.6316 0.9328 0.6366   0.102998
 H 0.5647 0.0799 0.5879   0.119305
 H 0.4782 0.2158 0.5497   0.119741
 H 0.3765 0.3473 0.5051   0.105312
 H 0.1955 0.2711 0.4597   0.12604
 H 0.1212 0.0652 0.4586   0.080698
 H 0.822 0.8756 0.2363   0.1321
 H 0.8619 0.9537 0.1553   0.094664
 H 0.5214 0.0222 0.1407   0.097915
 H 0.4812 0.9486 0.2224   0.133833
 H 0.0491 0.0763 0.102   0.0922
 H 0.9977 0.2163 0.1618   0.138584
 H 0.3541 0.3511 0.1901   0.123242
 H 0.4046 0.216 0.1278   0.102217
 H 0.7576 0.3004 0.8686   0.0932
 H 0.7375 0.3835 0.7889   0.12671
 H 0.3837 0.3847 0.8137   0.125023
 H 0.4042 0.2976 0.8926   0.083299
 H 0.3079 0.6591 0.9147   0.094625
 H 0.2611 0.4779 0.8662   0.117564
 H 0.0672 0.3684 0.8634   0.102998
 H 0.9201 0.4353 0.9121   0.119305
 H 0.7842 0.5218 0.9503   0.119741
 H 0.6527 0.6235 0.9949   0.105312
 H 0.7289 0.8045 0.0403   0.12604
 H 0.9348 0.8788 0.0414   0.080698
 H 0.1244 0.178 0.2637   0.132098
 H 0.0463 0.1381 0.3447   0.094663
 H 0.9778 0.4786 0.3593   0.097914
 H 0.0514 0.5188 0.2776   0.133832
 H 0.0763 0.0491 0.602   0.0922
 H 0.2163 0.9977 0.6618   0.138584
 H 0.3511 0.3541 0.6901   0.123243
 H 0.216 0.4046 0.6278   0.102219
 H 0.3004 0.7576 0.3686   0.0932
 H 0.3835 0.7375 0.2889   0.126709
 H 0.3847 0.3837 0.3137   0.125023
 H 0.2976 0.4042 0.3926   0.083299
 H 0.6591 0.3079 0.4147   0.094626
 H 0.4779 0.2611 0.3662   0.117564
 H 0.3684 0.0672 0.3634   0.102999
 H 0.4353 0.9201 0.4121   0.119305
 H 0.5218 0.7842 0.4503   0.119741
 H 0.6235 0.6527 0.4949   0.105315
 H 0.8045 0.7289 0.5403   0.12604
 H 0.8788 0.9348 0.5414   0.080698
 H 0.178 0.1244 0.7637   0.132099
 H 0.1381 0.0463 0.8447   0.094664
 H 0.4786 0.9778 0.8593   0.097915
 H 0.5188 0.0514 0.7776   0.133832
 H 0.9509 0.9237 0.898   0.0922
 H 0.0023 0.7837 0.8382   0.138584
 H 0.6459 0.6489 0.8099   0.123243
 H 0.5954 0.784 0.8722   0.102218
 H 0.2424 0.6996 0.1314   0.0932
 H 0.2625 0.6165 0.2111   0.126708
 H 0.6163 0.6153 0.1863   0.125023
 H 0.5958 0.7024 0.1074   0.083299
 H 0.6921 0.3409 0.0853   0.094626
 H 0.7389 0.5221 0.1338   0.117564
 H 0.9328 0.6316 0.1366   0.102999
 H 0.0799 0.5647 0.0879   0.119304
 H 0.2158 0.4782 0.0497   0.119741
 H 0.3473 0.3765 0.0051   0.105315
 H 0.2711 0.1955 0.9597   0.12604
 H 0.0652 0.1212 0.9586   0.080698
 H 0.8756 0.822 0.7363   0.132098
 H 0.9537 0.8619 0.6553   0.094663
 H 0.0222 0.5214 0.6407   0.097914
 H 0.9486 0.4812 0.7224   0.133832
 C 0.9556 0.7368 0.43324   0.685443
 C 0.8682 0.7682 0.39176   -0.196267
 C 0.8675 0.8895 0.38084   0.021683
 C 0.7845 0.9207 0.34477   -0.2415
 C 0.7031 0.7071 0.32817   -0.232409
 C 0.7849 0.6769 0.36516   0.001342
 C 0.7644 0.3994 0.5592   0.696809
 C 0.7084 0.4164 0.61068   -0.187224
 C 0.6825 0.3179 0.64242   0.006721
 C 0.6318 0.329 0.68994   -0.240042
 C 0.604 0.4416 0.70552   0.287186
 C 0.6317 0.5407 0.6751   -0.240293
 C 0.6837 0.5283 0.62783   0.006031
 C 0.3852 0.7714 0.5862   0.167237
 C 0.494 0.7992 0.6152   -0.182121
 C 0.5594 0.9136 0.6166   0.014862
 C 0.5189 0.0015 0.5883   -0.148158
 C 0.4083 0.9715 0.56028   0.179872
 C 0.3544 0.0614 0.53093   0.170845
 C 0.4048 0.186 0.53149   -0.155376
 C 0.3444 0.2642 0.5047   0.015801
 C 0.2375 0.2193 0.47761   -0.167253
 C 0.1935 0.0959 0.4774   0.18191
 C 0.7029 0.8289 0.3187   0.273799
 C 0.6468 0.906 0.23725   0.295974
 C 0.7622 0.9058 0.21744   -0.271534
 C 0.7852 0.952 0.16873   0.018177
 C 0.6963 0.9955 0.13981   -0.205314
 C 0.5819 0.9937 0.15994   0.028709
 C 0.5577 0.9491 0.20884   -0.252279
 C 0.7271 0.0471 0.08816   0.655398
 C 0.2632 0.0444 0.06676   0.685443
 C 0.2318 0.1318 0.10824   -0.196267
 C 0.1105 0.1325 0.11916   0.021683
 C 0.0793 0.2155 0.15523   -0.2415
 C 0.2929 0.2969 0.17183   -0.232409
 C 0.3231 0.2151 0.13484   0.001342
 C 0.6006 0.2356 0.9408   0.696809
 C 0.5836 0.2916 0.88932   -0.187224
 C 0.6821 0.3175 0.85758   0.006721
 C 0.671 0.3682 0.81006   -0.240042
 C 0.5584 0.396 0.79448   0.287186
 C 0.4593 0.3683 0.8249   -0.240293
 C 0.4717 0.3163 0.87217   0.006031
 C 0.2286 0.6148 0.9138   0.167238
 C 0.2008 0.506 0.8848   -0.182122
 C 0.0864 0.4406 0.8834   0.014862
 C 0.9985 0.4811 0.9117   -0.148158
 C 0.0285 0.5917 0.93972   0.179872
 C 0.9386 0.6456 0.96907   0.170845
 C 0.814 0.5952 0.96851   -0.155375
 C 0.7358 0.6556 0.9953   0.015801
 C 0.7807 0.7625 0.02239   -0.167253
 C 0.9041 0.8065 0.0226   0.18191
 C 0.1711 0.2971 0.1813   0.273799
 C 0.094 0.3532 0.26275   0.295974
 C 0.0942 0.2378 0.28256   -0.271534
 C 0.048 0.2148 0.33127   0.018177
 C 0.0045 0.3037 0.36019   -0.205314
 C 0.0063 0.4181 0.34006   0.028709
 C 0.0509 0.4423 0.29116   -0.252279
 C 0.9529 0.2729 0.41184   0.655398
 C 0.0444 0.2632 0.56676   0.685443
 C 0.1318 0.2318 0.60824   -0.196267
 C 0.1325 0.1105 0.61916   0.021682
 C 0.2155 0.0793 0.65523   -0.2415
 C 0.2969 0.2929 0.67183   -0.232409
 C 0.2151 0.3231 0.63484   0.001342
 C 0.2356 0.6006 0.4408   0.696809
 C 0.2916 0.5836 0.38932   -0.187224
 C 0.3175 0.6821 0.35758   0.006721
 C 0.3682 0.671 0.31006   -0.240042
 C 0.396 0.5584 0.29448   0.287186
 C 0.3683 0.4593 0.3249   -0.240293
 C 0.3163 0.4717 0.37217   0.00603
 C 0.6148 0.2286 0.4138   0.167238
 C 0.506 0.2008 0.3848   -0.18212
 C 0.4406 0.0864 0.3834   0.014862
 C 0.4811 0.9985 0.4117   -0.148157
 C 0.5917 0.0285 0.43972   0.179873
 C 0.6456 0.9386 0.46907   0.170845
 C 0.5952 0.814 0.46851   -0.155375
 C 0.6556 0.7358 0.4953   0.015801
 C 0.7625 0.7807 0.52239   -0.167252
 C 0.8065 0.9041 0.5226   0.181911
 C 0.2971 0.1711 0.6813   0.273799
 C 0.3532 0.094 0.76275   0.295974
 C 0.2378 0.0942 0.78256   -0.271534
 C 0.2148 0.048 0.83127   0.018176
 C 0.3037 0.0045 0.86019   -0.205314
 C 0.4181 0.0063 0.84006   0.028709
 C 0.4423 0.0509 0.79116   -0.252279
 C 0.2729 0.9529 0.91184   0.655398
 C 0.7368 0.9556 0.93324   0.685442
 C 0.7682 0.8682 0.89176   -0.196267
 C 0.8895 0.8675 0.88084   0.021683
 C 0.9207 0.7845 0.84477   -0.2415
 C 0.7071 0.7031 0.82817   -0.232409
 C 0.6769 0.7849 0.86516   0.001342
 C 0.3994 0.7644 0.0592   0.696809
 C 0.4164 0.7084 0.11068   -0.187224
 C 0.3179 0.6825 0.14242   0.006721
 C 0.329 0.6318 0.18994   -0.240042
 C 0.4416 0.604 0.20552   0.287186
 C 0.5407 0.6317 0.1751   -0.240293
 C 0.5283 0.6837 0.12783   0.00603
 C 0.7714 0.3852 0.0862   0.167238
 C 0.7992 0.494 0.1152   -0.18212
 C 0.9136 0.5594 0.1166   0.014862
 C 0.0015 0.5189 0.0883   -0.148158
 C 0.9715 0.4083 0.06028   0.179873
 C 0.0614 0.3544 0.03093   0.170845
 C 0.186 0.4048 0.03149   -0.155373
 C 0.2642 0.3444 0.0047   0.015801
 C 0.2193 0.2375 0.97761   -0.167252
 C 0.0959 0.1935 0.9774   0.181911
 C 0.8289 0.7029 0.8187   0.273799
 C 0.906 0.6468 0.73725   0.295973
 C 0.9058 0.7622 0.71744   -0.271534
 C 0.952 0.7852 0.66873   0.018176
 C 0.9955 0.6963 0.63981   -0.205314
 C 0.9937 0.5819 0.65994   0.028709
 C 0.9491 0.5577 0.70884   -0.252279
 C 0.0471 0.7271 0.58816   0.655398
 N 0.34268 0.85692 0.55945   -0.344644
 N 0.25001 0.01673 0.50323   -0.364082
 N 0.14308 0.65732 0.94055   -0.344645
 N 0.98327 0.74999 0.99677   -0.364083
 N 0.65732 0.14308 0.44055   -0.344644
 N 0.74999 0.98327 0.49677   -0.364082
 N 0.85692 0.34268 0.05945   -0.344645
 N 0.01673 0.25001 0.00323   -0.364083
 O 0.03467 0.82627 0.4513   -0.594437
 O 0.74205 0.29133 0.53973   -0.624325
 O 0.9442 0.62938 0.44671   -0.617977
 O 0.82867 0.48951 0.5398   -0.614818
 O 0.61337 0.85743 0.28416   -0.266604
 O 0.64648 0.0832 0.05935   -0.645368
 O 0.83636 0.05718 0.07459   -0.557408
 O 0.17373 0.96533 0.0487   -0.594437
 O 0.70867 0.25795 0.96027   -0.624325
 O 0.37062 0.0558 0.05329   -0.617977
 O 0.51049 0.17133 0.9602   -0.614819
 O 0.14257 0.38663 0.21584   -0.266604
 O 0.9168 0.35352 0.44065   -0.645368
 O 0.94282 0.16364 0.42541   -0.557408
 O 0.96533 0.17373 0.5487   -0.594437
 O 0.25795 0.70867 0.46027   -0.624325
 O 0.0558 0.37062 0.55329   -0.617977
 O 0.17133 0.51049 0.4602   -0.614818
 O 0.38663 0.14257 0.71584   -0.266604
 O 0.35352 0.9168 0.94065   -0.645368
 O 0.16364 0.94282 0.92541   -0.557408
 O 0.82627 0.03467 0.9513   -0.594437
 O 0.29133 0.74205 0.03973   -0.624325
 O 0.62938 0.9442 0.94671   -0.617976
 O 0.48951 0.82867 0.0398   -0.614819
 O 0.85743 0.61337 0.78416   -0.266604
 O 0.0832 0.64648 0.55935   -0.645368
 O 0.05718 0.83636 0.57459   -0.557408
 O 0.5408 0.4592 0.75   -0.268219
 O 0.4592 0.5408 0.25   -0.268219
