{'_ref': 'TBD', '_srcid': 'CAKYAQ_clean', 'submitters': [{'name': 'Dalar Nazarian Jeff Camp and David Sholl', 'email': 'dalar@gatech.edu jcamp6@gatech.edu'}], '_method': 'VASP DFT with PBE;DDEC'}
data_Co2H3C4SO7
_symmetry_space_group_name_H-M   'P 1'
_cell_length_a   18.51669995
_cell_length_b   18.51670004
_cell_length_c   18.51670000
_cell_angle_alpha   95.45069969
_cell_angle_beta   95.45069971
_cell_angle_gamma   95.45070125
_symmetry_Int_Tables_number   1
_chemical_formula_structural   Co2H3C4SO7
_chemical_formula_sum   'Co24 H36 C48 S12 O84'
_cell_volume   6256.75143233
_cell_formula_units_Z   12
loop_
 _symmetry_equiv_pos_site_id
 _symmetry_equiv_pos_as_xyz
  1  'x, y, z'
loop_
 _atom_site_label
 _atom_site_fract_x
 _atom_site_fract_y
 _atom_site_fract_z
 _atom_site_charge
 Co 0.91821 0.72438 0.24653   0.942283
 Co 0.77877 0.29499 0.0839   1.121348
 Co 0.87163 0.96171 0.25606   1.117223
 Co 0.79369 0.79617 0.32263   1.210845
 Co 0.24653 0.91821 0.72438   0.942283
 Co 0.0839 0.77877 0.29499   1.121348
 Co 0.25606 0.87163 0.96171   1.117223
 Co 0.32263 0.79369 0.79617   1.210845
 Co 0.72438 0.24653 0.91821   0.942282
 Co 0.29499 0.0839 0.77877   1.121348
 Co 0.96171 0.25606 0.87163   1.117223
 Co 0.79617 0.32263 0.79369   1.210845
 Co 0.08179 0.27562 0.75347   0.942284
 Co 0.22123 0.70501 0.9161   1.121348
 Co 0.12837 0.03829 0.74394   1.117224
 Co 0.20631 0.20383 0.67737   1.210845
 Co 0.75347 0.08179 0.27562   0.942284
 Co 0.9161 0.22123 0.70501   1.121348
 Co 0.74394 0.12837 0.03829   1.117224
 Co 0.67737 0.20631 0.20383   1.210845
 Co 0.27562 0.75347 0.08179   0.942284
 Co 0.70501 0.9161 0.22123   1.121348
 Co 0.03829 0.74394 0.12837   1.117225
 Co 0.20383 0.67737 0.20631   1.210845
 H 0.689 0.6085 0.3791   0.103962
 H 0.6109 0.5016 0.3766   0.106814
 H 0.6267 0.3983 0.3018   0.101582
 H 0.8009 0.506 0.2287   0.120041
 H 0.9888 0.8365 0.2152   0.513854
 H 0.6617 0.217 0.0758   0.448942
 H 0.3791 0.689 0.6085   0.103962
 H 0.3766 0.6109 0.5016   0.106814
 H 0.3018 0.6267 0.3983   0.101582
 H 0.2287 0.8009 0.506   0.120041
 H 0.2152 0.9888 0.8365   0.513854
 H 0.0758 0.6617 0.217   0.448943
 H 0.6085 0.3791 0.689   0.103962
 H 0.5016 0.3766 0.6109   0.106814
 H 0.3983 0.3018 0.6267   0.101582
 H 0.506 0.2287 0.8009   0.120041
 H 0.8365 0.2152 0.9888   0.513854
 H 0.217 0.0758 0.6617   0.448943
 H 0.311 0.3915 0.6209   0.10396
 H 0.3891 0.4984 0.6234   0.106816
 H 0.3733 0.6017 0.6982   0.101581
 H 0.1991 0.494 0.7713   0.120041
 H 0.0112 0.1635 0.7848   0.513854
 H 0.3383 0.783 0.9242   0.448942
 H 0.6209 0.311 0.3915   0.10396
 H 0.6234 0.3891 0.4984   0.106816
 H 0.6982 0.3733 0.6017   0.101581
 H 0.7713 0.1991 0.494   0.120041
 H 0.7848 0.0112 0.1635   0.513854
 H 0.9242 0.3383 0.783   0.448942
 H 0.3915 0.6209 0.311   0.10396
 H 0.4984 0.6234 0.3891   0.106816
 H 0.6017 0.6982 0.3733   0.101581
 H 0.494 0.7713 0.1991   0.120041
 H 0.1635 0.7848 0.0112   0.513854
 H 0.783 0.9242 0.3383   0.448943
 C 0.8038 0.6353 0.3059   0.71389
 C 0.7258 0.3729 0.2113   0.717648
 C 0.7542 0.5663 0.3045   -0.161503
 C 0.696 0.566 0.3486   -0.006951
 C 0.6498 0.5028 0.3467   -0.138412
 C 0.6592 0.4413 0.3022   -0.008611
 C 0.7157 0.4417 0.2579   -0.1501
 C 0.7626 0.505 0.2593   0.017547
 C 0.3059 0.8038 0.6353   0.71389
 C 0.2113 0.7258 0.3729   0.717648
 C 0.3045 0.7542 0.5663   -0.161503
 C 0.3486 0.696 0.566   -0.006951
 C 0.3467 0.6498 0.5028   -0.138413
 C 0.3022 0.6592 0.4413   -0.008611
 C 0.2579 0.7157 0.4417   -0.1501
 C 0.2593 0.7626 0.505   0.017547
 C 0.6353 0.3059 0.8038   0.71389
 C 0.3729 0.2113 0.7258   0.717648
 C 0.5663 0.3045 0.7542   -0.161503
 C 0.566 0.3486 0.696   -0.006951
 C 0.5028 0.3467 0.6498   -0.138413
 C 0.4413 0.3022 0.6592   -0.008611
 C 0.4417 0.2579 0.7157   -0.1501
 C 0.505 0.2593 0.7626   0.017547
 C 0.1962 0.3647 0.6941   0.71389
 C 0.2742 0.6271 0.7887   0.717648
 C 0.2458 0.4337 0.6955   -0.161503
 C 0.304 0.434 0.6514   -0.00695
 C 0.3502 0.4972 0.6533   -0.138414
 C 0.3408 0.5587 0.6978   -0.008611
 C 0.2843 0.5583 0.7421   -0.1501
 C 0.2374 0.495 0.7407   0.017547
 C 0.6941 0.1962 0.3647   0.71389
 C 0.7887 0.2742 0.6271   0.717648
 C 0.6955 0.2458 0.4337   -0.161503
 C 0.6514 0.304 0.434   -0.00695
 C 0.6533 0.3502 0.4972   -0.138414
 C 0.6978 0.3408 0.5587   -0.008611
 C 0.7421 0.2843 0.5583   -0.1501
 C 0.7407 0.2374 0.495   0.017547
 C 0.3647 0.6941 0.1962   0.71389
 C 0.6271 0.7887 0.2742   0.717648
 C 0.4337 0.6955 0.2458   -0.161503
 C 0.434 0.6514 0.304   -0.00695
 C 0.4972 0.6533 0.3502   -0.138414
 C 0.5587 0.6978 0.3408   -0.008611
 C 0.5583 0.7421 0.2843   -0.1501
 C 0.495 0.7407 0.2374   0.017547
 S 0.81675 0.81713 0.14967   1.601572
 S 0.96234 0.86804 0.36813   1.660384
 S 0.14967 0.81675 0.81713   1.601572
 S 0.36813 0.96234 0.86804   1.660384
 S 0.81713 0.14967 0.81675   1.601572
 S 0.86804 0.36813 0.96234   1.660384
 S 0.18325 0.18287 0.85033   1.601572
 S 0.03766 0.13196 0.63187   1.660385
 S 0.85033 0.18325 0.18287   1.601572
 S 0.63187 0.03766 0.13196   1.660385
 S 0.18287 0.85033 0.18325   1.601572
 S 0.13196 0.63187 0.03766   1.660384
 O 0.793 0.6907 0.3483   -0.592103
 O 0.8529 0.6352 0.2626   -0.569597
 O 0.7613 0.3788 0.1573   -0.565348
 O 0.6968 0.3147 0.2304   -0.6266
 O 0.8202 0.7668 0.2093   -0.74526
 O 0.7433 0.8424 0.144   -0.636093
 O 0.8291 0.7769 0.0811   -0.618132
 O 0.8741 0.8795 0.1693   -0.700543
 O 0.9092 0.802 0.3395   -0.824039
 O 0.9567 0.9232 0.316   -0.723157
 O 0.0361 0.8457 0.372   -0.646582
 O 0.9454 0.8955 0.4396   -0.623565
 O 0.9983 0.7926 0.2178   -1.088492
 O 0.7011 0.2094 0.1001   -1.072849
 O 0.3483 0.793 0.6907   -0.592103
 O 0.2626 0.8529 0.6352   -0.569597
 O 0.1573 0.7613 0.3788   -0.565348
 O 0.2304 0.6968 0.3147   -0.6266
 O 0.2093 0.8202 0.7668   -0.74526
 O 0.144 0.7433 0.8424   -0.636093
 O 0.0811 0.8291 0.7769   -0.618131
 O 0.1693 0.8741 0.8795   -0.700543
 O 0.3395 0.9092 0.802   -0.824039
 O 0.316 0.9567 0.9232   -0.723157
 O 0.372 0.0361 0.8457   -0.646582
 O 0.4396 0.9454 0.8955   -0.623564
 O 0.2178 0.9983 0.7926   -1.088492
 O 0.1001 0.7011 0.2094   -1.072849
 O 0.6907 0.3483 0.793   -0.592103
 O 0.6352 0.2626 0.8529   -0.569597
 O 0.3788 0.1573 0.7613   -0.565348
 O 0.3147 0.2304 0.6968   -0.6266
 O 0.7668 0.2093 0.8202   -0.74526
 O 0.8424 0.144 0.7433   -0.636092
 O 0.7769 0.0811 0.8291   -0.618131
 O 0.8795 0.1693 0.8741   -0.700542
 O 0.802 0.3395 0.9092   -0.824039
 O 0.9232 0.316 0.9567   -0.723157
 O 0.8457 0.372 0.0361   -0.646582
 O 0.8955 0.4396 0.9454   -0.623564
 O 0.7926 0.2178 0.9983   -1.088492
 O 0.2094 0.1001 0.7011   -1.072849
 O 0.207 0.3093 0.6517   -0.592103
 O 0.1471 0.3648 0.7374   -0.569597
 O 0.2387 0.6212 0.8427   -0.565348
 O 0.3032 0.6853 0.7696   -0.6266
 O 0.1798 0.2332 0.7907   -0.745261
 O 0.2567 0.1576 0.856   -0.636093
 O 0.1709 0.2231 0.9189   -0.618132
 O 0.1259 0.1205 0.8307   -0.700543
 O 0.0908 0.198 0.6605   -0.824039
 O 0.0433 0.0768 0.684   -0.723157
 O 0.9639 0.1543 0.628   -0.646582
 O 0.0546 0.1045 0.5604   -0.623564
 O 0.0017 0.2074 0.7822   -1.088492
 O 0.2989 0.7906 0.8999   -1.072849
 O 0.6517 0.207 0.3093   -0.592103
 O 0.7374 0.1471 0.3648   -0.569597
 O 0.8427 0.2387 0.6212   -0.565348
 O 0.7696 0.3032 0.6853   -0.6266
 O 0.7907 0.1798 0.2332   -0.745261
 O 0.856 0.2567 0.1576   -0.636093
 O 0.9189 0.1709 0.2231   -0.618131
 O 0.8307 0.1259 0.1205   -0.700543
 O 0.6605 0.0908 0.198   -0.824039
 O 0.684 0.0433 0.0768   -0.723157
 O 0.628 0.9639 0.1543   -0.646582
 O 0.5604 0.0546 0.1045   -0.623564
 O 0.7822 0.0017 0.2074   -1.088492
 O 0.8999 0.2989 0.7906   -1.072849
 O 0.3093 0.6517 0.207   -0.592103
 O 0.3648 0.7374 0.1471   -0.569597
 O 0.6212 0.8427 0.2387   -0.565348
 O 0.6853 0.7696 0.3032   -0.6266
 O 0.2332 0.7907 0.1798   -0.74526
 O 0.1576 0.856 0.2567   -0.636092
 O 0.2231 0.9189 0.1709   -0.618131
 O 0.1205 0.8307 0.1259   -0.700543
 O 0.198 0.6605 0.0908   -0.824039
 O 0.0768 0.684 0.0433   -0.723157
 O 0.1543 0.628 0.9639   -0.646582
 O 0.1045 0.5604 0.0546   -0.623563
 O 0.2074 0.7822 0.0017   -1.088492
 O 0.7906 0.8999 0.2989   -1.072849
