{'_ref': 'TBD', '_srcid': 'CAKYAQ_clean', 'submitters': [{'name': 'Dalar Nazarian Jeff Camp and David Sholl', 'email': 'dalar@gatech.edu jcamp6@gatech.edu'}], '_method': 'VASP DFT with PBE;DDEC'}
data_Ni2H9C6(SO4)2
_symmetry_space_group_name_H-M   'P 1'
_cell_length_a   18.24630037
_cell_length_b   18.24629986
_cell_length_c   18.24630000
_cell_angle_alpha   95.00870050
_cell_angle_beta   95.00870036
_cell_angle_gamma   95.00869987
_symmetry_Int_Tables_number   1
_chemical_formula_structural   Ni2H9C6(SO4)2
_chemical_formula_sum   'Ni24 H108 C72 S24 O96'
_cell_volume   6000.74498043
_cell_formula_units_Z   12
loop_
 _symmetry_equiv_pos_site_id
 _symmetry_equiv_pos_as_xyz
  1  'x, y, z'
loop_
 _atom_site_label
 _atom_site_fract_x
 _atom_site_fract_y
 _atom_site_fract_z
 _atom_site_charge
 Ni 0.7464 0.41636 0.22308   1.114897
 Ni 0.58009 0.2744 0.79512   1.144216
 Ni 0.62978 0.53739 0.24243   1.142003
 Ni 0.8252 0.29418 0.29586   0.966287
 Ni 0.22308 0.7464 0.41636   1.114897
 Ni 0.79512 0.58009 0.2744   1.144215
 Ni 0.24243 0.62978 0.53739   1.142003
 Ni 0.29586 0.8252 0.29418   0.966287
 Ni 0.41636 0.22308 0.7464   1.114897
 Ni 0.2744 0.79512 0.58009   1.144216
 Ni 0.53739 0.24243 0.62978   1.142003
 Ni 0.29418 0.29586 0.8252   0.966287
 Ni 0.2536 0.58364 0.77692   1.114897
 Ni 0.41991 0.7256 0.20488   1.144216
 Ni 0.37022 0.46261 0.75757   1.142002
 Ni 0.1748 0.70582 0.70414   0.966287
 Ni 0.77692 0.2536 0.58364   1.114897
 Ni 0.20488 0.41991 0.7256   1.144215
 Ni 0.75757 0.37022 0.46261   1.142002
 Ni 0.70414 0.1748 0.70582   0.966287
 Ni 0.58364 0.77692 0.2536   1.114897
 Ni 0.7256 0.20488 0.41991   1.144216
 Ni 0.46261 0.75757 0.37022   1.142002
 Ni 0.70582 0.70414 0.1748   0.966287
 H 0.7246 0.2962 0.0039   0.094678
 H 0.8034 0.1193 0.8959   0.104481
 H 0.8777 0.0994 0.008   0.117766
 H 0.8852 0.1888 0.1082   0.099413
 H 0.7136 0.4868 0.3469   0.463733
 H 0.5724 0.1548 0.7206   0.398987
 H 0.9614 0.4719 0.2409   0.194312
 H 0.0035 0.5078 0.1773   0.157575
 H 0.9568 0.5574 0.229   0.171722
 H 0.8385 0.5489 0.0429   0.178749
 H 0.8826 0.604 0.1084   0.168431
 H 0.9269 0.555 0.0537   0.162056
 H 0.498 0.3952 0.142   0.1896
 H 0.5206 0.4675 0.1023   0.188362
 H 0.4934 0.3912 0.0537   0.191384
 H 0.6804 0.4308 0.0128   0.154426
 H 0.5953 0.4167 0.9812   0.187605
 H 0.6243 0.4902 0.0335   0.177738
 H 0.0039 0.7246 0.2962   0.094678
 H 0.8959 0.8034 0.1193   0.104481
 H 0.008 0.8777 0.0994   0.117766
 H 0.1082 0.8852 0.1888   0.099413
 H 0.3469 0.7136 0.4868   0.463733
 H 0.7206 0.5724 0.1548   0.398987
 H 0.2409 0.9614 0.4719   0.194312
 H 0.1773 0.0035 0.5078   0.157575
 H 0.229 0.9568 0.5574   0.171722
 H 0.0429 0.8385 0.5489   0.178749
 H 0.1084 0.8826 0.604   0.168431
 H 0.0537 0.9269 0.555   0.162056
 H 0.142 0.498 0.3952   0.1896
 H 0.1023 0.5206 0.4675   0.188362
 H 0.0537 0.4934 0.3912   0.191384
 H 0.0128 0.6804 0.4308   0.154426
 H 0.9812 0.5953 0.4167   0.187605
 H 0.0335 0.6243 0.4902   0.177738
 H 0.2962 0.0039 0.7246   0.094678
 H 0.1193 0.8959 0.8034   0.104481
 H 0.0994 0.008 0.8777   0.117766
 H 0.1888 0.1082 0.8852   0.099413
 H 0.4868 0.3469 0.7136   0.463733
 H 0.1548 0.7206 0.5724   0.398987
 H 0.4719 0.2409 0.9614   0.194313
 H 0.5078 0.1773 0.0035   0.157575
 H 0.5574 0.229 0.9568   0.171722
 H 0.5489 0.0429 0.8385   0.178749
 H 0.604 0.1084 0.8826   0.168431
 H 0.555 0.0537 0.9269   0.162056
 H 0.3952 0.142 0.498   0.189599
 H 0.4675 0.1023 0.5206   0.188362
 H 0.3912 0.0537 0.4934   0.191384
 H 0.4308 0.0128 0.6804   0.154426
 H 0.4167 0.9812 0.5953   0.187605
 H 0.4902 0.0335 0.6243   0.177738
 H 0.2754 0.7038 0.9961   0.094678
 H 0.1966 0.8807 0.1041   0.104482
 H 0.1223 0.9006 0.992   0.117766
 H 0.1148 0.8112 0.8918   0.099414
 H 0.2864 0.5132 0.6531   0.463733
 H 0.4276 0.8452 0.2794   0.398987
 H 0.0386 0.5281 0.7591   0.194312
 H 0.9965 0.4922 0.8227   0.157575
 H 0.0432 0.4426 0.771   0.171722
 H 0.1615 0.4511 0.9571   0.178748
 H 0.1174 0.396 0.8916   0.168431
 H 0.0731 0.445 0.9463   0.162055
 H 0.502 0.6048 0.858   0.1896
 H 0.4794 0.5325 0.8977   0.188362
 H 0.5066 0.6088 0.9463   0.191384
 H 0.3196 0.5692 0.9872   0.154426
 H 0.4047 0.5833 0.0188   0.187605
 H 0.3757 0.5098 0.9665   0.177738
 H 0.9961 0.2754 0.7038   0.094678
 H 0.1041 0.1966 0.8807   0.104482
 H 0.992 0.1223 0.9006   0.117766
 H 0.8918 0.1148 0.8112   0.099414
 H 0.6531 0.2864 0.5132   0.463733
 H 0.2794 0.4276 0.8452   0.398987
 H 0.7591 0.0386 0.5281   0.194312
 H 0.8227 0.9965 0.4922   0.157575
 H 0.771 0.0432 0.4426   0.171722
 H 0.9571 0.1615 0.4511   0.178748
 H 0.8916 0.1174 0.396   0.168431
 H 0.9463 0.0731 0.445   0.162055
 H 0.858 0.502 0.6048   0.1896
 H 0.8977 0.4794 0.5325   0.188362
 H 0.9463 0.5066 0.6088   0.191384
 H 0.9872 0.3196 0.5692   0.154426
 H 0.0188 0.4047 0.5833   0.187605
 H 0.9665 0.3757 0.5098   0.177738
 H 0.7038 0.9961 0.2754   0.094678
 H 0.8807 0.1041 0.1966   0.104482
 H 0.9006 0.992 0.1223   0.117766
 H 0.8112 0.8918 0.1148   0.099414
 H 0.5132 0.6531 0.2864   0.463733
 H 0.8452 0.2794 0.4276   0.398987
 H 0.5281 0.7591 0.0386   0.194313
 H 0.4922 0.8227 0.9965   0.157575
 H 0.4426 0.771 0.0432   0.171722
 H 0.4511 0.9571 0.1615   0.178748
 H 0.396 0.8916 0.1174   0.168431
 H 0.445 0.9463 0.0731   0.162055
 H 0.6048 0.858 0.502   0.189599
 H 0.5325 0.8977 0.4794   0.188362
 H 0.6088 0.9463 0.5066   0.191384
 H 0.5692 0.9872 0.3196   0.154426
 H 0.5833 0.0188 0.4047   0.187605
 H 0.5098 0.9665 0.3757   0.177738
 C 0.8049 0.3012 0.1319   0.670659
 C 0.7094 0.219 0.8743   0.694531
 C 0.8085 0.2519 0.0687   -0.163808
 C 0.757 0.2581 0.0033   0.003053
 C 0.7553 0.2083 0.9405   -0.16623
 C 0.8023 0.1512 0.9398   -0.013286
 C 0.8496 0.1408 0.0061   -0.167255
 C 0.8518 0.1933 0.0663   0.015706
 C 0.9592 0.508 0.204   -0.442156
 C 0.8819 0.5561 0.0793   -0.439669
 C 0.5211 0.4137 0.0998   -0.484842
 C 0.6296 0.4375 0.0236   -0.444801
 C 0.1319 0.8049 0.3012   0.67066
 C 0.8743 0.7094 0.219   0.69453
 C 0.0687 0.8085 0.2519   -0.163809
 C 0.0033 0.757 0.2581   0.003053
 C 0.9405 0.7553 0.2083   -0.16623
 C 0.9398 0.8023 0.1512   -0.013287
 C 0.0061 0.8496 0.1408   -0.167254
 C 0.0663 0.8518 0.1933   0.015706
 C 0.204 0.9592 0.508   -0.442156
 C 0.0793 0.8819 0.5561   -0.439669
 C 0.0998 0.5211 0.4137   -0.484842
 C 0.0236 0.6296 0.4375   -0.444801
 C 0.3012 0.1319 0.8049   0.67066
 C 0.219 0.8743 0.7094   0.69453
 C 0.2519 0.0687 0.8085   -0.163809
 C 0.2581 0.0033 0.757   0.003053
 C 0.2083 0.9405 0.7553   -0.16623
 C 0.1512 0.9398 0.8023   -0.013287
 C 0.1408 0.0061 0.8496   -0.167254
 C 0.1933 0.0663 0.8518   0.015706
 C 0.508 0.204 0.9592   -0.442156
 C 0.5561 0.0793 0.8819   -0.439669
 C 0.4137 0.0998 0.5211   -0.484842
 C 0.4375 0.0236 0.6296   -0.444801
 C 0.1951 0.6988 0.8681   0.670659
 C 0.2906 0.781 0.1257   0.69453
 C 0.1915 0.7481 0.9313   -0.163808
 C 0.243 0.7419 0.9967   0.003053
 C 0.2447 0.7917 0.0595   -0.16623
 C 0.1977 0.8488 0.0602   -0.013287
 C 0.1504 0.8592 0.9939   -0.167255
 C 0.1482 0.8067 0.9337   0.015705
 C 0.0408 0.492 0.796   -0.442155
 C 0.1181 0.4439 0.9207   -0.439668
 C 0.4789 0.5863 0.9002   -0.484842
 C 0.3704 0.5625 0.9764   -0.444801
 C 0.8681 0.1951 0.6988   0.67066
 C 0.1257 0.2906 0.781   0.69453
 C 0.9313 0.1915 0.7481   -0.163809
 C 0.9967 0.243 0.7419   0.003053
 C 0.0595 0.2447 0.7917   -0.16623
 C 0.0602 0.1977 0.8488   -0.013287
 C 0.9939 0.1504 0.8592   -0.167255
 C 0.9337 0.1482 0.8067   0.015705
 C 0.796 0.0408 0.492   -0.442156
 C 0.9207 0.1181 0.4439   -0.439668
 C 0.9002 0.4789 0.5863   -0.484842
 C 0.9764 0.3704 0.5625   -0.444801
 C 0.6988 0.8681 0.1951   0.67066
 C 0.781 0.1257 0.2906   0.69453
 C 0.7481 0.9313 0.1915   -0.163809
 C 0.7419 0.9967 0.243   0.003053
 C 0.7917 0.0595 0.2447   -0.16623
 C 0.8488 0.0602 0.1977   -0.013287
 C 0.8592 0.9939 0.1504   -0.167254
 C 0.8067 0.9337 0.1482   0.015705
 C 0.492 0.796 0.0408   -0.442156
 C 0.4439 0.9207 0.1181   -0.439668
 C 0.5863 0.9002 0.4789   -0.484842
 C 0.5625 0.9764 0.3704   -0.444801
 S 0.65177 0.31512 0.32043   1.628723
 S 0.86805 0.46096 0.36592   1.638163
 S 0.87804 0.48358 0.13954   0.638158
 S 0.60967 0.39159 0.10222   0.691397
 S 0.32043 0.65177 0.31512   1.628723
 S 0.36592 0.86805 0.46096   1.638163
 S 0.13954 0.87804 0.48358   0.638158
 S 0.10222 0.60967 0.39159   0.691397
 S 0.31512 0.32043 0.65177   1.628723
 S 0.46096 0.36592 0.86805   1.638166
 S 0.48358 0.13954 0.87804   0.638158
 S 0.39159 0.10222 0.60967   0.691397
 S 0.34823 0.68488 0.67957   1.628723
 S 0.13195 0.53904 0.63408   1.638163
 S 0.12196 0.51642 0.86046   0.638158
 S 0.39033 0.60841 0.89778   0.691397
 S 0.67957 0.34823 0.68488   1.628723
 S 0.63408 0.13195 0.53904   1.638163
 S 0.86046 0.12196 0.51642   0.638158
 S 0.89778 0.39033 0.60841   0.691397
 S 0.68488 0.67957 0.34823   1.628723
 S 0.53904 0.63408 0.13195   1.638166
 S 0.51642 0.86046 0.12196   0.638158
 S 0.60841 0.89778 0.39033   0.691397
 O 0.8536 0.2925 0.1888   -0.598724
 O 0.7598 0.3498 0.1359   -0.625747
 O 0.6521 0.2517 0.8767   -0.59704
 O 0.7298 0.1896 0.8137   -0.59971
 O 0.71693 0.49763 0.29443   -0.981409
 O 0.601 0.202 0.7117   -0.937924
 O 0.6469 0.2406 0.3481   -0.687593
 O 0.672 0.375 0.3836   -0.725904
 O 0.7105 0.3199 0.2688   -0.754828
 O 0.5812 0.3281 0.2813   -0.666005
 O 0.8422 0.4071 0.3007   -0.802481
 O 0.8148 0.4572 0.422   -0.747378
 O 0.9415 0.441 0.3973   -0.714139
 O 0.8732 0.5357 0.3406   -0.695423
 O 0.81367 0.50087 0.18557   -0.623351
 O 0.6505 0.445 0.1701   -0.669112
 O 0.1888 0.8536 0.2925   -0.598724
 O 0.1359 0.7598 0.3498   -0.625747
 O 0.8767 0.6521 0.2517   -0.59704
 O 0.8137 0.7298 0.1896   -0.59971
 O 0.29443 0.71693 0.49763   -0.981409
 O 0.7117 0.601 0.202   -0.937923
 O 0.3481 0.6469 0.2406   -0.687593
 O 0.3836 0.672 0.375   -0.725904
 O 0.2688 0.7105 0.3199   -0.754828
 O 0.2813 0.5812 0.3281   -0.666005
 O 0.3007 0.8422 0.4071   -0.80248
 O 0.422 0.8148 0.4572   -0.747378
 O 0.3973 0.9415 0.441   -0.714139
 O 0.3406 0.8732 0.5357   -0.695424
 O 0.18557 0.81367 0.50087   -0.623351
 O 0.1701 0.6505 0.445   -0.669112
 O 0.2925 0.1888 0.8536   -0.598724
 O 0.3498 0.1359 0.7598   -0.625747
 O 0.2517 0.8767 0.6521   -0.59704
 O 0.1896 0.8137 0.7298   -0.59971
 O 0.49763 0.29443 0.71693   -0.981409
 O 0.202 0.7117 0.601   -0.937923
 O 0.2406 0.3481 0.6469   -0.687592
 O 0.375 0.3836 0.672   -0.725905
 O 0.3199 0.2688 0.7105   -0.754827
 O 0.3281 0.2813 0.5812   -0.666005
 O 0.4071 0.3007 0.8422   -0.802481
 O 0.4572 0.422 0.8148   -0.747379
 O 0.441 0.3973 0.9415   -0.71414
 O 0.5357 0.3406 0.8732   -0.695423
 O 0.50087 0.18557 0.81367   -0.623351
 O 0.445 0.1701 0.6505   -0.669112
 O 0.1464 0.7075 0.8112   -0.598724
 O 0.2402 0.6502 0.8641   -0.625747
 O 0.3479 0.7483 0.1233   -0.597039
 O 0.2702 0.8104 0.1863   -0.59971
 O 0.28307 0.50237 0.70557   -0.981408
 O 0.399 0.798 0.2883   -0.937924
 O 0.3531 0.7594 0.6519   -0.687593
 O 0.328 0.625 0.6164   -0.725904
 O 0.2895 0.6801 0.7312   -0.754828
 O 0.4188 0.6719 0.7187   -0.666005
 O 0.1578 0.5929 0.6993   -0.802481
 O 0.1852 0.5428 0.578   -0.747378
 O 0.0585 0.559 0.6027   -0.714139
 O 0.1268 0.4643 0.6594   -0.695423
 O 0.18633 0.49913 0.81443   -0.623351
 O 0.3495 0.555 0.8299   -0.669112
 O 0.8112 0.1464 0.7075   -0.598724
 O 0.8641 0.2402 0.6502   -0.625747
 O 0.1233 0.3479 0.7483   -0.59704
 O 0.1863 0.2702 0.8104   -0.59971
 O 0.70557 0.28307 0.50237   -0.981409
 O 0.2883 0.399 0.798   -0.937923
 O 0.6519 0.3531 0.7594   -0.687593
 O 0.6164 0.328 0.625   -0.725904
 O 0.7312 0.2895 0.6801   -0.754828
 O 0.7187 0.4188 0.6719   -0.666005
 O 0.6993 0.1578 0.5929   -0.80248
 O 0.578 0.1852 0.5428   -0.747378
 O 0.6027 0.0585 0.559   -0.714139
 O 0.6594 0.1268 0.4643   -0.695424
 O 0.81443 0.18633 0.49913   -0.623351
 O 0.8299 0.3495 0.555   -0.669112
 O 0.7075 0.8112 0.1464   -0.598724
 O 0.6502 0.8641 0.2402   -0.625747
 O 0.7483 0.1233 0.3479   -0.597039
 O 0.8104 0.1863 0.2702   -0.59971
 O 0.50237 0.70557 0.28307   -0.981409
 O 0.798 0.2883 0.399   -0.937923
 O 0.7594 0.6519 0.3531   -0.687592
 O 0.625 0.6164 0.328   -0.725905
 O 0.6801 0.7312 0.2895   -0.754827
 O 0.6719 0.7187 0.4188   -0.666005
 O 0.5929 0.6993 0.1578   -0.802481
 O 0.5428 0.578 0.1852   -0.747379
 O 0.559 0.6027 0.0585   -0.71414
 O 0.4643 0.6594 0.1268   -0.695423
 O 0.49913 0.81443 0.18633   -0.623351
 O 0.555 0.8299 0.3495   -0.669112
