{'_ref': 'TBD', '_srcid': 'CAKYAQ_clean', 'submitters': [{'name': 'Dalar Nazarian Jeff Camp and David Sholl', 'email': 'dalar@gatech.edu jcamp6@gatech.edu'}], '_method': 'VASP DFT with PBE;DDEC'}
data_ZnH16C20(N3O2)2
_symmetry_space_group_name_H-M   'P 1'
_cell_length_a   12.88420000
_cell_length_b   14.59560000
_cell_length_c   14.59560000
_cell_angle_alpha   90.00000000
_cell_angle_beta   90.00000000
_cell_angle_gamma   90.00000000
_symmetry_Int_Tables_number   1
_chemical_formula_structural   ZnH16C20(N3O2)2
_chemical_formula_sum   'Zn4 H64 C80 N24 O16'
_cell_volume   2744.74095942
_cell_formula_units_Z   4
loop_
 _symmetry_equiv_pos_site_id
 _symmetry_equiv_pos_as_xyz
  1  'x, y, z'
loop_
 _atom_site_label
 _atom_site_fract_x
 _atom_site_fract_y
 _atom_site_fract_z
 _atom_site_charge
 Zn 0.0 0.5 0.0   0.875281
 Zn 0.5 0.0 0.5   0.875281
 Zn 0.0 0.0 0.5   0.875281
 Zn 0.5 0.5 0.0   0.875281
 H 0.9784 0.1917 0.1886   0.107062
 H 0.862 0.0985 0.2703   0.130622
 H 0.6231 0.2437 0.1688   0.1198
 H 0.7365 0.338 0.0904   0.094747
 H 0.5636 0.0578 0.1788   0.110628
 H 0.7873 0.0957 0.443   0.162825
 H 0.7478 0.1951 0.4168   0.156356
 H 0.6919 0.1394 0.4958   0.172343
 H 0.9784 0.8083 0.8114   0.107062
 H 0.862 0.9015 0.7297   0.130622
 H 0.6231 0.7563 0.8312   0.1198
 H 0.7365 0.662 0.9096   0.094747
 H 0.5636 0.9422 0.8212   0.110628
 H 0.7873 0.9043 0.557   0.162825
 H 0.7478 0.8049 0.5832   0.156356
 H 0.6919 0.8606 0.5042   0.172343
 H 0.4784 0.6917 0.3114   0.107062
 H 0.362 0.5985 0.2297   0.130622
 H 0.1231 0.7437 0.3312   0.1198
 H 0.2365 0.838 0.4096   0.094747
 H 0.0636 0.5578 0.3212   0.110628
 H 0.2873 0.5957 0.057   0.162825
 H 0.2478 0.6951 0.0832   0.156355
 H 0.1919 0.6394 0.0042   0.172343
 H 0.4784 0.3083 0.6886   0.107062
 H 0.362 0.4015 0.7703   0.130622
 H 0.1231 0.2563 0.6688   0.1198
 H 0.2365 0.162 0.5904   0.094747
 H 0.0636 0.4422 0.6788   0.110628
 H 0.2873 0.4043 0.943   0.162825
 H 0.2478 0.3049 0.9168   0.156355
 H 0.1919 0.3606 0.9958   0.172343
 H 0.9784 0.8114 0.1917   0.107062
 H 0.862 0.7297 0.0985   0.130622
 H 0.6231 0.8312 0.2437   0.1198
 H 0.7365 0.9096 0.338   0.094746
 H 0.5636 0.8212 0.0578   0.110629
 H 0.7873 0.557 0.0957   0.162825
 H 0.7478 0.5832 0.1951   0.156357
 H 0.6919 0.5042 0.1394   0.172342
 H 0.9784 0.1886 0.8083   0.107062
 H 0.862 0.2703 0.9015   0.130622
 H 0.6231 0.1688 0.7563   0.1198
 H 0.7365 0.0904 0.662   0.094746
 H 0.5636 0.1788 0.9422   0.110629
 H 0.7873 0.443 0.9043   0.162825
 H 0.7478 0.4168 0.8049   0.156357
 H 0.6919 0.4958 0.8606   0.172342
 H 0.4784 0.3114 0.3083   0.107062
 H 0.362 0.2297 0.4015   0.130622
 H 0.1231 0.3312 0.2563   0.1198
 H 0.2365 0.4096 0.162   0.094746
 H 0.0636 0.3212 0.4422   0.110629
 H 0.2873 0.057 0.4043   0.162825
 H 0.2478 0.0832 0.3049   0.156357
 H 0.1919 0.0042 0.3606   0.172342
 H 0.4784 0.6886 0.6917   0.107062
 H 0.362 0.7703 0.5985   0.130622
 H 0.1231 0.6688 0.7437   0.1198
 H 0.2365 0.5904 0.838   0.094746
 H 0.0636 0.6788 0.5578   0.110629
 H 0.2873 0.943 0.5957   0.162825
 H 0.2478 0.9168 0.6951   0.156357
 H 0.1919 0.9958 0.6394   0.172342
 C 0.9445 0.3353 0.0802   0.640117
 C 0.8699 0.2734 0.1289   -0.14144
 C 0.9066 0.2023 0.1842   -0.0156
 C 0.8376 0.1465 0.2333   -0.181107
 C 0.7323 0.1642 0.2256   0.134492
 C 0.695 0.2337 0.1728   -0.181923
 C 0.7625 0.2891 0.1254   0.003784
 C 0.5788 0.0607 0.2417   0.139351
 C 0.6553 0.0947 0.3695   0.378381
 C 0.7266 0.1346 0.437   -0.454078
 C 0.9445 0.6647 0.9198   0.640117
 C 0.8699 0.7266 0.8711   -0.14144
 C 0.9066 0.7977 0.8158   -0.0156
 C 0.8376 0.8535 0.7667   -0.181107
 C 0.7323 0.8358 0.7744   0.134492
 C 0.695 0.7663 0.8272   -0.181923
 C 0.7625 0.7109 0.8746   0.003784
 C 0.5788 0.9393 0.7583   0.139351
 C 0.6553 0.9053 0.6305   0.378381
 C 0.7266 0.8654 0.563   -0.454078
 C 0.4445 0.8353 0.4198   0.640117
 C 0.3699 0.7734 0.3711   -0.14144
 C 0.4066 0.7023 0.3158   -0.0156
 C 0.3376 0.6465 0.2667   -0.181107
 C 0.2323 0.6642 0.2744   0.134492
 C 0.195 0.7337 0.3272   -0.181923
 C 0.2625 0.7891 0.3746   0.003784
 C 0.0788 0.5607 0.2583   0.139351
 C 0.1553 0.5947 0.1305   0.378381
 C 0.2266 0.6346 0.063   -0.454078
 C 0.4445 0.1647 0.5802   0.640117
 C 0.3699 0.2266 0.6289   -0.14144
 C 0.4066 0.2977 0.6842   -0.0156
 C 0.3376 0.3535 0.7333   -0.181107
 C 0.2323 0.3358 0.7256   0.134492
 C 0.195 0.2663 0.6728   -0.181923
 C 0.2625 0.2109 0.6254   0.003784
 C 0.0788 0.4393 0.7417   0.139351
 C 0.1553 0.4053 0.8695   0.378381
 C 0.2266 0.3654 0.937   -0.454078
 C 0.9445 0.9198 0.3353   0.640117
 C 0.8699 0.8711 0.2734   -0.141441
 C 0.9066 0.8158 0.2023   -0.0156
 C 0.8376 0.7667 0.1465   -0.181108
 C 0.7323 0.7744 0.1642   0.134492
 C 0.695 0.8272 0.2337   -0.181923
 C 0.7625 0.8746 0.2891   0.003784
 C 0.5788 0.7583 0.0607   0.139351
 C 0.6553 0.6305 0.0947   0.378381
 C 0.7266 0.563 0.1346   -0.454078
 C 0.9445 0.0802 0.6647   0.640117
 C 0.8699 0.1289 0.7266   -0.141441
 C 0.9066 0.1842 0.7977   -0.0156
 C 0.8376 0.2333 0.8535   -0.181108
 C 0.7323 0.2256 0.8358   0.134492
 C 0.695 0.1728 0.7663   -0.181923
 C 0.7625 0.1254 0.7109   0.003784
 C 0.5788 0.2417 0.9393   0.139351
 C 0.6553 0.3695 0.9053   0.378381
 C 0.7266 0.437 0.8654   -0.454078
 C 0.4445 0.4198 0.1647   0.640117
 C 0.3699 0.3711 0.2266   -0.141441
 C 0.4066 0.3158 0.2977   -0.0156
 C 0.3376 0.2667 0.3535   -0.181108
 C 0.2323 0.2744 0.3358   0.134492
 C 0.195 0.3272 0.2663   -0.181923
 C 0.2625 0.3746 0.2109   0.003784
 C 0.0788 0.2583 0.4393   0.139351
 C 0.1553 0.1305 0.4053   0.378381
 C 0.2266 0.063 0.3654   -0.454078
 C 0.4445 0.5802 0.8353   0.640117
 C 0.3699 0.6289 0.7734   -0.141441
 C 0.4066 0.6842 0.7023   -0.0156
 C 0.3376 0.7333 0.6465   -0.181108
 C 0.2323 0.7256 0.6642   0.134492
 C 0.195 0.6728 0.7337   -0.181923
 C 0.2625 0.6254 0.7891   0.003784
 C 0.0788 0.7417 0.5607   0.139351
 C 0.1553 0.8695 0.5947   0.378381
 C 0.2266 0.937 0.6346   -0.454078
 N 0.524 0.0198 0.3048   -0.257156
 N 0.574 0.0417 0.3862   -0.288754
 N 0.6605 0.1083 0.2775   -0.074473
 N 0.524 0.9802 0.6952   -0.257156
 N 0.574 0.9583 0.6138   -0.288754
 N 0.6605 0.8917 0.7225   -0.074473
 N 0.024 0.5198 0.1952   -0.257156
 N 0.074 0.5417 0.1138   -0.288754
 N 0.1605 0.6083 0.2225   -0.074473
 N 0.024 0.4802 0.8048   -0.257156
 N 0.074 0.4583 0.8862   -0.288754
 N 0.1605 0.3917 0.7775   -0.074473
 N 0.524 0.6952 0.0198   -0.257156
 N 0.574 0.6138 0.0417   -0.288754
 N 0.6605 0.7225 0.1083   -0.074473
 N 0.524 0.3048 0.9802   -0.257156
 N 0.574 0.3862 0.9583   -0.288754
 N 0.6605 0.2775 0.8917   -0.074473
 N 0.024 0.1952 0.4802   -0.257156
 N 0.074 0.1138 0.4583   -0.288754
 N 0.1605 0.2225 0.3917   -0.074473
 N 0.024 0.8048 0.5198   -0.257156
 N 0.074 0.8862 0.5417   -0.288754
 N 0.1605 0.7775 0.6083   -0.074473
 O 0.9027 0.4043 0.0401   -0.602107
 O 0.0392 0.3181 0.08   -0.59151
 O 0.9027 0.5957 0.9599   -0.602107
 O 0.0392 0.6819 0.92   -0.59151
 O 0.4027 0.9043 0.4599   -0.602107
 O 0.5392 0.8181 0.42   -0.59151
 O 0.4027 0.0957 0.5401   -0.602107
 O 0.5392 0.1819 0.58   -0.59151
 O 0.9027 0.9599 0.4043   -0.602107
 O 0.0392 0.92 0.3181   -0.59151
 O 0.9027 0.0401 0.5957   -0.602107
 O 0.0392 0.08 0.6819   -0.59151
 O 0.4027 0.4599 0.0957   -0.602107
 O 0.5392 0.42 0.1819   -0.59151
 O 0.4027 0.5401 0.9043   -0.602107
 O 0.5392 0.58 0.8181   -0.59151
