{'_ref': 'TBD', '_srcid': 'CAKYAQ_clean', 'submitters': [{'name': 'Dalar Nazarian Jeff Camp and David Sholl', 'email': 'dalar@gatech.edu jcamp6@gatech.edu'}], '_method': 'VASP DFT with PBE;DDEC'}
data_NdH8C16NO6
_symmetry_space_group_name_H-M   'P 1'
_cell_length_a   13.58680025
_cell_length_b   15.15809994
_cell_length_c   16.01833900
_cell_angle_alpha   118.23859303
_cell_angle_beta   98.81203304
_cell_angle_gamma   90.00000052
_symmetry_Int_Tables_number   1
_chemical_formula_structural   NdH8C16NO6
_chemical_formula_sum   'Nd4 H32 C64 N4 O24'
_cell_volume   2862.07273166
_cell_formula_units_Z   4
loop_
 _symmetry_equiv_pos_site_id
 _symmetry_equiv_pos_as_xyz
  1  'x, y, z'
loop_
 _atom_site_label
 _atom_site_fract_x
 _atom_site_fract_y
 _atom_site_fract_z
 _atom_site_charge
 Nd 0.46126 0.46729 0.36102   2.248837
 Nd 0.03874 0.10627 0.63898   2.248846
 Nd 0.53874 0.53271 0.63898   2.248837
 Nd 0.96126 0.89373 0.36102   2.248846
 H 0.6031 0.3629 0.053   0.112427
 H 0.6481 0.248 0.9094   0.110613
 H 0.6011 0.0263 0.9726   0.108008
 H 0.5432 0.1389 0.1092   0.112449
 H 0.591 0.7812 0.6772   0.121879
 H 0.7885 0.9981 0.7146   0.116316
 H 0.7269 0.7468 0.4586   0.112574
 H 0.71 0.087 0.816   0.053485
 H 0.8969 0.3099 0.947   0.112463
 H 0.8519 0.3386 0.0906   0.110609
 H 0.8989 0.0537 0.0274   0.108004
 H 0.9568 0.0297 0.8908   0.112454
 H 0.909 0.104 0.3228   0.121888
 H 0.7115 0.2835 0.2854   0.116306
 H 0.7731 0.2882 0.5414   0.112565
 H 0.79 0.271 0.184   0.053486
 H 0.3969 0.6371 0.947   0.112428
 H 0.3519 0.752 0.0906   0.110613
 H 0.3989 0.9737 0.0274   0.108007
 H 0.4568 0.8611 0.8908   0.112449
 H 0.409 0.2188 0.3228   0.121879
 H 0.2115 0.0019 0.2854   0.116316
 H 0.2731 0.2532 0.5414   0.112574
 H 0.29 0.913 0.184   0.053485
 H 0.1031 0.6901 0.053   0.112463
 H 0.1481 0.6614 0.9094   0.110609
 H 0.1011 0.9463 0.9726   0.108004
 H 0.0432 0.9703 0.1092   0.112454
 H 0.091 0.896 0.6772   0.121888
 H 0.2885 0.7165 0.7146   0.116306
 H 0.2269 0.7118 0.4586   0.112565
 H 0.21 0.729 0.816   0.053486
 C 0.5279 0.3351 0.1838   0.673434
 C 0.5677 0.2621 0.0954   -0.104408
 C 0.6005 0.2951 0.0356   -0.058025
 C 0.6289 0.2266 0.9506   -0.128249
 C 0.629 0.1234 0.926   0.008279
 C 0.5992 0.0932 0.987   -0.081119
 C 0.5663 0.1611 0.0702   -0.048767
 C 0.6565 0.0551 0.833   0.153865
 C 0.5943 0.6478 0.495   0.771699
 C 0.6498 0.74851 0.55762   -0.158536
 C 0.6341 0.80641 0.65242   -0.096752
 C 0.683 0.90122 0.70904   0.208072
 C 0.7526 0.9362 0.6746   -0.094533
 C 0.7692 0.879 0.5802   -0.155322
 C 0.7169 0.78502 0.52164   0.004949
 C 0.8428 0.9192 0.5438   0.799201
 C 0.9721 0.1513 0.8162   0.67348
 C 0.9323 0.1667 0.9046   -0.104418
 C 0.8995 0.2595 0.9644   -0.058085
 C 0.8711 0.276 0.0494   -0.128206
 C 0.871 0.1974 0.074   0.008268
 C 0.9008 0.1062 0.013   -0.081108
 C 0.9337 0.0909 0.9298   -0.048771
 C 0.8435 0.2221 0.167   0.153864
 C 0.9057 0.1528 0.505   0.771728
 C 0.8502 0.19089 0.44238   -0.158524
 C 0.8659 0.15399 0.34758   -0.096759
 C 0.817 0.19218 0.29096   0.208062
 C 0.7474 0.2616 0.3254   -0.094534
 C 0.7308 0.2988 0.4198   -0.155307
 C 0.7831 0.26338 0.47836   0.004944
 C 0.6572 0.3754 0.4562   0.799209
 C 0.4721 0.6649 0.8162   0.673434
 C 0.4323 0.7379 0.9046   -0.104408
 C 0.3995 0.7049 0.9644   -0.058025
 C 0.3711 0.7734 0.0494   -0.128249
 C 0.371 0.8766 0.074   0.008279
 C 0.4008 0.9068 0.013   -0.081119
 C 0.4337 0.8389 0.9298   -0.048767
 C 0.3435 0.9449 0.167   0.153865
 C 0.4057 0.3522 0.505   0.771699
 C 0.3502 0.25149 0.44238   -0.158536
 C 0.3659 0.19359 0.34758   -0.096752
 C 0.317 0.09878 0.29096   0.208072
 C 0.2474 0.0638 0.3254   -0.094533
 C 0.2308 0.121 0.4198   -0.155322
 C 0.2831 0.21498 0.47836   0.004949
 C 0.1572 0.0808 0.4562   0.799201
 C 0.0279 0.8487 0.1838   0.67348
 C 0.0677 0.8333 0.0954   -0.104418
 C 0.1005 0.7405 0.0356   -0.058085
 C 0.1289 0.724 0.9506   -0.128205
 C 0.129 0.8026 0.926   0.008268
 C 0.0992 0.8938 0.987   -0.081108
 C 0.0663 0.9091 0.0702   -0.04877
 C 0.1565 0.7779 0.833   0.153864
 C 0.0943 0.8472 0.495   0.771728
 C 0.1498 0.80911 0.55762   -0.158524
 C 0.1341 0.84601 0.65242   -0.096759
 C 0.183 0.80782 0.70904   0.208062
 C 0.2526 0.7384 0.6746   -0.094534
 C 0.2692 0.7012 0.5802   -0.155308
 C 0.2169 0.73662 0.52164   0.004944
 C 0.3428 0.6246 0.5438   0.799209
 N 0.6583 0.96116 0.80312   -0.369284
 N 0.8417 0.15804 0.19688   -0.369283
 N 0.3417 0.03884 0.19688   -0.369284
 N 0.1583 0.84196 0.80312   -0.369283
 O 0.555 0.42646 0.22192   -0.682167
 O 0.4691 0.30108 0.21796   -0.734355
 O 0.5798 0.61279 0.40598   -0.644055
 O 0.562 0.59944 0.53328   -0.875625
 O 0.8871 0.00516 0.60312   -0.697033
 O 0.8534 0.86783 0.45706   -0.787862
 O 0.945 0.20454 0.77808   -0.682203
 O 0.0309 0.08312 0.78204   -0.734368
 O 0.9202 0.20681 0.59402   -0.644086
 O 0.938 0.06616 0.46672   -0.875622
 O 0.6129 0.40204 0.39688   -0.697033
 O 0.6466 0.41077 0.54294   -0.787869
 O 0.445 0.57354 0.77808   -0.682167
 O 0.5309 0.69892 0.78204   -0.734355
 O 0.4202 0.38721 0.59402   -0.644055
 O 0.438 0.40056 0.46672   -0.875625
 O 0.1129 0.99484 0.39688   -0.697033
 O 0.1466 0.13217 0.54294   -0.787862
 O 0.055 0.79546 0.22192   -0.682203
 O 0.9691 0.91688 0.21796   -0.734368
 O 0.0798 0.79319 0.40598   -0.644086
 O 0.062 0.93384 0.53328   -0.875622
 O 0.3871 0.59796 0.60312   -0.697033
 O 0.3534 0.58923 0.45706   -0.787869
