{'_ref': 'TBD', '_srcid': 'CAKYAQ_clean', 'submitters': [{'name': 'Dalar Nazarian Jeff Camp and David Sholl', 'email': 'dalar@gatech.edu jcamp6@gatech.edu'}], '_method': 'VASP DFT with PBE;DDEC'}
data_NdH11C19(NO2)3
_symmetry_space_group_name_H-M   'P 1'
_cell_length_a   12.58430030
_cell_length_b   14.11800037
_cell_length_c   16.19520000
_cell_angle_alpha   95.18370054
_cell_angle_beta   112.86199928
_cell_angle_gamma   89.99999937
_symmetry_Int_Tables_number   1
_chemical_formula_structural   NdH11C19(NO2)3
_chemical_formula_sum   'Nd4 H44 C76 N12 O24'
_cell_volume   2638.51395245
_cell_formula_units_Z   4
loop_
 _symmetry_equiv_pos_site_id
 _symmetry_equiv_pos_as_xyz
  1  'x, y, z'
loop_
 _atom_site_label
 _atom_site_fract_x
 _atom_site_fract_y
 _atom_site_fract_z
 _atom_site_charge
 Nd 0.48712 0.46127 0.37159   2.235166
 Nd 0.11553 0.03873 0.62841   2.234855
 Nd 0.51288 0.53873 0.62841   2.235166
 Nd 0.88447 0.96127 0.37159   2.234856
 H 0.1555 0.5924 0.1232   0.118369
 H 0.0549 0.6367 0.9816   0.106945
 H 0.3339 0.6019 0.9242   0.095348
 H 0.4374 0.5584 0.0668   0.110939
 H 0.826 0.5597 0.6876   0.131246
 H 0.0557 0.7707 0.7144   0.113685
 H 0.8146 0.6855 0.4708   0.106211
 H 0.7466 0.3319 0.4212   0.074469
 H 0.6486 0.1977 0.1766   0.094054
 H 0.5198 0.3287 0.1746   0.080574
 H 0.161 0.645 0.806   0.060079
 H 0.0323 0.9076 0.8768   0.118011
 H 0.0733 0.8633 0.0184   0.107578
 H 0.4097 0.8981 0.0758   0.095817
 H 0.3706 0.9416 0.9332   0.110873
 H 0.1384 0.9403 0.3124   0.131967
 H 0.3413 0.7293 0.2856   0.11377
 H 0.3438 0.8145 0.5292   0.106409
 H 0.3254 0.1681 0.5788   0.074708
 H 0.472 0.3023 0.8234   0.093965
 H 0.3452 0.1713 0.8254   0.080408
 H 0.355 0.855 0.194   0.059804
 H 0.8445 0.4076 0.8768   0.118368
 H 0.9451 0.3633 0.0184   0.106945
 H 0.6661 0.3981 0.0758   0.095349
 H 0.5626 0.4416 0.9332   0.110938
 H 0.174 0.4403 0.3124   0.131246
 H 0.9443 0.2293 0.2856   0.113685
 H 0.1854 0.3145 0.5292   0.106211
 H 0.2534 0.6681 0.5788   0.074469
 H 0.3514 0.8023 0.8234   0.094054
 H 0.4802 0.6713 0.8254   0.080575
 H 0.839 0.355 0.194   0.060078
 H 0.9677 0.0924 0.1232   0.118011
 H 0.9267 0.1367 0.9816   0.107578
 H 0.5903 0.1019 0.9242   0.095817
 H 0.6294 0.0584 0.0668   0.110872
 H 0.8616 0.0597 0.6876   0.131967
 H 0.6587 0.2707 0.7144   0.11377
 H 0.6562 0.1855 0.4708   0.106409
 H 0.6746 0.8319 0.4212   0.074708
 H 0.528 0.6977 0.1766   0.093965
 H 0.6548 0.8287 0.1746   0.080409
 H 0.645 0.145 0.806   0.059804
 C 0.36884 0.5374 0.20148   0.640061
 C 0.30565 0.5701 0.1099   -0.089739
 C 0.1919 0.5938 0.0832   -0.054836
 C 0.1313 0.6197 0.998   -0.07864
 C 0.1825 0.6207 0.936   -0.01213
 C 0.2974 0.5991 0.964   -0.105522
 C 0.36025 0.5733 0.0497   -0.075858
 C 0.1187 0.6395 0.8422   0.201352
 C 0.70283 0.5515 0.51126   0.7368
 C 0.80543 0.6129 0.57046   -0.134232
 C 0.8568 0.6032 0.6622   -0.120785
 C 0.95538 0.6596 0.71616   0.219514
 C 0.99378 0.7301 0.67796   -0.105492
 C 0.94192 0.7406 0.58764   -0.128092
 C 0.84819 0.6805 0.53238   0.006623
 C 0.98072 0.8175 0.54564   0.763268
 C 0.7057 0.315 0.36   0.355628
 C 0.653 0.2401 0.2254   0.030785
 C 0.58193 0.3129 0.22506   0.09602
 C 0.16736 0.9626 0.79852   0.640612
 C 0.19575 0.9299 0.8901   -0.090603
 C 0.1087 0.9062 0.9168   -0.052834
 C 0.1333 0.8803 0.002   -0.080763
 C 0.2465 0.8793 0.064   -0.011367
 C 0.3334 0.9009 0.036   -0.1068
 C 0.31055 0.9267 0.9503   -0.075168
 C 0.2765 0.8605 0.1578   0.200571
 C 0.19157 0.9485 0.48874   0.737328
 C 0.23497 0.8871 0.42954   -0.133506
 C 0.1946 0.8968 0.3378   -0.122676
 C 0.23922 0.8404 0.28384   0.219824
 C 0.31582 0.7699 0.32204   -0.106344
 C 0.35428 0.7594 0.41236   -0.127778
 C 0.31581 0.8195 0.46762   0.005943
 C 0.43508 0.6825 0.45436   0.76321
 C 0.3457 0.185 0.64   0.35522
 C 0.4276 0.2599 0.7746   0.030923
 C 0.35687 0.1871 0.77494   0.096004
 C 0.63116 0.4626 0.79852   0.640061
 C 0.69435 0.4299 0.8901   -0.08974
 C 0.8081 0.4062 0.9168   -0.054836
 C 0.8687 0.3803 0.002   -0.07864
 C 0.8175 0.3793 0.064   -0.01213
 C 0.7026 0.4009 0.036   -0.105523
 C 0.63975 0.4267 0.9503   -0.075858
 C 0.8813 0.3605 0.1578   0.201352
 C 0.29717 0.4485 0.48874   0.7368
 C 0.19457 0.3871 0.42954   -0.134233
 C 0.1432 0.3968 0.3378   -0.120786
 C 0.04462 0.3404 0.28384   0.219514
 C 0.00622 0.2699 0.32204   -0.105492
 C 0.05808 0.2594 0.41236   -0.128092
 C 0.15181 0.3195 0.46762   0.00662
 C 0.01928 0.1825 0.45436   0.763267
 C 0.2943 0.685 0.64   0.355627
 C 0.347 0.7599 0.7746   0.030785
 C 0.41807 0.6871 0.77494   0.09602
 C 0.83264 0.0374 0.20148   0.640612
 C 0.80425 0.0701 0.1099   -0.090603
 C 0.8913 0.0938 0.0832   -0.052834
 C 0.8667 0.1197 0.998   -0.080763
 C 0.7535 0.1207 0.936   -0.011367
 C 0.6666 0.0991 0.964   -0.106801
 C 0.68945 0.0733 0.0497   -0.075168
 C 0.7235 0.1395 0.8422   0.200571
 C 0.80843 0.0515 0.51126   0.737328
 C 0.76503 0.1129 0.57046   -0.133507
 C 0.8054 0.1032 0.6622   -0.122678
 C 0.76078 0.1596 0.71616   0.219823
 C 0.68418 0.2301 0.67796   -0.106344
 C 0.64572 0.2406 0.58764   -0.127778
 C 0.68419 0.1805 0.53238   0.005941
 C 0.56492 0.3175 0.54564   0.76321
 C 0.6543 0.815 0.36   0.35522
 C 0.5724 0.7401 0.2254   0.030924
 C 0.64313 0.8129 0.22506   0.096004
 N 0.0093 0.6435 0.8078   -0.352953
 N 0.61448 0.359 0.30876   -0.622697
 N 0.73175 0.242 0.3119   -0.284957
 N 0.2015 0.8565 0.1922   -0.351101
 N 0.30572 0.141 0.69124   -0.622256
 N 0.41985 0.258 0.6881   -0.285079
 N 0.9907 0.3565 0.1922   -0.352953
 N 0.38552 0.641 0.69124   -0.622697
 N 0.26825 0.758 0.6881   -0.284957
 N 0.7985 0.1435 0.8078   -0.351101
 N 0.69428 0.859 0.30876   -0.622255
 N 0.58015 0.742 0.3119   -0.285079
 O 0.4766 0.5298 0.2306   -0.64821
 O 0.31128 0.5165 0.24716   -0.7009
 O 0.6338 0.5191 0.5428   -0.846469
 O 0.68682 0.5332 0.42964   -0.620322
 O 0.9231 0.8299 0.4658   -0.732672
 O 0.07264 0.8653 0.59608   -0.662529
 O 0.246 0.9702 0.7694   -0.648194
 O 0.06412 0.9835 0.75284   -0.701384
 O 0.091 0.9809 0.4572   -0.846475
 O 0.25718 0.9668 0.57036   -0.620496
 O 0.4573 0.6701 0.5342   -0.732275
 O 0.47656 0.6347 0.40392   -0.662795
 O 0.5234 0.4702 0.7694   -0.64821
 O 0.68872 0.4835 0.75284   -0.7009
 O 0.3662 0.4809 0.4572   -0.846469
 O 0.31318 0.4668 0.57036   -0.620322
 O 0.0769 0.1701 0.5342   -0.732672
 O 0.92736 0.1347 0.40392   -0.662529
 O 0.754 0.0298 0.2306   -0.648194
 O 0.93588 0.0165 0.24716   -0.701384
 O 0.909 0.0191 0.5428   -0.846474
 O 0.74282 0.0332 0.42964   -0.620496
 O 0.5427 0.3299 0.4658   -0.732275
 O 0.52344 0.3653 0.59608   -0.662795
