{'_ref': 'TBD', '_srcid': 'CAKYAQ_clean', 'submitters': [{'name': 'Dalar Nazarian Jeff Camp and David Sholl', 'email': 'dalar@gatech.edu jcamp6@gatech.edu'}], '_method': 'VASP DFT with PBE;DDEC'}
data_NdH8C16NO6
_symmetry_space_group_name_H-M   'P 1'
_cell_length_a   13.24739977
_cell_length_b   14.37689969
_cell_length_c   16.10880000
_cell_angle_alpha   116.50300056
_cell_angle_beta   99.49480088
_cell_angle_gamma   89.99999884
_symmetry_Int_Tables_number   1
_chemical_formula_structural   NdH8C16NO6
_chemical_formula_sum   'Nd4 H32 C64 N4 O24'
_cell_volume   2698.56327458
_cell_formula_units_Z   4
loop_
 _symmetry_equiv_pos_site_id
 _symmetry_equiv_pos_as_xyz
  1  'x, y, z'
loop_
 _atom_site_label
 _atom_site_fract_x
 _atom_site_fract_y
 _atom_site_fract_z
 _atom_site_charge
 Nd 0.45332 0.46871 0.36288   2.244764
 Nd 0.04668 0.10583 0.63712   2.244855
 Nd 0.54668 0.53129 0.63712   2.244764
 Nd 0.95332 0.89417 0.36288   2.244856
 H 0.5859 0.3833 0.066   0.111858
 H 0.6338 0.2782 0.9246   0.107723
 H 0.6064 0.0316 0.9754   0.106569
 H 0.5519 0.1352 0.1136   0.111426
 H 0.659 0.118 0.812   0.047397
 H 0.575 0.8 0.6816   0.12347
 H 0.7748 0.028 0.7136   0.11226
 H 0.6952 0.7808 0.462   0.109779
 H 0.9141 0.3173 0.934   0.111657
 H 0.8662 0.3536 0.0754   0.107105
 H 0.8936 0.0562 0.0246   0.106659
 H 0.9481 0.0216 0.8864   0.11189
 H 0.841 0.306 0.188   0.047494
 H 0.925 0.1184 0.3184   0.124343
 H 0.7252 0.3144 0.2864   0.113083
 H 0.8048 0.3188 0.538   0.10935
 H 0.4141 0.6167 0.934   0.11186
 H 0.3662 0.7218 0.0754   0.107723
 H 0.3936 0.9684 0.0246   0.106569
 H 0.4481 0.8648 0.8864   0.111426
 H 0.341 0.882 0.188   0.047397
 H 0.425 0.2 0.3184   0.12347
 H 0.2252 0.972 0.2864   0.11226
 H 0.3048 0.2192 0.538   0.109779
 H 0.0859 0.6827 0.066   0.111658
 H 0.1338 0.6464 0.9246   0.107105
 H 0.1064 0.9438 0.9754   0.106659
 H 0.0519 0.9784 0.1136   0.11189
 H 0.159 0.694 0.812   0.047494
 H 0.075 0.8816 0.6816   0.124343
 H 0.2748 0.6856 0.7136   0.113083
 H 0.1952 0.6812 0.462   0.10935
 C 0.5207 0.3368 0.1918   0.67178
 C 0.5611 0.2702 0.1042   -0.114415
 C 0.588 0.3121 0.047   -0.048292
 C 0.6176 0.2494 0.9628   -0.124139
 C 0.6236 0.1439 0.9342   -0.011534
 C 0.6003 0.1021 0.9928   -0.083532
 C 0.5686 0.1642 0.0758   -0.046914
 C 0.6489 0.0791 0.8418   0.210105
 C 0.5665 0.6701 0.5004   0.769743
 C 0.6252 0.7743 0.5618   -0.153938
 C 0.6159 0.829 0.656   -0.108452
 C 0.668 0.9274 0.7122   0.21482
 C 0.7358 0.9651 0.6754   -0.108571
 C 0.7462 0.9097 0.5818   -0.145103
 C 0.69 0.8164 0.5254   0.002322
 C 0.8201 0.9534 0.5424   0.803412
 C 0.9793 0.145 0.8082   0.673167
 C 0.9389 0.166 0.8958   -0.114992
 C 0.912 0.2651 0.953   -0.048167
 C 0.8824 0.2866 0.0372   -0.123279
 C 0.8764 0.2097 0.0658   -0.012725
 C 0.8997 0.1093 0.0072   -0.083585
 C 0.9314 0.0884 0.9242   -0.0467
 C 0.8511 0.2373 0.1582   0.210681
 C 0.9335 0.1697 0.4996   0.76962
 C 0.8748 0.2125 0.4382   -0.154624
 C 0.8841 0.173 0.344   -0.109065
 C 0.832 0.2152 0.2878   0.215559
 C 0.7642 0.2897 0.3246   -0.110412
 C 0.7538 0.3279 0.4182   -0.144426
 C 0.81 0.291 0.4746   0.003615
 C 0.6799 0.411 0.4576   0.802987
 C 0.4793 0.6632 0.8082   0.67178
 C 0.4389 0.7298 0.8958   -0.114415
 C 0.412 0.6879 0.953   -0.048292
 C 0.3824 0.7506 0.0372   -0.124139
 C 0.3764 0.8561 0.0658   -0.011534
 C 0.3997 0.8979 0.0072   -0.083532
 C 0.4314 0.8358 0.9242   -0.046914
 C 0.3511 0.9209 0.1582   0.210105
 C 0.4335 0.3299 0.4996   0.769743
 C 0.3748 0.2257 0.4382   -0.153938
 C 0.3841 0.171 0.344   -0.108452
 C 0.332 0.0726 0.2878   0.21482
 C 0.2642 0.0349 0.3246   -0.108571
 C 0.2538 0.0903 0.4182   -0.145104
 C 0.31 0.1836 0.4746   0.002321
 C 0.1799 0.0466 0.4576   0.803412
 C 0.0207 0.855 0.1918   0.673167
 C 0.0611 0.834 0.1042   -0.114992
 C 0.088 0.7349 0.047   -0.048167
 C 0.1176 0.7134 0.9628   -0.123279
 C 0.1236 0.7903 0.9342   -0.012725
 C 0.1003 0.8907 0.9928   -0.083585
 C 0.0686 0.9116 0.0758   -0.0467
 C 0.1489 0.7627 0.8418   0.210681
 C 0.0665 0.8303 0.5004   0.769619
 C 0.1252 0.7875 0.5618   -0.154624
 C 0.1159 0.827 0.656   -0.109065
 C 0.168 0.7848 0.7122   0.215559
 C 0.2358 0.7103 0.6754   -0.110412
 C 0.2462 0.6721 0.5818   -0.144427
 C 0.19 0.709 0.5254   0.003615
 C 0.3201 0.589 0.5424   0.802987
 N 0.65 0.98096 0.80592   -0.386091
 N 0.85 0.17504 0.19408   -0.386682
 N 0.35 0.01904 0.19408   -0.386091
 N 0.15 0.82496 0.80592   -0.386682
 O 0.4886 0.29594 0.23728   -0.69626
 O 0.5213 0.43415 0.2171   -0.71651
 O 0.5457 0.63968 0.41176   -0.667169
 O 0.5381 0.61586 0.53672   -0.851235
 O 0.8686 0.03938 0.59716   -0.689731
 O 0.8269 0.89895 0.4575   -0.795526
 O 0.0114 0.05866 0.76272   -0.697146
 O 0.9787 0.21705 0.7829   -0.716591
 O 0.9543 0.22792 0.58824   -0.667013
 O 0.9619 0.07914 0.46328   -0.85157
 O 0.6314 0.44222 0.40284   -0.689886
 O 0.6731 0.44145 0.5425   -0.795215
 O 0.5114 0.70406 0.76272   -0.69626
 O 0.4787 0.56585 0.7829   -0.71651
 O 0.4543 0.36032 0.58824   -0.667169
 O 0.4619 0.38414 0.46328   -0.851235
 O 0.1314 0.96062 0.40284   -0.689731
 O 0.1731 0.10105 0.5425   -0.795526
 O 0.9886 0.94134 0.23728   -0.697146
 O 0.0213 0.78295 0.2171   -0.716591
 O 0.0457 0.77208 0.41176   -0.667013
 O 0.0381 0.92086 0.53672   -0.85157
 O 0.3686 0.55778 0.59716   -0.689886
 O 0.3269 0.55855 0.4575   -0.795215
