{'_ref': 'TBD', '_srcid': 'CAKYAQ_clean', 'submitters': [{'name': 'Dalar Nazarian Jeff Camp and David Sholl', 'email': 'dalar@gatech.edu jcamp6@gatech.edu'}], '_method': 'VASP DFT with PBE;DDEC'}
data_NdH14C21N3O7
_symmetry_space_group_name_H-M   'P 1'
_cell_length_a   13.08140000
_cell_length_b   13.79510000
_cell_length_c   29.04249978
_cell_angle_alpha   90.00000000
_cell_angle_beta   100.78500006
_cell_angle_gamma   90.00000000
_symmetry_Int_Tables_number   1
_chemical_formula_structural   NdH14C21N3O7
_chemical_formula_sum   'Nd8 H112 C168 N24 O56'
_cell_volume   5148.41152997
_cell_formula_units_Z   8
loop_
 _symmetry_equiv_pos_site_id
 _symmetry_equiv_pos_as_xyz
  1  'x, y, z'
loop_
 _atom_site_label
 _atom_site_fract_x
 _atom_site_fract_y
 _atom_site_fract_z
 _atom_site_charge
 Nd 0.55163 0.29026 0.31658   2.243146
 Nd 0.94837 0.29026 0.68342   2.243146
 Nd 0.55163 0.79026 0.81658   2.243146
 Nd 0.94837 0.79026 0.18342   2.243146
 Nd 0.44837 0.70974 0.68342   2.243146
 Nd 0.05163 0.70974 0.31658   2.243146
 Nd 0.44837 0.20974 0.18342   2.243146
 Nd 0.05163 0.20974 0.81658   2.243146
 H 0.4133 0.3621 0.4612   0.107113
 H 0.0867 0.3621 0.5388   0.107113
 H 0.4133 0.8621 0.9612   0.107113
 H 0.0867 0.8621 0.0388   0.107113
 H 0.5867 0.6379 0.5388   0.107113
 H 0.9133 0.6379 0.4612   0.107113
 H 0.5867 0.1379 0.0388   0.107113
 H 0.9133 0.1379 0.9612   0.107113
 H 0.3606 0.3302 0.5312   0.105092
 H 0.1394 0.3302 0.4688   0.105087
 H 0.3606 0.8302 0.0312   0.105092
 H 0.1394 0.8302 0.9688   0.105087
 H 0.6394 0.6698 0.4688   0.105092
 H 0.8606 0.6698 0.5312   0.105087
 H 0.6394 0.1698 0.9688   0.105092
 H 0.8606 0.1698 0.0312   0.105087
 H 0.4016 0.0473 0.5139   0.105
 H 0.0984 0.0473 0.4861   0.10499
 H 0.4016 0.5473 0.0139   0.105
 H 0.0984 0.5473 0.9861   0.10499
 H 0.5984 0.9527 0.4861   0.105
 H 0.9016 0.9527 0.5139   0.10499
 H 0.5984 0.4527 0.9861   0.105
 H 0.9016 0.4527 0.0139   0.10499
 H 0.4526 0.0773 0.4425   0.11129
 H 0.0474 0.0773 0.5575   0.11129
 H 0.4526 0.5773 0.9425   0.11129
 H 0.0474 0.5773 0.0575   0.11129
 H 0.5474 0.9227 0.5575   0.11129
 H 0.9526 0.9227 0.4425   0.11129
 H 0.5474 0.4227 0.0575   0.11129
 H 0.9526 0.4227 0.9425   0.11129
 H 0.4279 0.9645 0.6576   0.129104
 H 0.0721 0.9645 0.3424   0.129104
 H 0.4279 0.4645 0.1576   0.129104
 H 0.0721 0.4645 0.8424   0.129104
 H 0.5721 0.0355 0.3424   0.129104
 H 0.9279 0.0355 0.6576   0.129104
 H 0.5721 0.5355 0.8424   0.129104
 H 0.9279 0.5355 0.1576   0.129104
 H 0.2306 0.189 0.6419   0.106547
 H 0.2694 0.189 0.3581   0.106547
 H 0.2306 0.689 0.1419   0.106547
 H 0.2694 0.689 0.8581   0.106547
 H 0.7694 0.811 0.3581   0.106547
 H 0.7306 0.811 0.6419   0.106547
 H 0.7694 0.311 0.8581   0.106547
 H 0.7306 0.311 0.1419   0.106547
 H 0.3212 0.0712 0.7691   0.103444
 H 0.1788 0.0712 0.2309   0.103444
 H 0.3212 0.5712 0.2691   0.103444
 H 0.1788 0.5712 0.7309   0.103444
 H 0.6788 0.9288 0.2309   0.103445
 H 0.8212 0.9288 0.7691   0.103445
 H 0.6788 0.4288 0.7309   0.103445
 H 0.8212 0.4288 0.2691   0.103445
 H 0.6647 0.5585 0.328   0.077791
 H 0.8353 0.5585 0.672   0.077791
 H 0.6647 0.0585 0.828   0.077791
 H 0.8353 0.0585 0.172   0.077791
 H 0.3353 0.4415 0.672   0.077791
 H 0.1647 0.4415 0.328   0.077791
 H 0.3353 0.9415 0.172   0.077791
 H 0.1647 0.9415 0.828   0.077791
 H 0.000900000000001 0.5098 0.3979   0.158078
 H 0.4991 0.5098 0.6021   0.158078
 H 0.000900000000001 0.0098 0.8979   0.158078
 H 0.4991 0.0098 0.1021   0.158078
 H 0.9991 0.4902 0.6021   0.158078
 H 0.5009 0.4902 0.3979   0.158078
 H 0.9991 0.9902 0.1021   0.158078
 H 0.5009 0.9902 0.8979   0.158078
 H 0.9795 0.4258 0.4311   0.124245
 H 0.5205 0.4258 0.5689   0.124245
 H 0.9795 0.9258 0.9311   0.124245
 H 0.5205 0.9258 0.0689   0.124245
 H 0.0205 0.5742 0.5689   0.124245
 H 0.4795 0.5742 0.4311   0.124245
 H 0.0205 0.0742 0.0689   0.124245
 H 0.4795 0.0742 0.9311   0.124245
 H 0.0045 0.4016 0.3817   0.127004
 H 0.4955 0.4016 0.6183   0.127004
 H 0.0045 0.9016 0.8817   0.127004
 H 0.4955 0.9016 0.1183   0.127004
 H 0.9955 0.5984 0.6183   0.127004
 H 0.5045 0.5984 0.3817   0.127004
 H 0.9955 0.0984 0.1183   0.127004
 H 0.5045 0.0984 0.8817   0.127004
 H 0.743 0.162 0.353   0.420612
 H 0.757 0.162 0.647   0.420612
 H 0.743 0.662 0.853   0.420612
 H 0.757 0.662 0.147   0.420612
 H 0.257 0.838 0.647   0.420612
 H 0.243 0.838 0.353   0.420612
 H 0.257 0.338 0.147   0.420612
 H 0.243 0.338 0.853   0.420612
 H 0.869 0.593 0.363   0.317908
 H 0.631 0.593 0.637   0.317908
 H 0.869 0.093 0.863   0.317908
 H 0.631 0.093 0.137   0.317908
 H 0.131 0.407 0.637   0.317908
 H 0.369 0.407 0.363   0.317908
 H 0.131 0.907 0.137   0.317908
 H 0.369 0.907 0.863   0.317908
 H 0.336 0.231 0.597   0.043217
 H 0.164 0.231 0.403   0.043217
 H 0.336 0.731 0.097   0.043217
 H 0.164 0.731 0.903   0.043217
 H 0.664 0.769 0.403   0.043217
 H 0.836 0.769 0.597   0.043217
 H 0.664 0.269 0.903   0.043217
 H 0.836 0.269 0.097   0.043217
 C 0.484 0.2446 0.4019   0.659691
 C 0.016 0.2446 0.5981   0.659691
 C 0.484 0.7446 0.9019   0.659691
 C 0.016 0.7446 0.0981   0.659691
 C 0.516 0.7554 0.5981   0.659691
 C 0.984 0.7554 0.4019   0.659691
 C 0.516 0.2554 0.0981   0.659691
 C 0.984 0.2554 0.9019   0.659691
 C 0.4437 0.2237 0.446   -0.11502
 C 0.0563 0.2237 0.554   -0.115019
 C 0.4437 0.7237 0.946   -0.11502
 C 0.0563 0.7237 0.054   -0.115019
 C 0.5563 0.7763 0.554   -0.11502
 C 0.9437 0.7763 0.446   -0.115019
 C 0.5563 0.2763 0.054   -0.11502
 C 0.9437 0.2763 0.946   -0.115019
 C 0.413 0.2987 0.472   -0.053445
 C 0.087 0.2987 0.528   -0.053446
 C 0.413 0.7987 0.972   -0.053445
 C 0.087 0.7987 0.028   -0.053446
 C 0.587 0.7013 0.528   -0.053445
 C 0.913 0.7013 0.472   -0.053446
 C 0.587 0.2013 0.028   -0.053445
 C 0.913 0.2013 0.972   -0.053446
 C 0.3819 0.2795 0.5141   -0.127522
 C 0.1181 0.2795 0.4859   -0.12752
 C 0.3819 0.7795 0.0141   -0.127522
 C 0.1181 0.7795 0.9859   -0.12752
 C 0.6181 0.7205 0.4859   -0.127522
 C 0.8819 0.7205 0.5141   -0.12752
 C 0.6181 0.2205 0.9859   -0.127522
 C 0.8819 0.2205 0.0141   -0.12752
 C 0.3822 0.1862 0.5309   0.002125
 C 0.1178 0.1862 0.4691   0.002124
 C 0.3822 0.6862 0.0309   0.002125
 C 0.1178 0.6862 0.9691   0.002124
 C 0.6178 0.8138 0.4691   0.002125
 C 0.8822 0.8138 0.5309   0.002124
 C 0.6178 0.3138 0.9691   0.002125
 C 0.8822 0.3138 0.0309   0.002124
 C 0.4061 0.1108 0.5037   -0.086162
 C 0.0939 0.1108 0.4963   -0.086158
 C 0.4061 0.6108 0.0037   -0.086162
 C 0.0939 0.6108 0.9963   -0.086158
 C 0.5939 0.8892 0.4963   -0.086162
 C 0.9061 0.8892 0.5037   -0.086158
 C 0.5939 0.3892 0.9963   -0.086162
 C 0.9061 0.3892 0.0037   -0.086158
 C 0.4369 0.1285 0.4608   -0.046208
 C 0.0631 0.1285 0.5392   -0.046209
 C 0.4369 0.6285 0.9608   -0.046208
 C 0.0631 0.6285 0.0392   -0.046209
 C 0.5631 0.8715 0.5392   -0.046208
 C 0.9369 0.8715 0.4608   -0.046209
 C 0.5631 0.3715 0.0392   -0.046208
 C 0.9369 0.3715 0.9608   -0.046209
 C 0.3559 0.1706 0.5778   0.172914
 C 0.1441 0.1706 0.4222   0.172914
 C 0.3559 0.6706 0.0778   0.172914
 C 0.1441 0.6706 0.9222   0.172914
 C 0.6441 0.8294 0.4222   0.172914
 C 0.8559 0.8294 0.5778   0.172914
 C 0.6441 0.3294 0.9222   0.172914
 C 0.8559 0.3294 0.0778   0.172914
 C 0.4462 0.9337 0.7487   0.747082
 C 0.0538 0.9337 0.2513   0.747082
 C 0.4462 0.4337 0.2487   0.747082
 C 0.0538 0.4337 0.7513   0.747082
 C 0.5538 0.0663 0.2513   0.747082
 C 0.9462 0.0663 0.7487   0.747082
 C 0.5538 0.5663 0.7513   0.747082
 C 0.9462 0.5663 0.2487   0.747082
 C 0.3857 0.0051 0.7183   -0.155778
 C 0.1143 0.0051 0.2817   -0.155778
 C 0.3857 0.5051 0.2183   -0.155778
 C 0.1143 0.5051 0.7817   -0.155778
 C 0.6143 0.9949 0.2817   -0.155777
 C 0.8857 0.9949 0.7183   -0.155777
 C 0.6143 0.4949 0.7817   -0.155777
 C 0.8857 0.4949 0.2183   -0.155777
 C 0.3891 0.01 0.6706   -0.130855
 C 0.1109 0.01 0.3294   -0.130855
 C 0.3891 0.51 0.1706   -0.130855
 C 0.1109 0.51 0.8294   -0.130855
 C 0.6109 0.99 0.3294   -0.130855
 C 0.8891 0.99 0.6706   -0.130855
 C 0.6109 0.49 0.8294   -0.130855
 C 0.8891 0.49 0.1706   -0.130855
 C 0.3349 0.0825 0.6419   0.209095
 C 0.1651 0.0825 0.3581   0.209095
 C 0.3349 0.5825 0.1419   0.209095
 C 0.1651 0.5825 0.8581   0.209095
 C 0.6651 0.9175 0.3581   0.209095
 C 0.8349 0.9175 0.6419   0.209095
 C 0.6651 0.4175 0.8581   0.209095
 C 0.8349 0.4175 0.1419   0.209095
 C 0.2701 0.1434 0.661   -0.121008
 C 0.2299 0.1434 0.339   -0.121008
 C 0.2701 0.6434 0.161   -0.121008
 C 0.2299 0.6434 0.839   -0.121008
 C 0.7299 0.8566 0.339   -0.121008
 C 0.7701 0.8566 0.661   -0.121008
 C 0.7299 0.3566 0.839   -0.121008
 C 0.7701 0.3566 0.161   -0.121008
 C 0.2621 0.1385 0.7082   -0.127364
 C 0.2379 0.1385 0.2918   -0.127364
 C 0.2621 0.6385 0.2082   -0.127364
 C 0.2379 0.6385 0.7918   -0.127364
 C 0.7379 0.8615 0.2918   -0.127363
 C 0.7621 0.8615 0.7082   -0.127363
 C 0.7379 0.3615 0.7918   -0.127363
 C 0.7621 0.3615 0.2082   -0.127363
 C 0.3224 0.0719 0.7371   -0.00188
 C 0.1776 0.0719 0.2629   -0.00188
 C 0.3224 0.5719 0.2371   -0.00188
 C 0.1776 0.5719 0.7629   -0.00188
 C 0.6776 0.9281 0.2629   -0.001886
 C 0.8224 0.9281 0.7371   -0.001886
 C 0.6776 0.4281 0.7629   -0.001886
 C 0.8224 0.4281 0.2371   -0.001886
 C 0.1909 0.2055 0.7273   0.758031
 C 0.3091 0.2055 0.2727   0.758031
 C 0.1909 0.7055 0.2273   0.758031
 C 0.3091 0.7055 0.7727   0.758031
 C 0.8091 0.7945 0.2727   0.758031
 C 0.6909 0.7945 0.7273   0.758031
 C 0.8091 0.2945 0.7727   0.758031
 C 0.6909 0.2945 0.2273   0.758031
 C 0.7853 0.3831 0.373   -0.043687
 C 0.7147 0.3831 0.627   -0.043693
 C 0.7853 0.8831 0.873   -0.043687
 C 0.7147 0.8831 0.127   -0.043693
 C 0.2147 0.6169 0.627   -0.043687
 C 0.2853 0.6169 0.373   -0.043693
 C 0.2147 0.1169 0.127   -0.043687
 C 0.2853 0.1169 0.873   -0.043693
 C 0.8636 0.4507 0.3795   0.218964
 C 0.6364 0.4507 0.6205   0.218965
 C 0.8636 0.9507 0.8795   0.218964
 C 0.6364 0.9507 0.1205   0.218965
 C 0.1364 0.5493 0.6205   0.218964
 C 0.3636 0.5493 0.3795   0.218965
 C 0.1364 0.0493 0.1205   0.218964
 C 0.3636 0.0493 0.8795   0.218965
 C 0.7108 0.5132 0.344   0.26429
 C 0.7892 0.5132 0.656   0.26429
 C 0.7108 0.0132 0.844   0.26429
 C 0.7892 0.0132 0.156   0.26429
 C 0.2892 0.4868 0.656   0.26429
 C 0.2108 0.4868 0.344   0.26429
 C 0.2892 0.9868 0.156   0.26429
 C 0.2108 0.9868 0.844   0.26429
 C 0.9707 0.4466 0.3991   -0.393135
 C 0.5293 0.4466 0.6009   -0.393135
 C 0.9707 0.9466 0.8991   -0.393135
 C 0.5293 0.9466 0.1009   -0.393135
 C 0.0293 0.5534 0.6009   -0.393135
 C 0.4707 0.5534 0.3991   -0.393135
 C 0.0293 0.0534 0.1009   -0.393135
 C 0.4707 0.0534 0.8991   -0.393135
 C 0.795 0.2798 0.3814   0.170786
 C 0.705 0.2798 0.6186   0.170791
 C 0.795 0.7798 0.8814   0.170786
 C 0.705 0.7798 0.1186   0.170791
 C 0.205 0.7202 0.6186   0.170786
 C 0.295 0.7202 0.3814   0.170791
 C 0.205 0.2202 0.1186   0.170786
 C 0.295 0.2202 0.8814   0.170791
 N 0.3507 0.0875 0.5953   -0.367464
 N 0.1493 0.0875 0.4047   -0.367464
 N 0.3507 0.5875 0.0953   -0.367464
 N 0.1493 0.5875 0.9047   -0.367464
 N 0.6493 0.9125 0.4047   -0.367464
 N 0.8507 0.9125 0.5953   -0.367464
 N 0.6493 0.4125 0.9047   -0.367464
 N 0.8507 0.4125 0.0953   -0.367464
 N 0.6829 0.4221 0.3521   -0.530556
 N 0.8171 0.4221 0.6479   -0.530555
 N 0.6829 0.9221 0.8521   -0.530556
 N 0.8171 0.9221 0.1479   -0.530555
 N 0.3171 0.5779 0.6479   -0.530556
 N 0.1829 0.5779 0.3521   -0.530555
 N 0.3171 0.0779 0.1479   -0.530556
 N 0.1829 0.0779 0.8521   -0.530555
 N 0.816 0.5341 0.3618   -0.341558
 N 0.684 0.5341 0.6382   -0.341558
 N 0.816 0.0341 0.8618   -0.341558
 N 0.684 0.0341 0.1382   -0.341558
 N 0.184 0.4659 0.6382   -0.341558
 N 0.316 0.4659 0.3618   -0.341558
 N 0.184 0.9659 0.1382   -0.341558
 N 0.316 0.9659 0.8618   -0.341558
 O 0.4875 0.3324 0.38929   -0.703997
 O 0.0125 0.3324 0.61071   -0.703997
 O 0.4875 0.8324 0.88929   -0.703997
 O 0.0125 0.8324 0.11071   -0.703997
 O 0.5125 0.6676 0.61071   -0.703997
 O 0.9875 0.6676 0.38929   -0.703997
 O 0.5125 0.1676 0.11071   -0.703997
 O 0.9875 0.1676 0.88929   -0.703997
 O 0.5102 0.1759 0.37838   -0.649431
 O 0.9898 0.1759 0.62162   -0.649431
 O 0.5102 0.6759 0.87838   -0.649431
 O 0.9898 0.6759 0.12162   -0.649431
 O 0.4898 0.8241 0.62162   -0.649431
 O 0.0102 0.8241 0.37838   -0.649431
 O 0.4898 0.3241 0.12162   -0.649431
 O 0.0102 0.3241 0.87838   -0.649431
 O 0.4728 0.8539 0.73097   -0.852471
 O 0.0272 0.8539 0.26903   -0.852471
 O 0.4728 0.3539 0.23097   -0.852471
 O 0.0272 0.3539 0.76903   -0.852471
 O 0.5272 0.1461 0.26903   -0.852471
 O 0.9728 0.1461 0.73097   -0.852471
 O 0.5272 0.6461 0.76903   -0.852471
 O 0.9728 0.6461 0.23097   -0.852471
 O 0.4713 0.9494 0.79246   -0.647667
 O 0.0287 0.9494 0.20754   -0.647667
 O 0.4713 0.4494 0.29246   -0.647667
 O 0.0287 0.4494 0.70754   -0.647667
 O 0.5287 0.0506 0.20754   -0.647667
 O 0.9713 0.0506 0.79246   -0.647667
 O 0.5287 0.5506 0.70754   -0.647667
 O 0.9713 0.5506 0.29246   -0.647667
 O 0.1879 0.1973 0.77089   -0.751918
 O 0.3121 0.1973 0.22911   -0.751918
 O 0.1879 0.6973 0.27089   -0.751918
 O 0.3121 0.6973 0.72911   -0.751918
 O 0.8121 0.8027 0.22911   -0.751917
 O 0.6879 0.8027 0.77089   -0.751918
 O 0.8121 0.3027 0.72911   -0.751917
 O 0.6879 0.3027 0.27089   -0.751918
 O 0.1346 0.2629 0.69949   -0.71648
 O 0.3654 0.2629 0.30051   -0.71648
 O 0.1346 0.7629 0.19949   -0.71648
 O 0.3654 0.7629 0.80051   -0.71648
 O 0.8654 0.7371 0.30051   -0.71648
 O 0.6346 0.7371 0.69949   -0.71648
 O 0.8654 0.2371 0.80051   -0.71648
 O 0.6346 0.2371 0.19949   -0.71648
 O 0.7141 0.2235 0.3664   -0.518956
 O 0.7859 0.2235 0.6336   -0.518956
 O 0.7141 0.7235 0.8664   -0.518956
 O 0.7859 0.7235 0.1336   -0.518956
 O 0.2859 0.7765 0.6336   -0.518956
 O 0.2141 0.7765 0.3664   -0.518956
 O 0.2859 0.2765 0.1336   -0.518956
 O 0.2141 0.2765 0.8664   -0.518956
