{'_ref': 'TBD', '_srcid': 'CAKYAQ_clean', 'submitters': [{'name': 'Dalar Nazarian Jeff Camp and David Sholl', 'email': 'dalar@gatech.edu jcamp6@gatech.edu'}], '_method': 'VASP DFT with PBE;DDEC'}
data_NdH8C16NO6
_symmetry_space_group_name_H-M   'P 1'
_cell_length_a   13.64500045
_cell_length_b   14.27309989
_cell_length_c   16.11340735
_cell_angle_alpha   116.28833460
_cell_angle_beta   99.00595067
_cell_angle_gamma   90.00000115
_symmetry_Int_Tables_number   1
_chemical_formula_structural   NdH8C16NO6
_chemical_formula_sum   'Nd4 H32 C64 N4 O24'
_cell_volume   2770.41188806
_cell_formula_units_Z   4
loop_
 _symmetry_equiv_pos_site_id
 _symmetry_equiv_pos_as_xyz
  1  'x, y, z'
loop_
 _atom_site_label
 _atom_site_fract_x
 _atom_site_fract_y
 _atom_site_fract_z
 _atom_site_charge
 Nd 0.04339 0.60548 0.63589   2.250316
 Nd 0.45661 0.96959 0.36411   2.249915
 Nd 0.95661 0.39452 0.36411   2.250316
 Nd 0.54339 0.03041 0.63589   2.249916
 H 0.9173 0.817 0.9352   0.105285
 H 0.8781 0.8575 0.0802   0.105002
 H 0.9019 0.5622 0.0332   0.105172
 H 0.9503 0.5233 0.89   0.10955
 H 0.887 0.814 0.198   0.048702
 H 0.9207 0.6204 0.3184   0.126747
 H 0.7246 0.815 0.2874   0.111482
 H 0.8016 0.819 0.5394   0.109338
 H 0.5827 0.8818 0.0648   0.104232
 H 0.6219 0.7773 0.9198   0.104948
 H 0.5981 0.529 0.9668   0.105024
 H 0.5497 0.6333 0.11   0.108312
 H 0.613 0.616 0.802   0.049165
 H 0.5793 0.302 0.6816   0.126478
 H 0.7754 0.5276 0.7126   0.111688
 H 0.6984 0.2796 0.4606   0.108626
 H 0.0827 0.183 0.0648   0.105286
 H 0.1219 0.1425 0.9198   0.105002
 H 0.0981 0.4378 0.9668   0.105172
 H 0.0497 0.4767 0.11   0.10955
 H 0.113 0.186 0.802   0.048702
 H 0.0793 0.3796 0.6816   0.126747
 H 0.2754 0.185 0.7126   0.111482
 H 0.1984 0.181 0.4606   0.109337
 H 0.4173 0.1182 0.9352   0.104233
 H 0.3781 0.2227 0.0802   0.104948
 H 0.4019 0.471 0.0332   0.105024
 H 0.4503 0.3667 0.89   0.108312
 H 0.387 0.384 0.198   0.049165
 H 0.4207 0.698 0.3184   0.126478
 H 0.2246 0.4724 0.2874   0.111688
 H 0.3016 0.7204 0.5394   0.108626
 C 0.979 0.6445 0.8094   0.68342
 C 0.9424 0.6661 0.8986   -0.119714
 C 0.9165 0.7653 0.9554   -0.044754
 C 0.8894 0.789 0.041   -0.128246
 C 0.8795 0.7142 0.0674   0.011315
 C 0.9049 0.6138 0.013   -0.101391
 C 0.9351 0.591 0.9276   -0.040285
 C 0.8548 0.7426 0.163   0.180171
 C 0.9293 0.6719 0.5002   0.772887
 C 0.8729 0.715 0.4398   -0.161879
 C 0.8812 0.6755 0.3446   -0.100368
 C 0.8308 0.7185 0.2902   0.203926
 C 0.7633 0.7918 0.3264   -0.102881
 C 0.7522 0.8318 0.421   -0.149237
 C 0.8076 0.7929 0.4764   0.009958
 C 0.6788 0.9089 0.4568   0.804893
 C 0.521 0.8351 0.1906   0.682471
 C 0.5576 0.7675 0.1014   -0.119502
 C 0.5835 0.8099 0.0446   -0.043158
 C 0.6106 0.748 0.959   -0.12857
 C 0.6205 0.6468 0.9326   0.012123
 C 0.5951 0.6008 0.987   -0.103074
 C 0.5649 0.6634 0.0724   -0.038017
 C 0.6452 0.5796 0.837   0.17999
 C 0.5707 0.1717 0.4998   0.772547
 C 0.6271 0.2752 0.5602   -0.162561
 C 0.6188 0.3309 0.6554   -0.099634
 C 0.6692 0.4283 0.7098   0.204491
 C 0.7367 0.4654 0.6736   -0.103479
 C 0.7478 0.4108 0.579   -0.150333
 C 0.6924 0.3165 0.5236   0.010855
 C 0.8212 0.4521 0.5432   0.80568
 C 0.021 0.3555 0.1906   0.68342
 C 0.0576 0.3339 0.1014   -0.119714
 C 0.0835 0.2347 0.0446   -0.044755
 C 0.1106 0.211 0.959   -0.128245
 C 0.1205 0.2858 0.9326   0.011315
 C 0.0951 0.3862 0.987   -0.101391
 C 0.0649 0.409 0.0724   -0.040285
 C 0.1452 0.2574 0.837   0.180171
 C 0.0707 0.3281 0.4998   0.772887
 C 0.1271 0.285 0.5602   -0.16188
 C 0.1188 0.3245 0.6554   -0.100369
 C 0.1692 0.2815 0.7098   0.203926
 C 0.2367 0.2082 0.6736   -0.102881
 C 0.2478 0.1682 0.579   -0.149237
 C 0.1924 0.2071 0.5236   0.009958
 C 0.3212 0.0911 0.5432   0.804893
 C 0.479 0.1649 0.8094   0.682471
 C 0.4424 0.2325 0.8986   -0.119502
 C 0.4165 0.1901 0.9554   -0.043159
 C 0.3894 0.252 0.041   -0.12857
 C 0.3795 0.3532 0.0674   0.012123
 C 0.4049 0.3992 0.013   -0.103074
 C 0.4351 0.3366 0.9276   -0.038017
 C 0.3548 0.4204 0.163   0.17999
 C 0.4293 0.8283 0.5002   0.772547
 C 0.3729 0.7248 0.4398   -0.162561
 C 0.3812 0.6691 0.3446   -0.099634
 C 0.3308 0.5717 0.2902   0.204491
 C 0.2633 0.5346 0.3264   -0.103479
 C 0.2522 0.5892 0.421   -0.150334
 C 0.3076 0.6835 0.4764   0.010854
 C 0.1788 0.5479 0.4568   0.80568
 N 0.8509 0.6814 0.197   -0.341218
 N 0.6491 0.4844 0.803   -0.341371
 N 0.1491 0.3186 0.803   -0.341218
 N 0.3509 0.5156 0.197   -0.341371
 O 0.9828 0.7148 0.7844   -0.707042
 O 0.0063 0.55324 0.76168   -0.713528
 O 0.948 0.72808 0.58836   -0.661791
 O 0.9608 0.58059 0.46358   -0.864253
 O 0.6692 0.93989 0.54278   -0.808841
 O 0.6286 0.94043 0.40226   -0.692519
 O 0.5172 0.9304 0.2156   -0.707263
 O 0.4937 0.79156 0.23832   -0.71288
 O 0.552 0.13972 0.41164   -0.661667
 O 0.5392 0.11701 0.53642   -0.863359
 O 0.8308 0.39711 0.45722   -0.809192
 O 0.8714 0.53817 0.59774   -0.692699
 O 0.0172 0.2852 0.2156   -0.707042
 O 0.9937 0.44676 0.23832   -0.713528
 O 0.052 0.27192 0.41164   -0.661791
 O 0.0392 0.41941 0.53642   -0.864253
 O 0.3308 0.06011 0.45722   -0.808841
 O 0.3714 0.05957 0.59774   -0.692519
 O 0.4828 0.0696 0.7844   -0.707263
 O 0.5063 0.20844 0.76168   -0.71288
 O 0.448 0.86028 0.58836   -0.661667
 O 0.4608 0.88299 0.46358   -0.863359
 O 0.1692 0.60289 0.54278   -0.809192
 O 0.1286 0.46183 0.40226   -0.692699
