{'_ref': 'TBD', '_srcid': 'CAKYAQ_clean', 'submitters': [{'name': 'Dalar Nazarian Jeff Camp and David Sholl', 'email': 'dalar@gatech.edu jcamp6@gatech.edu'}], '_method': 'VASP DFT with PBE;DDEC'}
data_Dy2P2H25C43O16
_symmetry_space_group_name_H-M   'P 1'
_cell_length_a   10.49200000
_cell_length_b   14.53700006
_cell_length_c   23.40300000
_cell_angle_alpha   107.31999955
_cell_angle_beta   90.00000000
_cell_angle_gamma   90.00000000
_symmetry_Int_Tables_number   1
_chemical_formula_structural   Dy2P2H25C43O16
_chemical_formula_sum   'Dy4 P4 H50 C86 O32'
_cell_volume   3407.6261396
_cell_formula_units_Z   2
loop_
 _symmetry_equiv_pos_site_id
 _symmetry_equiv_pos_as_xyz
  1  'x, y, z'
loop_
 _atom_site_label
 _atom_site_fract_x
 _atom_site_fract_y
 _atom_site_fract_z
 _atom_site_charge
 Dy 0.06394 0.84503 0.77348   2.276849
 Dy 0.06394 0.15497 0.72652   2.276848
 Dy 0.93606 0.15497 0.22652   2.276849
 Dy 0.93606 0.84503 0.27348   2.276848
 P 0.85845 0.76905 0.87921   1.11668
 P 0.85845 0.23095 0.62079   1.11668
 P 0.14155 0.23095 0.12079   1.11668
 P 0.14155 0.76905 0.37921   1.11668
 H 0.7331 0.796 0.7787   0.098809
 H 0.5241 0.8135 0.7516   0.126261
 H 0.4028 0.7923 0.9094   0.12374
 H 0.6109 0.7687 0.9346   0.083708
 H 0.8665 0.951 0.9672   0.098947
 H 0.8789 0.0063 0.0691   0.107937
 H 0.8821 0.7368 0.0779   0.118814
 H 0.8721 0.6794 0.974   0.093301
 H 0.0875 0.6632 0.8575   0.10334
 H 0.1452 0.5044 0.8235   0.118596
 H 0.7798 0.4267 0.8146   0.112477
 H 0.7184 0.588 0.8463   0.09492
 H 0.7331 0.204 0.7213   0.098809
 H 0.5241 0.1865 0.7484   0.126261
 H 0.4028 0.2077 0.5906   0.12374
 H 0.6109 0.2313 0.5654   0.083708
 H 0.8665 0.049 0.5328   0.098947
 H 0.8789 0.9937 0.4309   0.107937
 H 0.8821 0.2632 0.4221   0.118814
 H 0.8721 0.3206 0.526   0.093301
 H 0.0875 0.3368 0.6425   0.10334
 H 0.1452 0.4956 0.6765   0.118597
 H 0.7798 0.5733 0.6854   0.112477
 H 0.7184 0.412 0.6537   0.09492
 H 0.2669 0.204 0.2213   0.098809
 H 0.4759 0.1865 0.2484   0.126261
 H 0.5972 0.2077 0.0906   0.12374
 H 0.3891 0.2313 0.0654   0.083708
 H 0.1335 0.049 0.0328   0.098948
 H 0.1211 0.9937 0.9309   0.107937
 H 0.1179 0.2632 0.9221   0.118814
 H 0.1279 0.3206 0.026   0.093301
 H 0.9125 0.3368 0.1425   0.10334
 H 0.8548 0.4956 0.1765   0.118596
 H 0.2202 0.5733 0.1854   0.112477
 H 0.2816 0.412 0.1537   0.09492
 H 0.2669 0.796 0.2787   0.098809
 H 0.4759 0.8135 0.2516   0.126261
 H 0.5972 0.7923 0.4094   0.12374
 H 0.3891 0.7687 0.4346   0.083708
 H 0.1335 0.951 0.4672   0.098948
 H 0.1211 0.0063 0.5691   0.107937
 H 0.1179 0.7368 0.5779   0.118814
 H 0.1279 0.6794 0.474   0.093301
 H 0.9125 0.6632 0.3575   0.10334
 H 0.8548 0.5044 0.3235   0.118597
 H 0.2202 0.4267 0.3146   0.112477
 H 0.2816 0.588 0.3463   0.09492
 H 0.7445 0.0 0.75   0.012244
 H 0.2555 0.0 0.25   0.012244
 C 0.6969 0.7809 0.8602   -0.327678
 C 0.6675 0.7945 0.8052   0.029888
 C 0.5418 0.8058 0.7888   -0.075893
 C 0.4462 0.8056 0.8274   -0.06099
 C 0.4692 0.7923 0.8831   -0.094807
 C 0.5945 0.7791 0.898   -0.006272
 C 0.3086 0.8215 0.8115   0.63388
 C 0.8682 0.8103 0.9597   -0.291359
 C 0.8704 0.9071 0.9891   -0.000733
 C 0.878 0.9403 0.05   -0.051508
 C 0.8845 0.877 0.0835   -0.120055
 C 0.8803 0.7798 0.0554   -0.044487
 C 0.8733 0.7453 0.9931   -0.034409
 C 0.8945 0.914 0.1508   0.806107
 C 0.8982 0.6419 0.8546   -0.306992
 C 0.0249 0.6158 0.8481   0.001049
 C 0.0594 0.5209 0.8279   -0.053447
 C 0.9685 0.4499 0.814   -0.086923
 C 0.8414 0.4748 0.8222   -0.063459
 C 0.8042 0.5713 0.8418   -0.019157
 C 0.003 0.3456 0.7872   0.622948
 C 0.6969 0.2191 0.6398   -0.327678
 C 0.6675 0.2055 0.6948   0.029888
 C 0.5418 0.1942 0.7112   -0.075893
 C 0.4462 0.1944 0.6726   -0.06099
 C 0.4692 0.2077 0.6169   -0.094807
 C 0.5945 0.2209 0.602   -0.006272
 C 0.3086 0.1785 0.6885   0.63388
 C 0.8682 0.1897 0.5403   -0.291359
 C 0.8704 0.0929 0.5109   -0.000733
 C 0.878 0.0597 0.45   -0.051508
 C 0.8845 0.123 0.4165   -0.120055
 C 0.8803 0.2202 0.4446   -0.044487
 C 0.8733 0.2547 0.5069   -0.034409
 C 0.8945 0.086 0.3492   0.806107
 C 0.8982 0.3581 0.6454   -0.306992
 C 0.0249 0.3842 0.6519   0.001049
 C 0.0594 0.4791 0.6721   -0.053447
 C 0.9685 0.5501 0.686   -0.086922
 C 0.8414 0.5252 0.6778   -0.063459
 C 0.8042 0.4287 0.6582   -0.019157
 C 0.003 0.6544 0.7128   0.622948
 C 0.3031 0.2191 0.1398   -0.327678
 C 0.3325 0.2055 0.1948   0.029888
 C 0.4582 0.1942 0.2112   -0.075893
 C 0.5538 0.1944 0.1726   -0.06099
 C 0.5308 0.2077 0.1169   -0.094807
 C 0.4055 0.2209 0.102   -0.006272
 C 0.6914 0.1785 0.1885   0.63388
 C 0.1318 0.1897 0.0403   -0.291359
 C 0.1296 0.0929 0.0109   -0.000733
 C 0.122 0.0597 0.95   -0.051508
 C 0.1155 0.123 0.9165   -0.120055
 C 0.1197 0.2202 0.9446   -0.044487
 C 0.1267 0.2547 0.0069   -0.034409
 C 0.1055 0.086 0.8492   0.806107
 C 0.1018 0.3581 0.1454   -0.306992
 C 0.9751 0.3842 0.1519   0.001049
 C 0.9406 0.4791 0.1721   -0.053447
 C 0.0315 0.5501 0.186   -0.086923
 C 0.1586 0.5252 0.1778   -0.063459
 C 0.1958 0.4287 0.1582   -0.019157
 C 0.997 0.6544 0.2128   0.622948
 C 0.3031 0.7809 0.3602   -0.327678
 C 0.3325 0.7945 0.3052   0.029888
 C 0.4582 0.8058 0.2888   -0.075893
 C 0.5538 0.8056 0.3274   -0.06099
 C 0.5308 0.7923 0.3831   -0.094807
 C 0.4055 0.7791 0.398   -0.006272
 C 0.6914 0.8215 0.3115   0.63388
 C 0.1318 0.8103 0.4597   -0.291359
 C 0.1296 0.9071 0.4891   -0.000733
 C 0.122 0.9403 0.55   -0.051508
 C 0.1155 0.877 0.5835   -0.120055
 C 0.1197 0.7798 0.5554   -0.044487
 C 0.1267 0.7453 0.4931   -0.034409
 C 0.1055 0.914 0.6508   0.806107
 C 0.1018 0.6419 0.3546   -0.306992
 C 0.9751 0.6158 0.3481   0.001049
 C 0.9406 0.5209 0.3279   -0.053447
 C 0.0315 0.4499 0.314   -0.086922
 C 0.1586 0.4748 0.3222   -0.063459
 C 0.1958 0.5713 0.3418   -0.019157
 C 0.997 0.3456 0.2872   0.622948
 C 0.8331 0.0 0.75   0.700676
 C 0.1669 0.0 0.25   0.700676
 O 0.9452 0.8263 0.8521   -0.841591
 O 0.2935 0.8454 0.764   -0.606907
 O 0.8775 0.9263 0.7639   -0.670086
 O 0.2185 0.811 0.8432   -0.620044
 O 0.8863 0.0018 0.1753   -0.755986
 O 0.9069 0.8512 0.1774   -0.724131
 O 0.9168 0.2809 0.7786   -0.632062
 O 0.1165 0.3232 0.7715   -0.635736
 O 0.9452 0.1737 0.6479   -0.841591
 O 0.2935 0.1546 0.736   -0.606906
 O 0.8775 0.0737 0.7361   -0.670086
 O 0.2185 0.189 0.6568   -0.620044
 O 0.8863 0.9982 0.3247   -0.755986
 O 0.9069 0.1488 0.3226   -0.724131
 O 0.9168 0.7191 0.7214   -0.632062
 O 0.1165 0.6768 0.7285   -0.635736
 O 0.0548 0.1737 0.1479   -0.841591
 O 0.7065 0.1546 0.236   -0.606907
 O 0.1225 0.0737 0.2361   -0.670086
 O 0.7815 0.189 0.1568   -0.620044
 O 0.1137 0.9982 0.8247   -0.755986
 O 0.0931 0.1488 0.8226   -0.724131
 O 0.0832 0.7191 0.2214   -0.632062
 O 0.8835 0.6768 0.2285   -0.635736
 O 0.0548 0.8263 0.3521   -0.841591
 O 0.7065 0.8454 0.264   -0.606906
 O 0.1225 0.9263 0.2639   -0.670086
 O 0.7815 0.811 0.3432   -0.620044
 O 0.1137 0.0018 0.6753   -0.755986
 O 0.0931 0.8512 0.6774   -0.724131
 O 0.0832 0.2809 0.2786   -0.632062
 O 0.8835 0.3232 0.2715   -0.635736
