{'_ref': 'TBD', '_srcid': 'CAKYAQ_clean', 'submitters': [{'name': 'Dalar Nazarian Jeff Camp and David Sholl', 'email': 'dalar@gatech.edu jcamp6@gatech.edu'}], '_method': 'VASP DFT with PBE;DDEC'}
data_Zn3H68C76(N7O9)2
_symmetry_space_group_name_H-M   'P 1'
_cell_length_a   11.39200000
_cell_length_b   18.74300000
_cell_length_c   24.38600000
_cell_angle_alpha   90.00000000
_cell_angle_beta   90.00000000
_cell_angle_gamma   90.00000000
_symmetry_Int_Tables_number   1
_chemical_formula_structural   Zn3H68C76(N7O9)2
_chemical_formula_sum   'Zn6 H136 C152 N28 O36'
_cell_volume   5206.90496282
_cell_formula_units_Z   2
loop_
 _symmetry_equiv_pos_site_id
 _symmetry_equiv_pos_as_xyz
  1  'x, y, z'
loop_
 _atom_site_label
 _atom_site_fract_x
 _atom_site_fract_y
 _atom_site_fract_z
 _atom_site_charge
 Zn 0.53323 0.29907 0.51798   0.793149
 Zn 0.53323 0.70093 0.48202   0.793149
 Zn 0.46677 0.20093 0.01798   0.793149
 Zn 0.46677 0.79907 0.98202   0.793149
 Zn 0.53791 0.5 0.5   0.966563
 Zn 0.46209 0.0 0.0   0.966563
 H 0.5747 0.4745 0.6449   0.075473
 H 0.3679 0.4052 0.6822   0.133005
 H 0.4051 0.4849 0.6952   0.125586
 H 0.3653 0.4635 0.6352   0.118761
 H 0.9067 0.3902 0.7564   0.098839
 H 0.871 0.2163 0.8537   0.097495
 H 0.6058 0.277 0.7534   0.104856
 H 0.2384 0.4632 0.7749   0.114577
 H 0.1789 0.4722 0.8332   0.104856
 H 0.3165 0.4615 0.8286   0.104714
 H 0.2357 0.3522 0.8554   0.072161
 H 0.3076 0.1917 0.8434   0.127841
 H 0.3301 0.1469 0.7893   0.139977
 H 0.2841 0.1084 0.843   0.119565
 H 0.4869 0.0872 0.8308   0.078865
 H 0.1243 0.2401 0.4504   0.134346
 H 0.3237 0.2519 0.4494   0.08072
 H 0.3235 0.3425 0.5926   0.073554
 H 0.1186 0.3408 0.5961   0.146456
 H 0.9448 0.2682 0.5999   0.13742
 H 0.7397 0.2717 0.5985   0.090888
 H 0.7475 0.3291 0.4438   0.067176
 H 0.9462 0.3186 0.4396   0.142039
 H 0.4938 0.167 0.5871   0.099803
 H 0.503 0.0454 0.5815   0.133822
 H 0.5939 0.0636 0.4247   0.132342
 H 0.5881 0.1857 0.4357   0.087534
 H 0.7458 0.4809 0.5785   0.075067
 H 0.9443 0.4846 0.5815   0.139494
 H 0.1282 0.5585 0.5684   0.135
 H 0.3285 0.5576 0.5671   0.072922
 H 0.5455 0.3778 0.7254   0.295197
 H 0.0819 0.3623 0.7674   0.293706
 H 0.5063 0.2281 0.8143   0.299267
 H 0.5747 0.5255 0.3551   0.075473
 H 0.3679 0.5948 0.3178   0.133005
 H 0.4051 0.5151 0.3048   0.125586
 H 0.3653 0.5365 0.3648   0.118761
 H 0.9067 0.6098 0.2436   0.098839
 H 0.871 0.7837 0.1463   0.097495
 H 0.6058 0.723 0.2466   0.104856
 H 0.2384 0.5368 0.2251   0.114577
 H 0.1789 0.5278 0.1668   0.104856
 H 0.3165 0.5385 0.1714   0.104714
 H 0.2357 0.6478 0.1446   0.072161
 H 0.3076 0.8083 0.1566   0.127841
 H 0.3301 0.8531 0.2107   0.139977
 H 0.2841 0.8916 0.157   0.119565
 H 0.4869 0.9128 0.1692   0.078865
 H 0.1243 0.7599 0.5496   0.134346
 H 0.3237 0.7481 0.5506   0.08072
 H 0.3235 0.6575 0.4074   0.073554
 H 0.1186 0.6592 0.4039   0.146456
 H 0.9448 0.7318 0.4001   0.13742
 H 0.7397 0.7283 0.4015   0.090888
 H 0.7475 0.6709 0.5562   0.067176
 H 0.9462 0.6814 0.5604   0.142039
 H 0.4938 0.833 0.4129   0.099803
 H 0.503 0.9546 0.4185   0.133822
 H 0.5939 0.9364 0.5753   0.132342
 H 0.5881 0.8143 0.5643   0.087534
 H 0.7458 0.5191 0.4215   0.075067
 H 0.9443 0.5154 0.4185   0.139494
 H 0.1282 0.4415 0.4316   0.135
 H 0.3285 0.4424 0.4329   0.072922
 H 0.5455 0.6222 0.2746   0.295197
 H 0.0819 0.6377 0.2326   0.293706
 H 0.5063 0.7719 0.1857   0.299267
 H 0.4253 0.0255 0.1449   0.075473
 H 0.6321 0.0948 0.1822   0.133005
 H 0.5949 0.0151 0.1952   0.125586
 H 0.6347 0.0365 0.1352   0.118761
 H 0.0933 0.1098 0.2564   0.098839
 H 0.129 0.2837 0.3537   0.097495
 H 0.3942 0.223 0.2534   0.104856
 H 0.7616 0.0368 0.2749   0.114577
 H 0.8211 0.0278 0.3332   0.104856
 H 0.6835 0.0385 0.3286   0.104715
 H 0.7643 0.1478 0.3554   0.072161
 H 0.6924 0.3083 0.3434   0.127841
 H 0.6699 0.3531 0.2893   0.139977
 H 0.7159 0.3916 0.343   0.119565
 H 0.5131 0.4128 0.3308   0.078866
 H 0.8757 0.2599 0.9504   0.134346
 H 0.6763 0.2481 0.9494   0.08072
 H 0.6765 0.1575 0.0926   0.073554
 H 0.8814 0.1592 0.0961   0.146456
 H 0.0552 0.2318 0.0999   0.13742
 H 0.2603 0.2283 0.0985   0.090889
 H 0.2525 0.1709 0.9438   0.067175
 H 0.0538 0.1814 0.9396   0.142039
 H 0.5062 0.333 0.0871   0.099803
 H 0.497 0.4546 0.0815   0.133822
 H 0.4061 0.4364 0.9247   0.132343
 H 0.4119 0.3143 0.9357   0.087534
 H 0.2542 0.0191 0.0785   0.075067
 H 0.0557 0.0154 0.0815   0.139494
 H 0.8718 0.9415 0.0684   0.135001
 H 0.6715 0.9424 0.0671   0.072922
 H 0.4545 0.1222 0.2254   0.295197
 H 0.9181 0.1377 0.2674   0.293706
 H 0.4937 0.2719 0.3143   0.299267
 H 0.4253 0.9745 0.8551   0.075473
 H 0.6321 0.9052 0.8178   0.133005
 H 0.5949 0.9849 0.8048   0.125586
 H 0.6347 0.9635 0.8648   0.118761
 H 0.0933 0.8902 0.7436   0.098839
 H 0.129 0.7163 0.6463   0.097495
 H 0.3942 0.777 0.7466   0.104856
 H 0.7616 0.9632 0.7251   0.114577
 H 0.8211 0.9722 0.6668   0.104856
 H 0.6835 0.9615 0.6714   0.104715
 H 0.7643 0.8522 0.6446   0.072161
 H 0.6924 0.6917 0.6566   0.127841
 H 0.6699 0.6469 0.7107   0.139977
 H 0.7159 0.6084 0.657   0.119565
 H 0.5131 0.5872 0.6692   0.078866
 H 0.8757 0.7401 0.0496   0.134346
 H 0.6763 0.7519 0.0506   0.08072
 H 0.6765 0.8425 0.9074   0.073554
 H 0.8814 0.8408 0.9039   0.146456
 H 0.0552 0.7682 0.9001   0.13742
 H 0.2603 0.7717 0.9015   0.090889
 H 0.2525 0.8291 0.0562   0.067175
 H 0.0538 0.8186 0.0604   0.142038
 H 0.5062 0.667 0.9129   0.099803
 H 0.497 0.5454 0.9185   0.133823
 H 0.4061 0.5636 0.0753   0.132343
 H 0.4119 0.6857 0.0643   0.087534
 H 0.2542 0.9809 0.9215   0.075067
 H 0.0557 0.9846 0.9185   0.139494
 H 0.8718 0.0585 0.9316   0.135
 H 0.6715 0.0576 0.9329   0.072922
 H 0.4545 0.8778 0.7746   0.295197
 H 0.9181 0.8623 0.7326   0.293706
 H 0.4937 0.7281 0.6857   0.299267
 C 0.535 0.3813 0.603   0.612911
 C 0.5321 0.4298 0.6533   0.080473
 C 0.4063 0.4474 0.6678   -0.356309
 C 0.706 0.3863 0.7024   0.531038
 C 0.7507 0.3396 0.7469   -0.100905
 C 0.8619 0.3511 0.7685   -0.047643
 C 0.9067 0.3058 0.8073   -0.120402
 C 0.8398 0.2477 0.8274   -0.016904
 C 0.7271 0.2384 0.8073   -0.117217
 C 0.6822 0.2839 0.767   -0.035167
 C 0.0288 0.3174 0.8316   0.539395
 C 0.2412 0.4485 0.813   -0.351578
 C 0.2247 0.367 0.8167   0.07137
 C 0.3178 0.3299 0.7815   0.627725
 C 0.6533 0.1801 0.8302   0.522935
 C 0.334 0.1462 0.8291   -0.351472
 C 0.4603 0.1329 0.847   0.060463
 C 0.4637 0.1258 0.9096   0.634551
 C 0.1623 0.2636 0.4795   -0.190801
 C 0.2824 0.2686 0.4801   0.164507
 C 0.2823 0.3222 0.563   0.183025
 C 0.1586 0.322 0.5657   -0.210541
 C 0.0977 0.2926 0.5211   0.104348
 C 0.9679 0.2944 0.5222   0.098609
 C 0.9057 0.2801 0.5672   -0.198126
 C 0.7818 0.2826 0.5664   0.171487
 C 0.7879 0.3149 0.4756   0.160644
 C 0.9061 0.3109 0.4727   -0.172368
 C 0.5151 0.1461 0.5535   0.159866
 C 0.5199 0.0727 0.5502   -0.19884
 C 0.5486 0.0389 0.5027   0.10289
 C 0.5737 0.0831 0.4589   -0.187471
 C 0.5688 0.1566 0.4657   0.166634
 C 0.7873 0.4894 0.5458   0.189476
 C 0.906 0.4904 0.5477   -0.206803
 C 0.1674 0.5342 0.54   -0.204925
 C 0.2878 0.5335 0.5391   0.182249
 C 0.535 0.6187 0.397   0.612911
 C 0.5321 0.5702 0.3467   0.080473
 C 0.4063 0.5526 0.3322   -0.356309
 C 0.706 0.6137 0.2976   0.531038
 C 0.7507 0.6604 0.2531   -0.100905
 C 0.8619 0.6489 0.2315   -0.047643
 C 0.9067 0.6942 0.1927   -0.120402
 C 0.8398 0.7523 0.1726   -0.016904
 C 0.7271 0.7616 0.1927   -0.117217
 C 0.6822 0.7161 0.233   -0.035167
 C 0.0288 0.6826 0.1684   0.539395
 C 0.2412 0.5515 0.187   -0.351578
 C 0.2247 0.633 0.1833   0.07137
 C 0.3178 0.6701 0.2185   0.627725
 C 0.6533 0.8199 0.1698   0.522935
 C 0.334 0.8538 0.1709   -0.351472
 C 0.4603 0.8671 0.153   0.060463
 C 0.4637 0.8742 0.0904   0.634551
 C 0.1623 0.7364 0.5205   -0.190801
 C 0.2824 0.7314 0.5199   0.164507
 C 0.2823 0.6778 0.437   0.183025
 C 0.1586 0.678 0.4343   -0.210541
 C 0.0977 0.7074 0.4789   0.104348
 C 0.9679 0.7056 0.4778   0.098609
 C 0.9057 0.7199 0.4328   -0.198126
 C 0.7818 0.7174 0.4336   0.171487
 C 0.7879 0.6851 0.5244   0.160644
 C 0.9061 0.6891 0.5273   -0.172368
 C 0.5151 0.8539 0.4465   0.159866
 C 0.5199 0.9273 0.4498   -0.198841
 C 0.5486 0.9611 0.4973   0.10289
 C 0.5737 0.9169 0.5411   -0.187471
 C 0.5688 0.8434 0.5343   0.166634
 C 0.7873 0.5106 0.4542   0.189476
 C 0.906 0.5096 0.4523   -0.206803
 C 0.1674 0.4658 0.46   -0.204925
 C 0.2878 0.4665 0.4609   0.182249
 C 0.465 0.1187 0.103   0.612911
 C 0.4679 0.0702 0.1533   0.080473
 C 0.5937 0.0526 0.1678   -0.356309
 C 0.294 0.1137 0.2024   0.531038
 C 0.2493 0.1604 0.2469   -0.100905
 C 0.1381 0.1489 0.2685   -0.047643
 C 0.0933 0.1942 0.3073   -0.120402
 C 0.1602 0.2523 0.3274   -0.016904
 C 0.2729 0.2616 0.3073   -0.117217
 C 0.3178 0.2161 0.267   -0.035167
 C 0.9712 0.1826 0.3316   0.539395
 C 0.7588 0.0515 0.313   -0.351578
 C 0.7753 0.133 0.3167   0.07137
 C 0.6822 0.1701 0.2815   0.627725
 C 0.3467 0.3199 0.3302   0.522935
 C 0.666 0.3538 0.3291   -0.351472
 C 0.5397 0.3671 0.347   0.060463
 C 0.5363 0.3742 0.4096   0.634551
 C 0.8377 0.2364 0.9795   -0.190801
 C 0.7176 0.2314 0.9801   0.164507
 C 0.7177 0.1778 0.063   0.183025
 C 0.8414 0.178 0.0657   -0.210541
 C 0.9023 0.2074 0.0211   0.104348
 C 0.0321 0.2056 0.0222   0.098609
 C 0.0943 0.2199 0.0672   -0.198126
 C 0.2182 0.2174 0.0664   0.171487
 C 0.2121 0.1851 0.9756   0.160644
 C 0.0939 0.1891 0.9727   -0.172368
 C 0.4849 0.3539 0.0535   0.159866
 C 0.4801 0.4273 0.0502   -0.19884
 C 0.4514 0.4611 0.0027   0.10289
 C 0.4263 0.4169 0.9589   -0.187471
 C 0.4312 0.3434 0.9657   0.166634
 C 0.2127 0.0106 0.0458   0.189476
 C 0.094 0.0096 0.0477   -0.206803
 C 0.8326 0.9658 0.04   -0.204925
 C 0.7122 0.9665 0.0391   0.182249
 C 0.465 0.8813 0.897   0.612911
 C 0.4679 0.9298 0.8467   0.080473
 C 0.5937 0.9474 0.8322   -0.356309
 C 0.294 0.8863 0.7976   0.531038
 C 0.2493 0.8396 0.7531   -0.100905
 C 0.1381 0.8511 0.7315   -0.047643
 C 0.0933 0.8058 0.6927   -0.120402
 C 0.1602 0.7477 0.6726   -0.016904
 C 0.2729 0.7384 0.6927   -0.117217
 C 0.3178 0.7839 0.733   -0.035167
 C 0.9712 0.8174 0.6684   0.539395
 C 0.7588 0.9485 0.687   -0.351578
 C 0.7753 0.867 0.6833   0.07137
 C 0.6822 0.8299 0.7185   0.627725
 C 0.3467 0.6801 0.6698   0.522935
 C 0.666 0.6462 0.6709   -0.351472
 C 0.5397 0.6329 0.653   0.060463
 C 0.5363 0.6258 0.5904   0.634551
 C 0.8377 0.7636 0.0205   -0.190801
 C 0.7176 0.7686 0.0199   0.164507
 C 0.7177 0.8222 0.937   0.183025
 C 0.8414 0.822 0.9343   -0.210541
 C 0.9023 0.7926 0.9789   0.104348
 C 0.0321 0.7944 0.9778   0.098609
 C 0.0943 0.7801 0.9328   -0.198126
 C 0.2182 0.7826 0.9336   0.171487
 C 0.2121 0.8149 0.0244   0.160644
 C 0.0939 0.8109 0.0273   -0.172368
 C 0.4849 0.6461 0.9465   0.159866
 C 0.4801 0.5727 0.9498   -0.198841
 C 0.4514 0.5389 0.9973   0.10289
 C 0.4263 0.5831 0.0411   -0.187471
 C 0.4312 0.6566 0.0343   0.166634
 C 0.2127 0.9894 0.9542   0.189476
 C 0.094 0.9904 0.9523   -0.206803
 C 0.8326 0.0342 0.96   -0.204925
 C 0.7122 0.0335 0.9609   0.182249
 C 0.9723 0.5 0.5   0.089798
 C 0.1024 0.5 0.5   0.094452
 C 0.0277 0.0 0.0   0.089798
 C 0.8976 0.0 0.0   0.094452
 N 0.589 0.3945 0.699   -0.422326
 N 0.1043 0.3499 0.8002   -0.40753
 N 0.5359 0.189 0.8276   -0.416349
 N 0.3445 0.2958 0.5218   -0.32413
 N 0.7229 0.3001 0.5206   -0.323628
 N 0.5385 0.1878 0.5122   -0.302503
 N 0.589 0.6055 0.301   -0.422326
 N 0.1043 0.6501 0.1998   -0.40753
 N 0.5359 0.811 0.1724   -0.416349
 N 0.3445 0.7042 0.4782   -0.32413
 N 0.7229 0.6999 0.4794   -0.323628
 N 0.5385 0.8122 0.4878   -0.302503
 N 0.411 0.1055 0.199   -0.422326
 N 0.8957 0.1501 0.3002   -0.40753
 N 0.4641 0.311 0.3276   -0.416349
 N 0.6555 0.2042 0.0218   -0.32413
 N 0.2771 0.1999 0.0206   -0.323628
 N 0.4615 0.3122 0.0122   -0.302503
 N 0.411 0.8945 0.801   -0.422326
 N 0.8957 0.8499 0.6998   -0.40753
 N 0.4641 0.689 0.6724   -0.416349
 N 0.6555 0.7958 0.9782   -0.32413
 N 0.2771 0.8001 0.9794   -0.323628
 N 0.4615 0.6878 0.9878   -0.302503
 N 0.727 0.5 0.5   -0.344913
 N 0.3504 0.5 0.5   -0.337266
 N 0.273 0.0 0.0   -0.344913
 N 0.6496 0.0 0.0   -0.337266
 O 0.533 0.4083 0.55456   -0.614124
 O 0.5363 0.3146 0.60777   -0.556516
 O 0.773 0.4142 0.6686   -0.559675
 O 0.2839 0.2945 0.7405   -0.686578
 O 0.4217 0.335 0.7957   -0.674598
 O 0.0521 0.2967 0.8775   -0.57433
 O 0.4749 0.182 0.93663   -0.573878
 O 0.454 0.0641 0.92958   -0.596733
 O 0.6969 0.1266 0.8516   -0.545016
 O 0.533 0.5917 0.44544   -0.614124
 O 0.5363 0.6854 0.39223   -0.556516
 O 0.773 0.5858 0.3314   -0.559675
 O 0.2839 0.7055 0.2595   -0.686578
 O 0.4217 0.665 0.2043   -0.674598
 O 0.0521 0.7033 0.1225   -0.57433
 O 0.4749 0.818 0.06337   -0.573878
 O 0.454 0.9359 0.07042   -0.596733
 O 0.6969 0.8734 0.1484   -0.545016
 O 0.467 0.0917 0.05456   -0.614124
 O 0.4637 0.1854 0.10777   -0.556516
 O 0.227 0.0858 0.1686   -0.559675
 O 0.7161 0.2055 0.2405   -0.686578
 O 0.5783 0.165 0.2957   -0.674598
 O 0.9479 0.2033 0.3775   -0.57433
 O 0.5251 0.318 0.43663   -0.573878
 O 0.546 0.4359 0.42958   -0.596733
 O 0.3031 0.3734 0.3516   -0.545016
 O 0.467 0.9083 0.94544   -0.614124
 O 0.4637 0.8146 0.89223   -0.556516
 O 0.227 0.9142 0.8314   -0.559675
 O 0.7161 0.7945 0.7595   -0.686578
 O 0.5783 0.835 0.7043   -0.674598
 O 0.9479 0.7967 0.6225   -0.57433
 O 0.5251 0.682 0.56337   -0.573878
 O 0.546 0.5641 0.57042   -0.596733
 O 0.3031 0.6266 0.6484   -0.545016
