{'_ref': 'TBD', '_srcid': 'CAKYAQ_clean', 'submitters': [{'name': 'Dalar Nazarian Jeff Camp and David Sholl', 'email': 'dalar@gatech.edu jcamp6@gatech.edu'}], '_method': 'VASP DFT with PBE;DDEC'}
data_Sm2Cu3H24(C4O5)6
_symmetry_space_group_name_H-M   'P 1'
_cell_length_a   14.86500000
_cell_length_b   14.98300032
_cell_length_c   14.98300000
_cell_angle_alpha   119.99999928
_cell_angle_beta   90.00000000
_cell_angle_gamma   90.00000000
_symmetry_Int_Tables_number   1
_chemical_formula_structural   Sm2Cu3H24(C4O5)6
_chemical_formula_sum   'Sm4 Cu6 H48 C48 O60'
_cell_volume   2889.96855162
_cell_formula_units_Z   2
loop_
 _symmetry_equiv_pos_site_id
 _symmetry_equiv_pos_as_xyz
  1  'x, y, z'
loop_
 _atom_site_label
 _atom_site_fract_x
 _atom_site_fract_y
 _atom_site_fract_z
 _atom_site_charge
 Sm 0.75 0.33333 0.66666   2.22122
 Sm 0.75 0.66667 0.33334   2.22122
 Sm 0.25 0.66667 0.33334   2.221223
 Sm 0.25 0.33333 0.66666   2.221223
 Cu 0.0 0.5 0.5   1.05238
 Cu 0.0 0.0 0.5   1.052386
 Cu 0.0 0.5 0.0   1.052388
 Cu 0.5 0.0 0.5   1.05238
 Cu 0.5 0.5 0.5   1.052386
 Cu 0.5 0.5 0.0   1.052388
 H 0.8391 0.6326 0.7905   0.096621
 H 0.7627 0.6242 0.7141   0.083095
 H 0.8391 0.1579 0.3674   0.096627
 H 0.7627 0.0899 0.3758   0.083105
 H 0.8391 0.2095 0.8421   0.096614
 H 0.7627 0.2859 0.9101   0.083096
 H 0.8391 0.3674 0.2095   0.09662
 H 0.7627 0.3758 0.2859   0.083095
 H 0.8391 0.8421 0.6326   0.096627
 H 0.7627 0.9101 0.6242   0.083105
 H 0.8391 0.7905 0.1579   0.096614
 H 0.7627 0.7141 0.0899   0.083096
 H 0.6609 0.8421 0.2095   0.09662
 H 0.7373 0.9101 0.2859   0.083094
 H 0.6609 0.7905 0.6326   0.096627
 H 0.7373 0.7141 0.6242   0.083104
 H 0.6609 0.3674 0.1579   0.096614
 H 0.7373 0.3758 0.0899   0.083095
 H 0.6609 0.1579 0.7905   0.09662
 H 0.7373 0.0899 0.7141   0.083094
 H 0.6609 0.2095 0.3674   0.096627
 H 0.7373 0.2859 0.3758   0.083104
 H 0.6609 0.6326 0.8421   0.096614
 H 0.7373 0.6242 0.9101   0.083095
 H 0.1609 0.3674 0.2095   0.096622
 H 0.2373 0.3758 0.2859   0.083095
 H 0.1609 0.8421 0.6326   0.096629
 H 0.2373 0.9101 0.6242   0.083105
 H 0.1609 0.7905 0.1579   0.096616
 H 0.2373 0.7141 0.0899   0.083096
 H 0.1609 0.6326 0.7905   0.096622
 H 0.2373 0.6242 0.7141   0.083095
 H 0.1609 0.1579 0.3674   0.096629
 H 0.2373 0.0899 0.3758   0.083105
 H 0.1609 0.2095 0.8421   0.096615
 H 0.2373 0.2859 0.9101   0.083096
 H 0.3391 0.1579 0.7905   0.096622
 H 0.2627 0.0899 0.7141   0.083094
 H 0.3391 0.2095 0.3674   0.096629
 H 0.2627 0.2859 0.3758   0.083104
 H 0.3391 0.6326 0.8421   0.096615
 H 0.2627 0.6242 0.9101   0.083095
 H 0.3391 0.8421 0.2095   0.096622
 H 0.2627 0.9101 0.2859   0.083094
 H 0.3391 0.7905 0.6326   0.096629
 H 0.2627 0.7141 0.6242   0.083104
 H 0.3391 0.3674 0.1579   0.096615
 H 0.2627 0.3758 0.0899   0.083095
 C 0.86 0.514 0.6435   0.723329
 C 0.8017 0.5847 0.7335   -0.049697
 C 0.86 0.1295 0.486   0.723317
 C 0.8017 0.1488 0.4153   -0.049716
 C 0.86 0.3565 0.8705   0.723319
 C 0.8017 0.2665 0.8512   -0.049687
 C 0.86 0.486 0.3565   0.723329
 C 0.8017 0.4153 0.2665   -0.049697
 C 0.86 0.8705 0.514   0.723317
 C 0.8017 0.8512 0.5847   -0.049715
 C 0.86 0.6435 0.1295   0.723319
 C 0.8017 0.7335 0.1488   -0.049687
 C 0.64 0.8705 0.3565   0.723328
 C 0.6983 0.8512 0.2665   -0.049697
 C 0.64 0.6435 0.514   0.723317
 C 0.6983 0.7335 0.5847   -0.049715
 C 0.64 0.486 0.1295   0.723318
 C 0.6983 0.4153 0.1488   -0.049687
 C 0.64 0.1295 0.6435   0.723328
 C 0.6983 0.1488 0.7335   -0.049696
 C 0.64 0.3565 0.486   0.723317
 C 0.6983 0.2665 0.4153   -0.049715
 C 0.64 0.514 0.8705   0.723318
 C 0.6983 0.5847 0.8512   -0.049687
 C 0.14 0.486 0.3565   0.723329
 C 0.1983 0.4153 0.2665   -0.049698
 C 0.14 0.8705 0.514   0.723318
 C 0.1983 0.8512 0.5847   -0.049716
 C 0.14 0.6435 0.1295   0.723319
 C 0.1983 0.7335 0.1488   -0.049688
 C 0.14 0.514 0.6435   0.723329
 C 0.1983 0.5847 0.7335   -0.049698
 C 0.14 0.1295 0.486   0.723318
 C 0.1983 0.1488 0.4153   -0.049716
 C 0.14 0.3565 0.8705   0.723319
 C 0.1983 0.2665 0.8512   -0.049688
 C 0.36 0.1295 0.6435   0.723329
 C 0.3017 0.1488 0.7335   -0.049697
 C 0.36 0.3565 0.486   0.723318
 C 0.3017 0.2665 0.4153   -0.049716
 C 0.36 0.514 0.8705   0.723319
 C 0.3017 0.5847 0.8512   -0.049688
 C 0.36 0.8705 0.3565   0.723329
 C 0.3017 0.8512 0.2665   -0.049697
 C 0.36 0.6435 0.514   0.723317
 C 0.3017 0.7335 0.5847   -0.049716
 C 0.36 0.486 0.1295   0.723319
 C 0.3017 0.4153 0.1488   -0.049688
 O 0.9076 0.5568 0.6074   -0.614267
 O 0.8573 0.4196 0.6132   -0.701962
 O 0.9076 0.0506 0.4432   -0.614258
 O 0.8573 0.1936 0.5804   -0.701948
 O 0.9076 0.3926 0.9494   -0.614269
 O 0.8573 0.3868 0.8064   -0.701945
 O 0.9076 0.4432 0.3926   -0.614267
 O 0.8573 0.5804 0.3868   -0.701962
 O 0.9076 0.9494 0.5568   -0.614258
 O 0.8573 0.8064 0.4196   -0.701948
 O 0.9076 0.6074 0.0506   -0.614269
 O 0.8573 0.6132 0.1936   -0.701945
 O 0.5924 0.9494 0.3926   -0.614267
 O 0.6427 0.8064 0.3868   -0.701962
 O 0.5924 0.6074 0.5568   -0.614258
 O 0.6427 0.6132 0.4196   -0.701948
 O 0.5924 0.4432 0.0506   -0.614268
 O 0.6427 0.5804 0.1936   -0.701945
 O 0.5924 0.0506 0.6074   -0.614267
 O 0.6427 0.1936 0.6132   -0.701962
 O 0.5924 0.3926 0.4432   -0.614258
 O 0.6427 0.3868 0.5804   -0.701948
 O 0.5924 0.5568 0.9494   -0.614269
 O 0.6427 0.4196 0.8064   -0.701945
 O 0.0924 0.4432 0.3926   -0.614267
 O 0.1427 0.5804 0.3868   -0.701962
 O 0.0924 0.9494 0.5568   -0.614258
 O 0.1427 0.8064 0.4196   -0.701948
 O 0.0924 0.6074 0.0506   -0.614269
 O 0.1427 0.6132 0.1936   -0.701945
 O 0.0924 0.5568 0.6074   -0.614267
 O 0.1427 0.4196 0.6132   -0.701962
 O 0.0924 0.0506 0.4432   -0.614258
 O 0.1427 0.1936 0.5804   -0.701948
 O 0.0924 0.3926 0.9494   -0.614269
 O 0.1427 0.3868 0.8064   -0.701945
 O 0.4076 0.0506 0.6074   -0.614267
 O 0.3573 0.1936 0.6132   -0.701962
 O 0.4076 0.3926 0.4432   -0.614258
 O 0.3573 0.3868 0.5804   -0.701948
 O 0.4076 0.5568 0.9494   -0.614268
 O 0.3573 0.4196 0.8064   -0.701945
 O 0.4076 0.9494 0.3926   -0.614267
 O 0.3573 0.8064 0.3868   -0.701962
 O 0.4076 0.6074 0.5568   -0.614258
 O 0.3573 0.6132 0.4196   -0.701948
 O 0.4076 0.4432 0.0506   -0.614269
 O 0.3573 0.5804 0.1936   -0.701945
 O 0.75 0.5271 0.76355   -0.34086
 O 0.75 0.23645 0.4729   -0.340828
 O 0.75 0.23645 0.76355   -0.34086
 O 0.75 0.4729 0.23645   -0.34086
 O 0.75 0.76355 0.5271   -0.340828
 O 0.75 0.76355 0.23645   -0.34086
 O 0.25 0.4729 0.23645   -0.34086
 O 0.25 0.76355 0.5271   -0.340828
 O 0.25 0.76355 0.23645   -0.340859
 O 0.25 0.5271 0.76355   -0.34086
 O 0.25 0.23645 0.4729   -0.340828
 O 0.25 0.23645 0.76355   -0.340859
