{'_ref': 'TBD', '_srcid': 'CAKYAQ_clean', 'submitters': [{'name': 'Dalar Nazarian Jeff Camp and David Sholl', 'email': 'dalar@gatech.edu jcamp6@gatech.edu'}], '_method': 'VASP DFT with PBE;DDEC'}
data_SiCu4H12(C2O)16
_symmetry_space_group_name_H-M   'P 1'
_cell_length_a   9.10500000
_cell_length_b   17.49200000
_cell_length_c   17.49200000
_cell_angle_alpha   90.00000000
_cell_angle_beta   90.00000000
_cell_angle_gamma   90.00000000
_symmetry_Int_Tables_number   1
_chemical_formula_structural   SiCu4H12(C2O)16
_chemical_formula_sum   'Si2 Cu8 H24 C64 O32'
_cell_volume   2785.85743272
_cell_formula_units_Z   2
loop_
 _symmetry_equiv_pos_site_id
 _symmetry_equiv_pos_as_xyz
  1  'x, y, z'
loop_
 _atom_site_label
 _atom_site_fract_x
 _atom_site_fract_y
 _atom_site_fract_z
 _atom_site_charge
 Cu 0.41513 0.95628 0.54372   0.899911
 Cu 0.41513 0.54372 0.95628   0.899911
 Cu 0.41513 0.95628 0.95628   0.899913
 Cu 0.41513 0.54372 0.54372   0.899913
 Cu 0.58487 0.04372 0.04372   0.899911
 Cu 0.58487 0.45628 0.45628   0.899911
 Cu 0.58487 0.04372 0.45628   0.899913
 Cu 0.58487 0.45628 0.04372   0.899913
 Si 0.0 0.75 0.25   0.92454
 Si 0.0 0.25 0.75   0.92454
 H 0.8601 0.8648 0.3483   0.085368
 H 0.8601 0.6352 0.1517   0.085368
 H 0.8601 0.1517 0.8648   0.085368
 H 0.8601 0.3483 0.6352   0.085368
 H 0.1399 0.1352 0.8483   0.085368
 H 0.1399 0.3648 0.6517   0.085368
 H 0.1399 0.8483 0.3648   0.085368
 H 0.1399 0.6517 0.1352   0.085368
 H 0.1399 0.1352 0.6517   0.08537
 H 0.1399 0.3648 0.8483   0.08537
 H 0.1399 0.8483 0.1352   0.08537
 H 0.1399 0.6517 0.3648   0.08537
 H 0.8601 0.8648 0.1517   0.08537
 H 0.8601 0.6352 0.3483   0.08537
 H 0.8601 0.1517 0.6352   0.08537
 H 0.8601 0.3483 0.8648   0.08537
 H 0.6104 0.75 0.4978   0.111343
 H 0.6104 0.75 0.0022   0.111343
 H 0.6104 0.0022 0.75   0.111342
 H 0.6104 0.4978 0.75   0.111342
 H 0.3896 0.25 0.9978   0.111343
 H 0.3896 0.25 0.5022   0.111343
 H 0.3896 0.9978 0.25   0.111342
 H 0.3896 0.5022 0.25   0.111342
 C 0.8269 0.81855 0.3681   0.079323
 C 0.7252 0.8187 0.4277   -0.15849
 C 0.6588 0.8905 0.4584   0.687219
 C 0.8269 0.68145 0.1319   0.079323
 C 0.7252 0.6813 0.0723   -0.15849
 C 0.6588 0.6095 0.0416   0.687219
 C 0.8269 0.1319 0.81855   0.079323
 C 0.7252 0.0723 0.8187   -0.15849
 C 0.6588 0.0416 0.8905   0.687219
 C 0.8269 0.3681 0.68145   0.079323
 C 0.7252 0.4277 0.6813   -0.15849
 C 0.6588 0.4584 0.6095   0.687219
 C 0.1731 0.18145 0.8681   0.079323
 C 0.2748 0.1813 0.9277   -0.158489
 C 0.3412 0.1095 0.9584   0.687219
 C 0.1731 0.31855 0.6319   0.079323
 C 0.2748 0.3187 0.5723   -0.158489
 C 0.3412 0.3905 0.5416   0.687219
 C 0.1731 0.8681 0.31855   0.079323
 C 0.2748 0.9277 0.3187   -0.158489
 C 0.3412 0.9584 0.3905   0.687219
 C 0.1731 0.6319 0.18145   0.079323
 C 0.2748 0.5723 0.1813   -0.158489
 C 0.3412 0.5416 0.1095   0.687219
 C 0.1731 0.18145 0.6319   0.079324
 C 0.2748 0.1813 0.5723   -0.15849
 C 0.3412 0.1095 0.5416   0.68722
 C 0.1731 0.31855 0.8681   0.079324
 C 0.2748 0.3187 0.9277   -0.15849
 C 0.3412 0.3905 0.9584   0.68722
 C 0.1731 0.8681 0.18145   0.079324
 C 0.2748 0.9277 0.1813   -0.15849
 C 0.3412 0.9584 0.1095   0.68722
 C 0.1731 0.6319 0.31855   0.079324
 C 0.2748 0.5723 0.3187   -0.15849
 C 0.3412 0.5416 0.3905   0.68722
 C 0.8269 0.81855 0.1319   0.079324
 C 0.7252 0.8187 0.0723   -0.158489
 C 0.6588 0.8905 0.0416   0.68722
 C 0.8269 0.68145 0.3681   0.079324
 C 0.7252 0.6813 0.4277   -0.158489
 C 0.6588 0.6095 0.4584   0.68722
 C 0.8269 0.1319 0.68145   0.079324
 C 0.7252 0.0723 0.6813   -0.158489
 C 0.6588 0.0416 0.6095   0.68722
 C 0.8269 0.3681 0.81855   0.079324
 C 0.7252 0.4277 0.8187   -0.158489
 C 0.6588 0.4584 0.8905   0.68722
 C 0.8795 0.75 0.3375   -0.406583
 C 0.6767 0.75 0.4573   0.029824
 C 0.8795 0.75 0.1625   -0.406582
 C 0.6767 0.75 0.0427   0.029824
 C 0.8795 0.1625 0.75   -0.406583
 C 0.6767 0.0427 0.75   0.029824
 C 0.8795 0.3375 0.75   -0.406582
 C 0.6767 0.4573 0.75   0.029824
 C 0.1205 0.25 0.8375   -0.406583
 C 0.3233 0.25 0.9573   0.029824
 C 0.1205 0.25 0.6625   -0.406582
 C 0.3233 0.25 0.5427   0.029824
 C 0.1205 0.8375 0.25   -0.406583
 C 0.3233 0.9573 0.25   0.029824
 C 0.1205 0.6625 0.25   -0.406582
 C 0.3233 0.5427 0.25   0.029824
 O 0.5589 0.8822 0.50621   -0.573639
 O 0.7045 0.953 0.4325   -0.552599
 O 0.5589 0.6178 0.99379   -0.573639
 O 0.7045 0.547 0.0675   -0.552599
 O 0.5589 0.99379 0.8822   -0.573639
 O 0.7045 0.0675 0.953   -0.552599
 O 0.5589 0.50621 0.6178   -0.573639
 O 0.7045 0.4325 0.547   -0.552599
 O 0.4411 0.1178 0.00621   -0.573639
 O 0.2955 0.047 0.9325   -0.552599
 O 0.4411 0.3822 0.49379   -0.573639
 O 0.2955 0.453 0.5675   -0.552599
 O 0.4411 0.00621 0.3822   -0.573639
 O 0.2955 0.9325 0.453   -0.552599
 O 0.4411 0.49379 0.1178   -0.573639
 O 0.2955 0.5675 0.047   -0.552599
 O 0.4411 0.1178 0.49379   -0.573639
 O 0.2955 0.047 0.5675   -0.552599
 O 0.4411 0.3822 0.00621   -0.573639
 O 0.2955 0.453 0.9325   -0.552599
 O 0.4411 0.00621 0.1178   -0.573639
 O 0.2955 0.9325 0.047   -0.552599
 O 0.4411 0.49379 0.3822   -0.573639
 O 0.2955 0.5675 0.453   -0.552599
 O 0.5589 0.8822 0.99379   -0.573639
 O 0.7045 0.953 0.0675   -0.552599
 O 0.5589 0.6178 0.50621   -0.573639
 O 0.7045 0.547 0.4325   -0.552599
 O 0.5589 0.99379 0.6178   -0.573639
 O 0.7045 0.0675 0.547   -0.552599
 O 0.5589 0.50621 0.8822   -0.573639
 O 0.7045 0.4325 0.953   -0.552599
