{'_ref': 'TBD', '_srcid': 'CAKYAQ_clean', 'submitters': [{'name': 'Dalar Nazarian Jeff Camp and David Sholl', 'email': 'dalar@gatech.edu jcamp6@gatech.edu'}], '_method': 'VASP DFT with PBE;DDEC'}
data_NiH24C32O9
_symmetry_space_group_name_H-M   'P 1'
_cell_length_a   7.94800040
_cell_length_b   13.40999986
_cell_length_c   19.50000000
_cell_angle_alpha   110.11099954
_cell_angle_beta   99.34519630
_cell_angle_gamma   89.99999978
_symmetry_Int_Tables_number   1
_chemical_formula_structural   NiH24C32O9
_chemical_formula_sum   'Ni2 H48 C64 O18'
_cell_volume   1922.23921359
_cell_formula_units_Z   2
loop_
 _symmetry_equiv_pos_site_id
 _symmetry_equiv_pos_as_xyz
  1  'x, y, z'
loop_
 _atom_site_label
 _atom_site_fract_x
 _atom_site_fract_y
 _atom_site_fract_z
 _atom_site_charge
 Ni 0.0 0.0 0.0   0.852135
 Ni 0.5 0.0 0.0   0.852
 H 0.0485 0.1098 0.7544   0.094156
 H 0.8986 0.0932 0.6392   0.090695
 H 0.51 0.9418 0.677   0.107585
 H 0.6604 0.958 0.7924   0.112501
 H 0.6444 0.2105 0.6572   0.113016
 H 0.6556 0.8136 0.5728   0.112709
 H 0.7572 0.6568 0.5696   0.057475
 H 0.5775 0.6597 0.5934   0.06858
 H 0.6553 0.5503 0.5576   0.086264
 H 0.3561 0.6138 0.2582   0.075574
 H 0.2557 0.5178 0.2648   0.101869
 H 0.1968 0.6336 0.2982   0.067227
 H 0.4515 0.3554 0.2456   0.0945
 H 0.6014 0.454 0.3608   0.091494
 H 0.99 0.2648 0.323   0.107108
 H 0.8396 0.1656 0.2076   0.112138
 H 0.8556 0.5533 0.3428   0.113304
 H 0.8444 0.2408 0.4272   0.112541
 H 0.7428 0.0872 0.4304   0.05766
 H 0.9225 0.0663 0.4066   0.06838
 H 0.8447 0.9927 0.4424   0.086365
 H 0.1439 0.3556 0.7418   0.075097
 H 0.2443 0.253 0.7352   0.102233
 H 0.3032 0.3354 0.7018   0.067483
 H 0.9515 0.8902 0.2456   0.094156
 H 0.1014 0.9068 0.3608   0.090695
 H 0.49 0.0582 0.323   0.107585
 H 0.3396 0.042 0.2076   0.112501
 H 0.3556 0.7895 0.3428   0.113013
 H 0.3444 0.1864 0.4272   0.112709
 H 0.2428 0.3432 0.4304   0.057476
 H 0.4225 0.3403 0.4066   0.06858
 H 0.3447 0.4497 0.4424   0.086264
 H 0.6439 0.3862 0.7418   0.075575
 H 0.7443 0.4822 0.7352   0.101869
 H 0.8032 0.3664 0.7018   0.067227
 H 0.5485 0.6446 0.7544   0.0945
 H 0.3986 0.546 0.6392   0.091494
 H 0.01 0.7352 0.677   0.107108
 H 0.1604 0.8344 0.7924   0.112138
 H 0.1444 0.4467 0.6572   0.113302
 H 0.1556 0.7592 0.5728   0.11254
 H 0.2572 0.9128 0.5696   0.05766
 H 0.0775 0.9337 0.5934   0.06838
 H 0.1553 0.0073 0.5576   0.086365
 H 0.8561 0.6444 0.2582   0.075097
 H 0.7557 0.747 0.2648   0.102233
 H 0.6968 0.6646 0.2982   0.067484
 C 0.9692 0.04939 0.86098   0.6387
 C 0.8701 0.03689 0.78598   -0.117191
 C 0.9396 0.07617 0.73914   -0.042208
 C 0.8494 0.06618 0.66976   -0.145345
 C 0.6867 0.01635 0.6455   0.075939
 C 0.6185 0.9761 0.6924   -0.155292
 C 0.7086 0.98579 0.76198   -0.02809
 C 0.5891 0.20448 0.60996   -0.246535
 C 0.5442 0.10098 0.55596   0.031894
 C 0.5906 0.00785 0.5707   -0.017116
 C 0.547 0.9073 0.5154   0.025875
 C 0.5898 0.80995 0.5279   -0.255215
 C 0.6455 0.62163 0.55746   8.4e-05
 C 0.5378 0.71354 0.47668   0.186504
 C 0.4459 0.7064 0.405   0.176436
 C 0.2938 0.59139 0.28918   -0.011051
 C 0.5308 0.18841 0.13902   0.638776
 C 0.6299 0.25091 0.21402   -0.117075
 C 0.5604 0.33703 0.26086   -0.043646
 C 0.6506 0.39642 0.33024   -0.145457
 C 0.8133 0.37085 0.3545   0.075696
 C 0.8815 0.2837 0.3076   -0.154937
 C 0.7914 0.22381 0.23802   -0.027124
 C 0.9109 0.59452 0.39004   -0.247179
 C 0.9558 0.54502 0.44404   0.032655
 C 0.9094 0.43715 0.4293   -0.017692
 C 0.953 0.3919 0.4846   0.025323
 C 0.9102 0.28205 0.4721   -0.253677
 C 0.8545 0.06417 0.44254   -0.000212
 C 0.9622 0.23686 0.52332   0.185264
 C 0.0541 0.3014 0.595   0.177116
 C 0.2062 0.30221 0.71082   -0.01112
 C 0.0308 0.95061 0.13902   0.6387
 C 0.1299 0.96311 0.21402   -0.117191
 C 0.0604 0.92383 0.26086   -0.042208
 C 0.1506 0.93382 0.33024   -0.145345
 C 0.3133 0.98365 0.3545   0.075938
 C 0.3815 0.0239 0.3076   -0.155292
 C 0.2914 0.01421 0.23802   -0.02809
 C 0.4109 0.79552 0.39004   -0.246512
 C 0.4558 0.89902 0.44404   0.03189
 C 0.4094 0.99215 0.4293   -0.017115
 C 0.453 0.0927 0.4846   0.025874
 C 0.4102 0.19005 0.4721   -0.255214
 C 0.3545 0.37837 0.44254   8.4e-05
 C 0.4622 0.28646 0.52332   0.186502
 C 0.5541 0.2936 0.595   0.176457
 C 0.7062 0.40861 0.71082   -0.011051
 C 0.4692 0.81159 0.86098   0.638776
 C 0.3701 0.74909 0.78598   -0.117076
 C 0.4396 0.66297 0.73914   -0.043646
 C 0.3494 0.60358 0.66976   -0.145457
 C 0.1867 0.62915 0.6455   0.075696
 C 0.1185 0.7163 0.6924   -0.154937
 C 0.2086 0.77619 0.76198   -0.027124
 C 0.0891 0.40548 0.60996   -0.247155
 C 0.0442 0.45498 0.55596   0.032651
 C 0.0906 0.56285 0.5707   -0.017691
 C 0.047 0.6081 0.5154   0.025323
 C 0.0898 0.71795 0.5279   -0.253676
 C 0.1455 0.93583 0.55746   -0.000212
 C 0.0378 0.76314 0.47668   0.185262
 C 0.9459 0.6986 0.405   0.177136
 C 0.7938 0.69779 0.28918   -0.011119
 O 0.566 0.61854 0.48566   -0.218098
 O 0.4018 0.60448 0.35778   -0.228202
 O 0.8929 0.02125 0.90464   -0.541358
 O 0.1193 0.08548 0.87724   -0.458988
 O 0.934 0.13288 0.51434   -0.217198
 O 0.0982 0.2467 0.64222   -0.22881
 O 0.6071 0.11661 0.09536   -0.541217
 O 0.3807 0.20824 0.12276   -0.459185
 O 0.434 0.38146 0.51434   -0.218097
 O 0.5982 0.39552 0.64222   -0.228204
 O 0.1071 0.97875 0.09536   -0.541358
 O 0.8807 0.91452 0.12276   -0.458988
 O 0.066 0.86712 0.48566   -0.217197
 O 0.9018 0.7533 0.35778   -0.228812
 O 0.3929 0.88339 0.90464   -0.541217
 O 0.6193 0.79176 0.87724   -0.459185
 O 0.25 0.06255 0.0   -0.369103
 O 0.75 0.93745 0.0   -0.369103
