{'_ref': 'TBD', '_srcid': 'CAKYAQ_clean', 'submitters': [{'name': 'Dalar Nazarian Jeff Camp and David Sholl', 'email': 'dalar@gatech.edu jcamp6@gatech.edu'}], '_method': 'VASP DFT with PBE;DDEC'}
data_Gd2H3(C5O4)3
_symmetry_space_group_name_H-M   'P 1'
_cell_length_a   10.06619967
_cell_length_b   11.44919955
_cell_length_c   12.77460000
_cell_angle_alpha   108.73000038
_cell_angle_beta   96.94800032
_cell_angle_gamma   96.80200050
_symmetry_Int_Tables_number   1
_chemical_formula_structural   Gd2H3(C5O4)3
_chemical_formula_sum   'Gd4 H6 C30 O24'
_cell_volume   1364.55582759
_cell_formula_units_Z   2
loop_
 _symmetry_equiv_pos_site_id
 _symmetry_equiv_pos_as_xyz
  1  'x, y, z'
loop_
 _atom_site_label
 _atom_site_fract_x
 _atom_site_fract_y
 _atom_site_fract_z
 _atom_site_charge
 Gd 0.93186 0.92366 0.61605   2.118275
 Gd 0.54836 0.40184 0.24178   2.092869
 Gd 0.06814 0.07634 0.38395   2.118284
 Gd 0.45164 0.59816 0.75822   2.092871
 H 0.861 0.446 0.375   0.050072
 H 0.238 0.676 0.319   0.141421
 H 0.98 0.693 0.11   0.096183
 H 0.139 0.554 0.625   0.050072
 H 0.762 0.324 0.681   0.141421
 H 0.02 0.307 0.89   0.09618
 C 0.065 0.822 0.3759   0.743102
 C 0.0483 0.686 0.3635   -0.004633
 C 0.9316 0.6154 0.3749   -0.206618
 C 0.8022 0.6696 0.3935   0.814429
 C 0.9341 0.491 0.3665   0.046544
 C 0.0485 0.4361 0.3453   -0.120718
 C 0.0526 0.3063 0.348   0.701674
 C 0.1618 0.5057 0.3278   0.029541
 C 0.288 0.4557 0.2964   0.690541
 C 0.1605 0.6291 0.3358   -0.110781
 C 0.7708 0.5372 0.116   0.737882
 C 0.886 0.5169 0.052   -0.116688
 C 0.8986 0.3978 0.9813   -0.025099
 C 0.7893 0.2852 0.9544   0.638513
 C 0.9879 0.617 0.069   -0.041086
 C 0.935 0.178 0.6241   0.743102
 C 0.9517 0.314 0.6365   -0.004634
 C 0.0684 0.3846 0.6251   -0.206618
 C 0.1978 0.3304 0.6065   0.814429
 C 0.0659 0.509 0.6335   0.046544
 C 0.9515 0.5639 0.6547   -0.120718
 C 0.9474 0.6937 0.652   0.701673
 C 0.8382 0.4943 0.6722   0.029541
 C 0.712 0.5443 0.7036   0.690541
 C 0.8395 0.3709 0.6642   -0.110781
 C 0.2292 0.4628 0.884   0.737883
 C 0.114 0.4831 0.948   -0.1167
 C 0.1014 0.6022 0.0187   -0.025068
 C 0.2107 0.7148 0.0456   0.63851
 C 0.0121 0.383 0.931   -0.041055
 O 0.0755 0.9051 0.4734   -0.830198
 O 0.078 0.8537 0.2929   -0.628425
 O 0.8145 0.7879 0.4353   -0.741618
 O 0.6912 0.5969 0.3675   -0.707955
 O 0.9448 0.2371 0.3475   -0.709476
 O 0.1652 0.2696 0.3548   -0.696181
 O 0.2886 0.3881 0.1975   -0.662839
 O 0.3956 0.4928 0.3696   -0.716045
 O 0.7187 0.446 0.1407   -0.82572
 O 0.7349 0.6433 0.1445   -0.595315
 O 0.8227 0.1937 0.98   -0.583522
 O 0.6737 0.2883 0.906   -0.578157
 O 0.9245 0.0949 0.5266   -0.830198
 O 0.922 0.1463 0.7071   -0.628425
 O 0.1855 0.2121 0.5647   -0.741619
 O 0.3088 0.4031 0.6325   -0.707955
 O 0.0552 0.7629 0.6525   -0.709475
 O 0.8348 0.7304 0.6452   -0.696181
 O 0.7114 0.6119 0.8025   -0.662839
 O 0.6044 0.5072 0.6304   -0.716045
 O 0.2813 0.554 0.8593   -0.82572
 O 0.2651 0.3567 0.8555   -0.595315
 O 0.1773 0.8063 0.02   -0.583522
 O 0.3263 0.7117 0.094   -0.578157
