{'_ref': 'TBD', '_srcid': 'CAKYAQ_clean', 'submitters': [{'name': 'Dalar Nazarian Jeff Camp and David Sholl', 'email': 'dalar@gatech.edu jcamp6@gatech.edu'}], '_method': 'VASP DFT with PBE;DDEC'}
data_Cu2H10C14N4O7
_symmetry_space_group_name_H-M   'P 1'
_cell_length_a   7.39599983
_cell_length_b   15.66599969
_cell_length_c   17.57055162
_cell_angle_alpha   110.89606249
_cell_angle_beta   102.14926634
_cell_angle_gamma   89.99999812
_symmetry_Int_Tables_number   1
_chemical_formula_structural   Cu2H10C14N4O7
_chemical_formula_sum   'Cu8 H40 C56 N16 O28'
_cell_volume   1853.03757202
_cell_formula_units_Z   4
loop_
 _symmetry_equiv_pos_site_id
 _symmetry_equiv_pos_as_xyz
  1  'x, y, z'
loop_
 _atom_site_label
 _atom_site_fract_x
 _atom_site_fract_y
 _atom_site_fract_z
 _atom_site_charge
 Cu 0.38516 0.58497 0.49478   0.999043
 Cu 0.56469 0.59206 0.67546   1.013724
 Cu 0.89038 0.91503 0.50522   0.998903
 Cu 0.88923 0.90794 0.32454   1.013823
 Cu 0.61484 0.41503 0.50522   0.999043
 Cu 0.43531 0.40794 0.32454   1.013724
 Cu 0.10962 0.08497 0.49478   0.998903
 Cu 0.11077 0.09206 0.67546   1.013823
 H 0.4713 0.5307 0.2128   0.14348
 H 0.4269 0.7398 0.4116   0.130623
 H 0.4444 0.7748 0.2746   0.351596
 H 0.4672 0.6953 0.2002   0.356189
 H 0.4194 0.8832 0.564   0.116674
 H 0.7544 0.8641 0.7676   0.106412
 H 0.8426 0.019 0.8184   0.113345
 H 0.2625 0.6838 0.8762   0.095869
 H 0.7315 0.1052 0.738   0.08725
 H 0.2585 0.9693 0.7872   0.143257
 H 0.0153 0.7602 0.5884   0.130932
 H 0.1698 0.7252 0.7254   0.350539
 H 0.267 0.8047 0.7998   0.356044
 H 0.8554 0.6168 0.436   0.116974
 H 0.9868 0.6359 0.2324   0.105863
 H 0.0242 0.481 0.1816   0.113921
 H 0.3863 0.8162 0.1238   0.096446
 H 0.9935 0.3948 0.262   0.087347
 H 0.5287 0.4693 0.7872   0.14348
 H 0.5731 0.2602 0.5884   0.130623
 H 0.5556 0.2252 0.7254   0.351597
 H 0.5328 0.3047 0.7998   0.356189
 H 0.5806 0.1168 0.436   0.116674
 H 0.2456 0.1359 0.2324   0.106412
 H 0.1574 0.981 0.1816   0.113344
 H 0.7375 0.3162 0.1238   0.095869
 H 0.2685 0.8948 0.262   0.087251
 H 0.7415 0.0307 0.2128   0.143257
 H 0.9847 0.2398 0.4116   0.130932
 H 0.8302 0.2748 0.2746   0.350539
 H 0.733 0.1953 0.2002   0.356044
 H 0.1446 0.3832 0.564   0.116974
 H 0.0132 0.3641 0.7676   0.105863
 H 0.9758 0.519 0.8184   0.113921
 H 0.6137 0.1838 0.8762   0.096447
 H 0.0065 0.6052 0.738   0.087348
 H 0.7921 0.75 0.0   0.090075
 H 0.1708 0.75 0.0   0.114418
 H 0.2079 0.25 0.0   0.090075
 H 0.8292 0.25 0.0   0.114418
 C 0.4567 0.5659 0.266   0.112629
 C 0.4324 0.6804 0.375   0.155209
 C 0.47779 0.0623 0.59598   0.669729
 C 0.5056 0.9101 0.6146   -0.037562
 C 0.5811 0.858 0.66   -0.174798
 C 0.5594 0.0034 0.6448   -0.113954
 C 0.5322 0.7566 0.6292   0.677145
 C 0.7064 0.8994 0.7366   -0.057878
 C 0.7603 0.9918 0.7668   -0.10615
 C 0.6008 0.6701 0.8436   0.653706
 C 0.5373 0.7105 0.9244   -0.162872
 C 0.3514 0.7106 0.9258   -0.049519
 C 0.6908 0.0435 0.7198   -0.036269
 C 0.1907 0.9341 0.734   0.113582
 C 0.0574 0.8196 0.625   0.153676
 C 0.88181 0.4377 0.40402   0.669032
 C 0.891 0.5899 0.3854   -0.037241
 C 0.9211 0.642 0.34   -0.175595
 C 0.9146 0.4966 0.3552   -0.115304
 C 0.903 0.7434 0.3708   0.677786
 C 0.9698 0.6006 0.2634   -0.056632
 C 0.9935 0.5082 0.2332   -0.106819
 C 0.7572 0.8299 0.1564   0.656037
 C 0.6129 0.7895 0.0756   -0.163746
 C 0.4256 0.7894 0.0742   -0.050008
 C 0.971 0.4565 0.2802   -0.035676
 C 0.5433 0.4341 0.734   0.112629
 C 0.5676 0.3196 0.625   0.155209
 C 0.52221 0.9377 0.40402   0.669729
 C 0.4944 0.0899 0.3854   -0.037562
 C 0.4189 0.142 0.34   -0.174798
 C 0.4406 0.9966 0.3552   -0.113954
 C 0.4678 0.2434 0.3708   0.677145
 C 0.2936 0.1006 0.2634   -0.057878
 C 0.2397 0.0082 0.2332   -0.106149
 C 0.3992 0.3299 0.1564   0.653706
 C 0.4627 0.2895 0.0756   -0.162872
 C 0.6486 0.2894 0.0742   -0.049519
 C 0.3092 0.9565 0.2802   -0.036269
 C 0.8093 0.0659 0.266   0.113582
 C 0.9426 0.1804 0.375   0.153676
 C 0.11819 0.5623 0.59598   0.669032
 C 0.109 0.4101 0.6146   -0.037241
 C 0.0789 0.358 0.66   -0.175595
 C 0.0854 0.5034 0.6448   -0.115303
 C 0.097 0.2566 0.6292   0.677786
 C 0.0302 0.3994 0.7366   -0.056632
 C 0.0065 0.4918 0.7668   -0.106818
 C 0.2428 0.1701 0.8436   0.656037
 C 0.3871 0.2105 0.9244   -0.163746
 C 0.5744 0.2106 0.9258   -0.050008
 C 0.029 0.5435 0.7198   -0.035676
 C 0.6664 0.75 0.0   0.00721
 C 0.297 0.75 0.0   -0.11659
 C 0.3336 0.25 0.0   0.007209
 C 0.703 0.25 0.0   -0.11659
 N 0.42326 0.6074 0.39312   -0.233795
 N 0.43884 0.5342 0.32288   -0.239447
 N 0.4508 0.6581 0.2956   0.195847
 N 0.4547 0.7171 0.251   -0.62463
 N 0.03014 0.8926 0.60688   -0.232437
 N 0.11596 0.9658 0.67712   -0.240157
 N 0.1552 0.8419 0.7044   0.195988
 N 0.2037 0.7829 0.749   -0.623457
 N 0.57674 0.3926 0.60688   -0.233795
 N 0.56116 0.4658 0.67712   -0.239447
 N 0.5492 0.3419 0.7044   0.195847
 N 0.5453 0.2829 0.749   -0.62463
 N 0.96986 0.1074 0.39312   -0.232437
 N 0.88404 0.0342 0.32288   -0.240157
 N 0.8448 0.1581 0.2956   0.195988
 N 0.7963 0.2171 0.251   -0.623457
 O 0.59033 0.7178 0.68066   -0.552463
 O 0.43511 0.7173 0.55522   -0.578308
 O 0.57812 0.1096 0.57724   -0.496604
 O 0.29987 0.0579 0.57814   -0.671612
 O 0.64476 0.5444 0.57092   -0.693417
 O 0.4755 0.6377 0.7788   -0.597291
 O 0.7676 0.6718 0.8444   -0.599667
 O 0.90967 0.7822 0.31934   -0.552284
 O 0.87989 0.7827 0.44478   -0.579262
 O 0.000880000000002 0.3904 0.42276   -0.496135
 O 0.72173 0.4421 0.42186   -0.670879
 O 0.07384 0.9556 0.42908   -0.69323
 O 0.6967 0.8623 0.2212   -0.597908
 O 0.9232 0.8282 0.1556   -0.60073
 O 0.40967 0.2822 0.31934   -0.552463
 O 0.56489 0.2827 0.44478   -0.578308
 O 0.42188 0.8904 0.42276   -0.496604
 O 0.70013 0.9421 0.42186   -0.671612
 O 0.35524 0.4556 0.42908   -0.693418
 O 0.5245 0.3623 0.2212   -0.597291
 O 0.2324 0.3282 0.1556   -0.599667
 O 0.09033 0.2178 0.68066   -0.552284
 O 0.12011 0.2173 0.55522   -0.579262
 O 0.99912 0.6096 0.57724   -0.496135
 O 0.27827 0.5579 0.57814   -0.670879
 O 0.92616 0.0444 0.57092   -0.693231
 O 0.3033 0.1377 0.7788   -0.597908
 O 0.0768 0.1718 0.8444   -0.60073
