{'_ref': 'TBD', '_srcid': 'CAKYAQ_clean', 'submitters': [{'name': 'Dalar Nazarian Jeff Camp and David Sholl', 'email': 'dalar@gatech.edu jcamp6@gatech.edu'}], '_method': 'VASP DFT with PBE;DDEC'}
data_Zn5H6C20(NO2)8
_symmetry_space_group_name_H-M   'P 1'
_cell_length_a   14.16130000
_cell_length_b   15.67640000
_cell_length_c   16.13450000
_cell_angle_alpha   90.00000000
_cell_angle_beta   90.00000000
_cell_angle_gamma   90.00000000
_symmetry_Int_Tables_number   1
_chemical_formula_structural   Zn5H6C20(NO2)8
_chemical_formula_sum   'Zn20 H24 C80 N32 O64'
_cell_volume   3581.83001147
_cell_formula_units_Z   4
loop_
 _symmetry_equiv_pos_site_id
 _symmetry_equiv_pos_as_xyz
  1  'x, y, z'
loop_
 _atom_site_label
 _atom_site_fract_x
 _atom_site_fract_y
 _atom_site_fract_z
 _atom_site_charge
 Zn 0.62042 0.51481 0.31229   0.949427
 Zn 0.64597 0.56939 0.72183   0.971027
 Zn 0.87958 0.48519 0.81229   0.949427
 Zn 0.85403 0.43061 0.22183   0.971027
 Zn 0.37958 0.01481 0.18771   0.949427
 Zn 0.35403 0.06939 0.77817   0.971027
 Zn 0.12042 0.98519 0.68771   0.949427
 Zn 0.14597 0.93061 0.27817   0.971027
 Zn 0.37958 0.48519 0.68771   0.949427
 Zn 0.35403 0.43061 0.27817   0.971027
 Zn 0.12042 0.51481 0.18771   0.949427
 Zn 0.14597 0.56939 0.77817   0.971027
 Zn 0.62042 0.98519 0.81229   0.949427
 Zn 0.64597 0.93061 0.22183   0.971027
 Zn 0.87958 0.01481 0.31229   0.949427
 Zn 0.85403 0.06939 0.72183   0.971027
 Zn 0.0 0.5 0.5   1.168743
 Zn 0.5 0.5 0.0   1.168743
 Zn 0.0 0.0 0.0   1.168743
 Zn 0.5 0.0 0.5   1.168743
 H 0.7153 0.7301 0.2991   0.063735
 H 0.553 0.5737 0.5192   0.058692
 H 0.3447 0.8213 0.1338   0.41681
 H 0.7847 0.2699 0.7991   0.063735
 H 0.947 0.4263 0.0192   0.058692
 H 0.1553 0.1787 0.6338   0.41681
 H 0.2847 0.2301 0.2009   0.063735
 H 0.447 0.0737 0.9808   0.058692
 H 0.6553 0.3213 0.3662   0.41681
 H 0.2153 0.7699 0.7009   0.063735
 H 0.053 0.9263 0.4808   0.058692
 H 0.8447 0.6787 0.8662   0.41681
 H 0.2847 0.2699 0.7009   0.063735
 H 0.447 0.4263 0.4808   0.058692
 H 0.6553 0.1787 0.8662   0.41681
 H 0.2153 0.7301 0.2009   0.063735
 H 0.053 0.5737 0.9808   0.058692
 H 0.8447 0.8213 0.3662   0.41681
 H 0.7153 0.7699 0.7991   0.063735
 H 0.553 0.9263 0.0192   0.058692
 H 0.3447 0.6787 0.6338   0.41681
 H 0.7847 0.2301 0.2991   0.063735
 H 0.947 0.0737 0.5192   0.058692
 H 0.1553 0.3213 0.1338   0.41681
 C 0.5248 0.7622 0.2195   -0.029516
 C 0.5213 0.6765 0.241   0.053125
 C 0.6545 0.7267 0.2775   0.341907
 C 0.4536 0.8185 0.1819   0.630878
 C 0.4444 0.6129 0.2336   0.625801
 C 0.7425 0.4979 0.4731   -0.035602
 C 0.7509 0.5118 0.5577   -0.012506
 C 0.6141 0.5519 0.518   0.320321
 C 0.8071 0.4626 0.4077   0.686975
 C 0.8269 0.4962 0.6213   0.679855
 C 0.9752 0.2378 0.7195   -0.029516
 C 0.9787 0.3235 0.741   0.053125
 C 0.8455 0.2733 0.7775   0.341907
 C 0.0464 0.1815 0.6819   0.630878
 C 0.0556 0.3871 0.7336   0.625801
 C 0.7575 0.5021 0.9731   -0.035602
 C 0.7491 0.4882 0.0577   -0.012506
 C 0.8859 0.4481 0.018   0.320321
 C 0.6929 0.5374 0.9077   0.686975
 C 0.6731 0.5038 0.1213   0.679855
 C 0.4752 0.2622 0.2805   -0.029516
 C 0.4787 0.1765 0.259   0.053125
 C 0.3455 0.2267 0.2225   0.341907
 C 0.5464 0.3185 0.3181   0.630878
 C 0.5556 0.1129 0.2664   0.625801
 C 0.2575 0.9979 0.0269   -0.035602
 C 0.2491 0.0118 0.9423   -0.012506
 C 0.3859 0.0519 0.982   0.320321
 C 0.1929 0.9626 0.0923   0.686975
 C 0.1731 0.9962 0.8787   0.679855
 C 0.0248 0.7378 0.7805   -0.029516
 C 0.0213 0.8235 0.759   0.053125
 C 0.1545 0.7733 0.7225   0.341907
 C 0.9536 0.6815 0.8181   0.630878
 C 0.9444 0.8871 0.7664   0.625801
 C 0.2425 0.0021 0.5269   -0.035602
 C 0.2509 0.9882 0.4423   -0.012506
 C 0.1141 0.9481 0.482   0.320321
 C 0.3071 0.0374 0.5923   0.686975
 C 0.3269 0.0038 0.3787   0.679855
 C 0.4752 0.2378 0.7805   -0.029516
 C 0.4787 0.3235 0.759   0.053125
 C 0.3455 0.2733 0.7225   0.341907
 C 0.5464 0.1815 0.8181   0.630878
 C 0.5556 0.3871 0.7664   0.625801
 C 0.2575 0.5021 0.5269   -0.035602
 C 0.2491 0.4882 0.4423   -0.012506
 C 0.3859 0.4481 0.482   0.320321
 C 0.1929 0.5374 0.5923   0.686975
 C 0.1731 0.5038 0.3787   0.679855
 C 0.0248 0.7622 0.2805   -0.029516
 C 0.0213 0.6765 0.259   0.053125
 C 0.1545 0.7267 0.2225   0.341907
 C 0.9536 0.8185 0.3181   0.630878
 C 0.9444 0.6129 0.2664   0.625801
 C 0.2425 0.4979 0.0269   -0.035602
 C 0.2509 0.5118 0.9423   -0.012506
 C 0.1141 0.5519 0.982   0.320321
 C 0.3071 0.4626 0.0923   0.686975
 C 0.3269 0.4962 0.8787   0.679855
 C 0.5248 0.7378 0.7195   -0.029516
 C 0.5213 0.8235 0.741   0.053125
 C 0.6545 0.7733 0.7775   0.341907
 C 0.4536 0.6815 0.6819   0.630878
 C 0.4444 0.8871 0.7336   0.625801
 C 0.7425 0.0021 0.9731   -0.035602
 C 0.7509 0.9882 0.0577   -0.012506
 C 0.6141 0.9481 0.018   0.320321
 C 0.8071 0.0374 0.9077   0.686975
 C 0.8269 0.0038 0.1213   0.679855
 C 0.9752 0.2622 0.2195   -0.029516
 C 0.9787 0.1765 0.241   0.053125
 C 0.8455 0.2267 0.2775   0.341907
 C 0.0464 0.3185 0.1819   0.630878
 C 0.0556 0.1129 0.2336   0.625801
 C 0.7575 0.9979 0.4731   -0.035602
 C 0.7491 0.0118 0.5577   -0.012506
 C 0.8859 0.0519 0.518   0.320321
 C 0.6929 0.9626 0.4077   0.686975
 C 0.6731 0.9962 0.6213   0.679855
 N 0.6108 0.7928 0.2433   -0.447705
 N 0.6044 0.6555 0.2784   -0.422758
 N 0.6545 0.5243 0.4493   -0.427511
 N 0.6682 0.5461 0.5856   -0.422292
 N 0.8892 0.2072 0.7433   -0.447705
 N 0.8956 0.3445 0.7784   -0.422758
 N 0.8455 0.4757 0.9493   -0.427511
 N 0.8318 0.4539 0.0856   -0.422292
 N 0.3892 0.2928 0.2567   -0.447705
 N 0.3956 0.1555 0.2216   -0.422758
 N 0.3455 0.0243 0.0507   -0.427511
 N 0.3318 0.0461 0.9144   -0.422292
 N 0.1108 0.7072 0.7567   -0.447705
 N 0.1044 0.8445 0.7216   -0.422758
 N 0.1545 0.9757 0.5507   -0.427511
 N 0.1682 0.9539 0.4144   -0.422292
 N 0.3892 0.2072 0.7567   -0.447706
 N 0.3956 0.3445 0.7216   -0.422758
 N 0.3455 0.4757 0.5507   -0.427511
 N 0.3318 0.4539 0.4144   -0.422292
 N 0.1108 0.7928 0.2567   -0.447706
 N 0.1044 0.6555 0.2216   -0.422758
 N 0.1545 0.5243 0.0507   -0.427511
 N 0.1682 0.5461 0.9144   -0.422292
 N 0.6108 0.7072 0.7433   -0.447705
 N 0.6044 0.8445 0.7784   -0.422758
 N 0.6545 0.9757 0.9493   -0.427511
 N 0.6682 0.9539 0.0856   -0.422292
 N 0.8892 0.2928 0.2433   -0.447706
 N 0.8956 0.1555 0.2784   -0.422758
 N 0.8455 0.0243 0.4493   -0.427511
 N 0.8318 0.0461 0.5856   -0.422292
 O 0.4739 0.8951 0.1739   -0.560157
 O 0.3753 0.786 0.16   -0.433941
 O 0.3681 0.6345 0.1981   -0.59847
 O 0.4576 0.5419 0.265   -0.60668
 O 0.7689 0.4537 0.3375   -0.593146
 O 0.8902 0.4418 0.4207   -0.61173
 O 0.9027 0.4613 0.6037   -0.610851
 O 0.8061 0.5212 0.693   -0.57006
 O 0.0261 0.1049 0.6739   -0.560157
 O 0.1247 0.214 0.66   -0.433941
 O 0.1319 0.3655 0.6981   -0.59847
 O 0.0424 0.4581 0.765   -0.60668
 O 0.7311 0.5463 0.8375   -0.593146
 O 0.6098 0.5582 0.9207   -0.61173
 O 0.5973 0.5387 0.1037   -0.610851
 O 0.6939 0.4788 0.193   -0.57006
 O 0.5261 0.3951 0.3261   -0.560157
 O 0.6247 0.286 0.34   -0.433941
 O 0.6319 0.1345 0.3019   -0.59847
 O 0.5424 0.0419 0.235   -0.60668
 O 0.2311 0.9537 0.1625   -0.593146
 O 0.1098 0.9418 0.0793   -0.61173
 O 0.0973 0.9613 0.8963   -0.610851
 O 0.1939 0.0212 0.807   -0.57006
 O 0.9739 0.6049 0.8261   -0.560157
 O 0.8753 0.714 0.84   -0.433941
 O 0.8681 0.8655 0.8019   -0.59847
 O 0.9576 0.9581 0.735   -0.60668
 O 0.2689 0.0463 0.6625   -0.593146
 O 0.3902 0.0582 0.5793   -0.61173
 O 0.4027 0.0387 0.3963   -0.610851
 O 0.3061 0.9788 0.307   -0.57006
 O 0.5261 0.1049 0.8261   -0.560157
 O 0.6247 0.214 0.84   -0.433941
 O 0.6319 0.3655 0.8019   -0.59847
 O 0.5424 0.4581 0.735   -0.60668
 O 0.2311 0.5463 0.6625   -0.593146
 O 0.1098 0.5582 0.5793   -0.61173
 O 0.0973 0.5387 0.3963   -0.610851
 O 0.1939 0.4788 0.307   -0.57006
 O 0.9739 0.8951 0.3261   -0.560157
 O 0.8753 0.786 0.34   -0.433941
 O 0.8681 0.6345 0.3019   -0.59847
 O 0.9576 0.5419 0.235   -0.60668
 O 0.2689 0.4537 0.1625   -0.593146
 O 0.3902 0.4418 0.0793   -0.61173
 O 0.4027 0.4613 0.8963   -0.610851
 O 0.3061 0.5212 0.807   -0.57006
 O 0.4739 0.6049 0.6739   -0.560157
 O 0.3753 0.714 0.66   -0.433941
 O 0.3681 0.8655 0.6981   -0.59847
 O 0.4576 0.9581 0.765   -0.60668
 O 0.7689 0.0463 0.8375   -0.593146
 O 0.8902 0.0582 0.9207   -0.61173
 O 0.9027 0.0387 0.1037   -0.610851
 O 0.8061 0.9788 0.193   -0.57006
 O 0.0261 0.3951 0.1739   -0.560157
 O 0.1247 0.286 0.16   -0.433941
 O 0.1319 0.1345 0.1981   -0.59847
 O 0.0424 0.0419 0.265   -0.60668
 O 0.7311 0.9537 0.3375   -0.593146
 O 0.6098 0.9418 0.4207   -0.61173
 O 0.5973 0.9613 0.6037   -0.610851
 O 0.6939 0.0212 0.693   -0.57006
