{'_ref': 'TBD', '_srcid': 'CAKYAQ_clean', 'submitters': [{'name': 'Dalar Nazarian Jeff Camp and David Sholl', 'email': 'dalar@gatech.edu jcamp6@gatech.edu'}], '_method': 'VASP DFT with PBE;DDEC'}
data_SmC4N3O4
_symmetry_space_group_name_H-M   'P 1'
_cell_length_a   12.77480000
_cell_length_b   12.79760000
_cell_length_c   13.33170000
_cell_angle_alpha   90.00000000
_cell_angle_beta   90.00000000
_cell_angle_gamma   90.00000000
_symmetry_Int_Tables_number   1
_chemical_formula_structural   SmC4N3O4
_chemical_formula_sum   'Sm8 C32 N24 O32'
_cell_volume   2179.55671133
_cell_formula_units_Z   8
loop_
 _symmetry_equiv_pos_site_id
 _symmetry_equiv_pos_as_xyz
  1  'x, y, z'
loop_
 _atom_site_label
 _atom_site_fract_x
 _atom_site_fract_y
 _atom_site_fract_z
 _atom_site_charge
 Sm 0.5426 0.2107 0.2542   2.198569
 Sm 0.5397 0.7081 0.0948   2.192148
 Sm 0.0426 0.7893 0.2458   2.198567
 Sm 0.0397 0.2919 0.4052   2.192147
 Sm 0.9574 0.7107 0.7458   2.198571
 Sm 0.9603 0.2081 0.9052   2.19215
 Sm 0.4574 0.2893 0.7542   2.198568
 Sm 0.4603 0.7919 0.5948   2.19215
 C 0.7 0.25 0.947   0.021451
 C 0.619 0.254 0.01   0.024475
 C 0.714 0.264 0.836   0.746414
 C 0.502 0.264 0.011   0.776469
 C 0.492 0.752 0.343   0.761703
 C 0.526 0.965 0.178   0.744222
 C 0.509 0.947 0.287   -0.02461
 C 0.496 0.864 0.351   0.07627
 C 0.2 0.75 0.553   0.021451
 C 0.119 0.746 0.49   0.024475
 C 0.214 0.736 0.664   0.746414
 C 0.002 0.736 0.489   0.776469
 C 0.992 0.248 0.157   0.761703
 C 0.026 0.035 0.322   0.744222
 C 0.009 0.053 0.213   -0.024611
 C 0.996 0.136 0.149   0.07627
 C 0.8 0.75 0.053   0.021451
 C 0.881 0.754 0.99   0.024475
 C 0.786 0.764 0.164   0.746414
 C 0.998 0.764 0.989   0.776469
 C 0.008 0.252 0.657   0.761703
 C 0.974 0.465 0.822   0.744222
 C 0.991 0.447 0.713   -0.02461
 C 0.004 0.364 0.649   0.07627
 C 0.3 0.25 0.447   0.021451
 C 0.381 0.246 0.51   0.024475
 C 0.286 0.236 0.336   0.746414
 C 0.498 0.236 0.511   0.776469
 C 0.508 0.748 0.843   0.761703
 C 0.474 0.535 0.678   0.744222
 C 0.491 0.553 0.787   -0.02461
 C 0.504 0.636 0.851   0.07627
 N 0.793 0.231 0.997   -0.425358
 N 0.765 0.228 0.098   0.035619
 N 0.663 0.241 0.107   -0.505111
 N 0.508 0.038 0.345   -0.392121
 N 0.494 0.014 0.439   0.035185
 N 0.491 0.909 0.441   -0.531793
 N 0.293 0.769 0.503   -0.425358
 N 0.265 0.772 0.402   0.035619
 N 0.163 0.759 0.393   -0.505111
 N 0.008 0.962 0.155   -0.392121
 N 0.994 0.986 0.061   0.035185
 N 0.991 0.091 0.059   -0.531793
 N 0.707 0.731 0.003   -0.425358
 N 0.735 0.728 0.902   0.035619
 N 0.837 0.741 0.893   -0.505111
 N 0.992 0.538 0.655   -0.392121
 N 0.006 0.514 0.561   0.035185
 N 0.009 0.409 0.559   -0.531793
 N 0.207 0.269 0.497   -0.425358
 N 0.235 0.272 0.598   0.035619
 N 0.337 0.259 0.607   -0.505111
 N 0.492 0.462 0.845   -0.392121
 N 0.506 0.486 0.939   0.035185
 N 0.509 0.591 0.941   -0.531793
 O 0.804 0.243 0.8   -0.683943
 O 0.637 0.29 0.785   -0.70898
 O 0.459 0.267 0.095   -0.678088
 O 0.453 0.255 0.928   -0.815948
 O 0.532 0.057 0.147   -0.649986
 O 0.527 0.886 0.121   -0.720072
 O 0.492 0.704 0.431   -0.694275
 O 0.486 0.706 0.262   -0.782241
 O 0.304 0.757 0.7   -0.683943
 O 0.137 0.71 0.715   -0.70898
 O 0.959 0.733 0.405   -0.678088
 O 0.953 0.745 0.572   -0.815948
 O 0.032 0.943 0.353   -0.649986
 O 0.027 0.114 0.379   -0.720072
 O 0.992 0.296 0.069   -0.694275
 O 0.986 0.294 0.238   -0.782241
 O 0.696 0.743 0.2   -0.683943
 O 0.863 0.79 0.215   -0.70898
 O 0.041 0.767 0.905   -0.678088
 O 0.047 0.755 0.072   -0.815948
 O 0.968 0.557 0.853   -0.649986
 O 0.973 0.386 0.879   -0.720072
 O 0.008 0.204 0.569   -0.694275
 O 0.014 0.206 0.738   -0.782241
 O 0.196 0.257 0.3   -0.683943
 O 0.363 0.21 0.285   -0.70898
 O 0.541 0.233 0.595   -0.678088
 O 0.547 0.245 0.428   -0.815948
 O 0.468 0.443 0.647   -0.649986
 O 0.473 0.614 0.621   -0.720072
 O 0.508 0.796 0.931   -0.694275
 O 0.514 0.794 0.762   -0.782241
