{'_ref': 'TBD', '_srcid': 'CAKYAQ_clean', 'submitters': [{'name': 'Dalar Nazarian Jeff Camp and David Sholl', 'email': 'dalar@gatech.edu jcamp6@gatech.edu'}], '_method': 'VASP DFT with PBE;DDEC'}
data_CdNiH16(C5N3)2
_symmetry_space_group_name_H-M   'P 1'
_cell_length_a   7.12200006
_cell_length_b   7.61300000
_cell_length_c   9.62800000
_cell_angle_alpha   90.00000000
_cell_angle_beta   100.00999631
_cell_angle_gamma   90.00000000
_symmetry_Int_Tables_number   1
_chemical_formula_structural   CdNiH16(C5N3)2
_chemical_formula_sum   'Cd1 Ni1 H16 C10 N6'
_cell_volume   514.081500841
_cell_formula_units_Z   1
loop_
 _symmetry_equiv_pos_site_id
 _symmetry_equiv_pos_as_xyz
  1  'x, y, z'
loop_
 _atom_site_label
 _atom_site_fract_x
 _atom_site_fract_y
 _atom_site_fract_z
 _atom_site_charge
 Cd 0.0 0.0 0.0   0.991096
 Ni 0.5 0.5 0.0   -0.005291
 H 0.98969 0.11544 0.71312   0.282732
 H 0.33003 0.88456 0.79833   0.077909
 H 0.20922 0.11544 0.54321   0.059085
 H 0.55597 0.88456 0.62766   0.07362
 H 0.01031 0.11544 0.28688   0.282732
 H 0.66997 0.88456 0.20167   0.077909
 H 0.79078 0.11544 0.45679   0.059086
 H 0.44403 0.88456 0.37234   0.073623
 H 0.01031 0.88456 0.28688   0.282728
 H 0.66997 0.11544 0.20167   0.077906
 H 0.79078 0.88456 0.45679   0.059095
 H 0.44403 0.11544 0.37234   0.073626
 H 0.98969 0.88456 0.71312   0.282728
 H 0.33003 0.11544 0.79833   0.077906
 H 0.20922 0.88456 0.54321   0.059095
 H 0.55597 0.11544 0.62766   0.07363
 C 0.6655 0.6719 0.9588   0.115268
 C 0.3345 0.6719 0.0412   0.115266
 C 0.3345 0.3281 0.0412   0.115261
 C 0.6655 0.3281 0.9588   0.115259
 C 0.2587 0.0 0.7481   0.059888
 C 0.2789 0.0 0.594   -0.176545
 C 0.4866 0.0 0.5763   -0.114593
 C 0.7413 0.0 0.2519   0.059889
 C 0.7211 0.0 0.406   -0.176546
 C 0.5134 0.0 0.4237   -0.114589
 N 0.7713 0.779 0.9384   -0.43633
 N 0.2287 0.779 0.0616   -0.43633
 N 0.2287 0.221 0.0616   -0.436328
 N 0.7713 0.221 0.9384   -0.436328
 N 0.0575 0.0 0.7707   -0.606228
 N 0.9425 0.0 0.2293   -0.606228
