{'_ref': 'TBD', '_srcid': 'CAKYAQ_clean', 'submitters': [{'name': 'Dalar Nazarian Jeff Camp and David Sholl', 'email': 'dalar@gatech.edu jcamp6@gatech.edu'}], '_method': 'VASP DFT with PBE;DDEC'}
data_Ga3P3O13
_symmetry_space_group_name_H-M   'P 1'
_cell_length_a   8.66900000
_cell_length_b   9.09700001
_cell_length_c   17.93200000
_cell_angle_alpha   90.00000000
_cell_angle_beta   90.00000000
_cell_angle_gamma   108.31999964
_symmetry_Int_Tables_number   1
_chemical_formula_structural   Ga3P3O13
_chemical_formula_sum   'Ga12 P12 O52'
_cell_volume   1342.4763556
_cell_formula_units_Z   4
loop_
 _symmetry_equiv_pos_site_id
 _symmetry_equiv_pos_as_xyz
  1  'x, y, z'
loop_
 _atom_site_label
 _atom_site_fract_x
 _atom_site_fract_y
 _atom_site_fract_z
 _atom_site_charge
 Ga 0.8673 0.334 0.3918   1.703666
 Ga 0.9308 0.2007 0.2062   1.739257
 Ga 0.487 0.301 0.1743   1.748256
 Ga 0.6327 0.166 0.8918   1.703665
 Ga 0.5692 0.2993 0.7062   1.739257
 Ga 0.013 0.199 0.6743   1.748255
 Ga 0.1327 0.666 0.6082   1.703665
 Ga 0.0692 0.7993 0.7938   1.739257
 Ga 0.513 0.699 0.8257   1.748255
 Ga 0.3673 0.834 0.1082   1.703664
 Ga 0.4308 0.7007 0.2938   1.739257
 Ga 0.987 0.801 0.3257   1.748255
 P 0.6605 0.1282 0.0702   1.83038
 P 0.7017 0.5177 0.2874   1.891597
 P 0.7461 0.993 0.336   1.787077
 P 0.8395 0.3718 0.5702   1.83038
 P 0.7983 0.9823 0.7874   1.891597
 P 0.7539 0.507 0.836   1.787077
 P 0.3395 0.8718 0.9298   1.83038
 P 0.2983 0.4823 0.7126   1.891597
 P 0.2539 0.007 0.664   1.787077
 P 0.1605 0.6282 0.4298   1.83038
 P 0.2017 0.0177 0.2126   1.891597
 P 0.2461 0.493 0.164   1.787077
 O 0.8942 0.9434 0.3564   -0.877078
 O 0.7509 0.1252 0.3904   -0.768472
 O 0.7196 0.1676 0.9915   -0.724042
 O 0.7343 0.4454 0.3589   -0.867768
 O 0.8087 0.1784 0.1197   -0.796306
 O 0.5759 0.9534 0.0777   -0.791064
 O 0.7523 0.0461 0.2547   -0.811355
 O 0.5499 0.5621 0.2996   -0.898742
 O 0.5891 0.8624 0.3488   -0.772564
 O 0.6751 0.4019 0.2221   -0.915054
 O 0.8492 0.6568 0.2656   -0.889667
 O 0.5392 0.2144 0.0905   -0.912464
 O 0.9702 0.3206 0.2944   -0.675655
 O 0.6058 0.5566 0.8564   -0.877078
 O 0.7491 0.3748 0.8904   -0.768472
 O 0.7804 0.3324 0.4915   -0.724042
 O 0.7657 0.0546 0.8589   -0.867768
 O 0.6913 0.3216 0.6197   -0.796306
 O 0.9241 0.5466 0.5777   -0.791064
 O 0.7477 0.4539 0.7547   -0.811355
 O 0.9501 0.9379 0.7996   -0.898742
 O 0.9109 0.6376 0.8488   -0.772564
 O 0.8249 0.0981 0.7221   -0.915054
 O 0.6508 0.8432 0.7656   -0.889667
 O 0.9608 0.2856 0.5905   -0.912464
 O 0.5298 0.1794 0.7944   -0.675655
 O 0.1058 0.0566 0.6436   -0.877078
 O 0.2491 0.8748 0.6096   -0.768472
 O 0.2804 0.8324 0.0085   -0.724042
 O 0.2657 0.5546 0.6411   -0.867768
 O 0.1913 0.8216 0.8803   -0.796306
 O 0.4241 0.0466 0.9223   -0.791064
 O 0.2477 0.9539 0.7453   -0.811355
 O 0.4501 0.4379 0.7004   -0.898742
 O 0.4109 0.1376 0.6512   -0.772564
 O 0.3249 0.5981 0.7779   -0.915054
 O 0.1508 0.3432 0.7344   -0.889667
 O 0.4608 0.7856 0.9095   -0.912464
 O 0.0298 0.6794 0.7056   -0.675655
 O 0.3942 0.4434 0.1436   -0.877078
 O 0.2509 0.6252 0.1096   -0.768472
 O 0.2196 0.6676 0.5085   -0.724042
 O 0.2343 0.9454 0.1411   -0.867768
 O 0.3087 0.6784 0.3803   -0.796306
 O 0.0759 0.4534 0.4223   -0.791064
 O 0.2523 0.5461 0.2453   -0.811355
 O 0.0499 0.0621 0.2004   -0.898742
 O 0.0891 0.3624 0.1512   -0.772564
 O 0.1751 0.9019 0.2779   -0.915054
 O 0.3492 0.1568 0.2344   -0.889667
 O 0.0392 0.7144 0.4095   -0.912464
 O 0.4702 0.8206 0.2056   -0.675655
