{'_ref': 'TBD', '_srcid': 'CAKYAQ_clean', 'submitters': [{'name': 'Dalar Nazarian Jeff Camp and David Sholl', 'email': 'dalar@gatech.edu jcamp6@gatech.edu'}], '_method': 'VASP DFT with PBE;DDEC'}
data_Cu2H3C8SO8
_symmetry_space_group_name_H-M   'P 1'
_cell_length_a   7.29490000
_cell_length_b   10.12450032
_cell_length_c   18.27260000
_cell_angle_alpha   90.00000000
_cell_angle_beta   90.00000000
_cell_angle_gamma   94.89099935
_symmetry_Int_Tables_number   1
_chemical_formula_structural   Cu2H3C8SO8
_chemical_formula_sum   'Cu8 H12 C32 S4 O32'
_cell_volume   1344.64922827
_cell_formula_units_Z   4
loop_
 _symmetry_equiv_pos_site_id
 _symmetry_equiv_pos_as_xyz
  1  'x, y, z'
loop_
 _atom_site_label
 _atom_site_fract_x
 _atom_site_fract_y
 _atom_site_fract_z
 _atom_site_charge
 Cu 0.86633 0.21714 0.90752   1.046664
 Cu 0.05141 0.93577 0.93149   1.11147
 Cu 0.63367 0.28286 0.40752   1.046664
 Cu 0.44859 0.56423 0.43149   1.11147
 Cu 0.13367 0.78286 0.09248   1.046664
 Cu 0.94859 0.06423 0.06851   1.11147
 Cu 0.36633 0.71714 0.59248   1.046664
 Cu 0.55141 0.43577 0.56851   1.11147
 H 0.7921 0.1709 0.695   0.114142
 H 0.952 0.801 0.7068   0.114287
 H 0.7905 0.9457 0.5133   0.111872
 H 0.7079 0.3291 0.195   0.114142
 H 0.548 0.699 0.2068   0.114287
 H 0.7095 0.5543 0.0133   0.111872
 H 0.2079 0.8291 0.305   0.114142
 H 0.048 0.199 0.2932   0.114287
 H 0.2095 0.0543 0.4867   0.111872
 H 0.2921 0.6709 0.805   0.114142
 H 0.452 0.301 0.7932   0.114287
 H 0.2905 0.4457 0.9867   0.111872
 C 0.874 0.8555 0.60489   -0.279874
 C 0.7831 0.077 0.59757   -0.143468
 C 0.814 0.0916 0.67221   0.040552
 C 0.8776 0.9891 0.71358   -0.163911
 C 0.9083 0.0117 0.79368   0.728286
 C 0.9088 0.87 0.67996   0.046154
 C 0.8122 0.957 0.56311   0.036516
 C 0.7127 0.1888 0.55555   0.709696
 C 0.626 0.6445 0.10489   -0.279874
 C 0.7169 0.423 0.09757   -0.143468
 C 0.686 0.4084 0.17221   0.040552
 C 0.6224 0.5109 0.21358   -0.163911
 C 0.5917 0.4883 0.29368   0.728286
 C 0.5912 0.63 0.17996   0.046154
 C 0.6878 0.543 0.06311   0.036516
 C 0.7873 0.3112 0.05555   0.709696
 C 0.126 0.1445 0.39511   -0.279874
 C 0.2169 0.923 0.40243   -0.143468
 C 0.186 0.9084 0.32779   0.040552
 C 0.1224 0.0109 0.28642   -0.163911
 C 0.0917 0.9883 0.20632   0.728286
 C 0.0912 0.13 0.32004   0.046154
 C 0.1878 0.043 0.43689   0.036516
 C 0.2873 0.8112 0.44445   0.709696
 C 0.374 0.3555 0.89511   -0.279874
 C 0.2831 0.577 0.90243   -0.143468
 C 0.314 0.5916 0.82779   0.040552
 C 0.3776 0.4891 0.78642   -0.163911
 C 0.4083 0.5117 0.70632   0.728286
 C 0.4088 0.37 0.82004   0.046154
 C 0.3122 0.457 0.93689   0.036516
 C 0.2127 0.6888 0.94445   0.709696
 S 0.88602 0.69624 0.56649   1.367
 S 0.61398 0.80376 0.06649   1.367
 S 0.11398 0.30376 0.43351   1.367001
 S 0.38602 0.19624 0.93351   1.367001
 O 0.9556 0.91639 0.83231   -0.521568
 O 0.867 0.05287 0.96501   -0.676762
 O 0.6631 0.16722 0.49025   -0.618713
 O 0.8842 0.12719 0.81545   -0.576158
 O 0.8921 0.70861 0.48754   -0.590617
 O 0.705 0.29678 0.59072   -0.510878
 O 0.7173 0.62328 0.59294   -0.730566
 O 0.0481 0.64284 0.59805   -0.614124
 O 0.5444 0.58361 0.33231   -0.521568
 O 0.633 0.44713 0.46501   -0.676762
 O 0.8369 0.33278 0.99025   -0.618713
 O 0.6158 0.37281 0.31545   -0.576158
 O 0.6079 0.79139 0.98754   -0.590617
 O 0.795 0.20322 0.09072   -0.510878
 O 0.7827 0.87672 0.09294   -0.730566
 O 0.4519 0.85716 0.09805   -0.614124
 O 0.0444 0.08361 0.16769   -0.521568
 O 0.133 0.94713 0.03499   -0.676762
 O 0.3369 0.83278 0.50975   -0.618713
 O 0.1158 0.87281 0.18455   -0.576158
 O 0.1079 0.29139 0.51246   -0.590616
 O 0.295 0.70322 0.40928   -0.510877
 O 0.2827 0.37672 0.40706   -0.730566
 O 0.9519 0.35716 0.40195   -0.614124
 O 0.4556 0.41639 0.66769   -0.521568
 O 0.367 0.55287 0.53499   -0.676762
 O 0.1631 0.66722 0.00975   -0.618713
 O 0.3842 0.62719 0.68455   -0.576158
 O 0.3921 0.20861 0.01246   -0.590616
 O 0.205 0.79678 0.90928   -0.510877
 O 0.2173 0.12328 0.90706   -0.730566
 O 0.5481 0.14284 0.90195   -0.614124
