{'_ref': 'TBD', '_srcid': 'CAKYAQ_clean', 'submitters': [{'name': 'Dalar Nazarian Jeff Camp and David Sholl', 'email': 'dalar@gatech.edu jcamp6@gatech.edu'}], '_method': 'VASP DFT with PBE;DDEC'}
data_Cu2H3C8SO8
_symmetry_space_group_name_H-M   'P 1'
_cell_length_a   7.32060000
_cell_length_b   10.13309991
_cell_length_c   18.24830000
_cell_angle_alpha   90.00000000
_cell_angle_beta   90.00000000
_cell_angle_gamma   94.68099952
_symmetry_Int_Tables_number   1
_chemical_formula_structural   Cu2H3C8SO8
_chemical_formula_sum   'Cu8 H12 C32 S4 O32'
_cell_volume   1349.15052193
_cell_formula_units_Z   4
loop_
 _symmetry_equiv_pos_site_id
 _symmetry_equiv_pos_as_xyz
  1  'x, y, z'
loop_
 _atom_site_label
 _atom_site_fract_x
 _atom_site_fract_y
 _atom_site_fract_z
 _atom_site_charge
 Cu 0.86637 0.21741 0.90708   1.045669
 Cu 0.05051 0.93517 0.93151   1.111406
 Cu 0.63363 0.28259 0.40708   1.045669
 Cu 0.44949 0.56483 0.43151   1.111406
 Cu 0.13363 0.78259 0.09291   1.045702
 Cu 0.94949 0.06483 0.06849   1.111419
 Cu 0.36637 0.71741 0.59291   1.045702
 Cu 0.55051 0.43517 0.56849   1.111419
 H 0.7912 0.1694 0.6944   0.112287
 H 0.9515 0.8006 0.707   0.113366
 H 0.7895 0.9436 0.5129   0.110924
 H 0.7088 0.3306 0.1944   0.112287
 H 0.5485 0.6994 0.207   0.113366
 H 0.7105 0.5564 0.0129   0.110924
 H 0.2088 0.8306 0.3056   0.112289
 H 0.0485 0.1994 0.293   0.113363
 H 0.2105 0.0564 0.4871   0.110925
 H 0.2912 0.6694 0.8056   0.112289
 H 0.4515 0.3006 0.793   0.113363
 H 0.2895 0.4436 0.9871   0.110925
 C 0.8713 0.8532 0.60478   -0.284061
 C 0.781 0.0757 0.59687   -0.148266
 C 0.8127 0.0899 0.67168   0.041767
 C 0.8758 0.988 0.71336   -0.16537
 C 0.9077 0.0109 0.79358   0.731809
 C 0.9073 0.869 0.67998   0.048268
 C 0.8105 0.9551 0.56283   0.03808
 C 0.7102 0.1875 0.55521   0.715724
 C 0.6287 0.6468 0.10478   -0.284061
 C 0.719 0.4243 0.09687   -0.148266
 C 0.6873 0.4101 0.17168   0.041767
 C 0.6242 0.512 0.21336   -0.16537
 C 0.5923 0.4891 0.29358   0.731809
 C 0.5927 0.631 0.17998   0.048268
 C 0.6895 0.5449 0.06283   0.03808
 C 0.7898 0.3125 0.05521   0.715724
 C 0.1287 0.1468 0.39522   -0.284056
 C 0.219 0.9243 0.40313   -0.148265
 C 0.1873 0.9101 0.32832   0.041766
 C 0.1242 0.012 0.28664   -0.165359
 C 0.0923 0.9891 0.20642   0.731794
 C 0.0927 0.131 0.32002   0.04826
 C 0.1895 0.0449 0.43717   0.03808
 C 0.2898 0.8125 0.44479   0.715719
 C 0.3713 0.3532 0.89522   -0.284056
 C 0.281 0.5757 0.90313   -0.148265
 C 0.3127 0.5899 0.82832   0.041766
 C 0.3758 0.488 0.78664   -0.165359
 C 0.4077 0.5109 0.70642   0.731794
 C 0.4073 0.369 0.82002   0.04826
 C 0.3105 0.4551 0.93717   0.03808
 C 0.2102 0.6875 0.94479   0.715719
 S 0.88547 0.69499 0.56628   1.370754
 S 0.61453 0.80501 0.06628   1.370754
 S 0.11453 0.30501 0.43372   1.370761
 S 0.38547 0.19499 0.93372   1.370761
 O 0.9543 0.916 0.83223   -0.521554
 O 0.8681 0.054 0.96483   -0.680282
 O 0.6622 0.1664 0.48971   -0.62004
 O 0.8844 0.1266 0.81506   -0.577854
 O 0.8902 0.7073 0.48742   -0.590387
 O 0.7021 0.2946 0.59044   -0.511955
 O 0.7198 0.6209 0.59345   -0.726409
 O 0.0488 0.6427 0.59723   -0.613903
 O 0.5457 0.584 0.33223   -0.521554
 O 0.6319 0.446 0.46483   -0.680281
 O 0.8378 0.3336 0.98971   -0.62004
 O 0.6156 0.3734 0.31506   -0.577854
 O 0.6098 0.7927 0.98742   -0.590386
 O 0.7979 0.2054 0.09044   -0.511955
 O 0.7802 0.8791 0.09345   -0.726409
 O 0.4512 0.8573 0.09723   -0.613903
 O 0.0457 0.084 0.16777   -0.521544
 O 0.1319 0.946 0.03517   -0.680348
 O 0.3378 0.8336 0.51029   -0.620016
 O 0.1156 0.8734 0.18494   -0.577821
 O 0.1098 0.2927 0.51258   -0.590381
 O 0.2979 0.7054 0.40956   -0.51196
 O 0.2802 0.3791 0.40655   -0.726381
 O 0.9512 0.3573 0.40277   -0.613921
 O 0.4543 0.416 0.66777   -0.521544
 O 0.3681 0.554 0.53517   -0.680347
 O 0.1622 0.6664 0.01029   -0.620016
 O 0.3844 0.6266 0.68494   -0.577821
 O 0.3902 0.2073 0.01258   -0.590381
 O 0.2021 0.7946 0.90956   -0.51196
 O 0.2198 0.1209 0.90655   -0.726381
 O 0.5488 0.1427 0.90277   -0.613921
