{'_ref': 'TBD', '_srcid': 'CAKYAQ_clean', 'submitters': [{'name': 'Dalar Nazarian Jeff Camp and David Sholl', 'email': 'dalar@gatech.edu jcamp6@gatech.edu'}], '_method': 'VASP DFT with PBE;DDEC'}
data_Cu2H3C8SO8
_symmetry_space_group_name_H-M   'P 1'
_cell_length_a   7.33780000
_cell_length_b   10.14469995
_cell_length_c   18.20100000
_cell_angle_alpha   90.00000000
_cell_angle_beta   90.00000000
_cell_angle_gamma   94.39300136
_symmetry_Int_Tables_number   1
_chemical_formula_structural   Cu2H3C8SO8
_chemical_formula_sum   'Cu8 H12 C32 S4 O32'
_cell_volume   1350.8979475
_cell_formula_units_Z   4
loop_
 _symmetry_equiv_pos_site_id
 _symmetry_equiv_pos_as_xyz
  1  'x, y, z'
loop_
 _atom_site_label
 _atom_site_fract_x
 _atom_site_fract_y
 _atom_site_fract_z
 _atom_site_charge
 Cu 0.86652 0.21787 0.90601   1.043584
 Cu 0.04737 0.93329 0.93157   1.116398
 Cu 0.63348 0.28213 0.40601   1.043584
 Cu 0.45263 0.56671 0.43157   1.116398
 Cu 0.13348 0.78213 0.09399   1.043584
 Cu 0.95263 0.06671 0.06843   1.116398
 Cu 0.36652 0.71787 0.59399   1.043584
 Cu 0.54737 0.43329 0.56843   1.116398
 H 0.7865 0.1668 0.6938   0.113224
 H 0.947 0.798 0.7067   0.113794
 H 0.7835 0.9393 0.5125   0.110927
 H 0.7135 0.3332 0.1938   0.113224
 H 0.553 0.702 0.2067   0.113794
 H 0.7165 0.5607 0.0125   0.110927
 H 0.2135 0.8332 0.3062   0.113225
 H 0.053 0.202 0.2933   0.113794
 H 0.2165 0.0607 0.4875   0.110927
 H 0.2865 0.6668 0.8062   0.113225
 H 0.447 0.298 0.7933   0.113794
 H 0.2835 0.4393 0.9875   0.110927
 C 0.8655 0.8501 0.60458   -0.284945
 C 0.7743 0.0719 0.59613   -0.151585
 C 0.8076 0.0871 0.67119   0.040679
 C 0.8713 0.9859 0.71288   -0.166032
 C 0.9055 0.0098 0.79304   0.734779
 C 0.9024 0.8662 0.67956   0.048174
 C 0.8044 0.9512 0.56252   0.037002
 C 0.7042 0.1835 0.55426   0.719936
 C 0.6345 0.6499 0.10458   -0.284945
 C 0.7257 0.4281 0.09613   -0.151585
 C 0.6924 0.4129 0.17119   0.040679
 C 0.6287 0.5141 0.21288   -0.166032
 C 0.5945 0.4902 0.29304   0.734779
 C 0.5976 0.6338 0.17956   0.048174
 C 0.6956 0.5488 0.06252   0.037002
 C 0.7958 0.3165 0.05426   0.719936
 C 0.1345 0.1499 0.39542   -0.284945
 C 0.2257 0.9281 0.40387   -0.151585
 C 0.1924 0.9129 0.32881   0.040678
 C 0.1287 0.0141 0.28712   -0.166032
 C 0.0945 0.9902 0.20696   0.734779
 C 0.0976 0.1338 0.32044   0.048174
 C 0.1956 0.0488 0.43748   0.037002
 C 0.2958 0.8165 0.44574   0.719936
 C 0.3655 0.3501 0.89542   -0.284945
 C 0.2743 0.5719 0.90387   -0.151585
 C 0.3076 0.5871 0.82881   0.040678
 C 0.3713 0.4859 0.78712   -0.166032
 C 0.4055 0.5098 0.70696   0.734779
 C 0.4024 0.3662 0.82044   0.048174
 C 0.3044 0.4512 0.93748   0.037002
 C 0.2042 0.6835 0.94574   0.719936
 S 0.88313 0.6917 0.56577   1.372367
 S 0.61687 0.8083 0.06577   1.372367
 S 0.11687 0.3083 0.43423   1.372367
 S 0.38313 0.1917 0.93423   1.372367
 O 0.9516 0.9153 0.83207   -0.522141
 O 0.8708 0.0563 0.96473   -0.689167
 O 0.6597 0.1634 0.48819   -0.62033
 O 0.8837 0.1257 0.81406   -0.58022
 O 0.8827 0.7029 0.48713   -0.589989
 O 0.6932 0.2891 0.58979   -0.515331
 O 0.7245 0.6155 0.59515   -0.716734
 O 0.0495 0.6427 0.59569   -0.614392
 O 0.5484 0.5847 0.33207   -0.52214
 O 0.6292 0.4437 0.46473   -0.689167
 O 0.8403 0.3366 0.98819   -0.62033
 O 0.6163 0.3743 0.31406   -0.58022
 O 0.6173 0.7971 0.98713   -0.589989
 O 0.8068 0.2109 0.08979   -0.515331
 O 0.7755 0.8845 0.09515   -0.716734
 O 0.4505 0.8573 0.09569   -0.614392
 O 0.0484 0.0847 0.16793   -0.522141
 O 0.1292 0.9437 0.03527   -0.689167
 O 0.3403 0.8366 0.51181   -0.62033
 O 0.1163 0.8743 0.18594   -0.58022
 O 0.1173 0.2971 0.51287   -0.589987
 O 0.3068 0.7109 0.41021   -0.51533
 O 0.2755 0.3845 0.40485   -0.716734
 O 0.9505 0.3573 0.40431   -0.614391
 O 0.4516 0.4153 0.66793   -0.52214
 O 0.3708 0.5563 0.53527   -0.689167
 O 0.1597 0.6634 0.01181   -0.62033
 O 0.3837 0.6257 0.68594   -0.58022
 O 0.3827 0.2029 0.01287   -0.589987
 O 0.1932 0.7891 0.91021   -0.51533
 O 0.2245 0.1155 0.90485   -0.716734
 O 0.5495 0.1427 0.90431   -0.614391
