{'_ref': 'TBD', '_srcid': 'CAKYAQ_clean', 'submitters': [{'name': 'Dalar Nazarian Jeff Camp and David Sholl', 'email': 'dalar@gatech.edu jcamp6@gatech.edu'}], '_method': 'VASP DFT with PBE;DDEC'}
data_Cu2H3C8SO8
_symmetry_space_group_name_H-M   'P 1'
_cell_length_a   7.30600000
_cell_length_b   10.20500047
_cell_length_c   18.11100000
_cell_angle_alpha   90.00000000
_cell_angle_beta   90.00000000
_cell_angle_gamma   94.24800037
_symmetry_Int_Tables_number   1
_chemical_formula_structural   Cu2H3C8SO8
_chemical_formula_sum   'Cu8 H12 C32 S4 O32'
_cell_volume   1346.60548582
_cell_formula_units_Z   4
loop_
 _symmetry_equiv_pos_site_id
 _symmetry_equiv_pos_as_xyz
  1  'x, y, z'
loop_
 _atom_site_label
 _atom_site_fract_x
 _atom_site_fract_y
 _atom_site_fract_z
 _atom_site_charge
 Cu 0.86458 0.21589 0.90528   1.049754
 Cu 0.03948 0.92978 0.93159   1.121233
 Cu 0.63542 0.28411 0.40528   1.049754
 Cu 0.46052 0.57022 0.43159   1.121233
 Cu 0.13542 0.78411 0.09472   1.049754
 Cu 0.96052 0.07022 0.06841   1.121232
 Cu 0.36458 0.71589 0.59472   1.049754
 Cu 0.53948 0.42978 0.56841   1.121232
 H 0.7794 0.1647 0.6919   0.112572
 H 0.9358 0.7973 0.707   0.114325
 H 0.7725 0.9368 0.5107   0.112989
 H 0.7206 0.3353 0.1919   0.112572
 H 0.5642 0.7027 0.207   0.114325
 H 0.7275 0.5632 0.0107   0.112989
 H 0.2206 0.8353 0.3081   0.112573
 H 0.0642 0.2027 0.293   0.114325
 H 0.2275 0.0632 0.4893   0.112989
 H 0.2794 0.6647 0.8081   0.112573
 H 0.4358 0.2973 0.793   0.114325
 H 0.2725 0.4368 0.9893   0.112989
 C 0.8586 0.8483 0.604   -0.291308
 C 0.766 0.0691 0.5951   -0.155838
 C 0.7999 0.085 0.6696   0.041648
 C 0.8639 0.9847 0.712   -0.166819
 C 0.8992 0.0092 0.7924   0.733689
 C 0.8933 0.8653 0.6792   0.050199
 C 0.795 0.9491 0.5608   0.036306
 C 0.6942 0.18 0.553   0.729283
 C 0.6414 0.6517 0.104   -0.291308
 C 0.734 0.4309 0.0951   -0.155838
 C 0.7001 0.415 0.1696   0.041648
 C 0.6361 0.5153 0.212   -0.166819
 C 0.6008 0.4908 0.2924   0.733689
 C 0.6067 0.6347 0.1792   0.050199
 C 0.705 0.5509 0.0608   0.036306
 C 0.8058 0.32 0.053   0.729283
 C 0.1414 0.1517 0.396   -0.291308
 C 0.234 0.9309 0.4049   -0.155838
 C 0.2001 0.915 0.3304   0.041648
 C 0.1361 0.0153 0.288   -0.166819
 C 0.1008 0.9908 0.2076   0.733689
 C 0.1067 0.1347 0.3208   0.050199
 C 0.205 0.0509 0.4392   0.036306
 C 0.3058 0.82 0.447   0.729283
 C 0.3586 0.3483 0.896   -0.291308
 C 0.266 0.5691 0.9049   -0.155838
 C 0.2999 0.585 0.8304   0.041648
 C 0.3639 0.4847 0.788   -0.166819
 C 0.3992 0.5092 0.7076   0.733689
 C 0.3933 0.3653 0.8208   0.050199
 C 0.295 0.4491 0.9392   0.036306
 C 0.1942 0.68 0.947   0.729283
 S 0.8761 0.69042 0.56509   1.385036
 S 0.6239 0.80958 0.06509   1.385036
 S 0.1239 0.30958 0.43491   1.385037
 S 0.3761 0.19042 0.93491   1.385037
 O 0.9441 0.9144 0.83217   -0.52329
 O 0.8697 0.0583 0.96558   -0.695497
 O 0.656 0.1617 0.4862   -0.620326
 O 0.8775 0.1243 0.8135   -0.579583
 O 0.8595 0.7006 0.4869   -0.600394
 O 0.6778 0.2824 0.5892   -0.520869
 O 0.7262 0.6111 0.5988   -0.714819
 O 0.0484 0.6471 0.5915   -0.618294
 O 0.5559 0.5856 0.33217   -0.52329
 O 0.6303 0.4417 0.46558   -0.695497
 O 0.844 0.3383 0.9862   -0.620326
 O 0.6225 0.3757 0.3135   -0.579583
 O 0.6405 0.7994 0.9869   -0.600394
 O 0.8222 0.2176 0.0892   -0.520869
 O 0.7738 0.8889 0.0988   -0.714819
 O 0.4516 0.8529 0.0915   -0.618294
 O 0.0559 0.0856 0.16783   -0.52329
 O 0.1303 0.9417 0.03442   -0.695497
 O 0.344 0.8383 0.5138   -0.620325
 O 0.1225 0.8757 0.1865   -0.579583
 O 0.1405 0.2994 0.5131   -0.600393
 O 0.3222 0.7176 0.4108   -0.520868
 O 0.2738 0.3889 0.4012   -0.714819
 O 0.9516 0.3529 0.4085   -0.618294
 O 0.4441 0.4144 0.66783   -0.52329
 O 0.3697 0.5583 0.53442   -0.695497
 O 0.156 0.6617 0.0138   -0.620325
 O 0.3775 0.6243 0.6865   -0.579583
 O 0.3595 0.2006 0.0131   -0.600392
 O 0.1778 0.7824 0.9108   -0.520868
 O 0.2262 0.1111 0.9012   -0.714819
 O 0.5484 0.1471 0.9085   -0.618294
