{'_ref': 'TBD', '_srcid': 'CAKYAQ_clean', 'submitters': [{'name': 'Dalar Nazarian Jeff Camp and David Sholl', 'email': 'dalar@gatech.edu jcamp6@gatech.edu'}], '_method': 'VASP DFT with PBE;DDEC'}
data_Cu2H3C8SO8
_symmetry_space_group_name_H-M   'P 1'
_cell_length_a   7.35600000
_cell_length_b   10.16699957
_cell_length_c   18.20800000
_cell_angle_alpha   90.00000000
_cell_angle_beta   90.00000000
_cell_angle_gamma   94.27700105
_symmetry_Int_Tables_number   1
_chemical_formula_structural   Cu2H3C8SO8
_chemical_formula_sum   'Cu8 H12 C32 S4 O32'
_cell_volume   1357.95581212
_cell_formula_units_Z   4
loop_
 _symmetry_equiv_pos_site_id
 _symmetry_equiv_pos_as_xyz
  1  'x, y, z'
loop_
 _atom_site_label
 _atom_site_fract_x
 _atom_site_fract_y
 _atom_site_fract_z
 _atom_site_charge
 Cu 0.86602 0.21699 0.90492   1.045632
 Cu 0.04142 0.93045 0.93163   1.116576
 Cu 0.63398 0.28301 0.40492   1.045632
 Cu 0.45858 0.56955 0.43163   1.116576
 Cu 0.13398 0.78301 0.09508   1.045632
 Cu 0.95858 0.06955 0.06837   1.116576
 Cu 0.36602 0.71699 0.59508   1.045632
 Cu 0.54142 0.43045 0.56837   1.116576
 H 0.7788 0.1641 0.6922   0.113574
 H 0.9356 0.7941 0.7058   0.11509
 H 0.7771 0.9357 0.5108   0.114559
 H 0.7212 0.3359 0.1922   0.113574
 H 0.5644 0.7059 0.2058   0.11509
 H 0.7229 0.5643 0.0108   0.114559
 H 0.2212 0.8359 0.3078   0.113574
 H 0.0644 0.2059 0.2942   0.11509
 H 0.2229 0.0643 0.4892   0.114559
 H 0.2788 0.6641 0.8078   0.113574
 H 0.4356 0.2941 0.7942   0.11509
 H 0.2771 0.4357 0.9892   0.114559
 C 0.8586 0.8473 0.604   -0.285169
 C 0.7676 0.0683 0.5953   -0.152801
 C 0.8007 0.0845 0.6699   0.041866
 C 0.8659 0.9839 0.712   -0.168072
 C 0.9 0.0082 0.7924   0.735461
 C 0.8939 0.863 0.6785   0.049179
 C 0.7975 0.9477 0.5608   0.032904
 C 0.6969 0.1798 0.5527   0.715756
 C 0.6414 0.6527 0.104   -0.285169
 C 0.7324 0.4317 0.0953   -0.152801
 C 0.6993 0.4155 0.1699   0.041866
 C 0.6341 0.5161 0.212   -0.168072
 C 0.6 0.4918 0.2924   0.735461
 C 0.6061 0.637 0.1785   0.049179
 C 0.7025 0.5523 0.0608   0.032904
 C 0.8031 0.3202 0.0527   0.715756
 C 0.1414 0.1527 0.396   -0.285169
 C 0.2324 0.9317 0.4047   -0.152801
 C 0.1993 0.9155 0.3301   0.041866
 C 0.1341 0.0161 0.288   -0.168072
 C 0.1 0.9918 0.2076   0.735461
 C 0.1061 0.137 0.3215   0.049179
 C 0.2025 0.0523 0.4392   0.032905
 C 0.3031 0.8202 0.4473   0.715756
 C 0.3586 0.3473 0.896   -0.285169
 C 0.2676 0.5683 0.9047   -0.152801
 C 0.3007 0.5845 0.8301   0.041866
 C 0.3659 0.4839 0.788   -0.168072
 C 0.4 0.5082 0.7076   0.735461
 C 0.3939 0.363 0.8215   0.049179
 C 0.2975 0.4477 0.9392   0.032905
 C 0.1969 0.6798 0.9473   0.715756
 S 0.87776 0.68972 0.56489   1.378416
 S 0.62224 0.81028 0.06489   1.378416
 S 0.12224 0.31028 0.43511   1.378416
 S 0.37776 0.18972 0.93511   1.378416
 O 0.9464 0.9144 0.83175   -0.522047
 O 0.8719 0.0585 0.96485   -0.694397
 O 0.6559 0.1614 0.48595   -0.616151
 O 0.8807 0.1243 0.81318   -0.5828
 O 0.8646 0.699 0.4868   -0.594616
 O 0.6823 0.2842 0.58955   -0.51748
 O 0.7275 0.6114 0.5975   -0.708929
 O 0.0484 0.6446 0.5922   -0.616552
 O 0.5536 0.5856 0.33175   -0.522047
 O 0.6281 0.4415 0.46485   -0.694397
 O 0.8441 0.3386 0.98595   -0.616151
 O 0.6193 0.3757 0.31318   -0.5828
 O 0.6354 0.801 0.9868   -0.594616
 O 0.8177 0.2158 0.08955   -0.51748
 O 0.7725 0.8886 0.0975   -0.708929
 O 0.4516 0.8554 0.0922   -0.616552
 O 0.0536 0.0856 0.16825   -0.522047
 O 0.1281 0.9415 0.03515   -0.694397
 O 0.3441 0.8386 0.51405   -0.616151
 O 0.1193 0.8757 0.18682   -0.5828
 O 0.1354 0.301 0.5132   -0.594614
 O 0.3177 0.7158 0.41045   -0.51748
 O 0.2725 0.3886 0.4025   -0.708929
 O 0.9516 0.3554 0.4078   -0.616551
 O 0.4464 0.4144 0.66825   -0.522047
 O 0.3719 0.5585 0.53515   -0.694397
 O 0.1559 0.6614 0.01405   -0.616151
 O 0.3807 0.6243 0.68682   -0.5828
 O 0.3646 0.199 0.0132   -0.594614
 O 0.1823 0.7842 0.91045   -0.51748
 O 0.2275 0.1114 0.9025   -0.708929
 O 0.5484 0.1446 0.9078   -0.616551
