{'_ref': 'TBD', '_srcid': 'CAKYAQ_clean', 'submitters': [{'name': 'Dalar Nazarian Jeff Camp and David Sholl', 'email': 'dalar@gatech.edu jcamp6@gatech.edu'}], '_method': 'VASP DFT with PBE;DDEC'}
data_CdH10C12S(N3O2)2
_symmetry_space_group_name_H-M   'P 1'
_cell_length_a   5.70300000
_cell_length_b   10.62300000
_cell_length_c   29.89000000
_cell_angle_alpha   90.00000000
_cell_angle_beta   90.00000000
_cell_angle_gamma   90.00000000
_symmetry_Int_Tables_number   1
_chemical_formula_structural   CdH10C12S(N3O2)2
_chemical_formula_sum   'Cd4 H40 C48 S4 N24 O16'
_cell_volume   1810.82494341
_cell_formula_units_Z   4
loop_
 _symmetry_equiv_pos_site_id
 _symmetry_equiv_pos_as_xyz
  1  'x, y, z'
loop_
 _atom_site_label
 _atom_site_fract_x
 _atom_site_fract_y
 _atom_site_fract_z
 _atom_site_charge
 Cd 0.8248 0.00706 0.76085   1.133323
 Cd 0.6752 0.99294 0.26085   1.133323
 Cd 0.1752 0.50706 0.73915   1.133323
 Cd 0.3248 0.49294 0.23915   1.133323
 H 0.4518 0.1316 0.8275   0.098431
 H 0.3654 0.1568 0.9017   0.107831
 H 0.9857 0.003 0.9324   0.109426
 H 0.0556 0.9808 0.857   0.081114
 H 0.9374 0.999 0.0946   0.124266
 H 0.9575 0.9731 0.1707   0.098281
 H 0.3073 0.1605 0.1121   0.101062
 H 0.3472 0.1311 0.1872   0.082326
 H 0.9505 0.9644 0.9861   0.321071
 H 0.0309 0.0491 0.0211   0.310331
 H 0.0482 0.8684 0.3275   0.098431
 H 0.1346 0.8432 0.4017   0.107831
 H 0.5143 0.997 0.4324   0.109426
 H 0.4444 0.0192 0.357   0.081114
 H 0.5626 0.000999999999998 0.5946   0.124266
 H 0.5425 0.0269 0.6707   0.098281
 H 0.1927 0.8395 0.6121   0.101062
 H 0.1528 0.8689 0.6872   0.082326
 H 0.5495 0.0356 0.4861   0.321071
 H 0.4691 0.9509 0.5211   0.310331
 H 0.5482 0.6316 0.6725   0.098431
 H 0.6346 0.6568 0.5983   0.107831
 H 0.0143 0.503 0.5676   0.109426
 H 0.9444 0.4808 0.643   0.081114
 H 0.0626 0.499 0.4054   0.124266
 H 0.0425 0.4731 0.3293   0.098281
 H 0.6927 0.6605 0.3879   0.101062
 H 0.6528 0.6311 0.3128   0.082326
 H 0.0495 0.4644 0.5139   0.321069
 H 0.9691 0.5491 0.4789   0.310331
 H 0.9518 0.3684 0.1725   0.098431
 H 0.8654 0.3432 0.0983   0.107831
 H 0.4857 0.497 0.0676   0.109426
 H 0.5556 0.5192 0.143   0.081114
 H 0.4374 0.501 0.9054   0.124266
 H 0.4575 0.5269 0.8293   0.098281
 H 0.8073 0.3395 0.8879   0.101062
 H 0.8472 0.3689 0.8128   0.082326
 H 0.4505 0.5356 0.0139   0.321069
 H 0.5309 0.4509 0.9789   0.310331
 C 0.5593 0.1043 0.84876   0.199438
 C 0.5062 0.1194 0.89339   -0.166641
 C 0.6617 0.0792 0.92593   0.069245
 C 0.8733 0.0283 0.91177   -0.191152
 C 0.9142 0.0158 0.86619   0.208255
 C 0.5933 0.0952 0.9731   0.195132
 C 0.5734 0.0964 0.04562   0.212155
 C 0.6137 0.0795 0.09382   0.061515
 C 0.8137 0.0249 0.11265   -0.183381
 C 0.8242 0.0101 0.15851   0.206894
 C 0.4405 0.1207 0.12315   -0.180632
 C 0.4655 0.1028 0.16832   0.183244
 C 0.9407 0.8957 0.34876   0.199438
 C 0.9938 0.8806 0.39339   -0.166641
 C 0.8383 0.9208 0.42593   0.069245
 C 0.6267 0.9717 0.41177   -0.191152
 C 0.5858 0.9842 0.36619   0.208255
 C 0.9067 0.9048 0.4731   0.195132
 C 0.9266 0.9036 0.54562   0.212155
 C 0.8863 0.9205 0.59382   0.061515
 C 0.6863 0.9751 0.61265   -0.183381
 C 0.6758 0.9899 0.65851   0.206894
 C 0.0595 0.8793 0.62315   -0.180632
 C 0.0345 0.8972 0.66832   0.183244
 C 0.4407 0.6043 0.65124   0.199438
 C 0.4938 0.6194 0.60661   -0.166641
 C 0.3383 0.5792 0.57407   0.069245
 C 0.1267 0.5283 0.58823   -0.191152
 C 0.0858 0.5158 0.63381   0.208256
 C 0.4067 0.5952 0.5269   0.195132
 C 0.4266 0.5964 0.45438   0.212155
 C 0.3863 0.5795 0.40618   0.061516
 C 0.1863 0.5249 0.38735   -0.183381
 C 0.1758 0.5101 0.34149   0.206895
 C 0.5595 0.6207 0.37685   -0.180632
 C 0.5345 0.6028 0.33168   0.183244
 C 0.0593 0.3957 0.15124   0.199438
 C 0.0062 0.3806 0.10661   -0.166641
 C 0.1617 0.4208 0.07407   0.069245
 C 0.3733 0.4717 0.08823   -0.191152
 C 0.4142 0.4842 0.13381   0.208256
 C 0.0933 0.4048 0.0269   0.195132
 C 0.0734 0.4036 0.95438   0.212155
 C 0.1137 0.4205 0.90618   0.061516
 C 0.3137 0.4751 0.88735   -0.183381
 C 0.3242 0.4899 0.84149   0.206895
 C 0.9405 0.3793 0.87685   -0.180632
 C 0.9655 0.3972 0.83168   0.183244
 S 0.32707 0.8134 0.78174   1.683289
 S 0.17293 0.1866 0.28174   1.683289
 S 0.67293 0.3134 0.71826   1.683289
 S 0.82707 0.6866 0.21826   1.683289
 N 0.7604 0.0515 0.83481   -0.358701
 N 0.653 0.0463 0.18647   -0.343787
 N 0.9173 0.9965 0.01285   -0.600004
 N 0.3968 0.1506 0.98418   -0.292084
 N 0.3889 0.1541 0.03105   -0.284528
 N 0.7079 0.0607 0.01074   0.153402
 N 0.7396 0.9485 0.33481   -0.358701
 N 0.847 0.9537 0.68647   -0.343787
 N 0.5827 0.0035 0.51285   -0.600004
 N 0.1032 0.8494 0.48418   -0.292084
 N 0.1111 0.8459 0.53105   -0.284528
 N 0.7921 0.9393 0.51074   0.153402
 N 0.2396 0.5515 0.66519   -0.358701
 N 0.347 0.5463 0.31353   -0.343788
 N 0.0827 0.4965 0.48715   -0.600004
 N 0.6032 0.6506 0.51582   -0.292085
 N 0.6111 0.6541 0.46895   -0.284528
 N 0.2921 0.5607 0.48926   0.153402
 N 0.2604 0.4485 0.16519   -0.358701
 N 0.153 0.4537 0.81353   -0.343788
 N 0.4173 0.5035 0.98715   -0.600004
 N 0.8968 0.3494 0.01582   -0.292085
 N 0.8889 0.3459 0.96895   -0.284528
 N 0.2079 0.4393 0.98926   0.153402
 O 0.0695 0.8386 0.7782   -0.810024
 O 0.4538 0.9154 0.75844   -0.792143
 O 0.3751 0.6922 0.75892   -0.782133
 O 0.3919 0.807 0.82878   -0.754819
 O 0.4305 0.1614 0.2782   -0.810024
 O 0.0462 0.0846 0.25844   -0.792143
 O 0.1249 0.3078 0.25892   -0.782133
 O 0.1081 0.193 0.32878   -0.754819
 O 0.9305 0.3386 0.7218   -0.810024
 O 0.5462 0.4154 0.74156   -0.792143
 O 0.6249 0.1922 0.74108   -0.782133
 O 0.6081 0.307 0.67122   -0.754819
 O 0.5695 0.6614 0.2218   -0.810024
 O 0.9538 0.5846 0.24156   -0.792143
 O 0.8751 0.8078 0.24108   -0.782133
 O 0.8919 0.693 0.17122   -0.754819
