{'_ref': 'TBD', '_srcid': 'CAKYAQ_clean', 'submitters': [{'name': 'Dalar Nazarian Jeff Camp and David Sholl', 'email': 'dalar@gatech.edu jcamp6@gatech.edu'}], '_method': 'VASP DFT with PBE;DDEC'}
data_DyP4Ru2H8(C2O7)2
_symmetry_space_group_name_H-M   'P 1'
_cell_length_a   9.61159969
_cell_length_b   9.61159946
_cell_length_c   15.54800000
_cell_angle_alpha   92.93020184
_cell_angle_beta   92.93020177
_cell_angle_gamma   99.07449773
_symmetry_Int_Tables_number   1
_chemical_formula_structural   DyP4Ru2H8(C2O7)2
_chemical_formula_sum   'Dy2 P8 Ru4 H16 C8 O28'
_cell_volume   1413.98363058
_cell_formula_units_Z   2
loop_
 _symmetry_equiv_pos_site_id
 _symmetry_equiv_pos_as_xyz
  1  'x, y, z'
loop_
 _atom_site_label
 _atom_site_fract_x
 _atom_site_fract_y
 _atom_site_fract_z
 _atom_site_charge
 Dy 0.01085 0.98915 0.75   2.362757
 Dy 0.98915 0.01085 0.25   2.362759
 P 0.35393 0.04483 0.64557   1.394955
 P 0.6515 0.97608 0.65429   1.415722
 P 0.95517 0.64607 0.85443   1.394956
 P 0.02392 0.3485 0.84571   1.41572
 P 0.64607 0.95517 0.35443   1.394955
 P 0.3485 0.02392 0.34571   1.415722
 P 0.04483 0.35393 0.14557   1.394956
 P 0.97608 0.6515 0.15429   1.41572
 H 0.4752 0.1608 0.8147   0.135405
 H 0.6343 0.1311 0.8149   0.128018
 H 0.5779 0.2283 0.7447   0.124286
 H 0.422 0.824 0.73   0.388608
 H 0.8392 0.5248 0.6853   0.135405
 H 0.8689 0.3657 0.6851   0.128018
 H 0.7717 0.4221 0.7553   0.124286
 H 0.176 0.578 0.77   0.388609
 H 0.5248 0.8392 0.1853   0.135405
 H 0.3657 0.8689 0.1851   0.128018
 H 0.4221 0.7717 0.2553   0.124286
 H 0.578 0.176 0.27   0.388608
 H 0.1608 0.4752 0.3147   0.135405
 H 0.1311 0.6343 0.3149   0.128018
 H 0.2283 0.5779 0.2447   0.124286
 H 0.824 0.422 0.23   0.388609
 Ru 0.54552 0.1216 0.50202   1.06262
 Ru 0.8784 0.45448 0.99798   1.06262
 Ru 0.45448 0.8784 0.49798   1.062718
 Ru 0.1216 0.54552 0.00202   1.062718
 C 0.5063 0.0191 0.7189   -0.324935
 C 0.5524 0.1456 0.7784   -0.248038
 C 0.9809 0.4937 0.7811   -0.324933
 C 0.8544 0.4476 0.7216   -0.248039
 C 0.4937 0.9809 0.2811   -0.324935
 C 0.4476 0.8544 0.2216   -0.248037
 C 0.0191 0.5063 0.2189   -0.324933
 C 0.1456 0.5524 0.2784   -0.248038
 O 0.4084 0.1684 0.5894   -0.691617
 O 0.31 0.9092 0.5863   -0.766419
 O 0.2342 0.0758 0.6999   -0.936606
 O 0.6919 0.1039 0.5986   -0.747947
 O 0.5953 0.8431 0.5946   -0.714573
 O 0.7722 0.9544 0.7144   -0.918534
 O 0.4496 0.8996 0.7678   -0.482373
 O 0.8316 0.5916 0.9106   -0.691618
 O 0.0908 0.69 0.9137   -0.766419
 O 0.9242 0.7658 0.8001   -0.936607
 O 0.8961 0.3081 0.9014   -0.747947
 O 0.1569 0.4047 0.9054   -0.714572
 O 0.0456 0.2278 0.7856   -0.918534
 O 0.1004 0.5504 0.7322   -0.482373
 O 0.5916 0.8316 0.4106   -0.691623
 O 0.69 0.0908 0.4137   -0.766413
 O 0.7658 0.9242 0.3001   -0.936607
 O 0.3081 0.8961 0.4014   -0.747953
 O 0.4047 0.1569 0.4054   -0.714567
 O 0.2278 0.0456 0.2856   -0.918534
 O 0.5504 0.1004 0.2322   -0.482373
 O 0.1684 0.4084 0.0894   -0.691623
 O 0.9092 0.31 0.0863   -0.766413
 O 0.0758 0.2342 0.1999   -0.936607
 O 0.1039 0.6919 0.0986   -0.747953
 O 0.8431 0.5953 0.0946   -0.714567
 O 0.9544 0.7722 0.2144   -0.918534
 O 0.8996 0.4496 0.2678   -0.482373
