{'_ref': 'TBD', '_srcid': 'CAKYAQ_clean', 'submitters': [{'name': 'Dalar Nazarian Jeff Camp and David Sholl', 'email': 'dalar@gatech.edu jcamp6@gatech.edu'}], '_method': 'VASP DFT with PBE;DDEC'}
data_CeP4Ru2H8(C2O7)2
_symmetry_space_group_name_H-M   'P 1'
_cell_length_a   9.69210001
_cell_length_b   9.69209972
_cell_length_c   15.69380000
_cell_angle_alpha   92.70170196
_cell_angle_beta   92.70170188
_cell_angle_gamma   99.01960097
_symmetry_Int_Tables_number   1
_chemical_formula_structural   CeP4Ru2H8(C2O7)2
_chemical_formula_sum   'Ce2 P8 Ru4 H16 C8 O28'
_cell_volume   1452.15474667
_cell_formula_units_Z   2
loop_
 _symmetry_equiv_pos_site_id
 _symmetry_equiv_pos_as_xyz
  1  'x, y, z'
loop_
 _atom_site_label
 _atom_site_fract_x
 _atom_site_fract_y
 _atom_site_fract_z
 _atom_site_charge
 Ce 0.0114 0.9886 0.75   2.358159
 Ce 0.9886 0.0114 0.25   2.358161
 P 0.35642 0.04528 0.6439   1.425465
 P 0.64866 0.97408 0.65165   1.387597
 P 0.95472 0.64358 0.8561   1.425468
 P 0.02592 0.35134 0.84835   1.387628
 P 0.64358 0.95472 0.3561   1.425465
 P 0.35134 0.02592 0.34835   1.387598
 P 0.04528 0.35642 0.1439   1.425468
 P 0.97408 0.64866 0.15165   1.387628
 H 0.4782 0.16 0.8117   0.13099
 H 0.6349 0.1271 0.8107   0.117159
 H 0.5803 0.2251 0.7416   0.119332
 H 0.508 0.824 0.771   0.404251
 H 0.84 0.5218 0.6883   0.13099
 H 0.8729 0.3651 0.6893   0.117159
 H 0.7749 0.4197 0.7584   0.119332
 H 0.176 0.492 0.729   0.40425
 H 0.5218 0.84 0.1883   0.13099
 H 0.3651 0.8729 0.1893   0.117159
 H 0.4197 0.7749 0.2584   0.119332
 H 0.492 0.176 0.229   0.404251
 H 0.16 0.4782 0.3117   0.13099
 H 0.1271 0.6349 0.3107   0.117159
 H 0.2251 0.5803 0.2416   0.119332
 H 0.824 0.508 0.271   0.40425
 Ru 0.54622 0.12006 0.50207   1.068967
 Ru 0.87994 0.45378 0.99793   1.068966
 Ru 0.45378 0.87994 0.49793   1.06908
 Ru 0.12006 0.54622 0.00207   1.069079
 C 0.504 0.0152 0.715   -0.300053
 C 0.5538 0.1432 0.7751   -0.268763
 C 0.9848 0.496 0.785   -0.300064
 C 0.8568 0.4462 0.7249   -0.268761
 C 0.496 0.9848 0.285   -0.300053
 C 0.4462 0.8568 0.2249   -0.268763
 C 0.0152 0.504 0.215   -0.300064
 C 0.1432 0.5538 0.2751   -0.26876
 O 0.41107 0.16807 0.58909   -0.709105
 O 0.31164 0.91088 0.58536   -0.762706
 O 0.24016 0.07722 0.69762   -0.916284
 O 0.69003 0.10125 0.59716   -0.747196
 O 0.59229 0.84389 0.59246   -0.713596
 O 0.76781 0.95005 0.71076   -0.909869
 O 0.44983 0.89857 0.76433   -0.505327
 O 0.83193 0.58893 0.91091   -0.709105
 O 0.08912 0.68836 0.91464   -0.762706
 O 0.92278 0.75984 0.80238   -0.916284
 O 0.89875 0.30997 0.90284   -0.747202
 O 0.15611 0.40771 0.90754   -0.713609
 O 0.04995 0.23219 0.78924   -0.909874
 O 0.10143 0.55017 0.73567   -0.505324
 O 0.58893 0.83193 0.41091   -0.709111
 O 0.68836 0.08912 0.41464   -0.7627
 O 0.75984 0.92278 0.30238   -0.916284
 O 0.30997 0.89875 0.40284   -0.747202
 O 0.40771 0.15611 0.40754   -0.713589
 O 0.23219 0.04995 0.28924   -0.909869
 O 0.55017 0.10143 0.23567   -0.505327
 O 0.16807 0.41107 0.08909   -0.709111
 O 0.91088 0.31164 0.08536   -0.762699
 O 0.07722 0.24016 0.19762   -0.916284
 O 0.10125 0.69003 0.09716   -0.747209
 O 0.84389 0.59229 0.09246   -0.713603
 O 0.95005 0.76781 0.21076   -0.909874
 O 0.89857 0.44983 0.26433   -0.505325
