{'_ref': 'TBD', '_srcid': 'CAKYAQ_clean', 'submitters': [{'name': 'Dalar Nazarian Jeff Camp and David Sholl', 'email': 'dalar@gatech.edu jcamp6@gatech.edu'}], '_method': 'VASP DFT with PBE;DDEC'}
data_HoP4Ru2H8(C2O7)2
_symmetry_space_group_name_H-M   'P 1'
_cell_length_a   9.55149999
_cell_length_b   9.55150044
_cell_length_c   15.39000000
_cell_angle_alpha   92.71050157
_cell_angle_beta   92.71050170
_cell_angle_gamma   98.29969978
_symmetry_Int_Tables_number   1
_chemical_formula_structural   HoP4Ru2H8(C2O7)2
_chemical_formula_sum   'Ho2 P8 Ru4 H16 C8 O28'
_cell_volume   1385.70636495
_cell_formula_units_Z   2
loop_
 _symmetry_equiv_pos_site_id
 _symmetry_equiv_pos_as_xyz
  1  'x, y, z'
loop_
 _atom_site_label
 _atom_site_fract_x
 _atom_site_fract_y
 _atom_site_fract_z
 _atom_site_charge
 Ho 0.00995 0.99005 0.75   2.224498
 Ho 0.99005 0.00995 0.25   2.224762
 P 0.35318 0.04408 0.64512   1.441914
 P 0.65288 0.97686 0.65454   1.41907
 P 0.95592 0.64682 0.85488   1.441913
 P 0.02314 0.34712 0.84546   1.419069
 P 0.64682 0.95592 0.35488   1.44191
 P 0.34712 0.02314 0.34546   1.419063
 P 0.04408 0.35318 0.14512   1.441909
 P 0.97686 0.65288 0.15454   1.419062
 H 0.4247 0.8311 0.7356   0.388313
 H 0.4714 0.166 0.8134   0.137183
 H 0.6283 0.1257 0.8181   0.13004
 H 0.5838 0.2294 0.7464   0.11485
 H 0.1689 0.5753 0.7644   0.388391
 H 0.834 0.5286 0.6866   0.13718
 H 0.8743 0.3717 0.6819   0.130035
 H 0.7706 0.4162 0.7536   0.114775
 H 0.5753 0.1689 0.2644   0.388312
 H 0.5286 0.834 0.1866   0.137195
 H 0.3717 0.8743 0.1819   0.130054
 H 0.4162 0.7706 0.2536   0.114853
 H 0.8311 0.4247 0.2356   0.38839
 H 0.166 0.4714 0.3134   0.137191
 H 0.1257 0.6283 0.3181   0.130049
 H 0.2294 0.5838 0.2464   0.114778
 Ru 0.5453 0.12146 0.50194   1.079084
 Ru 0.87854 0.4547 0.99806   1.079084
 Ru 0.4547 0.87854 0.49806   1.080103
 Ru 0.12146 0.5453 0.00194   1.080104
 C 0.5031 0.0207 0.7163   -0.380823
 C 0.5509 0.1465 0.779   -0.23534
 C 0.9793 0.4969 0.7837   -0.380825
 C 0.8535 0.4491 0.721   -0.235311
 C 0.4969 0.9793 0.2837   -0.38082
 C 0.4491 0.8535 0.221   -0.235348
 C 0.0207 0.5031 0.2163   -0.380822
 C 0.1465 0.5509 0.279   -0.235319
 O 0.4048 0.1648 0.5868   -0.683217
 O 0.3081 0.9097 0.5862   -0.752892
 O 0.2333 0.0715 0.6979   -0.941648
 O 0.6927 0.1055 0.5981   -0.738517
 O 0.5955 0.8441 0.5936   -0.703835
 O 0.7715 0.9523 0.7141   -0.909488
 O 0.455 0.9016 0.7705   -0.477462
 O 0.8352 0.5952 0.9132   -0.683217
 O 0.0903 0.6919 0.9138   -0.752898
 O 0.9285 0.7667 0.8021   -0.94164
 O 0.8945 0.3073 0.9019   -0.738516
 O 0.1559 0.4045 0.9064   -0.703836
 O 0.0477 0.2285 0.7859   -0.90948
 O 0.0984 0.545 0.7295   -0.477488
 O 0.5952 0.8352 0.4132   -0.683309
 O 0.6919 0.0903 0.4138   -0.752853
 O 0.7667 0.9285 0.3021   -0.941659
 O 0.3073 0.8945 0.4019   -0.738596
 O 0.4045 0.1559 0.4064   -0.703811
 O 0.2285 0.0477 0.2859   -0.909496
 O 0.545 0.0984 0.2295   -0.477463
 O 0.1648 0.4048 0.0868   -0.683309
 O 0.9097 0.3081 0.0862   -0.752859
 O 0.0715 0.2333 0.1979   -0.941651
 O 0.1055 0.6927 0.0981   -0.738595
 O 0.8441 0.5955 0.0936   -0.703812
 O 0.9523 0.7715 0.2141   -0.909488
 O 0.9016 0.455 0.2705   -0.477489
