{'_ref': 'TBD', '_srcid': 'CAKYAQ_clean', 'submitters': [{'name': 'Dalar Nazarian Jeff Camp and David Sholl', 'email': 'dalar@gatech.edu jcamp6@gatech.edu'}], '_method': 'VASP DFT with PBE;DDEC'}
data_NdP4Ru2H8(C2O7)2
_symmetry_space_group_name_H-M   'P 1'
_cell_length_a   9.66019950
_cell_length_b   9.66020037
_cell_length_c   15.62500000
_cell_angle_alpha   92.90529772
_cell_angle_beta   92.90529798
_cell_angle_gamma   99.10619766
_symmetry_Int_Tables_number   1
_chemical_formula_structural   NdP4Ru2H8(C2O7)2
_chemical_formula_sum   'Nd2 P8 Ru4 H16 C8 O28'
_cell_volume   1435.33866506
_cell_formula_units_Z   2
loop_
 _symmetry_equiv_pos_site_id
 _symmetry_equiv_pos_as_xyz
  1  'x, y, z'
loop_
 _atom_site_label
 _atom_site_fract_x
 _atom_site_fract_y
 _atom_site_fract_z
 _atom_site_charge
 Nd 0.01135 0.98865 0.75   2.357207
 Nd 0.98865 0.01135 0.25   2.35721
 P 0.35531 0.04489 0.64424   1.373447
 P 0.65005 0.97491 0.65262   1.418956
 P 0.95511 0.64469 0.85576   1.373447
 P 0.02509 0.34995 0.84738   1.418956
 P 0.64469 0.95511 0.35576   1.373447
 P 0.34995 0.02509 0.34738   1.418956
 P 0.04489 0.35531 0.14424   1.373447
 P 0.97491 0.65005 0.15262   1.418956
 H 0.4786 0.1546 0.8163   0.132488
 H 0.6377 0.1285 0.8121   0.121256
 H 0.5754 0.2266 0.7455   0.121275
 H 0.419 0.825 0.732   0.39532
 H 0.8454 0.5214 0.6837   0.132488
 H 0.8715 0.3623 0.6879   0.121256
 H 0.7734 0.4246 0.7545   0.121275
 H 0.175 0.581 0.768   0.395321
 H 0.5214 0.8454 0.1837   0.132488
 H 0.3623 0.8715 0.1879   0.121256
 H 0.4246 0.7734 0.2545   0.121275
 H 0.581 0.175 0.268   0.39532
 H 0.1546 0.4786 0.3163   0.132488
 H 0.1285 0.6377 0.3121   0.121256
 H 0.2266 0.5754 0.2455   0.121275
 H 0.825 0.419 0.232   0.39532
 Ru 0.54603 0.12039 0.50221   1.065447
 Ru 0.87961 0.45397 0.99779   1.065447
 Ru 0.45397 0.87961 0.49779   1.06558
 Ru 0.12039 0.54603 0.00221   1.06558
 C 0.5058 0.0154 0.7162   -0.326419
 C 0.5536 0.1426 0.778   -0.242784
 C 0.9846 0.4942 0.7838   -0.326419
 C 0.8574 0.4464 0.722   -0.242784
 C 0.4942 0.9846 0.2838   -0.326419
 C 0.4464 0.8574 0.222   -0.242783
 C 0.0154 0.5058 0.2162   -0.326419
 C 0.1426 0.5536 0.278   -0.242783
 O 0.4097 0.1685 0.58889   -0.685656
 O 0.3106 0.91 0.58562   -0.764456
 O 0.2354 0.0776 0.69856   -0.923245
 O 0.6908 0.1018 0.59825   -0.752402
 O 0.59252 0.84388 0.59238   -0.715792
 O 0.76883 0.95137 0.71214   -0.906074
 O 0.4501 0.8987 0.766   -0.490032
 O 0.8315 0.5903 0.91111   -0.685656
 O 0.09 0.6894 0.91438   -0.764456
 O 0.9224 0.7646 0.80144   -0.923245
 O 0.8982 0.3092 0.90175   -0.752402
 O 0.15612 0.40748 0.90762   -0.715791
 O 0.04863 0.23117 0.78786   -0.906074
 O 0.1013 0.5499 0.734   -0.490032
 O 0.5903 0.8315 0.41111   -0.685664
 O 0.6894 0.09 0.41438   -0.764449
 O 0.7646 0.9224 0.30144   -0.923245
 O 0.3092 0.8982 0.40175   -0.75241
 O 0.40748 0.15612 0.40762   -0.715784
 O 0.23117 0.04863 0.28786   -0.906074
 O 0.5499 0.1013 0.234   -0.490032
 O 0.1685 0.4097 0.08889   -0.685664
 O 0.91 0.3106 0.08562   -0.764449
 O 0.0776 0.2354 0.19856   -0.923245
 O 0.1018 0.6908 0.09825   -0.75241
 O 0.84388 0.59252 0.09238   -0.715784
 O 0.95137 0.76883 0.21214   -0.906074
 O 0.8987 0.4501 0.266   -0.490032
