{'_ref': 'TBD', '_srcid': 'CAKYAQ_clean', 'submitters': [{'name': 'Dalar Nazarian Jeff Camp and David Sholl', 'email': 'dalar@gatech.edu jcamp6@gatech.edu'}], '_method': 'VASP DFT with PBE;DDEC'}
data_PrP4Ru2H12(CO4)4
_symmetry_space_group_name_H-M   'P 1'
_cell_length_a   9.94019981
_cell_length_b   9.94019985
_cell_length_c   15.69000000
_cell_angle_alpha   92.46620001
_cell_angle_beta   92.46620002
_cell_angle_gamma   97.17810288
_symmetry_Int_Tables_number   1
_chemical_formula_structural   PrP4Ru2H12(CO4)4
_chemical_formula_sum   'Pr2 P8 Ru4 H24 C8 O32'
_cell_volume   1534.88232538
_cell_formula_units_Z   2
loop_
 _symmetry_equiv_pos_site_id
 _symmetry_equiv_pos_as_xyz
  1  'x, y, z'
loop_
 _atom_site_label
 _atom_site_fract_x
 _atom_site_fract_y
 _atom_site_fract_z
 _atom_site_charge
 Pr 0.01058 0.98942 0.75   2.185032
 Pr 0.98942 0.01058 0.25   2.185032
 P 0.35683 0.04635 0.64161   1.198859
 P 0.64974 0.9774 0.65167   1.16322
 P 0.95365 0.64317 0.85839   1.19886
 P 0.0226 0.35026 0.84833   1.16322
 P 0.64317 0.95365 0.35839   1.19886
 P 0.35026 0.0226 0.34833   1.16322
 P 0.04635 0.35683 0.14161   1.198861
 P 0.9774 0.64974 0.15167   1.16322
 H 0.4301 0.8475 0.7207   0.416242
 H 0.9302 0.119 0.8873   0.44129
 H 0.8493 0.9855 0.8787   0.508147
 H 0.5496 0.1286 0.8306   0.128428
 H 0.6472 0.1766 0.7562   0.090737
 H 0.4966 0.2176 0.7566   0.132696
 H 0.1525 0.5699 0.7793   0.41623
 H 0.881 0.0698 0.6127   0.441288
 H 0.0145 0.1507 0.6213   0.508146
 H 0.8714 0.4504 0.6694   0.128427
 H 0.8234 0.3528 0.7438   0.090738
 H 0.7824 0.5034 0.7434   0.132685
 H 0.5699 0.1525 0.2793   0.416241
 H 0.0698 0.881 0.1127   0.441291
 H 0.1507 0.0145 0.1213   0.508147
 H 0.4504 0.8714 0.1694   0.128428
 H 0.3528 0.8234 0.2438   0.090738
 H 0.5034 0.7824 0.2434   0.132697
 H 0.8475 0.4301 0.2207   0.41623
 H 0.119 0.9302 0.3873   0.441289
 H 0.9855 0.8493 0.3787   0.508146
 H 0.1286 0.5496 0.3306   0.128428
 H 0.1766 0.6472 0.2562   0.090738
 H 0.2176 0.4966 0.2566   0.132686
 Ru 0.54469 0.11899 0.50338   0.986104
 Ru 0.88101 0.45531 0.99662   0.986104
 Ru 0.45531 0.88101 0.49662   0.986182
 Ru 0.11899 0.54469 0.00338   0.986182
 C 0.5013 0.0187 0.7173   -0.211763
 C 0.5533 0.1465 0.7698   -0.254778
 C 0.9813 0.4987 0.7827   -0.211765
 C 0.8535 0.4467 0.7302   -0.254774
 C 0.4987 0.9813 0.2827   -0.211763
 C 0.4467 0.8535 0.2302   -0.254778
 C 0.0187 0.5013 0.2173   -0.211766
 C 0.1465 0.5533 0.2698   -0.254774
 O 0.4072 0.1688 0.5912   -0.649364
 O 0.3057 0.9051 0.5804   -0.69878
 O 0.237 0.0768 0.6987   -0.85566
 O 0.6882 0.1016 0.5959   -0.688079
 O 0.5847 0.8433 0.5971   -0.672167
 O 0.7562 0.9374 0.7222   -0.801821
 O 0.4603 0.9181 0.7556   -0.430298
 O 0.9319 0.0317 0.8766   -0.895563
 O 0.8312 0.5928 0.9088   -0.649364
 O 0.0949 0.6943 0.9196   -0.69878
 O 0.9232 0.763 0.8013   -0.85566
 O 0.8984 0.3118 0.9041   -0.688079
 O 0.1567 0.4153 0.9029   -0.672167
 O 0.0626 0.2438 0.7778   -0.801821
 O 0.0819 0.5397 0.7444   -0.430294
 O 0.9683 0.0681 0.6234   -0.895559
 O 0.5928 0.8312 0.4088   -0.649371
 O 0.6943 0.0949 0.4196   -0.698772
 O 0.763 0.9232 0.3013   -0.85566
 O 0.3118 0.8984 0.4041   -0.688086
 O 0.4153 0.1567 0.4029   -0.67216
 O 0.2438 0.0626 0.2778   -0.801821
 O 0.5397 0.0819 0.2444   -0.430298
 O 0.0681 0.9683 0.1234   -0.895563
 O 0.1688 0.4072 0.0912   -0.649372
 O 0.9051 0.3057 0.0804   -0.698771
 O 0.0768 0.237 0.1987   -0.85566
 O 0.1016 0.6882 0.0959   -0.688086
 O 0.8433 0.5847 0.0971   -0.672159
 O 0.9374 0.7562 0.2222   -0.801821
 O 0.9181 0.4603 0.2556   -0.430294
 O 0.0317 0.9319 0.3766   -0.89556
