{'_ref': 'TBD', '_srcid': 'CAKYAQ_clean', 'submitters': [{'name': 'Dalar Nazarian Jeff Camp and David Sholl', 'email': 'dalar@gatech.edu jcamp6@gatech.edu'}], '_method': 'VASP DFT with PBE;DDEC'}
data_CoH10(C2N)4
_symmetry_space_group_name_H-M   'P 1'
_cell_length_a   14.68680041
_cell_length_b   14.68680031
_cell_length_c   14.68680000
_cell_angle_alpha   109.47100090
_cell_angle_beta   109.47100077
_cell_angle_gamma   109.47099784
_symmetry_Int_Tables_number   1
_chemical_formula_structural   CoH10(C2N)4
_chemical_formula_sum   'Co6 H60 C48 N24'
_cell_volume   2438.72720597
_cell_formula_units_Z   6
loop_
 _symmetry_equiv_pos_site_id
 _symmetry_equiv_pos_as_xyz
  1  'x, y, z'
loop_
 _atom_site_label
 _atom_site_fract_x
 _atom_site_fract_y
 _atom_site_fract_z
 _atom_site_charge
 Co 0.75 0.25 0.5   0.83026
 Co 0.25 0.75 0.5   0.841307
 Co 0.5 0.25 0.75   0.84393
 Co 0.5 0.75 0.25   0.843946
 Co 0.25 0.5 0.75   0.843478
 Co 0.75 0.5 0.25   0.831418
 H 0.57397 0.35508 0.47164   0.099051
 H 0.88344 0.10233 0.52836   0.101015
 H 0.11656 0.64492 0.21889   0.09917
 H 0.42603 0.89767 0.78111   0.099543
 H 0.21889 0.11656 0.64492   0.098624
 H 0.78111 0.42603 0.89767   0.100912
 H 0.47164 0.57397 0.35508   0.098155
 H 0.52836 0.88344 0.10233   0.100062
 H 0.10233 0.52836 0.88344   0.102041
 H 0.35508 0.47164 0.57397   0.098567
 H 0.89767 0.78111 0.42603   0.099655
 H 0.64492 0.21889 0.11656   0.09912
 H 0.10233 0.88344 0.52836   0.099258
 H 0.35508 0.57397 0.47164   0.099145
 H 0.89767 0.42603 0.78111   0.102496
 H 0.64492 0.11656 0.21889   0.098671
 H 0.57397 0.47164 0.35508   0.099379
 H 0.88344 0.52836 0.10233   0.100251
 H 0.11656 0.21889 0.64492   0.099517
 H 0.42603 0.78111 0.89767   0.099139
 H 0.21889 0.64492 0.11656   0.100853
 H 0.78111 0.89767 0.42603   0.098624
 H 0.47164 0.35508 0.57397   0.100109
 H 0.52836 0.10233 0.88344   0.098113
 H 0.73573 0.17368 0.6461   0.140506
 H 0.60859 0.10522 0.65348   0.153575
 H 0.72864 0.2424 0.77337   0.132593
 H 0.43702 0.91427 0.28637   0.142285
 H 0.50257 0.02021 0.25164   0.126734
 H 0.50876 0.06552 0.38904   0.149651
 H 0.55908 0.87359 0.48724   0.149121
 H 0.51259 0.74757 0.50211   0.127175
 H 0.47998 0.85754 0.56231   0.141826
 H 0.30435 0.92212 0.43892   0.146681
 H 0.38268 0.07735 0.51644   0.143581
 H 0.24002 0.000529999999998 0.49299   0.126202
 H 0.49743 0.51764 0.74907   0.127154
 H 0.56298 0.47725 0.84935   0.142606
 H 0.49124 0.55676 0.88028   0.14979
 H 0.48741 0.23498 0.98952   0.126852
 H 0.44092 0.3145 0.92815   0.148858
 H 0.52002 0.37756 0.08233   0.141894
 H 0.61732 0.69468 0.13376   0.143547
 H 0.69565 0.61777 0.13457   0.146856
 H 0.75998 0.76051 0.25297   0.126398
 H 0.39141 0.49663 0.0449   0.153585
 H 0.26427 0.43796 0.91037   0.140072
 H 0.27136 0.51376 0.04473   0.132366
 H 0.05231 0.39141 0.50087   0.149058
 H 0.91082 0.27132 0.4372   0.141054
 H 0.03687 0.26431 0.51028   0.129685
 H 0.1288 0.61477 0.68855   0.146422
 H 0.13978 0.70174 0.62079   0.144691
 H 0.25272 0.75644 0.76362   0.126835
 H 0.02356 0.50415 0.25396   0.127225
 H 0.91333 0.43692 0.28333   0.142857
 H 0.06311 0.50728 0.38975   0.146536
 H 0.86022 0.56196 0.481   0.144785
 H 0.8712 0.48597 0.55975   0.147353
 H 0.74728 0.50372 0.5109   0.125281
 C 0.5855 0.3202 0.5307   -0.050578
 C 0.7895 0.0548 0.4693   -0.048423
 C 0.2105 0.6798 0.2653   -0.047112
 C 0.4145 0.9452 0.7347   -0.048558
 C 0.2653 0.2105 0.6798   -0.044219
 C 0.7347 0.4145 0.9452   -0.054208
 C 0.5307 0.5855 0.3202   -0.045165
 C 0.4693 0.7895 0.0548   -0.044093
 C 0.0548 0.4693 0.7895   -0.044962
 C 0.3202 0.5307 0.5855   -0.04798
 C 0.9452 0.7347 0.4145   -0.050092
 C 0.6798 0.2653 0.2105   -0.046916
 C 0.0548 0.7895 0.4693   -0.0454
 C 0.3202 0.5855 0.5307   -0.045831
 C 0.9452 0.4145 0.7347   -0.051209
 C 0.6798 0.2105 0.2653   -0.050652
 C 0.5855 0.5307 0.3202   -0.049309
 C 0.7895 0.4693 0.0548   -0.044041
 C 0.2105 0.2653 0.6798   -0.052393
 C 0.4145 0.7347 0.9452   -0.049433
 C 0.2653 0.6798 0.2105   -0.052046
 C 0.7347 0.9452 0.4145   -0.047003
 C 0.5307 0.3202 0.5855   -0.043895
 C 0.4693 0.0548 0.7895   -0.045192
 C 0.63 0.2468 0.63   0.482174
 C 0.6786 0.1886 0.6786   -0.487477
 C 0.6168 0.0 0.37   0.48774
 C 0.51 0.0 0.3214   -0.481666
 C 0.3832 0.7532 0.3832   0.490136
 C 0.49 0.8114 0.49   -0.483404
 C 0.37 0.0 0.6168   0.482944
 C 0.3214 0.0 0.51   -0.481308
 C 0.3832 0.3832 0.7532   0.488879
 C 0.49 0.49 0.8114   -0.482499
 C 0.6168 0.37 0.0   0.489323
 C 0.51 0.3214 0.0   -0.482954
 C 0.63 0.63 0.2468   0.48256
 C 0.6786 0.6786 0.1886   -0.481224
 C 0.37 0.6168 0.0   0.482703
 C 0.3214 0.51 0.0   -0.487322
 C 0.0 0.37 0.6168   0.483892
 C 0.0 0.3214 0.51   -0.481139
 C 0.2468 0.63 0.63   0.479998
 C 0.1886 0.6786 0.6786   -0.481985
 C 0.0 0.6168 0.37   0.486185
 C 0.0 0.51 0.3214   -0.48025
 C 0.7532 0.3832 0.3832   0.490952
 C 0.8114 0.49 0.49   -0.480159
 N 0.6519 0.2735 0.5588   -0.467276
 N 0.7147 0.0931 0.4412   -0.471314
 N 0.2853 0.7265 0.3784   -0.473168
 N 0.3481 0.9069 0.6216   -0.473391
 N 0.3784 0.2853 0.7265   -0.474764
 N 0.6216 0.3481 0.9069   -0.474483
 N 0.5588 0.6519 0.2735   -0.471026
 N 0.4412 0.7147 0.0931   -0.476684
 N 0.0931 0.4412 0.7147   -0.479347
 N 0.2735 0.5588 0.6519   -0.471471
 N 0.9069 0.6216 0.3481   -0.469385
 N 0.7265 0.3784 0.2853   -0.471009
 N 0.0931 0.7147 0.4412   -0.47413
 N 0.2735 0.6519 0.5588   -0.473103
 N 0.9069 0.3481 0.6216   -0.472971
 N 0.7265 0.2853 0.3784   -0.467887
 N 0.6519 0.5588 0.2735   -0.470391
 N 0.7147 0.4412 0.0931   -0.473011
 N 0.2853 0.3784 0.7265   -0.471705
 N 0.3481 0.6216 0.9069   -0.471427
 N 0.3784 0.7265 0.2853   -0.474851
 N 0.6216 0.9069 0.3481   -0.474284
 N 0.5588 0.2735 0.6519   -0.476731
 N 0.4412 0.0931 0.7147   -0.471077
