{'_ref': 'TBD', '_srcid': 'CAKYAQ_clean', 'submitters': [{'name': 'Dalar Nazarian Jeff Camp and David Sholl', 'email': 'dalar@gatech.edu jcamp6@gatech.edu'}], '_method': 'VASP DFT with PBE;DDEC'}
data_CdH6C8S2N5
_symmetry_space_group_name_H-M   'P 1'
_cell_length_a   12.37160000
_cell_length_b   13.39950000
_cell_length_c   14.77459968
_cell_angle_alpha   90.00000000
_cell_angle_beta   99.19010204
_cell_angle_gamma   90.00000000
_symmetry_Int_Tables_number   1
_chemical_formula_structural   CdH6C8S2N5
_chemical_formula_sum   'Cd8 H48 C64 S16 N40'
_cell_volume   2417.79478962
_cell_formula_units_Z   8
loop_
 _symmetry_equiv_pos_site_id
 _symmetry_equiv_pos_as_xyz
  1  'x, y, z'
loop_
 _atom_site_label
 _atom_site_fract_x
 _atom_site_fract_y
 _atom_site_fract_z
 _atom_site_charge
 Cd 0.051389 0.197981 0.438991   0.780409
 Cd 0.051389 0.697981 0.938991   0.780409
 Cd 0.448611 0.197981 0.561009   0.780409
 Cd 0.448611 0.697981 0.061009   0.780409
 Cd 0.948611 0.802019 0.561009   0.780409
 Cd 0.948611 0.302019 0.061009   0.780409
 Cd 0.551389 0.802019 0.438991   0.780409
 Cd 0.551389 0.302019 0.938991   0.780409
 H 0.8487 0.2383 0.5556   0.049436
 H 0.8487 0.7383 0.0556   0.049436
 H 0.6513 0.2383 0.4444   0.049436
 H 0.6513 0.7383 0.9444   0.049436
 H 0.1513 0.7617 0.4444   0.049436
 H 0.1513 0.2617 0.9444   0.049436
 H 0.3487 0.7617 0.5556   0.049436
 H 0.3487 0.2617 0.0556   0.049436
 H 0.8042 0.3253 0.6789   0.110017
 H 0.8042 0.8253 0.1789   0.110017
 H 0.6958 0.3253 0.3211   0.110017
 H 0.6958 0.8253 0.8211   0.110017
 H 0.1958 0.6747 0.3211   0.110017
 H 0.1958 0.1747 0.8211   0.110017
 H 0.3042 0.6747 0.6789   0.110017
 H 0.3042 0.1747 0.1789   0.110017
 H 0.937 0.4198 0.7676   0.098647
 H 0.937 0.9198 0.2676   0.098647
 H 0.563 0.4198 0.2324   0.098647
 H 0.563 0.9198 0.7324   0.098647
 H 0.063 0.5802 0.2324   0.098647
 H 0.063 0.0802 0.7324   0.098647
 H 0.437 0.5802 0.7676   0.098647
 H 0.437 0.0802 0.2676   0.098647
 H 0.1108 0.427 0.7285   0.091868
 H 0.1108 0.927 0.2285   0.091868
 H 0.3892 0.427 0.2715   0.091868
 H 0.3892 0.927 0.7715   0.091868
 H 0.8892 0.573 0.2715   0.091868
 H 0.8892 0.073 0.7715   0.091868
 H 0.6108 0.573 0.7285   0.091868
 H 0.6108 0.073 0.2285   0.091868
 H 0.3283 0.3953 0.6304   0.334704
 H 0.3283 0.8953 0.1304   0.334704
 H 0.1717 0.3953 0.3696   0.334704
 H 0.1717 0.8953 0.8696   0.334704
 H 0.6717 0.6047 0.3696   0.334704
 H 0.6717 0.1047 0.8696   0.334704
 H 0.8283 0.6047 0.6304   0.334704
 H 0.8283 0.1047 0.1304   0.334704
 H 0.2513 0.4094 0.6973   0.31041
 H 0.2513 0.9094 0.1973   0.31041
 H 0.2487 0.4094 0.3027   0.31041
 H 0.2487 0.9094 0.8027   0.31041
 H 0.7487 0.5906 0.3027   0.31041
 H 0.7487 0.0906 0.8027   0.31041
 H 0.7513 0.5906 0.6973   0.31041
 H 0.7513 0.0906 0.1973   0.31041
 C 0.9019 0.2771 0.5908   0.174391
 C 0.9019 0.7771 0.0908   0.174391
 C 0.5981 0.2771 0.4092   0.174391
 C 0.5981 0.7771 0.9092   0.174391
 C 0.0981 0.7229 0.4092   0.174391
 C 0.0981 0.2229 0.9092   0.174391
 C 0.4019 0.7229 0.5908   0.174391
 C 0.4019 0.2229 0.0908   0.174391
 C 0.8748 0.3287 0.6648   -0.159086
 C 0.8748 0.8287 0.1648   -0.159086
 C 0.6252 0.3287 0.3352   -0.159086
 C 0.6252 0.8287 0.8352   -0.159086
 C 0.1252 0.6713 0.3352   -0.159086
 C 0.1252 0.1713 0.8352   -0.159086
 C 0.3748 0.6713 0.6648   -0.159086
 C 0.3748 0.1713 0.1648   -0.159086
 C 0.9531 0.3849 0.7171   0.028246
 C 0.9531 0.8849 0.2171   0.028246
 C 0.5469 0.3849 0.2829   0.028246
 C 0.5469 0.8849 0.7829   0.028246
 C 0.0469 0.6151 0.2829   0.028246
 C 0.0469 0.1151 0.7829   0.028246
 C 0.4531 0.6151 0.7171   0.028246
 C 0.4531 0.1151 0.2171   0.028246
 C 0.0563 0.3891 0.6938   -0.137097
 C 0.0563 0.8891 0.1938   -0.137097
 C 0.4437 0.3891 0.3062   -0.137097
 C 0.4437 0.8891 0.8062   -0.137097
 C 0.9437 0.6109 0.3062   -0.137097
 C 0.9437 0.1109 0.8062   -0.137097
 C 0.5563 0.6109 0.6938   -0.137097
 C 0.5563 0.1109 0.1938   -0.137097
 C 0.0783 0.3367 0.6188   0.148066
 C 0.0783 0.8367 0.1188   0.148066
 C 0.4217 0.3367 0.3812   0.148066
 C 0.4217 0.8367 0.8812   0.148066
 C 0.9217 0.6633 0.3812   0.148066
 C 0.9217 0.1633 0.8812   0.148066
 C 0.5783 0.6633 0.6188   0.148066
 C 0.5783 0.1633 0.1188   0.148066
 C 0.1868 0.3398 0.58929   0.382735
 C 0.1868 0.8398 0.08929   0.382735
 C 0.3132 0.3398 0.41071   0.382734
 C 0.3132 0.8398 0.91071   0.382734
 C 0.8132 0.6602 0.41071   0.382735
 C 0.8132 0.1602 0.91071   0.382735
 C 0.6868 0.6602 0.58929   0.382734
 C 0.6868 0.1602 0.08929   0.382734
 C 0.1281 0.9898 0.56742   0.33897
 C 0.1281 0.4898 0.06742   0.33897
 C 0.3719 0.9898 0.43258   0.33897
 C 0.3719 0.4898 0.93258   0.33897
 C 0.8719 0.0102 0.43258   0.33897
 C 0.8719 0.5102 0.93258   0.33897
 C 0.6281 0.0102 0.56742   0.338971
 C 0.6281 0.5102 0.06742   0.338971
 C 0.9243 0.3501 0.27667   0.32952
 C 0.9243 0.8501 0.77667   0.32952
 C 0.5757 0.3501 0.72333   0.32952
 C 0.5757 0.8501 0.22333   0.32952
 C 0.0757 0.6499 0.72333   0.32952
 C 0.0757 0.1499 0.22333   0.32952
 C 0.4243 0.6499 0.27667   0.32952
 C 0.4243 0.1499 0.77667   0.32952
 S 0.14614 0.88025 0.6188   -0.339321
 S 0.14614 0.38025 0.1188   -0.339321
 S 0.35386 0.88025 0.3812   -0.339321
 S 0.35386 0.38025 0.8812   -0.339321
 S 0.85386 0.11975 0.3812   -0.339321
 S 0.85386 0.61975 0.8812   -0.339321
 S 0.64614 0.11975 0.6188   -0.339321
 S 0.64614 0.61975 0.1188   -0.339321
 S 0.83672 0.37814 0.1843   -0.318542
 S 0.83672 0.87814 0.6843   -0.318542
 S 0.66328 0.37814 0.8157   -0.318542
 S 0.66328 0.87814 0.3157   -0.318542
 S 0.16328 0.62186 0.8157   -0.318542
 S 0.16328 0.12186 0.3157   -0.318542
 S 0.33672 0.62186 0.1843   -0.318542
 S 0.33672 0.12186 0.6843   -0.318542
 N 0.0019 0.2811 0.56789   -0.307373
 N 0.0019 0.7811 0.06789   -0.307373
 N 0.4981 0.2811 0.43211   -0.307374
 N 0.4981 0.7811 0.93211   -0.307374
 N 0.9981 0.7189 0.43211   -0.307373
 N 0.9981 0.2189 0.93211   -0.307373
 N 0.5019 0.7189 0.56789   -0.307373
 N 0.5019 0.2189 0.06789   -0.307373
 N 0.19645 0.30296 0.51025   -0.295859
 N 0.19645 0.80296 0.01025   -0.295859
 N 0.30355 0.30296 0.48975   -0.295852
 N 0.30355 0.80296 0.98975   -0.295852
 N 0.80355 0.69704 0.48975   -0.295859
 N 0.80355 0.19704 0.98975   -0.295859
 N 0.69645 0.69704 0.51025   -0.295852
 N 0.69645 0.19704 0.01025   -0.295852
 N 0.2646 0.387 0.6456   -0.628493
 N 0.2646 0.887 0.1456   -0.628493
 N 0.2354 0.387 0.3544   -0.628492
 N 0.2354 0.887 0.8544   -0.628492
 N 0.7354 0.613 0.3544   -0.628493
 N 0.7354 0.113 0.8544   -0.628493
 N 0.7646 0.613 0.6456   -0.628492
 N 0.7646 0.113 0.1456   -0.628492
 N 0.116 0.0667 0.53335   -0.470581
 N 0.116 0.5667 0.03335   -0.470581
 N 0.384 0.0667 0.46665   -0.470581
 N 0.384 0.5667 0.96665   -0.470581
 N 0.884 0.9333 0.46665   -0.470581
 N 0.884 0.4333 0.96665   -0.470581
 N 0.616 0.9333 0.53335   -0.470581
 N 0.616 0.4333 0.03335   -0.470581
 N 0.9843 0.332 0.34274   -0.521072
 N 0.9843 0.832 0.84274   -0.521072
 N 0.5157 0.332 0.65726   -0.521072
 N 0.5157 0.832 0.15726   -0.521072
 N 0.0157 0.668 0.65726   -0.521072
 N 0.0157 0.168 0.15726   -0.521072
 N 0.4843 0.668 0.34274   -0.521072
 N 0.4843 0.168 0.84274   -0.521072
