{'_ref': 'TBD', '_srcid': 'CAKYAQ_clean', 'submitters': [{'name': 'Dalar Nazarian Jeff Camp and David Sholl', 'email': 'dalar@gatech.edu jcamp6@gatech.edu'}], '_method': 'VASP DFT with PBE;DDEC'}
data_La2H24C51(O2F3)6
_symmetry_space_group_name_H-M   'P 1'
_cell_length_a   7.55999975
_cell_length_b   24.89140000
_cell_length_c   29.67520000
_cell_angle_alpha   90.00000000
_cell_angle_beta   90.85399644
_cell_angle_gamma   90.00000000
_symmetry_Int_Tables_number   1
_chemical_formula_structural   La2H24C51(O2F3)6
_chemical_formula_sum   'La8 H96 C204 O48 F72'
_cell_volume   5583.62851389
_cell_formula_units_Z   4
loop_
 _symmetry_equiv_pos_site_id
 _symmetry_equiv_pos_as_xyz
  1  'x, y, z'
loop_
 _atom_site_label
 _atom_site_fract_x
 _atom_site_fract_y
 _atom_site_fract_z
 _atom_site_charge
 La 0.93699 0.27861 0.0025   2.159267
 La 0.4331 0.27421 0.96723   2.15988
 La 0.56301 0.77861 0.4975   2.159267
 La 0.0669 0.77421 0.53277   2.15988
 La 0.06301 0.72139 0.9975   2.159267
 La 0.5669 0.72579 0.03277   2.15988
 La 0.43699 0.22139 0.5025   2.159267
 La 0.9331 0.22579 0.46723   2.15988
 H 0.157 0.216 0.1567   0.097927
 H 0.336 0.2162 0.2199   0.114781
 H 0.6968 0.3025 0.1555   0.110725
 H 0.5251 0.3019 0.0921   0.083277
 H 0.3595 0.3155 0.2614   0.105656
 H 0.169 0.3092 0.3212   0.103356
 H 0.4974 0.2019 0.3785   0.077457
 H 0.6743 0.2062 0.3169   0.103941
 H 0.1239 0.6041 0.055   0.082705
 H 0.2945 0.5431 0.0926   0.11086
 H 0.9041 0.5098 0.1754   0.110242
 H 0.7318 0.5743 0.1406   0.094442
 H 0.1829 0.4366 0.081   0.114603
 H 0.3542 0.3941 0.0293   0.094084
 H 0.7784 0.419 0.1082   0.084453
 H 0.6091 0.4634 0.1599   0.105298
 H 0.0097 0.9186 0.0268   0.10232
 H 0.9423 0.9954 0.0658   0.112327
 H 0.6818 0.9095 0.1571   0.103348
 H 0.7323 0.8326 0.1147   0.099292
 H 0.876 0.1191 0.1426   0.098695
 H 0.794 0.1871 0.0943   0.094361
 H 0.484 0.0862 0.0261   0.100636
 H 0.5639 0.0172 0.0731   0.119481
 H 0.343 0.716 0.3433   0.097927
 H 0.164 0.7162 0.2801   0.114781
 H 0.8032 0.8025 0.3445   0.110725
 H 0.9749 0.8019 0.4079   0.083277
 H 0.1405 0.8155 0.2386   0.105656
 H 0.331 0.8092 0.1788   0.103358
 H 0.0026 0.7019 0.1215   0.077457
 H 0.8257 0.7062 0.1831   0.103941
 H 0.3761 0.1041 0.445   0.082705
 H 0.2055 0.0431 0.4074   0.11086
 H 0.5959 0.0098 0.3246   0.110242
 H 0.7682 0.0743 0.3594   0.094443
 H 0.3171 0.9366 0.419   0.114603
 H 0.1458 0.8941 0.4707   0.094084
 H 0.7216 0.919 0.3918   0.084453
 H 0.8909 0.9634 0.3401   0.105298
 H 0.4903 0.4186 0.4732   0.10232
 H 0.5577 0.4954 0.4342   0.112327
 H 0.8182 0.4095 0.3429   0.10335
 H 0.7677 0.3326 0.3853   0.099292
 H 0.624 0.6191 0.3574   0.098695
 H 0.706 0.6871 0.4057   0.094361
 H 0.016 0.5862 0.4739   0.100636
 H 0.9361 0.5172 0.4269   0.119481
 H 0.843 0.784 0.8433   0.097927
 H 0.664 0.7838 0.7801   0.114781
 H 0.3032 0.6975 0.8445   0.110725
 H 0.4749 0.6981 0.9079   0.083277
 H 0.6405 0.6845 0.7386   0.105656
 H 0.831 0.6908 0.6788   0.103356
 H 0.5026 0.7981 0.6215   0.077457
 H 0.3257 0.7938 0.6831   0.103941
 H 0.8761 0.3959 0.945   0.082705
 H 0.7055 0.4569 0.9074   0.11086
 H 0.0959 0.4902 0.8246   0.110242
 H 0.2682 0.4257 0.8594   0.094442
 H 0.8171 0.5634 0.919   0.114603
 H 0.6458 0.6059 0.9707   0.094084
 H 0.2216 0.581 0.8918   0.084453
 H 0.3909 0.5366 0.8401   0.105298
 H 0.9903 0.0814 0.9732   0.102322
 H 0.0577 0.0046 0.9342   0.112329
 H 0.3182 0.0905 0.8429   0.103348
 H 0.2677 0.1674 0.8853   0.099292
 H 0.124 0.8809 0.8574   0.098695
 H 0.206 0.8129 0.9057   0.094361
 H 0.516 0.9138 0.9739   0.100636
 H 0.4361 0.9828 0.9269   0.119481
 H 0.657 0.284 0.6567   0.097927
 H 0.836 0.2838 0.7199   0.114781
 H 0.1968 0.1975 0.6555   0.110725
 H 0.0251 0.1981 0.5921   0.083277
 H 0.8595 0.1845 0.7614   0.105656
 H 0.669 0.1908 0.8212   0.103358
 H 0.9974 0.2981 0.8785   0.077457
 H 0.1743 0.2938 0.8169   0.103941
 H 0.6239 0.8959 0.555   0.082705
 H 0.7945 0.9569 0.5926   0.11086
 H 0.4041 0.9902 0.6754   0.110242
 H 0.2318 0.9257 0.6406   0.094443
 H 0.6829 0.0634 0.581   0.114603
 H 0.8542 0.1059 0.5293   0.094084
 H 0.2784 0.081 0.6082   0.084453
 H 0.1091 0.0366 0.6599   0.105298
 H 0.5097 0.5814 0.5268   0.102322
 H 0.4423 0.5046 0.5658   0.112329
 H 0.1818 0.5905 0.6571   0.10335
 H 0.2323 0.6674 0.6147   0.099292
 H 0.376 0.3809 0.6426   0.098695
 H 0.294 0.3129 0.5943   0.094361
 H 0.984 0.4138 0.5261   0.100636
 H 0.0639 0.4828 0.5731   0.119481
 C 0.1962 0.2608 0.0799   0.74982
 C 0.316 0.259 0.1182   -0.175521
 C 0.2651 0.2338 0.1562   0.00663
 C 0.3723 0.2344 0.1943   -0.139781
 C 0.5326 0.2614 0.1951   0.090265
 C 0.5872 0.2855 0.1559   -0.156145
 C 0.4856 0.2852 0.1181   0.025252
 C 0.6454 0.2608 0.2391   -0.300191
 C 0.7718 0.2111 0.2353   0.683799
 C 0.7562 0.3132 0.2433   0.684799
 C 0.5308 0.2587 0.2817   0.092127
 C 0.3839 0.2913 0.2845   -0.141554
 C 0.2717 0.2886 0.321   -0.002314
 C 0.3123 0.2556 0.3569   -0.16908
 C 0.4665 0.2244 0.3547   0.016572
 C 0.5718 0.2269 0.3176   -0.147191
 C 0.1901 0.2499 0.3954   0.751452
 C 0.7921 0.6359 0.0704   0.73482
 C 0.9059 0.5957 0.0936   -0.17539
 C 0.0783 0.5857 0.0795   0.00682
 C 0.1792 0.5487 0.1021   -0.134033
 C 0.121 0.5197 0.1373   0.093198
 C 0.9492 0.5292 0.1515   -0.149502
 C 0.8449 0.5676 0.1301   0.003457
 C 0.2484 0.4797 0.1614   -0.311079
 C 0.1525 0.432 0.1834   0.694412
 C 0.346 0.5119 0.198   0.696787
 C 0.3755 0.4537 0.1265   0.084726
 C 0.3037 0.433 0.0866   -0.141611
 C 0.4057 0.4077 0.0556   0.013332
 C 0.5826 0.4022 0.0631   -0.178553
 C 0.6576 0.423 0.1028   0.00262
 C 0.5569 0.449 0.134   -0.155199
 C 0.7047 0.37 0.0339   0.728182
 C 0.9191 0.8181 0.0402   0.7562
 C 0.8768 0.8672 0.0671   -0.16476
 C 0.9413 0.9167 0.0525   -0.011236
 C 0.903 0.9623 0.0763   -0.153588
 C 0.81 0.9599 0.115   0.098473
 C 0.745 0.9113 0.1305   -0.152209
 C 0.7784 0.8654 0.1053   0.014319
 C 0.792 0.0128 0.1427   -0.309003
 C 0.973 0.0236 0.1665   0.697042
 C 0.655 0.0086 0.1791   0.697527
 C 0.736 0.0596 0.1115   0.096354
 C 0.8 0.1119 0.1185   -0.153531
 C 0.7496 0.1527 0.0896   0.017531
 C 0.6369 0.1437 0.0546   -0.159813
 C 0.5659 0.0925 0.0492   -0.003129
 C 0.614 0.0511 0.0771   -0.154555
 C 0.5886 0.1864 0.0224   0.73324
 C 0.3038 0.7608 0.4201   0.74982
 C 0.184 0.759 0.3818   -0.175521
 C 0.2349 0.7338 0.3438   0.00663
 C 0.1277 0.7344 0.3057   -0.139781
 C 0.9674 0.7614 0.3049   0.090265
 C 0.9128 0.7855 0.3441   -0.156145
 C 0.0144 0.7852 0.3819   0.025252
 C 0.8546 0.7608 0.2609   -0.300191
 C 0.7282 0.7111 0.2647   0.683799
 C 0.7438 0.8132 0.2567   0.684799
 C 0.9692 0.7587 0.2183   0.092127
 C 0.1161 0.7913 0.2155   -0.141554
 C 0.2283 0.7886 0.179   -0.002314
 C 0.1877 0.7556 0.1431   -0.16908
 C 0.0335 0.7244 0.1453   0.016573
 C 0.9282 0.7269 0.1824   -0.147191
 C 0.3099 0.7499 0.1046   0.751453
 C 0.7079 0.1359 0.4296   0.73482
 C 0.5941 0.0957 0.4064   -0.17539
 C 0.4217 0.0857 0.4205   0.00682
 C 0.3208 0.0487 0.3979   -0.134032
 C 0.379 0.0197 0.3627   0.093198
 C 0.5508 0.0292 0.3485   -0.149501
 C 0.6551 0.0676 0.3699   0.003457
 C 0.2516 0.9797 0.3386   -0.311079
 C 0.3475 0.932 0.3166   0.694412
 C 0.154 0.0119 0.302   0.696787
 C 0.1245 0.9537 0.3735   0.084726
 C 0.1963 0.933 0.4134   -0.141611
 C 0.0943 0.9077 0.4444   0.013332
 C 0.9174 0.9022 0.4369   -0.178553
 C 0.8424 0.923 0.3972   0.00262
 C 0.9431 0.949 0.366   -0.155199
 C 0.7953 0.87 0.4661   0.728182
 C 0.5809 0.3181 0.4598   0.7562
 C 0.6232 0.3672 0.4329   -0.164759
 C 0.5587 0.4167 0.4475   -0.011235
 C 0.597 0.4623 0.4237   -0.153588
 C 0.69 0.4599 0.385   0.098474
 C 0.755 0.4113 0.3695   -0.152209
 C 0.7216 0.3654 0.3947   0.014319
 C 0.708 0.5128 0.3573   -0.309003
 C 0.527 0.5236 0.3335   0.697042
 C 0.845 0.5086 0.3209   0.697527
 C 0.764 0.5596 0.3885   0.096354
 C 0.7 0.6119 0.3815   -0.153531
 C 0.7504 0.6527 0.4104   0.017531
 C 0.8631 0.6437 0.4454   -0.159813
 C 0.9341 0.5925 0.4508   -0.003129
 C 0.886 0.5511 0.4229   -0.154555
 C 0.9114 0.6864 0.4776   0.73324
 C 0.8038 0.7392 0.9201   0.74982
 C 0.684 0.741 0.8818   -0.175521
 C 0.7349 0.7662 0.8438   0.00663
 C 0.6277 0.7656 0.8057   -0.139781
 C 0.4674 0.7386 0.8049   0.090265
 C 0.4128 0.7145 0.8441   -0.156145
 C 0.5144 0.7148 0.8819   0.025252
 C 0.3546 0.7392 0.7609   -0.300191
 C 0.2282 0.7889 0.7647   0.683799
 C 0.2438 0.6868 0.7567   0.684799
 C 0.4692 0.7413 0.7183   0.092127
 C 0.6161 0.7087 0.7155   -0.141554
 C 0.7283 0.7114 0.679   -0.002314
 C 0.6877 0.7444 0.6431   -0.16908
 C 0.5335 0.7756 0.6453   0.016572
 C 0.4282 0.7731 0.6824   -0.147191
 C 0.8099 0.7501 0.6046   0.751452
 C 0.2079 0.3641 0.9296   0.73482
 C 0.0941 0.4043 0.9064   -0.17539
 C 0.9217 0.4143 0.9205   0.006819
 C 0.8208 0.4513 0.8979   -0.134033
 C 0.879 0.4803 0.8627   0.093198
 C 0.0508 0.4708 0.8485   -0.149502
 C 0.1551 0.4324 0.8699   0.003457
 C 0.7516 0.5203 0.8386   -0.311079
 C 0.8475 0.568 0.8166   0.694412
 C 0.654 0.4881 0.802   0.696787
 C 0.6245 0.5463 0.8735   0.084726
 C 0.6963 0.567 0.9134   -0.141612
 C 0.5943 0.5923 0.9444   0.01333
 C 0.4174 0.5978 0.9369   -0.178553
 C 0.3424 0.577 0.8972   0.00262
 C 0.4431 0.551 0.866   -0.155199
 C 0.2953 0.63 0.9661   0.728181
 C 0.0809 0.1819 0.9598   0.7562
 C 0.1232 0.1328 0.9329   -0.16476
 C 0.0587 0.0833 0.9475   -0.011236
 C 0.097 0.0377 0.9237   -0.153588
 C 0.19 0.0401 0.885   0.098473
 C 0.255 0.0887 0.8695   -0.152209
 C 0.2216 0.1346 0.8947   0.014319
 C 0.208 0.9872 0.8573   -0.309003
 C 0.027 0.9764 0.8335   0.697042
 C 0.345 0.9914 0.8209   0.697527
 C 0.264 0.9404 0.8885   0.096354
 C 0.2 0.8881 0.8815   -0.153531
 C 0.2504 0.8473 0.9104   0.017531
 C 0.3631 0.8563 0.9454   -0.159813
 C 0.4341 0.9075 0.9508   -0.003129
 C 0.386 0.9489 0.9229   -0.154555
 C 0.4114 0.8136 0.9776   0.73324
 C 0.6962 0.2392 0.5799   0.74982
 C 0.816 0.241 0.6182   -0.175521
 C 0.7651 0.2662 0.6562   0.00663
 C 0.8723 0.2656 0.6943   -0.139781
 C 0.0326 0.2386 0.6951   0.090265
 C 0.0872 0.2145 0.6559   -0.156145
 C 0.9856 0.2148 0.6181   0.025252
 C 0.1454 0.2392 0.7391   -0.300191
 C 0.2718 0.2889 0.7353   0.683799
 C 0.2562 0.1868 0.7433   0.684799
 C 0.0308 0.2413 0.7817   0.092127
 C 0.8839 0.2087 0.7845   -0.141554
 C 0.7717 0.2114 0.821   -0.002314
 C 0.8123 0.2444 0.8569   -0.16908
 C 0.9665 0.2756 0.8547   0.016573
 C 0.0718 0.2731 0.8176   -0.147191
 C 0.6901 0.2501 0.8954   0.751453
 C 0.2921 0.8641 0.5704   0.73482
 C 0.4059 0.9043 0.5936   -0.17539
 C 0.5783 0.9143 0.5795   0.006819
 C 0.6792 0.9513 0.6021   -0.134032
 C 0.621 0.9803 0.6373   0.093198
 C 0.4492 0.9708 0.6515   -0.149501
 C 0.3449 0.9324 0.6301   0.003457
 C 0.7484 0.0203 0.6614   -0.311079
 C 0.6525 0.068 0.6834   0.694412
 C 0.846 0.9881 0.698   0.696787
 C 0.8755 0.0463 0.6265   0.084726
 C 0.8037 0.067 0.5866   -0.141612
 C 0.9057 0.0923 0.5556   0.01333
 C 0.0826 0.0978 0.5631   -0.178553
 C 0.1576 0.077 0.6028   0.00262
 C 0.0569 0.051 0.634   -0.155199
 C 0.2047 0.13 0.5339   0.728181
 C 0.4191 0.6819 0.5402   0.7562
 C 0.3768 0.6328 0.5671   -0.164759
 C 0.4413 0.5833 0.5525   -0.011236
 C 0.403 0.5377 0.5763   -0.153588
 C 0.31 0.5401 0.615   0.098474
 C 0.245 0.5887 0.6305   -0.152209
 C 0.2784 0.6346 0.6053   0.014319
 C 0.292 0.4872 0.6427   -0.309003
 C 0.473 0.4764 0.6665   0.697042
 C 0.155 0.4914 0.6791   0.697527
 C 0.236 0.4404 0.6115   0.096354
 C 0.3 0.3881 0.6185   -0.153531
 C 0.2496 0.3473 0.5896   0.017531
 C 0.1369 0.3563 0.5546   -0.159813
 C 0.0659 0.4075 0.5492   -0.003129
 C 0.114 0.4489 0.5771   -0.154555
 C 0.0886 0.3136 0.5224   0.73324
 O 0.0331 0.2541 0.0809   -0.629612
 O 0.2591 0.2756 0.0397   -0.838716
 O 0.0359 0.2654 0.3933   -0.622404
 O 0.2483 0.2285 0.4327   -0.83379
 O 0.6429 0.6471 0.0855   -0.63872
 O 0.8504 0.6614 0.0366   -0.802664
 O 0.864 0.3651 0.0426   -0.632577
 O 0.6323 0.3429 0.0016   -0.792254
 O 0.0192 0.8197 0.0104   -0.613153
 O 0.8463 0.773 0.0505   -0.833609
 O 0.4704 0.1793 0.9933   -0.632943
 O 0.6604 0.2335 0.025   -0.815728
 O 0.4669 0.7541 0.4191   -0.629612
 O 0.2409 0.7756 0.4603   -0.838716
 O 0.4641 0.7654 0.1067   -0.622404
 O 0.2517 0.7285 0.0673   -0.83379
 O 0.8571 0.1471 0.4145   -0.63872
 O 0.6496 0.1614 0.4634   -0.802664
 O 0.636 0.8651 0.4574   -0.632577
 O 0.8677 0.8429 0.4984   -0.792254
 O 0.4808 0.3197 0.4896   -0.613153
 O 0.6537 0.273 0.4495   -0.833609
 O 0.0296 0.6793 0.5067   -0.632943
 O 0.8396 0.7335 0.475   -0.815728
 O 0.9669 0.7459 0.9191   -0.629612
 O 0.7409 0.7244 0.9603   -0.838716
 O 0.9641 0.7346 0.6067   -0.622404
 O 0.7517 0.7715 0.5673   -0.83379
 O 0.3571 0.3529 0.9145   -0.63872
 O 0.1496 0.3386 0.9634   -0.802664
 O 0.136 0.6349 0.9574   -0.632577
 O 0.3677 0.6571 0.9984   -0.792253
 O 0.9808 0.1803 0.9896   -0.613153
 O 0.1537 0.227 0.9495   -0.833609
 O 0.5296 0.8207 0.0067   -0.632943
 O 0.3396 0.7665 0.975   -0.815728
 O 0.5331 0.2459 0.5809   -0.629612
 O 0.7591 0.2244 0.5397   -0.838716
 O 0.5359 0.2346 0.8933   -0.622404
 O 0.7483 0.2715 0.9327   -0.83379
 O 0.1429 0.8529 0.5855   -0.63872
 O 0.3504 0.8386 0.5366   -0.802664
 O 0.364 0.1349 0.5426   -0.632577
 O 0.1323 0.1571 0.5016   -0.792253
 O 0.5192 0.6803 0.5104   -0.613153
 O 0.3463 0.727 0.5505   -0.833609
 O 0.9704 0.3207 0.4933   -0.632943
 O 0.1604 0.2665 0.525   -0.815728
 F 0.8532 0.2106 0.1954   -0.193825
 F 0.6825 0.166 0.2392   -0.177742
 F 0.8987 0.212 0.2667   -0.199033
 F 0.8947 0.3138 0.2149   -0.222546
 F 0.6611 0.3557 0.2358   -0.161089
 F 0.8302 0.3174 0.285   -0.205998
 F 0.036 0.409 0.1549   -0.193598
 F 0.2631 0.3942 0.1967   -0.192987
 F 0.0622 0.4467 0.2195   -0.211739
 F 0.4473 0.4811 0.2246   -0.198224
 F 0.2338 0.5379 0.2236   -0.195946
 F 0.4508 0.5486 0.1789   -0.196807
 F 0.0431 0.9773 0.1847   -0.232288
 F 0.098 0.0386 0.1364   -0.221047
 F 0.9743 0.0595 0.1983   -0.17573
 F 0.714 0.976 0.2133   -0.212841
 F 0.633 0.057 0.1997   -0.223016
 F 0.5001 0.9924 0.1624   -0.173577
 F 0.6468 0.7106 0.3046   -0.193825
 F 0.8175 0.666 0.2608   -0.177742
 F 0.6013 0.712 0.2333   -0.199032
 F 0.6053 0.8138 0.2851   -0.222546
 F 0.8389 0.8557 0.2642   -0.161088
 F 0.6698 0.8174 0.215   -0.205998
 F 0.464 0.909 0.3451   -0.193598
 F 0.2369 0.8942 0.3033   -0.192987
 F 0.4378 0.9467 0.2805   -0.211738
 F 0.0527 0.9811 0.2754   -0.198226
 F 0.2662 0.0379 0.2764   -0.195948
 F 0.0492 0.0486 0.3211   -0.196806
 F 0.4569 0.4773 0.3153   -0.232289
 F 0.402 0.5386 0.3636   -0.221048
 F 0.5257 0.5595 0.3017   -0.175733
 F 0.786 0.476 0.2867   -0.21284
 F 0.867 0.557 0.3003   -0.223017
 F 0.9999 0.4924 0.3376   -0.173577
 F 0.1468 0.7894 0.8046   -0.193825
 F 0.3175 0.834 0.7608   -0.177742
 F 0.1013 0.788 0.7333   -0.199033
 F 0.1053 0.6862 0.7851   -0.222546
 F 0.3389 0.6443 0.7642   -0.161089
 F 0.1698 0.6826 0.715   -0.205998
 F 0.964 0.591 0.8451   -0.193598
 F 0.7369 0.6058 0.8033   -0.192987
 F 0.9378 0.5533 0.7805   -0.211739
 F 0.5527 0.5189 0.7754   -0.198224
 F 0.7662 0.4621 0.7764   -0.195946
 F 0.5492 0.4514 0.8211   -0.196807
 F 0.9569 0.0227 0.8153   -0.232288
 F 0.902 0.9614 0.8636   -0.221047
 F 0.0257 0.9405 0.8017   -0.17573
 F 0.286 0.024 0.7867   -0.212841
 F 0.367 0.943 0.8003   -0.223016
 F 0.4999 0.0076 0.8376   -0.173577
 F 0.3532 0.2894 0.6954   -0.193825
 F 0.1825 0.334 0.7392   -0.177742
 F 0.3987 0.288 0.7667   -0.199032
 F 0.3947 0.1862 0.7149   -0.222546
 F 0.1611 0.1443 0.7358   -0.161088
 F 0.3302 0.1826 0.785   -0.205998
 F 0.536 0.091 0.6549   -0.193598
 F 0.7631 0.1058 0.6967   -0.192987
 F 0.5622 0.0533 0.7195   -0.211738
 F 0.9473 0.0189 0.7246   -0.198226
 F 0.7338 0.9621 0.7236   -0.195948
 F 0.9508 0.9514 0.6789   -0.196806
 F 0.5431 0.5227 0.6847   -0.232289
 F 0.598 0.4614 0.6364   -0.221048
 F 0.4743 0.4405 0.6983   -0.175733
 F 0.214 0.524 0.7133   -0.21284
 F 0.133 0.443 0.6997   -0.223017
 F 0.000100000000003 0.5076 0.6624   -0.173577
