{'_ref': 'TBD', '_srcid': 'CAKYAQ_clean', 'submitters': [{'name': 'Dalar Nazarian Jeff Camp and David Sholl', 'email': 'dalar@gatech.edu jcamp6@gatech.edu'}], '_method': 'VASP DFT with PBE;DDEC'}
data_Cu4MoH28C28(S2N3)2
_symmetry_space_group_name_H-M   'P 1'
_cell_length_a   9.63620031
_cell_length_b   11.46200000
_cell_length_c   19.14700000
_cell_angle_alpha   90.00000000
_cell_angle_beta   97.98000082
_cell_angle_gamma   90.00000000
_symmetry_Int_Tables_number   1
_chemical_formula_structural   Cu4MoH28C28(S2N3)2
_chemical_formula_sum   'Cu8 Mo2 H56 C56 S8 N12'
_cell_volume   2094.31022792
_cell_formula_units_Z   2
loop_
 _symmetry_equiv_pos_site_id
 _symmetry_equiv_pos_as_xyz
  1  'x, y, z'
loop_
 _atom_site_label
 _atom_site_fract_x
 _atom_site_fract_y
 _atom_site_fract_z
 _atom_site_charge
 Cu 0.27973 0.61769 0.78841   0.328121
 Cu 0.95984 0.61678 0.88706   0.260977
 Cu 0.72027 0.61769 0.71159   0.328086
 Cu 0.04016 0.61678 0.61294   0.260978
 Cu 0.72027 0.38231 0.21159   0.32812
 Cu 0.04016 0.38322 0.11294   0.260966
 Cu 0.27973 0.38231 0.28841   0.328085
 Cu 0.95984 0.38322 0.38706   0.260966
 Mo 0.0 0.61647 0.75   0.703006
 Mo 0.0 0.38353 0.25   0.70301
 H 0.2119 0.4243 0.8876   0.045074
 H 0.3194 0.2973 0.9711   0.098768
 H 0.6915 0.4255 0.9355   0.113086
 H 0.5724 0.5502 0.8535   0.082406
 H 0.6947 0.2973 0.0309   0.08734
 H 0.5542 0.2405 0.0515   0.096696
 H 0.5458 0.1108 0.9531   0.067445
 H 0.6887 0.1665 0.9342   0.070724
 H 0.6611 0.0413 0.0613   0.111109
 H 0.8026 0.1059 0.0488   0.098612
 H 0.6273 0.9597 0.9005   0.137762
 H 0.7051 0.7897 0.8504   0.098462
 H 0.000700000000002 0.747 0.0209   0.085237
 H 0.9229 0.917 0.0709   0.141814
 H 0.7881 0.4243 0.6124   0.045075
 H 0.6806 0.2973 0.5289   0.098768
 H 0.3085 0.4255 0.5645   0.113086
 H 0.4276 0.5502 0.6465   0.082406
 H 0.3053 0.2973 0.4691   0.08734
 H 0.4458 0.2405 0.4485   0.096695
 H 0.4542 0.1108 0.5469   0.067445
 H 0.3113 0.1665 0.5658   0.070724
 H 0.3389 0.0413 0.4387   0.111109
 H 0.1974 0.1059 0.4512   0.098612
 H 0.3727 0.9597 0.5995   0.137761
 H 0.2949 0.7897 0.6496   0.098467
 H 0.9993 0.747 0.4791   0.085237
 H 0.0771 0.917 0.4291   0.141814
 H 0.7881 0.5757 0.1124   0.045074
 H 0.6806 0.7027 0.0289   0.098768
 H 0.3085 0.5745 0.0645   0.113086
 H 0.4276 0.4498 0.1465   0.082406
 H 0.3053 0.7027 0.9691   0.08734
 H 0.4458 0.7595 0.9485   0.096696
 H 0.4542 0.8892 0.0469   0.067446
 H 0.3113 0.8335 0.0658   0.070724
 H 0.3389 0.9587 0.9387   0.111109
 H 0.1974 0.8941 0.9512   0.098612
 H 0.3727 0.0403 0.0995   0.137762
 H 0.2949 0.2103 0.1496   0.098462
 H 0.9993 0.253 0.9791   0.085237
 H 0.0771 0.083 0.9291   0.141814
 H 0.2119 0.5757 0.3876   0.045074
 H 0.3194 0.7027 0.4711   0.098768
 H 0.6915 0.5745 0.4355   0.113086
 H 0.5724 0.4498 0.3535   0.082406
 H 0.6947 0.7027 0.5309   0.08734
 H 0.5542 0.7595 0.5515   0.096695
 H 0.5458 0.8892 0.4531   0.067446
 H 0.6887 0.8335 0.4342   0.070724
 H 0.6611 0.9587 0.5613   0.111109
 H 0.8026 0.8941 0.5488   0.098612
 H 0.6273 0.0403 0.4005   0.137761
 H 0.7051 0.2103 0.3504   0.098467
 H 0.000700000000002 0.253 0.5209   0.085237
 H 0.9229 0.083 0.5709   0.141814
 C 0.4437 0.695 0.7591   -0.468713
 C 0.3112 0.4255 0.8976   0.145006
 C 0.375 0.3484 0.9475   -0.23195
 C 0.518 0.3453 0.9629   0.163696
 C 0.592 0.4233 0.9268   -0.238842
 C 0.5197 0.4979 0.8779   0.170646
 C 0.605 0.2599 0.0115   -0.187356
 C 0.635 0.148 0.9733   -0.086354
 C 0.7193 0.0643 0.0248   -0.203704
 C 0.7678 0.9543 0.9904   0.150529
 C 0.7031 0.9165 0.9249   -0.221184
 C 0.7493 0.8156 0.8952   0.181347
 C 0.9249 0.7902 0.9964   0.126632
 C 0.8787 0.8911 0.0262   -0.219493
 C 0.5563 0.695 0.7409   -0.468519
 C 0.6888 0.4255 0.6024   0.145005
 C 0.625 0.3484 0.5525   -0.23195
 C 0.482 0.3453 0.5371   0.163696
 C 0.408 0.4233 0.5732   -0.238841
 C 0.4803 0.4979 0.6221   0.170643
 C 0.395 0.2599 0.4885   -0.187356
 C 0.365 0.148 0.5267   -0.086354
 C 0.2807 0.0643 0.4752   -0.203703
 C 0.2322 0.9543 0.5096   0.150529
 C 0.2969 0.9165 0.5751   -0.221184
 C 0.2507 0.8156 0.6048   0.181345
 C 0.0751 0.7902 0.5036   0.126632
 C 0.1213 0.8911 0.4738   -0.219493
 C 0.5563 0.305 0.2409   -0.468713
 C 0.6888 0.5745 0.1024   0.145006
 C 0.625 0.6516 0.0525   -0.23195
 C 0.482 0.6547 0.0371   0.163696
 C 0.408 0.5767 0.0732   -0.238841
 C 0.4803 0.5021 0.1221   0.170646
 C 0.395 0.7401 0.9885   -0.187356
 C 0.365 0.852 0.0267   -0.086354
 C 0.2807 0.9357 0.9752   -0.203704
 C 0.2322 0.0457 0.0096   0.150529
 C 0.2969 0.0835 0.0751   -0.221184
 C 0.2507 0.1844 0.1048   0.181347
 C 0.0751 0.2098 0.0036   0.126632
 C 0.1213 0.1089 0.9738   -0.219493
 C 0.4437 0.305 0.2591   -0.468519
 C 0.3112 0.5745 0.3976   0.145005
 C 0.375 0.6516 0.4475   -0.23195
 C 0.518 0.6547 0.4629   0.163696
 C 0.592 0.5767 0.4268   -0.238841
 C 0.5197 0.5021 0.3779   0.170643
 C 0.605 0.7401 0.5115   -0.187356
 C 0.635 0.852 0.4733   -0.086354
 C 0.7193 0.9357 0.5248   -0.203704
 C 0.7678 0.0457 0.4904   0.150529
 C 0.7031 0.0835 0.4249   -0.221184
 C 0.7493 0.1844 0.3952   0.181345
 C 0.9249 0.2098 0.4964   0.126631
 C 0.8787 0.1089 0.5262   -0.219493
 S 0.1181 0.7255 0.83439   -0.408437
 S 0.8462 0.5066 0.79772   -0.415486
 S 0.8819 0.7255 0.66561   -0.408433
 S 0.1538 0.5066 0.70228   -0.415491
 S 0.8819 0.2745 0.16561   -0.408435
 S 0.1538 0.4934 0.20228   -0.415485
 S 0.1181 0.2745 0.33439   -0.408431
 S 0.8462 0.4934 0.29772   -0.415489
 N 0.3796 0.5007 0.863   -0.24242
 N 0.9946 0.5254 0.9742   0.001018
 N 0.8602 0.7524 0.9309   -0.290225
 N 0.6204 0.5007 0.637   -0.242413
 N 0.0054 0.5254 0.5258   0.001018
 N 0.1398 0.7524 0.5691   -0.290225
 N 0.6204 0.4993 0.137   -0.242419
 N 0.0054 0.4746 0.0258   0.001164
 N 0.1398 0.2476 0.0691   -0.290223
 N 0.3796 0.4993 0.363   -0.242413
 N 0.9946 0.4746 0.4742   0.001164
 N 0.8602 0.2476 0.4309   -0.290223
