{'_ref': 'TBD', '_srcid': 'CAKYAQ_clean', 'submitters': [{'name': 'Dalar Nazarian Jeff Camp and David Sholl', 'email': 'dalar@gatech.edu jcamp6@gatech.edu'}], '_method': 'VASP DFT with PBE;DDEC'}
data_La2H24C51(O2F3)6
_symmetry_space_group_name_H-M   'P 1'
_cell_length_a   7.79100000
_cell_length_b   21.37200000
_cell_length_c   36.99700000
_cell_angle_alpha   90.00000000
_cell_angle_beta   90.00000000
_cell_angle_gamma   90.00000000
_symmetry_Int_Tables_number   1
_chemical_formula_structural   La2H24C51(O2F3)6
_chemical_formula_sum   'La8 H96 C204 O48 F72'
_cell_volume   6160.34279624
_cell_formula_units_Z   4
loop_
 _symmetry_equiv_pos_site_id
 _symmetry_equiv_pos_as_xyz
  1  'x, y, z'
loop_
 _atom_site_label
 _atom_site_fract_x
 _atom_site_fract_y
 _atom_site_fract_z
 _atom_site_charge
 La 0.29603 0.50046 0.66259   2.114691
 La 0.20397 0.50046 0.33741   2.114691
 La 0.20397 0.99954 0.16259   2.114691
 La 0.29603 0.99954 0.83741   2.114691
 La 0.70397 0.49954 0.33741   2.114691
 La 0.79603 0.49954 0.66259   2.114691
 La 0.79603 0.000459999999997 0.83741   2.114691
 La 0.70397 0.000459999999997 0.16259   2.114691
 H 0.8144 0.665 0.6783   0.079502
 H 0.2332 0.7216 0.6275   0.098388
 H 0.1203 0.8218 0.6201   0.109874
 H 0.4622 0.9147 0.6521   0.119666
 H 0.3701 0.9527 0.7069   0.08619
 H 0.7951 0.9021 0.7581   0.093545
 H 0.9049 0.8647 0.7023   0.129867
 H 0.2015 0.326 0.5715   0.097766
 H 0.0666 0.2619 0.5312   0.105391
 H 0.6583 0.3745 0.5347   0.112182
 H 0.8011 0.4428 0.5716   0.099118
 H 0.6756 0.7592 0.6705   0.137326
 H 0.6856 0.665 0.3217   0.079502
 H 0.2668 0.7216 0.3725   0.098388
 H 0.3797 0.8218 0.3799   0.109874
 H 0.0378 0.9147 0.3479   0.119666
 H 0.1299 0.9527 0.2931   0.08619
 H 0.7049 0.9021 0.2419   0.093545
 H 0.5951 0.8647 0.2977   0.129867
 H 0.2985 0.326 0.4285   0.097766
 H 0.4334 0.2619 0.4688   0.105391
 H 0.8417 0.3745 0.4653   0.112182
 H 0.6989 0.4428 0.4284   0.099118
 H 0.8244 0.7592 0.3295   0.137326
 H 0.6856 0.835 0.1783   0.079502
 H 0.2668 0.7784 0.1275   0.098388
 H 0.3797 0.6782 0.1201   0.109874
 H 0.0378 0.5853 0.1521   0.119666
 H 0.1299 0.5473 0.2069   0.08619
 H 0.7049 0.5979 0.2581   0.093545
 H 0.5951 0.6353 0.2023   0.129867
 H 0.2985 0.174 0.0715   0.097766
 H 0.4334 0.2381 0.0312   0.105391
 H 0.8417 0.1255 0.0347   0.112182
 H 0.6989 0.0572 0.0716   0.099118
 H 0.8244 0.7408 0.1705   0.137326
 H 0.8144 0.835 0.8217   0.079502
 H 0.2332 0.7784 0.8725   0.098388
 H 0.1203 0.6782 0.8799   0.109874
 H 0.4622 0.5853 0.8479   0.119666
 H 0.3701 0.5473 0.7931   0.08619
 H 0.7951 0.5979 0.7419   0.093545
 H 0.9049 0.6353 0.7977   0.129867
 H 0.2015 0.174 0.9285   0.097766
 H 0.0666 0.2381 0.9688   0.105391
 H 0.6583 0.1255 0.9653   0.112182
 H 0.8011 0.0572 0.9284   0.099118
 H 0.6756 0.7408 0.8295   0.137326
 H 0.1856 0.335 0.3217   0.079502
 H 0.7668 0.2784 0.3725   0.098388
 H 0.8797 0.1782 0.3799   0.109874
 H 0.5378 0.0853 0.3479   0.119666
 H 0.6299 0.0473 0.2931   0.08619
 H 0.2049 0.0979 0.2419   0.093545
 H 0.0951 0.1353 0.2977   0.129867
 H 0.7985 0.674 0.4285   0.097766
 H 0.9334 0.7381 0.4688   0.105391
 H 0.3417 0.6255 0.4653   0.112182
 H 0.1989 0.5572 0.4284   0.099118
 H 0.3244 0.2408 0.3295   0.137326
 H 0.3144 0.335 0.6783   0.079502
 H 0.7332 0.2784 0.6275   0.098388
 H 0.6203 0.1782 0.6201   0.109874
 H 0.9622 0.0853 0.6521   0.119666
 H 0.8701 0.0473 0.7069   0.08619
 H 0.2951 0.0979 0.7581   0.093545
 H 0.4049 0.1353 0.7023   0.129867
 H 0.7015 0.674 0.5715   0.097766
 H 0.5666 0.7381 0.5312   0.105391
 H 0.1583 0.6255 0.5347   0.112182
 H 0.3011 0.5572 0.5716   0.099118
 H 0.1756 0.2408 0.6705   0.137326
 H 0.3144 0.165 0.8217   0.079502
 H 0.7332 0.2216 0.8725   0.098388
 H 0.6203 0.3218 0.8799   0.109874
 H 0.9622 0.4147 0.8479   0.119666
 H 0.8701 0.4527 0.7931   0.08619
 H 0.2951 0.4021 0.7419   0.093545
 H 0.4049 0.3647 0.7977   0.129867
 H 0.7015 0.826 0.9285   0.097766
 H 0.5666 0.7619 0.9688   0.105391
 H 0.1583 0.8745 0.9653   0.112182
 H 0.3011 0.9428 0.9284   0.099118
 H 0.1756 0.2592 0.8295   0.137326
 H 0.1856 0.165 0.1783   0.079502
 H 0.7668 0.2216 0.1275   0.098388
 H 0.8797 0.3218 0.1201   0.109874
 H 0.5378 0.4147 0.1521   0.119666
 H 0.6299 0.4527 0.2069   0.08619
 H 0.2049 0.4021 0.2581   0.093545
 H 0.0951 0.3647 0.2023   0.129867
 H 0.7985 0.826 0.0715   0.097766
 H 0.9334 0.7619 0.0312   0.105391
 H 0.3417 0.8745 0.0347   0.112182
 H 0.1989 0.9428 0.0716   0.099118
 H 0.3244 0.2592 0.1705   0.137326
 C 0.109 0.6219 0.6591   0.735417
 C 0.035 0.6845 0.6551   -0.167459
 C 0.873 0.6969 0.6664   0.025103
 C 0.124 0.7306 0.6365   0.014118
 C 0.056 0.7902 0.6308   -0.17707
 C 0.883 0.8009 0.642   0.08848
 C 0.647 0.8566 0.6053   0.671337
 C 0.692 0.8876 0.6732   0.108362
 C 0.529 0.9121 0.6728   -0.179009
 C 0.476 0.9324 0.7063   0.034151
 C 0.559 0.9266 0.7386   -0.180497
 C 0.728 0.9033 0.7373   0.019792
 C 0.795 0.8819 0.7038   -0.178682
 C 0.106 0.4298 0.605   0.692251
 C 0.0158 0.3875 0.5778   -0.146078
 C 0.091 0.336 0.564   0.002504
 C 0.0119 0.2978 0.5396   -0.158166
 C 0.847 0.3134 0.5272   0.082697
 C 0.771 0.3656 0.5413   -0.140757
 C 0.4928 0.9462 0.773   0.755921
 C 0.852 0.4053 0.5646   -0.012072
 C 0.786 0.7527 0.6618   -0.164405
 C 0.918 0.9162 0.6264   0.727481
 C 0.867 0.2301 0.475   0.691712
 C 0.792 0.8672 0.6374   -0.33458
 C 0.391 0.6219 0.3409   0.735417
 C 0.465 0.6845 0.3449   -0.167459
 C 0.627 0.6969 0.3336   0.025103
 C 0.376 0.7306 0.3635   0.014118
 C 0.444 0.7902 0.3692   -0.17707
 C 0.617 0.8009 0.358   0.08848
 C 0.853 0.8566 0.3947   0.671337
 C 0.808 0.8876 0.3268   0.108362
 C 0.971 0.9121 0.3272   -0.179009
 C 0.024 0.9324 0.2937   0.034151
 C 0.941 0.9266 0.2614   -0.180497
 C 0.772 0.9033 0.2627   0.019792
 C 0.705 0.8819 0.2962   -0.178682
 C 0.394 0.4298 0.395   0.692251
 C 0.4842 0.3875 0.4222   -0.146078
 C 0.409 0.336 0.436   0.002504
 C 0.4881 0.2978 0.4604   -0.158166
 C 0.653 0.3134 0.4728   0.082697
 C 0.729 0.3656 0.4587   -0.140757
 C 0.0072 0.9462 0.227   0.755921
 C 0.648 0.4053 0.4354   -0.012072
 C 0.714 0.7527 0.3382   -0.164405
 C 0.582 0.9162 0.3736   0.727481
 C 0.633 0.2301 0.525   0.691712
 C 0.708 0.8672 0.3626   -0.33458
 C 0.391 0.8781 0.1591   0.735417
 C 0.465 0.8155 0.1551   -0.167459
 C 0.627 0.8031 0.1664   0.025103
 C 0.376 0.7694 0.1365   0.014118
 C 0.444 0.7098 0.1308   -0.17707
 C 0.617 0.6991 0.142   0.08848
 C 0.853 0.6434 0.1053   0.671337
 C 0.808 0.6124 0.1732   0.108362
 C 0.971 0.5879 0.1728   -0.179009
 C 0.024 0.5676 0.2063   0.034151
 C 0.941 0.5734 0.2386   -0.180497
 C 0.772 0.5967 0.2373   0.019792
 C 0.705 0.6181 0.2038   -0.178682
 C 0.394 0.0702 0.105   0.692251
 C 0.4842 0.1125 0.0778   -0.146078
 C 0.409 0.164 0.064   0.002504
 C 0.4881 0.2022 0.0396   -0.158166
 C 0.653 0.1866 0.0272   0.082697
 C 0.729 0.1344 0.0413   -0.140757
 C 0.0072 0.5538 0.273   0.755921
 C 0.648 0.0947 0.0646   -0.012072
 C 0.714 0.7473 0.1618   -0.164405
 C 0.582 0.5838 0.1264   0.727481
 C 0.633 0.2699 0.975   0.691712
 C 0.708 0.6328 0.1374   -0.33458
 C 0.109 0.8781 0.8409   0.735417
 C 0.035 0.8155 0.8449   -0.167459
 C 0.873 0.8031 0.8336   0.025103
 C 0.124 0.7694 0.8635   0.014118
 C 0.056 0.7098 0.8692   -0.17707
 C 0.883 0.6991 0.858   0.08848
 C 0.647 0.6434 0.8947   0.671337
 C 0.692 0.6124 0.8268   0.108362
 C 0.529 0.5879 0.8272   -0.179009
 C 0.476 0.5676 0.7937   0.034151
 C 0.559 0.5734 0.7614   -0.180497
 C 0.728 0.5967 0.7627   0.019792
 C 0.795 0.6181 0.7962   -0.178682
 C 0.106 0.0702 0.895   0.692251
 C 0.0158 0.1125 0.9222   -0.146078
 C 0.091 0.164 0.936   0.002504
 C 0.0119 0.2022 0.9604   -0.158166
 C 0.847 0.1866 0.9728   0.082697
 C 0.771 0.1344 0.9587   -0.140757
 C 0.4928 0.5538 0.727   0.755921
 C 0.852 0.0947 0.9354   -0.012072
 C 0.786 0.7473 0.8382   -0.164405
 C 0.918 0.5838 0.8736   0.727481
 C 0.867 0.2699 0.025   0.691712
 C 0.792 0.6328 0.8626   -0.33458
 C 0.891 0.3781 0.3409   0.735417
 C 0.965 0.3155 0.3449   -0.167459
 C 0.127 0.3031 0.3336   0.025103
 C 0.876 0.2694 0.3635   0.014118
 C 0.944 0.2098 0.3692   -0.17707
 C 0.117 0.1991 0.358   0.08848
 C 0.353 0.1434 0.3947   0.671338
 C 0.308 0.1124 0.3268   0.108362
 C 0.471 0.0879 0.3272   -0.179009
 C 0.524 0.0676 0.2937   0.034151
 C 0.441 0.0734 0.2614   -0.180497
 C 0.272 0.0967 0.2627   0.019792
 C 0.205 0.1181 0.2962   -0.178682
 C 0.894 0.5702 0.395   0.692251
 C 0.9842 0.6125 0.4222   -0.146078
 C 0.909 0.664 0.436   0.002504
 C 0.9881 0.7022 0.4604   -0.158166
 C 0.153 0.6866 0.4728   0.082697
 C 0.229 0.6344 0.4587   -0.140757
 C 0.5072 0.0538 0.227   0.755921
 C 0.148 0.5947 0.4354   -0.012072
 C 0.214 0.2473 0.3382   -0.164405
 C 0.082 0.0838 0.3736   0.727481
 C 0.133 0.7699 0.525   0.691712
 C 0.208 0.1328 0.3626   -0.33458
 C 0.609 0.3781 0.6591   0.735417
 C 0.535 0.3155 0.6551   -0.167459
 C 0.373 0.3031 0.6664   0.025103
 C 0.624 0.2694 0.6365   0.014118
 C 0.556 0.2098 0.6308   -0.17707
 C 0.383 0.1991 0.642   0.08848
 C 0.147 0.1434 0.6053   0.671337
 C 0.192 0.1124 0.6732   0.108362
 C 0.029 0.0879 0.6728   -0.179009
 C 0.976 0.0676 0.7063   0.034151
 C 0.059 0.0734 0.7386   -0.180497
 C 0.228 0.0967 0.7373   0.019792
 C 0.295 0.1181 0.7038   -0.178682
 C 0.606 0.5702 0.605   0.692251
 C 0.5158 0.6125 0.5778   -0.146078
 C 0.591 0.664 0.564   0.002504
 C 0.5119 0.7022 0.5396   -0.158166
 C 0.347 0.6866 0.5272   0.082697
 C 0.271 0.6344 0.5413   -0.140757
 C 0.9928 0.0538 0.773   0.755921
 C 0.352 0.5947 0.5646   -0.012072
 C 0.286 0.2473 0.6618   -0.164405
 C 0.418 0.0838 0.6264   0.727481
 C 0.367 0.7699 0.475   0.691712
 C 0.292 0.1328 0.6374   -0.33458
 C 0.609 0.1219 0.8409   0.735417
 C 0.535 0.1845 0.8449   -0.167459
 C 0.373 0.1969 0.8336   0.025103
 C 0.624 0.2306 0.8635   0.014118
 C 0.556 0.2902 0.8692   -0.17707
 C 0.383 0.3009 0.858   0.08848
 C 0.147 0.3566 0.8947   0.671338
 C 0.192 0.3876 0.8268   0.108362
 C 0.029 0.4121 0.8272   -0.179009
 C 0.976 0.4324 0.7937   0.034151
 C 0.059 0.4266 0.7614   -0.180497
 C 0.228 0.4033 0.7627   0.019792
 C 0.295 0.3819 0.7962   -0.178682
 C 0.606 0.9298 0.895   0.692251
 C 0.5158 0.8875 0.9222   -0.146078
 C 0.591 0.836 0.936   0.002504
 C 0.5119 0.7978 0.9604   -0.158166
 C 0.347 0.8134 0.9728   0.082697
 C 0.271 0.8656 0.9587   -0.140757
 C 0.9928 0.4462 0.727   0.755921
 C 0.352 0.9053 0.9354   -0.012072
 C 0.286 0.2527 0.8382   -0.164405
 C 0.418 0.4162 0.8736   0.727481
 C 0.367 0.7301 0.025   0.691712
 C 0.292 0.3672 0.8626   -0.33458
 C 0.891 0.1219 0.1591   0.735417
 C 0.965 0.1845 0.1551   -0.167459
 C 0.127 0.1969 0.1664   0.025103
 C 0.876 0.2306 0.1365   0.014118
 C 0.944 0.2902 0.1308   -0.17707
 C 0.117 0.3009 0.142   0.08848
 C 0.353 0.3566 0.1053   0.671337
 C 0.308 0.3876 0.1732   0.108362
 C 0.471 0.4121 0.1728   -0.179009
 C 0.524 0.4324 0.2063   0.034151
 C 0.441 0.4266 0.2386   -0.180497
 C 0.272 0.4033 0.2373   0.019792
 C 0.205 0.3819 0.2038   -0.178682
 C 0.894 0.9298 0.105   0.692251
 C 0.9842 0.8875 0.0778   -0.146078
 C 0.909 0.836 0.064   0.002504
 C 0.9881 0.7978 0.0396   -0.158166
 C 0.153 0.8134 0.0272   0.082697
 C 0.229 0.8656 0.0413   -0.140757
 C 0.5072 0.4462 0.273   0.755921
 C 0.148 0.9053 0.0646   -0.012072
 C 0.214 0.2527 0.1618   -0.164405
 C 0.082 0.4162 0.1264   0.727481
 C 0.133 0.7301 0.975   0.691712
 C 0.208 0.3672 0.1374   -0.33458
 C 0.75 0.271 0.5   -0.305083
 C 0.75 0.229 0.0   -0.305083
 C 0.25 0.729 0.5   -0.305083
 C 0.25 0.771 0.0   -0.305083
 O 0.2628 0.6119 0.6497   -0.647137
 O 0.0274 0.4776 0.6198   -0.794384
 O 0.5725 0.9446 0.8027   -0.76804
 O 0.3371 0.9672 0.774   -0.677134
 O 0.259 0.4158 0.6143   -0.617044
 O 0.0232 0.5768 0.674   -0.785078
 O 0.2372 0.6119 0.3503   -0.647137
 O 0.4726 0.4776 0.3802   -0.794384
 O 0.9275 0.9446 0.1973   -0.76804
 O 0.1629 0.9672 0.226   -0.677134
 O 0.241 0.4158 0.3857   -0.617044
 O 0.4768 0.5768 0.326   -0.785078
 O 0.2372 0.8881 0.1497   -0.647137
 O 0.4726 0.0224 0.1198   -0.794384
 O 0.9275 0.5554 0.3027   -0.76804
 O 0.1629 0.5328 0.274   -0.677134
 O 0.241 0.0842 0.1143   -0.617044
 O 0.4768 0.9232 0.174   -0.785078
 O 0.2628 0.8881 0.8503   -0.647137
 O 0.0274 0.0224 0.8802   -0.794384
 O 0.5725 0.5554 0.6973   -0.76804
 O 0.3371 0.5328 0.726   -0.677134
 O 0.259 0.0842 0.8857   -0.617044
 O 0.0232 0.9232 0.826   -0.785078
 O 0.7372 0.3881 0.3503   -0.647137
 O 0.9726 0.5224 0.3802   -0.794384
 O 0.4275 0.0554 0.1973   -0.76804
 O 0.6629 0.0328 0.226   -0.677134
 O 0.741 0.5842 0.3857   -0.617044
 O 0.9768 0.4232 0.326   -0.785078
 O 0.7628 0.3881 0.6497   -0.647137
 O 0.5274 0.5224 0.6198   -0.794384
 O 0.0725 0.0554 0.8027   -0.76804
 O 0.8371 0.0328 0.774   -0.677134
 O 0.759 0.5842 0.6143   -0.617044
 O 0.5232 0.4232 0.674   -0.785078
 O 0.7628 0.1119 0.8503   -0.647137
 O 0.5274 0.9776 0.8802   -0.794384
 O 0.0725 0.4446 0.6973   -0.76804
 O 0.8371 0.4672 0.726   -0.677134
 O 0.759 0.9158 0.8857   -0.617044
 O 0.5232 0.0768 0.826   -0.785078
 O 0.7372 0.1119 0.1497   -0.647137
 O 0.9726 0.9776 0.1198   -0.794384
 O 0.4275 0.4446 0.3027   -0.76804
 O 0.6629 0.4672 0.274   -0.677134
 O 0.741 0.9158 0.1143   -0.617044
 O 0.9768 0.0768 0.174   -0.785078
 F 0.0491 0.9216 0.6473   -0.163716
 F 0.981 0.9084 0.5921   -0.229557
 F 0.7332 0.8259 0.5778   -0.241255
 F 0.5262 0.8189 0.616   -0.164699
 F 0.8381 0.9725 0.6267   -0.231912
 F 0.584 0.9072 0.5934   -0.149266
 F 0.942 0.1867 0.4962   -0.207531
 F 0.7793 0.203 0.4489   -0.170217
 F 0.9969 0.2659 0.4613   -0.19454
 F 0.4509 0.9216 0.3527   -0.163716
 F 0.519 0.9084 0.4079   -0.229557
 F 0.7668 0.8259 0.4222   -0.241255
 F 0.9738 0.8189 0.384   -0.164699
 F 0.6619 0.9725 0.3733   -0.231912
 F 0.916 0.9072 0.4066   -0.149266
 F 0.558 0.1867 0.5038   -0.207531
 F 0.7207 0.203 0.5511   -0.170217
 F 0.5031 0.2659 0.5387   -0.19454
 F 0.4509 0.5784 0.1473   -0.163716
 F 0.519 0.5916 0.0921   -0.229557
 F 0.7668 0.6741 0.0778   -0.241255
 F 0.9738 0.6811 0.116   -0.164699
 F 0.6619 0.5275 0.1267   -0.231912
 F 0.916 0.5928 0.0934   -0.149266
 F 0.558 0.3133 0.9962   -0.207531
 F 0.7207 0.297 0.9489   -0.170217
 F 0.5031 0.2341 0.9613   -0.19454
 F 0.0491 0.5784 0.8527   -0.163716
 F 0.981 0.5916 0.9079   -0.229557
 F 0.7332 0.6741 0.9222   -0.241255
 F 0.5262 0.6811 0.884   -0.164699
 F 0.8381 0.5275 0.8733   -0.231912
 F 0.584 0.5928 0.9066   -0.149266
 F 0.942 0.3133 0.0038   -0.207531
 F 0.7793 0.297 0.0511   -0.170217
 F 0.9969 0.2341 0.0387   -0.19454
 F 0.9509 0.0784 0.3527   -0.163716
 F 0.019 0.0916 0.4079   -0.229558
 F 0.2668 0.1741 0.4222   -0.241255
 F 0.4738 0.1811 0.384   -0.164699
 F 0.1619 0.0275 0.3733   -0.231913
 F 0.416 0.0928 0.4066   -0.149268
 F 0.058 0.8133 0.5038   -0.207532
 F 0.2207 0.797 0.5511   -0.170217
 F 0.0031 0.7341 0.5387   -0.19454
 F 0.5491 0.0784 0.6473   -0.163716
 F 0.481 0.0916 0.5921   -0.229558
 F 0.2332 0.1741 0.5778   -0.241255
 F 0.0262 0.1811 0.616   -0.164699
 F 0.3381 0.0275 0.6267   -0.231913
 F 0.084 0.0928 0.5934   -0.149268
 F 0.442 0.8133 0.4962   -0.207533
 F 0.2793 0.797 0.4489   -0.170218
 F 0.4969 0.7341 0.4613   -0.19454
 F 0.5491 0.4216 0.8527   -0.163716
 F 0.481 0.4084 0.9079   -0.229558
 F 0.2332 0.3259 0.9222   -0.241255
 F 0.0262 0.3189 0.884   -0.164699
 F 0.3381 0.4725 0.8733   -0.231913
 F 0.084 0.4072 0.9066   -0.149268
 F 0.442 0.6867 0.0038   -0.207532
 F 0.2793 0.703 0.0511   -0.170217
 F 0.4969 0.7659 0.0387   -0.19454
 F 0.9509 0.4216 0.1473   -0.163716
 F 0.019 0.4084 0.0921   -0.229558
 F 0.2668 0.3259 0.0778   -0.241255
 F 0.4738 0.3189 0.116   -0.164699
 F 0.1619 0.4725 0.1267   -0.231913
 F 0.416 0.4072 0.0934   -0.149268
 F 0.058 0.6867 0.9962   -0.207533
 F 0.2207 0.703 0.9489   -0.170218
 F 0.0031 0.7659 0.9613   -0.19454
