{'_ref': 'TBD', '_srcid': 'CAKYAQ_clean', 'submitters': [{'name': 'Dalar Nazarian Jeff Camp and David Sholl', 'email': 'dalar@gatech.edu jcamp6@gatech.edu'}], '_method': 'VASP DFT with PBE;DDEC'}
data_Cd3H28C30(NO6)2
_symmetry_space_group_name_H-M   'P 1'
_cell_length_a   8.94359978
_cell_length_b   9.45379968
_cell_length_c   19.00500000
_cell_angle_alpha   95.16599879
_cell_angle_beta   93.05000170
_cell_angle_gamma   117.53400095
_symmetry_Int_Tables_number   1
_chemical_formula_structural   Cd3H28C30(NO6)2
_chemical_formula_sum   'Cd3 H28 C30 N2 O12'
_cell_volume   1410.89671199
_cell_formula_units_Z   1
loop_
 _symmetry_equiv_pos_site_id
 _symmetry_equiv_pos_as_xyz
  1  'x, y, z'
loop_
 _atom_site_label
 _atom_site_fract_x
 _atom_site_fract_y
 _atom_site_fract_z
 _atom_site_charge
 Cd 0.98362 0.89819 0.82078   1.003179
 Cd 0.01638 0.10181 0.17922   1.003179
 Cd 0.0 0.0 0.0   1.208749
 H 0.787 0.1906 0.9622   0.103001
 H 0.9613 0.4317 0.9188   0.079632
 H 0.8309 0.3852 0.8513   0.068392
 H 0.7642 0.4504 0.9923   0.094727
 H 0.5457 0.3777 0.865   0.077829
 H 0.5032 0.4196 0.9406   0.081079
 H 0.491 0.1845 0.9766   0.10544
 H 0.5579 0.1094 0.837   0.070363
 H 0.5291 0.000799999999998 0.8978   0.080781
 H 0.7976 0.5777 0.7215   0.096755
 H 0.6299 0.451 0.6176   0.134745
 H 0.5061 0.6428 0.4874   0.111247
 H 0.6649 0.8705 0.5779   0.133581
 H 0.8301 0.9859 0.6825   0.094481
 H 0.213 0.8094 0.0378   0.103001
 H 0.0387 0.5683 0.0812   0.079633
 H 0.1691 0.6148 0.1487   0.068392
 H 0.2358 0.5496 0.0077   0.094729
 H 0.4543 0.6223 0.135   0.077829
 H 0.4968 0.5804 0.0594   0.08108
 H 0.509 0.8155 0.0234   0.105441
 H 0.4421 0.8906 0.163   0.070363
 H 0.4709 0.9992 0.1022   0.080783
 H 0.2024 0.4223 0.2785   0.096755
 H 0.3701 0.549 0.3824   0.134746
 H 0.4939 0.3572 0.5126   0.111245
 H 0.3351 0.1295 0.4221   0.133582
 H 0.1699 0.0141 0.3175   0.094481
 C 0.846 0.1142 0.8676   0.721192
 C 0.7678 0.1992 0.9119   -0.178129
 C 0.8416 0.3764 0.9016   -0.105003
 C 0.7505 0.4579 0.9415   -0.188883
 C 0.5608 0.3691 0.9151   -0.104396
 C 0.4816 0.1923 0.9256   -0.156036
 C 0.576 0.1113 0.8879   -0.103312
 C 0.8252 0.6343 0.9312   0.741114
 C 0.2976 0.0985 0.8961   0.694964
 C 0.7698 0.6377 0.6922   0.179881
 C 0.6714 0.5613 0.6293   -0.20455
 C 0.6338 0.6476 0.5832   0.1362
 C 0.5303 0.5761 0.5137   -0.112752
 C 0.6919 0.8081 0.6059   -0.21915
 C 0.789 0.8761 0.6695   0.199414
 C 0.154 0.8858 0.1324   0.721191
 C 0.2322 0.8008 0.0881   -0.178129
 C 0.1584 0.6236 0.0984   -0.105003
 C 0.2495 0.5421 0.0585   -0.188884
 C 0.4392 0.6309 0.0849   -0.104396
 C 0.5184 0.8077 0.0744   -0.156037
 C 0.424 0.8887 0.1121   -0.103312
 C 0.1748 0.3657 0.0688   0.741114
 C 0.7024 0.9015 0.1039   0.694965
 C 0.2302 0.3623 0.3078   0.179881
 C 0.3286 0.4387 0.3707   -0.204549
 C 0.3662 0.3524 0.4168   0.136195
 C 0.4697 0.4239 0.4863   -0.112714
 C 0.3081 0.1919 0.3941   -0.219149
 C 0.211 0.1239 0.3305   0.199414
 N 0.8282 0.7951 0.7138   -0.350185
 N 0.1718 0.2049 0.2862   -0.350185
 O 0.8617 0.0024 0.89591   -0.701311
 O 0.8842 0.1436 0.8079   -0.621336
 O 0.2499 0.1229 0.83707   -0.605469
 O 0.1979 0.9865 0.92861   -0.673548
 O 0.8436 0.6671 0.86935   -0.656671
 O 0.8622 0.7326 0.98627   -0.631661
 O 0.1383 0.9976 0.10409   -0.701311
 O 0.1158 0.8564 0.1921   -0.621336
 O 0.7501 0.8771 0.16293   -0.605469
 O 0.8021 0.0135 0.07139   -0.673548
 O 0.1564 0.3329 0.13065   -0.656671
 O 0.1378 0.2674 0.01373   -0.631661
