{'_ref': 'TBD', '_srcid': 'CAKYAQ_clean', 'submitters': [{'name': 'Dalar Nazarian Jeff Camp and David Sholl', 'email': 'dalar@gatech.edu jcamp6@gatech.edu'}], '_method': 'VASP DFT with PBE;DDEC'}
data_Co5H18(C17O9)2
_symmetry_space_group_name_H-M   'P 1'
_cell_length_a   8.46530000
_cell_length_b   9.93869971
_cell_length_c   25.11500000
_cell_angle_alpha   90.56000143
_cell_angle_beta   90.00000000
_cell_angle_gamma   90.00000000
_symmetry_Int_Tables_number   1
_chemical_formula_structural   Co5H18(C17O9)2
_chemical_formula_sum   'Co10 H36 C68 O36'
_cell_volume   2112.92635876
_cell_formula_units_Z   2
loop_
 _symmetry_equiv_pos_site_id
 _symmetry_equiv_pos_as_xyz
  1  'x, y, z'
loop_
 _atom_site_label
 _atom_site_fract_x
 _atom_site_fract_y
 _atom_site_fract_z
 _atom_site_charge
 Co 0.67333 0.25494 0.91237   1.105996
 Co 0.2959 0.31571 0.90214   0.976566
 Co 0.17333 0.24506 0.58763   1.105996
 Co 0.7959 0.18429 0.59786   0.976566
 Co 0.32667 0.74506 0.08763   1.105996
 Co 0.7041 0.68429 0.09786   0.976566
 Co 0.82667 0.75494 0.41237   1.105996
 Co 0.2041 0.81571 0.40214   0.976566
 Co 0.5 0.5 0.0   1.267554
 Co 0.0 0.0 0.5   1.267554
 H 0.01 0.9488 0.8137   0.122202
 H 0.968 0.5471 0.8311   0.111056
 H 0.7259 0.7998 0.927   0.096581
 H 0.1997 0.7969 0.7686   0.106404
 H 0.1958 0.6413 0.7791   0.114096
 H 0.0193 0.8908 0.7016   0.121608
 H 0.8428 0.6465 0.5889   0.112779
 H 0.0506 0.4913 0.7184   0.125988
 H 0.4649 0.2487 0.9831   0.449156
 H 0.51 0.5512 0.6863   0.122203
 H 0.468 0.9529 0.6689   0.111056
 H 0.2259 0.7002 0.573   0.096581
 H 0.6997 0.7031 0.7314   0.106404
 H 0.6958 0.8587 0.7209   0.114096
 H 0.5193 0.6092 0.7984   0.121609
 H 0.3428 0.8535 0.9111   0.112779
 H 0.5506 0.0087 0.7816   0.125988
 H 0.9649 0.2513 0.5169   0.449157
 H 0.99 0.0512 0.1863   0.122202
 H 0.032 0.4529 0.1689   0.111056
 H 0.2741 0.2002 0.073   0.096581
 H 0.8003 0.2031 0.2314   0.106404
 H 0.8042 0.3587 0.2209   0.114096
 H 0.9807 0.1092 0.2984   0.121608
 H 0.1572 0.3535 0.4111   0.112779
 H 0.9494 0.5087 0.2816   0.125988
 H 0.5351 0.7513 0.0169   0.449157
 H 0.49 0.4488 0.3137   0.122203
 H 0.532 0.0471 0.3311   0.111056
 H 0.7741 0.2998 0.427   0.096581
 H 0.3003 0.2969 0.2686   0.106404
 H 0.3042 0.1413 0.2791   0.114096
 H 0.4807 0.3908 0.2016   0.121609
 H 0.6572 0.1465 0.0889   0.11278
 H 0.4494 0.9913 0.2184   0.125988
 H 0.0351 0.7487 0.4831   0.449157
 C 0.8615 0.8937 0.8725   -0.112811
 C 0.9674 0.8752 0.8312   -0.080554
 C 0.0105 0.7416 0.81594   0.06313
 C 0.9433 0.6345 0.84179   -0.093103
 C 0.837 0.6565 0.88451   -0.138702
 C 0.7966 0.7852 0.89921   -0.008889
 C 0.8051 0.0351 0.8859   0.632586
 C 0.7561 0.539 0.9105   0.703503
 C 0.131 0.7191 0.7712   -0.221265
 C 0.0461 0.697 0.71947   0.077344
 C 0.000700000000002 0.8039 0.689   -0.092271
 C 0.9266 0.786 0.6393   -0.138368
 C 0.8941 0.659 0.62131   -0.010144
 C 0.9377 0.5481 0.65147   -0.117624
 C 0.0168 0.5658 0.6994   -0.092438
 C 0.8833 0.9073 0.6074   0.693344
 C 0.8998 0.4091 0.63202   0.669338
 C 0.3615 0.6063 0.6275   -0.112812
 C 0.4674 0.6248 0.6688   -0.080555
 C 0.5105 0.7584 0.68406   0.063128
 C 0.4433 0.8655 0.65821   -0.093103
 C 0.337 0.8435 0.61549   -0.138703
 C 0.2966 0.7148 0.60079   -0.008889
 C 0.3051 0.4649 0.6141   0.632585
 C 0.2561 0.961 0.5895   0.703502
 C 0.631 0.7809 0.7288   -0.221266
 C 0.5461 0.803 0.78053   0.077343
 C 0.5007 0.6961 0.811   -0.092273
 C 0.4266 0.714 0.8607   -0.138368
 C 0.3941 0.841 0.87869   -0.010146
 C 0.4377 0.9519 0.84853   -0.117623
 C 0.5168 0.9342 0.8006   -0.09244
 C 0.3833 0.5927 0.8926   0.693344
 C 0.3998 0.0909 0.86798   0.669338
 C 0.1385 0.1063 0.1275   -0.112811
 C 0.0326 0.1248 0.1688   -0.080554
 C 0.9895 0.2584 0.18406   0.06313
 C 0.0567 0.3655 0.15821   -0.093103
 C 0.163 0.3435 0.11549   -0.138702
 C 0.2034 0.2148 0.10079   -0.008889
 C 0.1949 0.9649 0.1141   0.632586
 C 0.2439 0.461 0.0895   0.703503
 C 0.869 0.2809 0.2288   -0.221265
 C 0.9539 0.303 0.28053   0.077344
 C 0.9993 0.1961 0.311   -0.092271
 C 0.0734 0.214 0.3607   -0.138367
 C 0.1059 0.341 0.37869   -0.010144
 C 0.0623 0.4519 0.34853   -0.117624
 C 0.9832 0.4342 0.3006   -0.092438
 C 0.1167 0.0927 0.3926   0.693344
 C 0.1002 0.5909 0.36798   0.669338
 C 0.6385 0.3937 0.3725   -0.112812
 C 0.5326 0.3752 0.3312   -0.080555
 C 0.4895 0.2416 0.31594   0.063128
 C 0.5567 0.1345 0.34179   -0.093103
 C 0.663 0.1565 0.38451   -0.138703
 C 0.7034 0.2852 0.39921   -0.008889
 C 0.6949 0.5351 0.3859   0.632586
 C 0.7439 0.039 0.4105   0.703502
 C 0.369 0.2191 0.2712   -0.221266
 C 0.4539 0.197 0.21947   0.077343
 C 0.4993 0.3039 0.189   -0.092273
 C 0.5734 0.286 0.1393   -0.138368
 C 0.6059 0.159 0.12131   -0.010146
 C 0.5623 0.0481 0.15147   -0.117623
 C 0.4832 0.0658 0.1994   -0.09244
 C 0.6167 0.4073 0.1074   0.693344
 C 0.6002 0.9091 0.13202   0.669338
 O 0.4862 0.3194 0.95716   -0.998535
 O 0.8491 0.1375 0.86076   -0.578175
 O 0.7043 0.0508 0.92394   -0.614303
 O 0.7075 0.5571 0.95684   -0.64665
 O 0.743 0.4333 0.88297   -0.591157
 O 0.8646 0.016 0.63211   -0.578511
 O 0.8674 0.8942 0.55718   -0.647477
 O 0.7843 0.3925 0.602   -0.56601
 O 0.9817 0.3094 0.64536   -0.588466
 O 0.9862 0.1806 0.54284   -0.998535
 O 0.3491 0.3625 0.63924   -0.578175
 O 0.2043 0.4492 0.57606   -0.614303
 O 0.2075 0.9429 0.54316   -0.646649
 O 0.243 0.0667 0.61703   -0.591157
 O 0.3646 0.484 0.86789   -0.578511
 O 0.3674 0.6058 0.94282   -0.647477
 O 0.2843 0.1075 0.898   -0.56601
 O 0.4817 0.1906 0.85464   -0.588466
 O 0.5138 0.6806 0.04284   -0.998536
 O 0.1509 0.8625 0.13924   -0.578175
 O 0.2957 0.9492 0.07606   -0.614303
 O 0.2925 0.4429 0.04316   -0.646649
 O 0.257 0.5667 0.11703   -0.591157
 O 0.1354 0.984 0.36789   -0.578511
 O 0.1326 0.1058 0.44282   -0.647476
 O 0.2157 0.6075 0.398   -0.566009
 O 0.0183 0.6906 0.35464   -0.588466
 O 0.0138 0.8194 0.45716   -0.998536
 O 0.6509 0.6375 0.36076   -0.578175
 O 0.7957 0.5508 0.42394   -0.614303
 O 0.7925 0.0571 0.45684   -0.646649
 O 0.757 0.9333 0.38297   -0.591157
 O 0.6354 0.516 0.13211   -0.578511
 O 0.6326 0.3942 0.05718   -0.647476
 O 0.7157 0.8925 0.102   -0.566009
 O 0.5183 0.8094 0.14536   -0.588466
