{'_ref': 'TBD', '_srcid': 'CAKYAQ_clean', 'submitters': [{'name': 'Dalar Nazarian Jeff Camp and David Sholl', 'email': 'dalar@gatech.edu jcamp6@gatech.edu'}], '_method': 'VASP DFT with PBE;DDEC'}
data_AlPO4
_symmetry_space_group_name_H-M   'P 1'
_cell_length_a   9.89949972
_cell_length_b   9.89950041
_cell_length_c   15.41910000
_cell_angle_alpha   74.56359822
_cell_angle_beta   74.56359712
_cell_angle_gamma   82.56849854
_symmetry_Int_Tables_number   1
_chemical_formula_structural   AlPO4
_chemical_formula_sum   'Al12 P12 O48'
_cell_volume   1401.23520658
_cell_formula_units_Z   12
loop_
 _symmetry_equiv_pos_site_id
 _symmetry_equiv_pos_as_xyz
  1  'x, y, z'
loop_
 _atom_site_label
 _atom_site_fract_x
 _atom_site_fract_y
 _atom_site_fract_z
 _atom_site_charge
 Al 0.93025 0.31515 0.12409   1.942269
 Al 0.63132 0.88302 0.07967   1.97172
 Al 0.02556 0.80676 0.16377   1.968645
 Al 0.68485 0.06975 0.37591   1.94227
 Al 0.11698 0.36868 0.42033   1.971721
 Al 0.19324 0.97444 0.33623   1.968645
 Al 0.06975 0.68485 0.87591   1.942269
 Al 0.36868 0.11698 0.92033   1.971719
 Al 0.97444 0.19324 0.83623   1.968645
 Al 0.31515 0.93025 0.62409   1.942269
 Al 0.88302 0.63132 0.57967   1.97172
 Al 0.80676 0.02556 0.66377   1.968646
 P 0.8696 0.64102 0.07551   2.097114
 P 0.31682 0.93492 0.12656   2.111471
 P 0.77725 0.04521 0.17098   2.104826
 P 0.35898 0.1304 0.42449   2.097113
 P 0.06508 0.68318 0.37344   2.111471
 P 0.95479 0.22275 0.32902   2.104826
 P 0.1304 0.35898 0.92449   2.097114
 P 0.68318 0.06508 0.87344   2.111471
 P 0.22275 0.95479 0.82902   2.104826
 P 0.64102 0.8696 0.57551   2.097113
 P 0.93492 0.31682 0.62656   2.111471
 P 0.04521 0.77725 0.67098   2.104825
 O 0.2147 0.8391 0.1201   -1.012429
 O 0.8403 0.4861 0.1088   -0.98143
 O 0.6702 0.014 0.1263   -1.001325
 O 0.2637 0.9993 0.2079   -1.024118
 O 0.795 0.2026 0.1396   -0.992592
 O 0.9818 0.669 0.1162   -1.022827
 O 0.7276 0.9984 0.2755   -1.008285
 O 0.4543 0.8465 0.1304   -0.990561
 O 0.3455 0.0583 0.0421   -1.044494
 O 0.9155 0.9673 0.1405   -1.088297
 O 0.7324 0.7238 0.1063   -1.00566
 O 0.9151 0.6817 0.9706   -1.024026
 O 0.1609 0.7853 0.3799   -1.012429
 O 0.5139 0.1597 0.3912   -0.98143
 O 0.986 0.3298 0.3737   -1.001325
 O 0.000700000000002 0.7363 0.2921   -1.024118
 O 0.7974 0.205 0.3604   -0.992592
 O 0.331 0.0182 0.3838   -1.022827
 O 0.0016 0.2724 0.2245   -1.008285
 O 0.1535 0.5457 0.3696   -0.990561
 O 0.9417 0.6545 0.4579   -1.044494
 O 0.0327 0.0845 0.3595   -1.088298
 O 0.2762 0.2676 0.3937   -1.00566
 O 0.3183 0.0849 0.5294   -1.024026
 O 0.7853 0.1609 0.8799   -1.012429
 O 0.1597 0.5139 0.8912   -0.98143
 O 0.3298 0.986 0.8737   -1.001325
 O 0.7363 0.000700000000002 0.7921   -1.024118
 O 0.205 0.7974 0.8604   -0.992592
 O 0.0182 0.331 0.8838   -1.022827
 O 0.2724 0.0016 0.7245   -1.008285
 O 0.5457 0.1535 0.8696   -0.990561
 O 0.6545 0.9417 0.9579   -1.044494
 O 0.0845 0.0327 0.8595   -1.088297
 O 0.2676 0.2762 0.8937   -1.005659
 O 0.0849 0.3183 0.0294   -1.024026
 O 0.8391 0.2147 0.6201   -1.012429
 O 0.4861 0.8403 0.6088   -0.98143
 O 0.014 0.6702 0.6263   -1.001325
 O 0.9993 0.2637 0.7079   -1.024118
 O 0.2026 0.795 0.6396   -0.992592
 O 0.669 0.9818 0.6162   -1.022827
 O 0.9984 0.7276 0.7755   -1.008285
 O 0.8465 0.4543 0.6304   -0.990561
 O 0.0583 0.3455 0.5421   -1.044494
 O 0.9673 0.9155 0.6405   -1.088298
 O 0.7238 0.7324 0.6063   -1.00566
 O 0.6817 0.9151 0.4706   -1.024026
