{'_ref': 'TBD', '_srcid': 'CAKYAQ_clean', 'submitters': [{'name': 'Dalar Nazarian Jeff Camp and David Sholl', 'email': 'dalar@gatech.edu jcamp6@gatech.edu'}], '_method': 'VASP DFT with PBE;DDEC'}
data_AlPO4
_symmetry_space_group_name_H-M   'P 1'
_cell_length_a   9.85040006
_cell_length_b   9.85039962
_cell_length_c   15.21000000
_cell_angle_alpha   74.46190127
_cell_angle_beta   74.46190200
_cell_angle_gamma   83.19319965
_symmetry_Int_Tables_number   1
_chemical_formula_structural   AlPO4
_chemical_formula_sum   'Al12 P12 O48'
_cell_volume   1368.18802855
_cell_formula_units_Z   12
loop_
 _symmetry_equiv_pos_site_id
 _symmetry_equiv_pos_as_xyz
  1  'x, y, z'
loop_
 _atom_site_label
 _atom_site_fract_x
 _atom_site_fract_y
 _atom_site_fract_z
 _atom_site_charge
 Al 0.93433 0.31537 0.12389   1.954643
 Al 0.02363 0.81011 0.16279   2.033075
 Al 0.12282 0.37506 0.41799   1.911647
 Al 0.68463 0.06567 0.37611   1.954644
 Al 0.18989 0.97637 0.33721   2.033075
 Al 0.62494 0.87718 0.08201   1.911645
 Al 0.06567 0.68463 0.87611   1.954642
 Al 0.97637 0.18989 0.83721   2.033076
 Al 0.87718 0.62494 0.58201   1.911646
 Al 0.31537 0.93433 0.62389   1.954643
 Al 0.81011 0.02363 0.66279   2.033075
 Al 0.37506 0.12282 0.91799   1.911643
 P 0.31039 0.93827 0.12772   2.081644
 P 0.86665 0.64119 0.07913   2.101733
 P 0.95839 0.22331 0.32988   2.076089
 P 0.06173 0.68961 0.37228   2.081644
 P 0.35881 0.13335 0.42087   2.101733
 P 0.77669 0.04161 0.17012   2.076089
 P 0.68961 0.06173 0.87228   2.081644
 P 0.13335 0.35881 0.92087   2.101733
 P 0.04161 0.77669 0.67012   2.076089
 P 0.93827 0.31039 0.62772   2.081644
 P 0.64119 0.86665 0.57913   2.101733
 P 0.22331 0.95839 0.82988   2.076089
 O 0.2014 0.8544 0.1133   -1.02653
 O 0.4398 0.8384 0.1364   -0.962682
 O 0.2518 0.9958 0.2145   -1.045593
 O 0.8459 0.4849 0.1104   -0.990136
 O 0.0101 0.2709 0.2231   -1.005526
 O 0.9802 0.6752 0.1205   -1.045911
 O 0.9132 0.6858 0.9728   -1.030196
 O 0.9827 0.3351 0.3741   -0.976086
 O 0.3511 0.0659 0.0457   -1.011863
 O 0.7272 0.7152 0.1127   -0.979072
 O 0.0382 0.0866 0.3635   -1.087975
 O 0.7991 0.2013 0.3599   -0.99726
 O 0.1456 0.7986 0.3867   -1.02653
 O 0.1616 0.5602 0.3636   -0.962683
 O 0.0042 0.7482 0.2855   -1.045593
 O 0.5151 0.1541 0.3896   -0.990136
 O 0.7291 0.9899 0.2769   -1.005526
 O 0.3248 0.0198 0.3795   -1.045911
 O 0.3142 0.0868 0.5272   -1.030197
 O 0.6649 0.0173 0.1259   -0.976085
 O 0.9341 0.6489 0.4543   -1.011863
 O 0.2848 0.2728 0.3873   -0.979072
 O 0.9134 0.9618 0.1365   -1.087976
 O 0.7987 0.2009 0.1401   -0.997258
 O 0.7986 0.1456 0.8867   -1.02653
 O 0.5602 0.1616 0.8636   -0.962682
 O 0.7482 0.0042 0.7855   -1.045593
 O 0.1541 0.5151 0.8896   -0.990135
 O 0.9899 0.7291 0.7769   -1.005526
 O 0.0198 0.3248 0.8795   -1.045911
 O 0.0868 0.3142 0.0272   -1.030196
 O 0.0173 0.6649 0.6259   -0.976085
 O 0.6489 0.9341 0.9543   -1.011863
 O 0.2728 0.2848 0.8873   -0.979072
 O 0.9618 0.9134 0.6365   -1.087975
 O 0.2009 0.7987 0.6401   -0.99726
 O 0.8544 0.2014 0.6133   -1.02653
 O 0.8384 0.4398 0.6364   -0.962682
 O 0.9958 0.2518 0.7145   -1.045593
 O 0.4849 0.8459 0.6104   -0.990136
 O 0.2709 0.0101 0.7231   -1.005526
 O 0.6752 0.9802 0.6205   -1.045911
 O 0.6858 0.9132 0.4728   -1.030197
 O 0.3351 0.9827 0.8741   -0.976085
 O 0.0659 0.3511 0.5457   -1.011864
 O 0.7152 0.7272 0.6127   -0.979072
 O 0.0866 0.0382 0.8635   -1.087976
 O 0.2013 0.7991 0.8599   -0.997258
