{'_ref': 'TBD', '_srcid': 'CAKYAQ_clean', 'submitters': [{'name': 'Dalar Nazarian Jeff Camp and David Sholl', 'email': 'dalar@gatech.edu jcamp6@gatech.edu'}], '_method': 'VASP DFT with PBE;DDEC'}
data_CoH12C15N4O3
_symmetry_space_group_name_H-M   'P 1'
_cell_length_a   10.79799970
_cell_length_b   15.83749955
_cell_length_c   15.83750000
_cell_angle_alpha   94.80889902
_cell_angle_beta   103.45800193
_cell_angle_gamma   103.45800002
_symmetry_Int_Tables_number   1
_chemical_formula_structural   CoH12C15N4O3
_chemical_formula_sum   'Co4 H48 C60 N16 O12'
_cell_volume   2534.31119114
_cell_formula_units_Z   4
loop_
 _symmetry_equiv_pos_site_id
 _symmetry_equiv_pos_as_xyz
  1  'x, y, z'
loop_
 _atom_site_label
 _atom_site_fract_x
 _atom_site_fract_y
 _atom_site_fract_z
 _atom_site_charge
 Co 0.0415 0.9337 0.7721   0.474592
 Co 0.2797 0.422 0.2606   0.258331
 Co 0.5415 0.7721 0.9337   0.474592
 Co 0.7797 0.2606 0.422   0.258331
 H 0.8284 0.7638 0.946   0.080715
 H 0.7475 0.8641 0.7025   0.054964
 H 0.1683 0.3028 0.0842   0.06207
 H 0.2523 0.5523 0.1397   0.043315
 H 0.1184 0.63 0.0666   0.14775
 H 0.0151 0.442 0.2568   0.06151
 H 0.4528 0.7261 0.4497   0.157498
 H 0.5925 0.7655 0.6011   0.113683
 H 0.7359 0.6088 0.4252   0.134521
 H 0.3088 0.6095 0.3497   0.068138
 H 0.0237 0.8405 0.5885   0.09099
 H 0.8724 0.7411 0.4823   0.110011
 H 0.5791 0.4928 0.3304   0.065942
 H 0.9635 0.6836 0.998   0.094438
 H 0.858 0.0646 0.9536   0.099534
 H 0.559 0.6222 0.0512   0.095411
 H 0.8393 0.4927 0.1773   0.145696
 H 0.6674 0.8819 0.1121   0.067279
 H 0.0066 0.1842 0.0128   0.114284
 H 0.1011 0.2567 0.3033   0.06443
 H 0.8031 0.0157 0.1801   0.110138
 H 0.907 0.1474 0.2364   0.124905
 H 0.7607 0.9208 0.894   0.08165
 H 0.7155 0.5486 0.0954   0.085529
 H 0.3284 0.946 0.7638   0.080715
 H 0.2475 0.7025 0.8641   0.054964
 H 0.6683 0.0842 0.3028   0.062069
 H 0.7523 0.1397 0.5523   0.043315
 H 0.6184 0.0666 0.63   0.14775
 H 0.5151 0.2568 0.442   0.061509
 H 0.9528 0.4497 0.7261   0.157499
 H 0.0925 0.6011 0.7655   0.113683
 H 0.2359 0.4252 0.6088   0.134521
 H 0.8088 0.3497 0.6095   0.068138
 H 0.5237 0.5885 0.8405   0.09099
 H 0.3724 0.4823 0.7411   0.110011
 H 0.0791 0.3304 0.4928   0.065942
 H 0.4635 0.998 0.6836   0.094438
 H 0.358 0.9536 0.0646   0.099534
 H 0.059 0.0512 0.6222   0.095411
 H 0.3393 0.1773 0.4927   0.145697
 H 0.1674 0.1121 0.8819   0.067279
 H 0.5066 0.0128 0.1842   0.114285
 H 0.6011 0.3033 0.2567   0.06443
 H 0.3031 0.1801 0.0157   0.110137
 H 0.407 0.2364 0.1474   0.124905
 H 0.2607 0.894 0.9208   0.08165
 H 0.2155 0.0954 0.5486   0.085529
 C 0.8011 0.7203 0.9787   0.120629
 C 0.7724 0.8376 0.6568   0.15758
 C 0.1172 0.2703 0.1161   0.116761
 C 0.1685 0.544 0.1488   0.136138
 C 0.0905 0.5917 0.1039   -0.220337
 C 0.9602 0.1378 0.1156   0.0685
 C 0.8658 0.052 0.0734   0.075941
 C 0.7066 0.7373 0.5177   0.062795
 C 0.6087 0.6718 0.4486   0.103783
 C 0.0306 0.4774 0.2144   0.170812
 C 0.8708 0.6223 0.0749   0.067192
 C 0.9681 0.5778 0.1192   0.072101
 C 0.4798 0.6795 0.4269   -0.22409
 C 0.6783 0.7796 0.595   -0.188648
 C 0.6471 0.6081 0.4123   -0.187273
 C 0.3968 0.6083 0.3671   0.149936
 C 0.9362 0.825 0.591   0.142137
 C 0.8421 0.7657 0.5263   -0.199215
 C 0.5527 0.5393 0.3539   0.161261
 C 0.8858 0.676 0.0156   -0.149618
 C 0.8314 0.0247 0.9899   -0.167682
 C 0.6409 0.6384 0.0394   0.063282
 C 0.9252 0.5109 0.1721   -0.214094
 C 0.7097 0.9186 0.0788   0.120761
 C 0.0252 0.1956 0.0736   -0.200007
 C 0.0735 0.2452 0.2424   0.163301
 C 0.794 0.9981 0.1209   -0.203907
 C 0.9673 0.172 0.2062   -0.214785
 C 0.759 0.9418 0.9502   0.148084
 C 0.7421 0.5995 0.0717   -0.156127
 C 0.3011 0.9787 0.7203   0.120629
 C 0.2724 0.6568 0.8376   0.15758
 C 0.6172 0.1161 0.2703   0.116762
 C 0.6685 0.1488 0.544   0.136138
 C 0.5905 0.1039 0.5917   -0.220337
 C 0.4602 0.1156 0.1378   0.068503
 C 0.3658 0.0734 0.052   0.075942
 C 0.2066 0.5177 0.7373   0.062794
 C 0.1087 0.4486 0.6718   0.103783
 C 0.5306 0.2144 0.4774   0.170812
 C 0.3708 0.0749 0.6223   0.067192
 C 0.4681 0.1192 0.5778   0.072101
 C 0.9798 0.4269 0.6795   -0.224091
 C 0.1783 0.595 0.7796   -0.188648
 C 0.1471 0.4123 0.6081   -0.187274
 C 0.8968 0.3671 0.6083   0.149936
 C 0.4362 0.591 0.825   0.142137
 C 0.3421 0.5263 0.7657   -0.199215
 C 0.0527 0.3539 0.5393   0.161261
 C 0.3858 0.0156 0.676   -0.149617
 C 0.3314 0.9899 0.0247   -0.167679
 C 0.1409 0.0394 0.6384   0.063281
 C 0.4252 0.1721 0.5109   -0.214093
 C 0.2097 0.0788 0.9186   0.120761
 C 0.5252 0.0736 0.1956   -0.200007
 C 0.5735 0.2424 0.2452   0.163303
 C 0.294 0.1209 0.9981   -0.203905
 C 0.4673 0.2062 0.172   -0.214782
 C 0.259 0.9502 0.9418   0.148084
 C 0.2421 0.0717 0.5995   -0.156127
 N 0.671 0.7027 0.9883   -0.318033
 N 0.8991 0.86 0.6576   -0.324227
 N 0.1415 0.4906 0.2004   -0.22865
 N 0.4254 0.5389 0.3313   -0.280162
 N 0.138 0.2989 0.2001   -0.261802
 N 0.6857 0.8917 0.9943   -0.307282
 N 0.0233 0.7817 0.8281   0.767222
 N 0.3068 0.3693 0.4105   0.782699
 N 0.171 0.9883 0.7027   -0.318033
 N 0.3991 0.6576 0.86   -0.324227
 N 0.6415 0.2004 0.4906   -0.22865
 N 0.9254 0.3313 0.5389   -0.280162
 N 0.638 0.2001 0.2989   -0.261802
 N 0.1857 0.9943 0.8917   -0.307283
 N 0.5233 0.8281 0.7817   0.767222
 N 0.8068 0.4105 0.3693   0.782699
 O 0.1008 0.8121 0.7833   -0.411084
 O 0.2214 0.4128 0.3844   -0.438446
 O 0.9502 0.8357 0.8433   -0.498983
 O 0.367 0.3478 0.3592   -0.392386
 O 0.0038 0.7119 0.8541   -0.402589
 O 0.3156 0.3464 0.4846   -0.468813
 O 0.6008 0.7833 0.8121   -0.411085
 O 0.7214 0.3844 0.4128   -0.438446
 O 0.4502 0.8433 0.8357   -0.498984
 O 0.867 0.3592 0.3478   -0.392386
 O 0.5038 0.8541 0.7119   -0.402589
 O 0.8156 0.4846 0.3464   -0.468813
