{'_ref': 'TBD', '_srcid': 'CAKYAQ_clean', 'submitters': [{'name': 'Dalar Nazarian Jeff Camp and David Sholl', 'email': 'dalar@gatech.edu jcamp6@gatech.edu'}], '_method': 'VASP DFT with PBE;DDEC'}
data_Nd2P5H40C23N5O19
_symmetry_space_group_name_H-M   'P 1'
_cell_length_a   13.17100007
_cell_length_b   13.56609985
_cell_length_c   15.14720000
_cell_angle_alpha   108.55000049
_cell_angle_beta   101.69100205
_cell_angle_gamma   111.93300067
_symmetry_Int_Tables_number   1
_chemical_formula_structural   Nd2P5H40C23N5O19
_chemical_formula_sum   'Nd4 P10 H80 C46 N10 O38'
_cell_volume   2215.44725672
_cell_formula_units_Z   2
loop_
 _symmetry_equiv_pos_site_id
 _symmetry_equiv_pos_as_xyz
  1  'x, y, z'
loop_
 _atom_site_label
 _atom_site_fract_x
 _atom_site_fract_y
 _atom_site_fract_z
 _atom_site_charge
 Nd 0.18665 0.65034 0.92883   2.428305
 Nd 0.40056 0.89534 0.84769   2.447984
 Nd 0.81335 0.34966 0.07117   2.428306
 Nd 0.59944 0.10466 0.15231   2.447984
 P 0.1115 0.58872 0.12938   1.5376
 P 0.68099 0.17503 0.42694   1.51632
 P 0.28424 0.92108 0.06059   1.558787
 P 0.51382 0.8256 0.05709   1.499662
 P 0.08244 0.77349 0.7675   1.60076
 P 0.8885 0.41128 0.87062   1.537599
 P 0.31901 0.82497 0.57306   1.516321
 P 0.71576 0.07892 0.93941   1.558787
 P 0.48618 0.1744 0.94291   1.499662
 P 0.91756 0.22651 0.2325   1.600761
 H 0.3387 0.7586 0.3748   0.238615
 H 0.5339 0.9164 0.2718   0.261083
 H 0.0914 0.9423 0.9427   0.252071
 H 0.4327 0.584 0.9646   0.246157
 H 0.4527 0.5671 0.6369   0.115425
 H 0.0838 0.6633 0.5674   0.262137
 H 0.3986 0.3742 0.5311   0.115443
 H 0.1016 0.7284 0.1167   0.436004
 H 0.2626 0.2209 0.544   0.098581
 H 0.1759 0.2544 0.6614   0.119778
 H 0.2049 0.5631 0.2607   0.18694
 H 0.1503 0.6449 0.2987   0.204683
 H 0.3071 0.8206 0.2195   0.125388
 H 0.2599 0.8556 0.3055   0.140149
 H 0.4506 0.9696 0.4234   0.091447
 H 0.4414 0.0122 0.3386   0.156154
 H 0.5873 0.7972 0.3209   0.101109
 H 0.5439 0.8263 0.4103   0.11946
 H 0.4044 0.64 0.2831   0.116481
 H 0.3926 0.6945 0.2065   0.120065
 H 0.6755 0.0223 0.4694   0.145992
 H 0.7173 0.0136 0.3789   0.186193
 H 0.2844 0.0858 0.0458   0.180365
 H 0.2485 0.0757 0.1358   0.171828
 H 0.0299 0.8612 0.0452   0.150796
 H 0.0494 0.9839 0.1188   0.123472
 H 0.1226 0.1542 0.0768   0.115673
 H 0.1503 0.1367 0.9787   0.11811
 H 0.5819 0.7312 0.9418   0.168255
 H 0.6601 0.766 0.0509   0.162311
 H 0.5156 0.6546 0.1348   0.123486
 H 0.6169 0.6247 0.1199   0.107618
 H 0.6221 0.5468 0.9515   0.136568
 H 0.5233 0.5261 0.8592   0.121594
 H 0.9657 0.74 0.6123   0.165577
 H 0.903 0.6351 0.6376   0.156307
 H 0.8512 0.4927 0.4689   0.104188
 H 0.9106 0.5972 0.4418   0.111992
 H 0.1016 0.5744 0.6705   0.123089
 H 0.9693 0.479 0.6106   0.123127
 H 0.6613 0.2414 0.6252   0.238615
 H 0.4661 0.0836 0.7282   0.261083
 H 0.9086 0.0577 0.0573   0.252071
 H 0.5673 0.416 0.0354   0.246157
 H 0.5473 0.4329 0.3631   0.115424
 H 0.9162 0.3367 0.4326   0.262137
 H 0.6014 0.6258 0.4689   0.115441
 H 0.8984 0.2716 0.8833   0.436004
 H 0.7374 0.7791 0.456   0.098592
 H 0.8241 0.7456 0.3386   0.119793
 H 0.7951 0.4369 0.7393   0.186936
 H 0.8497 0.3551 0.7013   0.204684
 H 0.6929 0.1794 0.7805   0.125389
 H 0.7401 0.1444 0.6945   0.14015
 H 0.5494 0.0304 0.5766   0.09144
 H 0.5586 0.9878 0.6614   0.156154
 H 0.4127 0.2028 0.6791   0.10111
 H 0.4561 0.1737 0.5897   0.119461
 H 0.5956 0.36 0.7169   0.116476
 H 0.6074 0.3055 0.7935   0.120065
 H 0.3245 0.9777 0.5306   0.145992
 H 0.2827 0.9864 0.6211   0.186203
 H 0.7156 0.9142 0.9542   0.180367
 H 0.7515 0.9243 0.8642   0.171828
 H 0.9701 0.1388 0.9548   0.150796
 H 0.9506 0.0161 0.8812   0.123475
 H 0.8774 0.8458 0.9232   0.115669
 H 0.8497 0.8633 0.0213   0.118111
 H 0.4181 0.2688 0.0582   0.168256
 H 0.3399 0.234 0.9491   0.162315
 H 0.4844 0.3454 0.8652   0.123486
 H 0.3831 0.3753 0.8801   0.107619
 H 0.3779 0.4532 0.0485   0.136564
 H 0.4767 0.4739 0.1408   0.12159
 H 0.0343 0.26 0.3877   0.165588
 H 0.097 0.3649 0.3624   0.156302
 H 0.1488 0.5073 0.5311   0.104188
 H 0.0894 0.4028 0.5582   0.111993
 H 0.8984 0.4256 0.3295   0.123089
 H 0.0307 0.521 0.3894   0.123129
 C 0.2066 0.4575 0.7951   0.632237
 C 0.3752 0.6533 0.7747   0.692769
 C 0.262 0.4326 0.7201   -0.046589
 C 0.3443 0.527 0.712   -0.145006
 C 0.3964 0.5046 0.6417   -0.048881
 C 0.3644 0.3889 0.5785   -0.128311
 C 0.2835 0.2979 0.5864   -0.066437
 C 0.2312 0.3177 0.6568   -0.126792
 C 0.1963 0.6304 0.2585   -0.514876
 C 0.3213 0.8391 0.2896   -0.129576
 C 0.4399 0.9472 0.3534   -0.108776
 C 0.5283 0.8145 0.3413   -0.121745
 C 0.4076 0.7097 0.2762   -0.106334
 C 0.6596 0.0258 0.4054   -0.508693
 C 0.2343 0.0313 0.0662   -0.500778
 C 0.0265 0.9325 0.0489   -0.115383
 C 0.0982 0.0985 0.008   -0.092343
 C 0.5798 0.7323 0.0058   -0.48061
 C 0.5341 0.6008 0.0899   -0.097471
 C 0.5393 0.5236 0.9236   -0.112858
 C 0.9779 0.6868 0.6382   -0.501655
 C 0.9243 0.5437 0.4664   -0.092925
 C 0.0397 0.5302 0.6048   -0.112989
 C 0.7934 0.5425 0.2049   0.632236
 C 0.6248 0.3467 0.2253   0.692769
 C 0.738 0.5674 0.2799   -0.046587
 C 0.6557 0.473 0.288   -0.145006
 C 0.6036 0.4954 0.3583   -0.048881
 C 0.6356 0.6111 0.4215   -0.12831
 C 0.7165 0.7021 0.4136   -0.06644
 C 0.7688 0.6823 0.3432   -0.126797
 C 0.8037 0.3696 0.7415   -0.514875
 C 0.6787 0.1609 0.7104   -0.129577
 C 0.5601 0.0528 0.6466   -0.108774
 C 0.4717 0.1855 0.6587   -0.121746
 C 0.5924 0.2903 0.7238   -0.106332
 C 0.3404 0.9742 0.5946   -0.508696
 C 0.7657 0.9687 0.9338   -0.500779
 C 0.9735 0.0675 0.9511   -0.115386
 C 0.9018 0.9015 0.992   -0.092346
 C 0.4202 0.2677 0.9942   -0.480612
 C 0.4659 0.3992 0.9101   -0.09747
 C 0.4607 0.4764 0.0764   -0.112854
 C 0.0221 0.3132 0.3618   -0.501657
 C 0.0757 0.4563 0.5336   -0.092925
 C 0.9603 0.4698 0.3952   -0.11299
 N 0.3169 0.7359 0.3076   0.163018
 N 0.5393 0.926 0.3352   0.154869
 N 0.1101 0.9926 0.007   0.158244
 N 0.5107 0.6072 0.9919   0.142574
 N 0.0164 0.6139 0.5703   0.145116
 N 0.6831 0.2641 0.6924   0.163017
 N 0.4607 0.074 0.6648   0.154869
 N 0.8899 0.0074 0.993   0.158244
 N 0.4893 0.3928 0.0081   0.142573
 N 0.9836 0.3861 0.4297   0.145117
 O 0.104 0.4429 0.7672   -0.608086
 O 0.2684 0.503 0.8875   -0.714047
 O 0.3012 0.674 0.8093   -0.812963
 O 0.4706 0.7348 0.7884   -0.628519
 O 0.191 0.5971 0.0701   -0.933999
 O 0.0118 0.4688 0.0973   -0.923241
 O 0.0654 0.6825 0.1372   -0.733489
 O 0.6201 0.2066 0.4999   -0.921957
 O 0.6224 0.1651 0.3259   -0.958818
 O 0.8134 0.2519 0.4742   -0.875051
 O 0.2892 0.8679 0.9572   -1.071679
 O 0.1925 0.8179 0.0691   -0.956532
 O 0.4017 0.9926 0.1452   -0.918628
 O 0.0684 0.687 0.8133   -0.99397
 O 0.0425 0.8629 0.8139   -0.922456
 O 0.1997 0.8289 0.7582   -0.97484
 O 0.5243 0.9036 0.0021   -1.028347
 O 0.5885 0.9074 0.1679   -0.911753
 O 0.3911 0.7377 0.0377   -0.934565
 O 0.896 0.5571 0.2328   -0.608084
 O 0.7316 0.497 0.1125   -0.714047
 O 0.6988 0.326 0.1907   -0.812963
 O 0.5294 0.2652 0.2116   -0.628519
 O 0.809 0.4029 0.9299   -0.933998
 O 0.9882 0.5312 0.9027   -0.923241
 O 0.9346 0.3175 0.8628   -0.733487
 O 0.3799 0.7934 0.5001   -0.921957
 O 0.3776 0.8349 0.6741   -0.958818
 O 0.1866 0.7481 0.5258   -0.875052
 O 0.7108 0.1321 0.0428   -1.071679
 O 0.8075 0.1821 0.9309   -0.956532
 O 0.5983 0.0074 0.8548   -0.918628
 O 0.9316 0.313 0.1867   -0.99397
 O 0.9575 0.1371 0.1861   -0.922457
 O 0.8003 0.1711 0.2418   -0.97484
 O 0.4757 0.0964 0.9979   -1.028347
 O 0.4115 0.0926 0.8321   -0.911753
 O 0.6089 0.2623 0.9623   -0.934565
