{'_ref': 'TBD', '_srcid': 'CAKYAQ_clean', 'submitters': [{'name': 'Dalar Nazarian Jeff Camp and David Sholl', 'email': 'dalar@gatech.edu jcamp6@gatech.edu'}], '_method': 'VASP DFT with PBE;DDEC'}
data_MnH15C15SN9O4
_symmetry_space_group_name_H-M   'P 1'
_cell_length_a   9.24099958
_cell_length_b   11.24499977
_cell_length_c   11.84500000
_cell_angle_alpha   78.96999744
_cell_angle_beta   74.57999820
_cell_angle_gamma   87.60899992
_symmetry_Int_Tables_number   1
_chemical_formula_structural   MnH15C15SN9O4
_chemical_formula_sum   'Mn2 H30 C30 S2 N18 O8'
_cell_volume   1164.59167307
_cell_formula_units_Z   2
loop_
 _symmetry_equiv_pos_site_id
 _symmetry_equiv_pos_as_xyz
  1  'x, y, z'
loop_
 _atom_site_label
 _atom_site_fract_x
 _atom_site_fract_y
 _atom_site_fract_z
 _atom_site_charge
 Mn 0.0 0.0 0.0   0.811648
 Mn 0.0 0.0 0.5   0.699498
 H 0.6449 0.0535 0.6315   0.091675
 H 0.793 0.1038 0.2885   0.1136
 H 0.566 0.2144 0.2297   0.127883
 H 0.4156 0.1806 0.3286   0.125329
 H 0.2898 0.3634 0.2822   0.125325
 H 0.1227 0.5253 0.2868   0.119318
 H 0.2151 0.6371 0.2025   0.114911
 H 0.9862 0.71 0.6141   0.086312
 H 0.1003 0.8303 0.2748   0.108904
 H 0.4281 0.6789 0.3309   0.104726
 H 0.6792 0.3805 0.3663   0.100781
 H 0.7527 0.5637 0.4196   0.097991
 H 0.6411 0.6729 0.4275   0.08692
 H 0.0092 0.7014 0.031   0.0978
 H 0.7519 0.8609 0.2682   0.107089
 H 0.3551 0.9465 0.3685   0.091672
 H 0.207 0.8962 0.7115   0.113591
 H 0.434 0.7856 0.7703   0.127916
 H 0.5844 0.8194 0.6714   0.125329
 H 0.7102 0.6366 0.7178   0.125319
 H 0.8773 0.4747 0.7132   0.119326
 H 0.7849 0.3629 0.7975   0.114934
 H 0.0138 0.29 0.3859   0.086323
 H 0.8997 0.1697 0.7252   0.108899
 H 0.5719 0.3211 0.6691   0.104741
 H 0.3208 0.6195 0.6337   0.100793
 H 0.2473 0.4363 0.5804   0.097992
 H 0.3589 0.3271 0.5725   0.086925
 H 0.9908 0.2986 0.969   0.097816
 H 0.2481 0.1391 0.7318   0.107089
 C 0.6503 0.0778 0.5509   0.249897
 C 0.7332 0.1036 0.3653   0.129997
 C 0.5129 0.2195 0.311   -0.098452
 C 0.4902 0.352 0.3213   0.075933
 C 0.361 0.4078 0.2997   -0.18051
 C 0.3376 0.5308 0.3041   0.077789
 C 0.1935 0.5885 0.2822   -0.097936
 C 0.0249 0.7133 0.5326   0.263623
 C 0.0846 0.7805 0.3494   0.117771
 C 0.4435 0.597 0.3287   -0.193577
 C 0.5944 0.4185 0.3486   -0.182569
 C 0.5741 0.5417 0.3502   0.076268
 C 0.6914 0.617 0.377   -0.085541
 C 0.9406 0.7145 0.1006   0.284879
 C 0.8026 0.8026 0.2268   0.155947
 C 0.3497 0.9222 0.4491   0.24992
 C 0.2668 0.8964 0.6347   0.130007
 C 0.4871 0.7805 0.689   -0.098461
 C 0.5098 0.648 0.6787   0.075922
 C 0.639 0.5922 0.7003   -0.180432
 C 0.6624 0.4692 0.6959   0.077788
 C 0.8065 0.4115 0.7178   -0.097946
 C 0.9751 0.2867 0.4674   0.263657
 C 0.9154 0.2195 0.6506   0.117786
 C 0.5565 0.403 0.6713   -0.193547
 C 0.4056 0.5815 0.6514   -0.182522
 C 0.4259 0.4583 0.6498   0.076319
 C 0.3086 0.383 0.623   -0.08552
 C 0.0594 0.2855 0.8994   0.284875
 C 0.1974 0.1974 0.7732   0.155947
 S 0.85018 0.88593 0.80577   1.663863
 S 0.14982 0.11407 0.19423   1.663872
 N 0.5974 0.1544 0.3917   0.156804
 N 0.5411 0.1393 0.5125   -0.373527
 N 0.7699 0.0532 0.4643   -0.357808
 N 0.1252 0.6652 0.3689   0.161654
 N 0.0897 0.6196 0.4888   -0.350682
 N 0.0183 0.814 0.4525   -0.369827
 N 0.787 0.6846 0.2666   0.178427
 N 0.8772 0.6252 0.1857   -0.358721
 N 0.8996 0.8271 0.1206   -0.416174
 N 0.4026 0.8456 0.6083   0.156807
 N 0.4589 0.8607 0.4875   -0.373503
 N 0.2301 0.9468 0.5357   -0.357803
 N 0.8748 0.3348 0.6311   0.161647
 N 0.9103 0.3804 0.5112   -0.350592
 N 0.9817 0.186 0.5475   -0.369829
 N 0.213 0.3154 0.7334   0.178425
 N 0.1228 0.3748 0.8143   -0.358721
 N 0.1004 0.1729 0.8794   -0.416173
 O 0.8773 0.9202 0.6776   -0.666862
 O 0.8544 0.7541 0.836   -0.740143
 O 0.965 0.9393 0.8452   -0.741217
 O 0.7023 0.9242 0.8642   -0.74365
 O 0.1227 0.0798 0.3224   -0.666864
 O 0.1456 0.2459 0.164   -0.740144
 O 0.035 0.0607 0.1548   -0.741219
 O 0.2977 0.0758 0.1358   -0.743728
