{'_ref': 'TBD', '_srcid': 'CAKYAQ_clean', 'submitters': [{'name': 'Dalar Nazarian Jeff Camp and David Sholl', 'email': 'dalar@gatech.edu jcamp6@gatech.edu'}], '_method': 'VASP DFT with PBE;DDEC'}
data_Cd5H16C24(N10Cl3)2
_symmetry_space_group_name_H-M   'P 1'
_cell_length_a   12.52999986
_cell_length_b   16.13040016
_cell_length_c   20.89280000
_cell_angle_alpha   67.39710025
_cell_angle_beta   72.55059814
_cell_angle_gamma   67.14519944
_symmetry_Int_Tables_number   1
_chemical_formula_structural   Cd5H16C24(N10Cl3)2
_chemical_formula_sum   'Cd10 H32 C48 N40 Cl12'
_cell_volume   3535.60014991
_cell_formula_units_Z   2
loop_
 _symmetry_equiv_pos_site_id
 _symmetry_equiv_pos_as_xyz
  1  'x, y, z'
loop_
 _atom_site_label
 _atom_site_fract_x
 _atom_site_fract_y
 _atom_site_fract_z
 _atom_site_charge
 Cd 0.36683 0.74016 0.76034   0.750187
 Cd 0.63818 0.6644 0.84534   0.741618
 Cd 0.86733 0.75984 0.73966   0.749637
 Cd 0.14792 0.8356 0.65466   0.741805
 Cd 0.63317 0.25984 0.23966   0.750187
 Cd 0.36182 0.3356 0.15466   0.741618
 Cd 0.13267 0.24016 0.26034   0.749637
 Cd 0.85208 0.1644 0.34534   0.741805
 Cd 0.5 0.0 0.0   0.884945
 Cd 0.5 0.5 0.5   0.884936
 H 0.314 0.628 0.926   0.099244
 H 0.4008 0.5156 0.019   0.063505
 H 0.1883 0.3683 0.0593   0.072983
 H 0.1038 0.4748 0.9616   0.129616
 H 0.3795 0.3528 0.8432   0.157425
 H 0.6146 0.299 0.9586   0.151864
 H 0.5993 0.1454 0.013   0.09022
 H 0.3786 0.1993 0.8951   0.077946
 H 0.868 0.872 0.574   0.09961
 H 0.9354 0.9844 0.481   0.062828
 H 0.6159 0.1317 0.4407   0.072654
 H 0.5402 0.0252 0.5384   0.129074
 H 0.5755 0.1472 0.6568   0.155286
 H 0.8722 0.201 0.5414   0.152912
 H 0.7577 0.3546 0.487   0.088269
 H 0.473 0.3007 0.6049   0.076978
 H 0.686 0.372 0.074   0.099244
 H 0.5992 0.4844 0.981   0.063506
 H 0.8117 0.6317 0.9407   0.072983
 H 0.8962 0.5252 0.0384   0.129616
 H 0.6205 0.6472 0.1568   0.157425
 H 0.3854 0.701 0.0414   0.151864
 H 0.4007 0.8546 0.987   0.090222
 H 0.6214 0.8007 0.1049   0.077946
 H 0.132 0.128 0.426   0.09961
 H 0.0646 0.0156 0.519   0.062828
 H 0.3841 0.8683 0.5593   0.072654
 H 0.4598 0.9748 0.4616   0.129074
 H 0.4245 0.8528 0.3432   0.155286
 H 0.1278 0.799 0.4586   0.152913
 H 0.2423 0.6454 0.513   0.088271
 H 0.527 0.6993 0.3951   0.076979
 C 0.145 0.6321 0.8745   0.283052
 C 0.1976 0.565 0.9322   0.066435
 C 0.2872 0.5748 0.9516   -0.156818
 C 0.338 0.5075 0.0079   0.154748
 C 0.2159 0.4208 0.0312   0.156669
 C 0.164 0.4856 0.9732   -0.179651
 C 0.5133 0.4374 0.8574   0.279806
 C 0.5052 0.3403 0.8917   0.105692
 C 0.4296 0.3107 0.8763   -0.177801
 C 0.5655 0.2799 0.9439   -0.136014
 C 0.5554 0.1875 0.9767   0.158062
 C 0.4276 0.2188 0.9096   0.172796
 C 0.6516 0.8679 0.6255   0.280259
 C 0.6948 0.935 0.5678   0.06857
 C 0.8136 0.9252 0.5484   -0.156558
 C 0.8534 0.9925 0.4921   0.156359
 C 0.6679 0.0792 0.4688   0.156426
 C 0.6228 0.0144 0.5268   -0.180299
 C 0.8081 0.0626 0.6426   0.276541
 C 0.7372 0.1597 0.6083   0.10797
 C 0.6166 0.1893 0.6237   -0.175736
 C 0.7893 0.2201 0.5561   -0.139941
 C 0.7196 0.3125 0.5233   0.160434
 C 0.556 0.2812 0.5904   0.173452
 C 0.855 0.3679 0.1255   0.283052
 C 0.8024 0.435 0.0678   0.066435
 C 0.7128 0.4252 0.0484   -0.156818
 C 0.662 0.4925 0.9921   0.154748
 C 0.7841 0.5792 0.9688   0.156669
 C 0.836 0.5144 0.0268   -0.179651
 C 0.4867 0.5626 0.1426   0.279806
 C 0.4948 0.6597 0.1083   0.105692
 C 0.5704 0.6893 0.1237   -0.177801
 C 0.4345 0.7201 0.0561   -0.136014
 C 0.4446 0.8125 0.0233   0.158061
 C 0.5724 0.7812 0.0904   0.172796
 C 0.3484 0.1321 0.3745   0.280259
 C 0.3052 0.065 0.4322   0.06857
 C 0.1864 0.0748 0.4516   -0.156558
 C 0.1466 0.0075 0.5079   0.156359
 C 0.3321 0.9208 0.5312   0.156426
 C 0.3772 0.9856 0.4732   -0.180299
 C 0.1919 0.9374 0.3574   0.276541
 C 0.2628 0.8403 0.3917   0.10797
 C 0.3834 0.8107 0.3763   -0.175736
 C 0.2107 0.7799 0.4439   -0.139941
 C 0.2804 0.6875 0.4767   0.160433
 C 0.444 0.7188 0.4096   0.173452
 N 0.1903 0.6945 0.8181   -0.235271
 N 0.1099 0.7411 0.7767   -0.064859
 N 0.0156 0.7117 0.8051   0.004401
 N 0.0319 0.6448 0.8666   -0.301926
 N 0.3043 0.4318 0.0476   -0.31018
 N 0.5916 0.4628 0.8716   -0.318734
 N 0.5659 0.557 0.8352   -0.025837
 N 0.4767 0.582 0.8024   0.002919
 N 0.4432 0.5074 0.8152   -0.328839
 N 0.4855 0.1566 0.9584   -0.381548
 N 0.7029 0.8055 0.6819   -0.234546
 N 0.6277 0.7589 0.7233   -0.065509
 N 0.5324 0.7883 0.6949   0.003628
 N 0.5433 0.8552 0.6334   -0.300203
 N 0.7837 0.0682 0.4524   -0.311234
 N 0.926 0.0372 0.6284   -0.317948
 N 0.9581 0.943 0.6648   -0.02558
 N 0.8611 0.918 0.6976   0.002425
 N 0.7658 0.9926 0.6848   -0.327252
 N 0.6005 0.3434 0.5416   -0.380139
 N 0.8097 0.3055 0.1819   -0.235271
 N 0.8901 0.2589 0.2233   -0.064859
 N 0.9844 0.2883 0.1949   0.004401
 N 0.9681 0.3552 0.1334   -0.301926
 N 0.6957 0.5682 0.9524   -0.31018
 N 0.4084 0.5372 0.1284   -0.318734
 N 0.4341 0.443 0.1648   -0.025837
 N 0.5233 0.418 0.1976   0.002919
 N 0.5568 0.4926 0.1848   -0.328839
 N 0.5145 0.8434 0.0416   -0.381548
 N 0.2971 0.1945 0.3181   -0.234546
 N 0.3723 0.2411 0.2767   -0.065509
 N 0.4676 0.2117 0.3051   0.003628
 N 0.4567 0.1448 0.3666   -0.300203
 N 0.2163 0.9318 0.5476   -0.311234
 N 0.074 0.9628 0.3716   -0.317948
 N 0.0419 0.057 0.3352   -0.02558
 N 0.1389 0.082 0.3024   0.002425
 N 0.2342 0.0074 0.3152   -0.327252
 N 0.3995 0.6566 0.4584   -0.380139
 Cl 0.41346 0.7614 0.86768   -0.512423
 Cl 0.35051 0.7033 0.65068   -0.547959
 Cl 0.22873 0.9094 0.71754   -0.483437
 Cl 0.04254 0.7386 0.63232   -0.511903
 Cl 0.70449 0.7967 0.84932   -0.547603
 Cl 0.85567 0.5906 0.78246   -0.483502
 Cl 0.58654 0.2386 0.13232   -0.512423
 Cl 0.64949 0.2967 0.34932   -0.547959
 Cl 0.77127 0.0906 0.28246   -0.483437
 Cl 0.95746 0.2614 0.36768   -0.511903
 Cl 0.29551 0.2033 0.15068   -0.547603
 Cl 0.14433 0.4094 0.21754   -0.483502
