{'_ref': 'TBD', '_srcid': 'CAKYAQ_clean', 'submitters': [{'name': 'Dalar Nazarian Jeff Camp and David Sholl', 'email': 'dalar@gatech.edu jcamp6@gatech.edu'}], '_method': 'VASP DFT with PBE;DDEC'}
data_CuH6C3IN
_symmetry_space_group_name_H-M   'P 1'
_cell_length_a   15.93440000
_cell_length_b   17.99140000
_cell_length_c   17.99140000
_cell_angle_alpha   90.00000000
_cell_angle_beta   90.00000000
_cell_angle_gamma   90.00000000
_symmetry_Int_Tables_number   1
_chemical_formula_structural   CuH6C3IN
_chemical_formula_sum   'Cu32 H192 C96 I32 N32'
_cell_volume   5157.81348827
_cell_formula_units_Z   32
loop_
 _symmetry_equiv_pos_site_id
 _symmetry_equiv_pos_as_xyz
  1  'x, y, z'
loop_
 _atom_site_label
 _atom_site_fract_x
 _atom_site_fract_y
 _atom_site_fract_z
 _atom_site_charge
 Cu 0.5 0.23186 0.25704   0.091559
 Cu 0.5 0.76814 0.74296   0.091559
 Cu 0.5 0.74296 0.23186   0.091559
 Cu 0.5 0.25704 0.76814   0.091559
 Cu 0.0 0.76814 0.25704   0.091559
 Cu 0.0 0.23186 0.74296   0.091559
 Cu 0.0 0.25704 0.23186   0.091559
 Cu 0.0 0.74296 0.76814   0.091559
 Cu 0.41613 0.21989 0.3836   0.097204
 Cu 0.41613 0.78011 0.6164   0.097204
 Cu 0.41613 0.6164 0.21989   0.097204
 Cu 0.41613 0.3836 0.78011   0.097204
 Cu 0.08387 0.78011 0.3836   0.097204
 Cu 0.08387 0.21989 0.6164   0.097204
 Cu 0.08387 0.3836 0.21989   0.097204
 Cu 0.08387 0.6164 0.78011   0.097204
 Cu 0.58387 0.78011 0.6164   0.097204
 Cu 0.58387 0.21989 0.3836   0.097204
 Cu 0.58387 0.3836 0.78011   0.097204
 Cu 0.58387 0.6164 0.21989   0.097204
 Cu 0.91613 0.21989 0.6164   0.097204
 Cu 0.91613 0.78011 0.3836   0.097204
 Cu 0.91613 0.6164 0.78011   0.097204
 Cu 0.91613 0.3836 0.21989   0.097204
 Cu 0.5 0.32211 0.89438   0.093345
 Cu 0.5 0.67789 0.10562   0.093345
 Cu 0.5 0.10562 0.32211   0.093345
 Cu 0.5 0.89438 0.67789   0.093345
 Cu 0.0 0.67789 0.89438   0.093345
 Cu 0.0 0.32211 0.10562   0.093345
 Cu 0.0 0.89438 0.32211   0.093345
 Cu 0.0 0.10562 0.67789   0.093345
 H 0.4245 0.3523 0.1566   0.066572
 H 0.4245 0.6477 0.8434   0.066572
 H 0.4245 0.8434 0.3523   0.066572
 H 0.4245 0.1566 0.6477   0.066572
 H 0.0755 0.6477 0.1566   0.066572
 H 0.0755 0.3523 0.8434   0.066572
 H 0.0755 0.1566 0.3523   0.066572
 H 0.0755 0.8434 0.6477   0.066572
 H 0.5755 0.6477 0.8434   0.066572
 H 0.5755 0.3523 0.1566   0.066572
 H 0.5755 0.1566 0.6477   0.066572
 H 0.5755 0.8434 0.3523   0.066572
 H 0.9245 0.3523 0.8434   0.066572
 H 0.9245 0.6477 0.1566   0.066572
 H 0.9245 0.8434 0.6477   0.066572
 H 0.9245 0.1566 0.3523   0.066572
 H 0.3746 0.2791 0.139   0.066725
 H 0.3746 0.7209 0.861   0.066725
 H 0.3746 0.861 0.2791   0.066725
 H 0.3746 0.139 0.7209   0.066725
 H 0.1254 0.7209 0.139   0.066725
 H 0.1254 0.2791 0.861   0.066725
 H 0.1254 0.139 0.2791   0.066725
 H 0.1254 0.861 0.7209   0.066725
 H 0.6254 0.7209 0.861   0.066725
 H 0.6254 0.2791 0.139   0.066725
 H 0.6254 0.139 0.7209   0.066725
 H 0.6254 0.861 0.2791   0.066725
 H 0.8746 0.2791 0.861   0.066725
 H 0.8746 0.7209 0.139   0.066725
 H 0.8746 0.861 0.7209   0.066725
 H 0.8746 0.139 0.2791   0.066725
 H 0.4507 0.1644 0.1109   0.07348
 H 0.4507 0.8356 0.8891   0.07348
 H 0.4507 0.8891 0.1644   0.07348
 H 0.4507 0.1109 0.8356   0.07348
 H 0.0493 0.8356 0.1109   0.07348
 H 0.0493 0.1644 0.8891   0.07348
 H 0.0493 0.1109 0.1644   0.07348
 H 0.0493 0.8891 0.8356   0.07348
 H 0.5493 0.8356 0.8891   0.07348
 H 0.5493 0.1644 0.1109   0.07348
 H 0.5493 0.1109 0.8356   0.07348
 H 0.5493 0.8891 0.1644   0.07348
 H 0.9507 0.1644 0.8891   0.07348
 H 0.9507 0.8356 0.1109   0.07348
 H 0.9507 0.8891 0.8356   0.07348
 H 0.9507 0.1109 0.1644   0.07348
 H 0.5493 0.194 0.9925   0.073904
 H 0.5493 0.806 0.0075   0.073904
 H 0.5493 0.0075 0.194   0.073904
 H 0.5493 0.9925 0.806   0.073904
 H 0.9507 0.806 0.9925   0.073904
 H 0.9507 0.194 0.0075   0.073904
 H 0.9507 0.9925 0.194   0.073904
 H 0.9507 0.0075 0.806   0.073904
 H 0.4507 0.806 0.0075   0.073904
 H 0.4507 0.194 0.9925   0.073904
 H 0.4507 0.9925 0.806   0.073904
 H 0.4507 0.0075 0.194   0.073904
 H 0.0493 0.194 0.0075   0.073904
 H 0.0493 0.806 0.9925   0.073904
 H 0.0493 0.0075 0.806   0.073904
 H 0.0493 0.9925 0.194   0.073904
 H 0.3743 0.3074 0.0207   0.069471
 H 0.3743 0.6926 0.9793   0.069471
 H 0.3743 0.9793 0.3074   0.069471
 H 0.3743 0.0207 0.6926   0.069471
 H 0.1257 0.6926 0.0207   0.069471
 H 0.1257 0.3074 0.9793   0.069471
 H 0.1257 0.0207 0.3074   0.069471
 H 0.1257 0.9793 0.6926   0.069471
 H 0.6257 0.6926 0.9793   0.069471
 H 0.6257 0.3074 0.0207   0.069471
 H 0.6257 0.0207 0.6926   0.069471
 H 0.6257 0.9793 0.3074   0.069471
 H 0.8743 0.3074 0.9793   0.069471
 H 0.8743 0.6926 0.0207   0.069471
 H 0.8743 0.9793 0.6926   0.069471
 H 0.8743 0.0207 0.3074   0.069471
 H 0.4234 0.381 0.0384   0.061283
 H 0.4234 0.619 0.9616   0.061283
 H 0.4234 0.9616 0.381   0.061283
 H 0.4234 0.0384 0.619   0.061283
 H 0.0766 0.619 0.0384   0.061283
 H 0.0766 0.381 0.9616   0.061283
 H 0.0766 0.0384 0.381   0.061283
 H 0.0766 0.9616 0.619   0.061283
 H 0.5766 0.619 0.9616   0.061283
 H 0.5766 0.381 0.0384   0.061283
 H 0.5766 0.0384 0.619   0.061283
 H 0.5766 0.9616 0.381   0.061283
 H 0.9234 0.381 0.9616   0.061283
 H 0.9234 0.619 0.0384   0.061283
 H 0.9234 0.9616 0.619   0.061283
 H 0.9234 0.0384 0.381   0.061283
 H 0.3247 0.1204 0.4736   0.063483
 H 0.3247 0.8796 0.5264   0.063483
 H 0.3247 0.5264 0.1204   0.063483
 H 0.3247 0.4736 0.8796   0.063483
 H 0.1753 0.8796 0.4736   0.063483
 H 0.1753 0.1204 0.5264   0.063483
 H 0.1753 0.4736 0.1204   0.063483
 H 0.1753 0.5264 0.8796   0.063483
 H 0.6753 0.8796 0.5264   0.063483
 H 0.6753 0.1204 0.4736   0.063483
 H 0.6753 0.4736 0.8796   0.063483
 H 0.6753 0.5264 0.1204   0.063483
 H 0.8247 0.1204 0.5264   0.063483
 H 0.8247 0.8796 0.4736   0.063483
 H 0.8247 0.5264 0.8796   0.063483
 H 0.8247 0.4736 0.1204   0.063483
 H 0.2472 0.1384 0.4227   0.081914
 H 0.2472 0.8616 0.5773   0.081914
 H 0.2472 0.5773 0.1384   0.081914
 H 0.2472 0.4227 0.8616   0.081914
 H 0.2528 0.8616 0.4227   0.081914
 H 0.2528 0.1384 0.5773   0.081914
 H 0.2528 0.4227 0.1384   0.081914
 H 0.2528 0.5773 0.8616   0.081914
 H 0.7528 0.8616 0.5773   0.081914
 H 0.7528 0.1384 0.4227   0.081914
 H 0.7528 0.4227 0.8616   0.081914
 H 0.7528 0.5773 0.1384   0.081914
 H 0.7472 0.1384 0.5773   0.081914
 H 0.7472 0.8616 0.4227   0.081914
 H 0.7472 0.5773 0.8616   0.081914
 H 0.7472 0.4227 0.1384   0.081914
 H 0.3647 0.3114 0.5179   0.073032
 H 0.3647 0.6886 0.4821   0.073032
 H 0.3647 0.4821 0.3114   0.073032
 H 0.3647 0.5179 0.6886   0.073032
 H 0.1353 0.6886 0.5179   0.073032
 H 0.1353 0.3114 0.4821   0.073032
 H 0.1353 0.5179 0.3114   0.073032
 H 0.1353 0.4821 0.6886   0.073032
 H 0.6353 0.6886 0.4821   0.073032
 H 0.6353 0.3114 0.5179   0.073032
 H 0.6353 0.5179 0.6886   0.073032
 H 0.6353 0.4821 0.3114   0.073032
 H 0.8647 0.3114 0.4821   0.073032
 H 0.8647 0.6886 0.5179   0.073032
 H 0.8647 0.4821 0.6886   0.073032
 H 0.8647 0.5179 0.3114   0.073032
 H 0.3761 0.2312 0.5508   0.062115
 H 0.3761 0.7688 0.4492   0.062115
 H 0.3761 0.4492 0.2312   0.062115
 H 0.3761 0.5508 0.7688   0.062115
 H 0.1239 0.7688 0.5508   0.062115
 H 0.1239 0.2312 0.4492   0.062115
 H 0.1239 0.5508 0.2312   0.062115
 H 0.1239 0.4492 0.7688   0.062115
 H 0.6239 0.7688 0.4492   0.062115
 H 0.6239 0.2312 0.5508   0.062115
 H 0.6239 0.5508 0.7688   0.062115
 H 0.6239 0.4492 0.2312   0.062115
 H 0.8761 0.2312 0.4492   0.062115
 H 0.8761 0.7688 0.5508   0.062115
 H 0.8761 0.4492 0.7688   0.062115
 H 0.8761 0.5508 0.2312   0.062115
 H 0.2284 0.2611 0.3737   0.077819
 H 0.2284 0.7389 0.6263   0.077819
 H 0.2284 0.6263 0.2611   0.077819
 H 0.2284 0.3737 0.7389   0.077819
 H 0.2716 0.7389 0.3737   0.077819
 H 0.2716 0.2611 0.6263   0.077819
 H 0.2716 0.3737 0.2611   0.077819
 H 0.2716 0.6263 0.7389   0.077819
 H 0.7716 0.7389 0.6263   0.077819
 H 0.7716 0.2611 0.3737   0.077819
 H 0.7716 0.3737 0.7389   0.077819
 H 0.7716 0.6263 0.2611   0.077819
 H 0.7284 0.2611 0.6263   0.077819
 H 0.7284 0.7389 0.3737   0.077819
 H 0.7284 0.6263 0.7389   0.077819
 H 0.7284 0.3737 0.2611   0.077819
 H 0.2564 0.3281 0.4239   0.07849
 H 0.2564 0.6719 0.5761   0.07849
 H 0.2564 0.5761 0.3281   0.07849
 H 0.2564 0.4239 0.6719   0.07849
 H 0.2436 0.6719 0.4239   0.078491
 H 0.2436 0.3281 0.5761   0.078491
 H 0.2436 0.4239 0.3281   0.078491
 H 0.2436 0.5761 0.6719   0.078491
 H 0.7436 0.6719 0.5761   0.07849
 H 0.7436 0.3281 0.4239   0.07849
 H 0.7436 0.4239 0.6719   0.07849
 H 0.7436 0.5761 0.3281   0.07849
 H 0.7564 0.3281 0.5761   0.078491
 H 0.7564 0.6719 0.4239   0.078491
 H 0.7564 0.5761 0.6719   0.078491
 H 0.7564 0.4239 0.3281   0.078491
 C 0.4248 0.3071 0.1272   -0.050206
 C 0.4248 0.6929 0.8728   -0.050206
 C 0.4248 0.8728 0.3071   -0.050206
 C 0.4248 0.1272 0.6929   -0.050206
 C 0.0752 0.6929 0.1272   -0.050206
 C 0.0752 0.3071 0.8728   -0.050206
 C 0.0752 0.1272 0.3071   -0.050206
 C 0.0752 0.8728 0.6929   -0.050206
 C 0.5752 0.6929 0.8728   -0.050206
 C 0.5752 0.3071 0.1272   -0.050206
 C 0.5752 0.1272 0.6929   -0.050206
 C 0.5752 0.8728 0.3071   -0.050206
 C 0.9248 0.3071 0.8728   -0.050206
 C 0.9248 0.6929 0.1272   -0.050206
 C 0.9248 0.8728 0.6929   -0.050206
 C 0.9248 0.1272 0.3071   -0.050206
 C 0.5 0.194 0.0996   -0.047039
 C 0.5 0.806 0.9004   -0.047039
 C 0.5 0.9004 0.194   -0.047039
 C 0.5 0.0996 0.806   -0.047039
 C 0.0 0.806 0.0996   -0.047039
 C 0.0 0.194 0.9004   -0.047039
 C 0.0 0.0996 0.194   -0.047039
 C 0.0 0.9004 0.806   -0.047039
 C 0.5 0.215 0.0162   -0.051053
 C 0.5 0.785 0.9838   -0.051053
 C 0.5 0.9838 0.215   -0.051053
 C 0.5 0.0162 0.785   -0.051053
 C 0.0 0.785 0.0162   -0.051053
 C 0.0 0.215 0.9838   -0.051053
 C 0.0 0.0162 0.215   -0.051053
 C 0.0 0.9838 0.785   -0.051053
 C 0.4244 0.3274 0.0439   -0.046372
 C 0.4244 0.6726 0.9561   -0.046372
 C 0.4244 0.9561 0.3274   -0.046372
 C 0.4244 0.0439 0.6726   -0.046372
 C 0.0756 0.6726 0.0439   -0.046372
 C 0.0756 0.3274 0.9561   -0.046372
 C 0.0756 0.0439 0.3274   -0.046372
 C 0.0756 0.9561 0.6726   -0.046372
 C 0.5756 0.6726 0.9561   -0.046372
 C 0.5756 0.3274 0.0439   -0.046372
 C 0.5756 0.0439 0.6726   -0.046372
 C 0.5756 0.9561 0.3274   -0.046372
 C 0.9244 0.3274 0.9561   -0.046372
 C 0.9244 0.6726 0.0439   -0.046372
 C 0.9244 0.9561 0.6726   -0.046372
 C 0.9244 0.0439 0.3274   -0.046372
 C 0.2786 0.1547 0.4659   -0.045959
 C 0.2786 0.8453 0.5341   -0.045959
 C 0.2786 0.5341 0.1547   -0.045959
 C 0.2786 0.4659 0.8453   -0.045959
 C 0.2214 0.8453 0.4659   -0.045958
 C 0.2214 0.1547 0.5341   -0.045958
 C 0.2214 0.4659 0.1547   -0.045958
 C 0.2214 0.5341 0.8453   -0.045958
 C 0.7214 0.8453 0.5341   -0.045959
 C 0.7214 0.1547 0.4659   -0.045959
 C 0.7214 0.4659 0.8453   -0.045959
 C 0.7214 0.5341 0.1547   -0.045959
 C 0.7786 0.1547 0.5341   -0.045958
 C 0.7786 0.8453 0.4659   -0.045958
 C 0.7786 0.5341 0.8453   -0.045958
 C 0.7786 0.4659 0.1547   -0.045958
 C 0.3369 0.2641 0.5259   -0.064305
 C 0.3369 0.7359 0.4741   -0.064305
 C 0.3369 0.4741 0.2641   -0.064305
 C 0.3369 0.5259 0.7359   -0.064305
 C 0.1631 0.7359 0.5259   -0.064305
 C 0.1631 0.2641 0.4741   -0.064305
 C 0.1631 0.5259 0.2641   -0.064305
 C 0.1631 0.4741 0.7359   -0.064305
 C 0.6631 0.7359 0.4741   -0.064305
 C 0.6631 0.2641 0.5259   -0.064305
 C 0.6631 0.5259 0.7359   -0.064305
 C 0.6631 0.4741 0.2641   -0.064305
 C 0.8369 0.2641 0.4741   -0.064305
 C 0.8369 0.7359 0.5259   -0.064305
 C 0.8369 0.4741 0.7359   -0.064305
 C 0.8369 0.5259 0.2641   -0.064305
 C 0.2412 0.2759 0.4242   -0.06127
 C 0.2412 0.7241 0.5758   -0.06127
 C 0.2412 0.5758 0.2759   -0.06127
 C 0.2412 0.4242 0.7241   -0.06127
 C 0.2588 0.7241 0.4242   -0.061271
 C 0.2588 0.2759 0.5758   -0.061271
 C 0.2588 0.4242 0.2759   -0.061271
 C 0.2588 0.5758 0.7241   -0.061271
 C 0.7588 0.7241 0.5758   -0.06127
 C 0.7588 0.2759 0.4242   -0.06127
 C 0.7588 0.4242 0.7241   -0.06127
 C 0.7588 0.5758 0.2759   -0.06127
 C 0.7412 0.2759 0.5758   -0.061271
 C 0.7412 0.7241 0.4242   -0.061271
 C 0.7412 0.5758 0.7241   -0.061271
 C 0.7412 0.4242 0.2759   -0.061271
 I 0.5 0.11624 0.468027   -0.281829
 I 0.5 0.88376 0.531973   -0.281829
 I 0.5 0.531973 0.11624   -0.281829
 I 0.5 0.468027 0.88376   -0.281829
 I 0.0 0.88376 0.468027   -0.281829
 I 0.0 0.11624 0.531973   -0.281829
 I 0.0 0.468027 0.11624   -0.281829
 I 0.0 0.531973 0.88376   -0.281829
 I 0.353943 0.153778 0.263967   -0.308774
 I 0.353943 0.846222 0.736033   -0.308774
 I 0.353943 0.736033 0.153778   -0.308774
 I 0.353943 0.263967 0.846222   -0.308774
 I 0.146057 0.846222 0.263967   -0.308775
 I 0.146057 0.153778 0.736033   -0.308775
 I 0.146057 0.263967 0.153778   -0.308775
 I 0.146057 0.736033 0.846222   -0.308775
 I 0.646057 0.846222 0.736033   -0.308774
 I 0.646057 0.153778 0.263967   -0.308774
 I 0.646057 0.263967 0.846222   -0.308774
 I 0.646057 0.736033 0.153778   -0.308774
 I 0.853943 0.153778 0.736033   -0.308775
 I 0.853943 0.846222 0.263967   -0.308775
 I 0.853943 0.736033 0.846222   -0.308775
 I 0.853943 0.263967 0.153778   -0.308775
 I 0.5 0.342734 0.35571   -0.256637
 I 0.5 0.657266 0.64429   -0.256637
 I 0.5 0.64429 0.342734   -0.256635
 I 0.5 0.35571 0.657266   -0.256635
 I 0.0 0.657266 0.35571   -0.256637
 I 0.0 0.342734 0.64429   -0.256637
 I 0.0 0.35571 0.342734   -0.256635
 I 0.0 0.64429 0.657266   -0.256635
 N 0.3122 0.23129 0.45278   -0.076189
 N 0.3122 0.76871 0.54722   -0.076189
 N 0.3122 0.54722 0.23129   -0.076189
 N 0.3122 0.45278 0.76871   -0.076189
 N 0.1878 0.76871 0.45278   -0.076189
 N 0.1878 0.23129 0.54722   -0.076189
 N 0.1878 0.45278 0.23129   -0.076189
 N 0.1878 0.54722 0.76871   -0.076189
 N 0.6878 0.76871 0.54722   -0.076189
 N 0.6878 0.23129 0.45278   -0.076189
 N 0.6878 0.45278 0.76871   -0.076189
 N 0.6878 0.54722 0.23129   -0.076189
 N 0.8122 0.23129 0.54722   -0.076189
 N 0.8122 0.76871 0.45278   -0.076189
 N 0.8122 0.54722 0.76871   -0.076189
 N 0.8122 0.45278 0.23129   -0.076189
 N 0.5 0.2623 0.1464   -0.066123
 N 0.5 0.7377 0.8536   -0.066123
 N 0.5 0.8536 0.2623   -0.066123
 N 0.5 0.1464 0.7377   -0.066123
 N 0.0 0.7377 0.1464   -0.066123
 N 0.0 0.2623 0.8536   -0.066123
 N 0.0 0.1464 0.2623   -0.066123
 N 0.0 0.8536 0.7377   -0.066123
 N 0.5 0.2968 0.0063   -0.067061
 N 0.5 0.7032 0.9937   -0.067061
 N 0.5 0.9937 0.2968   -0.067061
 N 0.5 0.0063 0.7032   -0.067061
 N 0.0 0.7032 0.0063   -0.067061
 N 0.0 0.2968 0.9937   -0.067061
 N 0.0 0.0063 0.2968   -0.067061
 N 0.0 0.9937 0.7032   -0.067061
