{'_ref': 'TBD', '_srcid': 'CAKYAQ_clean', 'submitters': [{'name': 'Dalar Nazarian Jeff Camp and David Sholl', 'email': 'dalar@gatech.edu jcamp6@gatech.edu'}], '_method': 'VASP DFT with PBE;DDEC'}
data_Cd3H31(C2N)12
_symmetry_space_group_name_H-M   'P 1'
_cell_length_a   15.69289996
_cell_length_b   15.69289966
_cell_length_c   15.69290000
_cell_angle_alpha   109.47100163
_cell_angle_beta   109.47100124
_cell_angle_gamma   109.47099863
_symmetry_Int_Tables_number   1
_chemical_formula_structural   Cd3H31(C2N)12
_chemical_formula_sum   'Cd6 H62 C48 N24'
_cell_volume   2975.02938801
_cell_formula_units_Z   2
loop_
 _symmetry_equiv_pos_site_id
 _symmetry_equiv_pos_as_xyz
  1  'x, y, z'
loop_
 _atom_site_label
 _atom_site_fract_x
 _atom_site_fract_y
 _atom_site_fract_z
 _atom_site_charge
 Cd 0.75 0.5 0.25   0.891096
 Cd 0.25 0.5 0.75   0.900621
 Cd 0.25 0.75 0.5   0.899255
 Cd 0.75 0.25 0.5   0.891013
 Cd 0.5 0.75 0.25   0.900896
 Cd 0.5 0.25 0.75   0.900816
 H 0.58496 0.48887 0.35744   0.094174
 H 0.13143 0.22752 0.64256   0.091608
 H 0.86857 0.51113 0.09608   0.090862
 H 0.41504 0.77248 0.90391   0.093285
 H 0.09608 0.86857 0.51113   0.099163
 H 0.90391 0.41504 0.77248   0.097306
 H 0.35744 0.58496 0.48887   0.093774
 H 0.64256 0.13143 0.22752   0.088166
 H 0.22752 0.64256 0.13143   0.094456
 H 0.48887 0.35744 0.58496   0.094454
 H 0.77248 0.90391 0.41504   0.097807
 H 0.51113 0.09608 0.86857   0.092477
 H 0.22752 0.13143 0.64256   0.09154
 H 0.48887 0.58496 0.35744   0.092824
 H 0.77248 0.41504 0.90391   0.09427
 H 0.51113 0.86857 0.09608   0.090419
 H 0.58496 0.35744 0.48887   0.093307
 H 0.13143 0.64256 0.22752   0.088555
 H 0.86857 0.09608 0.51113   0.101685
 H 0.41504 0.90391 0.77248   0.093938
 H 0.09608 0.51113 0.86857   0.096517
 H 0.90391 0.77248 0.41504   0.098499
 H 0.35744 0.48887 0.58496   0.092313
 H 0.64256 0.22752 0.13143   0.093901
 H 0.61485 0.68724 0.13888   0.134213
 H 0.68816 0.61527 0.13964   0.13649
 H 0.74837 0.74886 0.25044   0.12344
 H 0.48895 0.50787 0.75146   0.125468
 H 0.5503 0.47007 0.84532   0.132072
 H 0.48316 0.54448 0.87426   0.138752
 H 0.49686 0.24692 0.99019   0.125333
 H 0.45335 0.32135 0.93276   0.137617
 H 0.52738 0.38036 0.07705   0.132159
 H 0.39332 0.50548 0.04202   0.141198
 H 0.27434 0.45058 0.91612   0.129324
 H 0.28097 0.52152 0.04186   0.127882
 H 0.02204 0.51253 0.26468   0.104651
 H 0.91889 0.4496 0.29217   0.13578
 H 0.05907 0.51546 0.39177   0.138779
 H 0.0 0.61587 0.44556   0.004109
 H 0.04896 0.39333 0.50945   0.138791
 H 0.91653 0.28093 0.44987   0.130473
 H 0.03451 0.27437 0.51826   0.125605
 H 0.13424 0.61246 0.68152   0.135246
 H 0.14451 0.69386 0.61809   0.118311
 H 0.25021 0.74505 0.75177   0.126448
 H 0.85549 0.54935 0.47358   0.118089
 H 0.86576 0.47823 0.54728   0.136156
 H 0.74979 0.49484 0.50156   0.124433
 H 0.54665 0.868 0.47941   0.114531
 H 0.50314 0.75006 0.49333   0.123857
 H 0.47262 0.85298 0.54967   0.131696
 H 0.72567 0.17624 0.64178   0.125974
 H 0.60668 0.11216 0.64869   0.137714
 H 0.71903 0.24055 0.7609   0.130595
 H 0.4497 0.91977 0.29502   0.135516
 H 0.51105 0.01891 0.26251   0.104257
 H 0.51684 0.06132 0.3911   0.140509
 H 0.61587 0.0 0.44556   0.006382
 H 0.31184 0.92711 0.45148   0.136015
 H 0.38515 0.07239 0.52403   0.1343
 H 0.25163 0.000500000000002 0.50208   0.123657
 C 0.5932 0.5416 0.3218   -0.059251
 C 0.2198 0.2714 0.6782   -0.060561
 C 0.7802 0.4584 0.0516   -0.055497
 C 0.4068 0.7286 0.9484   -0.059233
 C 0.0516 0.7802 0.4584   -0.037686
 C 0.9484 0.4068 0.7286   -0.061961
 C 0.3218 0.5932 0.5416   -0.058273
 C 0.6782 0.2198 0.2714   -0.057644
 C 0.2714 0.6782 0.2198   -0.062674
 C 0.5416 0.3218 0.5932   -0.056313
 C 0.7286 0.9484 0.4068   -0.037593
 C 0.4584 0.0516 0.7802   -0.056289
 C 0.2714 0.2198 0.6782   -0.056392
 C 0.5416 0.5932 0.3218   -0.056493
 C 0.7286 0.4068 0.9484   -0.061617
 C 0.4584 0.7802 0.0516   -0.054055
 C 0.5932 0.3218 0.5416   -0.060853
 C 0.2198 0.6782 0.2714   -0.055135
 C 0.7802 0.0516 0.4584   -0.041533
 C 0.4068 0.9484 0.7286   -0.058675
 C 0.0516 0.4584 0.7802   -0.056419
 C 0.9484 0.7286 0.4068   -0.039907
 C 0.3218 0.5416 0.5932   -0.057873
 C 0.6782 0.2714 0.2198   -0.060118
 C 0.6722 0.6722 0.1902   -0.473685
 C 0.6241 0.6241 0.2478   0.483339
 C 0.482 0.482 0.8098   -0.474274
 C 0.3763 0.3763 0.7522   0.490569
 C 0.518 0.3278 0.0   -0.474828
 C 0.6237 0.3759 0.0   0.489987
 C 0.3278 0.518 0.0   -0.47618
 C 0.3759 0.6237 0.0   0.485811
 C 0.0 0.518 0.3278   -0.453417
 C 0.0 0.6237 0.3759   0.482427
 C 0.0 0.3278 0.518   -0.473205
 C 0.0 0.3759 0.6237   0.486131
 C 0.1902 0.6722 0.6722   -0.472416
 C 0.2478 0.6241 0.6241   0.482879
 C 0.8098 0.482 0.482   -0.470312
 C 0.7522 0.3763 0.3763   0.491144
 C 0.482 0.8098 0.482   -0.463567
 C 0.3763 0.7522 0.3763   0.488648
 C 0.6722 0.1902 0.6722   -0.484235
 C 0.6241 0.2478 0.6241   0.487132
 C 0.518 0.0 0.3278   -0.454538
 C 0.6237 0.0 0.3759   0.482301
 C 0.3278 0.0 0.518   -0.474317
 C 0.3759 0.0 0.6237   0.485556
 N 0.6502 0.5645 0.2751   -0.460843
 N 0.2894 0.3751 0.7249   -0.463415
 N 0.7106 0.4355 0.0857   -0.464668
 N 0.3498 0.6249 0.9143   -0.463885
 N 0.0857 0.7106 0.4355   -0.478399
 N 0.9143 0.3498 0.6249   -0.461694
 N 0.2751 0.6502 0.5645   -0.459652
 N 0.7249 0.2894 0.3751   -0.461807
 N 0.3751 0.7249 0.2894   -0.46173
 N 0.5645 0.2751 0.6502   -0.465975
 N 0.6249 0.9143 0.3498   -0.479332
 N 0.4355 0.0857 0.7106   -0.46211
 N 0.3751 0.2894 0.7249   -0.465375
 N 0.5645 0.6502 0.2751   -0.46191
 N 0.6249 0.3498 0.9143   -0.465454
 N 0.4355 0.7106 0.0857   -0.46829
 N 0.6502 0.2751 0.5645   -0.457202
 N 0.2894 0.7249 0.3751   -0.46545
 N 0.7106 0.0857 0.4355   -0.476432
 N 0.3498 0.9143 0.6249   -0.463185
 N 0.0857 0.4355 0.7106   -0.467841
 N 0.9143 0.6249 0.3498   -0.476239
 N 0.2751 0.5645 0.6502   -0.463297
 N 0.7249 0.3751 0.2894   -0.459541
