{'_ref': 'TBD', '_srcid': 'CAKYAQ_clean', 'submitters': [{'name': 'Dalar Nazarian Jeff Camp and David Sholl', 'email': 'dalar@gatech.edu jcamp6@gatech.edu'}], '_method': 'VASP DFT with PBE;DDEC'}
data_CdH4C6(N3O2)2
_symmetry_space_group_name_H-M   'P 1'
_cell_length_a   18.07720000
_cell_length_b   18.07720000
_cell_length_c   18.07720000
_cell_angle_alpha   90.00000000
_cell_angle_beta   90.00000000
_cell_angle_gamma   90.00000000
_symmetry_Int_Tables_number   1
_chemical_formula_structural   CdH4C6(N3O2)2
_chemical_formula_sum   'Cd12 H48 C72 N72 O48'
_cell_volume   5907.36069146
_cell_formula_units_Z   12
loop_
 _symmetry_equiv_pos_site_id
 _symmetry_equiv_pos_as_xyz
  1  'x, y, z'
loop_
 _atom_site_label
 _atom_site_fract_x
 _atom_site_fract_y
 _atom_site_fract_z
 _atom_site_charge
 Cd 0.0 0.25 0.5   0.849856
 Cd 0.0 0.75 0.5   0.849856
 Cd 0.5 0.0 0.25   0.849856
 Cd 0.5 0.0 0.75   0.849856
 Cd 0.25 0.5 0.0   0.849856
 Cd 0.75 0.5 0.0   0.849856
 Cd 0.25 0.0 0.5   0.849856
 Cd 0.75 0.0 0.5   0.849856
 Cd 0.0 0.5 0.25   0.849856
 Cd 0.0 0.5 0.75   0.849856
 Cd 0.5 0.25 0.0   0.849856
 Cd 0.5 0.75 0.0   0.849856
 H 0.9037 0.2386 0.3334   0.09949
 H 0.0963 0.7614 0.3334   0.09949
 H 0.0963 0.2386 0.6666   0.09949
 H 0.9037 0.7614 0.6666   0.09949
 H 0.3334 0.9037 0.2386   0.09949
 H 0.3334 0.0963 0.7614   0.09949
 H 0.6666 0.0963 0.2386   0.09949
 H 0.6666 0.9037 0.7614   0.09949
 H 0.2386 0.3334 0.9037   0.09949
 H 0.7614 0.3334 0.0963   0.09949
 H 0.2386 0.6666 0.0963   0.09949
 H 0.7614 0.6666 0.9037   0.09949
 H 0.2386 0.9037 0.3334   0.099487
 H 0.7614 0.0963 0.3334   0.099487
 H 0.2386 0.0963 0.6666   0.099487
 H 0.7614 0.9037 0.6666   0.099487
 H 0.9037 0.3334 0.2386   0.099487
 H 0.0963 0.3334 0.7614   0.099487
 H 0.0963 0.6666 0.2386   0.099487
 H 0.9037 0.6666 0.7614   0.099487
 H 0.3334 0.2386 0.9037   0.099487
 H 0.3334 0.7614 0.0963   0.099487
 H 0.6666 0.2386 0.0963   0.099487
 H 0.6666 0.7614 0.9037   0.099487
 H 0.4037 0.7386 0.8334   0.09949
 H 0.5963 0.2614 0.8334   0.09949
 H 0.5963 0.7386 0.1666   0.09949
 H 0.4037 0.2614 0.1666   0.09949
 H 0.8334 0.4037 0.7386   0.09949
 H 0.8334 0.5963 0.2614   0.09949
 H 0.1666 0.5963 0.7386   0.09949
 H 0.1666 0.4037 0.2614   0.09949
 H 0.7386 0.8334 0.4037   0.09949
 H 0.2614 0.8334 0.5963   0.09949
 H 0.7386 0.1666 0.5963   0.09949
 H 0.2614 0.1666 0.4037   0.09949
 H 0.7386 0.4037 0.8334   0.099487
 H 0.2614 0.5963 0.8334   0.099487
 H 0.7386 0.5963 0.1666   0.099487
 H 0.2614 0.4037 0.1666   0.099487
 H 0.4037 0.8334 0.7386   0.099487
 H 0.5963 0.8334 0.2614   0.099487
 H 0.5963 0.1666 0.7386   0.099487
 H 0.4037 0.1666 0.2614   0.099487
 H 0.8334 0.7386 0.4037   0.099487
 H 0.8334 0.2614 0.5963   0.099487
 H 0.1666 0.7386 0.5963   0.099487
 H 0.1666 0.2614 0.4037   0.099487
 C 0.0039 0.3659 0.3659   0.292879
 C 0.9961 0.6341 0.3659   0.292879
 C 0.9961 0.3659 0.6341   0.292879
 C 0.0039 0.6341 0.6341   0.292879
 C 0.3659 0.0039 0.3659   0.292879
 C 0.3659 0.9961 0.6341   0.292879
 C 0.6341 0.9961 0.3659   0.292879
 C 0.6341 0.0039 0.6341   0.292879
 C 0.3659 0.3659 0.0039   0.292879
 C 0.6341 0.3659 0.9961   0.292879
 C 0.3659 0.6341 0.9961   0.292879
 C 0.6341 0.6341 0.0039   0.292879
 C 0.5039 0.8659 0.8659   0.292879
 C 0.4961 0.1341 0.8659   0.292879
 C 0.4961 0.8659 0.1341   0.292879
 C 0.5039 0.1341 0.1341   0.292879
 C 0.8659 0.5039 0.8659   0.292879
 C 0.8659 0.4961 0.1341   0.292879
 C 0.1341 0.4961 0.8659   0.292879
 C 0.1341 0.5039 0.1341   0.292879
 C 0.8659 0.8659 0.5039   0.292879
 C 0.1341 0.8659 0.4961   0.292879
 C 0.8659 0.1341 0.4961   0.292879
 C 0.1341 0.1341 0.5039   0.292879
 C 0.9317 0.2817 0.3344   0.032779
 C 0.0683 0.7183 0.3344   0.032779
 C 0.0683 0.2817 0.6656   0.032779
 C 0.9317 0.7183 0.6656   0.032779
 C 0.3344 0.9317 0.2817   0.032779
 C 0.3344 0.0683 0.7183   0.032779
 C 0.6656 0.0683 0.2817   0.032779
 C 0.6656 0.9317 0.7183   0.032779
 C 0.2817 0.3344 0.9317   0.032779
 C 0.7183 0.3344 0.0683   0.032779
 C 0.2817 0.6656 0.0683   0.032779
 C 0.7183 0.6656 0.9317   0.032779
 C 0.2817 0.9317 0.3344   0.032811
 C 0.7183 0.0683 0.3344   0.032811
 C 0.2817 0.0683 0.6656   0.032811
 C 0.7183 0.9317 0.6656   0.032811
 C 0.9317 0.3344 0.2817   0.032811
 C 0.0683 0.3344 0.7183   0.032811
 C 0.0683 0.6656 0.2817   0.032811
 C 0.9317 0.6656 0.7183   0.032811
 C 0.3344 0.2817 0.9317   0.032811
 C 0.3344 0.7183 0.0683   0.032811
 C 0.6656 0.2817 0.0683   0.032811
 C 0.6656 0.7183 0.9317   0.032811
 C 0.4317 0.7817 0.8344   0.032779
 C 0.5683 0.2183 0.8344   0.032779
 C 0.5683 0.7817 0.1656   0.032779
 C 0.4317 0.2183 0.1656   0.032779
 C 0.8344 0.4317 0.7817   0.032779
 C 0.8344 0.5683 0.2183   0.032779
 C 0.1656 0.5683 0.7817   0.032779
 C 0.1656 0.4317 0.2183   0.032779
 C 0.7817 0.8344 0.4317   0.032779
 C 0.2183 0.8344 0.5683   0.032779
 C 0.7817 0.1656 0.5683   0.032779
 C 0.2183 0.1656 0.4317   0.032779
 C 0.7817 0.4317 0.8344   0.032811
 C 0.2183 0.5683 0.8344   0.032811
 C 0.7817 0.5683 0.1656   0.032811
 C 0.2183 0.4317 0.1656   0.032811
 C 0.4317 0.8344 0.7817   0.032811
 C 0.5683 0.8344 0.2183   0.032811
 C 0.5683 0.1656 0.7817   0.032811
 C 0.4317 0.1656 0.2183   0.032811
 C 0.8344 0.7817 0.4317   0.032811
 C 0.8344 0.2183 0.5683   0.032811
 C 0.1656 0.7817 0.5683   0.032811
 C 0.1656 0.2183 0.4317   0.032811
 N 0.9787 0.3014 0.3889   -0.386865
 N 0.0213 0.6986 0.3889   -0.386865
 N 0.0213 0.3014 0.6111   -0.386865
 N 0.9787 0.6986 0.6111   -0.386865
 N 0.3889 0.9787 0.3014   -0.386865
 N 0.3889 0.0213 0.6986   -0.386865
 N 0.6111 0.0213 0.3014   -0.386865
 N 0.6111 0.9787 0.6986   -0.386865
 N 0.3014 0.3889 0.9787   -0.386865
 N 0.6986 0.3889 0.0213   -0.386865
 N 0.3014 0.6111 0.0213   -0.386865
 N 0.6986 0.6111 0.9787   -0.386865
 N 0.3014 0.9787 0.3889   -0.386869
 N 0.6986 0.0213 0.3889   -0.386869
 N 0.3014 0.0213 0.6111   -0.386869
 N 0.6986 0.9787 0.6111   -0.386869
 N 0.9787 0.3889 0.3014   -0.386869
 N 0.0213 0.3889 0.6986   -0.386869
 N 0.0213 0.6111 0.3014   -0.386869
 N 0.9787 0.6111 0.6986   -0.386869
 N 0.3889 0.3014 0.9787   -0.386869
 N 0.3889 0.6986 0.0213   -0.386869
 N 0.6111 0.3014 0.0213   -0.386869
 N 0.6111 0.6986 0.9787   -0.386869
 N 0.4787 0.8014 0.8889   -0.386865
 N 0.5213 0.1986 0.8889   -0.386865
 N 0.5213 0.8014 0.1111   -0.386865
 N 0.4787 0.1986 0.1111   -0.386865
 N 0.8889 0.4787 0.8014   -0.386865
 N 0.8889 0.5213 0.1986   -0.386865
 N 0.1111 0.5213 0.8014   -0.386865
 N 0.1111 0.4787 0.1986   -0.386865
 N 0.8014 0.8889 0.4787   -0.386865
 N 0.1986 0.8889 0.5213   -0.386865
 N 0.8014 0.1111 0.5213   -0.386865
 N 0.1986 0.1111 0.4787   -0.386865
 N 0.8014 0.4787 0.8889   -0.386869
 N 0.1986 0.5213 0.8889   -0.386869
 N 0.8014 0.5213 0.1111   -0.386869
 N 0.1986 0.4787 0.1111   -0.386869
 N 0.4787 0.8889 0.8014   -0.386869
 N 0.5213 0.8889 0.1986   -0.386869
 N 0.5213 0.1111 0.8014   -0.386869
 N 0.4787 0.1111 0.1986   -0.386869
 N 0.8889 0.8014 0.4787   -0.386869
 N 0.8889 0.1986 0.5213   -0.386869
 N 0.1111 0.8014 0.5213   -0.386869
 N 0.1111 0.1986 0.4787   -0.386869
 N 0.056 0.4069 0.4069   0.538866
 N 0.944 0.5931 0.4069   0.538866
 N 0.944 0.4069 0.5931   0.538866
 N 0.056 0.5931 0.5931   0.538866
 N 0.4069 0.056 0.4069   0.538866
 N 0.4069 0.944 0.5931   0.538866
 N 0.5931 0.944 0.4069   0.538866
 N 0.5931 0.056 0.5931   0.538866
 N 0.4069 0.4069 0.056   0.538866
 N 0.5931 0.4069 0.944   0.538866
 N 0.4069 0.5931 0.944   0.538866
 N 0.5931 0.5931 0.056   0.538866
 N 0.556 0.9069 0.9069   0.538866
 N 0.444 0.0931 0.9069   0.538866
 N 0.444 0.9069 0.0931   0.538866
 N 0.556 0.0931 0.0931   0.538866
 N 0.9069 0.556 0.9069   0.538866
 N 0.9069 0.444 0.0931   0.538866
 N 0.0931 0.444 0.9069   0.538866
 N 0.0931 0.556 0.0931   0.538866
 N 0.9069 0.9069 0.556   0.538866
 N 0.0931 0.9069 0.444   0.538866
 N 0.9069 0.0931 0.444   0.538866
 N 0.0931 0.0931 0.556   0.538866
 O 0.0773 0.4663 0.381   -0.373752
 O 0.9227 0.5337 0.381   -0.373752
 O 0.9227 0.4663 0.619   -0.373752
 O 0.0773 0.5337 0.619   -0.373752
 O 0.381 0.0773 0.4663   -0.373752
 O 0.381 0.9227 0.5337   -0.373752
 O 0.619 0.9227 0.4663   -0.373752
 O 0.619 0.0773 0.5337   -0.373752
 O 0.4663 0.381 0.0773   -0.373752
 O 0.5337 0.381 0.9227   -0.373752
 O 0.4663 0.619 0.9227   -0.373752
 O 0.5337 0.619 0.0773   -0.373752
 O 0.4663 0.0773 0.381   -0.373753
 O 0.5337 0.9227 0.381   -0.373753
 O 0.4663 0.9227 0.619   -0.373753
 O 0.5337 0.0773 0.619   -0.373753
 O 0.0773 0.381 0.4663   -0.373753
 O 0.9227 0.381 0.5337   -0.373753
 O 0.9227 0.619 0.4663   -0.373753
 O 0.0773 0.619 0.5337   -0.373753
 O 0.381 0.4663 0.0773   -0.373753
 O 0.381 0.5337 0.9227   -0.373753
 O 0.619 0.4663 0.9227   -0.373753
 O 0.619 0.5337 0.0773   -0.373753
 O 0.5773 0.9663 0.881   -0.373752
 O 0.4227 0.0337 0.881   -0.373752
 O 0.4227 0.9663 0.119   -0.373752
 O 0.5773 0.0337 0.119   -0.373752
 O 0.881 0.5773 0.9663   -0.373752
 O 0.881 0.4227 0.0337   -0.373752
 O 0.119 0.4227 0.9663   -0.373752
 O 0.119 0.5773 0.0337   -0.373752
 O 0.9663 0.881 0.5773   -0.373752
 O 0.0337 0.881 0.4227   -0.373752
 O 0.9663 0.119 0.4227   -0.373752
 O 0.0337 0.119 0.5773   -0.373752
 O 0.9663 0.5773 0.881   -0.373753
 O 0.0337 0.4227 0.881   -0.373753
 O 0.9663 0.4227 0.119   -0.373753
 O 0.0337 0.5773 0.119   -0.373753
 O 0.5773 0.881 0.9663   -0.373753
 O 0.4227 0.881 0.0337   -0.373753
 O 0.4227 0.119 0.9663   -0.373753
 O 0.5773 0.119 0.0337   -0.373753
 O 0.881 0.9663 0.5773   -0.373753
 O 0.881 0.0337 0.4227   -0.373753
 O 0.119 0.9663 0.4227   -0.373753
 O 0.119 0.0337 0.5773   -0.373753
