{'_ref': 'TBD', '_srcid': 'CAKYAQ_clean', 'submitters': [{'name': 'Dalar Nazarian Jeff Camp and David Sholl', 'email': 'dalar@gatech.edu jcamp6@gatech.edu'}], '_method': 'VASP DFT with PBE;DDEC'}
data_MnH6C12(NO2)2
_symmetry_space_group_name_H-M   'P 1'
_cell_length_a   9.24700052
_cell_length_b   9.44640017
_cell_length_c   9.44640000
_cell_angle_alpha   101.45700223
_cell_angle_beta   112.61000020
_cell_angle_gamma   112.61000128
_symmetry_Int_Tables_number   1
_chemical_formula_structural   MnH6C12(NO2)2
_chemical_formula_sum   'Mn2 H12 C24 N4 O8'
_cell_volume   642.460196999
_cell_formula_units_Z   2
loop_
 _symmetry_equiv_pos_site_id
 _symmetry_equiv_pos_as_xyz
  1  'x, y, z'
loop_
 _atom_site_label
 _atom_site_fract_x
 _atom_site_fract_y
 _atom_site_fract_z
 _atom_site_charge
 Mn 0.75 0.03461 0.96539   0.949692
 Mn 0.25 0.96539 0.03461   0.949686
 H 0.6769 0.2635 0.5091   0.134801
 H 0.7863 0.8579 0.6457   0.092509
 H 0.7473 0.8678 0.391   0.137649
 H 0.8231 0.4909 0.7365   0.134861
 H 0.7137 0.3543 0.1421   0.092541
 H 0.7527 0.609 0.1322   0.137674
 H 0.3231 0.7365 0.4909   0.13481
 H 0.2137 0.1421 0.3543   0.092516
 H 0.2527 0.1322 0.609   0.137656
 H 0.1769 0.5091 0.2635   0.134869
 H 0.2863 0.6457 0.8579   0.092549
 H 0.2473 0.391 0.8678   0.137681
 C 0.6685 0.07801 0.25499   0.640432
 C 0.7054 0.066 0.4214   0.01081
 C 0.7042 0.18184 0.53656   -0.18307
 C 0.7676 0.9435 0.6189   0.177904
 C 0.7432 0.17711 0.69249   0.173593
 C 0.7411 0.9464 0.4652   -0.170909
 C 0.8315 0.74501 0.92199   0.640434
 C 0.7946 0.5786 0.934   0.010776
 C 0.7958 0.46344 0.81816   -0.182912
 C 0.7324 0.3811 0.0565   0.177859
 C 0.7568 0.30751 0.82289   0.172171
 C 0.7589 0.5348 0.0536   -0.170896
 C 0.3315 0.92199 0.74501   0.64043
 C 0.2946 0.934 0.5786   0.010785
 C 0.2958 0.81816 0.46344   -0.183097
 C 0.2324 0.0565 0.3811   0.177897
 C 0.2568 0.82289 0.30751   0.173511
 C 0.2589 0.0536 0.5348   -0.170989
 C 0.1685 0.25499 0.07801   0.640432
 C 0.2054 0.4214 0.066   0.010751
 C 0.2042 0.53656 0.18184   -0.182939
 C 0.2676 0.6189 0.9435   0.177853
 C 0.2432 0.69249 0.17711   0.172095
 C 0.2411 0.4652 0.9464   -0.170977
 N 0.7682 0.05569 0.73231   -0.337605
 N 0.7318 0.26769 0.94431   -0.33743
 N 0.2318 0.94431 0.26769   -0.337596
 N 0.2682 0.73231 0.05569   -0.337423
 O 0.7732 0.06511 0.20549   -0.56014
 O 0.546 0.10783 0.18337   -0.590201
 O 0.7268 0.79451 0.93489   -0.56014
 O 0.954 0.81663 0.89217   -0.590203
 O 0.2268 0.93489 0.79451   -0.560142
 O 0.454 0.89217 0.81663   -0.590207
 O 0.2732 0.20549 0.06511   -0.560141
 O 0.046 0.18337 0.10783   -0.59021
