{'_ref': 'TBD', '_srcid': 'CAKYAQ_clean', 'submitters': [{'name': 'Dalar Nazarian Jeff Camp and David Sholl', 'email': 'dalar@gatech.edu jcamp6@gatech.edu'}], '_method': 'VASP DFT with PBE;DDEC'}
data_MnH6C12(NO2)2
_symmetry_space_group_name_H-M   'P 1'
_cell_length_a   9.24940022
_cell_length_b   9.42119990
_cell_length_c   9.42120000
_cell_angle_alpha   101.27399829
_cell_angle_beta   112.86999746
_cell_angle_gamma   112.87000358
_symmetry_Int_Tables_number   1
_chemical_formula_structural   MnH6C12(NO2)2
_chemical_formula_sum   'Mn2 H12 C24 N4 O8'
_cell_volume   636.256192121
_cell_formula_units_Z   2
loop_
 _symmetry_equiv_pos_site_id
 _symmetry_equiv_pos_as_xyz
  1  'x, y, z'
loop_
 _atom_site_label
 _atom_site_fract_x
 _atom_site_fract_y
 _atom_site_fract_z
 _atom_site_charge
 Mn 0.75 0.0348 0.9652   1.071596
 Mn 0.25 0.9652 0.0348   1.071595
 H 0.6776 0.264 0.5092   0.13253
 H 0.7489 0.8688 0.3906   0.13536
 H 0.7859 0.8567 0.6465   0.09025
 H 0.8224 0.4908 0.736   0.132535
 H 0.7511 0.6094 0.1312   0.135358
 H 0.7141 0.3535 0.1433   0.090251
 H 0.3224 0.736 0.4908   0.13253
 H 0.2511 0.1312 0.6094   0.135359
 H 0.2141 0.1433 0.3535   0.090251
 H 0.1776 0.5092 0.264   0.132534
 H 0.2489 0.3906 0.8688   0.135358
 H 0.2859 0.6465 0.8567   0.090251
 C 0.7432 0.17718 0.69262   0.182956
 C 0.7043 0.18204 0.53676   -0.179095
 C 0.7048 0.06586 0.42094   0.00339
 C 0.7416 0.94634 0.46466   -0.167503
 C 0.7676 0.94254 0.61926   0.182025
 C 0.6695 0.07815 0.25505   0.653948
 C 0.7568 0.30738 0.82282   0.182901
 C 0.7957 0.46324 0.81796   -0.179087
 C 0.7952 0.57906 0.93414   0.003388
 C 0.7584 0.53534 0.05366   -0.167501
 C 0.7324 0.38074 0.05746   0.182023
 C 0.8305 0.74495 0.92185   0.653949
 C 0.2568 0.82282 0.30738   0.182956
 C 0.2957 0.81796 0.46324   -0.179093
 C 0.2952 0.93414 0.57906   0.003389
 C 0.2584 0.05366 0.53534   -0.167501
 C 0.2324 0.05746 0.38074   0.182023
 C 0.3305 0.92185 0.74495   0.653948
 C 0.2432 0.69262 0.17718   0.182901
 C 0.2043 0.53676 0.18204   -0.179085
 C 0.2048 0.42094 0.06586   0.003386
 C 0.2416 0.46466 0.94634   -0.167498
 C 0.2676 0.61926 0.94254   0.182021
 C 0.1695 0.25505 0.07815   0.653948
 N 0.7678 0.05563 0.73223   -0.383434
 N 0.7322 0.26777 0.94437   -0.383434
 N 0.2322 0.94437 0.26777   -0.383434
 N 0.2678 0.73223 0.05563   -0.383434
 O 0.7744 0.06558 0.20592   -0.579179
 O 0.5459 0.10812 0.1831   -0.60702
 O 0.7256 0.79408 0.93442   -0.579179
 O 0.9541 0.8169 0.89188   -0.60702
 O 0.2256 0.93442 0.79408   -0.57918
 O 0.4541 0.89188 0.8169   -0.607027
 O 0.2744 0.20592 0.06558   -0.57918
 O 0.0459 0.1831 0.10812   -0.607027
