{'_ref': 'TBD', '_srcid': 'CAKYAQ_clean', 'submitters': [{'name': 'Dalar Nazarian Jeff Camp and David Sholl', 'email': 'dalar@gatech.edu jcamp6@gatech.edu'}], '_method': 'VASP DFT with PBE;DDEC'}
data_CrH4C8O5
_symmetry_space_group_name_H-M   'P 1'
_cell_length_a   6.78200016
_cell_length_b   7.84900052
_cell_length_c   10.59604514
_cell_angle_alpha   111.73825728
_cell_angle_beta   103.81907338
_cell_angle_gamma   90.00000020
_symmetry_Int_Tables_number   1
_chemical_formula_structural   CrH4C8O5
_chemical_formula_sum   'Cr2 H8 C16 O10'
_cell_volume   506.317612957
_cell_formula_units_Z   2
loop_
 _symmetry_equiv_pos_site_id
 _symmetry_equiv_pos_as_xyz
  1  'x, y, z'
loop_
 _atom_site_label
 _atom_site_fract_x
 _atom_site_fract_y
 _atom_site_fract_z
 _atom_site_charge
 Cr 0.0 0.0 0.0   1.716504
 Cr 0.5 0.0 0.0   1.715634
 H 0.68379 0.81763 0.30502   0.164342
 H 0.13119 0.06887 0.41334   0.127026
 H 0.81621 0.51261 0.69498   0.16441
 H 0.36881 0.65552 0.58666   0.126707
 H 0.29691 0.18383 0.68294   0.162589
 H 0.86964 0.92862 0.58189   0.128311
 H 0.20309 0.50089 0.31706   0.162818
 H 0.63036 0.34673 0.41811   0.127847
 C 0.33 0.921 0.222   0.72707
 C 0.618 0.902 0.396   -0.088952
 C 0.296 0.049 0.458   -0.084937
 C 0.421 0.974 0.368   -0.092017
 C 0.17 0.699 0.778   0.72772
 C 0.882 0.506 0.604   -0.089349
 C 0.204 0.591 0.542   -0.083051
 C 0.079 0.606 0.632   -0.093558
 C 0.67 0.079 0.778   0.726455
 C 0.382 0.098 0.604   -0.085045
 C 0.704 0.951 0.542   -0.080169
 C 0.579 0.026 0.632   -0.083349
 C 0.83 0.301 0.222   0.7271
 C 0.118 0.494 0.396   -0.085653
 C 0.796 0.409 0.458   -0.078212
 C 0.921 0.394 0.368   -0.084868
 O 0.445 0.902 0.136   -0.659002
 O 0.152 0.946 0.174   -0.583638
 O 0.055 0.766 0.864   -0.659116
 O 0.348 0.772 0.826   -0.583716
 O 0.555 0.098 0.864   -0.657462
 O 0.848 0.054 0.826   -0.584703
 O 0.945 0.234 0.136   -0.657581
 O 0.652 0.228 0.174   -0.58478
 O 0.25 0.113 0.0   -0.751313
 O 0.75 0.887 0.0   -0.754062
