{'_ref': 'TBD', '_srcid': 'CAKYAQ_clean', 'submitters': [{'name': 'Dalar Nazarian Jeff Camp and David Sholl', 'email': 'dalar@gatech.edu jcamp6@gatech.edu'}], '_method': 'VASP DFT with PBE;DDEC'}
data_LaH20C25N5Cl3
_symmetry_space_group_name_H-M   'P 1'
_cell_length_a   13.44700016
_cell_length_b   13.71500020
_cell_length_c   14.30100000
_cell_angle_alpha   79.48000165
_cell_angle_beta   63.90000042
_cell_angle_gamma   65.67999967
_symmetry_Int_Tables_number   1
_chemical_formula_structural   LaH20C25N5Cl3
_chemical_formula_sum   'La2 H40 C50 N10 Cl6'
_cell_volume   2158.33463389
_cell_formula_units_Z   2
loop_
 _symmetry_equiv_pos_site_id
 _symmetry_equiv_pos_as_xyz
  1  'x, y, z'
loop_
 _atom_site_label
 _atom_site_fract_x
 _atom_site_fract_y
 _atom_site_fract_z
 _atom_site_charge
 La 0.47581 0.08046 0.34187   1.673229
 La 0.52419 0.91954 0.65813   1.673229
 H 0.1251 0.4524 0.5805   0.129976
 H 0.2935 0.3014 0.5181   0.066585
 H 0.6586 0.151 0.0887   0.070561
 H 0.8478 0.1344 0.9694   0.128324
 H 0.5929 0.6587 0.979   0.120471
 H 0.5528 0.9464 0.1084   0.071066
 H 0.9793 0.8761 0.1285   0.13255
 H 0.2598 0.9788 0.5618   0.056482
 H 0.5339 0.6514 0.318   0.131887
 H 0.786 0.8957 0.2384   0.065591
 H 0.4987 0.8084 0.3842   0.06993
 H 0.5938 0.5046 0.2494   0.124935
 H 0.5789 0.7955 0.0383   0.122994
 H 0.0767 0.9647 0.6191   0.128364
 H 0.6254 0.3516 0.1776   0.0612
 H 0.029 0.4138 0.3649   0.129233
 H 0.6382 0.4976 0.9135   0.072806
 H 0.202 0.265 0.3067   0.057983
 H 0.2705 0.0521 0.2828   0.055924
 H 0.0903 0.0385 0.3308   0.130685
 H 0.8749 0.5476 0.4195   0.129977
 H 0.7065 0.6986 0.4819   0.066585
 H 0.3414 0.849 0.9113   0.070561
 H 0.1522 0.8656 0.0306   0.128322
 H 0.4071 0.3413 0.021   0.120471
 H 0.4472 0.0536 0.8916   0.071067
 H 0.0207 0.1239 0.8715   0.132549
 H 0.7402 0.0212 0.4382   0.056482
 H 0.4661 0.3486 0.682   0.131887
 H 0.214 0.1043 0.7616   0.065592
 H 0.5013 0.1916 0.6158   0.06993
 H 0.4062 0.4954 0.7506   0.124935
 H 0.4211 0.2045 0.9617   0.122994
 H 0.9233 0.0353 0.3809   0.128363
 H 0.3746 0.6484 0.8224   0.0612
 H 0.971 0.5862 0.6351   0.129234
 H 0.3618 0.5024 0.0865   0.072805
 H 0.798 0.735 0.6933   0.057983
 H 0.7295 0.9479 0.7172   0.055924
 H 0.9097 0.9615 0.6692   0.130685
 C 0.1382 0.4147 0.524   -0.213109
 C 0.5624 0.7032 0.1688   0.109501
 C 0.9374 0.0049 0.0363   0.094814
 C 0.0556 0.4507 0.4802   0.099113
 C 0.2391 0.3242 0.4857   0.211437
 C 0.7247 0.094 0.0971   0.2071
 C 0.5879 0.6022 0.123   0.075137
 C 0.8379 0.0853 0.0258   -0.202268
 C 0.6012 0.5965 0.0216   -0.191271
 C 0.5472 0.8862 0.1524   0.188906
 C 0.9149 0.9337 0.1181   -0.21837
 C 0.2238 0.9935 0.514   0.214646
 C 0.5373 0.7114 0.2732   -0.214383
 C 0.7985 0.9469 0.1844   0.200586
 C 0.0593 0.0032 0.4826   0.100404
 C 0.5172 0.8056 0.3123   0.188647
 C 0.6001 0.5063 0.1804   -0.221438
 C 0.5649 0.7953 0.1095   -0.194751
 C 0.1141 0.9843 0.5488   -0.202981
 C 0.6213 0.4143 0.1358   0.202207
 C 0.0822 0.3925 0.3982   -0.212747
 C 0.6266 0.4996 0.9837   0.182685
 C 0.1861 0.3031 0.364   0.202646
 C 0.23 0.0355 0.3534   0.199218
 C 0.1219 0.0274 0.3814   -0.211051
 C 0.8618 0.5853 0.476   -0.21311
 C 0.4376 0.2968 0.8312   0.109501
 C 0.0626 0.9951 0.9637   0.094814
 C 0.9444 0.5493 0.5198   0.09911
 C 0.7609 0.6758 0.5143   0.211437
 C 0.2753 0.906 0.9029   0.207099
 C 0.4121 0.3978 0.877   0.075137
 C 0.1621 0.9147 0.9742   -0.202267
 C 0.3988 0.4035 0.9784   -0.191271
 C 0.4528 0.1138 0.8476   0.188906
 C 0.0851 0.0663 0.8819   -0.218369
 C 0.7762 0.0065 0.486   0.214646
 C 0.4627 0.2886 0.7268   -0.214383
 C 0.2015 0.0531 0.8156   0.200585
 C 0.9407 0.9968 0.5174   0.100396
 C 0.4828 0.1944 0.6877   0.188647
 C 0.3999 0.4937 0.8196   -0.221438
 C 0.4351 0.2047 0.8905   -0.194751
 C 0.8859 0.0157 0.4512   -0.20298
 C 0.3787 0.5857 0.8642   0.202207
 C 0.9178 0.6075 0.6018   -0.212748
 C 0.3734 0.5004 0.0163   0.182685
 C 0.8139 0.6969 0.636   0.202646
 C 0.77 0.9645 0.6466   0.199218
 C 0.8781 0.9726 0.6186   -0.211051
 N 0.702 0.027 0.1778   -0.424493
 N 0.5225 0.8946 0.2537   -0.444581
 N 0.2663 0.2663 0.4065   -0.423395
 N 0.2816 0.0219 0.4171   -0.416252
 N 0.6364 0.4075 0.0384   -0.42833
 N 0.298 0.973 0.8222   -0.424493
 N 0.4775 0.1054 0.7463   -0.444581
 N 0.7337 0.7337 0.5935   -0.423395
 N 0.7184 0.9781 0.5829   -0.416252
 N 0.3636 0.5925 0.9616   -0.42833
 Cl 0.62238 0.90561 0.42834   -0.602577
 Cl 0.42544 0.15895 0.16576   -0.609461
 Cl 0.5723 0.21677 0.35697   -0.646357
 Cl 0.37762 0.09439 0.57166   -0.602577
 Cl 0.57456 0.84105 0.83424   -0.609461
 Cl 0.4277 0.78323 0.64303   -0.646357
