{'_ref': 'TBD', '_srcid': 'CAKYAQ_clean', 'submitters': [{'name': 'Dalar Nazarian Jeff Camp and David Sholl', 'email': 'dalar@gatech.edu jcamp6@gatech.edu'}], '_method': 'VASP DFT with PBE;DDEC'}
data_Co2H32C34S(NO4)2
_symmetry_space_group_name_H-M   'P 1'
_cell_length_a   9.53839979
_cell_length_b   12.17590031
_cell_length_c   19.31300000
_cell_angle_alpha   101.15199963
_cell_angle_beta   100.35100114
_cell_angle_gamma   105.30399856
_symmetry_Int_Tables_number   1
_chemical_formula_structural   Co2H32C34S(NO4)2
_chemical_formula_sum   'Co4 H64 C68 S2 N4 O16'
_cell_volume   2058.53968274
_cell_formula_units_Z   2
loop_
 _symmetry_equiv_pos_site_id
 _symmetry_equiv_pos_as_xyz
  1  'x, y, z'
loop_
 _atom_site_label
 _atom_site_fract_x
 _atom_site_fract_y
 _atom_site_fract_z
 _atom_site_charge
 Co 0.99594 0.4227 0.64661   0.969834
 Co 0.00406 0.5773 0.35339   0.969834
 Co 0.0 0.5 0.5   1.195342
 Co 0.5 0.0 0.0   0.793341
 H 0.1529 0.2575 0.2472   0.103407
 H 0.1295 0.3176 0.3219   0.111701
 H 0.2802 0.3664 0.3002   0.117236
 H 0.1733 0.0456 0.3442   0.104034
 H 0.0673 0.1237 0.3524   0.102745
 H 0.0855 0.0703 0.2751   0.102414
 H 0.33 0.1413 0.245   0.108427
 H 0.4573 0.2511 0.2971   0.121369
 H 0.4222 0.1299 0.3177   0.10704
 H 0.4948 0.4164 0.6145   0.101188
 H 0.5513 0.298 0.4157   0.097795
 H 0.14 0.2815 0.4415   0.100588
 H 0.702 0.2071 0.2051   0.10211
 H 0.5894 0.9146 0.2761   0.095468
 H 0.8392 0.2203 0.4166   0.098775
 H 0.7844 0.8619 0.3648   0.109736
 H 0.8289 0.8816 0.4495   0.113529
 H 0.9203 0.9698 0.4124   0.110037
 H 0.4916 0.9569 0.4134   0.107966
 H 0.5644 0.8791 0.4547   0.114613
 H 0.5302 0.8509 0.3696   0.110247
 H 0.8742 0.1301 0.5001   0.119686
 H 0.7709 0.0392 0.5313   0.115102
 H 0.7097 0.1309 0.4991   0.1167
 H 0.1579 0.298 0.7413   0.090655
 H 0.1234 0.2 0.8298   0.134729
 H 0.6999 0.2065 0.7929   0.149772
 H 0.7444 0.301 0.7047   0.086249
 H 0.1396 0.2454 0.9983   0.144703
 H 0.3487 0.1942 0.0395   0.093816
 H 0.1769 0.8838 0.9083   0.089523
 H 0.9622 0.9247 0.8649   0.129194
 H 0.8471 0.7425 0.7528   0.103407
 H 0.8705 0.6824 0.6781   0.1117
 H 0.7198 0.6336 0.6998   0.117233
 H 0.8267 0.9544 0.6558   0.104034
 H 0.9327 0.8763 0.6476   0.102745
 H 0.9145 0.9297 0.7249   0.102414
 H 0.67 0.8587 0.755   0.108427
 H 0.5427 0.7489 0.7029   0.121369
 H 0.5778 0.8701 0.6823   0.10704
 H 0.5052 0.5836 0.3855   0.101186
 H 0.4487 0.702 0.5843   0.097795
 H 0.86 0.7185 0.5585   0.100588
 H 0.298 0.7929 0.7949   0.10211
 H 0.4106 0.0854 0.7239   0.095467
 H 0.1608 0.7797 0.5834   0.098775
 H 0.2156 0.1381 0.6352   0.109735
 H 0.1711 0.1184 0.5505   0.113529
 H 0.0797 0.0302 0.5876   0.110037
 H 0.5084 0.0431 0.5866   0.107965
 H 0.4356 0.1209 0.5453   0.114613
 H 0.4698 0.1491 0.6304   0.110246
 H 0.1258 0.8699 0.4999   0.119685
 H 0.2291 0.9608 0.4687   0.115102
 H 0.2903 0.8691 0.5009   0.1167
 H 0.8421 0.702 0.2587   0.090654
 H 0.8766 0.8 0.1702   0.134729
 H 0.3001 0.7935 0.2071   0.149772
 H 0.2556 0.699 0.2953   0.086248
 H 0.8604 0.7546 0.0017   0.144702
 H 0.6513 0.8058 0.9605   0.093815
 H 0.8231 0.1162 0.0917   0.089523
 H 0.0378 0.0753 0.1351   0.129194
 C 0.2014 0.2966 0.2973   -0.37442
 C 0.1361 0.1029 0.3256   -0.370262
 C 0.3794 0.181 0.2949   -0.393388
 C 0.3017 0.3537 0.5346   -0.143236
 C 0.4555 0.3837 0.56483   -0.012424
 C 0.5485 0.3638 0.51956   -0.142859
 C 0.4874 0.3103 0.44547   -0.072965
 C 0.3337 0.2747 0.41479   -0.003437
 C 0.2425 0.3005 0.46079   -0.058409
 C 0.1991 0.377 0.58223   0.662288
 C 0.716 0.3994 0.54584   0.69152
 C 0.2679 0.2133 0.3339   0.220549
 C 0.7868 0.2321 0.31275   -0.144975
 C 0.7057 0.1696 0.24271   -0.01701
 C 0.6301 0.0503 0.22933   -0.145558
 C 0.6368 0.9951 0.28592   -0.057347
 C 0.7133 0.0579 0.35733   -0.017726
 C 0.7876 0.1766 0.36954   -0.057284
 C 0.8765 0.358 0.32851   0.669194
 C 0.5412 0.9818 0.15331   0.661776
 C 0.7174 0.9943 0.41871   0.223621
 C 0.8225 0.92 0.4106   -0.378445
 C 0.5614 0.9127 0.4136   -0.384305
 C 0.7733 0.0819 0.49444   -0.393343
 C 0.0646 0.2797 0.752   0.209318
 C 0.0451 0.2211 0.8056   -0.226852
 C 0.9077 0.1942 0.82298   0.11842
 C 0.7945 0.2248 0.7835   -0.196507
 C 0.8223 0.2818 0.73084   0.185113
 C 0.0286 0.091 0.92451   0.108948
 C 0.1451 0.1712 0.9785   -0.198545
 C 0.2706 0.1394 0.0029   0.185952
 C 0.1701 0.9582 0.9266   0.172853
 C 0.0407 0.9823 0.8997   -0.187044
 C 0.7986 0.7034 0.7027   -0.374419
 C 0.8639 0.8971 0.6744   -0.370262
 C 0.6206 0.819 0.7051   -0.393387
 C 0.6983 0.6463 0.4654   -0.143236
 C 0.5445 0.6163 0.43517   -0.012423
 C 0.4515 0.6362 0.48044   -0.142858
 C 0.5126 0.6897 0.55453   -0.072965
 C 0.6663 0.7253 0.58521   -0.003437
 C 0.7575 0.6995 0.53921   -0.058409
 C 0.8009 0.623 0.41777   0.662288
 C 0.284 0.6006 0.45416   0.69152
 C 0.7321 0.7867 0.6661   0.220549
 C 0.2132 0.7679 0.68725   -0.144975
 C 0.2943 0.8304 0.75729   -0.01701
 C 0.3699 0.9497 0.77067   -0.145558
 C 0.3632 0.0049 0.71408   -0.057347
 C 0.2867 0.9421 0.64267   -0.017726
 C 0.2124 0.8234 0.63046   -0.057284
 C 0.1235 0.642 0.67149   0.669194
 C 0.4588 0.0182 0.84669   0.661777
 C 0.2826 0.0057 0.58129   0.223621
 C 0.1775 0.08 0.5894   -0.378444
 C 0.4386 0.0873 0.5864   -0.384304
 C 0.2267 0.9181 0.50556   -0.393343
 C 0.9354 0.7203 0.248   0.209318
 C 0.9549 0.7789 0.1944   -0.226852
 C 0.0923 0.8058 0.17702   0.11842
 C 0.2055 0.7752 0.2165   -0.196506
 C 0.1777 0.7182 0.26916   0.185113
 C 0.9714 0.909 0.07549   0.108948
 C 0.8549 0.8288 0.0215   -0.198545
 C 0.7294 0.8606 0.9971   0.185952
 C 0.8299 0.0418 0.0734   0.172854
 C 0.9593 0.0177 0.1003   -0.187043
 S 0.86145 0.12301 0.8908   -0.014117
 S 0.13855 0.87699 0.1092   -0.014117
 N 0.957 0.3117 0.7146   -0.405187
 N 0.2857 0.0357 0.97724   -0.334115
 N 0.043 0.6883 0.2854   -0.405188
 N 0.7143 0.9643 0.02276   -0.334115
 O 0.06225 0.36882 0.55162   -0.662934
 O 0.2398 0.402 0.64926   -0.541341
 O 0.7741 0.40196 0.61071   -0.593463
 O 0.7875 0.4216 0.4989   -0.602918
 O 0.8777 0.41396 0.27966   -0.556229
 O 0.9574 0.40996 0.39196   -0.648951
 O 0.5228 0.04354 0.10865   -0.632347
 O 0.4924 0.873 0.13928   -0.616335
 O 0.93775 0.63118 0.44838   -0.662934
 O 0.7602 0.598 0.35074   -0.541341
 O 0.2259 0.59804 0.38929   -0.593463
 O 0.2125 0.5784 0.5011   -0.602918
 O 0.1223 0.58604 0.72034   -0.55623
 O 0.0426 0.59004 0.60804   -0.648951
 O 0.4772 0.95646 0.89135   -0.632347
 O 0.5076 0.127 0.86072   -0.616335
