{'_ref': 'TBD', '_srcid': 'CAKYAQ_clean', 'submitters': [{'name': 'Dalar Nazarian Jeff Camp and David Sholl', 'email': 'dalar@gatech.edu jcamp6@gatech.edu'}], '_method': 'VASP DFT with PBE;DDEC'}
data_ZnH8C15S2NO4
_symmetry_space_group_name_H-M   'P 1'
_cell_length_a   13.94399985
_cell_length_b   14.10200018
_cell_length_c   14.10200000
_cell_angle_alpha   86.91980087
_cell_angle_beta   70.63299924
_cell_angle_gamma   70.63300055
_symmetry_Int_Tables_number   1
_chemical_formula_structural   ZnH8C15S2NO4
_chemical_formula_sum   'Zn4 H32 C60 S8 N4 O16'
_cell_volume   2463.11444048
_cell_formula_units_Z   4
loop_
 _symmetry_equiv_pos_site_id
 _symmetry_equiv_pos_as_xyz
  1  'x, y, z'
loop_
 _atom_site_label
 _atom_site_fract_x
 _atom_site_fract_y
 _atom_site_fract_z
 _atom_site_charge
 Zn 0.8675 0.13349 0.82415   0.923333
 Zn 0.6325 0.17585 0.86651   0.923333
 Zn 0.1325 0.86651 0.17585   0.923333
 Zn 0.3675 0.82415 0.13349   0.923333
 H 0.5587 0.6934 0.9   0.121594
 H 0.5255 0.5298 0.9016   0.122886
 H 0.9703 0.7766 0.8112   0.112634
 H 0.9321 0.6142 0.8246   0.129879
 H 0.2084 0.2169 0.7123   0.136825
 H 0.0502 0.2044 0.699   0.114265
 H 0.000399999999999 0.0643 0.9605   0.091325
 H 0.1586 0.0768 0.974   0.131597
 H 0.9413 0.1 0.3066   0.121594
 H 0.9745 0.0984 0.4702   0.122886
 H 0.5297 0.1888 0.2234   0.112634
 H 0.5679 0.1754 0.3858   0.129878
 H 0.2916 0.2877 0.7831   0.136824
 H 0.4498 0.301 0.7956   0.114265
 H 0.4996 0.0395 0.9357   0.091325
 H 0.3414 0.026 0.9232   0.131597
 H 0.4413 0.3066 0.1   0.121594
 H 0.4745 0.4702 0.0984   0.122886
 H 0.0297 0.2234 0.1888   0.112634
 H 0.0679 0.3858 0.1754   0.129878
 H 0.7916 0.7831 0.2877   0.136825
 H 0.9498 0.7956 0.301   0.114265
 H 0.9996 0.9357 0.0395   0.091325
 H 0.8414 0.9232 0.026   0.131597
 H 0.0587 0.9 0.6934   0.121594
 H 0.0255 0.9016 0.5298   0.122886
 H 0.4703 0.8112 0.7766   0.112634
 H 0.4321 0.8246 0.6142   0.129878
 H 0.7084 0.7123 0.2169   0.136824
 H 0.5502 0.699 0.2044   0.114265
 H 0.5004 0.9605 0.0643   0.091325
 H 0.6586 0.974 0.0768   0.131597
 C 0.7985 0.9624 0.84   0.695578
 C 0.7019 0.3455 0.8505   0.709947
 C 0.6869 0.4562 0.8558   -0.190844
 C 0.7221 0.6163 0.8515   -0.022084
 C 0.811 0.8522 0.8362   -0.230035
 C 0.6141 0.6296 0.882   -0.146437
 C 0.5953 0.5355 0.8833   -0.042748
 C 0.7732 0.6934 0.8408   0.00757
 C 0.9009 0.772 0.823   -0.034107
 C 0.8794 0.6785 0.8287   -0.182417
 C 0.1662 0.1859 0.7627   -0.194955
 C 0.0722 0.17847 0.75473   0.161809
 C 0.0426 0.09525 0.91015   0.161113
 C 0.1366 0.1027 0.9181   -0.179474
 C 0.1984 0.148 0.8444   0.104005
 C 0.7015 0.16 0.0376   0.695578
 C 0.7981 0.1495 0.6545   0.709947
 C 0.8131 0.1442 0.5438   -0.190844
 C 0.7779 0.1485 0.3837   -0.022084
 C 0.689 0.1638 0.1478   -0.230035
 C 0.8859 0.118 0.3704   -0.146437
 C 0.9047 0.1167 0.4645   -0.042748
 C 0.7268 0.1592 0.3066   0.00757
 C 0.5991 0.177 0.228   -0.034107
 C 0.6206 0.1713 0.3215   -0.182417
 C 0.3338 0.2373 0.8141   -0.194954
 C 0.4278 0.24527 0.82153   0.161809
 C 0.4574 0.08985 0.90475   0.161113
 C 0.3634 0.0819 0.8973   -0.179474
 C 0.3016 0.1556 0.852   0.104004
 C 0.2015 0.0376 0.16   0.695578
 C 0.2981 0.6545 0.1495   0.709947
 C 0.3131 0.5438 0.1442   -0.190844
 C 0.2779 0.3837 0.1485   -0.022084
 C 0.189 0.1478 0.1638   -0.230035
 C 0.3859 0.3704 0.118   -0.146437
 C 0.4047 0.4645 0.1167   -0.042747
 C 0.2268 0.3066 0.1592   0.00757
 C 0.0991 0.228 0.177   -0.034107
 C 0.1206 0.3215 0.1713   -0.182417
 C 0.8338 0.8141 0.2373   -0.194955
 C 0.9278 0.82153 0.24527   0.161809
 C 0.9574 0.90475 0.08985   0.161113
 C 0.8634 0.8973 0.0819   -0.179474
 C 0.8016 0.852 0.1556   0.104005
 C 0.2985 0.84 0.9624   0.695578
 C 0.2019 0.8505 0.3455   0.709947
 C 0.1869 0.8558 0.4562   -0.190844
 C 0.2221 0.8515 0.6163   -0.022084
 C 0.311 0.8362 0.8522   -0.230035
 C 0.1141 0.882 0.6296   -0.146437
 C 0.0953 0.8833 0.5355   -0.042747
 C 0.2732 0.8408 0.6934   0.00757
 C 0.4009 0.823 0.772   -0.034107
 C 0.3794 0.8287 0.6785   -0.182417
 C 0.6662 0.7627 0.1859   -0.194955
 C 0.5722 0.75473 0.17847   0.161809
 C 0.5426 0.91015 0.09525   0.161113
 C 0.6366 0.9181 0.1027   -0.179474
 C 0.6984 0.8444 0.148   0.104004
 S 0.69998 0.81865 0.85075   0.116132
 S 0.80043 0.49133 0.82489   0.070215
 S 0.80002 0.14925 0.18135   0.116132
 S 0.69957 0.17511 0.50867   0.070215
 S 0.30002 0.18135 0.14925   0.116132
 S 0.19957 0.50867 0.17511   0.070215
 S 0.19998 0.85075 0.81865   0.116132
 S 0.30043 0.82489 0.49133   0.070215
 N 0.0104 0.13314 0.82846   -0.316337
 N 0.4896 0.17154 0.86686   -0.316337
 N 0.9896 0.86686 0.17154   -0.316337
 N 0.5104 0.82846 0.13314   -0.316337
 O 0.8804 0.98547 0.82929   -0.577707
 O 0.6181 0.32352 0.87468   -0.580814
 O 0.7062 0.02268 0.85232   -0.606823
 O 0.7961 0.2873 0.8253   -0.605924
 O 0.6196 0.17071 0.01453   -0.577707
 O 0.8819 0.12532 0.67648   -0.580814
 O 0.7938 0.14768 0.97732   -0.606823
 O 0.7039 0.1747 0.7127   -0.605924
 O 0.1196 0.01453 0.17071   -0.577707
 O 0.3819 0.67648 0.12532   -0.580814
 O 0.2938 0.97732 0.14768   -0.606823
 O 0.2039 0.7127 0.1747   -0.605924
 O 0.3804 0.82929 0.98547   -0.577707
 O 0.1181 0.87468 0.32352   -0.580814
 O 0.2062 0.85232 0.02268   -0.606823
 O 0.2961 0.8253 0.2873   -0.605924
