{'_ref': 'TBD', '_srcid': 'CAKYAQ_clean', 'submitters': [{'name': 'Dalar Nazarian Jeff Camp and David Sholl', 'email': 'dalar@gatech.edu jcamp6@gatech.edu'}], '_method': 'VASP DFT with PBE;DDEC'}
data_ZnH8C15S2NO4
_symmetry_space_group_name_H-M   'P 1'
_cell_length_a   9.37599979
_cell_length_b   14.01570014
_cell_length_c   14.01570000
_cell_angle_alpha   101.73000142
_cell_angle_beta   101.45100286
_cell_angle_gamma   101.45099867
_symmetry_Int_Tables_number   1
_chemical_formula_structural   ZnH8C15S2NO4
_chemical_formula_sum   'Zn4 H32 C60 S8 N4 O16'
_cell_volume   1711.81799147
_cell_formula_units_Z   4
loop_
 _symmetry_equiv_pos_site_id
 _symmetry_equiv_pos_as_xyz
  1  'x, y, z'
loop_
 _atom_site_label
 _atom_site_fract_x
 _atom_site_fract_y
 _atom_site_fract_z
 _atom_site_charge
 Zn 0.91154 0.82458 0.27566   0.927526
 Zn 0.58846 0.72434 0.17542   0.927526
 Zn 0.08846 0.17542 0.72434   0.927526
 Zn 0.41154 0.27566 0.82458   0.927526
 H 0.084 0.9029 0.4889   0.079603
 H 0.3262 0.9719 0.5841   0.113783
 H 0.4574 0.9761 0.3327   0.116756
 H 0.2112 0.9093 0.2437   0.089333
 H 0.0623 0.519 0.2672   0.124391
 H 0.0169 0.3375 0.2515   0.111255
 H 0.4734 0.0076 0.084   0.110714
 H 0.5349 0.1824 0.0714   0.122682
 H 0.416 0.5111 0.0971   0.079603
 H 0.1738 0.4159 0.0281   0.113783
 H 0.0426 0.6673 0.0239   0.116756
 H 0.2888 0.7563 0.0907   0.089329
 H 0.4377 0.7328 0.481   0.124401
 H 0.4831 0.7485 0.6625   0.111255
 H 0.0266 0.916 0.9924   0.110711
 H 0.9651 0.9286 0.8176   0.122682
 H 0.916 0.0971 0.5111   0.079603
 H 0.6738 0.0281 0.4159   0.113781
 H 0.5426 0.0239 0.6673   0.116754
 H 0.7888 0.0907 0.7563   0.089334
 H 0.9377 0.481 0.7328   0.12439
 H 0.9831 0.6625 0.7485   0.111255
 H 0.5266 0.9924 0.916   0.110714
 H 0.4651 0.8176 0.9286   0.122682
 H 0.584 0.4889 0.9029   0.079603
 H 0.8262 0.5841 0.9719   0.113781
 H 0.9574 0.3327 0.9761   0.116754
 H 0.7112 0.2437 0.9093   0.089329
 H 0.5623 0.2672 0.519   0.1244
 H 0.5169 0.2515 0.3375   0.111255
 H 0.9734 0.084 0.0076   0.110711
 H 0.0349 0.0714 0.1824   0.122683
 C 0.161 0.9159 0.4559   0.172926
 C 0.307 0.95758 0.51362   -0.175017
 C 0.422 0.97784 0.47056   0.099606
 C 0.383 0.9603 0.3671   -0.156472
 C 0.2349 0.9194 0.314   0.154938
 C 0.8124 0.60453 0.22069   0.701129
 C 0.8363 0.50373 0.22011   -0.214671
 C 0.9662 0.47447 0.24573   -0.039792
 C 0.9397 0.37002 0.23658   -0.150083
 C 0.7916 0.32071 0.20401   -0.016041
 C 0.7207 0.21437 0.18649   0.003607
 C 0.6632 0.03731 0.19619   -0.235906
 C 0.5593 0.05647 0.12483   -0.017911
 C 0.5938 0.15751 0.11829   -0.17977
 C 0.6789 0.93958 0.21336   0.692883
 C 0.339 0.5441 0.0841   0.172926
 C 0.193 0.48638 0.04242   -0.175017
 C 0.078 0.52944 0.02216   0.099605
 C 0.117 0.6329 0.0397   -0.156473
 C 0.2651 0.686 0.0806   0.154938
 C 0.6876 0.77931 0.39547   0.701132
 C 0.6637 0.77989 0.49627   -0.21467
 C 0.5338 0.75427 0.52553   -0.039796
 C 0.5603 0.76342 0.62998   -0.150082
 C 0.7084 0.79599 0.67929   -0.016041
 C 0.7793 0.81351 0.78563   0.003607
 C 0.8368 0.80381 0.96269   -0.235906
 C 0.9407 0.87517 0.94353   -0.01791
 C 0.9062 0.88171 0.84249   -0.179771
 C 0.8211 0.78664 0.06042   0.692884
 C 0.839 0.0841 0.5441   0.172926
 C 0.693 0.04242 0.48638   -0.175017
 C 0.578 0.02216 0.52944   0.099595
 C 0.617 0.0397 0.6329   -0.156471
 C 0.7651 0.0806 0.686   0.154938
 C 0.1876 0.39547 0.77931   0.701129
 C 0.1637 0.49627 0.77989   -0.214673
 C 0.0338 0.52553 0.75427   -0.03978
 C 0.0603 0.62998 0.76342   -0.15008
 C 0.2084 0.67929 0.79599   -0.016041
 C 0.2793 0.78563 0.81351   0.003607
 C 0.3368 0.96269 0.80381   -0.235906
 C 0.4407 0.94353 0.87517   -0.01791
 C 0.4062 0.84249 0.88171   -0.179771
 C 0.3211 0.06042 0.78664   0.692883
 C 0.661 0.4559 0.9159   0.172926
 C 0.807 0.51362 0.95758   -0.175017
 C 0.922 0.47056 0.97784   0.099595
 C 0.883 0.3671 0.9603   -0.156471
 C 0.7349 0.314 0.9194   0.154937
 C 0.3124 0.22069 0.60453   0.701132
 C 0.3363 0.22011 0.50373   -0.214672
 C 0.4662 0.24573 0.47447   -0.039784
 C 0.4397 0.23658 0.37002   -0.150079
 C 0.2916 0.20401 0.32071   -0.016041
 C 0.2207 0.18649 0.21437   0.003608
 C 0.1632 0.19619 0.03731   -0.235907
 C 0.0593 0.12483 0.05647   -0.017909
 C 0.0938 0.11829 0.15751   -0.179771
 C 0.1789 0.21336 0.93958   0.692884
 S 0.68155 0.40324 0.18344   0.114893
 S 0.80099 0.14475 0.25913   0.127079
 S 0.81845 0.81656 0.59676   0.114894
 S 0.69901 0.74087 0.85525   0.127079
 S 0.31845 0.59676 0.81656   0.114898
 S 0.19901 0.85525 0.74087   0.127084
 S 0.18155 0.18344 0.40324   0.114898
 S 0.30099 0.25913 0.14475   0.127084
 N 0.1253 0.89371 0.35701   -0.303181
 N 0.3747 0.64299 0.10629   -0.303181
 N 0.8747 0.10629 0.64299   -0.30318
 N 0.6253 0.35701 0.89371   -0.303181
 O 0.9252 0.67763 0.24503   -0.589921
 O 0.8224 0.80132 0.39156   -0.595404
 O 0.7998 0.93821 0.26895   -0.602503
 O 0.5694 0.86483 0.16935   -0.58644
 O 0.5748 0.75497 0.32237   -0.589921
 O 0.6776 0.60844 0.19868   -0.595404
 O 0.7002 0.73105 0.06179   -0.602503
 O 0.9306 0.83065 0.13517   -0.58644
 O 0.0748 0.32237 0.75497   -0.589921
 O 0.1776 0.19868 0.60844   -0.595404
 O 0.2002 0.06179 0.73105   -0.602503
 O 0.4306 0.13517 0.83065   -0.58644
 O 0.4252 0.24503 0.67763   -0.589921
 O 0.3224 0.39156 0.80132   -0.595404
 O 0.2998 0.26895 0.93821   -0.602503
 O 0.0694 0.16935 0.86483   -0.58644
