{'_ref': 'TBD', '_srcid': 'CAKYAQ_clean', 'submitters': [{'name': 'Dalar Nazarian Jeff Camp and David Sholl', 'email': 'dalar@gatech.edu jcamp6@gatech.edu'}], '_method': 'VASP DFT with PBE;DDEC'}
data_ZnH8C15S2NO4
_symmetry_space_group_name_H-M   'P 1'
_cell_length_a   9.48739980
_cell_length_b   14.04899961
_cell_length_c   14.04900000
_cell_angle_alpha   101.59000141
_cell_angle_beta   101.99100248
_cell_angle_gamma   101.99099914
_symmetry_Int_Tables_number   1
_chemical_formula_structural   ZnH8C15S2NO4
_chemical_formula_sum   'Zn4 H32 C60 S8 N4 O16'
_cell_volume   1732.47209908
_cell_formula_units_Z   4
loop_
 _symmetry_equiv_pos_site_id
 _symmetry_equiv_pos_as_xyz
  1  'x, y, z'
loop_
 _atom_site_label
 _atom_site_fract_x
 _atom_site_fract_y
 _atom_site_fract_z
 _atom_site_charge
 Zn 0.9112 0.27717 0.82421   0.929394
 Zn 0.5888 0.17579 0.72283   0.929394
 Zn 0.0888 0.72283 0.17579   0.929394
 Zn 0.4112 0.82421 0.27717   0.929394
 H 0.4872 0.6608 0.7494   0.114559
 H 0.9688 0.8218 0.9266   0.120077
 H 0.4438 0.4804 0.7344   0.124982
 H 0.0262 0.9951 0.9135   0.110529
 H 0.3281 0.5845 0.9759   0.116883
 H 0.4524 0.3326 0.9728   0.119002
 H 0.0878 0.4906 0.9054   0.077885
 H 0.2084 0.2453 0.9063   0.085974
 H 0.0128 0.2506 0.3392   0.114559
 H 0.5312 0.0734 0.1782   0.120078
 H 0.0562 0.2656 0.5196   0.124992
 H 0.4738 0.0865 0.0049   0.110524
 H 0.1719 0.0241 0.4155   0.116883
 H 0.0476 0.0272 0.6674   0.119002
 H 0.4122 0.0946 0.5094   0.077885
 H 0.2916 0.0937 0.7547   0.085969
 H 0.5128 0.3392 0.2506   0.114559
 H 0.0312 0.1782 0.0734   0.120078
 H 0.5562 0.5196 0.2656   0.12498
 H 0.9738 0.0049 0.0865   0.110529
 H 0.6719 0.4155 0.0241   0.116881
 H 0.5476 0.6674 0.0272   0.119
 H 0.9122 0.5094 0.0946   0.077885
 H 0.7916 0.7547 0.0937   0.085974
 H 0.9872 0.7494 0.6608   0.114558
 H 0.4688 0.9266 0.8218   0.120078
 H 0.9438 0.7344 0.4804   0.124991
 H 0.5262 0.9135 0.9951   0.110524
 H 0.8281 0.9759 0.5845   0.116881
 H 0.9524 0.9728 0.3326   0.119
 H 0.5878 0.9054 0.4906   0.077885
 H 0.7084 0.9063 0.2453   0.085969
 C 0.7799 0.78647 0.81313   -0.000873
 C 0.6669 0.49722 0.78062   -0.211585
 C 0.6914 0.39635 0.77893   0.698182
 C 0.5634 0.62955 0.76425   -0.153136
 C 0.8189 0.06111 0.78533   0.69378
 C 0.9086 0.84548 0.88072   -0.173978
 C 0.5382 0.52511 0.75529   -0.042076
 C 0.4215 0.46999 0.97729   0.096626
 C 0.8348 0.96347 0.80289   -0.234769
 C 0.7107 0.67993 0.79687   -0.015576
 C 0.9412 0.94598 0.87382   -0.020489
 C 0.3077 0.5146 0.9594   -0.176504
 C 0.3805 0.3672 0.9582   -0.157993
 C 0.1627 0.4576 0.9174   0.176764
 C 0.2332 0.315 0.9174   0.164464
 C 0.7201 0.18687 0.21353   -0.000873
 C 0.8331 0.21938 0.50278   -0.211585
 C 0.8086 0.22107 0.60365   0.698186
 C 0.9366 0.23575 0.37045   -0.153131
 C 0.6811 0.21467 0.93889   0.693782
 C 0.5914 0.11928 0.15452   -0.173979
 C 0.9618 0.24471 0.47489   -0.042082
 C 0.0785 0.02271 0.53001   0.096626
 C 0.6652 0.19711 0.03653   -0.234769
 C 0.7893 0.20313 0.32007   -0.015577
 C 0.5588 0.12618 0.05402   -0.020488
 C 0.1923 0.0406 0.4854   -0.176503
 C 0.1195 0.0418 0.6328   -0.157993
 C 0.3373 0.0826 0.5424   0.176764
 C 0.2668 0.0826 0.685   0.164463
 C 0.2201 0.21353 0.18687   -0.000873
 C 0.3331 0.50278 0.21938   -0.211588
 C 0.3086 0.60365 0.22107   0.698182
 C 0.4366 0.37045 0.23575   -0.153132
 C 0.1811 0.93889 0.21467   0.69378
 C 0.0914 0.15452 0.11928   -0.173978
 C 0.4618 0.47489 0.24471   -0.042064
 C 0.5785 0.53001 0.02271   0.096615
 C 0.1652 0.03653 0.19711   -0.23477
 C 0.2893 0.32007 0.20313   -0.015577
 C 0.0588 0.05402 0.12618   -0.020488
 C 0.6923 0.4854 0.0406   -0.176503
 C 0.6195 0.6328 0.0418   -0.157991
 C 0.8373 0.5424 0.0826   0.176763
 C 0.7668 0.685 0.0826   0.164463
 C 0.2799 0.81313 0.78647   -0.000872
 C 0.1669 0.78062 0.49722   -0.211587
 C 0.1914 0.77893 0.39635   0.698186
 C 0.0634 0.76425 0.62955   -0.153127
 C 0.3189 0.78533 0.06111   0.693782
 C 0.4086 0.88072 0.84548   -0.173979
 C 0.0382 0.75529 0.52511   -0.042071
 C 0.9215 0.97729 0.46999   0.096615
 C 0.3348 0.80289 0.96347   -0.23477
 C 0.2107 0.79687 0.67993   -0.015578
 C 0.4412 0.87382 0.94598   -0.020487
 C 0.8077 0.9594 0.5146   -0.176503
 C 0.8805 0.9582 0.3672   -0.157992
 C 0.6627 0.9174 0.4576   0.176763
 C 0.7332 0.9174 0.315   0.164463
 S 0.69826 0.85498 0.74022   0.128432
 S 0.82003 0.59885 0.81699   0.115898
 S 0.80174 0.25978 0.14502   0.128432
 S 0.67997 0.18301 0.40115   0.115899
 S 0.30174 0.14502 0.25978   0.128437
 S 0.17997 0.40115 0.18301   0.115903
 S 0.19826 0.74022 0.85498   0.128437
 S 0.32003 0.81699 0.59885   0.115903
 N 0.1254 0.35838 0.89316   -0.308884
 N 0.3746 0.10684 0.64162   -0.308884
 N 0.8746 0.64162 0.10684   -0.308884
 N 0.6254 0.89316 0.35838   -0.308884
 O 0.928 0.13647 0.82911   -0.588593
 O 0.8249 0.39335 0.80271   -0.592666
 O 0.5781 0.32266 0.75372   -0.592102
 O 0.6973 0.06179 0.73033   -0.604214
 O 0.572 0.17089 0.86353   -0.588593
 O 0.6751 0.19729 0.60665   -0.592666
 O 0.9219 0.24628 0.67734   -0.592102
 O 0.8027 0.26967 0.93821   -0.604214
 O 0.072 0.86353 0.17089   -0.588593
 O 0.1751 0.60665 0.19729   -0.592666
 O 0.4219 0.67734 0.24628   -0.592102
 O 0.3027 0.93821 0.26967   -0.604214
 O 0.428 0.82911 0.13647   -0.588593
 O 0.3249 0.80271 0.39335   -0.592666
 O 0.0781 0.75372 0.32266   -0.592102
 O 0.1973 0.73033 0.06179   -0.604214
