{'_ref': 'TBD', '_srcid': 'CAKYAQ_clean', 'submitters': [{'name': 'Dalar Nazarian Jeff Camp and David Sholl', 'email': 'dalar@gatech.edu jcamp6@gatech.edu'}], '_method': 'VASP DFT with PBE;DDEC'}
data_AlH5C8O5
_symmetry_space_group_name_H-M   'P 1'
_cell_length_a   6.60180000
_cell_length_b   13.89109982
_cell_length_c   15.95400000
_cell_angle_alpha   90.00000000
_cell_angle_beta   90.00000000
_cell_angle_gamma   91.69899827
_symmetry_Int_Tables_number   1
_chemical_formula_structural   AlH5C8O5
_chemical_formula_sum   'Al4 H20 C32 O20'
_cell_volume   1462.43851505
_cell_formula_units_Z   4
loop_
 _symmetry_equiv_pos_site_id
 _symmetry_equiv_pos_as_xyz
  1  'x, y, z'
loop_
 _atom_site_label
 _atom_site_fract_x
 _atom_site_fract_y
 _atom_site_fract_z
 _atom_site_charge
 Al 0.0 0.0 0.0   1.784379
 Al 0.5 0.5 0.5   1.784379
 Al 0.5 0.0 0.0   1.794212
 Al 0.0 0.5 0.5   1.794212
 H 0.23813 0.88517 0.9804   0.515829
 H 0.56779 0.29523 0.69077   0.103979
 H 0.56265 0.19253 0.80503   0.106191
 H 0.96248 0.29519 0.6919   0.10268
 H 0.95703 0.19248 0.80616   0.106457
 H 0.26187 0.61483 0.4804   0.515829
 H 0.93221 0.20477 0.19077   0.103979
 H 0.93735 0.30747 0.30503   0.106191
 H 0.53752 0.20481 0.1919   0.10268
 H 0.54297 0.30752 0.30616   0.106457
 H 0.76187 0.11483 0.0196   0.51583
 H 0.43221 0.70477 0.30923   0.103979
 H 0.43735 0.80747 0.19497   0.106191
 H 0.03752 0.70481 0.3081   0.10268
 H 0.04297 0.80752 0.19384   0.106457
 H 0.73813 0.38517 0.5196   0.51583
 H 0.06779 0.79523 0.80923   0.103979
 H 0.06265 0.69253 0.69497   0.106191
 H 0.46248 0.79519 0.8081   0.10268
 H 0.45703 0.69248 0.69384   0.106457
 C 0.2693 0.37623 0.61   0.731859
 C 0.26582 0.30695 0.68157   -0.134695
 C 0.44494 0.27512 0.71437   -0.057605
 C 0.25613 0.11969 0.89287   0.752898
 C 0.25931 0.18206 0.81668   -0.142739
 C 0.44192 0.21318 0.78237   -0.0498
 C 0.08321 0.27511 0.71506   -0.053773
 C 0.07988 0.21317 0.78306   -0.052059
 C 0.2307 0.12377 0.11   0.73186
 C 0.23418 0.19305 0.18157   -0.134696
 C 0.05506 0.22488 0.21437   -0.057605
 C 0.24387 0.38031 0.39287   0.752898
 C 0.24069 0.31794 0.31668   -0.14274
 C 0.05808 0.28682 0.28237   -0.0498
 C 0.41679 0.22489 0.21506   -0.053773
 C 0.42012 0.28683 0.28306   -0.052059
 C 0.7307 0.62377 0.39   0.731859
 C 0.73418 0.69305 0.31843   -0.134694
 C 0.55506 0.72488 0.28563   -0.057604
 C 0.74387 0.88031 0.10713   0.752898
 C 0.74069 0.81794 0.18332   -0.142738
 C 0.55808 0.78682 0.21763   -0.049799
 C 0.91679 0.72489 0.28494   -0.053773
 C 0.92012 0.78683 0.21694   -0.052059
 C 0.7693 0.87623 0.89   0.73186
 C 0.76582 0.80695 0.81843   -0.134695
 C 0.94494 0.77512 0.78563   -0.057604
 C 0.75613 0.61969 0.60713   0.752898
 C 0.75931 0.68206 0.68332   -0.142739
 C 0.94192 0.71318 0.71763   -0.0498
 C 0.58321 0.77511 0.78494   -0.053773
 C 0.57988 0.71317 0.71694   -0.052059
 O 0.24358 0.94189 0.99311   -1.132277
 O 0.08563 0.09601 0.92261   -0.644984
 O 0.10121 0.40175 0.58183   -0.644932
 O 0.42422 0.09396 0.92074   -0.659122
 O 0.44025 0.4038 0.5827   -0.637204
 O 0.25642 0.55811 0.49311   -1.132277
 O 0.41437 0.40399 0.42261   -0.644984
 O 0.39879 0.09825 0.08183   -0.644932
 O 0.07578 0.40604 0.42074   -0.659122
 O 0.05975 0.0962 0.0827   -0.637204
 O 0.75642 0.05811 0.00689   -1.132278
 O 0.91437 0.90399 0.07739   -0.644984
 O 0.89879 0.59825 0.41817   -0.644932
 O 0.57578 0.90604 0.07926   -0.659122
 O 0.55975 0.5962 0.4173   -0.637204
 O 0.74358 0.44189 0.50689   -1.132278
 O 0.58563 0.59601 0.57739   -0.644984
 O 0.60121 0.90175 0.91817   -0.644932
 O 0.92422 0.59396 0.57926   -0.659122
 O 0.94025 0.9038 0.9173   -0.637204
