{'_ref': 'TBD', '_srcid': 'CAKYAQ_clean', 'submitters': [{'name': 'Dalar Nazarian Jeff Camp and David Sholl', 'email': 'dalar@gatech.edu jcamp6@gatech.edu'}], '_method': 'VASP DFT with PBE;DDEC'}
data_MgH3C8O5
_symmetry_space_group_name_H-M   'P 1'
_cell_length_a   12.30100014
_cell_length_b   12.44029947
_cell_length_c   12.44030000
_cell_angle_alpha   75.85169889
_cell_angle_beta   60.36979835
_cell_angle_gamma   60.36980042
_symmetry_Int_Tables_number   1
_chemical_formula_structural   MgH3C8O5
_chemical_formula_sum   'Mg4 H12 C32 O20'
_cell_volume   1438.38774451
_cell_formula_units_Z   4
loop_
 _symmetry_equiv_pos_site_id
 _symmetry_equiv_pos_as_xyz
  1  'x, y, z'
loop_
 _atom_site_label
 _atom_site_fract_x
 _atom_site_fract_y
 _atom_site_fract_z
 _atom_site_charge
 Mg 0.3152 0.0 0.3696   1.422787
 Mg 0.6848 0.0 0.6304   1.422782
 Mg 0.9348 0.1304 0.5   1.422787
 Mg 0.5652 0.8696 0.5   1.422782
 H 0.8592 0.9422 0.1762   0.115297
 H 0.9776 0.0578 0.8238   0.115294
 H 0.2854 0.3238 0.4422   0.115296
 H 0.0514 0.6762 0.5578   0.115296
 H 0.2724 0.6762 0.4422   0.115294
 H 0.3908 0.3238 0.5578   0.115297
 H 0.1986 0.9422 0.8238   0.115296
 H 0.9646 0.0578 0.1762   0.115296
 H 0.6361 0.0 0.0   0.117699
 H 0.8861 0.5 0.5   0.117699
 H 0.6139 0.5 0.5   0.1177
 H 0.3639 0.0 0.0   0.1177
 C 0.8441 0.9675 0.1059   -0.039547
 C 0.7274 0.972 0.1088   -0.135358
 C 0.6205 0.9479 0.2275   0.728132
 C 0.9175 0.0325 0.8941   -0.039544
 C 0.8082 0.028 0.8912   -0.135353
 C 0.7959 0.0521 0.7725   0.728123
 C 0.2 0.3941 0.4675   -0.039548
 C 0.0862 0.3912 0.472   -0.135352
 C 0.098 0.2725 0.4479   0.72813
 C 0.0616 0.6059 0.5325   -0.039544
 C 0.9494 0.6088 0.528   -0.135359
 C 0.8184 0.7275 0.5521   0.728125
 C 0.3325 0.6059 0.4675   -0.039544
 C 0.4418 0.6088 0.472   -0.135353
 C 0.4541 0.7275 0.4479   0.728124
 C 0.4059 0.3941 0.5325   -0.039548
 C 0.5226 0.3912 0.528   -0.135358
 C 0.6295 0.2725 0.5521   0.728133
 C 0.1884 0.9675 0.8941   -0.039544
 C 0.3006 0.972 0.8912   -0.135359
 C 0.4316 0.9479 0.7725   0.728125
 C 0.05 0.0325 0.1059   -0.039548
 C 0.1638 0.028 0.1088   -0.135352
 C 0.152 0.0521 0.2275   0.728131
 C 0.939 0.0 0.0   0.025558
 C 0.7117 0.0 0.0   0.044519
 C 0.189 0.5 0.5   0.025555
 C 0.9617 0.5 0.5   0.044517
 C 0.311 0.5 0.5   0.025557
 C 0.5383 0.5 0.5   0.044519
 C 0.061 0.0 0.0   0.025554
 C 0.2883 0.0 0.0   0.044516
 O 0.4991 0.9952 0.2358   -0.620344
 O 0.65746 0.88577 0.30811   -0.62419
 O 0.7301 0.0048 0.7642   -0.620321
 O 0.85134 0.11423 0.69189   -0.624193
 O 0.9849 0.2642 0.4952   -0.620331
 O 0.21557 0.19189 0.38577   -0.624187
 O 0.7443 0.7358 0.5048   -0.620327
 O 0.79323 0.80811 0.61423   -0.624192
 O 0.5199 0.7358 0.4952   -0.620321
 O 0.39866 0.80811 0.38577   -0.624193
 O 0.7509 0.2642 0.5048   -0.620344
 O 0.59254 0.19189 0.61423   -0.62419
 O 0.5057 0.9952 0.7642   -0.620327
 O 0.45677 0.88577 0.69189   -0.624192
 O 0.2651 0.0048 0.2358   -0.620332
 O 0.03443 0.11423 0.30811   -0.624187
 O 0.125 0.9946 0.5054   -0.458558
 O 0.625 0.0054 0.4946   -0.458544
 O 0.8804 0.9946 0.4946   -0.458568
 O 0.3696 0.0054 0.5054   -0.458568
