{'_ref': 'TBD', '_srcid': 'CAKYAQ_clean', 'submitters': [{'name': 'Dalar Nazarian Jeff Camp and David Sholl', 'email': 'dalar@gatech.edu jcamp6@gatech.edu'}], '_method': 'VASP DFT with PBE;DDEC'}
data_CuH4C8N3O4
_symmetry_space_group_name_H-M   'P 1'
_cell_length_a   4.70960000
_cell_length_b   11.09470008
_cell_length_c   20.04170000
_cell_angle_alpha   90.00000000
_cell_angle_beta   90.00000000
_cell_angle_gamma   96.84349905
_symmetry_Int_Tables_number   1
_chemical_formula_structural   CuH4C8N3O4
_chemical_formula_sum   'Cu4 H16 C32 N12 O16'
_cell_volume   1039.74984938
_cell_formula_units_Z   4
loop_
 _symmetry_equiv_pos_site_id
 _symmetry_equiv_pos_as_xyz
  1  'x, y, z'
loop_
 _atom_site_label
 _atom_site_fract_x
 _atom_site_fract_y
 _atom_site_fract_z
 _atom_site_charge
 Cu 0.304 0.9421 0.8395   0.788981
 Cu 0.696 0.5579 0.3395   0.788981
 Cu 0.696 0.0579 0.1605   0.788983
 Cu 0.304 0.4421 0.6605   0.788983
 H 0.26545 0.91284 0.59284   0.110561
 H 0.43823 0.00444 0.69291   0.112621
 H 0.6223 0.8269 0.95401   0.116174
 H 0.22044 0.11468 0.94134   0.082652
 H 0.73455 0.58716 0.09284   0.110561
 H 0.56177 0.49556 0.19291   0.112621
 H 0.3777 0.6731 0.45401   0.116174
 H 0.77956 0.38532 0.44134   0.082652
 H 0.73455 0.08716 0.40716   0.110556
 H 0.56177 0.99556 0.30709   0.112621
 H 0.3777 0.1731 0.04599   0.116173
 H 0.77956 0.88532 0.05866   0.082651
 H 0.26545 0.41284 0.90716   0.110555
 H 0.43823 0.50444 0.80709   0.112621
 H 0.6223 0.3269 0.54599   0.116173
 H 0.22044 0.61468 0.55866   0.082651
 C 0.054 0.773 0.75   0.031246
 C 0.96 0.714 0.691   0.136724
 C 0.21 0.868 0.629   0.144555
 C 0.309 0.923 0.689   0.076483
 C 0.999 0.722 0.822   0.59464
 C 0.758 0.598 0.688   0.627686
 C 0.56 0.905 0.969   0.110569
 C 0.347 0.069 0.968   0.088213
 C 0.946 0.727 0.25   0.031246
 C 0.04 0.786 0.191   0.136724
 C 0.79 0.632 0.129   0.144555
 C 0.691 0.577 0.189   0.076483
 C 0.000999999999998 0.778 0.322   0.59464
 C 0.242 0.902 0.188   0.627686
 C 0.44 0.595 0.469   0.110569
 C 0.653 0.431 0.468   0.088213
 C 0.946 0.227 0.25   0.031246
 C 0.04 0.286 0.309   0.136724
 C 0.79 0.132 0.371   0.144557
 C 0.691 0.077 0.311   0.076483
 C 0.000999999999998 0.278 0.178   0.59464
 C 0.242 0.402 0.312   0.627686
 C 0.44 0.095 0.031   0.11059
 C 0.653 0.931 0.032   0.088235
 C 0.054 0.273 0.75   0.031246
 C 0.96 0.214 0.809   0.136724
 C 0.21 0.368 0.871   0.144557
 C 0.309 0.423 0.811   0.076483
 C 0.999 0.222 0.678   0.59464
 C 0.758 0.098 0.812   0.627686
 C 0.56 0.405 0.531   0.11059
 C 0.347 0.569 0.532   0.088235
 N 0.237 0.879 0.752   -0.239392
 N 0.048 0.76 0.631   -0.341459
 N 0.411 0.973 0.94   -0.204661
 N 0.763 0.621 0.252   -0.239392
 N 0.952 0.74 0.131   -0.341459
 N 0.589 0.527 0.44   -0.204661
 N 0.763 0.121 0.248   -0.239392
 N 0.952 0.24 0.369   -0.34146
 N 0.589 0.027 0.06   -0.204667
 N 0.237 0.379 0.748   -0.239392
 N 0.048 0.26 0.869   -0.34146
 N 0.411 0.473 0.56   -0.204667
 O 0.113 0.771 0.873   -0.545421
 O 0.869 0.619 0.827   -0.544
 O 0.493 0.599 0.689   -0.532986
 O 0.87 0.51 0.668   -0.6132
 O 0.887 0.729 0.373   -0.545421
 O 0.131 0.881 0.327   -0.544
 O 0.507 0.901 0.189   -0.532986
 O 0.13 0.99 0.168   -0.6132
 O 0.887 0.229 0.127   -0.545421
 O 0.131 0.381 0.173   -0.544
 O 0.507 0.401 0.311   -0.532986
 O 0.13 0.49 0.332   -0.6132
 O 0.113 0.271 0.627   -0.545421
 O 0.869 0.119 0.673   -0.544
 O 0.493 0.099 0.811   -0.532986
 O 0.87 0.01 0.832   -0.6132
