{'_ref': 'TBD', '_srcid': 'CAKYAQ_clean', 'submitters': [{'name': 'Dalar Nazarian Jeff Camp and David Sholl', 'email': 'dalar@gatech.edu jcamp6@gatech.edu'}], '_method': 'VASP DFT with PBE;DDEC'}
data_FeH28C22(SN5)2
_symmetry_space_group_name_H-M   'P 1'
_cell_length_a   10.94630047
_cell_length_b   15.04630000
_cell_length_c   15.04629981
_cell_angle_alpha   114.31730109
_cell_angle_beta   104.03400124
_cell_angle_gamma   104.03419958
_symmetry_Int_Tables_number   1
_chemical_formula_structural   FeH28C22(SN5)2
_chemical_formula_sum   'Fe3 H84 C66 S6 N30'
_cell_volume   2019.93356875
_cell_formula_units_Z   3
loop_
 _symmetry_equiv_pos_site_id
 _symmetry_equiv_pos_as_xyz
  1  'x, y, z'
loop_
 _atom_site_label
 _atom_site_fract_x
 _atom_site_fract_y
 _atom_site_fract_z
 _atom_site_charge
 Fe 0.5 0.5 0.5   0.475146
 Fe 0.0 0.0 0.5   0.487265
 Fe 0.0 0.5 0.0   0.485576
 H 0.2295 0.4636 0.3411   0.241915
 H 0.4758 0.7053 0.6889   0.126027
 H 0.3469 0.7284 0.709   0.121039
 H 0.4431 0.7993 0.6783   0.12932
 H 0.031 0.4676 0.2375   0.123618
 H 0.0417 0.5859 0.2725   0.127126
 H 0.9498 0.5166 0.307   0.132058
 H 0.0268 0.763 0.7152   0.123553
 H 0.164 0.7423 0.7182   0.128644
 H 0.0191 0.6506 0.6323   0.135233
 H 0.1286 0.8534 0.3692   0.132444
 H 0.1187 0.7342 0.3249   0.112853
 H 0.2591 0.8303 0.4124   0.127906
 H 0.9916 0.8661 0.6316   0.229636
 H 0.7705 0.5364 0.6589   0.241914
 H 0.5242 0.2947 0.3111   0.126027
 H 0.6531 0.2716 0.291   0.121039
 H 0.5569 0.2007 0.3217   0.12932
 H 0.969 0.5324 0.7625   0.123618
 H 0.9583 0.4141 0.7275   0.127126
 H 0.0502 0.4834 0.693   0.132058
 H 0.9732 0.237 0.2848   0.123553
 H 0.836 0.2577 0.2818   0.128644
 H 0.9809 0.3494 0.3677   0.135233
 H 0.8714 0.1466 0.6308   0.132444
 H 0.8813 0.2658 0.6751   0.112853
 H 0.7409 0.1697 0.5876   0.127906
 H 0.0084 0.1339 0.3684   0.229636
 H 0.7659 0.8775 0.5364   0.24189
 H 0.7705 0.9836 0.2947   0.126282
 H 0.6185 0.9806 0.2716   0.121712
 H 0.6438 0.879 0.2007   0.128596
 H 0.5634 0.7699 0.5324   0.12329
 H 0.4558 0.6866 0.4141   0.127443
 H 0.4332 0.7904 0.4834   0.131859
 H 0.2638 0.9522 0.237   0.123881
 H 0.4217 0.9759 0.2577   0.128186
 H 0.3685 0.9817 0.3494   0.134835
 H 0.2752 0.5158 0.1466   0.132029
 H 0.3845 0.5907 0.2658   0.112952
 H 0.4288 0.5821 0.1697   0.128227
 H 0.1255 0.7655 0.1339   0.229329
 H 0.2341 0.1225 0.4636   0.24189
 H 0.2295 0.0164 0.7053   0.126282
 H 0.3815 0.0194 0.7284   0.121712
 H 0.3562 0.121 0.7993   0.128596
 H 0.4366 0.2301 0.4676   0.12329
 H 0.5442 0.3134 0.5859   0.127443
 H 0.5668 0.2096 0.5166   0.131859
 H 0.7362 0.0478 0.763   0.123881
 H 0.5783 0.0241 0.7423   0.128186
 H 0.6315 0.0183 0.6506   0.134835
 H 0.7248 0.4842 0.8534   0.132029
 H 0.6155 0.4093 0.7342   0.112952
 H 0.5712 0.4179 0.8303   0.128227
 H 0.8745 0.2345 0.8661   0.229329
 H 0.8884 0.6589 0.1225   0.24227
 H 0.7869 0.3111 0.0164   0.126143
 H 0.6379 0.291 0.0194   0.120802
 H 0.7648 0.3217 0.121   0.128737
 H 0.7935 0.7625 0.2301   0.124284
 H 0.7692 0.7275 0.3134   0.126462
 H 0.6428 0.693 0.2096   0.131846
 H 0.3116 0.2848 0.0478   0.123655
 H 0.4458 0.2818 0.0241   0.128267
 H 0.3868 0.3677 0.0183   0.134544
 H 0.7594 0.6308 0.4842   0.13252
 H 0.7938 0.6751 0.4093   0.112469
 H 0.8467 0.5876 0.4179   0.127276
 H 0.36 0.3684 0.2345   0.228868
 H 0.1116 0.3411 0.8775   0.24227
 H 0.2131 0.6889 0.9836   0.126143
 H 0.3621 0.709 0.9806   0.120802
 H 0.2352 0.6783 0.879   0.128737
 H 0.2065 0.2375 0.7699   0.124284
 H 0.2308 0.2725 0.6866   0.126462
 H 0.3572 0.307 0.7904   0.131846
 H 0.6884 0.7152 0.9522   0.123655
 H 0.5542 0.7182 0.9759   0.128267
 H 0.6132 0.6323 0.9817   0.134543
 H 0.2406 0.3692 0.5158   0.13252
 H 0.2062 0.3249 0.5907   0.112469
 H 0.1533 0.4124 0.5821   0.127276
 H 0.64 0.6316 0.7655   0.228868
 C 0.27501 0.26169 0.34864   0.293526
 C 0.31539 0.65321 0.55226   0.22509
 C 0.19975 0.65925 0.4915   -0.180685
 C 0.1528 0.57198 0.39172   0.185575
 C 0.40274 0.72797 0.66695   -0.36768
 C 0.03371 0.53214 0.29389   -0.377178
 C 0.08337 0.76601 0.5969   0.17714
 C 0.13992 0.73982 0.52154   -0.186612
 C 0.11615 0.80026 0.47259   0.237661
 C 0.07236 0.72715 0.67203   -0.364397
 C 0.15934 0.80495 0.38747   -0.386422
 C 0.72499 0.73831 0.65136   0.293526
 C 0.68461 0.34679 0.44774   0.22509
 C 0.80025 0.34075 0.5085   -0.180685
 C 0.8472 0.42802 0.60828   0.185575
 C 0.59726 0.27203 0.33305   -0.36768
 C 0.96629 0.46786 0.70611   -0.377178
 C 0.91663 0.23399 0.4031   0.17714
 C 0.86008 0.26018 0.47846   -0.186612
 C 0.88385 0.19974 0.52741   0.237661
 C 0.92764 0.27285 0.32797   -0.364397
 C 0.84066 0.19505 0.61253   -0.386422
 C 0.01332 0.08695 0.73831   0.295292
 C 0.66218 0.89905 0.34679   0.22599
 C 0.5405 0.83225 0.34075   -0.181194
 C 0.58082 0.81974 0.42802   0.18646
 C 0.67477 0.93898 0.27203   -0.36723
 C 0.50157 0.76175 0.46786   -0.377102
 C 0.31736 0.83089 0.23399   0.175941
 C 0.4001 0.78172 0.26018   -0.185834
 C 0.31589 0.67233 0.19974   0.236419
 C 0.34521 0.94488 0.27285   -0.364226
 C 0.35439 0.58252 0.19505   -0.385693
 C 0.98668 0.91305 0.26169   0.295292
 C 0.33782 0.10095 0.65321   0.22599
 C 0.4595 0.16775 0.65925   -0.181194
 C 0.41918 0.18026 0.57198   0.18646
 C 0.32523 0.06102 0.72797   -0.36723
 C 0.49843 0.23825 0.53214   -0.377102
 C 0.68264 0.16911 0.76601   0.175941
 C 0.5999 0.21828 0.73982   -0.185834
 C 0.68411 0.32767 0.80026   0.236419
 C 0.65479 0.05512 0.72715   -0.364226
 C 0.64561 0.41748 0.80495   -0.385693
 C 0.92637 0.65136 0.91305   0.295747
 C 0.76313 0.44774 0.10095   0.225695
 C 0.70825 0.5085 0.16775   -0.178479
 C 0.76108 0.60828 0.18026   0.185182
 C 0.73579 0.33305 0.06102   -0.366696
 C 0.73982 0.70611 0.23825   -0.377284
 C 0.48647 0.4031 0.16911   0.176693
 C 0.61838 0.47846 0.21828   -0.189073
 C 0.64356 0.52741 0.32767   0.234836
 C 0.40033 0.32797 0.05512   -0.36394
 C 0.77187 0.61253 0.41748   -0.385093
 C 0.07363 0.34864 0.08695   0.295747
 C 0.23687 0.55226 0.89905   0.225695
 C 0.29175 0.4915 0.83225   -0.178479
 C 0.23892 0.39172 0.81974   0.185181
 C 0.26421 0.66695 0.93898   -0.366696
 C 0.26018 0.29389 0.76175   -0.377283
 C 0.51353 0.5969 0.83089   0.176693
 C 0.38162 0.52154 0.78172   -0.189073
 C 0.35644 0.47259 0.67233   0.234836
 C 0.59967 0.67203 0.94488   -0.36394
 C 0.22813 0.38747 0.58252   -0.385093
 S 0.182 0.13495 0.28038   -0.364087
 S 0.818 0.86505 0.71962   -0.364087
 S 0.04705 0.14543 0.86505   -0.367072
 S 0.95295 0.85457 0.13495   -0.367072
 S 0.90162 0.71962 0.85457   -0.367863
 S 0.09838 0.28038 0.14543   -0.367863
 N 0.34346 0.35187 0.39652   -0.44985
 N 0.33886 0.569 0.49328   -0.224465
 N 0.23805 0.52132 0.39567   -0.104112
 N 0.04883 0.85924 0.51429   -0.260653
 N 0.032 0.837 0.5905   -0.08032
 N 0.65654 0.64813 0.60348   -0.44985
 N 0.66114 0.431 0.50672   -0.224465
 N 0.76195 0.47868 0.60433   -0.104112
 N 0.95117 0.14076 0.48571   -0.260653
 N 0.968 0.163 0.4095   -0.08032
 N 0.99159 0.04465 0.64813   -0.454376
 N 0.76986 0.92428 0.431   -0.225485
 N 0.71673 0.87435 0.47868   -0.104641
 N 0.18959 0.65505 0.14076   -0.25949
 N 0.195 0.7535 0.163   -0.079609
 N 0.00841 0.95535 0.35187   -0.454376
 N 0.23014 0.07572 0.569   -0.225485
 N 0.28327 0.12565 0.52132   -0.104641
 N 0.81041 0.34495 0.85924   -0.25949
 N 0.805 0.2465 0.837   -0.079609
 N 0.94694 0.60348 0.95535   -0.454594
 N 0.84558 0.50672 0.07572   -0.225258
 N 0.84238 0.60433 0.12565   -0.105169
 N 0.53454 0.48571 0.34495   -0.259195
 N 0.4415 0.4095 0.2465   -0.080208
 N 0.05306 0.39652 0.04465   -0.454594
 N 0.15442 0.49328 0.92428   -0.225258
 N 0.15762 0.39567 0.87435   -0.105169
 N 0.46546 0.51429 0.65505   -0.259195
 N 0.5585 0.5905 0.7535   -0.080208
