{'_ref': 'TBD', '_srcid': 'CAKYAQ_clean', 'submitters': [{'name': 'Dalar Nazarian Jeff Camp and David Sholl', 'email': 'dalar@gatech.edu jcamp6@gatech.edu'}], '_method': 'VASP DFT with PBE;DDEC'}
data_FeH28C22(SN5)2
_symmetry_space_group_name_H-M   'P 1'
_cell_length_a   10.96200054
_cell_length_b   15.04744559
_cell_length_c   15.04750030
_cell_angle_alpha   114.30209153
_cell_angle_beta   104.05399729
_cell_angle_gamma   104.05342212
_symmetry_Int_Tables_number   1
_chemical_formula_structural   FeH28C22(SN5)2
_chemical_formula_sum   'Fe3 H84 C66 S6 N30'
_cell_volume   2022.80007208
_cell_formula_units_Z   3
loop_
 _symmetry_equiv_pos_site_id
 _symmetry_equiv_pos_as_xyz
  1  'x, y, z'
loop_
 _atom_site_label
 _atom_site_fract_x
 _atom_site_fract_y
 _atom_site_fract_z
 _atom_site_charge
 Fe 0.0 0.5 0.0   0.441152
 Fe 0.0 0.0 0.5   0.420595
 Fe 0.5 0.5 0.5   0.428873
 H 0.7674 0.5363 0.877   0.242038
 H 0.7693 0.2939 0.9832   0.126536
 H 0.6175 0.2718 0.9801   0.120916
 H 0.6424 0.2004 0.8784   0.129038
 H 0.5643 0.5329 0.7697   0.1249
 H 0.4569 0.4143 0.6864   0.126735
 H 0.4342 0.4837 0.7901   0.131619
 H 0.267 0.2391 0.9537   0.124073
 H 0.4245 0.2595 0.9762   0.127969
 H 0.3713 0.3509 0.9817   0.133549
 H 0.2756 0.1463 0.5152   0.133127
 H 0.3851 0.2654 0.5902   0.112994
 H 0.4287 0.169 0.5819   0.128002
 H 0.1262 0.135 0.7668   0.232186
 H 0.2326 0.4637 0.123   0.242038
 H 0.2307 0.7061 0.0168   0.126536
 H 0.3825 0.7282 0.0199   0.120917
 H 0.3576 0.7996 0.1216   0.129038
 H 0.4357 0.4671 0.2303   0.124901
 H 0.5431 0.5857 0.3136   0.126736
 H 0.5658 0.5163 0.2099   0.131628
 H 0.733 0.7609 0.0463   0.124073
 H 0.5755 0.7405 0.0238   0.127971
 H 0.6287 0.6491 0.0183   0.133557
 H 0.7244 0.8537 0.4848   0.133127
 H 0.6149 0.7346 0.4098   0.112994
 H 0.5713 0.831 0.4181   0.128002
 H 0.8738 0.865 0.2332   0.232187
 H 0.8904 0.123 0.6593   0.243762
 H 0.7861 0.0168 0.3107   0.125704
 H 0.6374 0.0199 0.2917   0.119626
 H 0.764 0.1216 0.322   0.128664
 H 0.7946 0.2303 0.7632   0.124806
 H 0.7705 0.3136 0.7279   0.127261
 H 0.6441 0.2099 0.6936   0.13168
 H 0.3133 0.0463 0.2854   0.123809
 H 0.4483 0.0238 0.2833   0.128804
 H 0.3896 0.0183 0.3692   0.134156
 H 0.7604 0.4848 0.6311   0.133907
 H 0.7949 0.4098 0.6752   0.113629
 H 0.8468 0.4181 0.5871   0.128964
 H 0.3594 0.2332 0.3682   0.232292
 H 0.1096 0.877 0.3407   0.243762
 H 0.2139 0.9832 0.6893   0.125704
 H 0.3626 0.9801 0.7083   0.119626
 H 0.236 0.8784 0.678   0.128665
 H 0.2054 0.7697 0.2368   0.124806
 H 0.2295 0.6864 0.2721   0.127262
 H 0.3559 0.7901 0.3064   0.131687
 H 0.6867 0.9537 0.7146   0.123809
 H 0.5517 0.9762 0.7167   0.128805
 H 0.6104 0.9817 0.6308   0.134153
 H 0.2396 0.5152 0.3689   0.133907
 H 0.2051 0.5902 0.3248   0.113629
 H 0.1532 0.5819 0.4129   0.128964
 H 0.6406 0.7668 0.6318   0.232292
 H 0.2311 0.3407 0.4637   0.242608
 H 0.4754 0.6893 0.7061   0.126197
 H 0.3457 0.7083 0.7282   0.120549
 H 0.442 0.678 0.7996   0.129345
 H 0.0314 0.2368 0.4671   0.124771
 H 0.0426 0.2721 0.5857   0.126287
 H 0.9505 0.3064 0.5163   0.131403
 H 0.0279 0.7146 0.7609   0.124415
 H 0.165 0.7167 0.7405   0.127946
 H 0.0204 0.6308 0.6491   0.133774
 H 0.1293 0.3689 0.8537   0.132248
 H 0.1197 0.3248 0.7346   0.112622
 H 0.2597 0.4129 0.831   0.127694
 H 0.9912 0.6318 0.865   0.231527
 H 0.7689 0.6593 0.5363   0.242608
 H 0.5246 0.3107 0.2939   0.126197
 H 0.6543 0.2917 0.2718   0.120549
 H 0.558 0.322 0.2004   0.129345
 H 0.9686 0.7632 0.5329   0.124771
 H 0.9574 0.7279 0.4143   0.126287
 H 0.0495 0.6936 0.4837   0.131408
 H 0.9721 0.2854 0.2391   0.124414
 H 0.835 0.2833 0.2595   0.127946
 H 0.9796 0.3692 0.3509   0.133774
 H 0.8707 0.6311 0.1463   0.132248
 H 0.8803 0.6752 0.2654   0.112622
 H 0.7403 0.5871 0.169   0.127694
 H 0.0088 0.3682 0.135   0.231527
 C 0.01264 0.73928 0.08574   0.291243
 C 0.66276 0.34689 0.89889   0.21888
 C 0.54126 0.34122 0.83166   -0.177839
 C 0.58183 0.42859 0.8198   0.183326
 C 0.6739 0.27165 0.93855   -0.36613
 C 0.5026 0.4681 0.7616   -0.378336
 C 0.31813 0.23426 0.83053   0.18035
 C 0.40086 0.26048 0.7819   -0.188174
 C 0.31548 0.1996 0.67184   0.23535
 C 0.3478 0.27435 0.94545   -0.362896
 C 0.3546 0.19462 0.58208   -0.384831
 C 0.98736 0.26072 0.91426   0.291243
 C 0.33724 0.65311 0.10111   0.21888
 C 0.45874 0.65878 0.16834   -0.177839
 C 0.41817 0.57141 0.1802   0.183327
 C 0.3261 0.72835 0.06145   -0.366131
 C 0.4974 0.5319 0.2384   -0.37834
 C 0.68187 0.76574 0.16947   0.180351
 C 0.59914 0.73952 0.2181   -0.188174
 C 0.68452 0.8004 0.32816   0.23535
 C 0.6522 0.72565 0.05455   -0.3629
 C 0.6454 0.80538 0.41792   -0.384831
 C 0.9269 0.91426 0.65354   0.290766
 C 0.76387 0.10111 0.448   0.21679
 C 0.7096 0.16834 0.50956   -0.176039
 C 0.76203 0.1802 0.60879   0.182632
 C 0.73535 0.06145 0.3331   -0.362595
 C 0.741 0.2384 0.7065   -0.378987
 C 0.4876 0.16947 0.40373   0.182085
 C 0.61896 0.2181 0.47858   -0.189688
 C 0.64364 0.32816 0.52776   0.237354
 C 0.40235 0.05455 0.3289   -0.364018
 C 0.77252 0.41792 0.61254   -0.386853
 C 0.0731 0.08574 0.34646   0.290765
 C 0.23613 0.89889 0.552   0.21679
 C 0.2904 0.83166 0.49044   -0.17604
 C 0.23797 0.8198 0.39121   0.182632
 C 0.26465 0.93855 0.6669   -0.362597
 C 0.259 0.7616 0.2935   -0.378989
 C 0.5124 0.83053 0.59627   0.182085
 C 0.38104 0.7819 0.52142   -0.189688
 C 0.35636 0.67184 0.47224   0.237354
 C 0.59765 0.94545 0.6711   -0.364018
 C 0.22748 0.58208 0.38746   -0.386853
 C 0.27336 0.34646 0.26072   0.290525
 C 0.31587 0.552 0.65311   0.216743
 C 0.20004 0.49044 0.65878   -0.174864
 C 0.15324 0.39121 0.57141   0.181516
 C 0.40225 0.6669 0.72835   -0.365666
 C 0.0345 0.2935 0.5319   -0.377047
 C 0.08387 0.59627 0.76574   0.181435
 C 0.14038 0.52142 0.73952   -0.192581
 C 0.11588 0.47224 0.8004   0.237441
 C 0.07345 0.6711 0.72565   -0.364153
 C 0.15998 0.38746 0.80538   -0.384628
 C 0.72664 0.65354 0.73928   0.290525
 C 0.68413 0.448 0.34689   0.216743
 C 0.79996 0.50956 0.34122   -0.174864
 C 0.84676 0.60879 0.42859   0.181516
 C 0.59775 0.3331 0.27165   -0.365666
 C 0.9655 0.7065 0.4681   -0.377049
 C 0.91613 0.40373 0.23426   0.181435
 C 0.85962 0.47858 0.26048   -0.192581
 C 0.88412 0.52776 0.1996   0.237441
 C 0.92655 0.3289 0.27435   -0.364153
 C 0.84002 0.61254 0.19462   -0.384628
 S 0.04545 0.86573 0.14361   -0.362334
 S 0.95455 0.13427 0.85639   -0.362334
 S 0.90184 0.85639 0.72212   -0.369997
 S 0.09816 0.14361 0.27788   -0.369997
 S 0.17972 0.27788 0.13427   -0.36644
 S 0.82028 0.72212 0.86573   -0.36644
 N 0.99182 0.64935 0.04481   -0.445177
 N 0.77092 0.43144 0.92402   -0.214809
 N 0.718 0.4788 0.8742   -0.101653
 N 0.19011 0.14047 0.65486   -0.239759
 N 0.19553 0.16353 0.75426   -0.088786
 N 0.00818 0.35065 0.95519   -0.445177
 N 0.22908 0.56856 0.07598   -0.214809
 N 0.282 0.5212 0.1258   -0.101653
 N 0.80989 0.85953 0.34514   -0.239759
 N 0.80447 0.83647 0.24574   -0.088786
 N 0.94701 0.95519 0.60454   -0.445832
 N 0.8469 0.07598 0.50742   -0.210112
 N 0.8438 0.1258 0.6046   -0.104971
 N 0.53525 0.34514 0.48561   -0.24207
 N 0.44127 0.24574 0.40927   -0.088264
 N 0.05299 0.04481 0.39546   -0.445832
 N 0.1531 0.92402 0.49258   -0.210113
 N 0.1562 0.8742 0.3954   -0.104971
 N 0.46475 0.65486 0.51439   -0.24207
 N 0.55873 0.75426 0.59073   -0.088264
 N 0.34247 0.39546 0.35065   -0.443479
 N 0.33948 0.49258 0.56856   -0.212732
 N 0.2392 0.3954 0.5212   -0.102937
 N 0.04964 0.51439 0.85953   -0.250811
 N 0.032 0.59073 0.83647   -0.088398
 N 0.65753 0.60454 0.64935   -0.443481
 N 0.66052 0.50742 0.43144   -0.212734
 N 0.7608 0.6046 0.4788   -0.102936
 N 0.95036 0.48561 0.14047   -0.250811
 N 0.968 0.40927 0.16353   -0.088398
