{'_ref': 'TBD', '_srcid': 'CAKYAQ_clean', 'submitters': [{'name': 'Dalar Nazarian Jeff Camp and David Sholl', 'email': 'dalar@gatech.edu jcamp6@gatech.edu'}], '_method': 'VASP DFT with PBE;DDEC'}
data_FeH26C22(SN5)2
_symmetry_space_group_name_H-M   'P 1'
_cell_length_a   11.02150033
_cell_length_b   15.14860000
_cell_length_c   15.14859982
_cell_angle_alpha   114.31649975
_cell_angle_beta   104.03500121
_cell_angle_gamma   104.03529784
_symmetry_Int_Tables_number   1
_chemical_formula_structural   FeH26C22(SN5)2
_chemical_formula_sum   'Fe3 H78 C66 S6 N30'
_cell_volume   2061.54098007
_cell_formula_units_Z   3
loop_
 _symmetry_equiv_pos_site_id
 _symmetry_equiv_pos_as_xyz
  1  'x, y, z'
loop_
 _atom_site_label
 _atom_site_fract_x
 _atom_site_fract_y
 _atom_site_fract_z
 _atom_site_charge
 Fe 0.5 0.5 0.5   0.954306
 Fe 0.0 0.0 0.5   0.95533
 Fe 0.0 0.5 0.0   0.956354
 H 0.477 0.7082 0.6872   0.122006
 H 0.3521 0.7314 0.7072   0.124364
 H 0.4452 0.7994 0.6761   0.130761
 H 0.0345 0.4713 0.2416   0.121987
 H 0.0449 0.5865 0.2758   0.122886
 H 0.9556 0.519 0.3094   0.118517
 H 0.0266 0.7583 0.7112   0.120608
 H 0.1597 0.7376 0.7139   0.127902
 H 0.0186 0.6495 0.6295   0.147227
 H 0.1354 0.855 0.3754   0.134083
 H 0.1279 0.7395 0.3313   0.126815
 H 0.2627 0.8336 0.419   0.130524
 H 0.9909 0.8606 0.6281   0.231539
 H 0.523 0.2918 0.3128   0.122006
 H 0.6479 0.2686 0.2928   0.124364
 H 0.5548 0.2006 0.3239   0.130761
 H 0.9655 0.5287 0.7584   0.121987
 H 0.9551 0.4135 0.7242   0.122886
 H 0.0444 0.481 0.6906   0.118517
 H 0.9734 0.2417 0.2888   0.120608
 H 0.8403 0.2624 0.2861   0.127902
 H 0.9814 0.3505 0.3705   0.147226
 H 0.8646 0.145 0.6246   0.134083
 H 0.8721 0.2605 0.6687   0.126815
 H 0.7373 0.1664 0.581   0.130524
 H 0.0091 0.1394 0.3719   0.231539
 H 0.7688 0.979 0.2918   0.12157
 H 0.6207 0.9758 0.2686   0.122281
 H 0.6458 0.8767 0.2006   0.13115
 H 0.5632 0.7703 0.5287   0.12315
 H 0.4584 0.6893 0.4135   0.122855
 H 0.4366 0.7904 0.481   0.119285
 H 0.2683 0.9529 0.2417   0.119159
 H 0.4221 0.9763 0.2624   0.126867
 H 0.3691 0.98 0.3505   0.146192
 H 0.2804 0.5204 0.145   0.135474
 H 0.3884 0.5918 0.2605   0.125441
 H 0.4291 0.5854 0.1664   0.130107
 H 0.1303 0.7675 0.1394   0.231507
 H 0.2312 0.021 0.7082   0.12157
 H 0.3793 0.0242 0.7314   0.122281
 H 0.3542 0.1233 0.7994   0.13115
 H 0.4368 0.2297 0.4713   0.123149
 H 0.5416 0.3107 0.5865   0.122854
 H 0.5634 0.2096 0.519   0.119284
 H 0.7317 0.0471 0.7583   0.119159
 H 0.5779 0.0237 0.7376   0.126867
 H 0.6309 0.02 0.6495   0.146191
 H 0.7196 0.4796 0.855   0.135474
 H 0.6116 0.4082 0.7395   0.125441
 H 0.5709 0.4146 0.8336   0.130107
 H 0.8697 0.2325 0.8606   0.231507
 H 0.7898 0.3128 0.021   0.121566
 H 0.6449 0.2928 0.0242   0.123512
 H 0.7691 0.3239 0.1233   0.130792
 H 0.7929 0.7584 0.2297   0.122955
 H 0.7691 0.7242 0.3107   0.12304
 H 0.6462 0.6906 0.2096   0.119012
 H 0.3154 0.2888 0.0471   0.118447
 H 0.4458 0.2861 0.0237   0.125888
 H 0.3891 0.3705 0.02   0.146165
 H 0.76 0.6246 0.4796   0.13499
 H 0.7966 0.6687 0.4082   0.126464
 H 0.8437 0.581 0.4146   0.128342
 H 0.3628 0.3719 0.2325   0.234467
 H 0.2102 0.6872 0.979   0.121566
 H 0.3551 0.7072 0.9758   0.123512
 H 0.2309 0.6761 0.8767   0.130792
 H 0.2071 0.2416 0.7703   0.122955
 H 0.2309 0.2758 0.6893   0.123039
 H 0.3538 0.3094 0.7904   0.119011
 H 0.6846 0.7112 0.9529   0.118447
 H 0.5542 0.7139 0.9763   0.125888
 H 0.6109 0.6295 0.98   0.146164
 H 0.24 0.3754 0.5204   0.13499
 H 0.2034 0.3313 0.5918   0.126464
 H 0.1563 0.419 0.5854   0.128342
 H 0.6372 0.6281 0.7675   0.234467
 C 0.27609 0.26404 0.34923   0.32911
 C 0.31858 0.65545 0.55269   0.257485
 C 0.20202 0.66014 0.49232   -0.156913
 C 0.15574 0.57384 0.39388   0.230395
 C 0.4059 0.7302 0.6658   -0.389107
 C 0.0372 0.5342 0.2966   -0.370509
 C 0.0836 0.7641 0.5956   0.178697
 C 0.14155 0.7397 0.52265   -0.178819
 C 0.1194 0.80031 0.47509   0.267611
 C 0.071 0.7237 0.669   -0.361564
 C 0.1654 0.8078 0.3929   -0.39049
 C 0.72391 0.73596 0.65077   0.32911
 C 0.68142 0.34455 0.44731   0.257485
 C 0.79798 0.33986 0.50768   -0.156913
 C 0.84426 0.42616 0.60612   0.230395
 C 0.5941 0.2698 0.3342   -0.389107
 C 0.9628 0.4658 0.7034   -0.370508
 C 0.9164 0.2359 0.4044   0.178697
 C 0.85845 0.2603 0.47735   -0.178819
 C 0.8806 0.19969 0.52491   0.267611
 C 0.929 0.2763 0.331   -0.361564
 C 0.8346 0.1922 0.6071   -0.39049
 C 0.01205 0.08519 0.73596   0.32868
 C 0.66313 0.89724 0.34455   0.256977
 C 0.54188 0.83218 0.33986   -0.154905
 C 0.5819 0.82004 0.42616   0.230352
 C 0.6757 0.9356 0.2698   -0.386142
 C 0.503 0.7624 0.4658   -0.371921
 C 0.3195 0.8315 0.2359   0.176717
 C 0.40185 0.78295 0.2603   -0.179613
 C 0.31909 0.67478 0.19969   0.26342
 C 0.3473 0.9453 0.2763   -0.357646
 C 0.3576 0.5851 0.1922   -0.388517
 C 0.98795 0.91481 0.26404   0.32868
 C 0.33687 0.10276 0.65545   0.256977
 C 0.45812 0.16782 0.66014   -0.154904
 C 0.4181 0.17996 0.57384   0.230352
 C 0.3243 0.0644 0.7302   -0.386142
 C 0.497 0.2376 0.5342   -0.371921
 C 0.6805 0.1685 0.7641   0.176717
 C 0.59815 0.21705 0.7397   -0.179613
 C 0.68091 0.32522 0.80031   0.26342
 C 0.6527 0.0547 0.7237   -0.357646
 C 0.6424 0.4149 0.8078   -0.388517
 C 0.92686 0.65077 0.91481   0.328579
 C 0.76589 0.44731 0.10276   0.260758
 C 0.7097 0.50768 0.16782   -0.158195
 C 0.76186 0.60612 0.17996   0.23231
 C 0.7401 0.3342 0.0644   -0.388279
 C 0.7406 0.7034 0.2376   -0.372463
 C 0.488 0.4044 0.1685   0.175804
 C 0.6189 0.47735 0.21705   -0.17561
 C 0.64431 0.52491 0.32522   0.26281
 C 0.402 0.331 0.0547   -0.355262
 C 0.7725 0.6071 0.4149   -0.387132
 C 0.07314 0.34923 0.08519   0.328579
 C 0.23411 0.55269 0.89724   0.260758
 C 0.2903 0.49232 0.83218   -0.158195
 C 0.23814 0.39388 0.82004   0.23231
 C 0.2599 0.6658 0.9356   -0.388279
 C 0.2594 0.2966 0.7624   -0.372462
 C 0.512 0.5956 0.8315   0.175804
 C 0.3811 0.52265 0.78295   -0.17561
 C 0.35569 0.47509 0.67478   0.26281
 C 0.598 0.669 0.9453   -0.355262
 C 0.2275 0.3929 0.5851   -0.387132
 S 0.18452 0.13937 0.2828   -0.253058
 S 0.81548 0.86063 0.7172   -0.253058
 S 0.04515 0.14343 0.86063   -0.252125
 S 0.95485 0.85657 0.13937   -0.252125
 S 0.90172 0.7172 0.85657   -0.253935
 S 0.09828 0.2828 0.14343   -0.253936
 N 0.34325 0.35341 0.39624   -0.477233
 N 0.34162 0.5718 0.49396   -0.258854
 N 0.24124 0.52385 0.39797   -0.28171
 N 0.05055 0.85782 0.51523   -0.332314
 N 0.03197 0.83374 0.58917   -0.049021
 N 0.65675 0.64659 0.60376   -0.477233
 N 0.65838 0.4282 0.50604   -0.258854
 N 0.75876 0.47615 0.60203   -0.28171
 N 0.94945 0.14218 0.48477   -0.332314
 N 0.96803 0.16626 0.41083   -0.049021
 N 0.98984 0.04283 0.64659   -0.477736
 N 0.76982 0.92216 0.4282   -0.259194
 N 0.71739 0.87412 0.47615   -0.282779
 N 0.19273 0.65741 0.14218   -0.330144
 N 0.19823 0.75543 0.16626   -0.047022
 N 0.01016 0.95717 0.35341   -0.477737
 N 0.23018 0.07784 0.5718   -0.259194
 N 0.28261 0.12588 0.52385   -0.282779
 N 0.80727 0.34259 0.85782   -0.330144
 N 0.80177 0.24457 0.83374   -0.047022
 N 0.94701 0.60376 0.95717   -0.4781
 N 0.84766 0.50604 0.07784   -0.260699
 N 0.84327 0.60203 0.12588   -0.283305
 N 0.53532 0.48477 0.34259   -0.329078
 N 0.4428 0.41083 0.24457   -0.053198
 N 0.05299 0.39624 0.04283   -0.4781
 N 0.15234 0.49396 0.92216   -0.260699
 N 0.15673 0.39797 0.87412   -0.283305
 N 0.46468 0.51523 0.65741   -0.329078
 N 0.5572 0.58917 0.75543   -0.053198
