{'_ref': 'TBD', '_srcid': 'CAKYAQ_clean', 'submitters': [{'name': 'Dalar Nazarian Jeff Camp and David Sholl', 'email': 'dalar@gatech.edu jcamp6@gatech.edu'}], '_method': 'VASP DFT with PBE;DDEC'}
data_ZnH8C14N2O5
_symmetry_space_group_name_H-M   'P 1'
_cell_length_a   13.74900000
_cell_length_b   13.99000030
_cell_length_c   14.07300000
_cell_angle_alpha   110.53799903
_cell_angle_beta   90.00000000
_cell_angle_gamma   90.00000000
_symmetry_Int_Tables_number   1
_chemical_formula_structural   ZnH8C14N2O5
_chemical_formula_sum   'Zn4 H32 C56 N8 O20'
_cell_volume   2534.86801252
_cell_formula_units_Z   4
loop_
 _symmetry_equiv_pos_site_id
 _symmetry_equiv_pos_as_xyz
  1  'x, y, z'
loop_
 _atom_site_label
 _atom_site_fract_x
 _atom_site_fract_y
 _atom_site_fract_z
 _atom_site_charge
 Zn 0.0583 0.90492 0.95727   0.9278
 Zn 0.5583 0.09508 0.54273   0.9278
 Zn 0.9417 0.09508 0.04273   0.9278
 Zn 0.4417 0.90492 0.45727   0.9278
 H 0.8946 0.6022 0.1666   0.301914
 H 0.9164 0.7445 0.1193   0.116013
 H 0.7675 0.0039 0.2685   0.115439
 H 0.7006 0.7401 0.3146   0.124133
 H 0.0212 0.3067 0.1166   0.103448
 H 0.9697 0.4742 0.1773   0.129846
 H 0.6918 0.3738 0.1593   0.136077
 H 0.7497 0.207 0.0962   0.111372
 H 0.3946 0.3978 0.3334   0.301914
 H 0.4164 0.2555 0.3807   0.116012
 H 0.2675 0.9961 0.2315   0.115439
 H 0.2006 0.2599 0.1854   0.124132
 H 0.5212 0.6933 0.3834   0.103448
 H 0.4697 0.5258 0.3227   0.129846
 H 0.1918 0.6262 0.3407   0.136077
 H 0.2497 0.793 0.4038   0.111372
 H 0.1054 0.3978 0.8334   0.301914
 H 0.0836 0.2555 0.8807   0.116012
 H 0.2325 0.9961 0.7315   0.11544
 H 0.2994 0.2599 0.6854   0.124133
 H 0.9788 0.6933 0.8834   0.103448
 H 0.0303 0.5258 0.8227   0.129846
 H 0.3082 0.6262 0.8407   0.136077
 H 0.2503 0.793 0.9038   0.111372
 H 0.6054 0.6022 0.6666   0.301914
 H 0.5836 0.7445 0.6193   0.116012
 H 0.7325 0.0039 0.7685   0.11544
 H 0.7994 0.7401 0.8146   0.124132
 H 0.4788 0.3067 0.6166   0.103448
 H 0.5303 0.4742 0.6773   0.129846
 H 0.8082 0.3738 0.6593   0.136077
 H 0.7503 0.207 0.5962   0.111372
 C 0.8133 0.7266 0.2152   0.206759
 C 0.8669 0.779 0.1657   -0.168086
 C 0.8488 0.882 0.1835   -0.086954
 C 0.7779 0.933 0.2533   -0.050258
 C 0.722 0.8796 0.3009   -0.080538
 C 0.739 0.7762 0.2822   -0.146643
 C 0.7818 0.5492 0.2112   0.512975
 C 0.9535 0.3205 0.1251   0.170907
 C 0.9234 0.4205 0.1613   -0.18673
 C 0.825 0.4424 0.1744   -0.006631
 C 0.7597 0.3613 0.1504   -0.154218
 C 0.7947 0.262 0.1133   0.149882
 C 0.9055 0.9357 0.1242   0.677872
 C 0.643 0.9333 0.3751   0.685638
 C 0.3133 0.2734 0.2848   0.206759
 C 0.3669 0.221 0.3343   -0.168086
 C 0.3488 0.118 0.3165   -0.086954
 C 0.2779 0.067 0.2467   -0.050258
 C 0.222 0.1204 0.1991   -0.080538
 C 0.239 0.2238 0.2178   -0.146642
 C 0.2818 0.4508 0.2888   0.512976
 C 0.4535 0.6795 0.3749   0.170908
 C 0.4234 0.5795 0.3387   -0.18673
 C 0.325 0.5576 0.3256   -0.006631
 C 0.2597 0.6387 0.3496   -0.154217
 C 0.2947 0.738 0.3867   0.149882
 C 0.4055 0.0643 0.3758   0.677872
 C 0.143 0.0667 0.1249   0.685638
 C 0.1867 0.2734 0.7848   0.206759
 C 0.1331 0.221 0.8343   -0.168086
 C 0.1512 0.118 0.8165   -0.086954
 C 0.2221 0.067 0.7467   -0.050259
 C 0.278 0.1204 0.6991   -0.080538
 C 0.261 0.2238 0.7178   -0.146643
 C 0.2182 0.4508 0.7888   0.512977
 C 0.0465 0.6795 0.8749   0.170907
 C 0.0766 0.5795 0.8387   -0.18673
 C 0.175 0.5576 0.8256   -0.006631
 C 0.2403 0.6387 0.8496   -0.154217
 C 0.2053 0.738 0.8867   0.149883
 C 0.0945 0.0643 0.8758   0.677872
 C 0.357 0.0667 0.6249   0.685638
 C 0.6867 0.7266 0.7152   0.206759
 C 0.6331 0.779 0.6657   -0.168086
 C 0.6512 0.882 0.6835   -0.086954
 C 0.7221 0.933 0.7533   -0.050259
 C 0.778 0.8796 0.8009   -0.080538
 C 0.761 0.7762 0.7822   -0.146642
 C 0.7182 0.5492 0.7112   0.512977
 C 0.5465 0.3205 0.6251   0.170908
 C 0.5766 0.4205 0.6613   -0.186729
 C 0.675 0.4424 0.6744   -0.006631
 C 0.7403 0.3613 0.6504   -0.154217
 C 0.7053 0.262 0.6133   0.149883
 C 0.5945 0.9357 0.6242   0.677872
 C 0.857 0.9333 0.8751   0.685638
 N 0.8372 0.622 0.194   -0.415219
 N 0.8909 0.241 0.101   -0.288001
 N 0.3372 0.378 0.306   -0.415219
 N 0.3909 0.759 0.399   -0.288001
 N 0.1628 0.378 0.806   -0.415219
 N 0.1091 0.759 0.899   -0.288001
 N 0.6628 0.622 0.694   -0.415219
 N 0.6091 0.241 0.601   -0.288001
 O 0.7026 0.5651 0.2526   -0.497579
 O 0.973 0.8845 0.069   -0.607934
 O 0.8797 0.0245 0.1324   -0.584321
 O 0.657 0.0242 0.4318   -0.587586
 O 0.5678 0.8803 0.3744   -0.609381
 O 0.2026 0.4349 0.2474   -0.497579
 O 0.473 0.1155 0.431   -0.607934
 O 0.3797 0.9755 0.3676   -0.584321
 O 0.157 0.9758 0.0682   -0.587586
 O 0.0678 0.1197 0.1256   -0.609381
 O 0.2974 0.4349 0.7474   -0.497579
 O 0.027 0.1155 0.931   -0.607934
 O 0.1203 0.9755 0.8676   -0.584321
 O 0.343 0.9758 0.5682   -0.587586
 O 0.4322 0.1197 0.6256   -0.609381
 O 0.7974 0.5651 0.7526   -0.497579
 O 0.527 0.8845 0.569   -0.607934
 O 0.6203 0.0245 0.6324   -0.584321
 O 0.843 0.0242 0.9318   -0.587586
 O 0.9322 0.8803 0.8744   -0.609381
