{'_ref': 'TBD', '_srcid': 'CAKYAQ_clean', 'submitters': [{'name': 'Dalar Nazarian Jeff Camp and David Sholl', 'email': 'dalar@gatech.edu jcamp6@gatech.edu'}], '_method': 'VASP DFT with PBE;DDEC'}
data_Ce2Cu3H30C24(NO4)6
_symmetry_space_group_name_H-M   'P 1'
_cell_length_a   13.43770000
_cell_length_b   13.43770037
_cell_length_c   14.85300000
_cell_angle_alpha   90.00000000
_cell_angle_beta   90.00000000
_cell_angle_gamma   119.99999908
_symmetry_Int_Tables_number   1
_chemical_formula_structural   Ce2Cu3H30C24(NO4)6
_chemical_formula_sum   'Ce4 Cu6 H60 C48 N12 O48'
_cell_volume   2322.70850997
_cell_formula_units_Z   2
loop_
 _symmetry_equiv_pos_site_id
 _symmetry_equiv_pos_as_xyz
  1  'x, y, z'
loop_
 _atom_site_label
 _atom_site_fract_x
 _atom_site_fract_y
 _atom_site_fract_z
 _atom_site_charge
 Ce 0.66667 0.33334 0.16922   2.258274
 Ce 0.33333 0.66666 0.33078   2.258275
 Ce 0.33333 0.66666 0.83078   2.258275
 Ce 0.66667 0.33334 0.66922   2.258276
 Cu 0.5 0.0 0.0   0.80716
 Cu 0.5 0.5 0.0   0.807205
 Cu 0.0 0.5 0.0   0.807201
 Cu 0.5 0.0 0.5   0.80716
 Cu 0.0 0.5 0.5   0.807206
 Cu 0.5 0.5 0.5   0.807201
 H 0.6478 0.9739 0.9229   0.258191
 H 0.8173 0.1363 0.979   0.108655
 H 0.7445 0.0376 0.0477   0.127902
 H 0.7296 0.1898 0.8728   0.139858
 H 0.683 0.082 0.81   0.139618
 H 0.3261 0.3522 0.9229   0.258193
 H 0.319 0.1827 0.979   0.10866
 H 0.2931 0.2555 0.0477   0.127901
 H 0.4602 0.2704 0.8728   0.139864
 H 0.399 0.317 0.81   0.139621
 H 0.0261 0.6739 0.9229   0.258195
 H 0.8637 0.681 0.979   0.108661
 H 0.9624 0.7069 0.0477   0.127905
 H 0.8102 0.5398 0.8728   0.139861
 H 0.918 0.601 0.81   0.139621
 H 0.6739 0.0261 0.5771   0.258191
 H 0.681 0.8637 0.521   0.108654
 H 0.7069 0.9624 0.4523   0.127902
 H 0.5398 0.8102 0.6272   0.139858
 H 0.601 0.918 0.69   0.139622
 H 0.9739 0.6478 0.5771   0.258193
 H 0.1363 0.8173 0.521   0.10866
 H 0.0376 0.7445 0.4523   0.127901
 H 0.1898 0.7296 0.6272   0.139865
 H 0.082 0.683 0.69   0.139625
 H 0.3522 0.3261 0.5771   0.258195
 H 0.1827 0.319 0.521   0.108661
 H 0.2555 0.2931 0.4523   0.127905
 H 0.2704 0.4602 0.6272   0.139861
 H 0.317 0.399 0.69   0.139624
 H 0.3522 0.0261 0.0771   0.258192
 H 0.1827 0.8637 0.021   0.108658
 H 0.2555 0.9624 0.9523   0.127906
 H 0.2704 0.8102 0.1272   0.139859
 H 0.317 0.918 0.19   0.139619
 H 0.6739 0.6478 0.0771   0.258194
 H 0.681 0.8173 0.021   0.108664
 H 0.7069 0.7445 0.9523   0.127905
 H 0.5398 0.7296 0.1272   0.139865
 H 0.601 0.683 0.19   0.139622
 H 0.9739 0.3261 0.0771   0.258196
 H 0.1363 0.319 0.021   0.108665
 H 0.0376 0.2931 0.9523   0.127909
 H 0.1898 0.4602 0.1272   0.139861
 H 0.082 0.399 0.19   0.139621
 H 0.3261 0.9739 0.4229   0.258192
 H 0.319 0.1363 0.479   0.108658
 H 0.2931 0.0376 0.5477   0.127906
 H 0.4602 0.1898 0.3728   0.139859
 H 0.399 0.082 0.31   0.139622
 H 0.0261 0.3522 0.4229   0.258194
 H 0.8637 0.1827 0.479   0.108664
 H 0.9624 0.2555 0.5477   0.127905
 H 0.8102 0.2704 0.3728   0.139865
 H 0.918 0.317 0.31   0.139625
 H 0.6478 0.6739 0.4229   0.258196
 H 0.8173 0.681 0.479   0.108665
 H 0.7445 0.7069 0.5477   0.12791
 H 0.7296 0.5398 0.3728   0.139861
 H 0.683 0.601 0.31   0.139624
 C 0.7283 0.1798 0.0676   0.700709
 C 0.7438 0.0958 0.0096   -0.185684
 C 0.6651 0.1133 0.8623   -0.230369
 C 0.5623 0.1219 0.843   0.759346
 C 0.4515 0.2717 0.0676   0.700711
 C 0.352 0.2562 0.0096   -0.185681
 C 0.4482 0.3349 0.8623   -0.230372
 C 0.5596 0.4377 0.843   0.759362
 C 0.8202 0.5485 0.0676   0.700707
 C 0.9042 0.648 0.0096   -0.18568
 C 0.8867 0.5518 0.8623   -0.230373
 C 0.8781 0.4404 0.843   0.759357
 C 0.5485 0.8202 0.4324   0.700709
 C 0.648 0.9042 0.4904   -0.185684
 C 0.5518 0.8867 0.6377   -0.23037
 C 0.4404 0.8781 0.657   0.759347
 C 0.1798 0.7283 0.4324   0.700711
 C 0.0958 0.7438 0.4904   -0.185681
 C 0.1133 0.6651 0.6377   -0.230373
 C 0.1219 0.5623 0.657   0.759363
 C 0.2717 0.4515 0.4324   0.700707
 C 0.2562 0.352 0.4904   -0.18568
 C 0.3349 0.4482 0.6377   -0.230374
 C 0.4377 0.5596 0.657   0.759358
 C 0.2717 0.8202 0.9324   0.70071
 C 0.2562 0.9042 0.9904   -0.185687
 C 0.3349 0.8867 0.1377   -0.230369
 C 0.4377 0.8781 0.157   0.759346
 C 0.5485 0.7283 0.9324   0.700712
 C 0.648 0.7438 0.9904   -0.185684
 C 0.5518 0.6651 0.1377   -0.230372
 C 0.4404 0.5623 0.157   0.759362
 C 0.1798 0.4515 0.9324   0.700708
 C 0.0958 0.352 0.9904   -0.185683
 C 0.1133 0.4482 0.1377   -0.230373
 C 0.1219 0.5596 0.157   0.759357
 C 0.4515 0.1798 0.5676   0.70071
 C 0.352 0.0958 0.5096   -0.185687
 C 0.4482 0.1133 0.3623   -0.23037
 C 0.5596 0.1219 0.343   0.759347
 C 0.8202 0.2717 0.5676   0.700712
 C 0.9042 0.2562 0.5096   -0.185684
 C 0.8867 0.3349 0.3623   -0.230374
 C 0.8781 0.4377 0.343   0.759363
 C 0.7283 0.5485 0.5676   0.700708
 C 0.7438 0.648 0.5096   -0.185683
 C 0.6651 0.5518 0.3623   -0.230375
 C 0.5623 0.4404 0.343   0.759358
 N 0.651 0.0398 0.9421   -0.282225
 N 0.3888 0.349 0.9421   -0.282239
 N 0.9602 0.6112 0.9421   -0.282236
 N 0.6112 0.9602 0.5579   -0.282225
 N 0.0398 0.651 0.5579   -0.282239
 N 0.349 0.3888 0.5579   -0.282236
 N 0.349 0.9602 0.0579   -0.282225
 N 0.6112 0.651 0.0579   -0.282239
 N 0.0398 0.3888 0.0579   -0.282236
 N 0.3888 0.0398 0.4421   -0.282224
 N 0.9602 0.349 0.4421   -0.282238
 N 0.651 0.6112 0.4421   -0.282235
 O 0.6373 0.1846 0.0572   -0.723587
 O 0.8027 0.2408 0.1243   -0.665088
 O 0.5639 0.1779 0.7754   -0.731713
 O 0.4764 0.0738 0.8946   -0.571954
 O 0.5473 0.3627 0.0572   -0.723624
 O 0.4381 0.1973 0.1243   -0.665069
 O 0.614 0.4361 0.7754   -0.73174
 O 0.5974 0.5236 0.8946   -0.571959
 O 0.8154 0.4527 0.0572   -0.723621
 O 0.7592 0.5619 0.1243   -0.66507
 O 0.8221 0.386 0.7754   -0.731734
 O 0.9262 0.4026 0.8946   -0.571954
 O 0.4527 0.8154 0.4428   -0.723587
 O 0.5619 0.7592 0.3757   -0.665088
 O 0.386 0.8221 0.7246   -0.731713
 O 0.4026 0.9262 0.6054   -0.571953
 O 0.1846 0.6373 0.4428   -0.723625
 O 0.2408 0.8027 0.3757   -0.665068
 O 0.1779 0.5639 0.7246   -0.73174
 O 0.0738 0.4764 0.6054   -0.571959
 O 0.3627 0.5473 0.4428   -0.723621
 O 0.1973 0.4381 0.3757   -0.66507
 O 0.4361 0.614 0.7246   -0.731734
 O 0.5236 0.5974 0.6054   -0.571955
 O 0.3627 0.8154 0.9428   -0.723587
 O 0.1973 0.7592 0.8757   -0.665088
 O 0.4361 0.8221 0.2246   -0.731713
 O 0.5236 0.9262 0.1054   -0.571954
 O 0.4527 0.6373 0.9428   -0.723625
 O 0.5619 0.8027 0.8757   -0.665069
 O 0.386 0.5639 0.2246   -0.73174
 O 0.4026 0.4764 0.1054   -0.571959
 O 0.1846 0.5473 0.9428   -0.723621
 O 0.2408 0.4381 0.8757   -0.66507
 O 0.1779 0.614 0.2246   -0.731734
 O 0.0738 0.5974 0.1054   -0.571954
 O 0.5473 0.1846 0.5572   -0.723587
 O 0.4381 0.2408 0.6243   -0.665088
 O 0.614 0.1779 0.2754   -0.731713
 O 0.5974 0.0738 0.3946   -0.571953
 O 0.8154 0.3627 0.5572   -0.723625
 O 0.7592 0.1973 0.6243   -0.665068
 O 0.8221 0.4361 0.2754   -0.73174
 O 0.9262 0.5236 0.3946   -0.571959
 O 0.6373 0.4527 0.5572   -0.723621
 O 0.8027 0.5619 0.6243   -0.665071
 O 0.5639 0.386 0.2754   -0.731734
 O 0.4764 0.4026 0.3946   -0.571955
