{'_ref': 'TBD', '_srcid': 'CAKYAQ_clean', 'submitters': [{'name': 'Dalar Nazarian Jeff Camp and David Sholl', 'email': 'dalar@gatech.edu jcamp6@gatech.edu'}], '_method': 'VASP DFT with PBE;DDEC'}
data_CeU2(C6O7)2
_symmetry_space_group_name_H-M   'P 1'
_cell_length_a   11.61820000
_cell_length_b   13.11340000
_cell_length_c   15.58870000
_cell_angle_alpha   90.00000000
_cell_angle_beta   90.00000000
_cell_angle_gamma   90.00000000
_symmetry_Int_Tables_number   1
_chemical_formula_structural   CeU2(C6O7)2
_chemical_formula_sum   'Ce4 U8 C48 O56'
_cell_volume   2375.00241915
_cell_formula_units_Z   4
loop_
 _symmetry_equiv_pos_site_id
 _symmetry_equiv_pos_as_xyz
  1  'x, y, z'
loop_
 _atom_site_label
 _atom_site_fract_x
 _atom_site_fract_y
 _atom_site_fract_z
 _atom_site_charge
 Ce 0.75 0.06121 0.71365   2.109906
 Ce 0.25 0.56121 0.78635   2.109906
 Ce 0.25 0.93879 0.28635   2.109904
 Ce 0.75 0.43879 0.21365   2.109904
 U 0.75 0.34295 0.753   2.247021
 U 0.25 0.84295 0.747   2.247021
 U 0.25 0.65705 0.247   2.247021
 U 0.75 0.15705 0.253   2.247021
 U 0.0 0.0 0.0   1.820829
 U 0.0 0.5 0.5   1.820829
 U 0.5 0.0 0.0   1.820822
 U 0.5 0.5 0.5   1.820822
 C 0.8702 0.7189 0.7686   -0.05073
 C 0.000799999999998 0.7195 0.7661   0.758191
 C 0.8102 0.7971 0.8092   -0.116335
 C 0.8734 0.8812 0.855   0.703726
 C 0.8741 0.5663 0.6728   0.707562
 C 0.8098 0.6404 0.7277   -0.105482
 C 0.1298 0.2189 0.7314   -0.05073
 C 0.9992 0.2195 0.7339   0.758191
 C 0.1898 0.2971 0.6908   -0.116335
 C 0.1266 0.3812 0.645   0.703726
 C 0.1259 0.0663 0.8272   0.707562
 C 0.1902 0.1404 0.7723   -0.105482
 C 0.3702 0.2811 0.2314   -0.05073
 C 0.5008 0.2805 0.2339   0.758191
 C 0.3102 0.2029 0.1908   -0.116335
 C 0.3734 0.1188 0.145   0.703726
 C 0.3741 0.4337 0.3272   0.707561
 C 0.3098 0.3596 0.2723   -0.105482
 C 0.6298 0.7811 0.2686   -0.05073
 C 0.4992 0.7805 0.2661   0.758191
 C 0.6898 0.7029 0.3092   -0.116335
 C 0.6266 0.6188 0.355   0.703726
 C 0.6259 0.9337 0.1728   0.707561
 C 0.6902 0.8596 0.2277   -0.105482
 C 0.1298 0.2811 0.2314   -0.05073
 C 0.9992 0.2805 0.2339   0.758191
 C 0.1898 0.2029 0.1908   -0.116338
 C 0.1266 0.1188 0.145   0.703727
 C 0.1259 0.4337 0.3272   0.707561
 C 0.1902 0.3596 0.2723   -0.105476
 C 0.8702 0.7811 0.2686   -0.05073
 C 0.000799999999998 0.7805 0.2661   0.758191
 C 0.8102 0.7029 0.3092   -0.116338
 C 0.8734 0.6188 0.355   0.703727
 C 0.8741 0.9337 0.1728   0.707561
 C 0.8098 0.8596 0.2277   -0.105476
 C 0.6298 0.7189 0.7686   -0.05073
 C 0.4992 0.7195 0.7661   0.758191
 C 0.6898 0.7971 0.8092   -0.116338
 C 0.6266 0.8812 0.855   0.703727
 C 0.6259 0.5663 0.6728   0.707561
 C 0.6902 0.6404 0.7277   -0.105476
 C 0.3702 0.2189 0.7314   -0.05073
 C 0.5008 0.2195 0.7339   0.758191
 C 0.3102 0.2971 0.6908   -0.116338
 C 0.3734 0.3812 0.645   0.703727
 C 0.3741 0.0663 0.8272   0.707561
 C 0.3098 0.1404 0.7723   -0.105476
 O 0.9253 0.8574 0.9232   -0.624953
 O 0.8708 0.9697 0.8262   -0.696436
 O 0.9311 0.6048 0.6123   -0.622424
 O 0.8681 0.4724 0.6855   -0.70681
 O 0.047 0.8007 0.7386   -0.649763
 O 0.0514 0.641 0.791   -0.705719
 O 0.0747 0.3574 0.5768   -0.624953
 O 0.1292 0.4697 0.6738   -0.696436
 O 0.0689 0.1048 0.8877   -0.622424
 O 0.1319 0.9724 0.8145   -0.70681
 O 0.953 0.3007 0.7614   -0.649763
 O 0.9486 0.141 0.709   -0.705719
 O 0.4253 0.1426 0.0768   -0.624952
 O 0.3708 0.0303 0.1738   -0.696436
 O 0.4311 0.3952 0.3877   -0.622424
 O 0.3681 0.5276 0.3145   -0.70681
 O 0.547 0.1993 0.2614   -0.649763
 O 0.5514 0.359 0.209   -0.705719
 O 0.5747 0.6426 0.4232   -0.624952
 O 0.6292 0.5303 0.3262   -0.696436
 O 0.5689 0.8952 0.1123   -0.622424
 O 0.6319 0.0276 0.1855   -0.70681
 O 0.453 0.6993 0.2386   -0.649763
 O 0.4486 0.859 0.291   -0.705719
 O 0.0747 0.1426 0.0768   -0.624953
 O 0.1292 0.0303 0.1738   -0.696436
 O 0.0689 0.3952 0.3877   -0.622424
 O 0.1319 0.5276 0.3145   -0.70681
 O 0.953 0.1993 0.2614   -0.649763
 O 0.9486 0.359 0.209   -0.705719
 O 0.9253 0.6426 0.4232   -0.624953
 O 0.8708 0.5303 0.3262   -0.696436
 O 0.9311 0.8952 0.1123   -0.622424
 O 0.8681 0.0276 0.1855   -0.70681
 O 0.047 0.6993 0.2386   -0.649763
 O 0.0514 0.859 0.291   -0.705719
 O 0.5747 0.8574 0.9232   -0.624952
 O 0.6292 0.9697 0.8262   -0.696436
 O 0.5689 0.6048 0.6123   -0.622424
 O 0.6319 0.4724 0.6855   -0.70681
 O 0.453 0.8007 0.7386   -0.649763
 O 0.4486 0.641 0.791   -0.705719
 O 0.4253 0.3574 0.5768   -0.624952
 O 0.3708 0.4697 0.6738   -0.696436
 O 0.4311 0.1048 0.8877   -0.622424
 O 0.3681 0.9724 0.8145   -0.70681
 O 0.547 0.3007 0.7614   -0.649763
 O 0.5514 0.141 0.709   -0.705719
 O 0.75 0.2664 0.6589   -0.888158
 O 0.75 0.1923 0.8221   -1.071251
 O 0.25 0.7664 0.8411   -0.888158
 O 0.25 0.6923 0.6779   -1.071251
 O 0.25 0.7336 0.3411   -0.888158
 O 0.25 0.8077 0.1779   -1.071251
 O 0.75 0.2336 0.1589   -0.888158
 O 0.75 0.3077 0.3221   -1.071251
