{'_ref': 'TBD', '_srcid': 'CAKYAQ_clean', 'submitters': [{'name': 'Dalar Nazarian Jeff Camp and David Sholl', 'email': 'dalar@gatech.edu jcamp6@gatech.edu'}], '_method': 'VASP DFT with PBE;DDEC'}
data_Ag2H12C17N3O4
_symmetry_space_group_name_H-M   'P 1'
_cell_length_a   12.39370000
_cell_length_b   17.29919958
_cell_length_c   19.33000000
_cell_angle_alpha   90.00000000
_cell_angle_beta   90.00000000
_cell_angle_gamma   95.74999909
_symmetry_Int_Tables_number   1
_chemical_formula_structural   Ag2H12C17N3O4
_chemical_formula_sum   'Ag16 H96 C136 N24 O32'
_cell_volume   4123.52073552
_cell_formula_units_Z   8
loop_
 _symmetry_equiv_pos_site_id
 _symmetry_equiv_pos_as_xyz
  1  'x, y, z'
loop_
 _atom_site_label
 _atom_site_fract_x
 _atom_site_fract_y
 _atom_site_fract_z
 _atom_site_charge
 Ag 0.21684 0.01669 0.30161   0.439328
 Ag 0.25234 0.00409 0.45417   0.413102
 Ag 0.74983 0.50669 0.49818   0.384046
 Ag 0.28316 0.48331 0.80161   0.439328
 Ag 0.24766 0.49591 0.95417   0.413102
 Ag 0.75017 0.99331 0.99818   0.384046
 Ag 0.78316 0.98331 0.69839   0.439329
 Ag 0.74766 0.99591 0.54583   0.413102
 Ag 0.25017 0.49331 0.50182   0.384046
 Ag 0.71684 0.51669 0.19839   0.439329
 Ag 0.75234 0.50409 0.04583   0.413102
 Ag 0.24983 0.00669 0.00182   0.384046
 Ag 0.5 0.5 0.5   0.401326
 Ag 0.0 0.0 0.0   0.401326
 Ag 0.0 0.5 0.5   0.386117
 Ag 0.5 0.0 0.0   0.386117
 H 0.4494 0.983 0.278   0.09615
 H 0.5506 0.8826 0.2544   0.14343
 H 0.2934 0.731 0.3021   0.141182
 H 0.1962 0.8356 0.3245   0.092034
 H 0.6319 0.103 0.4779   0.095378
 H 0.6086 0.1972 0.5693   0.064431
 H 0.7603 0.2186 0.4873   0.116243
 H 0.7254 0.2496 0.3792   0.116214
 H 0.537 0.2616 0.3453   0.087154
 H 0.5974 0.1336 0.3698   0.129445
 H 0.467 0.2795 0.5486   0.106279
 H 0.4305 0.3103 0.4348   0.10006
 H 0.7444 0.6862 0.2418   0.09729
 H 0.6481 0.7872 0.2743   0.139806
 H 0.3696 0.6493 0.24   0.144504
 H 0.4751 0.5505 0.208   0.100549
 H 0.8656 0.9067 0.4604   0.097364
 H 0.8731 0.7943 0.3832   0.087826
 H 0.7366 0.7946 0.4758   0.116686
 H 0.7873 0.7808 0.5853   0.118523
 H 0.98 0.7754 0.6084   0.065656
 H 0.9214 0.8979 0.569   0.08229
 H 0.0171 0.7165 0.4075   0.11564
 H 0.07 0.7059 0.5228   0.097746
 H 0.0506 0.517 0.778   0.09615
 H 0.9494 0.6174 0.7544   0.14343
 H 0.2066 0.769 0.8021   0.141182
 H 0.3038 0.6644 0.8245   0.092034
 H 0.8681 0.397 0.9779   0.095378
 H 0.8914 0.3028 0.0693   0.064431
 H 0.7397 0.2814 0.9873   0.116243
 H 0.7746 0.2504 0.8792   0.116214
 H 0.963 0.2384 0.8453   0.087154
 H 0.9026 0.3664 0.8698   0.129445
 H 0.033 0.2205 0.0486   0.106279
 H 0.0695 0.1897 0.9348   0.10006
 H 0.7556 0.8138 0.7418   0.09729
 H 0.8519 0.7128 0.7743   0.139806
 H 0.1304 0.8507 0.74   0.144504
 H 0.0249 0.9495 0.708   0.100549
 H 0.6344 0.5933 0.9604   0.097364
 H 0.6269 0.7057 0.8832   0.087826
 H 0.7634 0.7054 0.9758   0.116686
 H 0.7127 0.7192 0.0853   0.118522
 H 0.52 0.7246 0.1084   0.065656
 H 0.5786 0.6021 0.069   0.08229
 H 0.4829 0.7835 0.9075   0.11564
 H 0.43 0.7941 0.0228   0.097746
 H 0.5506 0.017 0.722   0.09615
 H 0.4494 0.1174 0.7456   0.143431
 H 0.7066 0.269 0.6979   0.141183
 H 0.8038 0.1644 0.6755   0.092035
 H 0.3681 0.897 0.5221   0.095378
 H 0.3914 0.8028 0.4307   0.064431
 H 0.2397 0.7814 0.5127   0.116243
 H 0.2746 0.7504 0.6208   0.116214
 H 0.463 0.7384 0.6547   0.087157
 H 0.4026 0.8664 0.6302   0.129445
 H 0.533 0.7205 0.4514   0.106279
 H 0.5695 0.6897 0.5652   0.10006
 H 0.2556 0.3138 0.7582   0.097291
 H 0.3519 0.2128 0.7257   0.139806
 H 0.6304 0.3507 0.76   0.144504
 H 0.5249 0.4495 0.792   0.100549
 H 0.1344 0.0933 0.5396   0.097364
 H 0.1269 0.2057 0.6168   0.087827
 H 0.2634 0.2054 0.5242   0.116685
 H 0.2127 0.2192 0.4147   0.118522
 H 0.02 0.2246 0.3916   0.065656
 H 0.0786 0.1021 0.431   0.08229
 H 0.9829 0.2835 0.5925   0.115641
 H 0.93 0.2941 0.4772   0.097745
 H 0.9494 0.483 0.222   0.09615
 H 0.0506 0.3826 0.2456   0.143431
 H 0.7934 0.231 0.1979   0.141183
 H 0.6962 0.3356 0.1755   0.092035
 H 0.1319 0.603 0.0221   0.095378
 H 0.1086 0.6972 0.9307   0.064431
 H 0.2603 0.7186 0.0127   0.116243
 H 0.2254 0.7496 0.1208   0.116214
 H 0.037 0.7616 0.1547   0.087157
 H 0.0974 0.6336 0.1302   0.129445
 H 0.967 0.7795 0.9514   0.106279
 H 0.9305 0.8103 0.0652   0.10006
 H 0.2444 0.1862 0.2582   0.097291
 H 0.1481 0.2872 0.2257   0.139806
 H 0.8696 0.1493 0.26   0.144504
 H 0.9751 0.0505 0.292   0.100549
 H 0.3656 0.4067 0.0396   0.097364
 H 0.3731 0.2943 0.1168   0.087827
 H 0.2366 0.2946 0.0242   0.116685
 H 0.2873 0.2808 0.9147   0.118522
 H 0.48 0.2754 0.8916   0.065656
 H 0.4214 0.3979 0.931   0.08229
 H 0.5171 0.2165 0.0925   0.115641
 H 0.57 0.2059 0.9772   0.097745
 C 0.4167 0.9313 0.2828   0.163419
 C 0.4773 0.8716 0.2687   -0.170656
 C 0.4332 0.7956 0.275   0.103049
 C 0.3267 0.7825 0.2965   -0.187918
 C 0.2695 0.8454 0.3099   0.164575
 C 0.4673 0.0897 0.4996   0.59721
 C 0.5701 0.1359 0.4763   -0.177388
 C 0.5966 0.2096 0.5195   0.048208
 C 0.6996 0.2525 0.4861   -0.198289
 C 0.7348 0.3296 0.5194   0.597147
 C 0.6969 0.3618 0.4101   0.588841
 C 0.675 0.2734 0.4115   -0.176112
 C 0.5562 0.2458 0.3932   0.038467
 C 0.5457 0.1566 0.4017   -0.183727
 C 0.432 0.1182 0.3901   0.603906
 C 0.5061 0.2613 0.5106   -0.128753
 C 0.4861 0.2787 0.4468   -0.127483
 C 0.6674 0.6785 0.2415   0.163107
 C 0.6106 0.7391 0.2604   -0.16303
 C 0.4985 0.7302 0.2591   0.089044
 C 0.4465 0.6582 0.2403   -0.186082
 C 0.5105 0.5993 0.2217   0.159973
 C 0.0262 0.9159 0.4267   0.597459
 C 0.928 0.8743 0.4626   -0.18081
 C 0.8938 0.7921 0.4331   0.044309
 C 0.7965 0.7601 0.4788   -0.191078
 C 0.7557 0.6771 0.4584   0.59318
 C 0.8155 0.665 0.5667   0.593367
 C 0.8326 0.752 0.5533   -0.192459
 C 0.9533 0.7817 0.5601   0.046911
 C 0.9653 0.8671 0.5379   -0.186577
 C 0.0812 0.9028 0.5364   0.596073
 C 0.9842 0.7421 0.4443   -0.124378
 C 0.0141 0.7364 0.509   -0.139119
 C 0.0833 0.5687 0.7828   0.163419
 C 0.0227 0.6284 0.7687   -0.170656
 C 0.0668 0.7044 0.775   0.103049
 C 0.1733 0.7175 0.7965   -0.187918
 C 0.2305 0.6546 0.8099   0.164575
 C 0.0327 0.4103 0.9996   0.59721
 C 0.9299 0.3641 0.9763   -0.177388
 C 0.9034 0.2904 0.0195   0.048208
 C 0.8004 0.2475 0.9861   -0.198289
 C 0.7652 0.1704 0.0194   0.597147
 C 0.8031 0.1382 0.9101   0.588841
 C 0.825 0.2266 0.9115   -0.176112
 C 0.9438 0.2542 0.8932   0.038467
 C 0.9543 0.3434 0.9017   -0.183727
 C 0.068 0.3818 0.8901   0.603906
 C 0.9939 0.2387 0.0106   -0.128753
 C 0.0139 0.2213 0.9468   -0.127483
 C 0.8326 0.8215 0.7415   0.163107
 C 0.8894 0.7609 0.7604   -0.16303
 C 0.0015 0.7698 0.7591   0.089044
 C 0.0535 0.8418 0.7403   -0.186082
 C 0.9895 0.9007 0.7217   0.159973
 C 0.4738 0.5841 0.9267   0.597459
 C 0.572 0.6257 0.9626   -0.18081
 C 0.6062 0.7079 0.9331   0.044309
 C 0.7035 0.7399 0.9788   -0.191078
 C 0.7443 0.8229 0.9584   0.59318
 C 0.6845 0.835 0.0667   0.593367
 C 0.6674 0.748 0.0533   -0.192458
 C 0.5467 0.7183 0.0601   0.046911
 C 0.5347 0.6329 0.0379   -0.186577
 C 0.4188 0.5972 0.0364   0.596073
 C 0.5158 0.7579 0.9443   -0.124378
 C 0.4859 0.7636 0.009   -0.139119
 C 0.5833 0.0687 0.7172   0.163419
 C 0.5227 0.1284 0.7313   -0.170656
 C 0.5668 0.2044 0.725   0.103049
 C 0.6733 0.2175 0.7035   -0.187918
 C 0.7305 0.1546 0.6901   0.164575
 C 0.5327 0.9103 0.5004   0.597211
 C 0.4299 0.8641 0.5237   -0.177388
 C 0.4034 0.7904 0.4805   0.048208
 C 0.3004 0.7475 0.5139   -0.198289
 C 0.2652 0.6704 0.4806   0.597147
 C 0.3031 0.6382 0.5899   0.588841
 C 0.325 0.7266 0.5885   -0.176112
 C 0.4438 0.7542 0.6068   0.038466
 C 0.4543 0.8434 0.5983   -0.183727
 C 0.568 0.8818 0.6099   0.603906
 C 0.4939 0.7387 0.4894   -0.128753
 C 0.5139 0.7213 0.5532   -0.127483
 C 0.3326 0.3215 0.7585   0.163107
 C 0.3894 0.2609 0.7396   -0.16303
 C 0.5015 0.2698 0.7409   0.089044
 C 0.5535 0.3418 0.7597   -0.186082
 C 0.4895 0.4007 0.7783   0.159973
 C 0.9738 0.0841 0.5733   0.597459
 C 0.072 0.1257 0.5374   -0.18081
 C 0.1062 0.2079 0.5669   0.044309
 C 0.2035 0.2399 0.5212   -0.191078
 C 0.2443 0.3229 0.5416   0.59318
 C 0.1845 0.335 0.4333   0.593367
 C 0.1674 0.248 0.4467   -0.192458
 C 0.0467 0.2183 0.4399   0.046911
 C 0.0347 0.1329 0.4621   -0.186577
 C 0.9188 0.0972 0.4636   0.596072
 C 0.0158 0.2579 0.5557   -0.124378
 C 0.9859 0.2636 0.491   -0.139119
 C 0.9167 0.4313 0.2172   0.163419
 C 0.9773 0.3716 0.2313   -0.170656
 C 0.9332 0.2956 0.225   0.103049
 C 0.8267 0.2825 0.2035   -0.187918
 C 0.7695 0.3454 0.1901   0.164575
 C 0.9673 0.5897 0.000399999999999   0.597211
 C 0.0701 0.6359 0.0237   -0.177388
 C 0.0966 0.7096 0.9805   0.048208
 C 0.1996 0.7525 0.0139   -0.198289
 C 0.2348 0.8296 0.9806   0.597147
 C 0.1969 0.8618 0.0899   0.588841
 C 0.175 0.7734 0.0885   -0.176112
 C 0.0562 0.7458 0.1068   0.038466
 C 0.0457 0.6566 0.0983   -0.183727
 C 0.932 0.6182 0.1099   0.603906
 C 0.0061 0.7613 0.9894   -0.128753
 C 0.9861 0.7787 0.0532   -0.127483
 C 0.1674 0.1785 0.2585   0.163107
 C 0.1106 0.2391 0.2396   -0.163031
 C 0.9985 0.2302 0.2409   0.089044
 C 0.9465 0.1582 0.2597   -0.186082
 C 0.0105 0.0993 0.2783   0.159973
 C 0.5262 0.4159 0.0733   0.597459
 C 0.428 0.3743 0.0374   -0.18081
 C 0.3938 0.2921 0.0669   0.044309
 C 0.2965 0.2601 0.0212   -0.191078
 C 0.2557 0.1771 0.0416   0.59318
 C 0.3155 0.165 0.9333   0.593367
 C 0.3326 0.252 0.9467   -0.192458
 C 0.4533 0.2817 0.9399   0.046911
 C 0.4653 0.3671 0.9621   -0.186577
 C 0.5812 0.4028 0.9636   0.596072
 C 0.4842 0.2421 0.0557   -0.124378
 C 0.5141 0.2364 0.991   -0.139119
 N 0.312 0.9198 0.3034   -0.297611
 N 0.3925 0.0803 0.4474   -0.594984
 N 0.7293 0.3897 0.473   -0.615892
 N 0.6189 0.6083 0.2224   -0.274632
 N 0.1092 0.933 0.4727   -0.602174
 N 0.7695 0.627 0.5108   -0.603755
 N 0.188 0.5802 0.8034   -0.297611
 N 0.1075 0.4197 0.9474   -0.594984
 N 0.7707 0.1103 0.973   -0.615892
 N 0.8811 0.8917 0.7224   -0.274632
 N 0.3908 0.567 0.9727   -0.602174
 N 0.7305 0.873 0.0108   -0.603755
 N 0.688 0.0802 0.6966   -0.297611
 N 0.6075 0.9197 0.5526   -0.594984
 N 0.2707 0.6103 0.527   -0.615892
 N 0.3811 0.3917 0.7776   -0.274631
 N 0.8908 0.067 0.5273   -0.602174
 N 0.2305 0.373 0.4892   -0.603755
 N 0.812 0.4198 0.1966   -0.297611
 N 0.8925 0.5803 0.0526   -0.594984
 N 0.2293 0.8897 0.027   -0.615892
 N 0.1189 0.1083 0.2776   -0.274631
 N 0.6092 0.433 0.0273   -0.602174
 N 0.2695 0.127 0.9892   -0.603755
 O 0.6811 0.4016 0.359   -0.547089
 O 0.7654 0.3389 0.5786   -0.526421
 O 0.4528 0.062 0.5575   -0.523292
 O 0.3829 0.1213 0.3353   -0.545035
 O 0.1429 0.9048 0.5858   -0.524016
 O 0.0314 0.9339 0.3655   -0.525613
 O 0.718 0.6581 0.4016   -0.53548
 O 0.8408 0.6345 0.6206   -0.540474
 O 0.8189 0.0984 0.859   -0.547089
 O 0.7346 0.1611 0.0786   -0.526421
 O 0.0472 0.438 0.0575   -0.523292
 O 0.1171 0.3787 0.8353   -0.545035
 O 0.3571 0.5952 0.0858   -0.524016
 O 0.4686 0.5661 0.8655   -0.525613
 O 0.782 0.8419 0.9016   -0.53548
 O 0.6592 0.8655 0.1206   -0.540474
 O 0.3189 0.5984 0.641   -0.547089
 O 0.2346 0.6611 0.4214   -0.526421
 O 0.5472 0.938 0.4425   -0.523292
 O 0.6171 0.8787 0.6647   -0.545035
 O 0.8571 0.0952 0.4142   -0.524016
 O 0.9686 0.0661 0.6345   -0.525613
 O 0.282 0.3419 0.5984   -0.53548
 O 0.1592 0.3655 0.3794   -0.540474
 O 0.1811 0.9016 0.141   -0.547089
 O 0.2654 0.8389 0.9214   -0.526421
 O 0.9528 0.562 0.9425   -0.523292
 O 0.8829 0.6213 0.1647   -0.545035
 O 0.6429 0.4048 0.9142   -0.524016
 O 0.5314 0.4339 0.1345   -0.525613
 O 0.218 0.1581 0.0984   -0.53548
 O 0.3408 0.1345 0.8794   -0.540474
