{'_ref': 'TBD', '_srcid': 'CAKYAQ_clean', 'submitters': [{'name': 'Dalar Nazarian Jeff Camp and David Sholl', 'email': 'dalar@gatech.edu jcamp6@gatech.edu'}], '_method': 'VASP DFT with PBE;DDEC'}
data_Nd2H6C18(SO4)3
_symmetry_space_group_name_H-M   'P 1'
_cell_length_a   12.17990000
_cell_length_b   16.98359998
_cell_length_c   25.78020000
_cell_angle_alpha   102.10899902
_cell_angle_beta   90.00000000
_cell_angle_gamma   90.00000000
_symmetry_Int_Tables_number   1
_chemical_formula_structural   Nd2H6C18(SO4)3
_chemical_formula_sum   'Nd8 H24 C72 S12 O48'
_cell_volume   5214.20036394
_cell_formula_units_Z   4
loop_
 _symmetry_equiv_pos_site_id
 _symmetry_equiv_pos_as_xyz
  1  'x, y, z'
loop_
 _atom_site_label
 _atom_site_fract_x
 _atom_site_fract_y
 _atom_site_fract_z
 _atom_site_charge
 Nd 0.47639 0.48566 0.41848   2.244441
 Nd 0.99845 0.96057 0.41749   2.25862
 Nd 0.47639 0.01434 0.08152   2.244441
 Nd 0.99845 0.53943 0.08251   2.25862
 Nd 0.52361 0.51434 0.58152   2.244441
 Nd 0.00155 0.03943 0.58251   2.25862
 Nd 0.52361 0.98566 0.91848   2.244441
 Nd 0.00155 0.46057 0.91749   2.25862
 H 0.7147 0.67 0.5792   0.071709
 H 0.825 0.794 0.5946   0.125865
 H 0.4897 0.5808 0.239   0.123861
 H 0.6 0.5886 0.1615   0.12915
 H 0.2683 0.7442 0.6024   0.130417
 H 0.1732 0.8647 0.5893   0.118457
 H 0.7147 0.83 0.9208   0.071709
 H 0.825 0.706 0.9054   0.125866
 H 0.4897 0.9192 0.261   0.123861
 H 0.6 0.9114 0.3385   0.12915
 H 0.2683 0.7558 0.8976   0.130417
 H 0.1732 0.6353 0.9107   0.118457
 H 0.2853 0.33 0.4208   0.071709
 H 0.175 0.206 0.4054   0.125865
 H 0.5103 0.4192 0.761   0.123861
 H 0.4 0.4114 0.8385   0.12915
 H 0.7317 0.2558 0.3976   0.130417
 H 0.8268 0.1353 0.4107   0.118457
 H 0.2853 0.17 0.0792   0.071709
 H 0.175 0.294 0.0946   0.125866
 H 0.5103 0.0808 0.739   0.123861
 H 0.4 0.0886 0.6615   0.12915
 H 0.7317 0.2442 0.1024   0.130417
 H 0.8268 0.3647 0.0893   0.118457
 C 0.72 0.6643 0.4996   -0.215441
 C 0.74 0.6939 0.5522   -0.062599
 C 0.8051 0.7654 0.5611   -0.059227
 C 0.8341 0.7866 0.5159   -0.202792
 C 0.6503 0.5957 0.4754   0.796209
 C 0.8973 0.8585 0.5112   0.847898
 C 0.6067 0.5161 0.2653   -0.161752
 C 0.5587 0.5573 0.2326   -0.07196
 C 0.6221 0.562 0.1878   -0.063507
 C 0.7202 0.5229 0.1876   -0.188755
 C 0.5631 0.5004 0.3156   0.726282
 C 0.8107 0.5208 0.1494   0.692932
 C 0.3148 0.718 0.5252   -0.216034
 C 0.2652 0.7599 0.57   -0.054011
 C 0.209 0.8289 0.5624   -0.041499
 C 0.2134 0.8371 0.5108   -0.20506
 C 0.3812 0.643 0.5173   0.823735
 C 0.16 0.8977 0.4852   0.798395
 C 0.72 0.8357 0.000399999999999   -0.215441
 C 0.74 0.8061 0.9478   -0.062599
 C 0.8051 0.7346 0.9389   -0.059227
 C 0.8341 0.7134 0.9841   -0.202792
 C 0.6503 0.9043 0.0246   0.796209
 C 0.8973 0.6415 0.9888   0.847898
 C 0.6067 0.9839 0.2347   -0.161751
 C 0.5587 0.9427 0.2674   -0.07196
 C 0.6221 0.938 0.3122   -0.063507
 C 0.7202 0.9771 0.3124   -0.188755
 C 0.5631 0.9996 0.1844   0.726282
 C 0.8107 0.9792 0.3506   0.692932
 C 0.3148 0.782 0.9748   -0.216034
 C 0.2652 0.7401 0.93   -0.054011
 C 0.209 0.6711 0.9376   -0.041499
 C 0.2134 0.6629 0.9892   -0.20506
 C 0.3812 0.857 0.9827   0.823735
 C 0.16 0.6023 0.0148   0.798395
 C 0.28 0.3357 0.5004   -0.215441
 C 0.26 0.3061 0.4478   -0.062599
 C 0.1949 0.2346 0.4389   -0.059227
 C 0.1659 0.2134 0.4841   -0.202792
 C 0.3497 0.4043 0.5246   0.796209
 C 0.1027 0.1415 0.4888   0.847898
 C 0.3933 0.4839 0.7347   -0.161752
 C 0.4413 0.4427 0.7674   -0.07196
 C 0.3779 0.438 0.8122   -0.063507
 C 0.2798 0.4771 0.8124   -0.188755
 C 0.4369 0.4996 0.6844   0.726282
 C 0.1893 0.4792 0.8506   0.692932
 C 0.6852 0.282 0.4748   -0.216034
 C 0.7348 0.2401 0.43   -0.05401
 C 0.791 0.1711 0.4376   -0.041498
 C 0.7866 0.1629 0.4892   -0.20506
 C 0.6188 0.357 0.4827   0.823735
 C 0.84 0.1023 0.5148   0.798395
 C 0.28 0.1643 0.9996   -0.215441
 C 0.26 0.1939 0.0522   -0.062599
 C 0.1949 0.2654 0.0611   -0.059227
 C 0.1659 0.2866 0.0159   -0.202792
 C 0.3497 0.0957 0.9754   0.796209
 C 0.1027 0.3585 0.0112   0.847898
 C 0.3933 0.0161 0.7653   -0.161751
 C 0.4413 0.0573 0.7326   -0.07196
 C 0.3779 0.062 0.6878   -0.063507
 C 0.2798 0.0229 0.6876   -0.188755
 C 0.4369 0.000399999999999 0.8156   0.726282
 C 0.1893 0.0208 0.6494   0.692932
 C 0.6852 0.218 0.0252   -0.216034
 C 0.7348 0.2599 0.07   -0.05401
 C 0.791 0.3289 0.0624   -0.041498
 C 0.7866 0.3371 0.0108   -0.20506
 C 0.6188 0.143 0.0173   0.823735
 C 0.84 0.3977 0.9852   0.798395
 S 0.7822 0.72186 0.46236   0.206813
 S 0.7324 0.48023 0.24149   0.152555
 S 0.2894 0.7616 0.47207   0.171418
 S 0.7822 0.77814 0.03764   0.206813
 S 0.7324 0.01977 0.25851   0.152555
 S 0.2894 0.7384 0.02793   0.171418
 S 0.2178 0.27814 0.53764   0.206813
 S 0.2676 0.51977 0.75851   0.152555
 S 0.7106 0.2384 0.52793   0.171418
 S 0.2178 0.22186 0.96236   0.206813
 S 0.2676 0.98023 0.74149   0.152555
 S 0.7106 0.2616 0.97207   0.171418
 O 0.6085 0.5532 0.5056   -0.891787
 O 0.6335 0.5828 0.4276   -0.600671
 O 0.9235 0.8634 0.465   -0.751615
 O 0.919 0.9072 0.5527   -0.759122
 O 0.6106 0.4524 0.338   -0.685499
 O 0.4777 0.5368 0.3345   -0.753331
 O 0.7989 0.5598 0.1126   -0.679658
 O 0.8962 0.4825 0.1533   -0.733624
 O 0.4095 0.6132 0.4711   -0.749186
 O 0.4 0.6155 0.558   -0.734015
 O 0.1651 0.8867 0.436   -0.73425
 O 0.1128 0.9574 0.5135   -0.803363
 O 0.6085 0.9468 0.9944   -0.891787
 O 0.6335 0.9172 0.0724   -0.600671
 O 0.9235 0.6366 0.035   -0.751615
 O 0.919 0.5928 0.9473   -0.759122
 O 0.6106 0.0476 0.162   -0.685499
 O 0.4777 0.9632 0.1655   -0.753331
 O 0.7989 0.9402 0.3874   -0.679658
 O 0.8962 0.0175 0.3467   -0.733623
 O 0.4095 0.8868 0.0289   -0.749186
 O 0.4 0.8845 0.942   -0.734015
 O 0.1651 0.6133 0.064   -0.73425
 O 0.1128 0.5426 0.9865   -0.803363
 O 0.3915 0.4468 0.4944   -0.891787
 O 0.3665 0.4172 0.5724   -0.600671
 O 0.0765 0.1366 0.535   -0.751615
 O 0.081 0.0928 0.4473   -0.759122
 O 0.3894 0.5476 0.662   -0.685499
 O 0.5223 0.4632 0.6655   -0.753331
 O 0.2011 0.4402 0.8874   -0.679658
 O 0.1038 0.5175 0.8467   -0.733624
 O 0.5905 0.3868 0.5289   -0.749186
 O 0.6 0.3845 0.442   -0.734015
 O 0.8349 0.1133 0.564   -0.73425
 O 0.8872 0.0426 0.4865   -0.803363
 O 0.3915 0.0532 0.0056   -0.891787
 O 0.3665 0.0828 0.9276   -0.600671
 O 0.0765 0.3634 0.965   -0.751615
 O 0.081 0.4072 0.0527   -0.759122
 O 0.3894 0.9524 0.838   -0.685499
 O 0.5223 0.0368 0.8345   -0.753331
 O 0.2011 0.0598 0.6126   -0.679658
 O 0.1038 0.9825 0.6533   -0.733624
 O 0.5905 0.1132 0.9711   -0.749186
 O 0.6 0.1155 0.058   -0.734015
 O 0.8349 0.3867 0.936   -0.73425
 O 0.8872 0.4574 0.0135   -0.803363
