{'_ref': 'TBD', '_srcid': 'CAKYAQ_clean', 'submitters': [{'name': 'Dalar Nazarian Jeff Camp and David Sholl', 'email': 'dalar@gatech.edu jcamp6@gatech.edu'}], '_method': 'VASP DFT with PBE;DDEC'}
data_Zn4H22C42N4O13
_symmetry_space_group_name_H-M   'P 1'
_cell_length_a   11.01919953
_cell_length_b   11.01919964
_cell_length_c   17.03880000
_cell_angle_alpha   91.65389974
_cell_angle_beta   91.65389975
_cell_angle_gamma   90.66770245
_symmetry_Int_Tables_number   1
_chemical_formula_structural   Zn4H22C42N4O13
_chemical_formula_sum   'Zn8 H44 C84 N8 O26'
_cell_volume   2067.01327159
_cell_formula_units_Z   2
loop_
 _symmetry_equiv_pos_site_id
 _symmetry_equiv_pos_as_xyz
  1  'x, y, z'
loop_
 _atom_site_label
 _atom_site_fract_x
 _atom_site_fract_y
 _atom_site_fract_z
 _atom_site_charge
 Zn 0.46298 0.65636 0.81743   1.041002
 Zn 0.81551 0.30249 0.17482   0.977997
 Zn 0.34364 0.53702 0.68257   1.041002
 Zn 0.69751 0.18449 0.32518   0.977997
 Zn 0.53702 0.34364 0.18257   1.041001
 Zn 0.18449 0.69751 0.82518   0.977996
 Zn 0.65636 0.46298 0.31743   1.041001
 Zn 0.30249 0.81551 0.67482   0.977996
 H 0.5603 0.6517 0.0371   0.097087
 H 0.6944 0.823 0.2318   0.092867
 H 0.6782 0.9954 0.0294   0.086077
 H 0.0072 0.792 0.1277   0.112121
 H 0.9227 0.7673 0.9845   0.123341
 H 0.6724 0.259 0.8823   0.132777
 H 0.7249 0.4535 0.8519   0.102759
 H 0.8279 0.6515 0.8919   0.124246
 H 0.0313 0.7107 0.2482   0.135645
 H 0.7062 0.1966 0.0072   0.074794
 H 0.9615 0.5163 0.2689   0.068907
 H 0.3483 0.4397 0.4629   0.097087
 H 0.177 0.3056 0.2682   0.092867
 H 0.0046 0.3218 0.4706   0.086077
 H 0.208 0.9928 0.3723   0.11212
 H 0.2327 0.0773 0.5155   0.123341
 H 0.741 0.3276 0.6177   0.132779
 H 0.5465 0.2751 0.6481   0.102761
 H 0.3485 0.1721 0.6081   0.124246
 H 0.2893 0.9687 0.2518   0.135644
 H 0.8034 0.2938 0.4928   0.074794
 H 0.4837 0.0385 0.2311   0.068907
 H 0.4397 0.3483 0.9629   0.097087
 H 0.3056 0.177 0.7682   0.092868
 H 0.3218 0.0046 0.9706   0.086076
 H 0.9928 0.208 0.8723   0.11212
 H 0.0773 0.2327 0.0155   0.12334
 H 0.3276 0.741 0.1177   0.13278
 H 0.2751 0.5465 0.1481   0.10276
 H 0.1721 0.3485 0.1081   0.124247
 H 0.9687 0.2893 0.7518   0.135648
 H 0.2938 0.8034 0.9928   0.074794
 H 0.0385 0.4837 0.7311   0.068907
 H 0.6517 0.5603 0.5371   0.097087
 H 0.823 0.6944 0.7318   0.092868
 H 0.9954 0.6782 0.5294   0.086076
 H 0.792 0.0072 0.6277   0.112119
 H 0.7673 0.9227 0.4845   0.12334
 H 0.259 0.6724 0.3823   0.132782
 H 0.4535 0.7249 0.3519   0.102761
 H 0.6515 0.8279 0.3919   0.124247
 H 0.7107 0.0313 0.7482   0.135647
 H 0.1966 0.7062 0.5072   0.074794
 H 0.5163 0.9615 0.7689   0.068907
 C 0.6928 0.927 0.1372   -0.182534
 C 0.5942 0.7208 0.0619   0.013437
 C 0.7377 0.0391 0.1787   0.705868
 C 0.6117 0.8239 0.0196   -0.175758
 C 0.6744 0.8232 0.1784   0.023404
 C 0.5758 0.8238 0.9332   0.692843
 C 0.627 0.7192 0.1417   -0.200801
 C 0.6633 0.9263 0.0578   0.035423
 C 0.6108 0.6036 0.1843   0.690573
 C 0.978 0.7142 0.1364   -0.029166
 C 0.8967 0.6897 0.9967   -0.096289
 C 0.7086 0.3114 0.9201   -0.178623
 C 0.7413 0.4259 0.9022   -0.000522
 C 0.8402 0.621 0.9417   -0.077958
 C 0.9928 0.6662 0.2074   -0.156115
 C 0.798 0.5016 0.9568   -0.005471
 C 0.9186 0.647 0.0748   -0.006479
 C 0.7303 0.2749 0.995   0.221666
 C 0.8767 0.5305 0.0921   0.134509
 C 0.9495 0.5487 0.2195   0.216736
 C 0.8175 0.4567 0.0326   0.157938
 C 0.073 0.3072 0.3628   -0.182534
 C 0.2792 0.4058 0.4381   0.013437
 C 0.9609 0.2623 0.3213   0.705868
 C 0.1761 0.3883 0.4804   -0.175758
 C 0.1768 0.3256 0.3216   0.023405
 C 0.1762 0.4242 0.5668   0.692843
 C 0.2808 0.373 0.3583   -0.200801
 C 0.0737 0.3367 0.4422   0.035423
 C 0.3964 0.3892 0.3157   0.690574
 C 0.2858 0.022 0.3636   -0.029166
 C 0.3103 0.1033 0.5033   -0.096289
 C 0.6886 0.2914 0.5799   -0.178623
 C 0.5741 0.2587 0.5978   -0.000522
 C 0.379 0.1598 0.5583   -0.077958
 C 0.3338 0.0072 0.2926   -0.156115
 C 0.4984 0.202 0.5432   -0.005471
 C 0.353 0.0814 0.4252   -0.006479
 C 0.7251 0.2697 0.505   0.221666
 C 0.4695 0.1233 0.4079   0.134509
 C 0.4513 0.0505 0.2805   0.216736
 C 0.5433 0.1825 0.4674   0.157938
 C 0.3072 0.073 0.8628   -0.182534
 C 0.4058 0.2792 0.9381   0.013437
 C 0.2623 0.9609 0.8213   0.705868
 C 0.3883 0.1761 0.9804   -0.175758
 C 0.3256 0.1768 0.8216   0.023404
 C 0.4242 0.1762 0.0668   0.692843
 C 0.373 0.2808 0.8583   -0.2008
 C 0.3367 0.0737 0.9422   0.035423
 C 0.3892 0.3964 0.8157   0.690573
 C 0.022 0.2858 0.8636   -0.029167
 C 0.1033 0.3103 0.0033   -0.096289
 C 0.2914 0.6886 0.0799   -0.178624
 C 0.2587 0.5741 0.0978   -0.000522
 C 0.1598 0.379 0.0583   -0.077959
 C 0.0072 0.3338 0.7926   -0.156116
 C 0.202 0.4984 0.0432   -0.005472
 C 0.0814 0.353 0.9252   -0.006479
 C 0.2697 0.7251 0.005   0.221666
 C 0.1233 0.4695 0.9079   0.134508
 C 0.0505 0.4513 0.7805   0.216736
 C 0.1825 0.5433 0.9674   0.157938
 C 0.927 0.6928 0.6372   -0.182534
 C 0.7208 0.5942 0.5619   0.013437
 C 0.0391 0.7377 0.6787   0.705867
 C 0.8239 0.6117 0.5196   -0.175758
 C 0.8232 0.6744 0.6784   0.023405
 C 0.8238 0.5758 0.4332   0.692843
 C 0.7192 0.627 0.6417   -0.2008
 C 0.9263 0.6633 0.5578   0.035423
 C 0.6036 0.6108 0.6843   0.690574
 C 0.7142 0.978 0.6364   -0.029166
 C 0.6897 0.8967 0.4967   -0.096289
 C 0.3114 0.7086 0.4201   -0.178624
 C 0.4259 0.7413 0.4022   -0.000523
 C 0.621 0.8402 0.4417   -0.077959
 C 0.6662 0.9928 0.7074   -0.156116
 C 0.5016 0.798 0.4568   -0.005471
 C 0.647 0.9186 0.5748   -0.00648
 C 0.2749 0.7303 0.495   0.221666
 C 0.5305 0.8767 0.5921   0.134508
 C 0.5487 0.9495 0.7195   0.216736
 C 0.4567 0.8175 0.5326   0.157937
 N 0.8928 0.4818 0.1644   -0.369622
 N 0.7833 0.3437 0.0516   -0.371328
 N 0.5182 0.1072 0.3356   -0.369622
 N 0.6563 0.2167 0.4484   -0.371328
 N 0.1072 0.5182 0.8356   -0.369621
 N 0.2167 0.6563 0.9484   -0.371328
 N 0.4818 0.8928 0.6644   -0.369621
 N 0.3437 0.7833 0.5516   -0.371328
 O 0.5004 0.738 0.91331   -0.650665
 O 0.6166 0.899 0.8907   -0.583871
 O 0.7764 0.1254 0.13914   -0.606785
 O 0.7359 0.0423 0.25296   -0.612963
 O 0.5721 0.5115 0.14645   -0.595475
 O 0.6392 0.6092 0.25664   -0.611233
 O 0.262 0.4996 0.58669   -0.650665
 O 0.101 0.3834 0.6093   -0.583871
 O 0.8746 0.2236 0.36086   -0.606786
 O 0.9577 0.2641 0.24704   -0.612964
 O 0.4885 0.4279 0.35355   -0.595475
 O 0.3908 0.3608 0.24336   -0.611233
 O 0.4996 0.262 0.08669   -0.650665
 O 0.3834 0.101 0.1093   -0.583871
 O 0.2236 0.8746 0.86086   -0.606786
 O 0.2641 0.9577 0.74704   -0.612963
 O 0.4279 0.4885 0.85355   -0.595475
 O 0.3608 0.3908 0.74336   -0.611233
 O 0.738 0.5004 0.41331   -0.650665
 O 0.899 0.6166 0.3907   -0.583871
 O 0.1254 0.7764 0.63914   -0.606786
 O 0.0423 0.7359 0.75296   -0.612963
 O 0.5115 0.5721 0.64645   -0.595475
 O 0.6092 0.6392 0.75664   -0.611233
 O 0.3197 0.6803 0.75   -1.100717
 O 0.6803 0.3197 0.25   -1.100717
