{'_ref': 'TBD', '_srcid': 'CAKYAQ_clean', 'submitters': [{'name': 'Dalar Nazarian Jeff Camp and David Sholl', 'email': 'dalar@gatech.edu jcamp6@gatech.edu'}], '_method': 'VASP DFT with PBE;DDEC'}
data_Cd2H14C24Br4N4O9
_symmetry_space_group_name_H-M   'P 1'
_cell_length_a   11.70890017
_cell_length_b   11.70890001
_cell_length_c   14.73320000
_cell_angle_alpha   109.16399884
_cell_angle_beta   109.16399857
_cell_angle_gamma   98.41530216
_symmetry_Int_Tables_number   1
_chemical_formula_structural   Cd2H14C24Br4N4O9
_chemical_formula_sum   'Cd4 H28 C48 Br8 N8 O18'
_cell_volume   1727.58992827
_cell_formula_units_Z   2
loop_
 _symmetry_equiv_pos_site_id
 _symmetry_equiv_pos_as_xyz
  1  'x, y, z'
loop_
 _atom_site_label
 _atom_site_fract_x
 _atom_site_fract_y
 _atom_site_fract_z
 _atom_site_charge
 Cd 0.78034 0.02408 0.7875   1.027032
 Cd 0.97592 0.21966 0.7125   1.027031
 Cd 0.21966 0.97592 0.2125   1.027032
 Cd 0.02408 0.78034 0.2875   1.027031
 H 0.8081 0.2579 0.8067   0.422456
 H 0.1209 0.0445 0.0193   0.076546
 H 0.1933 0.4141 0.0878   0.120157
 H 0.2951 0.2827 0.3121   0.086078
 H 0.909 0.5198 0.0917   0.071487
 H 0.9088 0.2136 0.1556   0.106897
 H 0.0454 0.5602 0.3841   0.078649
 H 0.7421 0.1919 0.6933   0.422456
 H 0.9555 0.8791 0.4807   0.076546
 H 0.5859 0.8067 0.4122   0.120157
 H 0.7173 0.7049 0.1879   0.086078
 H 0.4802 0.091 0.4083   0.071487
 H 0.7864 0.0912 0.3444   0.106897
 H 0.4398 0.9546 0.1159   0.078649
 H 0.1919 0.7421 0.1933   0.422456
 H 0.8791 0.9555 0.9807   0.076546
 H 0.8067 0.5859 0.9122   0.120159
 H 0.7049 0.7173 0.6879   0.086078
 H 0.091 0.4802 0.9083   0.071489
 H 0.0912 0.7864 0.8444   0.106898
 H 0.9546 0.4398 0.6159   0.078649
 H 0.2579 0.8081 0.3067   0.422456
 H 0.0445 0.1209 0.5193   0.076546
 H 0.4141 0.1933 0.5878   0.120159
 H 0.2827 0.2951 0.8121   0.086078
 H 0.5198 0.909 0.5917   0.07149
 H 0.2136 0.9088 0.6556   0.106898
 H 0.5602 0.0454 0.8841   0.078649
 C 0.1553 0.1273 0.0689   0.184058
 C 0.1462 0.2234 0.0346   -0.183469
 C 0.196 0.347 0.1082   0.001298
 C 0.2501 0.3677 0.2132   -0.013243
 C 0.2572 0.2672 0.2414   0.12225
 C 0.0745 0.1893 0.9189   0.671171
 C 0.9272 0.4842 0.1407   0.202113
 C 0.8967 0.3539 0.1049   -0.190713
 C 0.9258 0.3006 0.1769   0.001279
 C 0.9811 0.3803 0.2813   -0.004882
 C 0.008 0.5086 0.3128   0.125793
 C 0.8372 0.2772 0.9879   0.667197
 C 0.8727 0.8447 0.4311   0.184058
 C 0.7766 0.8538 0.4654   -0.183469
 C 0.653 0.804 0.3918   0.001298
 C 0.6323 0.7499 0.2868   -0.013242
 C 0.7328 0.7428 0.2586   0.122253
 C 0.8107 0.9255 0.5811   0.671171
 C 0.5158 0.0728 0.3593   0.202114
 C 0.6461 0.1033 0.3951   -0.190713
 C 0.6994 0.0742 0.3231   0.00128
 C 0.6197 0.0189 0.2187   -0.00488
 C 0.4914 0.992 0.1872   0.125794
 C 0.7228 0.1628 0.5121   0.667197
 C 0.8447 0.8727 0.9311   0.184057
 C 0.8538 0.7766 0.9654   -0.183469
 C 0.804 0.653 0.8918   0.001298
 C 0.7499 0.6323 0.7868   -0.013243
 C 0.7428 0.7328 0.7586   0.12225
 C 0.9255 0.8107 0.0811   0.671171
 C 0.0728 0.5158 0.8593   0.202113
 C 0.1033 0.6461 0.8951   -0.190713
 C 0.0742 0.6994 0.8231   0.001279
 C 0.0189 0.6197 0.7187   -0.004882
 C 0.992 0.4914 0.6872   0.125793
 C 0.1628 0.7228 0.0121   0.667197
 C 0.1273 0.1553 0.5689   0.184058
 C 0.2234 0.1462 0.5346   -0.183469
 C 0.347 0.196 0.6082   0.001298
 C 0.3677 0.2501 0.7132   -0.013242
 C 0.2672 0.2572 0.7414   0.122253
 C 0.1893 0.0745 0.4189   0.671171
 C 0.4842 0.9272 0.6407   0.202114
 C 0.3539 0.8967 0.6049   -0.190713
 C 0.3006 0.9258 0.6769   0.00128
 C 0.3803 0.9811 0.7813   -0.00488
 C 0.5086 0.008 0.8128   0.125794
 C 0.2772 0.8372 0.4879   0.667197
 Br 0.31205 0.53263 0.31857   -0.031674
 Br 0.02388 0.31354 0.38533   -0.041832
 Br 0.46737 0.68795 0.18143   -0.031674
 Br 0.68646 0.97612 0.11467   -0.041832
 Br 0.68795 0.46737 0.68143   -0.031673
 Br 0.97612 0.68646 0.61467   -0.04183
 Br 0.53263 0.31205 0.81857   -0.031673
 Br 0.31354 0.02388 0.88533   -0.04183
 N 0.2112 0.1476 0.1701   -0.327577
 N 0.9816 0.561 0.2427   -0.359644
 N 0.8524 0.7888 0.3299   -0.327577
 N 0.439 0.0184 0.2573   -0.359644
 N 0.7888 0.8524 0.8299   -0.327576
 N 0.0184 0.439 0.7573   -0.359644
 N 0.1476 0.2112 0.6701   -0.327577
 N 0.561 0.9816 0.7427   -0.359644
 O 0.99771 0.08209 0.8671   -0.619926
 O 0.09772 0.27068 0.8846   -0.5816
 O 0.8199 0.3385 0.9316   -0.585773
 O 0.81145 0.15935 0.9566   -0.613115
 O 0.91791 0.00229 0.6329   -0.619925
 O 0.72932 0.90228 0.6154   -0.5816
 O 0.6615 0.1801 0.5684   -0.585773
 O 0.84065 0.18855 0.5434   -0.613115
 O 0.00229 0.91791 0.1329   -0.619926
 O 0.90228 0.72932 0.1154   -0.5816
 O 0.1801 0.6615 0.0684   -0.585773
 O 0.18855 0.84065 0.0434   -0.613115
 O 0.08209 0.99771 0.3671   -0.619925
 O 0.27068 0.09772 0.3846   -0.5816
 O 0.3385 0.8199 0.4316   -0.585773
 O 0.15935 0.81145 0.4566   -0.613115
 O 0.8 0.2 0.75   -0.822044
 O 0.2 0.8 0.25   -0.822044
