{'_ref': 'TBD', '_srcid': 'CAKYAQ_clean', 'submitters': [{'name': 'Dalar Nazarian Jeff Camp and David Sholl', 'email': 'dalar@gatech.edu jcamp6@gatech.edu'}], '_method': 'VASP DFT with PBE;DDEC'}
data_Co3H58C64(N4O7)2
_symmetry_space_group_name_H-M   'P 1'
_cell_length_a   9.72999958
_cell_length_b   10.18999988
_cell_length_c   19.52900000
_cell_angle_alpha   78.01099700
_cell_angle_beta   80.39999902
_cell_angle_gamma   87.70499858
_symmetry_Int_Tables_number   1
_chemical_formula_structural   Co3H58C64(N4O7)2
_chemical_formula_sum   'Co3 H58 C64 N8 O14'
_cell_volume   1867.48646879
_cell_formula_units_Z   1
loop_
 _symmetry_equiv_pos_site_id
 _symmetry_equiv_pos_as_xyz
  1  'x, y, z'
loop_
 _atom_site_label
 _atom_site_fract_x
 _atom_site_fract_y
 _atom_site_fract_z
 _atom_site_charge
 Co 0.31389 0.60439 0.27743   0.898527
 Co 0.68611 0.39561 0.72257   0.898527
 Co 0.0 0.0 0.0   0.775662
 H 0.2943 0.0718 0.2636   0.122961
 H 0.2638 0.833 0.457   0.108961
 H 0.2355 0.2334 0.4374   0.130854
 H 0.1552 0.8381 0.5713   0.069177
 H 0.3185 0.8484 0.5611   0.061166
 H 0.4284 0.9116 0.6535   0.093177
 H 0.4139 0.9219 0.7716   0.11051
 H 0.9954 0.9202 0.7933   0.115232
 H 0.0122 0.9018 0.6762   0.094177
 H 0.5659 0.7797 0.1992   0.084702
 H 0.791 0.7641 0.1437   0.130776
 H 0.7793 0.3706 0.2269   0.119473
 H 0.5548 0.3968 0.2786   0.069376
 H 0.9946 0.4608 0.1598   0.077138
 H 0.0169 0.616 0.1476   0.08107
 H 0.9124 0.3648 0.0719   0.050997
 H 0.783 0.4617 0.0697   0.079323
 H 0.1471 0.4584 0.0515   0.062403
 H 0.1661 0.6146 0.0363   0.079701
 H 0.0505 0.7657 0.2368   0.081742
 H 0.8255 0.8075 0.2861   0.115614
 H 0.8671 0.5157 0.4537   0.130527
 H 0.0918 0.4822 0.3995   0.078501
 H 0.6144 0.7221 0.3743   0.06912
 H 0.6774 0.7774 0.4315   0.083932
 H 0.4969 0.5183 0.4036   0.059706
 H 0.6453 0.4515 0.4022   0.052759
 H 0.5222 0.7026 0.5326   0.064653
 H 0.4222 0.6713 0.4827   0.049678
 H 0.7057 0.9282 0.7364   0.122938
 H 0.7362 0.167 0.543   0.108953
 H 0.7645 0.7666 0.5626   0.13085
 H 0.8448 0.1619 0.4287   0.069161
 H 0.6815 0.1516 0.4389   0.061162
 H 0.5716 0.0884 0.3465   0.093174
 H 0.5861 0.0781 0.2284   0.110496
 H 0.0046 0.0798 0.2067   0.115212
 H 0.9878 0.0982 0.3238   0.094178
 H 0.4341 0.2203 0.8008   0.084699
 H 0.209 0.2359 0.8563   0.130776
 H 0.2207 0.6294 0.7731   0.119473
 H 0.4452 0.6032 0.7214   0.069373
 H 0.0054 0.5392 0.8402   0.077137
 H 0.9831 0.384 0.8524   0.08107
 H 0.0876 0.6352 0.9281   0.050989
 H 0.217 0.5383 0.9303   0.0793
 H 0.8529 0.5416 0.9485   0.062384
 H 0.8339 0.3854 0.9637   0.079689
 H 0.9495 0.2343 0.7632   0.081738
 H 0.1745 0.1925 0.7139   0.115614
 H 0.1329 0.4843 0.5463   0.130504
 H 0.9082 0.5178 0.6005   0.078491
 H 0.3856 0.2779 0.6257   0.06912
 H 0.3226 0.2226 0.5685   0.083928
 H 0.5031 0.4817 0.5964   0.059703
 H 0.3547 0.5485 0.5978   0.052749
 H 0.4778 0.2974 0.4674   0.064651
 H 0.5778 0.3287 0.5173   0.049673
 C 0.2652 0.3119 0.2975   0.639698
 C 0.2639 0.1742 0.3441   -0.071742
 C 0.2832 0.062 0.3127   -0.076015
 C 0.2853 0.9359 0.3561   -0.065787
 C 0.3112 0.813 0.3241   0.602357
 C 0.2644 0.9188 0.4289   -0.21847
 C 0.2442 0.0307 0.4606   0.255198
 C 0.2462 0.1581 0.417   -0.194584
 C 0.2315 0.8921 0.5761   0.098615
 C 0.2218 0.9051 0.6523   0.010543
 C 0.3415 0.912 0.6817   -0.128927
 C 0.3331 0.9194 0.7523   -0.047865
 C 0.2027 0.9232 0.7945   -0.123383
 C 0.0825 0.9173 0.7656   -0.048627
 C 0.0929 0.9072 0.6951   -0.11307
 C 0.1916 0.9327 0.8716   0.666435
 C 0.6087 0.6958 0.2041   0.180641
 C 0.7449 0.6874 0.1705   -0.19741
 C 0.8125 0.5635 0.1771   0.131289
 C 0.7378 0.4551 0.2195   -0.209932
 C 0.6024 0.4717 0.2507   0.188667
 C 0.9581 0.5477 0.1397   -0.010486
 C 0.8797 0.4515 0.0492   0.017427
 C 0.1102 0.5435 0.0291   0.013249
 C 0.0136 0.7146 0.2808   0.173328
 C 0.8776 0.7406 0.3105   -0.224199
 C 0.8199 0.6676 0.3759   0.142766
 C 0.9018 0.5681 0.4097   -0.227462
 C 0.0373 0.5483 0.3763   0.186428
 C 0.6736 0.6996 0.4105   -0.021778
 C 0.5668 0.4824 0.4326   0.00297
 C 0.493 0.6334 0.5108   0.00084
 C 0.7348 0.6881 0.7025   0.639698
 C 0.7361 0.8258 0.6559   -0.071746
 C 0.7168 0.938 0.6873   -0.076006
 C 0.7147 0.0641 0.6439   -0.065794
 C 0.6888 0.187 0.6759   0.602357
 C 0.7356 0.0812 0.5711   -0.218467
 C 0.7558 0.9693 0.5394   0.255189
 C 0.7538 0.8419 0.583   -0.194581
 C 0.7685 0.1079 0.4239   0.098621
 C 0.7782 0.0949 0.3477   0.010543
 C 0.6585 0.088 0.3183   -0.12893
 C 0.6669 0.0806 0.2477   -0.047863
 C 0.7973 0.0768 0.2055   -0.123387
 C 0.9175 0.0827 0.2344   -0.048618
 C 0.9071 0.0928 0.3049   -0.113084
 C 0.8084 0.0673 0.1284   0.666436
 C 0.3913 0.3042 0.7959   0.180642
 C 0.2551 0.3126 0.8295   -0.19741
 C 0.1875 0.4365 0.8229   0.131289
 C 0.2622 0.5449 0.7805   -0.209934
 C 0.3976 0.5283 0.7493   0.188668
 C 0.0419 0.4523 0.8603   -0.010483
 C 0.1203 0.5485 0.9508   0.017503
 C 0.8898 0.4565 0.9709   0.013324
 C 0.9864 0.2854 0.7192   0.173328
 C 0.1224 0.2594 0.6895   -0.224205
 C 0.1801 0.3324 0.6241   0.142764
 C 0.0982 0.4319 0.5903   -0.227455
 C 0.9627 0.4517 0.6237   0.186427
 C 0.3264 0.3004 0.5895   -0.021776
 C 0.4332 0.5176 0.5674   0.003009
 C 0.507 0.3666 0.4892   0.000878
 N 0.5353 0.5907 0.24289   -0.389245
 N 0.9638 0.5589 0.06265   -0.35255
 N 0.0933 0.6191 0.31283   -0.368753
 N 0.613 0.5886 0.46458   -0.283283
 N 0.4647 0.4093 0.75711   -0.389246
 N 0.0362 0.4411 0.93735   -0.352565
 N 0.9067 0.3809 0.68717   -0.368754
 N 0.387 0.4114 0.53542   -0.283291
 O 0.3022 0.4059 0.32374   -0.586895
 O 0.2313 0.3255 0.23729   -0.59535
 O 0.3218 0.8228 0.25753   -0.561911
 O 0.3206 0.7004 0.36468   -0.530778
 O 0.0847 0.9945 0.89611   -0.623917
 O 0.286 0.8828 0.90534   -0.574953
 O 0.2251 0.0244 0.53251   -0.276831
 O 0.6978 0.5941 0.67626   -0.586894
 O 0.7687 0.6745 0.76271   -0.595352
 O 0.6782 0.1772 0.74247   -0.561911
 O 0.6794 0.2996 0.63532   -0.530777
 O 0.9153 0.0055 0.10389   -0.623917
 O 0.714 0.1172 0.09466   -0.574954
 O 0.7749 0.9756 0.46749   -0.276831
