{'_ref': 'TBD', '_srcid': 'CAKYAQ_clean', 'submitters': [{'name': 'Dalar Nazarian Jeff Camp and David Sholl', 'email': 'dalar@gatech.edu jcamp6@gatech.edu'}], '_method': 'VASP DFT with PBE;DDEC'}
data_CdH11C9N2ClO3
_symmetry_space_group_name_H-M   'P 1'
_cell_length_a   5.87510000
_cell_length_b   15.06700000
_cell_length_c   16.41600000
_cell_angle_alpha   90.00000000
_cell_angle_beta   90.00000000
_cell_angle_gamma   90.00000000
_symmetry_Int_Tables_number   1
_chemical_formula_structural   CdH11C9N2ClO3
_chemical_formula_sum   'Cd4 H44 C36 N8 Cl4 O12'
_cell_volume   1453.14648199
_cell_formula_units_Z   4
loop_
 _symmetry_equiv_pos_site_id
 _symmetry_equiv_pos_as_xyz
  1  'x, y, z'
loop_
 _atom_site_label
 _atom_site_fract_x
 _atom_site_fract_y
 _atom_site_fract_z
 _atom_site_charge
 Cd 0.387 0.58859 0.96366   0.886388
 Cd 0.113 0.41141 0.46366   0.886388
 Cd 0.613 0.08859 0.53634   0.886388
 Cd 0.887 0.91141 0.03634   0.886388
 H 0.4708 0.3871 0.2461   0.137907
 H 0.652 0.3706 0.3692   0.063422
 H 0.1771 0.5051 0.2922   0.056176
 H 0.0119 0.5266 0.1674   0.12257
 H 0.7867 0.5546 0.0486   0.266809
 H 0.4353 0.47 0.1237   0.082407
 H 0.6373 0.4249 0.0776   0.122258
 H 0.7423 0.6387 0.1627   0.098399
 H 0.3819 0.7083 0.1827   0.069761
 H 0.3685 0.6054 0.1965   0.070426
 H 0.19 0.69 0.071   0.364476
 H 0.0292 0.6129 0.7461   0.137907
 H 0.848 0.6294 0.8692   0.063422
 H 0.3229 0.4949 0.7922   0.056176
 H 0.4881 0.4734 0.6674   0.12257
 H 0.7133 0.4454 0.5486   0.266809
 H 0.0647 0.53 0.6237   0.082407
 H 0.8627 0.5751 0.5776   0.122258
 H 0.7577 0.3613 0.6627   0.098399
 H 0.1181 0.2917 0.6827   0.069761
 H 0.1315 0.3946 0.6965   0.070426
 H 0.31 0.31 0.571   0.364476
 H 0.5292 0.8871 0.2539   0.137908
 H 0.348 0.8706 0.1308   0.063422
 H 0.8229 0.0051 0.2078   0.056176
 H 0.9881 0.0266 0.3326   0.12257
 H 0.2133 0.0546 0.4514   0.266809
 H 0.5647 0.97 0.3763   0.082407
 H 0.3627 0.9249 0.4224   0.122258
 H 0.2577 0.1387 0.3373   0.0984
 H 0.6181 0.2083 0.3173   0.069762
 H 0.6315 0.1054 0.3035   0.070426
 H 0.81 0.19 0.429   0.364476
 H 0.9708 0.1129 0.7539   0.137908
 H 0.152 0.1294 0.6308   0.063422
 H 0.6771 0.9949 0.7078   0.056176
 H 0.5119 0.9734 0.8326   0.12257
 H 0.2867 0.9454 0.9514   0.266809
 H 0.9353 0.03 0.8763   0.082407
 H 0.1373 0.0751 0.9224   0.122258
 H 0.2423 0.8613 0.8373   0.0984
 H 0.8819 0.7917 0.8173   0.069762
 H 0.8685 0.8946 0.8035   0.070426
 H 0.69 0.81 0.929   0.364476
 C 0.6135 0.4123 0.2543   -0.23109
 C 0.719 0.4601 0.1927   0.132925
 C 0.7238 0.4027 0.3282   0.196846
 C 0.0327 0.4819 0.2829   0.178988
 C 0.9352 0.495 0.2076   -0.224244
 C 0.5977 0.4736 0.1136   -0.028351
 C 0.629 0.6405 0.1189   -0.111811
 C 0.3925 0.6511 0.1558   0.148477
 C 0.6787 0.7196 0.0632   0.637231
 C 0.8865 0.5877 0.7543   -0.23109
 C 0.781 0.5399 0.6927   0.132925
 C 0.7762 0.5973 0.8282   0.196846
 C 0.4673 0.5181 0.7829   0.178988
 C 0.5648 0.505 0.7076   -0.224244
 C 0.9023 0.5264 0.6136   -0.028351
 C 0.871 0.3595 0.6189   -0.111811
 C 0.1075 0.3489 0.6558   0.148477
 C 0.8213 0.2804 0.5632   0.637231
 C 0.3865 0.9123 0.2457   -0.231091
 C 0.281 0.9601 0.3073   0.132925
 C 0.2762 0.9027 0.1718   0.196846
 C 0.9673 0.9819 0.2171   0.178988
 C 0.0648 0.995 0.2924   -0.224244
 C 0.4023 0.9736 0.3864   -0.028351
 C 0.371 0.1405 0.3811   -0.111811
 C 0.6075 0.1511 0.3442   0.148477
 C 0.3213 0.2196 0.4368   0.637231
 C 0.1135 0.0877 0.7457   -0.231091
 C 0.219 0.0399 0.8073   0.132925
 C 0.2238 0.0973 0.6718   0.196846
 C 0.5327 0.0181 0.7171   0.178988
 C 0.4352 0.005 0.7924   -0.224244
 C 0.0977 0.0264 0.8864   -0.028351
 C 0.129 0.8595 0.8811   -0.111811
 C 0.8925 0.8489 0.8442   0.148477
 C 0.1787 0.7804 0.9368   0.637231
 N 0.9311 0.4376 0.3433   -0.337997
 N 0.6443 0.5579 0.0702   -0.405622
 N 0.5689 0.5624 0.8433   -0.337997
 N 0.8557 0.4421 0.5702   -0.405622
 N 0.0689 0.9376 0.1567   -0.337997
 N 0.3557 0.0579 0.4298   -0.405622
 N 0.4311 0.0624 0.6567   -0.337997
 N 0.1443 0.9421 0.9298   -0.405622
 Cl 0.0991 0.46916 0.96741   -0.597793
 Cl 0.4009 0.53084 0.46741   -0.597793
 Cl 0.9009 0.96916 0.53259   -0.597793
 Cl 0.5991 0.03084 0.03259   -0.597793
 O 0.6636 0.7074 0.98762   -0.564944
 O 0.2195 0.6448 0.0946   -0.549548
 O 0.7181 0.7917 0.09764   -0.584066
 O 0.8364 0.2926 0.48762   -0.564944
 O 0.2805 0.3552 0.5946   -0.549548
 O 0.7819 0.2083 0.59764   -0.584066
 O 0.3364 0.2074 0.51238   -0.564944
 O 0.7805 0.1448 0.4054   -0.549548
 O 0.2819 0.2917 0.40236   -0.584066
 O 0.1636 0.7926 0.01238   -0.564944
 O 0.7195 0.8552 0.9054   -0.549548
 O 0.2181 0.7083 0.90236   -0.584066
