{'_ref': 'TBD', '_srcid': 'CAKYAQ_clean', 'submitters': [{'name': 'Dalar Nazarian Jeff Camp and David Sholl', 'email': 'dalar@gatech.edu jcamp6@gatech.edu'}], '_method': 'VASP DFT with PBE;DDEC'}
data_ZnH3C5N4ClO2
_symmetry_space_group_name_H-M   'P 1'
_cell_length_a   17.87090000
_cell_length_b   17.87089966
_cell_length_c   18.63820000
_cell_angle_alpha   90.00000000
_cell_angle_beta   90.00000000
_cell_angle_gamma   120.00000062
_symmetry_Int_Tables_number   1
_chemical_formula_structural   ZnH3C5N4ClO2
_chemical_formula_sum   'Zn18 H54 C90 N72 Cl18 O36'
_cell_volume   5154.98537825
_cell_formula_units_Z   18
loop_
 _symmetry_equiv_pos_site_id
 _symmetry_equiv_pos_as_xyz
  1  'x, y, z'
loop_
 _atom_site_label
 _atom_site_fract_x
 _atom_site_fract_y
 _atom_site_fract_z
 _atom_site_charge
 Zn 0.658663 0.044243 0.289349   0.891166
 Zn 0.955757 0.61442 0.289349   0.891138
 Zn 0.38558 0.341337 0.289349   0.891143
 Zn 0.32533 0.377576 0.622682   0.890984
 Zn 0.622424 0.947753 0.622682   0.890995
 Zn 0.052247 0.67467 0.622682   0.891004
 Zn 0.991996 0.71091 0.956016   0.891888
 Zn 0.28909 0.281087 0.956016   0.891865
 Zn 0.718913 0.008004 0.956016   0.89187
 Zn 0.341337 0.955757 0.710651   0.891166
 Zn 0.044243 0.38558 0.710651   0.891138
 Zn 0.61442 0.658663 0.710651   0.891143
 Zn 0.67467 0.622424 0.377318   0.890984
 Zn 0.377576 0.052247 0.377318   0.890995
 Zn 0.947753 0.32533 0.377318   0.891004
 Zn 0.008004 0.28909 0.043984   0.891888
 Zn 0.71091 0.718913 0.043984   0.891865
 Zn 0.281087 0.991996 0.043984   0.89187
 H 0.687 0.816 0.193   0.319617
 H 0.184 0.871 0.193   0.319619
 H 0.129 0.313 0.193   0.319618
 H 0.353667 0.149333 0.526333   0.320034
 H 0.850667 0.204333 0.526333   0.320031
 H 0.795667 0.646333 0.526333   0.319984
 H 0.020333 0.482667 0.859667   0.319447
 H 0.517333 0.537667 0.859667   0.319483
 H 0.462333 0.979667 0.859667   0.319511
 H 0.313 0.184 0.807   0.319617
 H 0.816 0.129 0.807   0.319619
 H 0.871 0.687 0.807   0.319618
 H 0.646333 0.850667 0.473667   0.320034
 H 0.149333 0.795667 0.473667   0.320031
 H 0.204333 0.353667 0.473667   0.319984
 H 0.979667 0.517333 0.140333   0.319447
 H 0.482667 0.462333 0.140333   0.319483
 H 0.537667 0.020333 0.140333   0.319511
 H 0.67 0.795 0.2718   0.336886
 H 0.205 0.875 0.2718   0.336879
 H 0.125 0.33 0.2718   0.336882
 H 0.336667 0.128333 0.605133   0.337425
 H 0.871667 0.208333 0.605133   0.33739
 H 0.791667 0.663333 0.605133   0.337388
 H 0.003333 0.461667 0.938467   0.337495
 H 0.538333 0.541667 0.938467   0.337513
 H 0.458333 0.996667 0.938467   0.337523
 H 0.33 0.205 0.7282   0.336886
 H 0.795 0.125 0.7282   0.336879
 H 0.875 0.67 0.7282   0.336882
 H 0.663333 0.871667 0.394867   0.337425
 H 0.128333 0.791667 0.394867   0.33739
 H 0.208333 0.336667 0.394867   0.337388
 H 0.996667 0.538333 0.061533   0.337495
 H 0.461667 0.458333 0.061533   0.337513
 H 0.541667 0.003333 0.061533   0.337523
 H 0.7279 0.8729 0.9644   0.333124
 H 0.1271 0.855 0.9644   0.333122
 H 0.145 0.2721 0.9644   0.333117
 H 0.394567 0.206233 0.297733   0.331713
 H 0.793767 0.188333 0.297733   0.331663
 H 0.811667 0.605433 0.297733   0.331671
 H 0.061233 0.539567 0.631067   0.331333
 H 0.460433 0.521667 0.631067   0.331336
 H 0.478333 0.938767 0.631067   0.331379
 H 0.2721 0.1271 0.0356   0.333124
 H 0.8729 0.145 0.0356   0.333122
 H 0.855 0.7279 0.0356   0.333117
 H 0.605433 0.793767 0.702267   0.331713
 H 0.206233 0.811667 0.702267   0.331663
 H 0.188333 0.394567 0.702267   0.331671
 H 0.938767 0.460433 0.368933   0.331333
 H 0.539567 0.478333 0.368933   0.331336
 H 0.521667 0.061233 0.368933   0.331379
 C 0.71679 0.07196 0.12337   0.445367
 C 0.92804 0.64483 0.12337   0.445367
 C 0.35517 0.28321 0.12337   0.445368
 C 0.383457 0.405293 0.456703   0.444941
 C 0.594707 0.978163 0.456703   0.445022
 C 0.021837 0.616543 0.456703   0.445011
 C 0.050123 0.738627 0.790037   0.445082
 C 0.261373 0.311497 0.790037   0.445016
 C 0.688503 0.949877 0.790037   0.445037
 C 0.28321 0.92804 0.87663   0.445367
 C 0.07196 0.35517 0.87663   0.445367
 C 0.64483 0.71679 0.87663   0.445368
 C 0.616543 0.594707 0.543297   0.444941
 C 0.405293 0.021837 0.543297   0.445022
 C 0.978163 0.383457 0.543297   0.445011
 C 0.949877 0.261373 0.209963   0.445082
 C 0.738627 0.688503 0.209963   0.445016
 C 0.311497 0.050123 0.209963   0.445037
 C 0.67505 0.90026 0.23746   0.597233
 C 0.09974 0.77479 0.23746   0.597231
 C 0.22521 0.32495 0.23746   0.597232
 C 0.341717 0.233593 0.570793   0.59649
 C 0.766407 0.108123 0.570793   0.596441
 C 0.891877 0.658283 0.570793   0.596427
 C 0.008383 0.566927 0.904127   0.596789
 C 0.433073 0.441457 0.904127   0.596783
 C 0.558543 0.991617 0.904127   0.59676
 C 0.32495 0.09974 0.76254   0.597232
 C 0.90026 0.22521 0.76254   0.59723
 C 0.77479 0.67505 0.76254   0.597231
 C 0.658283 0.766407 0.429207   0.596489
 C 0.233593 0.891877 0.429207   0.59644
 C 0.108123 0.341717 0.429207   0.596426
 C 0.991617 0.433073 0.095873   0.596788
 C 0.566927 0.558543 0.095873   0.596782
 C 0.441457 0.008383 0.095873   0.596759
 C 0.69486 0.95628 0.17406   -0.033124
 C 0.04372 0.73858 0.17406   -0.033127
 C 0.26142 0.30514 0.17406   -0.033129
 C 0.361527 0.289613 0.507393   -0.032462
 C 0.710387 0.071913 0.507393   -0.032463
 C 0.928087 0.638473 0.507393   -0.032481
 C 0.028193 0.622947 0.840727   -0.032534
 C 0.377053 0.405247 0.840727   -0.032485
 C 0.594753 0.971807 0.840727   -0.03247
 C 0.30514 0.04372 0.82594   -0.033124
 C 0.95628 0.26142 0.82594   -0.033127
 C 0.73858 0.69486 0.82594   -0.033129
 C 0.638473 0.710387 0.492607   -0.032462
 C 0.289613 0.928087 0.492607   -0.032463
 C 0.071913 0.361527 0.492607   -0.032481
 C 0.971807 0.377053 0.159273   -0.032534
 C 0.622947 0.594753 0.159273   -0.032485
 C 0.405247 0.028193 0.159273   -0.032469
 C 0.71244 0.9527 0.10232   0.032872
 C 0.0473 0.75974 0.10232   0.032875
 C 0.24026 0.28756 0.10232   0.032876
 C 0.379107 0.286033 0.435653   0.032306
 C 0.713967 0.093073 0.435653   0.032303
 C 0.906927 0.620893 0.435653   0.032277
 C 0.045773 0.619367 0.768987   0.032795
 C 0.380633 0.426407 0.768987   0.032754
 C 0.573593 0.954227 0.768987   0.032861
 C 0.28756 0.0473 0.89768   0.032872
 C 0.9527 0.24026 0.89768   0.032875
 C 0.75974 0.71244 0.89768   0.032876
 C 0.620893 0.713967 0.564347   0.032306
 C 0.286033 0.906927 0.564347   0.032303
 C 0.093073 0.379107 0.564347   0.032277
 C 0.954227 0.380633 0.231013   0.032795
 C 0.619367 0.573593 0.231013   0.032754
 C 0.426407 0.045773 0.231013   0.032861
 C 0.71656 0.88766 0.05636   0.59807
 C 0.11234 0.8289 0.05636   0.598059
 C 0.1711 0.28344 0.05636   0.598052
 C 0.383227 0.220993 0.389693   0.597166
 C 0.779007 0.162233 0.389693   0.597219
 C 0.837767 0.616773 0.389693   0.597258
 C 0.049893 0.554327 0.723027   0.597309
 C 0.445673 0.495567 0.723027   0.59729
 C 0.504433 0.950107 0.723027   0.597267
 C 0.28344 0.11234 0.94364   0.59807
 C 0.88766 0.1711 0.94364   0.598059
 C 0.8289 0.71656 0.94364   0.598052
 C 0.616773 0.779007 0.610307   0.597166
 C 0.220993 0.837767 0.610307   0.597219
 C 0.162233 0.383227 0.610307   0.597258
 C 0.950107 0.445673 0.276973   0.597309
 C 0.554327 0.504433 0.276973   0.59729
 C 0.495567 0.049893 0.276973   0.597267
 N 0.72624 0.0276 0.07024   -0.441642
 N 0.9724 0.69864 0.07024   -0.441647
 N 0.30136 0.27376 0.07024   -0.441645
 N 0.392907 0.360933 0.403573   -0.440021
 N 0.639067 0.031973 0.403573   -0.440064
 N 0.968027 0.607093 0.403573   -0.440016
 N 0.059573 0.694267 0.736907   -0.440432
 N 0.305733 0.365307 0.736907   -0.440362
 N 0.634693 0.940427 0.736907   -0.440407
 N 0.27376 0.9724 0.92976   -0.441642
 N 0.0276 0.30136 0.92976   -0.441647
 N 0.69864 0.72624 0.92976   -0.441645
 N 0.607093 0.639067 0.596427   -0.440021
 N 0.360933 0.968027 0.596427   -0.440064
 N 0.031973 0.392907 0.596427   -0.440016
 N 0.940427 0.305733 0.263093   -0.440432
 N 0.694267 0.634693 0.263093   -0.440362
 N 0.365307 0.059573 0.263093   -0.440407
 N 0.6977 0.03315 0.18639   -0.439027
 N 0.96685 0.66455 0.18639   -0.439019
 N 0.33545 0.3023 0.18639   -0.43902
 N 0.364367 0.366483 0.519723   -0.439618
 N 0.633517 0.997883 0.519723   -0.43966
 N 0.002117 0.635633 0.519723   -0.439635
 N 0.031033 0.699817 0.853057   -0.439354
 N 0.300183 0.331217 0.853057   -0.439378
 N 0.668783 0.968967 0.853057   -0.439448
 N 0.3023 0.96685 0.81361   -0.439027
 N 0.03315 0.33545 0.81361   -0.439019
 N 0.66455 0.6977 0.81361   -0.43902
 N 0.635633 0.633517 0.480277   -0.439618
 N 0.366483 0.002117 0.480277   -0.43966
 N 0.997883 0.364367 0.480277   -0.439635
 N 0.968967 0.300183 0.146943   -0.439354
 N 0.699817 0.668783 0.146943   -0.439378
 N 0.331217 0.031033 0.146943   -0.439448
 N 0.6745 0.82706 0.23181   -0.636088
 N 0.17294 0.84744 0.23181   -0.63608
 N 0.15256 0.3255 0.23181   -0.636081
 N 0.341167 0.160393 0.565143   -0.6374
 N 0.839607 0.180773 0.565143   -0.637403
 N 0.819227 0.658833 0.565143   -0.637372
 N 0.007833 0.493727 0.898477   -0.636804
 N 0.506273 0.514107 0.898477   -0.636811
 N 0.485893 0.992167 0.898477   -0.636819
 N 0.3255 0.17294 0.76819   -0.636088
 N 0.82706 0.15256 0.76819   -0.63608
 N 0.84744 0.6745 0.76819   -0.636081
 N 0.658833 0.839607 0.434857   -0.6374
 N 0.160393 0.819227 0.434857   -0.637403
 N 0.180773 0.341167 0.434857   -0.637372
 N 0.992167 0.506273 0.101523   -0.636803
 N 0.493727 0.485893 0.101523   -0.636811
 N 0.514107 0.007833 0.101523   -0.636819
 N 0.729 0.90785 0.98898   -0.789661
 N 0.09215 0.82115 0.98898   -0.789654
 N 0.17885 0.271 0.98898   -0.789624
 N 0.395667 0.241183 0.322313   -0.787863
 N 0.758817 0.154483 0.322313   -0.787815
 N 0.845517 0.604333 0.322313   -0.787802
 N 0.062333 0.574517 0.655647   -0.787356
 N 0.425483 0.487817 0.655647   -0.787341
 N 0.512183 0.937667 0.655647   -0.787439
 N 0.271 0.09215 0.01102   -0.789661
 N 0.90785 0.17885 0.01102   -0.789654
 N 0.82115 0.729 0.01102   -0.789624
 N 0.604333 0.758817 0.677687   -0.787863
 N 0.241183 0.845517 0.677687   -0.787815
 N 0.154483 0.395667 0.677687   -0.787802
 N 0.937667 0.425483 0.344353   -0.787356
 N 0.574517 0.512183 0.344353   -0.787341
 N 0.487817 0.062333 0.344353   -0.787439
 Cl 0.73082 0.1731 0.11179   -0.07865
 Cl 0.8269 0.55772 0.11179   -0.078647
 Cl 0.44228 0.26918 0.11179   -0.078648
 Cl 0.397487 0.506433 0.445123   -0.078499
 Cl 0.493567 0.891053 0.445123   -0.078492
 Cl 0.108947 0.602513 0.445123   -0.078467
 Cl 0.064153 0.839767 0.778457   -0.078749
 Cl 0.160233 0.224387 0.778457   -0.078754
 Cl 0.775613 0.935847 0.778457   -0.078793
 Cl 0.26918 0.8269 0.88821   -0.07865
 Cl 0.1731 0.44228 0.88821   -0.078647
 Cl 0.55772 0.73082 0.88821   -0.078648
 Cl 0.602513 0.493567 0.554877   -0.078499
 Cl 0.506433 0.108947 0.554877   -0.078492
 Cl 0.891053 0.397487 0.554877   -0.078467
 Cl 0.935847 0.160233 0.221543   -0.078749
 Cl 0.839767 0.775613 0.221543   -0.078754
 Cl 0.224387 0.064153 0.221543   -0.078793
 O 0.65961 0.92606 0.29536   -0.549704
 O 0.07394 0.73355 0.29536   -0.549702
 O 0.26645 0.34039 0.29536   -0.549702
 O 0.326277 0.259393 0.628693   -0.549071
 O 0.740607 0.066883 0.628693   -0.54899
 O 0.933117 0.673723 0.628693   -0.548987
 O 0.992943 0.592727 0.962027   -0.549694
 O 0.407273 0.400217 0.962027   -0.549734
 O 0.599783 0.007057 0.962027   -0.549714
 O 0.34039 0.07394 0.70464   -0.549704
 O 0.92606 0.26645 0.70464   -0.549702
 O 0.73355 0.65961 0.70464   -0.549702
 O 0.673723 0.740607 0.371307   -0.549071
 O 0.259393 0.933117 0.371307   -0.54899
 O 0.066883 0.326277 0.371307   -0.548987
 O 0.007057 0.407273 0.037973   -0.549694
 O 0.592727 0.599783 0.037973   -0.549734
 O 0.400217 0.992943 0.037973   -0.549714
 O 0.70787 0.8192 0.08612   -0.586948
 O 0.1808 0.88867 0.08612   -0.586922
 O 0.11133 0.29213 0.08612   -0.586928
 O 0.374537 0.152533 0.419453   -0.586113
 O 0.847467 0.222003 0.419453   -0.586183
 O 0.777997 0.625463 0.419453   -0.586259
 O 0.041203 0.485867 0.752787   -0.5867
 O 0.514133 0.555337 0.752787   -0.586672
 O 0.444663 0.958797 0.752787   -0.586632
 O 0.29213 0.1808 0.91388   -0.586948
 O 0.8192 0.11133 0.91388   -0.586922
 O 0.88867 0.70787 0.91388   -0.586928
 O 0.625463 0.847467 0.580547   -0.586113
 O 0.152533 0.777997 0.580547   -0.586183
 O 0.222003 0.374537 0.580547   -0.586259
 O 0.958797 0.514133 0.247213   -0.5867
 O 0.485867 0.444663 0.247213   -0.586672
 O 0.555337 0.041203 0.247213   -0.586632
