{'_ref': 'TBD', '_srcid': 'CAKYAQ_clean', 'submitters': [{'name': 'Dalar Nazarian Jeff Camp and David Sholl', 'email': 'dalar@gatech.edu jcamp6@gatech.edu'}], '_method': 'VASP DFT with PBE;DDEC'}
data_NiH34C41(NO)4
_symmetry_space_group_name_H-M   'P 1'
_cell_length_a   10.59300000
_cell_length_b   17.00500030
_cell_length_c   24.00130000
_cell_angle_alpha   91.21500079
_cell_angle_beta   90.00000000
_cell_angle_gamma   90.00000000
_symmetry_Int_Tables_number   1
_chemical_formula_structural   NiH34C41(NO)4
_chemical_formula_sum   'Ni4 H136 C164 N16 O16'
_cell_volume   4322.47735257
_cell_formula_units_Z   4
loop_
 _symmetry_equiv_pos_site_id
 _symmetry_equiv_pos_as_xyz
  1  'x, y, z'
loop_
 _atom_site_label
 _atom_site_fract_x
 _atom_site_fract_y
 _atom_site_fract_z
 _atom_site_charge
 Ni 0.31313 0.25007 0.37791   0.784856
 Ni 0.81313 0.24993 0.12209   0.784856
 Ni 0.68687 0.74993 0.62209   0.784856
 Ni 0.18687 0.75007 0.87791   0.784856
 H 0.0174 0.237 0.3891   0.101504
 H 0.8679 0.2391 0.4584   0.144372
 H 0.1394 0.2595 0.5739   0.132165
 H 0.2884 0.2621 0.5045   0.102407
 H 0.7961 0.1498 0.5407   0.104209
 H 0.6396 0.1499 0.6063   0.108675
 H 0.783 0.347 0.6748   0.091627
 H 0.9422 0.3466 0.6092   0.09752
 H 0.2177 0.8167 0.7525   0.090138
 H 0.3161 0.9181 0.71   0.148483
 H 0.4305 0.000700000000002 0.858   0.12681
 H 0.3445 0.8928 0.9002   0.082429
 H 0.6163 0.02 0.7764   0.108089
 H 0.7044 0.1341 0.7408   0.106258
 H 0.3665 0.1955 0.6786   0.12107
 H 0.2794 0.0809 0.7136   0.099327
 H 0.2834 0.5888 0.9056   0.088227
 H 0.3684 0.4823 0.8659   0.117952
 H 0.3771 0.5916 0.7181   0.141617
 H 0.2843 0.6974 0.7592   0.082327
 H 0.4555 0.3812 0.8299   0.084273
 H 0.5368 0.2726 0.7886   0.11031
 H 0.5445 0.3846 0.642   0.123724
 H 0.4589 0.4954 0.6839   0.112544
 H 0.5797 0.3727 0.5168   0.067387
 H 0.4462 0.4104 0.5298   0.076969
 H 0.5958 0.4742 0.4401   0.099859
 H 0.3348 0.4851 0.4778   0.084122
 H 0.3713 0.5189 0.4189   0.056141
 H 0.5549 0.973 0.4066   0.061032
 H 0.4172 0.9762 0.4303   0.051437
 H 0.6181 0.0684 0.4675   0.072508
 H 0.4836 0.1301 0.5325   0.063371
 H 0.3696 0.078 0.5124   0.060359
 H 0.5174 0.263 0.1109   0.101504
 H 0.3679 0.2609 0.0416   0.144372
 H 0.6394 0.2405 0.9261   0.132166
 H 0.7884 0.2379 0.9955   0.102407
 H 0.2961 0.3502 0.9593   0.104207
 H 0.1396 0.3501 0.8937   0.108675
 H 0.283 0.153 0.8252   0.091627
 H 0.4422 0.1534 0.8908   0.097518
 H 0.7177 0.6833 0.7475   0.090138
 H 0.8161 0.5819 0.79   0.148483
 H 0.9305 0.4993 0.642   0.126807
 H 0.8445 0.6072 0.5998   0.082429
 H 0.1163 0.48 0.7236   0.108089
 H 0.2044 0.3659 0.7592   0.106258
 H 0.8665 0.3045 0.8214   0.121071
 H 0.7794 0.4191 0.7864   0.099327
 H 0.7834 0.9112 0.5944   0.088226
 H 0.8684 0.0177 0.6341   0.11795
 H 0.8771 0.9084 0.7819   0.141617
 H 0.7843 0.8026 0.7408   0.082327
 H 0.9555 0.1188 0.6701   0.084273
 H 0.0368 0.2274 0.7114   0.11031
 H 0.0445 0.1154 0.858   0.123724
 H 0.9589 0.0046 0.8161   0.112544
 H 0.0797 0.1273 0.9832   0.067387
 H 0.9462 0.0896 0.9702   0.076969
 H 0.0958 0.0258 0.0599   0.099859
 H 0.8348 0.0149 0.0222   0.084121
 H 0.8713 0.9811 0.0811   0.056141
 H 0.0549 0.527 0.0934   0.061032
 H 0.9172 0.5238 0.0697   0.051437
 H 0.1181 0.4316 0.0325   0.072508
 H 0.9836 0.3699 0.9675   0.063371
 H 0.8696 0.422 0.9876   0.060359
 H 0.9826 0.763 0.6109   0.101505
 H 0.1321 0.7609 0.5416   0.144372
 H 0.8606 0.7405 0.4261   0.132165
 H 0.7116 0.7379 0.4955   0.102407
 H 0.2039 0.8502 0.4593   0.104208
 H 0.3604 0.8501 0.3937   0.108675
 H 0.217 0.653 0.3252   0.091627
 H 0.0578 0.6534 0.3908   0.09752
 H 0.7823 0.1833 0.2475   0.090139
 H 0.6839 0.0819 0.29   0.148483
 H 0.5695 0.9993 0.142   0.12681
 H 0.6555 0.1072 0.0998   0.082428
 H 0.3837 0.98 0.2236   0.108089
 H 0.2956 0.8659 0.2592   0.106258
 H 0.6335 0.8045 0.3214   0.12107
 H 0.7206 0.9191 0.2864   0.099327
 H 0.7166 0.4112 0.0944   0.088226
 H 0.6316 0.5177 0.1341   0.117952
 H 0.6229 0.4084 0.2819   0.141617
 H 0.7157 0.3026 0.2408   0.082327
 H 0.5445 0.6188 0.1701   0.084273
 H 0.4632 0.7274 0.2114   0.11031
 H 0.4555 0.6154 0.358   0.123724
 H 0.5411 0.5046 0.3161   0.112544
 H 0.4203 0.6273 0.4832   0.067387
 H 0.5538 0.5896 0.4702   0.076969
 H 0.4042 0.5258 0.5599   0.099858
 H 0.6652 0.5149 0.5222   0.084119
 H 0.6287 0.4811 0.5811   0.056141
 H 0.4451 0.027 0.5934   0.061032
 H 0.5828 0.0238 0.5697   0.051437
 H 0.3819 0.9316 0.5325   0.072507
 H 0.5164 0.8699 0.4675   0.063371
 H 0.6304 0.922 0.4876   0.060357
 H 0.4826 0.737 0.8891   0.101505
 H 0.6321 0.7391 0.9584   0.144372
 H 0.3606 0.7595 0.0739   0.132166
 H 0.2116 0.7621 0.0045   0.102407
 H 0.7039 0.6498 0.0407   0.104207
 H 0.8604 0.6499 0.1063   0.108675
 H 0.717 0.847 0.1748   0.091627
 H 0.5578 0.8466 0.1092   0.097518
 H 0.2823 0.3167 0.2525   0.090139
 H 0.1839 0.4181 0.21   0.148483
 H 0.0695 0.5007 0.358   0.126807
 H 0.1555 0.3928 0.4002   0.082428
 H 0.8837 0.52 0.2764   0.108089
 H 0.7956 0.6341 0.2408   0.106258
 H 0.1335 0.6955 0.1786   0.121071
 H 0.2206 0.5809 0.2136   0.099327
 H 0.2166 0.0888 0.4056   0.088225
 H 0.1316 0.9823 0.3659   0.11795
 H 0.1229 0.0916 0.2181   0.141617
 H 0.2157 0.1974 0.2592   0.082327
 H 0.0445 0.8812 0.3299   0.084273
 H 0.9632 0.7726 0.2886   0.11031
 H 0.9555 0.8846 0.142   0.123724
 H 0.0411 0.9954 0.1839   0.112544
 H 0.9203 0.8727 0.0168   0.067387
 H 0.0538 0.9104 0.0298   0.076969
 H 0.9042 0.9742 0.9401   0.099858
 H 0.1652 0.9851 0.9778   0.084118
 H 0.1287 0.0189 0.9189   0.056141
 H 0.9451 0.473 0.9066   0.061032
 H 0.0828 0.4762 0.9303   0.051437
 H 0.8819 0.5684 0.9675   0.072507
 H 0.0164 0.6301 0.0325   0.063371
 H 0.1304 0.578 0.0124   0.060357
 C 0.0419 0.24277 0.42612   0.127832
 C 0.9528 0.24344 0.46777   -0.204289
 C 0.9866 0.25046 0.52314   0.12527
 C 0.1145 0.25626 0.53676   -0.227738
 C 0.2035 0.25713 0.49516   0.175971
 C 0.8848 0.24856 0.56668   -0.02428
 C 0.7936 0.18995 0.56753   -0.075276
 C 0.6997 0.18976 0.607   -0.17256
 C 0.6938 0.24863 0.64791   0.157671
 C 0.7856 0.30712 0.64769   -0.167107
 C 0.881 0.30736 0.60814   -0.083461
 C 0.2637 0.85271 0.77404   0.169144
 C 0.32 0.91452 0.74857   -0.178391
 C 0.3808 0.97029 0.77853   0.120162
 C 0.3893 0.9624 0.83658   -0.213789
 C 0.3367 0.89812 0.86183   0.169033
 C 0.4394 0.03917 0.74868   0.028114
 C 0.5663 0.05488 0.75685   -0.093561
 C 0.6191 0.12358 0.73545   -0.155868
 C 0.5445 0.17643 0.70608   0.142091
 C 0.4168 0.16056 0.69799   -0.151318
 C 0.3646 0.09174 0.71916   -0.081093
 C 0.3016 0.58835 0.86768   0.170871
 C 0.3527 0.52603 0.84435   -0.206425
 C 0.3854 0.52319 0.78629   0.110918
 C 0.3575 0.59058 0.75582   -0.194275
 C 0.3028 0.65366 0.7804   0.175517
 C 0.4466 0.45212 0.76142   -0.060691
 C 0.4733 0.38161 0.79196   -0.046346
 C 0.5223 0.31728 0.76792   -0.187098
 C 0.5514 0.31783 0.71163   0.163401
 C 0.5263 0.38504 0.67987   -0.197454
 C 0.4749 0.45116 0.70488   -0.037002
 C 0.4876 0.37999 0.41383   0.681577
 C 0.5289 0.41993 0.51407   -0.122937
 C 0.5188 0.44737 0.45186   -0.169505
 C 0.4029 0.50586 0.4555   -0.137498
 C 0.4947 0.12693 0.41716   0.676126
 C 0.5055 0.98229 0.4401   -0.094993
 C 0.5273 0.06376 0.46041   -0.15797
 C 0.4603 0.07843 0.51793   -0.125479
 C 0.5419 0.25723 0.07388   0.127832
 C 0.4528 0.25656 0.03223   -0.204289
 C 0.4866 0.24954 0.97686   0.12527
 C 0.6145 0.24374 0.96324   -0.227738
 C 0.7035 0.24287 0.00484   0.175971
 C 0.3848 0.25144 0.93332   -0.02428
 C 0.2936 0.31005 0.93247   -0.075276
 C 0.1997 0.31024 0.893   -0.17256
 C 0.1938 0.25137 0.85209   0.157671
 C 0.2856 0.19288 0.85231   -0.167107
 C 0.381 0.19264 0.89186   -0.08346
 C 0.7637 0.64729 0.72596   0.169144
 C 0.82 0.58548 0.75143   -0.17839
 C 0.8808 0.52971 0.72147   0.120162
 C 0.8893 0.5376 0.66342   -0.213787
 C 0.8367 0.60188 0.63817   0.169033
 C 0.9394 0.46083 0.75132   0.028114
 C 0.0663 0.44512 0.74315   -0.093561
 C 0.1191 0.37642 0.76455   -0.155868
 C 0.0445 0.32357 0.79392   0.142091
 C 0.9168 0.33944 0.80201   -0.151318
 C 0.8646 0.40826 0.78084   -0.081093
 C 0.8016 0.91165 0.63232   0.170871
 C 0.8527 0.97397 0.65565   -0.206425
 C 0.8854 0.97681 0.71371   0.110918
 C 0.8575 0.90942 0.74418   -0.194275
 C 0.8028 0.84634 0.7196   0.175517
 C 0.9466 0.04788 0.73858   -0.060691
 C 0.9733 0.11839 0.70804   -0.046346
 C 0.0223 0.18272 0.73208   -0.187098
 C 0.0514 0.18217 0.78837   0.163401
 C 0.0263 0.11496 0.82013   -0.197454
 C 0.9749 0.04884 0.79512   -0.037002
 C 0.9876 0.12001 0.08617   0.681577
 C 0.0289 0.08007 0.98593   -0.122937
 C 0.0188 0.05263 0.04814   -0.169505
 C 0.9029 0.99414 0.0445   -0.137497
 C 0.9947 0.37307 0.08284   0.676126
 C 0.0055 0.51771 0.0599   -0.094993
 C 0.0273 0.43624 0.03959   -0.15797
 C 0.9603 0.42157 0.98207   -0.125479
 C 0.9581 0.75723 0.57388   0.127831
 C 0.0472 0.75656 0.53223   -0.204289
 C 0.0134 0.74954 0.47686   0.12527
 C 0.8855 0.74374 0.46324   -0.227738
 C 0.7965 0.74287 0.50484   0.175971
 C 0.1152 0.75144 0.43332   -0.02428
 C 0.2064 0.81005 0.43247   -0.075276
 C 0.3003 0.81024 0.393   -0.17256
 C 0.3062 0.75137 0.35209   0.157671
 C 0.2144 0.69288 0.35231   -0.167107
 C 0.119 0.69264 0.39186   -0.08346
 C 0.7363 0.14729 0.22596   0.169144
 C 0.68 0.08548 0.25143   -0.178391
 C 0.6192 0.02971 0.22147   0.120162
 C 0.6107 0.0376 0.16342   -0.213788
 C 0.6633 0.10188 0.13817   0.169033
 C 0.5606 0.96083 0.25132   0.028114
 C 0.4337 0.94512 0.24315   -0.093561
 C 0.3809 0.87642 0.26455   -0.155868
 C 0.4555 0.82357 0.29392   0.142091
 C 0.5832 0.83944 0.30201   -0.151318
 C 0.6354 0.90826 0.28084   -0.081093
 C 0.6984 0.41165 0.13232   0.170871
 C 0.6473 0.47397 0.15565   -0.206425
 C 0.6146 0.47681 0.21371   0.110918
 C 0.6425 0.40942 0.24418   -0.194275
 C 0.6972 0.34634 0.2196   0.175517
 C 0.5534 0.54788 0.23858   -0.060691
 C 0.5267 0.61839 0.20804   -0.046346
 C 0.4777 0.68272 0.23208   -0.187098
 C 0.4486 0.68217 0.28837   0.163401
 C 0.4737 0.61496 0.32013   -0.197454
 C 0.5251 0.54884 0.29512   -0.037002
 C 0.5124 0.62001 0.58617   0.681577
 C 0.4711 0.58007 0.48593   -0.122936
 C 0.4812 0.55263 0.54814   -0.169505
 C 0.5971 0.49414 0.5445   -0.137496
 C 0.5053 0.87307 0.58284   0.676126
 C 0.4945 0.01771 0.5599   -0.094993
 C 0.4727 0.93624 0.53959   -0.15797
 C 0.5397 0.92157 0.48207   -0.125478
 C 0.4581 0.74277 0.92612   0.127831
 C 0.5472 0.74344 0.96777   -0.204289
 C 0.5134 0.75046 0.02314   0.12527
 C 0.3855 0.75626 0.03676   -0.227738
 C 0.2965 0.75713 0.99516   0.175971
 C 0.6152 0.74856 0.06668   -0.02428
 C 0.7064 0.68995 0.06753   -0.075275
 C 0.8003 0.68976 0.107   -0.17256
 C 0.8062 0.74863 0.14791   0.157671
 C 0.7144 0.80712 0.14769   -0.167107
 C 0.619 0.80736 0.10814   -0.08346
 C 0.2363 0.35271 0.27404   0.169144
 C 0.18 0.41452 0.24857   -0.17839
 C 0.1192 0.47029 0.27853   0.120162
 C 0.1107 0.4624 0.33658   -0.213787
 C 0.1633 0.39812 0.36183   0.169033
 C 0.0606 0.53917 0.24868   0.028114
 C 0.9337 0.55488 0.25685   -0.093561
 C 0.8809 0.62358 0.23545   -0.155868
 C 0.9555 0.67643 0.20608   0.142091
 C 0.0832 0.66056 0.19799   -0.151318
 C 0.1354 0.59174 0.21916   -0.081093
 C 0.1984 0.08835 0.36768   0.170871
 C 0.1473 0.02603 0.34435   -0.206425
 C 0.1146 0.02319 0.28629   0.110918
 C 0.1425 0.09058 0.25582   -0.194275
 C 0.1972 0.15366 0.2804   0.175517
 C 0.0534 0.95212 0.26142   -0.060691
 C 0.0267 0.88161 0.29196   -0.046346
 C 0.9777 0.81728 0.26792   -0.187098
 C 0.9486 0.81783 0.21163   0.163401
 C 0.9737 0.88504 0.17987   -0.197454
 C 0.0251 0.95116 0.20488   -0.037002
 C 0.0124 0.87999 0.91383   0.681577
 C 0.9711 0.91993 0.01407   -0.122937
 C 0.9812 0.94737 0.95186   -0.169505
 C 0.0971 0.00586 0.9555   -0.137496
 C 0.0053 0.62693 0.91716   0.676126
 C 0.9945 0.48229 0.9401   -0.094993
 C 0.9727 0.56376 0.96041   -0.15797
 C 0.0397 0.57843 0.01793   -0.125478
 N 0.1692 0.2508 0.43971   -0.305094
 N 0.2729 0.84185 0.831   -0.365533
 N 0.2738 0.65468 0.83611   -0.390508
 N 0.5962 0.24773 0.68731   -0.122742
 N 0.6692 0.2492 0.06029   -0.305094
 N 0.7729 0.65815 0.669   -0.365533
 N 0.7738 0.84532 0.66389   -0.390508
 N 0.0962 0.25227 0.81269   -0.122742
 N 0.8308 0.7492 0.56029   -0.305094
 N 0.7271 0.15815 0.169   -0.365533
 N 0.7262 0.34532 0.16389   -0.390508
 N 0.4038 0.75227 0.31269   -0.122742
 N 0.3308 0.7508 0.93971   -0.305094
 N 0.2271 0.34185 0.331   -0.365533
 N 0.2262 0.15468 0.33611   -0.390508
 N 0.9038 0.74773 0.18731   -0.122742
 O 0.3962 0.33736 0.42408   -0.599875
 O 0.5626 0.37052 0.37295   -0.682668
 O 0.40267 0.16881 0.42718   -0.584397
 O 0.56367 0.12925 0.37461   -0.680572
 O 0.8962 0.16264 0.07592   -0.599875
 O 0.0626 0.12948 0.12705   -0.682668
 O 0.90267 0.33119 0.07282   -0.584397
 O 0.06367 0.37075 0.12539   -0.680572
 O 0.6038 0.66264 0.57592   -0.599875
 O 0.4374 0.62948 0.62705   -0.682668
 O 0.59733 0.83119 0.57282   -0.584397
 O 0.43633 0.87075 0.62539   -0.680572
 O 0.1038 0.83736 0.92408   -0.599875
 O 0.9374 0.87052 0.87295   -0.682668
 O 0.09733 0.66881 0.92718   -0.584397
 O 0.93633 0.62925 0.87461   -0.680572
