{'_ref': 'TBD', '_srcid': 'CAKYAQ_clean', 'submitters': [{'name': 'Dalar Nazarian Jeff Camp and David Sholl', 'email': 'dalar@gatech.edu jcamp6@gatech.edu'}], '_method': 'VASP DFT with PBE;DDEC'}
data_Zn3H32C52(NO6)2
_symmetry_space_group_name_H-M   'P 1'
_cell_length_a   14.60800006
_cell_length_b   18.04100000
_cell_length_c   24.80300000
_cell_angle_alpha   90.00000000
_cell_angle_beta   90.00500083
_cell_angle_gamma   90.00000000
_symmetry_Int_Tables_number   1
_chemical_formula_structural   Zn3H32C52(NO6)2
_chemical_formula_sum   'Zn12 H128 C208 N8 O48'
_cell_volume   6536.65524318
_cell_formula_units_Z   4
loop_
 _symmetry_equiv_pos_site_id
 _symmetry_equiv_pos_as_xyz
  1  'x, y, z'
loop_
 _atom_site_label
 _atom_site_fract_x
 _atom_site_fract_y
 _atom_site_fract_z
 _atom_site_charge
 Zn 0.53967 0.06459 0.85054   0.939677
 Zn 0.50621 0.25634 0.84907   1.139334
 Zn 0.46857 0.44992 0.85011   0.942129
 Zn 0.03967 0.43541 0.35054   0.939677
 Zn 0.00621 0.24366 0.34907   1.139334
 Zn 0.96857 0.05008 0.35011   0.942129
 Zn 0.96033 0.56459 0.64946   0.939677
 Zn 0.99379 0.75634 0.65093   1.139334
 Zn 0.03143 0.94992 0.64989   0.942129
 Zn 0.46033 0.93541 0.14946   0.939677
 Zn 0.49379 0.74366 0.15093   1.139334
 Zn 0.53143 0.55008 0.14989   0.942129
 H 0.486 0.9433 0.9249   0.08621
 H 0.4672 0.8154 0.9269   0.13564
 H 0.556 0.8105 0.7711   0.132709
 H 0.5718 0.937 0.7745   0.096697
 H 0.5239 0.5713 0.9239   0.08698
 H 0.5443 0.6984 0.9254   0.129782
 H 0.4473 0.7064 0.7724   0.123467
 H 0.429 0.5786 0.7751   0.093048
 H 0.8328 0.0937 0.8186   0.099941
 H 0.9829 0.1385 0.8146   0.099645
 H 0.9002 0.3319 0.8824   0.114324
 H 0.7501 0.287 0.8863   0.109891
 H 0.0193 0.3791 0.8481   0.109502
 H 0.1673 0.4247 0.8451   0.0965
 H 0.2656 0.2166 0.8325   0.109916
 H 0.1176 0.1694 0.8398   0.111807
 H 0.375 0.0264 0.9877   0.105355
 H 0.286 0.0263 0.0655   0.113113
 H 0.2616 0.2504 0.0563   0.114242
 H 0.346 0.2493 0.9758   0.114363
 H 0.1566 0.0358 0.11   0.106656
 H 0.0784 0.0302 0.192   0.100805
 H 0.1808 0.2305 0.2325   0.109465
 H 0.2524 0.2392 0.1489   0.104881
 H 0.3358 0.0444 0.7298   0.101593
 H 0.2405 0.0448 0.655   0.101668
 H 0.346 0.2419 0.6089   0.111446
 H 0.4378 0.2444 0.6862   0.108126
 H 0.2231 0.0265 0.5694   0.116668
 H 0.1312 0.0203 0.4929   0.103368
 H 0.1219 0.244 0.4864   0.111645
 H 0.2166 0.2508 0.5616   0.108686
 H 0.986 0.5567 0.4249   0.08621
 H 0.9672 0.6846 0.4269   0.13564
 H 0.056 0.6895 0.2711   0.132709
 H 0.0718 0.563 0.2745   0.096697
 H 0.0239 0.9287 0.4239   0.08698
 H 0.0443 0.8016 0.4254   0.129782
 H 0.9473 0.7936 0.2724   0.123467
 H 0.929 0.9214 0.2751   0.093048
 H 0.3328 0.4063 0.3186   0.099941
 H 0.4829 0.3615 0.3146   0.099645
 H 0.4002 0.1681 0.3824   0.114324
 H 0.2501 0.213 0.3863   0.109891
 H 0.5193 0.1209 0.3481   0.109502
 H 0.6673 0.0753 0.3451   0.0965
 H 0.7656 0.2834 0.3325   0.109916
 H 0.6176 0.3306 0.3398   0.111807
 H 0.875 0.4736 0.4877   0.105355
 H 0.786 0.4737 0.5655   0.113113
 H 0.7616 0.2496 0.5563   0.114242
 H 0.846 0.2507 0.4758   0.114363
 H 0.6566 0.4642 0.61   0.106656
 H 0.5784 0.4698 0.692   0.100805
 H 0.6808 0.2695 0.7325   0.109465
 H 0.7524 0.2608 0.6489   0.104881
 H 0.8358 0.4556 0.2298   0.101593
 H 0.7405 0.4552 0.155   0.101668
 H 0.846 0.2581 0.1089   0.111446
 H 0.9378 0.2556 0.1862   0.108126
 H 0.7231 0.4735 0.0694   0.116668
 H 0.6312 0.4797 0.9929   0.103368
 H 0.6219 0.256 0.9864   0.111645
 H 0.7166 0.2492 0.0616   0.108686
 H 0.014 0.4433 0.5751   0.08621
 H 0.0328 0.3154 0.5731   0.135639
 H 0.944 0.3105 0.7289   0.132709
 H 0.9282 0.437 0.7255   0.096698
 H 0.9761 0.0713 0.5761   0.08698
 H 0.9557 0.1984 0.5746   0.129782
 H 0.0527 0.2064 0.7276   0.123467
 H 0.071 0.0786 0.7249   0.093048
 H 0.6672 0.5937 0.6814   0.099941
 H 0.5171 0.6385 0.6854   0.099645
 H 0.5998 0.8319 0.6176   0.114324
 H 0.7499 0.787 0.6137   0.109891
 H 0.4807 0.8791 0.6519   0.109502
 H 0.3327 0.9247 0.6549   0.0965
 H 0.2344 0.7166 0.6675   0.109916
 H 0.3824 0.6694 0.6602   0.111807
 H 0.125 0.5264 0.5123   0.105355
 H 0.214 0.5263 0.4345   0.113113
 H 0.2384 0.7504 0.4437   0.114242
 H 0.154 0.7493 0.5242   0.114363
 H 0.3434 0.5358 0.39   0.106656
 H 0.4216 0.5302 0.308   0.100805
 H 0.3192 0.7305 0.2675   0.109465
 H 0.2476 0.7392 0.3511   0.104881
 H 0.1642 0.5444 0.7702   0.101593
 H 0.2595 0.5448 0.845   0.101668
 H 0.154 0.7419 0.8911   0.111447
 H 0.0622 0.7444 0.8138   0.108126
 H 0.2769 0.5265 0.9306   0.116668
 H 0.3688 0.5203 0.0071   0.103368
 H 0.3781 0.744 0.0136   0.111645
 H 0.2834 0.7508 0.9384   0.108686
 H 0.514 0.0567 0.0751   0.08621
 H 0.5328 0.1846 0.0731   0.135639
 H 0.444 0.1895 0.2289   0.132709
 H 0.4282 0.063 0.2255   0.096698
 H 0.4761 0.4287 0.0761   0.08698
 H 0.4557 0.3016 0.0746   0.129782
 H 0.5527 0.2936 0.2276   0.123467
 H 0.571 0.4214 0.2249   0.093048
 H 0.1672 0.9063 0.1814   0.099941
 H 0.0171 0.8615 0.1854   0.099645
 H 0.0998 0.6681 0.1176   0.114324
 H 0.2499 0.713 0.1137   0.109891
 H 0.9807 0.6209 0.1519   0.109502
 H 0.8327 0.5753 0.1549   0.0965
 H 0.7344 0.7834 0.1675   0.109916
 H 0.8824 0.8306 0.1602   0.111807
 H 0.625 0.9736 0.0123   0.105355
 H 0.714 0.9737 0.9345   0.113113
 H 0.7384 0.7496 0.9437   0.114242
 H 0.654 0.7507 0.0242   0.114363
 H 0.8434 0.9642 0.89   0.106656
 H 0.9216 0.9698 0.808   0.100805
 H 0.8192 0.7695 0.7675   0.109465
 H 0.7476 0.7608 0.8511   0.104881
 H 0.6642 0.9556 0.2702   0.101593
 H 0.7595 0.9552 0.345   0.101668
 H 0.654 0.7581 0.3911   0.111447
 H 0.5622 0.7556 0.3138   0.108126
 H 0.7769 0.9735 0.4306   0.116668
 H 0.8688 0.9797 0.5071   0.103368
 H 0.8781 0.756 0.5136   0.111645
 H 0.7834 0.7492 0.4384   0.108686
 C 0.5008 0.9153 0.89368   0.177219
 C 0.4887 0.8392 0.89512   -0.198273
 C 0.5089 0.79811 0.84899   0.108215
 C 0.5412 0.8366 0.80322   -0.196532
 C 0.5509 0.9116 0.8057   0.177401
 C 0.5083 0.5993 0.89275   0.177426
 C 0.5204 0.675 0.89405   -0.197646
 C 0.4973 0.71671 0.8491   0.10882
 C 0.4632 0.6796 0.80404   -0.190695
 C 0.4529 0.6033 0.80586   0.17212
 C 0.6813 0.1574 0.85653   0.690884
 C 0.777 0.1861 0.85253   -0.14685
 C 0.8463 0.1422 0.83131   -0.031592
 C 0.9358 0.1692 0.82866   -0.158922
 C 0.9569 0.24078 0.84648   0.043839
 C 0.8868 0.2838 0.86887   -0.150087
 C 0.7973 0.2569 0.8715   -0.017128
 C 0.0526 0.2694 0.84285   0.040663
 C 0.0693 0.3456 0.8453   -0.150941
 C 0.1572 0.3727 0.84371   -0.032024
 C 0.2312 0.325 0.84014   -0.141398
 C 0.2154 0.2496 0.83685   -0.016667
 C 0.1272 0.2215 0.83984   -0.149383
 C 0.3274 0.3536 0.83878   0.690407
 C 0.4259 0.1373 0.92454   0.692606
 C 0.3684 0.1384 0.9745   -0.141458
 C 0.3511 0.0716 0.00136   -0.047915
 C 0.2991 0.0718 0.04784   -0.143488
 C 0.2654 0.1384 0.06937   0.049868
 C 0.2838 0.2048 0.04223   -0.153567
 C 0.3347 0.2043 0.9945   -0.037383
 C 0.2139 0.137 0.12128   0.047607
 C 0.1611 0.0759 0.13469   -0.139165
 C 0.1147 0.0723 0.18354   -0.037625
 C 0.1217 0.1303 0.21959   -0.140063
 C 0.1747 0.1914 0.2071   -0.022251
 C 0.2187 0.1959 0.15789   -0.156364
 C 0.0763 0.1243 0.27368   0.700031
 C 0.457 0.1418 0.76454   0.702808
 C 0.3976 0.1434 0.71574   -0.147223
 C 0.3379 0.085 0.70543   -0.037287
 C 0.2818 0.0847 0.66063   -0.153806
 C 0.2858 0.1427 0.62368   0.048757
 C 0.3438 0.2018 0.63364   -0.15267
 C 0.3992 0.2031 0.67951   -0.024132
 C 0.2281 0.1394 0.5741   0.05427
 C 0.2026 0.0709 0.55272   -0.142514
 C 0.1474 0.0673 0.50726   -0.03554
 C 0.1158 0.1305 0.48278   -0.150871
 C 0.1424 0.1998 0.50335   -0.038503
 C 0.1983 0.2037 0.54823   -0.154779
 C 0.0531 0.1271 0.43539   0.696322
 C 0.000799999999998 0.5847 0.39368   0.177219
 C 0.9887 0.6608 0.39512   -0.198273
 C 0.0089 0.70189 0.34899   0.108215
 C 0.0412 0.6634 0.30322   -0.196532
 C 0.0509 0.5884 0.3057   0.177401
 C 0.0083 0.9007 0.39275   0.177426
 C 0.0204 0.825 0.39405   -0.197646
 C 0.9973 0.78329 0.3491   0.10882
 C 0.9632 0.8204 0.30404   -0.190695
 C 0.9529 0.8967 0.30586   0.17212
 C 0.1813 0.3426 0.35653   0.690884
 C 0.277 0.3139 0.35253   -0.14685
 C 0.3463 0.3578 0.33131   -0.031592
 C 0.4358 0.3308 0.32866   -0.158922
 C 0.4569 0.25922 0.34648   0.043839
 C 0.3868 0.2162 0.36887   -0.150087
 C 0.2973 0.2431 0.3715   -0.017128
 C 0.5526 0.2306 0.34285   0.040663
 C 0.5693 0.1544 0.3453   -0.150941
 C 0.6572 0.1273 0.34371   -0.032024
 C 0.7312 0.175 0.34014   -0.141398
 C 0.7154 0.2504 0.33685   -0.016667
 C 0.6272 0.2785 0.33984   -0.149383
 C 0.8274 0.1464 0.33878   0.690407
 C 0.9259 0.3627 0.42454   0.692606
 C 0.8684 0.3616 0.4745   -0.141458
 C 0.8511 0.4284 0.50136   -0.047915
 C 0.7991 0.4282 0.54784   -0.143488
 C 0.7654 0.3616 0.56937   0.049868
 C 0.7838 0.2952 0.54223   -0.153567
 C 0.8347 0.2957 0.4945   -0.037383
 C 0.7139 0.363 0.62128   0.047607
 C 0.6611 0.4241 0.63469   -0.139165
 C 0.6147 0.4277 0.68354   -0.037625
 C 0.6217 0.3697 0.71959   -0.140063
 C 0.6747 0.3086 0.7071   -0.022251
 C 0.7187 0.3041 0.65789   -0.156364
 C 0.5763 0.3757 0.77368   0.700031
 C 0.957 0.3582 0.26454   0.702808
 C 0.8976 0.3566 0.21574   -0.147223
 C 0.8379 0.415 0.20543   -0.037287
 C 0.7818 0.4153 0.16063   -0.153806
 C 0.7858 0.3573 0.12368   0.048757
 C 0.8438 0.2982 0.13364   -0.15267
 C 0.8992 0.2969 0.17951   -0.024133
 C 0.7281 0.3606 0.0741   0.05427
 C 0.7026 0.4291 0.05272   -0.142514
 C 0.6474 0.4327 0.00726   -0.03554
 C 0.6158 0.3695 0.98278   -0.150871
 C 0.6424 0.3002 0.00335   -0.038503
 C 0.6983 0.2963 0.04823   -0.15478
 C 0.5531 0.3729 0.93539   0.696322
 C 0.9992 0.4153 0.60632   0.177219
 C 0.0113 0.3392 0.60488   -0.198273
 C 0.9911 0.29811 0.65101   0.108215
 C 0.9588 0.3366 0.69678   -0.196532
 C 0.9491 0.4116 0.6943   0.177401
 C 0.9917 0.0993 0.60725   0.177426
 C 0.9796 0.175 0.60595   -0.197646
 C 0.0027 0.21671 0.6509   0.10882
 C 0.0368 0.1796 0.69596   -0.190695
 C 0.0471 0.1033 0.69414   0.17212
 C 0.8187 0.6574 0.64347   0.690884
 C 0.723 0.6861 0.64747   -0.14685
 C 0.6537 0.6422 0.66869   -0.031592
 C 0.5642 0.6692 0.67134   -0.158922
 C 0.5431 0.74078 0.65352   0.043839
 C 0.6132 0.7838 0.63113   -0.150087
 C 0.7027 0.7569 0.6285   -0.017128
 C 0.4474 0.7694 0.65715   0.040663
 C 0.4307 0.8456 0.6547   -0.150941
 C 0.3428 0.8727 0.65629   -0.032024
 C 0.2688 0.825 0.65986   -0.141398
 C 0.2846 0.7496 0.66315   -0.016667
 C 0.3728 0.7215 0.66016   -0.149383
 C 0.1726 0.8536 0.66122   0.690407
 C 0.0741 0.6373 0.57546   0.692606
 C 0.1316 0.6384 0.5255   -0.141458
 C 0.1489 0.5716 0.49864   -0.047915
 C 0.2009 0.5718 0.45216   -0.143488
 C 0.2346 0.6384 0.43063   0.049868
 C 0.2162 0.7048 0.45777   -0.153567
 C 0.1653 0.7043 0.5055   -0.037383
 C 0.2861 0.637 0.37872   0.047607
 C 0.3389 0.5759 0.36531   -0.139165
 C 0.3853 0.5723 0.31646   -0.037625
 C 0.3783 0.6303 0.28041   -0.140063
 C 0.3253 0.6914 0.2929   -0.022251
 C 0.2813 0.6959 0.34211   -0.156364
 C 0.4237 0.6243 0.22632   0.700031
 C 0.043 0.6418 0.73546   0.702808
 C 0.1024 0.6434 0.78426   -0.147223
 C 0.1621 0.585 0.79457   -0.037287
 C 0.2182 0.5847 0.83937   -0.153806
 C 0.2142 0.6427 0.87632   0.048757
 C 0.1562 0.7018 0.86636   -0.15267
 C 0.1008 0.7031 0.82049   -0.024132
 C 0.2719 0.6394 0.9259   0.05427
 C 0.2974 0.5709 0.94728   -0.142514
 C 0.3526 0.5673 0.99274   -0.03554
 C 0.3842 0.6305 0.01722   -0.150871
 C 0.3576 0.6998 0.99665   -0.038503
 C 0.3017 0.7037 0.95177   -0.154779
 C 0.4469 0.6271 0.06461   0.696322
 C 0.4992 0.0847 0.10632   0.177219
 C 0.5113 0.1608 0.10488   -0.198273
 C 0.4911 0.20189 0.15101   0.108215
 C 0.4588 0.1634 0.19678   -0.196532
 C 0.4491 0.0884 0.1943   0.177401
 C 0.4917 0.4007 0.10725   0.177426
 C 0.4796 0.325 0.10595   -0.197646
 C 0.5027 0.28329 0.1509   0.10882
 C 0.5368 0.3204 0.19596   -0.190695
 C 0.5471 0.3967 0.19414   0.17212
 C 0.3187 0.8426 0.14347   0.690884
 C 0.223 0.8139 0.14747   -0.14685
 C 0.1537 0.8578 0.16869   -0.031592
 C 0.0642 0.8308 0.17134   -0.158922
 C 0.0431 0.75922 0.15352   0.043839
 C 0.1132 0.7162 0.13113   -0.150087
 C 0.2027 0.7431 0.1285   -0.017128
 C 0.9474 0.7306 0.15715   0.040663
 C 0.9307 0.6544 0.1547   -0.150941
 C 0.8428 0.6273 0.15629   -0.032024
 C 0.7688 0.675 0.15986   -0.141398
 C 0.7846 0.7504 0.16315   -0.016667
 C 0.8728 0.7785 0.16016   -0.149383
 C 0.6726 0.6464 0.16122   0.690407
 C 0.5741 0.8627 0.07546   0.692606
 C 0.6316 0.8616 0.0255   -0.141458
 C 0.6489 0.9284 0.99864   -0.047915
 C 0.7009 0.9282 0.95216   -0.143488
 C 0.7346 0.8616 0.93063   0.049868
 C 0.7162 0.7952 0.95777   -0.153567
 C 0.6653 0.7957 0.0055   -0.037383
 C 0.7861 0.863 0.87872   0.047607
 C 0.8389 0.9241 0.86531   -0.139165
 C 0.8853 0.9277 0.81646   -0.037625
 C 0.8783 0.8697 0.78041   -0.140063
 C 0.8253 0.8086 0.7929   -0.022251
 C 0.7813 0.8041 0.84211   -0.156364
 C 0.9237 0.8757 0.72632   0.700031
 C 0.543 0.8582 0.23546   0.702808
 C 0.6024 0.8566 0.28426   -0.147223
 C 0.6621 0.915 0.29457   -0.037287
 C 0.7182 0.9153 0.33937   -0.153806
 C 0.7142 0.8573 0.37632   0.048757
 C 0.6562 0.7982 0.36636   -0.15267
 C 0.6008 0.7969 0.32049   -0.024133
 C 0.7719 0.8606 0.4259   0.05427
 C 0.7974 0.9291 0.44728   -0.142514
 C 0.8526 0.9327 0.49274   -0.03554
 C 0.8842 0.8695 0.51722   -0.150871
 C 0.8576 0.8002 0.49665   -0.038503
 C 0.8017 0.7963 0.45177   -0.15478
 C 0.9469 0.8729 0.56461   0.696322
 N 0.5323 0.95134 0.85027   -0.335043
 N 0.4753 0.56303 0.84928   -0.336398
 N 0.0323 0.54866 0.35027   -0.335043
 N 0.9753 0.93697 0.34928   -0.336398
 N 0.9677 0.45134 0.64973   -0.335043
 N 0.0247 0.06303 0.65072   -0.336398
 N 0.4677 0.04866 0.14973   -0.335043
 N 0.5247 0.43697 0.15072   -0.336398
 O 0.66771 0.09123 0.84122   -0.599312
 O 0.62057 0.19775 0.87675   -0.627903
 O 0.34044 0.42097 0.85307   -0.606929
 O 0.38974 0.31251 0.82162   -0.611372
 O 0.4788 0.08158 0.91895   -0.61475
 O 0.41635 0.18841 0.89063   -0.606102
 O 0.0251 0.06813 0.28062   -0.616174
 O 0.09352 0.17162 0.30943   -0.619572
 O 0.4617 0.08047 0.78839   -0.613419
 O 0.50143 0.19894 0.77677   -0.615516
 O 0.0447 0.06394 0.41355   -0.615321
 O 0.0126 0.18438 0.42067   -0.615985
 O 0.16771 0.40877 0.34122   -0.599312
 O 0.12057 0.30225 0.37675   -0.627903
 O 0.84044 0.07903 0.35307   -0.606929
 O 0.88974 0.18749 0.32162   -0.611372
 O 0.9788 0.41842 0.41895   -0.61475
 O 0.91635 0.31159 0.39063   -0.606102
 O 0.5251 0.43187 0.78062   -0.616174
 O 0.59352 0.32838 0.80943   -0.619572
 O 0.9617 0.41953 0.28839   -0.613419
 O 0.00143 0.30106 0.27677   -0.615516
 O 0.5447 0.43606 0.91355   -0.615321
 O 0.5126 0.31562 0.92067   -0.615985
 O 0.83229 0.59123 0.65878   -0.599312
 O 0.87943 0.69775 0.62325   -0.627903
 O 0.15956 0.92097 0.64693   -0.606929
 O 0.11026 0.81251 0.67838   -0.611372
 O 0.0212 0.58158 0.58105   -0.61475
 O 0.08365 0.68841 0.60937   -0.606102
 O 0.4749 0.56813 0.21938   -0.616174
 O 0.40648 0.67162 0.19057   -0.619572
 O 0.0383 0.58047 0.71161   -0.613419
 O 0.99857 0.69894 0.72323   -0.615516
 O 0.4553 0.56394 0.08645   -0.615321
 O 0.4874 0.68438 0.07933   -0.615985
 O 0.33229 0.90877 0.15878   -0.599312
 O 0.37943 0.80225 0.12325   -0.627903
 O 0.65956 0.57903 0.14693   -0.606929
 O 0.61026 0.68749 0.17838   -0.611372
 O 0.5212 0.91842 0.08105   -0.61475
 O 0.58365 0.81159 0.10937   -0.606102
 O 0.9749 0.93187 0.71938   -0.616174
 O 0.90648 0.82838 0.69057   -0.619572
 O 0.5383 0.91953 0.21161   -0.613419
 O 0.49857 0.80106 0.22323   -0.615516
 O 0.9553 0.93606 0.58645   -0.615321
 O 0.9874 0.81562 0.57933   -0.615985
