{'_ref': 'TBD', '_srcid': 'CAKYAQ_clean', 'submitters': [{'name': 'Dalar Nazarian Jeff Camp and David Sholl', 'email': 'dalar@gatech.edu jcamp6@gatech.edu'}], '_method': 'VASP DFT with PBE;DDEC'}
data_Cd3H14(C5O2)6
_symmetry_space_group_name_H-M   'P 1'
_cell_length_a   10.07140000
_cell_length_b   11.19623513
_cell_length_c   18.94200000
_cell_angle_alpha   99.98665692
_cell_angle_beta   90.00000000
_cell_angle_gamma   116.72834005
_symmetry_Int_Tables_number   1
_chemical_formula_structural   Cd3H14(C5O2)6
_chemical_formula_sum   'Cd6 H28 C60 O24'
_cell_volume   1871.40074875
_cell_formula_units_Z   2
loop_
 _symmetry_equiv_pos_site_id
 _symmetry_equiv_pos_as_xyz
  1  'x, y, z'
loop_
 _atom_site_label
 _atom_site_fract_x
 _atom_site_fract_y
 _atom_site_fract_z
 _atom_site_charge
 Cd 0.64597 0.18974 0.02588   1.081743
 Cd 0.45623 0.81026 0.47412   1.080972
 Cd 0.35403 0.81026 0.97412   1.081743
 Cd 0.54377 0.18974 0.52588   1.080972
 Cd 0.0 0.5 0.0   1.226195
 Cd 0.5 0.5 0.5   1.226174
 H 0.9881 0.6524 0.1563   0.064461
 H 0.0488 0.846 0.2426   0.109822
 H 0.7037 0.8746 0.3589   0.101345
 H 0.684 0.6402 0.3404   0.103233
 H 0.1349 0.9514 0.3699   0.118442
 H 0.623 0.4514 0.2511   0.089602
 H 0.0145 0.2176 0.4832   0.110992
 H 0.3357 0.3476 0.3437   0.064747
 H 0.2028 0.154 0.2574   0.109626
 H 0.8291 0.1254 0.1411   0.100974
 H 0.0438 0.3598 0.1596   0.104077
 H 0.1835 0.0486 0.1301   0.119079
 H 0.1716 0.5486 0.2489   0.0894
 H 0.7969 0.7824 0.0168   0.110025
 H 0.0119 0.3476 0.8437   0.064461
 H 0.9512 0.154 0.7574   0.109822
 H 0.2963 0.1254 0.6411   0.101345
 H 0.316 0.3598 0.6596   0.103233
 H 0.8651 0.0486 0.6301   0.118442
 H 0.377 0.5486 0.7489   0.089602
 H 0.9855 0.7824 0.5168   0.110992
 H 0.6643 0.6524 0.6563   0.064747
 H 0.7972 0.846 0.7426   0.109626
 H 0.1709 0.8746 0.8589   0.100974
 H 0.9562 0.6402 0.8404   0.104077
 H 0.8165 0.9514 0.8699   0.119079
 H 0.8284 0.4514 0.7511   0.0894
 H 0.2031 0.2176 0.9832   0.110025
 C 0.925 0.6502 0.1925   -0.00053
 C 0.2561 0.186 0.4637   0.696589
 C 0.9624 0.7666 0.2448   -0.141214
 C 0.8026 0.9304 0.3769   -0.060383
 C 0.8404 0.0522 0.4257   -0.13894
 C 0.7445 0.6444 0.3028   -0.145545
 C 0.8731 0.7656 0.2997   0.075584
 C 0.0606 0.9762 0.3833   -0.056778
 C 0.0969 0.0974 0.4318   -0.152063
 C 0.9136 0.8922 0.3549   0.013333
 C 0.7091 0.5312 0.2493   -0.007721
 C 0.7968 0.5322 0.1932   -0.169679
 C 0.7539 0.41 0.1352   0.725073
 C 0.9886 0.1354 0.4518   0.007265
 C 0.7205 0.0896 0.4516   0.677375
 C 0.2748 0.3498 0.3075   -0.00084
 C 0.0701 0.814 0.0363   0.697889
 C 0.1958 0.2334 0.2552   -0.139383
 C 0.8722 0.0696 0.1231   -0.058428
 C 0.7882 0.9478 0.0743   -0.141411
 C 0.1001 0.3556 0.1972   -0.1467
 C 0.1075 0.2344 0.2003   0.073917
 C 0.0844 0.0238 0.1167   -0.056985
 C 0.9995 0.9026 0.0682   -0.154109
 C 0.0214 0.1078 0.1451   0.012767
 C 0.1779 0.4688 0.2507   -0.007104
 C 0.2646 0.4678 0.3068   -0.170266
 C 0.3439 0.59 0.3648   0.726922
 C 0.8532 0.8646 0.0482   0.009929
 C 0.6309 0.9104 0.0484   0.679333
 C 0.075 0.3498 0.8075   -0.00053
 C 0.7439 0.814 0.5363   0.696588
 C 0.0376 0.2334 0.7552   -0.141214
 C 0.1974 0.0696 0.6231   -0.060383
 C 0.1596 0.9478 0.5743   -0.13894
 C 0.2555 0.3556 0.6972   -0.145545
 C 0.1269 0.2344 0.7003   0.075584
 C 0.9394 0.0238 0.6167   -0.056778
 C 0.9031 0.9026 0.5682   -0.152063
 C 0.0864 0.1078 0.6451   0.013333
 C 0.2909 0.4688 0.7507   -0.007721
 C 0.2032 0.4678 0.8068   -0.169679
 C 0.2461 0.59 0.8648   0.725073
 C 0.0114 0.8646 0.5482   0.007265
 C 0.2795 0.9104 0.5484   0.677375
 C 0.7252 0.6502 0.6925   -0.00084
 C 0.9299 0.186 0.9637   0.697889
 C 0.8042 0.7666 0.7448   -0.139383
 C 0.1278 0.9304 0.8769   -0.058428
 C 0.2118 0.0522 0.9257   -0.141411
 C 0.8999 0.6444 0.8028   -0.1467
 C 0.8925 0.7656 0.7997   0.073917
 C 0.9156 0.9762 0.8833   -0.056985
 C 0.000500000000002 0.0974 0.9318   -0.154109
 C 0.9786 0.8922 0.8549   0.012767
 C 0.8221 0.5312 0.7493   -0.007104
 C 0.7354 0.5322 0.6932   -0.170266
 C 0.6561 0.41 0.6352   0.726922
 C 0.1468 0.1354 0.9518   0.009929
 C 0.3691 0.0896 0.9516   0.679333
 O 0.8184 0.4162 0.0795   -0.719232
 O 0.649 0.2994 0.1429   -0.558467
 O 0.7615 0.204 0.4913   -0.573865
 O 0.5862 0.0076 0.4332   -0.625948
 O 0.2903 0.3062 0.4921   -0.633534
 O 0.3408 0.1306 0.4584   -0.603491
 O 0.4022 0.5838 0.4205   -0.720332
 O 0.3496 0.7006 0.3571   -0.558761
 O 0.5575 0.796 0.0087   -0.57436
 O 0.5786 0.9924 0.0668   -0.626941
 O 0.9841 0.6938 0.0079   -0.633911
 O 0.2102 0.8694 0.0416   -0.603782
 O 0.1816 0.5838 0.9205   -0.719232
 O 0.351 0.7006 0.8571   -0.558467
 O 0.2385 0.796 0.5087   -0.573865
 O 0.4138 0.9924 0.5668   -0.625948
 O 0.7097 0.6938 0.5079   -0.633534
 O 0.6592 0.8694 0.5416   -0.603491
 O 0.5978 0.4162 0.5795   -0.720332
 O 0.6504 0.2994 0.6429   -0.558761
 O 0.4425 0.204 0.9913   -0.57436
 O 0.4214 0.0076 0.9332   -0.626941
 O 0.0159 0.3062 0.9921   -0.633911
 O 0.7898 0.1306 0.9584   -0.603782
