{'_ref': 'TBD', '_srcid': 'CAKYAQ_clean', 'submitters': [{'name': 'Dalar Nazarian Jeff Camp and David Sholl', 'email': 'dalar@gatech.edu jcamp6@gatech.edu'}], '_method': 'VASP DFT with PBE;DDEC'}
data_ZnH2C7NO4
_symmetry_space_group_name_H-M   'P 1'
_cell_length_a   7.02490000
_cell_length_b   7.02490000
_cell_length_c   19.93600000
_cell_angle_alpha   90.00000000
_cell_angle_beta   90.00000000
_cell_angle_gamma   90.00000000
_symmetry_Int_Tables_number   1
_chemical_formula_structural   ZnH2C7NO4
_chemical_formula_sum   'Zn4 H8 C28 N4 O16'
_cell_volume   983.826050119
_cell_formula_units_Z   4
loop_
 _symmetry_equiv_pos_site_id
 _symmetry_equiv_pos_as_xyz
  1  'x, y, z'
loop_
 _atom_site_label
 _atom_site_fract_x
 _atom_site_fract_y
 _atom_site_fract_z
 _atom_site_charge
 Zn 0.0 0.0 0.72403   0.963058
 Zn 0.5 0.5 0.22403   0.963058
 Zn 0.5 0.5 0.77597   0.963058
 Zn 0.0 0.0 0.27597   0.963058
 H 0.833 0.2335 0.9493   0.134577
 H 0.167 0.7665 0.9493   0.134577
 H 0.2665 0.333 0.4493   0.134577
 H 0.7335 0.667 0.4493   0.134577
 H 0.667 0.7335 0.5507   0.134574
 H 0.333 0.2665 0.5507   0.134574
 H 0.2335 0.833 0.0507   0.134574
 H 0.7665 0.167 0.0507   0.134574
 C 0.8987 0.1378 0.9269   -0.129779
 C 0.8978 0.1295 0.8574   0.136361
 C 0.781 0.2553 0.8119   0.608418
 C 0.1013 0.8622 0.9269   -0.129778
 C 0.1022 0.8705 0.8574   0.136361
 C 0.219 0.7447 0.8119   0.608418
 C 0.3622 0.3987 0.4269   -0.129779
 C 0.3705 0.3978 0.3574   0.136361
 C 0.2447 0.281 0.3119   0.608418
 C 0.6378 0.6013 0.4269   -0.129778
 C 0.6295 0.6022 0.3574   0.136361
 C 0.7553 0.719 0.3119   0.608418
 C 0.6013 0.6378 0.5731   -0.129777
 C 0.6022 0.6295 0.6426   0.13636
 C 0.719 0.7553 0.6881   0.608418
 C 0.3987 0.3622 0.5731   -0.129776
 C 0.3978 0.3705 0.6426   0.13636
 C 0.281 0.2447 0.6881   0.608418
 C 0.1378 0.8987 0.0731   -0.129777
 C 0.1295 0.8978 0.1426   0.13636
 C 0.2553 0.781 0.1881   0.608418
 C 0.8622 0.1013 0.0731   -0.129776
 C 0.8705 0.1022 0.1426   0.13636
 C 0.7447 0.219 0.1881   0.608418
 C 0.0 0.0 0.9626   0.073412
 C 0.5 0.5 0.4626   0.073412
 C 0.5 0.5 0.5374   0.073408
 C 0.0 0.0 0.0374   0.073408
 N 0.0 0.0 0.8248   -0.311787
 N 0.5 0.5 0.3248   -0.311787
 N 0.5 0.5 0.6752   -0.311787
 N 0.0 0.0 0.1752   -0.311787
 O 0.6639 0.3654 0.83965   -0.551215
 O 0.8058 0.2359 0.75045   -0.560702
 O 0.3361 0.6346 0.83965   -0.551215
 O 0.1942 0.7641 0.75045   -0.560702
 O 0.1346 0.1639 0.33965   -0.551215
 O 0.2641 0.3058 0.25045   -0.560702
 O 0.8654 0.8361 0.33965   -0.551215
 O 0.7359 0.6942 0.25045   -0.560702
 O 0.8361 0.8654 0.66035   -0.551215
 O 0.6942 0.7359 0.74955   -0.560702
 O 0.1639 0.1346 0.66035   -0.551215
 O 0.3058 0.2641 0.74955   -0.560702
 O 0.3654 0.6639 0.16035   -0.551215
 O 0.2359 0.8058 0.24955   -0.560702
 O 0.6346 0.3361 0.16035   -0.551215
 O 0.7641 0.1942 0.24955   -0.560702
