{'_ref': 'TBD', '_srcid': 'CAKYAQ_clean', 'submitters': [{'name': 'Dalar Nazarian Jeff Camp and David Sholl', 'email': 'dalar@gatech.edu jcamp6@gatech.edu'}], '_method': 'VASP DFT with PBE;DDEC'}
data_SrCuH12C10(NO4)2
_symmetry_space_group_name_H-M   'P 1'
_cell_length_a   8.71699999
_cell_length_b   10.56800000
_cell_length_c   19.37400000
_cell_angle_alpha   90.00000000
_cell_angle_beta   100.39000031
_cell_angle_gamma   90.00000000
_symmetry_Int_Tables_number   1
_chemical_formula_structural   SrCuH12C10(NO4)2
_chemical_formula_sum   'Sr4 Cu4 H48 C40 N8 O32'
_cell_volume   1755.49247784
_cell_formula_units_Z   4
loop_
 _symmetry_equiv_pos_site_id
 _symmetry_equiv_pos_as_xyz
  1  'x, y, z'
loop_
 _atom_site_label
 _atom_site_fract_x
 _atom_site_fract_y
 _atom_site_fract_z
 _atom_site_charge
 Sr 0.32856 0.151 0.04967   1.677101
 Sr 0.67144 0.651 0.45033   1.677101
 Sr 0.67144 0.849 0.95033   1.677095
 Sr 0.32856 0.349 0.54967   1.677095
 Cu 0.23169 0.87093 0.19336   0.881199
 Cu 0.76831 0.37093 0.30664   0.881198
 Cu 0.76831 0.12907 0.80664   0.881198
 Cu 0.23169 0.62907 0.69336   0.881198
 H 0.2384 0.5883 0.272   0.07578
 H 0.1471 0.5082 0.2452   0.109287
 H 0.3536 0.5387 0.1695   0.115306
 H 0.1715 0.6045 0.1277   0.131688
 H 0.111 0.7556 0.3234   0.127853
 H 0.9557 0.8022 0.29   0.123559
 H 0.872 0.7792 0.1732   0.120425
 H 0.8596 0.6351 0.1412   0.125475
 H 0.493 0.6592 0.112   0.341505
 H 0.5143 0.7036 0.0866   0.320226
 H 0.53 0.6145 0.2403   0.241274
 H 0.506 0.6789 0.2847   0.219724
 H 0.7616 0.0883 0.228   0.07578
 H 0.8529 0.0082 0.2548   0.109289
 H 0.6464 0.0387 0.3305   0.115306
 H 0.8285 0.1045 0.3723   0.131688
 H 0.889 0.2556 0.1766   0.12785
 H 0.0443 0.3022 0.21   0.123559
 H 0.128 0.2792 0.3268   0.120427
 H 0.1404 0.1351 0.3588   0.125472
 H 0.507 0.1592 0.388   0.341505
 H 0.4857 0.2036 0.4134   0.320226
 H 0.47 0.1145 0.2597   0.241274
 H 0.494 0.1789 0.2153   0.219724
 H 0.7616 0.4117 0.728   0.07578
 H 0.8529 0.4918 0.7548   0.109287
 H 0.6464 0.4613 0.8305   0.115306
 H 0.8285 0.3955 0.8723   0.131688
 H 0.889 0.2444 0.6766   0.127853
 H 0.0443 0.1978 0.71   0.123559
 H 0.128 0.2208 0.8268   0.120425
 H 0.1404 0.3649 0.8588   0.125475
 H 0.507 0.3408 0.888   0.341505
 H 0.4857 0.2964 0.9134   0.320226
 H 0.47 0.3855 0.7597   0.241274
 H 0.494 0.3211 0.7153   0.219724
 H 0.2384 0.9117 0.772   0.07578
 H 0.1471 0.9918 0.7452   0.109289
 H 0.3536 0.9613 0.6695   0.115306
 H 0.1715 0.8955 0.6277   0.131688
 H 0.111 0.7444 0.8234   0.12785
 H 0.9557 0.6978 0.79   0.123559
 H 0.872 0.7208 0.6732   0.120427
 H 0.8596 0.8649 0.6412   0.125472
 H 0.493 0.8408 0.612   0.341505
 H 0.5143 0.7964 0.5866   0.320226
 H 0.53 0.8855 0.7403   0.241274
 H 0.506 0.8211 0.7847   0.219724
 C 0.16812 0.59283 0.22425   -0.085226
 C 0.26404 0.60004 0.16748   -0.138409
 C 0.92256 0.61587 0.32029   0.73079
 C 0.01553 0.72001 0.29218   -0.251334
 C 0.93407 0.70144 0.16508   -0.279123
 C 0.96837 0.76708 0.09945   0.719979
 C 0.42403 0.73685 0.10731   -0.874073
 C 0.47366 0.8739 0.10095   0.879905
 C 0.49679 0.70582 0.23415   -0.611898
 C 0.4911 0.80065 0.29127   0.737617
 C 0.83188 0.09283 0.27575   -0.085227
 C 0.73596 0.10004 0.33252   -0.138408
 C 0.07744 0.11587 0.17971   0.73079
 C 0.98447 0.22001 0.20782   -0.251333
 C 0.06593 0.20144 0.33492   -0.279122
 C 0.03163 0.26708 0.40055   0.719979
 C 0.57597 0.23685 0.39269   -0.874073
 C 0.52634 0.3739 0.39905   0.879905
 C 0.50321 0.20582 0.26585   -0.611898
 C 0.5089 0.30065 0.20873   0.737617
 C 0.83188 0.40717 0.77575   -0.085226
 C 0.73596 0.39996 0.83252   -0.138409
 C 0.07744 0.38413 0.67971   0.73079
 C 0.98447 0.27999 0.70782   -0.251334
 C 0.06593 0.29856 0.83492   -0.279123
 C 0.03163 0.23292 0.90055   0.719979
 C 0.57597 0.26315 0.89269   -0.874073
 C 0.52634 0.1261 0.89905   0.879905
 C 0.50321 0.29418 0.76585   -0.611898
 C 0.5089 0.19935 0.70873   0.737616
 C 0.16812 0.90717 0.72425   -0.085227
 C 0.26404 0.89996 0.66748   -0.138408
 C 0.92256 0.88413 0.82029   0.730789
 C 0.01553 0.77999 0.79218   -0.251333
 C 0.93407 0.79856 0.66508   -0.279122
 C 0.96837 0.73292 0.59945   0.719979
 C 0.42403 0.76315 0.60731   -0.874073
 C 0.47366 0.6261 0.60095   0.879905
 C 0.49679 0.79418 0.73415   -0.611898
 C 0.4911 0.69935 0.79127   0.737616
 N 0.06423 0.70235 0.22488   -0.117989
 N 0.36466 0.7151 0.17444   0.157812
 N 0.93577 0.20235 0.27512   -0.117989
 N 0.63534 0.2151 0.32556   0.157812
 N 0.93577 0.29765 0.77512   -0.117989
 N 0.63534 0.2849 0.82556   0.157812
 N 0.06423 0.79765 0.72488   -0.117989
 N 0.36466 0.7849 0.67444   0.157812
 O 0.89878 0.63044 0.3815   -0.711813
 O 0.87756 0.52292 0.28029   -0.591258
 O 0.87795 0.74519 0.04385   -0.726905
 O 0.08438 0.84046 0.10474   -0.582105
 O 0.56798 0.89482 0.06182   -0.816896
 O 0.40954 0.95703 0.13194   -0.74012
 O 0.59815 0.79779 0.34227   -0.71259
 O 0.37801 0.87902 0.28234   -0.596762
 O 0.10122 0.13044 0.1185   -0.711813
 O 0.12244 0.02292 0.21971   -0.591258
 O 0.12205 0.24519 0.45615   -0.726905
 O 0.91562 0.34046 0.39526   -0.582105
 O 0.43202 0.39482 0.43818   -0.816896
 O 0.59046 0.45703 0.36806   -0.74012
 O 0.40185 0.29779 0.15773   -0.71259
 O 0.62199 0.37902 0.21766   -0.596762
 O 0.10122 0.36956 0.6185   -0.711813
 O 0.12244 0.47708 0.71971   -0.591258
 O 0.12205 0.25481 0.95615   -0.726905
 O 0.91562 0.15954 0.89526   -0.582105
 O 0.43202 0.10518 0.93818   -0.816897
 O 0.59046 0.04297 0.86806   -0.74012
 O 0.40185 0.20221 0.65773   -0.712589
 O 0.62199 0.12098 0.71766   -0.596762
 O 0.89878 0.86956 0.8815   -0.711812
 O 0.87756 0.97708 0.78029   -0.591258
 O 0.87795 0.75481 0.54385   -0.726905
 O 0.08438 0.65954 0.60474   -0.582105
 O 0.56798 0.60518 0.56182   -0.816897
 O 0.40954 0.54297 0.63194   -0.74012
 O 0.59815 0.70221 0.84227   -0.712589
 O 0.37801 0.62098 0.78234   -0.596762
