{'_ref': 'TBD', '_srcid': 'CAKYAQ_clean', 'submitters': [{'name': 'Dalar Nazarian Jeff Camp and David Sholl', 'email': 'dalar@gatech.edu jcamp6@gatech.edu'}], '_method': 'VASP DFT with PBE;DDEC'}
data_MgH2(CO2)2
_symmetry_space_group_name_H-M   'P 1'
_cell_length_a   9.85300000
_cell_length_b   11.31499968
_cell_length_c   14.40000000
_cell_angle_alpha   91.32000091
_cell_angle_beta   90.00000000
_cell_angle_gamma   90.00000000
_symmetry_Int_Tables_number   1
_chemical_formula_structural   MgH2(CO2)2
_chemical_formula_sum   'Mg12 H24 C24 O48'
_cell_volume   1604.98233275
_cell_formula_units_Z   12
loop_
 _symmetry_equiv_pos_site_id
 _symmetry_equiv_pos_as_xyz
  1  'x, y, z'
loop_
 _atom_site_label
 _atom_site_fract_x
 _atom_site_fract_y
 _atom_site_fract_z
 _atom_site_charge
 Mg 0.91807 0.74451 0.86508   1.521681
 Mg 0.10788 0.76124 0.68845   1.495783
 Mg 0.41807 0.75549 0.63492   1.521681
 Mg 0.60788 0.73876 0.81155   1.495783
 Mg 0.08193 0.25549 0.13492   1.521681
 Mg 0.89212 0.23876 0.31155   1.495783
 Mg 0.58193 0.24451 0.36508   1.521681
 Mg 0.39212 0.26124 0.18845   1.495783
 Mg 0.0 0.0 0.0   1.490362
 Mg 0.5 0.5 0.5   1.490362
 Mg 0.0 0.5 0.0   1.505391
 Mg 0.5 0.0 0.5   1.505391
 H 0.0332 0.0252 0.7333   0.008204
 H 0.6174 0.9431 0.9576   -0.000275
 H 0.756 0.6363 0.63   -0.01085
 H 0.7045 0.5093 0.9914   -3.2e-05
 H 0.1868 0.5186 0.765   -0.006818
 H 0.1585 0.8017 0.0702   5e-06
 H 0.5332 0.4748 0.7667   0.008204
 H 0.1174 0.5569 0.5424   -0.000275
 H 0.256 0.8637 0.87   -0.01085
 H 0.2045 0.9907 0.5086   -3.2e-05
 H 0.6868 0.9814 0.735   -0.006818
 H 0.6585 0.6983 0.4298   5e-06
 H 0.9668 0.9748 0.2667   0.008203
 H 0.3826 0.0569 0.0424   -0.000274
 H 0.244 0.3637 0.37   -0.01085
 H 0.2955 0.4907 0.0086   -3.2e-05
 H 0.8132 0.4814 0.235   -0.006819
 H 0.8415 0.1983 0.9298   4e-06
 H 0.4668 0.5252 0.2333   0.008203
 H 0.8826 0.4431 0.4576   -0.000275
 H 0.744 0.1363 0.13   -0.01085
 H 0.7955 0.0093 0.4914   -3.2e-05
 H 0.3132 0.0186 0.265   -0.006819
 H 0.3415 0.3017 0.5702   4e-06
 C 0.01314 0.98208 0.78744   0.744682
 C 0.71083 0.92524 0.94928   0.745237
 C 0.82551 0.66931 0.66826   0.754071
 C 0.72205 0.57065 0.94914   0.753373
 C 0.12575 0.54675 0.81154   0.743965
 C 0.10168 0.758 0.02857   0.76038
 C 0.51314 0.51792 0.71256   0.744682
 C 0.21083 0.57476 0.55072   0.745237
 C 0.32551 0.83069 0.83174   0.754071
 C 0.22205 0.92935 0.55086   0.753373
 C 0.62575 0.95325 0.68846   0.743965
 C 0.60168 0.742 0.47143   0.76038
 C 0.98686 0.01792 0.21256   0.744682
 C 0.28917 0.07476 0.05072   0.745237
 C 0.17449 0.33069 0.33174   0.754071
 C 0.27795 0.42935 0.05086   0.753373
 C 0.87425 0.45325 0.18846   0.743965
 C 0.89832 0.242 0.97143   0.76038
 C 0.48686 0.48208 0.28744   0.744682
 C 0.78917 0.42524 0.44928   0.745237
 C 0.67449 0.16931 0.16826   0.754071
 C 0.77795 0.07065 0.44914   0.753373
 C 0.37425 0.04675 0.31154   0.743965
 C 0.39832 0.258 0.52857   0.76038
 O 0.00219 0.87 0.77825   -0.830672
 O 0.74092 0.84374 0.88951   -0.824361
 O 0.79624 0.69068 0.7533   -0.816345
 O 0.84578 0.60203 0.93925   -0.823084
 O 0.07818 0.65068 0.80224   -0.823304
 O 0.02458 0.81698 0.97471   -0.836333
 O 0.99975 0.03898 0.86107   -0.672391
 O 0.79294 0.98262 0.997   -0.662323
 O 0.62284 0.61293 0.90864   -0.685559
 O 0.09985 0.47917 0.87544   -0.666695
 O 0.10802 0.64901 0.03068   -0.683461
 O 0.93749 0.68803 0.63116   -0.682754
 O 0.50219 0.63 0.72175   -0.830672
 O 0.24092 0.65626 0.61049   -0.824361
 O 0.29624 0.80932 0.7467   -0.816345
 O 0.34578 0.89797 0.56075   -0.823084
 O 0.57818 0.84932 0.69776   -0.823304
 O 0.52458 0.68302 0.52529   -0.836333
 O 0.49975 0.46102 0.63893   -0.672391
 O 0.29294 0.51738 0.503   -0.662323
 O 0.12284 0.88707 0.59136   -0.685559
 O 0.59985 0.02083 0.62456   -0.666695
 O 0.60802 0.85099 0.46932   -0.683461
 O 0.43749 0.81197 0.86884   -0.682754
 O 0.99781 0.13 0.22175   -0.830672
 O 0.25908 0.15626 0.11049   -0.824361
 O 0.20376 0.30932 0.2467   -0.816345
 O 0.15422 0.39797 0.06075   -0.823084
 O 0.92182 0.34932 0.19776   -0.823304
 O 0.97542 0.18302 0.02529   -0.836333
 O 0.000250000000001 0.96102 0.13893   -0.672391
 O 0.20706 0.01738 0.003   -0.662323
 O 0.37716 0.38707 0.09136   -0.685559
 O 0.90015 0.52083 0.12456   -0.666695
 O 0.89198 0.35099 0.96932   -0.683461
 O 0.06251 0.31197 0.36884   -0.682754
 O 0.49781 0.37 0.27825   -0.830672
 O 0.75908 0.34374 0.38951   -0.824361
 O 0.70376 0.19068 0.2533   -0.816345
 O 0.65422 0.10203 0.43925   -0.823084
 O 0.42182 0.15068 0.30224   -0.823304
 O 0.47542 0.31698 0.47471   -0.836333
 O 0.50025 0.53898 0.36107   -0.672391
 O 0.70706 0.48262 0.497   -0.662323
 O 0.87716 0.11293 0.40864   -0.685559
 O 0.40015 0.97917 0.37544   -0.666695
 O 0.39198 0.14901 0.53068   -0.683461
 O 0.56251 0.18803 0.13116   -0.682754
