{'_ref': 'TBD', '_srcid': 'CAKYAQ_clean', 'submitters': [{'name': 'Dalar Nazarian Jeff Camp and David Sholl', 'email': 'dalar@gatech.edu jcamp6@gatech.edu'}], '_method': 'VASP DFT with PBE;DDEC'}
data_Zn3H30C54(NO8)2
_symmetry_space_group_name_H-M   'P 1'
_cell_length_a   10.23040004
_cell_length_b   10.52929993
_cell_length_c   13.08530000
_cell_angle_alpha   100.83599865
_cell_angle_beta   90.73599859
_cell_angle_gamma   113.42000235
_symmetry_Int_Tables_number   1
_chemical_formula_structural   Zn3H30C54(NO8)2
_chemical_formula_sum   'Zn3 H30 C54 N2 O16'
_cell_volume   1264.33846705
_cell_formula_units_Z   1
loop_
 _symmetry_equiv_pos_site_id
 _symmetry_equiv_pos_as_xyz
  1  'x, y, z'
loop_
 _atom_site_label
 _atom_site_fract_x
 _atom_site_fract_y
 _atom_site_fract_z
 _atom_site_charge
 Zn 0.3419 0.19524 0.43893   0.894764
 Zn 0.6581 0.80476 0.56107   0.894764
 Zn 0.5 0.0 0.5   1.053316
 H 0.5795 0.5489 0.7173   0.096825
 H 0.8126 0.3216 0.7181   0.101229
 H 0.7146 0.7017 0.8702   0.11458
 H 0.357 0.4756 0.5528   0.073091
 H 0.7384 0.6445 0.0647   0.11006
 H 0.226 0.9049 0.1152   0.121328
 H 0.1317 0.9405 0.8733   0.11131
 H 0.3 0.9796 0.7545   0.08942
 H 0.3804 0.6594 0.8092   0.094682
 H 0.2214 0.6283 0.9378   0.10721
 H 0.2189 0.6021 0.5823   0.10882
 H 0.9031 0.2815 0.3997   0.117658
 H 0.0528 0.1642 0.3717   0.081524
 H 0.9406 0.4689 0.869   0.09931
 H 0.6523 0.6727 0.3086   0.393868
 H 0.4205 0.4511 0.2827   0.096825
 H 0.1874 0.6784 0.2819   0.10123
 H 0.2854 0.2983 0.1298   0.114581
 H 0.643 0.5244 0.4472   0.073091
 H 0.2616 0.3555 0.9353   0.110065
 H 0.774 0.0951 0.8848   0.121328
 H 0.8683 0.0595 0.1267   0.111309
 H 0.7 0.0204 0.2455   0.08942
 H 0.6196 0.3406 0.1908   0.094683
 H 0.7786 0.3717 0.0622   0.107212
 H 0.7811 0.3979 0.4177   0.108819
 H 0.0969 0.7185 0.6003   0.117657
 H 0.9472 0.8358 0.6283   0.081524
 H 0.0594 0.5311 0.131   0.09931
 H 0.3477 0.3273 0.6914   0.393868
 C 0.5802 0.3069 0.6142   0.683041
 C 0.6731 0.4107 0.707   -0.178438
 C 0.6499 0.5304 0.7492   -0.022532
 C 0.7884 0.3949 0.7501   0.008893
 C 0.7333 0.6239 0.8406   -0.147986
 C 0.8436 0.6013 0.8873   0.07625
 C 0.2635 0.4353 0.5215   0.17
 C 0.9185 0.6902 0.9896   -0.002747
 C 0.8372 0.695 0.0749   -0.096196
 C 0.901 0.7736 0.1747   -0.133709
 C 0.805 0.7813 0.258   0.669524
 C 0.0477 0.8529 0.1913   -0.02049
 C 0.1233 0.933 0.2966   0.648901
 C 0.1277 0.8512 0.1059   -0.127196
 C 0.064 0.7709 0.0068   0.022949
 C 0.4561 0.8426 0.6808   0.687562
 C 0.1834 0.8845 0.8626   -0.148633
 C 0.2822 0.9058 0.7891   0.003037
 C 0.3539 0.8199 0.7665   -0.181608
 C 0.3313 0.7176 0.8224   -0.010903
 C 0.2352 0.6981 0.8997   -0.152141
 C 0.1612 0.7841 0.9186   0.076117
 C 0.1813 0.5128 0.5384   -0.165487
 C 0.0465 0.4598 0.4917   0.10475
 C 0.9967 0.3249 0.431   -0.139797
 C 0.0862 0.253 0.4161   0.198868
 C 0.8676 0.4861 0.8395   -0.152296
 C 0.4198 0.6931 0.3858   0.68304
 C 0.3269 0.5893 0.293   -0.178439
 C 0.3501 0.4696 0.2508   -0.022532
 C 0.2116 0.6051 0.2499   0.008893
 C 0.2667 0.3761 0.1594   -0.147986
 C 0.1564 0.3987 0.1127   0.07625
 C 0.7365 0.5647 0.4785   0.169999
 C 0.0815 0.3098 0.0104   -0.002746
 C 0.1628 0.305 0.9251   -0.096198
 C 0.099 0.2264 0.8253   -0.133709
 C 0.195 0.2187 0.742   0.669523
 C 0.9523 0.1471 0.8087   -0.02049
 C 0.8767 0.067 0.7034   0.6489
 C 0.8723 0.1488 0.8941   -0.127195
 C 0.936 0.2291 0.9932   0.022949
 C 0.5439 0.1574 0.3192   0.687562
 C 0.8166 0.1155 0.1374   -0.148632
 C 0.7178 0.0942 0.2109   0.003038
 C 0.6461 0.1801 0.2335   -0.181608
 C 0.6687 0.2824 0.1776   -0.010902
 C 0.7648 0.3019 0.1003   -0.15214
 C 0.8388 0.2159 0.0814   0.076117
 C 0.8187 0.4872 0.4616   -0.165487
 C 0.9535 0.5402 0.5083   0.104741
 C 0.0033 0.6751 0.569   -0.139796
 C 0.9138 0.747 0.5839   0.198868
 C 0.1324 0.5139 0.1605   -0.152296
 N 0.2156 0.3075 0.4633   -0.334092
 N 0.7844 0.6925 0.5367   -0.334092
 O 0.8288 0.8892 0.3225   -0.513151
 O 0.6963 0.6625 0.258   -0.530519
 O 0.2077 0.0587 0.3054   -0.595085
 O 0.1003 0.8622 0.3685   -0.604935
 O 0.4666 0.3157 0.5837   -0.607165
 O 0.6185 0.2097 0.5714   -0.585037
 O 0.5037 0.7487 0.651   -0.54115
 O 0.4848 0.9524 0.6459   -0.600935
 O 0.1712 0.1108 0.6775   -0.513151
 O 0.3037 0.3375 0.742   -0.53052
 O 0.7923 0.9413 0.6946   -0.595084
 O 0.8997 0.1378 0.6315   -0.604935
 O 0.5334 0.6843 0.4163   -0.607165
 O 0.3815 0.7903 0.4286   -0.585037
 O 0.4963 0.2513 0.349   -0.54115
 O 0.5152 0.0476 0.3541   -0.600935
