{'_ref': 'TBD', '_srcid': 'CAKYAQ_clean', 'submitters': [{'name': 'Dalar Nazarian Jeff Camp and David Sholl', 'email': 'dalar@gatech.edu jcamp6@gatech.edu'}], '_method': 'VASP DFT with PBE;DDEC'}
data_Zn4H12C24O13
_symmetry_space_group_name_H-M   'P 1'
_cell_length_a   18.36659981
_cell_length_b   18.36659974
_cell_length_c   18.36660000
_cell_angle_alpha   60.05539974
_cell_angle_beta   60.05539986
_cell_angle_gamma   60.05540011
_symmetry_Int_Tables_number   1
_chemical_formula_structural   Zn4H12C24O13
_chemical_formula_sum   'Zn16 H48 C96 O52'
_cell_volume   4386.48106656
_cell_formula_units_Z   4
loop_
 _symmetry_equiv_pos_site_id
 _symmetry_equiv_pos_as_xyz
  1  'x, y, z'
loop_
 _atom_site_label
 _atom_site_fract_x
 _atom_site_fract_y
 _atom_site_fract_z
 _atom_site_charge
 Zn 0.61047 0.78424 0.61047   1.10863
 Zn 0.1974 0.02347 0.1974   1.117643
 Zn 0.61047 0.61047 0.78424   1.10863
 Zn 0.1974 0.19741 0.02347   1.117558
 Zn 0.78424 0.61047 0.61047   1.108629
 Zn 0.02347 0.19741 0.1974   1.117557
 Zn 0.61011 0.61011 0.61011   1.126852
 Zn 0.19754 0.19754 0.19754   1.122623
 Zn 0.21576 0.38953 0.38953   1.10863
 Zn 0.97653 0.80259 0.80259   1.117646
 Zn 0.38953 0.38953 0.21576   1.10863
 Zn 0.80259 0.8026 0.97653   1.117561
 Zn 0.38953 0.21576 0.38953   1.108629
 Zn 0.80259 0.97653 0.80259   1.117632
 Zn 0.38989 0.38989 0.38989   1.126852
 Zn 0.80246 0.80246 0.80246   1.122568
 H 0.3569 0.8396 0.0573   0.112541
 H 0.4462 0.7509 0.9682   0.09642
 H 0.0573 0.3569 0.8396   0.112541
 H 0.9682 0.4462 0.7509   0.096421
 H 0.8396 0.0573 0.3569   0.112539
 H 0.7509 0.9682 0.4462   0.09642
 H 0.8396 0.3569 0.0573   0.112541
 H 0.7509 0.4462 0.9682   0.096421
 H 0.3569 0.0573 0.8396   0.112539
 H 0.4462 0.9682 0.7509   0.09642
 H 0.0573 0.8396 0.3569   0.112541
 H 0.9682 0.7509 0.4462   0.09642
 H 0.3594 0.0562 0.3594   0.096781
 H 0.448 0.9681 0.448   0.10827
 H 0.3592 0.84 0.3592   0.109801
 H 0.4482 0.7508 0.4482   0.109555
 H 0.3594 0.3594 0.0562   0.096782
 H 0.448 0.448 0.9681   0.108271
 H 0.3592 0.3592 0.84   0.109801
 H 0.4482 0.4482 0.7508   0.109556
 H 0.0562 0.3594 0.3594   0.096782
 H 0.9681 0.448 0.448   0.108271
 H 0.84 0.3592 0.3592   0.109801
 H 0.7508 0.4482 0.4482   0.109556
 H 0.1604 0.6431 0.9427   0.112539
 H 0.2491 0.5538 0.0318   0.096419
 H 0.6431 0.9427 0.1604   0.11254
 H 0.5538 0.0318 0.2491   0.09642
 H 0.9427 0.1604 0.6431   0.112538
 H 0.0318 0.2491 0.5538   0.096418
 H 0.6431 0.1604 0.9427   0.11254
 H 0.5538 0.2491 0.0318   0.09642
 H 0.9427 0.6431 0.1604   0.112539
 H 0.0318 0.5538 0.2491   0.096418
 H 0.1604 0.9427 0.6431   0.112539
 H 0.2491 0.0318 0.5538   0.096419
 H 0.9438 0.6406 0.6406   0.096781
 H 0.0319 0.552 0.552   0.108273
 H 0.16 0.6408 0.6408   0.109804
 H 0.2492 0.5518 0.5518   0.109559
 H 0.6406 0.6406 0.9438   0.09678
 H 0.552 0.552 0.0319   0.108272
 H 0.6408 0.6408 0.16   0.109803
 H 0.5518 0.5518 0.2492   0.109558
 H 0.6406 0.9438 0.6406   0.096782
 H 0.552 0.0319 0.552   0.108274
 H 0.6408 0.16 0.6408   0.109804
 H 0.5518 0.2492 0.5518   0.109559
 C 0.37541 0.86591 0.99571   -0.057626
 C 0.42915 0.81265 0.94195   -0.047555
 C 0.99571 0.37541 0.86591   -0.057623
 C 0.94195 0.42915 0.81265   -0.047556
 C 0.86591 0.99571 0.37541   -0.057626
 C 0.81265 0.94195 0.42915   -0.047556
 C 0.86591 0.37541 0.99571   -0.057622
 C 0.81265 0.42915 0.94195   -0.047555
 C 0.37541 0.99571 0.86591   -0.057626
 C 0.42915 0.94195 0.81265   -0.047556
 C 0.99571 0.86591 0.37541   -0.057626
 C 0.94195 0.81265 0.42915   -0.047556
 C 0.29181 0.01633 0.29181   0.722087
 C 0.35013 0.95741 0.35013   -0.13124
 C 0.37703 0.99463 0.37703   -0.043918
 C 0.43056 0.94136 0.43056   -0.044195
 C 0.377 0.8662 0.377   -0.056962
 C 0.43048 0.81258 0.43048   -0.063259
 C 0.45782 0.85069 0.45782   -0.134923
 C 0.51556 0.79212 0.51556   0.722404
 C 0.29181 0.29181 0.01633   0.722086
 C 0.35013 0.35013 0.95741   -0.131246
 C 0.37703 0.37703 0.99463   -0.043913
 C 0.43056 0.43056 0.94136   -0.044195
 C 0.377 0.377 0.8662   -0.056961
 C 0.43048 0.43048 0.81258   -0.063258
 C 0.45782 0.45782 0.85069   -0.134917
 C 0.51556 0.51556 0.79212   0.722402
 C 0.01633 0.29181 0.29181   0.722086
 C 0.95741 0.35013 0.35013   -0.131246
 C 0.99463 0.37703 0.37703   -0.043913
 C 0.94136 0.43056 0.43056   -0.044194
 C 0.8662 0.377 0.377   -0.05696
 C 0.81258 0.43048 0.43048   -0.063258
 C 0.85069 0.45782 0.45782   -0.134918
 C 0.79212 0.51556 0.51556   0.722402
 C 0.2917 0.01585 0.01585   0.724286
 C 0.34919 0.95799 0.95799   -0.130664
 C 0.45758 0.85008 0.85008   -0.131779
 C 0.51583 0.79182 0.79182   0.714742
 C 0.01585 0.2917 0.01585   0.724291
 C 0.95799 0.34919 0.95799   -0.13067
 C 0.85008 0.45758 0.85008   -0.131773
 C 0.79182 0.51583 0.79182   0.71474
 C 0.01585 0.01585 0.2917   0.724287
 C 0.95799 0.95799 0.34919   -0.130663
 C 0.85008 0.85008 0.45758   -0.131779
 C 0.79182 0.79182 0.51583   0.714742
 C 0.13409 0.62459 0.00429   -0.057628
 C 0.18735 0.57085 0.05805   -0.047556
 C 0.62459 0.00429 0.13409   -0.057624
 C 0.57085 0.05805 0.18735   -0.047555
 C 0.00429 0.13409 0.62459   -0.057628
 C 0.05805 0.18735 0.57085   -0.047556
 C 0.62459 0.13409 0.00429   -0.057624
 C 0.57085 0.18735 0.05805   -0.047557
 C 0.00429 0.62459 0.13409   -0.057628
 C 0.05805 0.57085 0.18735   -0.047556
 C 0.13409 0.00429 0.62459   -0.057626
 C 0.18735 0.05805 0.57085   -0.047555
 C 0.98367 0.70819 0.70819   0.722094
 C 0.04259 0.64987 0.64987   -0.131253
 C 0.00537 0.62297 0.62297   -0.043912
 C 0.05864 0.56944 0.56944   -0.044196
 C 0.1338 0.623 0.623   -0.056955
 C 0.18742 0.56952 0.56952   -0.063259
 C 0.14931 0.54218 0.54218   -0.134913
 C 0.20788 0.48444 0.48444   0.7224
 C 0.70819 0.70819 0.98367   0.722084
 C 0.64987 0.64987 0.04259   -0.131247
 C 0.62297 0.62297 0.00537   -0.043917
 C 0.56944 0.56944 0.05864   -0.044196
 C 0.623 0.623 0.1338   -0.056958
 C 0.56952 0.56952 0.18742   -0.063259
 C 0.54218 0.54218 0.14931   -0.134917
 C 0.48444 0.48444 0.20788   0.722401
 C 0.70819 0.98367 0.70819   0.722094
 C 0.64987 0.04259 0.64987   -0.131253
 C 0.62297 0.00537 0.62297   -0.043911
 C 0.56944 0.05864 0.56944   -0.044196
 C 0.623 0.1338 0.623   -0.056955
 C 0.56952 0.18742 0.56952   -0.063259
 C 0.54218 0.14931 0.54218   -0.134912
 C 0.48444 0.20788 0.48444   0.7224
 C 0.98415 0.7083 0.98415   0.724284
 C 0.04201 0.65081 0.04201   -0.130659
 C 0.14992 0.54242 0.14992   -0.131784
 C 0.20818 0.48417 0.20818   0.714743
 C 0.7083 0.98415 0.98415   0.724293
 C 0.65081 0.04201 0.04201   -0.130665
 C 0.54242 0.14992 0.14992   -0.131778
 C 0.48417 0.20818 0.20818   0.714742
 C 0.98415 0.98415 0.7083   0.724296
 C 0.04201 0.04201 0.65081   -0.130661
 C 0.14992 0.14992 0.54242   -0.131783
 C 0.20818 0.20818 0.48417   0.714743
 O 0.53831 0.83071 0.70901   -0.606216
 O 0.26975 0.97725 0.09815   -0.616413
 O 0.70901 0.53831 0.83071   -0.606214
 O 0.09815 0.26975 0.97725   -0.616393
 O 0.83071 0.70901 0.53831   -0.606216
 O 0.97725 0.09815 0.26975   -0.616378
 O 0.83071 0.53831 0.70901   -0.606215
 O 0.97725 0.26975 0.09815   -0.616392
 O 0.53831 0.70901 0.83071   -0.606215
 O 0.26975 0.09815 0.97725   -0.616378
 O 0.70901 0.83071 0.53831   -0.606216
 O 0.09815 0.97725 0.26975   -0.616413
 O 0.53776 0.83097 0.53776   -0.619096
 O 0.53751 0.70973 0.53751   -0.616921
 O 0.27019 0.09815 0.27019   -0.606795
 O 0.26997 0.97718 0.26997   -0.618036
 O 0.53776 0.53776 0.83097   -0.619095
 O 0.53751 0.53751 0.70973   -0.616919
 O 0.27019 0.27019 0.09815   -0.606782
 O 0.26997 0.26997 0.97718   -0.618025
 O 0.83097 0.53776 0.53776   -0.619095
 O 0.70973 0.53751 0.53751   -0.616919
 O 0.09815 0.27019 0.27019   -0.606782
 O 0.97718 0.26997 0.26997   -0.618025
 O 0.65368 0.65368 0.65368   -1.26937
 O 0.15433 0.15433 0.15433   -1.27627
 O 0.16929 0.46169 0.29099   -0.606217
 O 0.02275 0.73025 0.90185   -0.616413
 O 0.46169 0.29099 0.16929   -0.606216
 O 0.73025 0.90185 0.02275   -0.616401
 O 0.29099 0.16929 0.46169   -0.606216
 O 0.90185 0.02275 0.73025   -0.616415
 O 0.46169 0.16929 0.29099   -0.606215
 O 0.73025 0.02275 0.90185   -0.616403
 O 0.29099 0.46169 0.16929   -0.606217
 O 0.90185 0.73025 0.02275   -0.616386
 O 0.16929 0.29099 0.46169   -0.606218
 O 0.02275 0.90185 0.73025   -0.616415
 O 0.16903 0.46224 0.46224   -0.619092
 O 0.29027 0.46249 0.46249   -0.616919
 O 0.90185 0.72981 0.72981   -0.606771
 O 0.02282 0.73003 0.73003   -0.618051
 O 0.46224 0.46224 0.16903   -0.619093
 O 0.46249 0.46249 0.29027   -0.61692
 O 0.72981 0.72981 0.90185   -0.606778
 O 0.73003 0.73003 0.02282   -0.618022
 O 0.46224 0.16903 0.46224   -0.619092
 O 0.46249 0.29027 0.46249   -0.616919
 O 0.72981 0.90185 0.72981   -0.606771
 O 0.73003 0.02282 0.73003   -0.61805
 O 0.34632 0.34632 0.34632   -1.269369
 O 0.84567 0.84567 0.84567   -1.276245
