{'_ref': 'TBD', '_srcid': 'CAKYAQ_clean', 'submitters': [{'name': 'Dalar Nazarian Jeff Camp and David Sholl', 'email': 'dalar@gatech.edu jcamp6@gatech.edu'}], '_method': 'VASP DFT with PBE;DDEC'}
data_Zn4H12C24O13
_symmetry_space_group_name_H-M   'P 1'
_cell_length_a   18.37999963
_cell_length_b   18.37999993
_cell_length_c   18.38000000
_cell_angle_alpha   60.25950116
_cell_angle_beta   60.25950063
_cell_angle_gamma   60.25949945
_symmetry_Int_Tables_number   1
_chemical_formula_structural   Zn4H12C24O13
_chemical_formula_sum   'Zn16 H48 C96 O52'
_cell_volume   4416.36559894
_cell_formula_units_Z   4
loop_
 _symmetry_equiv_pos_site_id
 _symmetry_equiv_pos_as_xyz
  1  'x, y, z'
loop_
 _atom_site_label
 _atom_site_fract_x
 _atom_site_fract_y
 _atom_site_fract_z
 _atom_site_charge
 Zn 0.60933 0.78329 0.60933   1.113693
 Zn 0.19614 0.02202 0.19614   1.124486
 Zn 0.60933 0.60933 0.78329   1.113692
 Zn 0.19614 0.19614 0.02202   1.124485
 Zn 0.78329 0.60933 0.60933   1.113692
 Zn 0.02202 0.19614 0.19614   1.124484
 Zn 0.60879 0.60879 0.60879   1.124872
 Zn 0.19661 0.19661 0.19661   1.114499
 Zn 0.21671 0.39067 0.39067   1.113693
 Zn 0.97798 0.80386 0.80386   1.124485
 Zn 0.39067 0.39067 0.21671   1.113692
 Zn 0.80386 0.80386 0.97798   1.124485
 Zn 0.39067 0.21671 0.39067   1.113692
 Zn 0.80386 0.97798 0.80386   1.124485
 Zn 0.39121 0.39121 0.39121   1.124872
 Zn 0.80339 0.80339 0.80339   1.114499
 H 0.8393 0.0551 0.3567   0.111596
 H 0.7509 0.9654 0.4448   0.095379
 H 0.3567 0.8393 0.0551   0.111596
 H 0.4448 0.7509 0.9654   0.095379
 H 0.0551 0.3567 0.8393   0.111596
 H 0.9654 0.4448 0.7509   0.095379
 H 0.0551 0.8393 0.3567   0.111596
 H 0.9654 0.7509 0.4448   0.095379
 H 0.8393 0.3567 0.0551   0.111596
 H 0.7509 0.4448 0.9654   0.095379
 H 0.3567 0.0551 0.8393   0.111596
 H 0.4448 0.9654 0.7509   0.095379
 H 0.3585 0.055 0.3585   0.099374
 H 0.4476 0.9662 0.4476   0.109839
 H 0.358 0.8397 0.358   0.110471
 H 0.4463 0.7516 0.4463   0.106918
 H 0.3585 0.3585 0.055   0.099374
 H 0.4476 0.4476 0.9662   0.109839
 H 0.358 0.358 0.8397   0.110471
 H 0.4463 0.4463 0.7516   0.106918
 H 0.055 0.3585 0.3585   0.099374
 H 0.9662 0.4476 0.4476   0.109839
 H 0.8397 0.358 0.358   0.110471
 H 0.7516 0.4463 0.4463   0.106919
 H 0.9449 0.1607 0.6433   0.111596
 H 0.0346 0.2491 0.5552   0.09538
 H 0.1607 0.6433 0.9449   0.111596
 H 0.2491 0.5552 0.0346   0.09538
 H 0.6433 0.9449 0.1607   0.111596
 H 0.5552 0.0346 0.2491   0.09538
 H 0.1607 0.9449 0.6433   0.111596
 H 0.2491 0.0346 0.5552   0.09538
 H 0.6433 0.1607 0.9449   0.111596
 H 0.5552 0.2491 0.0346   0.09538
 H 0.9449 0.6433 0.1607   0.111596
 H 0.0346 0.5552 0.2491   0.09538
 H 0.945 0.6415 0.6415   0.099374
 H 0.0338 0.5524 0.5524   0.109839
 H 0.1603 0.642 0.642   0.110471
 H 0.2484 0.5537 0.5537   0.106919
 H 0.6415 0.6415 0.945   0.099374
 H 0.5524 0.5524 0.0338   0.109839
 H 0.642 0.642 0.1603   0.110471
 H 0.5537 0.5537 0.2484   0.106919
 H 0.6415 0.945 0.6415   0.099374
 H 0.5524 0.0338 0.5524   0.109839
 H 0.642 0.1603 0.642   0.110471
 H 0.5537 0.2484 0.5537   0.106919
 C 0.86557 0.99357 0.37447   -0.059336
 C 0.81235 0.93945 0.42775   -0.046084
 C 0.37447 0.86557 0.99357   -0.059336
 C 0.42775 0.81235 0.93945   -0.046084
 C 0.99357 0.37447 0.86557   -0.059336
 C 0.93945 0.42775 0.81235   -0.046084
 C 0.99357 0.86557 0.37447   -0.059336
 C 0.93945 0.81235 0.42775   -0.046084
 C 0.86557 0.37447 0.99357   -0.059336
 C 0.81235 0.42775 0.93945   -0.046084
 C 0.37447 0.99357 0.86557   -0.059336
 C 0.42775 0.93945 0.81235   -0.046084
 C 0.29093 0.01443 0.29093   0.715484
 C 0.34934 0.95614 0.34934   -0.127916
 C 0.37601 0.99361 0.37601   -0.045189
 C 0.4298 0.94 0.4298   -0.051085
 C 0.37576 0.86586 0.37576   -0.057973
 C 0.42903 0.81293 0.42903   -0.054409
 C 0.45653 0.84883 0.45653   -0.131354
 C 0.51439 0.79119 0.51439   0.715582
 C 0.29093 0.29093 0.01443   0.715484
 C 0.34934 0.34934 0.95614   -0.127916
 C 0.37601 0.37601 0.99361   -0.045188
 C 0.4298 0.4298 0.94   -0.051085
 C 0.37576 0.37576 0.86586   -0.057973
 C 0.42903 0.42903 0.81293   -0.054409
 C 0.45653 0.45653 0.84883   -0.131354
 C 0.51439 0.51439 0.79119   0.715582
 C 0.01443 0.29093 0.29093   0.715484
 C 0.95614 0.34934 0.34934   -0.127916
 C 0.99361 0.37601 0.37601   -0.045189
 C 0.94 0.4298 0.4298   -0.051085
 C 0.86586 0.37576 0.37576   -0.057973
 C 0.81293 0.42903 0.42903   -0.054409
 C 0.84883 0.45653 0.45653   -0.131354
 C 0.79119 0.51439 0.51439   0.715582
 C 0.0146 0.0146 0.2909   0.719101
 C 0.95626 0.95626 0.34836   -0.12453
 C 0.84925 0.84925 0.45495   -0.124492
 C 0.79099 0.79099 0.51459   0.708741
 C 0.2909 0.0146 0.0146   0.719101
 C 0.34836 0.95626 0.95626   -0.12453
 C 0.45495 0.84925 0.84925   -0.124492
 C 0.51459 0.79099 0.79099   0.708741
 C 0.0146 0.2909 0.0146   0.719102
 C 0.95626 0.34836 0.95626   -0.124531
 C 0.84925 0.45495 0.84925   -0.124492
 C 0.79099 0.51459 0.79099   0.70874
 C 0.00643 0.13443 0.62553   -0.059335
 C 0.06055 0.18765 0.57225   -0.046084
 C 0.13443 0.62553 0.00643   -0.059335
 C 0.18765 0.57225 0.06055   -0.046084
 C 0.62553 0.00643 0.13443   -0.059335
 C 0.57225 0.06055 0.18765   -0.046084
 C 0.13443 0.00643 0.62553   -0.059334
 C 0.18765 0.06055 0.57225   -0.046084
 C 0.62553 0.13443 0.00643   -0.059334
 C 0.57225 0.18765 0.06055   -0.046084
 C 0.00643 0.62553 0.13443   -0.059334
 C 0.06055 0.57225 0.18765   -0.046084
 C 0.98557 0.70907 0.70907   0.715484
 C 0.04386 0.65066 0.65066   -0.127916
 C 0.00639 0.62399 0.62399   -0.045189
 C 0.06 0.5702 0.5702   -0.051085
 C 0.13414 0.62424 0.62424   -0.057972
 C 0.18707 0.57097 0.57097   -0.054409
 C 0.15117 0.54347 0.54347   -0.131354
 C 0.20881 0.48561 0.48561   0.715582
 C 0.70907 0.70907 0.98557   0.715485
 C 0.65066 0.65066 0.04386   -0.127917
 C 0.62399 0.62399 0.00639   -0.045189
 C 0.5702 0.5702 0.06   -0.051085
 C 0.62424 0.62424 0.13414   -0.057972
 C 0.57097 0.57097 0.18707   -0.054409
 C 0.54347 0.54347 0.15117   -0.131354
 C 0.48561 0.48561 0.20881   0.715582
 C 0.70907 0.98557 0.70907   0.715484
 C 0.65066 0.04386 0.65066   -0.127917
 C 0.62399 0.00639 0.62399   -0.045189
 C 0.5702 0.06 0.5702   -0.051085
 C 0.62424 0.13414 0.62424   -0.057972
 C 0.57097 0.18707 0.57097   -0.054409
 C 0.54347 0.15117 0.54347   -0.131354
 C 0.48561 0.20881 0.48561   0.715582
 C 0.9854 0.9854 0.7091   0.719101
 C 0.04374 0.04374 0.65164   -0.124531
 C 0.15075 0.15075 0.54505   -0.124491
 C 0.20901 0.20901 0.48541   0.708741
 C 0.9854 0.7091 0.9854   0.719102
 C 0.04374 0.65164 0.04374   -0.124531
 C 0.15075 0.54505 0.15075   -0.124491
 C 0.20901 0.48541 0.20901   0.70874
 C 0.7091 0.9854 0.9854   0.719102
 C 0.65164 0.04374 0.04374   -0.124531
 C 0.54505 0.15075 0.15075   -0.124491
 C 0.48541 0.20901 0.20901   0.708741
 O 0.70787 0.82967 0.53677   -0.607498
 O 0.97615 0.09705 0.26835   -0.61682
 O 0.53677 0.70787 0.82967   -0.607497
 O 0.26835 0.97615 0.09705   -0.61682
 O 0.82967 0.53677 0.70787   -0.607497
 O 0.09705 0.26835 0.97615   -0.616821
 O 0.82967 0.70787 0.53677   -0.607497
 O 0.09705 0.97615 0.26835   -0.616821
 O 0.70787 0.53677 0.82967   -0.607497
 O 0.97615 0.26835 0.09705   -0.61682
 O 0.53677 0.82967 0.70787   -0.607498
 O 0.26835 0.09705 0.97615   -0.616821
 O 0.53696 0.82951 0.53696   -0.614032
 O 0.53625 0.70805 0.53625   -0.619317
 O 0.26927 0.09753 0.26927   -0.614575
 O 0.2686 0.97635 0.2686   -0.611195
 O 0.53696 0.53696 0.82951   -0.614032
 O 0.53625 0.53625 0.70805   -0.619317
 O 0.26927 0.26927 0.09753   -0.614575
 O 0.2686 0.2686 0.97635   -0.611195
 O 0.82951 0.53696 0.53696   -0.614032
 O 0.70805 0.53625 0.53625   -0.619317
 O 0.09753 0.26927 0.26927   -0.614575
 O 0.97635 0.2686 0.2686   -0.611195
 O 0.65253 0.65253 0.65253   -1.270376
 O 0.15274 0.15274 0.15274   -1.275284
 O 0.17033 0.29213 0.46323   -0.607497
 O 0.90295 0.02385 0.73165   -0.616821
 O 0.29213 0.46323 0.17033   -0.607497
 O 0.02385 0.73165 0.90295   -0.61682
 O 0.46323 0.17033 0.29213   -0.607498
 O 0.73165 0.90295 0.02385   -0.616821
 O 0.29213 0.17033 0.46323   -0.607498
 O 0.02385 0.90295 0.73165   -0.61682
 O 0.46323 0.29213 0.17033   -0.607497
 O 0.73165 0.02385 0.90295   -0.61682
 O 0.17033 0.46323 0.29213   -0.607498
 O 0.90295 0.73165 0.02385   -0.616821
 O 0.17049 0.46304 0.46304   -0.614032
 O 0.29195 0.46375 0.46375   -0.619317
 O 0.90247 0.73073 0.73073   -0.614575
 O 0.02365 0.7314 0.7314   -0.611195
 O 0.46304 0.46304 0.17049   -0.614032
 O 0.46375 0.46375 0.29195   -0.619317
 O 0.73073 0.73073 0.90247   -0.614576
 O 0.7314 0.7314 0.02365   -0.611196
 O 0.46304 0.17049 0.46304   -0.614032
 O 0.46375 0.29195 0.46375   -0.619317
 O 0.73073 0.90247 0.73073   -0.614575
 O 0.7314 0.02365 0.7314   -0.611195
 O 0.34747 0.34747 0.34747   -1.270376
 O 0.84726 0.84726 0.84726   -1.275284
