{'_ref': 'TBD', '_srcid': 'CAKYAQ_clean', 'submitters': [{'name': 'Dalar Nazarian Jeff Camp and David Sholl', 'email': 'dalar@gatech.edu jcamp6@gatech.edu'}], '_method': 'VASP DFT with PBE;DDEC'}
data_Fe2Ni3H52(C10N7)3
_symmetry_space_group_name_H-M   'P 1'
_cell_length_a   13.99850043
_cell_length_b   13.99849957
_cell_length_c   16.68800000
_cell_angle_alpha   80.95149848
_cell_angle_beta   80.95149904
_cell_angle_gamma   61.63480060
_symmetry_Int_Tables_number   1
_chemical_formula_structural   Fe2Ni3H52(C10N7)3
_chemical_formula_sum   'Fe4 Ni6 H104 C60 N42'
_cell_volume   2828.86324062
_cell_formula_units_Z   2
loop_
 _symmetry_equiv_pos_site_id
 _symmetry_equiv_pos_as_xyz
  1  'x, y, z'
loop_
 _atom_site_label
 _atom_site_fract_x
 _atom_site_fract_y
 _atom_site_fract_z
 _atom_site_charge
 Fe 0.83911 0.78031 0.4184   -0.506587
 Fe 0.21969 0.16089 0.0816   -0.506587
 Fe 0.16089 0.21969 0.5816   -0.506587
 Fe 0.78031 0.83911 0.9184   -0.506587
 Ni 0.95366 0.59122 0.69343   0.689728
 Ni 0.40878 0.04634 0.80657   0.689728
 Ni 0.04634 0.40878 0.30657   0.689728
 Ni 0.59122 0.95366 0.19343   0.689728
 Ni 0.10709 0.89291 0.25   0.391497
 Ni 0.89291 0.10709 0.75   0.391497
 H 0.1352 0.591 0.6524   0.323705
 H 0.0775 0.6681 0.7147   0.278472
 H 0.2177 0.4475 0.7395   0.047441
 H 0.2172 0.5412 0.7806   0.048026
 H 0.0945 0.5451 0.8646   0.109702
 H 0.1991 0.4313 0.8626   0.142146
 H 0.053 0.4108 0.898   0.081339
 H 0.1108 0.3608 0.8147   0.052998
 H 0.9354 0.544 0.8392   0.279242
 H 0.8838 0.4488 0.8833   0.069822
 H 0.941 0.3724 0.8132   0.02481
 H 0.7481 0.5333 0.835   0.078039
 H 0.7889 0.4175 0.8075   0.08011
 H 0.7744 0.477 0.6773   0.059645
 H 0.6797 0.5803 0.7178   0.048751
 H 0.7573 0.6693 0.677   0.304402
 H 0.8161 0.5901 0.6176   0.326364
 H 0.1648 0.8692 0.3895   0.319474
 H 0.2227 0.9209 0.3349   0.304986
 H 0.0932 0.9942 0.4454   0.043613
 H 0.1416 0.055 0.3782   0.062354
 H 0.0015 0.1613 0.3718   0.11404
 H 0.9535 0.0883 0.4239   0.089464
 H 0.9229 0.1799 0.2836   0.052486
 H 0.8651 0.1181 0.3397   0.073493
 H 0.9247 0.0047 0.2825   0.437628
 H 0.409 0.8648 0.8476   0.323708
 H 0.3319 0.9225 0.7853   0.278472
 H 0.5525 0.7823 0.7605   0.047441
 H 0.4588 0.7828 0.7194   0.048033
 H 0.4549 0.9055 0.6354   0.109702
 H 0.5687 0.8009 0.6374   0.142146
 H 0.5892 0.947 0.602   0.081339
 H 0.6392 0.8892 0.6853   0.052998
 H 0.456 0.0646 0.6608   0.279242
 H 0.5512 0.1162 0.6167   0.069822
 H 0.6276 0.059 0.6868   0.02481
 H 0.4667 0.2519 0.665   0.078041
 H 0.5825 0.2111 0.6925   0.080111
 H 0.523 0.2256 0.8227   0.059647
 H 0.4197 0.3203 0.7822   0.048756
 H 0.3307 0.2427 0.823   0.304402
 H 0.4099 0.1839 0.8824   0.326364
 H 0.1308 0.8352 0.1105   0.319474
 H 0.0791 0.7773 0.1651   0.304987
 H 0.0058 0.9068 0.0546   0.043613
 H 0.945 0.8584 0.1218   0.062354
 H 0.8387 0.9985 0.1282   0.11404
 H 0.9117 0.0465 0.0761   0.089465
 H 0.8201 0.0771 0.2164   0.052485
 H 0.8819 0.1349 0.1603   0.073493
 H 0.9953 0.0753 0.2175   0.437628
 H 0.8648 0.409 0.3476   0.323705
 H 0.9225 0.3319 0.2853   0.278472
 H 0.7823 0.5525 0.2605   0.047441
 H 0.7828 0.4588 0.2194   0.048026
 H 0.9055 0.4549 0.1354   0.109701
 H 0.8009 0.5687 0.1374   0.142146
 H 0.947 0.5892 0.102   0.081338
 H 0.8892 0.6392 0.1853   0.052997
 H 0.0646 0.456 0.1608   0.279242
 H 0.1162 0.5512 0.1167   0.069822
 H 0.059 0.6276 0.1868   0.02481
 H 0.2519 0.4667 0.165   0.07804
 H 0.2111 0.5825 0.1925   0.080108
 H 0.2256 0.523 0.3227   0.059645
 H 0.3203 0.4197 0.2822   0.048751
 H 0.2427 0.3307 0.323   0.304402
 H 0.1839 0.4099 0.3824   0.326363
 H 0.8352 0.1308 0.6105   0.319471
 H 0.7773 0.0791 0.6651   0.304985
 H 0.9068 0.0058 0.5546   0.043613
 H 0.8584 0.945 0.6218   0.062353
 H 0.9985 0.8387 0.6282   0.114039
 H 0.0465 0.9117 0.5761   0.089462
 H 0.0771 0.8201 0.7164   0.052485
 H 0.1349 0.8819 0.6603   0.073494
 H 0.0753 0.9953 0.7175   0.437628
 H 0.591 0.1352 0.1524   0.323707
 H 0.6681 0.0775 0.2147   0.278472
 H 0.4475 0.2177 0.2395   0.047441
 H 0.5412 0.2172 0.2806   0.048033
 H 0.5451 0.0945 0.3646   0.109701
 H 0.4313 0.1991 0.3626   0.142146
 H 0.4108 0.053 0.398   0.081338
 H 0.3608 0.1108 0.3147   0.052998
 H 0.544 0.9354 0.3392   0.279242
 H 0.4488 0.8838 0.3833   0.069822
 H 0.3724 0.941 0.3132   0.02481
 H 0.5333 0.7481 0.335   0.078042
 H 0.4175 0.7889 0.3075   0.08011
 H 0.477 0.7744 0.1773   0.059646
 H 0.5803 0.6797 0.2178   0.048756
 H 0.6693 0.7573 0.177   0.304402
 H 0.5901 0.8161 0.1176   0.326363
 H 0.8692 0.1648 0.8895   0.319471
 H 0.9209 0.2227 0.8349   0.304985
 H 0.9942 0.0932 0.9454   0.043612
 H 0.055 0.1416 0.8782   0.062353
 H 0.1613 0.0015 0.8718   0.114039
 H 0.0883 0.9535 0.9239   0.089463
 H 0.1799 0.9229 0.7836   0.052485
 H 0.1181 0.8651 0.8397   0.073494
 H 0.0047 0.9247 0.7825   0.437628
 C 0.9018 0.728 0.5218   0.216698
 C 0.9603 0.8013 0.3647   0.225877
 C 0.9148 0.6326 0.3875   0.220139
 C 0.7664 0.931 0.4448   0.188021
 C 0.7159 0.7551 0.465   0.201588
 C 0.7716 0.8316 0.3176   0.214591
 C 0.17 0.513 0.7675   0.127173
 C 0.1351 0.4813 0.8335   -0.26037
 C 0.0688 0.4294 0.8401   0.062552
 C 0.8986 0.4492 0.8239   0.09418
 C 0.8004 0.4824 0.7968   -0.205432
 C 0.7589 0.5347 0.7112   0.098177
 C 0.0966 0.0172 0.3869   0.142447
 C 0.9985 0.0923 0.3736   -0.198257
 C 0.9359 0.1087 0.3122   0.085226
 C 0.272 0.0982 0.9782   0.216698
 C 0.1987 0.0397 0.1353   0.225877
 C 0.3674 0.0852 0.1125   0.220139
 C 0.069 0.2336 0.0552   0.188021
 C 0.2449 0.2841 0.035   0.201589
 C 0.1684 0.2284 0.1824   0.214591
 C 0.487 0.83 0.7325   0.127171
 C 0.5187 0.8649 0.6665   -0.260369
 C 0.5706 0.9312 0.6599   0.062552
 C 0.5508 0.1014 0.6761   0.09418
 C 0.5176 0.1996 0.7032   -0.205433
 C 0.4653 0.2411 0.7888   0.098175
 C 0.9828 0.9034 0.1131   0.142447
 C 0.9077 0.0015 0.1264   -0.198258
 C 0.8913 0.0641 0.1878   0.085227
 C 0.0982 0.272 0.4782   0.216698
 C 0.0397 0.1987 0.6353   0.225877
 C 0.0852 0.3674 0.6125   0.220139
 C 0.2336 0.069 0.5552   0.188021
 C 0.2841 0.2449 0.535   0.201588
 C 0.2284 0.1684 0.6824   0.214591
 C 0.83 0.487 0.2325   0.127173
 C 0.8649 0.5187 0.1665   -0.26037
 C 0.9312 0.5706 0.1599   0.062552
 C 0.1014 0.5508 0.1761   0.09418
 C 0.1996 0.5176 0.2032   -0.205432
 C 0.2411 0.4653 0.2888   0.098177
 C 0.9034 0.9828 0.6131   0.142447
 C 0.0015 0.9077 0.6264   -0.198256
 C 0.0641 0.8913 0.6878   0.085226
 C 0.728 0.9018 0.0218   0.216698
 C 0.8013 0.9603 0.8647   0.225877
 C 0.6326 0.9148 0.8875   0.220139
 C 0.931 0.7664 0.9448   0.188021
 C 0.7551 0.7159 0.965   0.201589
 C 0.8316 0.7716 0.8176   0.214591
 C 0.513 0.17 0.2675   0.127171
 C 0.4813 0.1351 0.3335   -0.260369
 C 0.4294 0.0688 0.3401   0.062552
 C 0.4492 0.8986 0.3239   0.09418
 C 0.4824 0.8004 0.2968   -0.205433
 C 0.5347 0.7589 0.2112   0.098175
 C 0.0172 0.0966 0.8869   0.142446
 C 0.0923 0.9985 0.8736   -0.198257
 C 0.1087 0.9359 0.8122   0.085227
 N 0.9362 0.691 0.5833   -0.478437
 N 0.0281 0.8185 0.328   -0.51934
 N 0.9607 0.5475 0.3668   -0.434207
 N 0.7251 0.0205 0.4569   -0.568235
 N 0.6481 0.7331 0.4903   -0.546923
 N 0.7259 0.8663 0.2603   -0.495716
 N 0.0958 0.6002 0.702   -0.604057
 N 0.968 0.4896 0.8046   -0.364712
 N 0.8084 0.599 0.6714   -0.568746
 N 0.1555 0.9253 0.3504   -0.579347
 N 0.309 0.0638 0.9167   -0.478437
 N 0.1815 0.9719 0.172   -0.519341
 N 0.4525 0.0393 0.1332   -0.434207
 N 0.9795 0.2749 0.0431   -0.568235
 N 0.2669 0.3519 0.0097   -0.546923
 N 0.1337 0.2741 0.2397   -0.495716
 N 0.3998 0.9042 0.798   -0.604058
 N 0.5104 0.032 0.6954   -0.364712
 N 0.401 0.1916 0.8286   -0.568746
 N 0.0747 0.8445 0.1496   -0.579347
 N 0.0638 0.309 0.4167   -0.478436
 N 0.9719 0.1815 0.672   -0.51934
 N 0.0393 0.4525 0.6332   -0.434207
 N 0.2749 0.9795 0.5431   -0.568235
 N 0.3519 0.2669 0.5097   -0.546923
 N 0.2741 0.1337 0.7397   -0.495715
 N 0.9042 0.3998 0.298   -0.604057
 N 0.032 0.5104 0.1954   -0.364712
 N 0.1916 0.401 0.3286   -0.568746
 N 0.8445 0.0747 0.6496   -0.579345
 N 0.691 0.9362 0.0833   -0.478436
 N 0.8185 0.0281 0.828   -0.519341
 N 0.5475 0.9607 0.8668   -0.434206
 N 0.0205 0.7251 0.9569   -0.568235
 N 0.7331 0.6481 0.9903   -0.546923
 N 0.8663 0.7259 0.7603   -0.495715
 N 0.6002 0.0958 0.202   -0.604058
 N 0.4896 0.968 0.3046   -0.364712
 N 0.599 0.8084 0.1714   -0.568746
 N 0.9253 0.1555 0.8504   -0.579345
 N 0.96 0.04 0.25   -0.568665
 N 0.04 0.96 0.75   -0.568665
