{'_ref': 'TBD', '_srcid': 'CAKYAQ_clean', 'submitters': [{'name': 'Dalar Nazarian Jeff Camp and David Sholl', 'email': 'dalar@gatech.edu jcamp6@gatech.edu'}], '_method': 'VASP DFT with PBE;DDEC'}
data_ZnH6(C3N2)2
_symmetry_space_group_name_H-M   'P 1'
_cell_length_a   18.38900000
_cell_length_b   18.38900000
_cell_length_c   19.12900000
_cell_angle_alpha   90.00000000
_cell_angle_beta   90.00000000
_cell_angle_gamma   90.00000000
_symmetry_Int_Tables_number   1
_chemical_formula_structural   ZnH6(C3N2)2
_chemical_formula_sum   'Zn16 H96 C96 N64'
_cell_volume   6468.57313541
_cell_formula_units_Z   16
loop_
 _symmetry_equiv_pos_site_id
 _symmetry_equiv_pos_as_xyz
  1  'x, y, z'
loop_
 _atom_site_label
 _atom_site_fract_x
 _atom_site_fract_y
 _atom_site_fract_z
 _atom_site_charge
 Zn 0.68429 0.11813 0.40694   0.744159
 Zn 0.63187 0.93429 0.65694   0.744159
 Zn 0.18429 0.61813 0.90694   0.744159
 Zn 0.13187 0.43429 0.15694   0.744159
 Zn 0.36813 0.56571 0.65694   0.744159
 Zn 0.81571 0.88187 0.90694   0.744159
 Zn 0.86813 0.06571 0.15694   0.744159
 Zn 0.31571 0.38187 0.40694   0.744159
 Zn 0.31571 0.88187 0.59306   0.744159
 Zn 0.36813 0.06571 0.34306   0.744159
 Zn 0.81571 0.38187 0.09306   0.744159
 Zn 0.86813 0.56571 0.84306   0.744159
 Zn 0.63187 0.43429 0.34306   0.744159
 Zn 0.18429 0.11813 0.09306   0.744159
 Zn 0.13187 0.93429 0.84306   0.744159
 Zn 0.68429 0.61813 0.59306   0.744159
 H 0.6108 0.016 0.5141   0.046443
 H 0.734 0.8608 0.7641   0.046443
 H 0.1108 0.516 0.0141   0.046443
 H 0.234 0.3608 0.2641   0.046443
 H 0.266 0.6392 0.7641   0.046443
 H 0.8892 0.984 0.0141   0.046443
 H 0.766 0.1392 0.2641   0.046443
 H 0.3892 0.484 0.5141   0.046443
 H 0.3892 0.984 0.4859   0.046442
 H 0.266 0.1392 0.2359   0.046442
 H 0.8892 0.484 0.9859   0.046442
 H 0.766 0.6392 0.7359   0.046442
 H 0.734 0.3608 0.2359   0.046442
 H 0.1108 0.016 0.9859   0.046442
 H 0.234 0.8608 0.7359   0.046442
 H 0.6108 0.516 0.4859   0.046442
 H 0.7947 0.1109 0.5401   0.096766
 H 0.6391 0.0447 0.7901   0.096766
 H 0.2947 0.6109 0.0401   0.096766
 H 0.1391 0.5447 0.2901   0.096766
 H 0.3609 0.4553 0.7901   0.096766
 H 0.7053 0.8891 0.0401   0.096766
 H 0.8609 0.9553 0.2901   0.096766
 H 0.2053 0.3891 0.5401   0.096766
 H 0.2053 0.8891 0.4599   0.096766
 H 0.3609 0.9553 0.2099   0.096766
 H 0.7053 0.3891 0.9599   0.096766
 H 0.8609 0.4553 0.7099   0.096766
 H 0.6391 0.5447 0.2099   0.096766
 H 0.2947 0.1109 0.9599   0.096766
 H 0.1391 0.0447 0.7099   0.096766
 H 0.7947 0.6109 0.4599   0.096766
 H 0.7668 0.0458 0.6452   0.092277
 H 0.7042 0.0168 0.8952   0.092277
 H 0.2668 0.5458 0.1452   0.092277
 H 0.2042 0.5168 0.3952   0.092277
 H 0.2958 0.4832 0.8952   0.092277
 H 0.7332 0.9542 0.1452   0.092277
 H 0.7958 0.9832 0.3952   0.092277
 H 0.2332 0.4542 0.6452   0.092277
 H 0.2332 0.9542 0.3548   0.092277
 H 0.2958 0.9832 0.1048   0.092277
 H 0.7332 0.4542 0.8548   0.092277
 H 0.7958 0.4832 0.6048   0.092277
 H 0.7042 0.5168 0.1048   0.092277
 H 0.2668 0.0458 0.8548   0.092277
 H 0.2042 0.0168 0.6048   0.092277
 H 0.7668 0.5458 0.3548   0.092277
 H 0.5114 0.1374 0.4067   0.047477
 H 0.6126 0.7614 0.6567   0.047477
 H 0.0114 0.6374 0.9067   0.047477
 H 0.1126 0.2614 0.1567   0.047477
 H 0.3874 0.7386 0.6567   0.047477
 H 0.9886 0.8626 0.9067   0.047477
 H 0.8874 0.2386 0.1567   0.047477
 H 0.4886 0.3626 0.4067   0.047477
 H 0.4886 0.8626 0.5933   0.047477
 H 0.3874 0.2386 0.3433   0.047477
 H 0.9886 0.3626 0.0933   0.047477
 H 0.8874 0.7386 0.8433   0.047477
 H 0.6126 0.2614 0.3433   0.047477
 H 0.0114 0.1374 0.0933   0.047477
 H 0.1126 0.7614 0.8433   0.047477
 H 0.5114 0.6374 0.5933   0.047477
 H 0.6266 0.9966 0.3109   0.087853
 H 0.7534 0.8766 0.5609   0.087853
 H 0.1266 0.4966 0.8109   0.087853
 H 0.2534 0.3766 0.0609   0.087853
 H 0.2466 0.6234 0.5609   0.087853
 H 0.8734 0.0034 0.8109   0.087853
 H 0.7466 0.1234 0.0609   0.087853
 H 0.3734 0.5034 0.3109   0.087853
 H 0.3734 0.0034 0.6891   0.087853
 H 0.2466 0.1234 0.4391   0.087853
 H 0.8734 0.5034 0.1891   0.087853
 H 0.7466 0.6234 0.9391   0.087853
 H 0.7534 0.3766 0.4391   0.087853
 H 0.1266 0.9966 0.1891   0.087853
 H 0.2534 0.8766 0.9391   0.087853
 H 0.6266 0.4966 0.6891   0.087853
 H 0.4973 0.9743 0.2787   0.105515
 H 0.7757 0.7473 0.5287   0.105515
 H 0.9973 0.4743 0.7787   0.105515
 H 0.2757 0.2473 0.0287   0.105515
 H 0.2243 0.7527 0.5287   0.105515
 H 0.0027 0.0257 0.7787   0.105515
 H 0.7243 0.2527 0.0287   0.105515
 H 0.5027 0.5257 0.2787   0.105515
 H 0.5027 0.0257 0.7213   0.105515
 H 0.2243 0.2527 0.4713   0.105515
 H 0.0027 0.5257 0.2213   0.105515
 H 0.7243 0.7527 0.9713   0.105515
 H 0.7757 0.2473 0.4713   0.105515
 H 0.9973 0.9743 0.2213   0.105515
 H 0.2757 0.7473 0.9713   0.105515
 H 0.4973 0.4743 0.7213   0.105515
 C 0.6532 0.0335 0.5347   0.250437
 C 0.7165 0.9032 0.7847   0.250437
 C 0.1532 0.5335 0.0347   0.250437
 C 0.2165 0.4032 0.2847   0.250437
 C 0.2835 0.5968 0.7847   0.250437
 C 0.8468 0.9665 0.0347   0.250437
 C 0.7835 0.0968 0.2847   0.250437
 C 0.3468 0.4665 0.5347   0.250437
 C 0.3468 0.9665 0.4653   0.250437
 C 0.2835 0.0968 0.2153   0.250437
 C 0.8468 0.4665 0.9653   0.250437
 C 0.7835 0.5968 0.7153   0.250437
 C 0.7165 0.4032 0.2153   0.250437
 C 0.1532 0.0335 0.9653   0.250437
 C 0.2165 0.9032 0.7153   0.250437
 C 0.6532 0.5335 0.4653   0.250437
 C 0.7522 0.0848 0.5482   -0.050598
 C 0.6652 0.0022 0.7982   -0.050598
 C 0.2522 0.5848 0.0482   -0.050598
 C 0.1652 0.5022 0.2982   -0.050598
 C 0.3348 0.4978 0.7982   -0.050598
 C 0.7478 0.9152 0.0482   -0.050598
 C 0.8348 0.9978 0.2982   -0.050598
 C 0.2478 0.4152 0.5482   -0.050598
 C 0.2478 0.9152 0.4518   -0.050597
 C 0.3348 0.9978 0.2018   -0.050597
 C 0.7478 0.4152 0.9518   -0.050597
 C 0.8348 0.4978 0.7018   -0.050597
 C 0.6652 0.5022 0.2018   -0.050597
 C 0.2522 0.0848 0.9518   -0.050597
 C 0.1652 0.0022 0.7018   -0.050597
 C 0.7522 0.5848 0.4518   -0.050597
 C 0.7374 0.0477 0.6057   -0.016157
 C 0.7023 0.9874 0.8557   -0.016157
 C 0.2374 0.5477 0.1057   -0.016157
 C 0.2023 0.4874 0.3557   -0.016157
 C 0.2977 0.5126 0.8557   -0.016157
 C 0.7626 0.9523 0.1057   -0.016157
 C 0.7977 0.0126 0.3557   -0.016157
 C 0.2626 0.4523 0.6057   -0.016157
 C 0.2626 0.9523 0.3943   -0.016157
 C 0.2977 0.0126 0.1443   -0.016157
 C 0.7626 0.4523 0.8943   -0.016157
 C 0.7977 0.5126 0.6443   -0.016157
 C 0.7023 0.4874 0.1443   -0.016157
 C 0.2374 0.0477 0.8943   -0.016157
 C 0.2023 0.9874 0.6443   -0.016157
 C 0.7374 0.5477 0.3943   -0.016157
 C 0.5244 0.0994 0.3771   0.227394
 C 0.6506 0.7744 0.6271   0.227394
 C 0.0244 0.5994 0.8771   0.227394
 C 0.1506 0.2744 0.1271   0.227394
 C 0.3494 0.7256 0.6271   0.227394
 C 0.9756 0.9006 0.8771   0.227394
 C 0.8494 0.2256 0.1271   0.227394
 C 0.4756 0.4006 0.3771   0.227394
 C 0.4756 0.9006 0.6229   0.227394
 C 0.3494 0.2256 0.3729   0.227394
 C 0.9756 0.4006 0.1229   0.227394
 C 0.8494 0.7256 0.8729   0.227394
 C 0.6506 0.2744 0.3729   0.227394
 C 0.0244 0.0994 0.1229   0.227394
 C 0.1506 0.7744 0.8729   0.227394
 C 0.5244 0.5994 0.6229   0.227394
 C 0.5871 0.0241 0.326   -0.036822
 C 0.7259 0.8371 0.576   -0.036822
 C 0.0871 0.5241 0.826   -0.036822
 C 0.2259 0.3371 0.076   -0.036822
 C 0.2741 0.6629 0.576   -0.036822
 C 0.9129 0.9759 0.826   -0.036822
 C 0.7741 0.1629 0.076   -0.036822
 C 0.4129 0.4759 0.326   -0.036822
 C 0.4129 0.9759 0.674   -0.036822
 C 0.2741 0.1629 0.424   -0.036822
 C 0.9129 0.4759 0.174   -0.036822
 C 0.7741 0.6629 0.924   -0.036822
 C 0.7259 0.3371 0.424   -0.036822
 C 0.0871 0.0241 0.174   -0.036822
 C 0.2259 0.8371 0.924   -0.036822
 C 0.5871 0.5241 0.674   -0.036822
 C 0.5147 0.0105 0.3083   -0.051579
 C 0.7395 0.7647 0.5583   -0.051579
 C 0.0147 0.5105 0.8083   -0.051579
 C 0.2395 0.2647 0.0583   -0.051579
 C 0.2605 0.7353 0.5583   -0.051579
 C 0.9853 0.9895 0.8083   -0.051579
 C 0.7605 0.2353 0.0583   -0.051579
 C 0.4853 0.4895 0.3083   -0.051579
 C 0.4853 0.9895 0.6917   -0.051579
 C 0.2605 0.2353 0.4417   -0.051579
 C 0.9853 0.4895 0.1917   -0.051579
 C 0.7605 0.7353 0.9417   -0.051579
 C 0.7395 0.2647 0.4417   -0.051579
 C 0.0147 0.0105 0.1917   -0.051579
 C 0.2395 0.7647 0.9417   -0.051579
 C 0.5147 0.5105 0.6917   -0.051579
 N 0.6953 0.0788 0.5025   -0.382584
 N 0.6712 0.9453 0.7525   -0.382584
 N 0.1953 0.5788 0.0025   -0.382584
 N 0.1712 0.4453 0.2525   -0.382584
 N 0.3288 0.5547 0.7525   -0.382584
 N 0.8047 0.9212 0.0025   -0.382584
 N 0.8288 0.0547 0.2525   -0.382584
 N 0.3047 0.4212 0.5025   -0.382584
 N 0.3047 0.9212 0.4975   -0.382584
 N 0.3288 0.0547 0.2475   -0.382584
 N 0.8047 0.4212 0.9975   -0.382584
 N 0.8288 0.5547 0.7475   -0.382584
 N 0.6712 0.4453 0.2475   -0.382584
 N 0.1953 0.0788 0.9975   -0.382584
 N 0.1712 0.9453 0.7475   -0.382584
 N 0.6953 0.5788 0.4975   -0.382584
 N 0.6731 0.0129 0.5984   -0.407516
 N 0.7371 0.9231 0.8484   -0.407516
 N 0.1731 0.5129 0.0984   -0.407516
 N 0.2371 0.4231 0.3484   -0.407516
 N 0.2629 0.5769 0.8484   -0.407516
 N 0.8269 0.9871 0.0984   -0.407516
 N 0.7629 0.0769 0.3484   -0.407516
 N 0.3269 0.4871 0.5984   -0.407516
 N 0.3269 0.9871 0.4016   -0.407516
 N 0.2629 0.0769 0.1516   -0.407516
 N 0.8269 0.4871 0.9016   -0.407516
 N 0.7629 0.5769 0.6516   -0.407516
 N 0.7371 0.4231 0.1516   -0.407516
 N 0.1731 0.0129 0.9016   -0.407516
 N 0.2371 0.9231 0.6516   -0.407516
 N 0.6731 0.5129 0.4016   -0.407516
 N 0.5917 0.0814 0.3672   -0.364333
 N 0.6686 0.8417 0.6172   -0.364333
 N 0.0917 0.5814 0.8672   -0.364333
 N 0.1686 0.3417 0.1172   -0.364333
 N 0.3314 0.6583 0.6172   -0.364333
 N 0.9083 0.9186 0.8672   -0.364333
 N 0.8314 0.1583 0.1172   -0.364333
 N 0.4083 0.4186 0.3672   -0.364333
 N 0.4083 0.9186 0.6328   -0.364333
 N 0.3314 0.1583 0.3828   -0.364333
 N 0.9083 0.4186 0.1328   -0.364333
 N 0.8314 0.6583 0.8828   -0.364333
 N 0.6686 0.3417 0.3828   -0.364333
 N 0.0917 0.0814 0.1328   -0.364333
 N 0.1686 0.8417 0.8828   -0.364333
 N 0.5917 0.5814 0.6328   -0.364333
 N 0.4753 0.0608 0.3431   -0.388733
 N 0.6892 0.7253 0.5931   -0.388733
 N 0.9753 0.5608 0.8431   -0.388733
 N 0.1892 0.2253 0.0931   -0.388733
 N 0.3108 0.7747 0.5931   -0.388733
 N 0.0247 0.9392 0.8431   -0.388733
 N 0.8108 0.2747 0.0931   -0.388733
 N 0.5247 0.4392 0.3431   -0.388733
 N 0.5247 0.9392 0.6569   -0.388733
 N 0.3108 0.2747 0.4069   -0.388733
 N 0.0247 0.4392 0.1569   -0.388733
 N 0.8108 0.7747 0.9069   -0.388733
 N 0.6892 0.2253 0.4069   -0.388733
 N 0.9753 0.0608 0.1569   -0.388733
 N 0.1892 0.7253 0.9069   -0.388733
 N 0.4753 0.5608 0.6569   -0.388733
