{'_ref': 'TBD', '_srcid': 'CAKYAQ_clean', 'submitters': [{'name': 'Dalar Nazarian Jeff Camp and David Sholl', 'email': 'dalar@gatech.edu jcamp6@gatech.edu'}], '_method': 'VASP DFT with PBE;DDEC'}
data_Zn2H34C45(NO6)2
_symmetry_space_group_name_H-M   'P 1'
_cell_length_a   16.03460006
_cell_length_b   16.03459985
_cell_length_c   26.47100000
_cell_angle_alpha   84.31170100
_cell_angle_beta   84.31170108
_cell_angle_gamma   84.36830166
_symmetry_Int_Tables_number   1
_chemical_formula_structural   Zn2H34C45(NO6)2
_chemical_formula_sum   'Zn8 H136 C180 N8 O48'
_cell_volume   6712.19947817
_cell_formula_units_Z   4
loop_
 _symmetry_equiv_pos_site_id
 _symmetry_equiv_pos_as_xyz
  1  'x, y, z'
loop_
 _atom_site_label
 _atom_site_fract_x
 _atom_site_fract_y
 _atom_site_fract_z
 _atom_site_charge
 Zn 0.7219 0.31994 0.49331   0.921034
 Zn 0.90117 0.30635 0.47211   0.917813
 Zn 0.31994 0.7219 0.99331   0.921034
 Zn 0.30635 0.90117 0.97211   0.917813
 Zn 0.68006 0.2781 0.00669   0.921034
 Zn 0.69365 0.09883 0.02789   0.917813
 Zn 0.2781 0.68006 0.50669   0.921034
 Zn 0.09883 0.69365 0.52789   0.917813
 H 0.6777 0.5559 0.3938   0.087975
 H 0.6766 0.6816 0.3445   0.124562
 H 0.9262 0.662 0.3302   0.136239
 H 0.9279 0.5361 0.3796   0.091499
 H 0.6975 0.8175 0.2992   0.061775
 H 0.7169 0.7447 0.2628   0.055572
 H 0.6498 0.9142 0.2227   0.063724
 H 0.711 0.9244 0.1725   0.066661
 H 0.6004 0.6964 0.1611   0.128668
 H 0.4927 0.6925 0.1098   0.090278
 H 0.4703 0.9407 0.0911   0.082727
 H 0.5775 0.9473 0.1427   0.131464
 H 0.8542 0.9086 0.2773   0.058274
 H 0.8297 0.9703 0.2299   0.056761
 H 0.6508 0.0522 0.342   0.131391
 H 0.6742 0.1516 0.3939   0.080549
 H 0.9155 0.1347 0.344   0.084217
 H 0.892 0.0286 0.2927   0.126863
 H 0.8899 0.7913 0.2169   0.056344
 H 0.8229 0.7657 0.1831   0.04764
 H 0.9597 0.7263 0.1508   0.133057
 H 0.087 0.707 0.1019   0.088046
 H 0.0724 0.947 0.052   0.09407
 H 0.9437 0.9687 0.0981   0.1391
 H 0.0283 0.3927 0.5162   0.087262
 H 0.17 0.3894 0.5179   0.124731
 H 0.1958 0.2034 0.426   0.123052
 H 0.0506 0.2088 0.4287   0.08126
 H 0.321 0.2476 0.4557   0.100556
 H 0.299 0.3782 0.5139   0.103456
 H 0.4463 0.2219 0.4677   0.134995
 H 0.5915 0.2121 0.469   0.103057
 H 0.5744 0.438 0.5246   0.092537
 H 0.4293 0.4477 0.5233   0.127931
 H 0.5559 0.6777 0.8938   0.087975
 H 0.6816 0.6766 0.8445   0.124562
 H 0.662 0.9262 0.8302   0.136239
 H 0.5361 0.9279 0.8796   0.091499
 H 0.8175 0.6975 0.7992   0.061775
 H 0.7447 0.7169 0.7628   0.055572
 H 0.9142 0.6498 0.7227   0.063724
 H 0.9244 0.711 0.6725   0.066661
 H 0.6964 0.6004 0.6611   0.128668
 H 0.6925 0.4927 0.6098   0.090277
 H 0.9407 0.4703 0.5911   0.082727
 H 0.9473 0.5775 0.6427   0.131464
 H 0.9086 0.8542 0.7773   0.058274
 H 0.9703 0.8297 0.7299   0.056761
 H 0.0522 0.6508 0.842   0.131391
 H 0.1516 0.6742 0.8939   0.080549
 H 0.1347 0.9155 0.844   0.084217
 H 0.0286 0.892 0.7927   0.126863
 H 0.7913 0.8899 0.7169   0.056344
 H 0.7657 0.8229 0.6831   0.04764
 H 0.7263 0.9597 0.6508   0.133057
 H 0.707 0.087 0.6019   0.088046
 H 0.947 0.0724 0.552   0.09407
 H 0.9687 0.9437 0.5981   0.1391
 H 0.3927 0.0283 0.0162   0.087262
 H 0.3894 0.17 0.0179   0.124731
 H 0.2034 0.1958 0.926   0.123052
 H 0.2088 0.0506 0.9287   0.08126
 H 0.2476 0.321 0.9557   0.100556
 H 0.3782 0.299 0.0139   0.103456
 H 0.2219 0.4463 0.9677   0.134995
 H 0.2121 0.5915 0.969   0.103057
 H 0.438 0.5744 0.0246   0.092537
 H 0.4477 0.4293 0.0233   0.127931
 H 0.4441 0.3223 0.1062   0.087975
 H 0.3184 0.3234 0.1555   0.124562
 H 0.338 0.0738 0.1698   0.136239
 H 0.4639 0.0721 0.1204   0.091499
 H 0.1825 0.3025 0.2008   0.061775
 H 0.2553 0.2831 0.2372   0.055572
 H 0.0858 0.3502 0.2773   0.063724
 H 0.0756 0.289 0.3275   0.066661
 H 0.3036 0.3996 0.3389   0.128667
 H 0.3075 0.5073 0.3902   0.090277
 H 0.0593 0.5297 0.4089   0.082727
 H 0.0527 0.4225 0.3573   0.131464
 H 0.0914 0.1458 0.2227   0.058274
 H 0.0297 0.1703 0.2701   0.056761
 H 0.9478 0.3492 0.158   0.131392
 H 0.8484 0.3258 0.1061   0.080549
 H 0.8653 0.0845 0.156   0.084217
 H 0.9714 0.108 0.2073   0.126863
 H 0.2087 0.1101 0.2831   0.056344
 H 0.2343 0.1771 0.3169   0.04764
 H 0.2737 0.0403 0.3492   0.133058
 H 0.293 0.913 0.3981   0.088047
 H 0.053 0.9276 0.448   0.09407
 H 0.0313 0.0563 0.4019   0.1391
 H 0.6073 0.9717 0.9838   0.087262
 H 0.6106 0.83 0.9821   0.124731
 H 0.7966 0.8042 0.074   0.123052
 H 0.7912 0.9494 0.0713   0.08126
 H 0.7524 0.679 0.0443   0.100556
 H 0.6218 0.701 0.9861   0.103456
 H 0.7781 0.5537 0.0323   0.134996
 H 0.7879 0.4085 0.031   0.103057
 H 0.562 0.4256 0.9754   0.092537
 H 0.5523 0.5707 0.9767   0.127931
 H 0.3223 0.4441 0.6062   0.087975
 H 0.3234 0.3184 0.6555   0.124562
 H 0.0738 0.338 0.6698   0.136239
 H 0.0721 0.4639 0.6204   0.091499
 H 0.3025 0.1825 0.7008   0.061775
 H 0.2831 0.2553 0.7372   0.055572
 H 0.3502 0.0858 0.7773   0.063724
 H 0.289 0.0756 0.8275   0.066661
 H 0.3996 0.3036 0.8389   0.128667
 H 0.5073 0.3075 0.8902   0.090277
 H 0.5297 0.0593 0.9089   0.082727
 H 0.4225 0.0527 0.8573   0.131464
 H 0.1458 0.0914 0.7227   0.058274
 H 0.1703 0.0297 0.7701   0.056761
 H 0.3492 0.9478 0.658   0.131392
 H 0.3258 0.8484 0.6061   0.080549
 H 0.0845 0.8653 0.656   0.084217
 H 0.108 0.9714 0.7073   0.126863
 H 0.1101 0.2087 0.7831   0.056344
 H 0.1771 0.2343 0.8169   0.04764
 H 0.0403 0.2737 0.8492   0.133058
 H 0.913 0.293 0.8981   0.088047
 H 0.9276 0.053 0.948   0.09407
 H 0.0563 0.0313 0.9019   0.1391
 H 0.9717 0.6073 0.4838   0.087262
 H 0.83 0.6106 0.4821   0.124731
 H 0.8042 0.7966 0.574   0.123052
 H 0.9494 0.7912 0.5713   0.08126
 H 0.679 0.7524 0.5443   0.100556
 H 0.701 0.6218 0.4861   0.103456
 H 0.5537 0.7781 0.5323   0.134996
 H 0.4085 0.7879 0.531   0.103057
 H 0.4256 0.562 0.4754   0.092537
 H 0.5707 0.5523 0.4767   0.127931
 C 0.8042 0.4504 0.4225   0.697196
 C 0.8037 0.5309 0.3894   -0.205858
 C 0.7282 0.5766 0.3802   0.017676
 C 0.7276 0.6518 0.3513   -0.272319
 C 0.8024 0.6842 0.3321   0.298792
 C 0.8757 0.6405 0.3428   -0.248021
 C 0.8768 0.5646 0.3718   0.017248
 C 0.7406 0.7902 0.2765   0.082804
 C 0.7715 0.8541 0.2328   -0.066255
 C 0.6941 0.8857 0.2015   0.079382
 C 0.6022 0.8228 0.155   0.291683
 C 0.5751 0.7463 0.1462   -0.259768
 C 0.5107 0.7439 0.1153   0.015673
 C 0.4741 0.8153 0.0933   -0.20627
 C 0.498 0.891 0.1046   0.029227
 C 0.5623 0.8955 0.1355   -0.28288
 C 0.4088 0.8108 0.0562   0.699169
 C 0.8086 0.9302 0.2568   0.084958
 C 0.767 0.0314 0.3142   0.307078
 C 0.705 0.0678 0.3426   -0.242751
 C 0.7187 0.1283 0.373   0.015758
 C 0.7984 0.1554 0.373   -0.183152
 C 0.8614 0.1182 0.344   0.024976
 C 0.8479 0.0541 0.313   -0.284613
 C 0.8122 0.218 0.4079   0.698702
 C 0.8429 0.8127 0.1974   0.082494
 C 0.9426 0.8498 0.1306   0.300883
 C 0.9825 0.7715 0.1313   -0.307383
 C 0.0587 0.7605 0.1018   0.032788
 C 0.0936 0.8258 0.0725   -0.199563
 C 0.05 0.902 0.072   0.027315
 C 0.9735 0.9159 0.0999   -0.260318
 C 0.1768 0.8152 0.0425   0.705072
 C 0.0628 0.3536 0.4982   0.169421
 C 0.1476 0.3522 0.4992   -0.183349
 C 0.1997 0.2959 0.4728   0.136367
 C 0.1624 0.2418 0.4451   -0.205709
 C 0.0751 0.2457 0.4464   0.171116
 C 0.29 0.2896 0.4731   -0.091482
 C 0.3309 0.3377 0.4956   -0.106609
 C 0.4234 0.3358 0.4954   0.14151
 C 0.472 0.2652 0.4791   -0.208418
 C 0.5589 0.2593 0.4799   0.159238
 C 0.5488 0.3946 0.5132   0.156632
 C 0.46176 0.40056 0.51246   -0.203332
 C 0.4504 0.8042 0.9225   0.697196
 C 0.5309 0.8037 0.8894   -0.205858
 C 0.5766 0.7282 0.8802   0.017676
 C 0.6518 0.7276 0.8513   -0.272319
 C 0.6842 0.8024 0.8321   0.298791
 C 0.6405 0.8757 0.8428   -0.248021
 C 0.5646 0.8768 0.8718   0.017248
 C 0.7902 0.7406 0.7765   0.082804
 C 0.8541 0.7715 0.7328   -0.066255
 C 0.8857 0.6941 0.7015   0.079382
 C 0.8228 0.6022 0.655   0.291683
 C 0.7463 0.5751 0.6462   -0.259768
 C 0.7439 0.5107 0.6153   0.015673
 C 0.8153 0.4741 0.5933   -0.20627
 C 0.891 0.498 0.6046   0.029227
 C 0.8955 0.5623 0.6355   -0.28288
 C 0.8108 0.4088 0.5562   0.699169
 C 0.9302 0.8086 0.7568   0.084958
 C 0.0314 0.767 0.8142   0.307078
 C 0.0678 0.705 0.8426   -0.24275
 C 0.1283 0.7187 0.873   0.015756
 C 0.1554 0.7984 0.873   -0.183151
 C 0.1182 0.8614 0.844   0.024976
 C 0.0541 0.8479 0.813   -0.284613
 C 0.218 0.8122 0.9079   0.698702
 C 0.8127 0.8429 0.6974   0.082494
 C 0.8498 0.9426 0.6306   0.300883
 C 0.7715 0.9825 0.6313   -0.307383
 C 0.7605 0.0587 0.6018   0.032788
 C 0.8258 0.0936 0.5725   -0.199563
 C 0.902 0.05 0.572   0.027315
 C 0.9159 0.9735 0.5999   -0.260318
 C 0.8152 0.1768 0.5425   0.705072
 C 0.3536 0.0628 0.9982   0.169419
 C 0.3522 0.1476 0.9992   -0.183346
 C 0.2959 0.1997 0.9728   0.136366
 C 0.2418 0.1624 0.9451   -0.205708
 C 0.2457 0.0751 0.9464   0.171116
 C 0.2896 0.29 0.9731   -0.091482
 C 0.3377 0.3309 0.9956   -0.106609
 C 0.3358 0.4234 0.9954   0.14151
 C 0.2652 0.472 0.9791   -0.208418
 C 0.2593 0.5589 0.9799   0.159238
 C 0.3946 0.5488 0.0132   0.156632
 C 0.40056 0.46176 0.01246   -0.203333
 C 0.5496 0.1958 0.0775   0.697196
 C 0.4691 0.1963 0.1106   -0.205858
 C 0.4234 0.2718 0.1198   0.017676
 C 0.3482 0.2724 0.1487   -0.272319
 C 0.3158 0.1976 0.1679   0.298792
 C 0.3595 0.1243 0.1572   -0.248021
 C 0.4354 0.1232 0.1282   0.017248
 C 0.2098 0.2594 0.2235   0.082804
 C 0.1459 0.2285 0.2672   -0.066255
 C 0.1143 0.3059 0.2985   0.079382
 C 0.1772 0.3978 0.345   0.291683
 C 0.2537 0.4249 0.3538   -0.259768
 C 0.2561 0.4893 0.3847   0.015673
 C 0.1847 0.5259 0.4067   -0.20627
 C 0.109 0.502 0.3954   0.029227
 C 0.1045 0.4377 0.3645   -0.28288
 C 0.1892 0.5912 0.4438   0.699169
 C 0.0698 0.1914 0.2432   0.084958
 C 0.9686 0.233 0.1858   0.307078
 C 0.9322 0.295 0.1574   -0.242751
 C 0.8717 0.2813 0.127   0.015756
 C 0.8446 0.2016 0.127   -0.183151
 C 0.8818 0.1386 0.156   0.024976
 C 0.9459 0.1521 0.187   -0.284613
 C 0.782 0.1878 0.0921   0.698702
 C 0.1873 0.1571 0.3026   0.082494
 C 0.1502 0.0574 0.3694   0.300883
 C 0.2285 0.0175 0.3687   -0.307383
 C 0.2395 0.9413 0.3982   0.032787
 C 0.1742 0.9064 0.4275   -0.199562
 C 0.098 0.95 0.428   0.027316
 C 0.0841 0.0265 0.4001   -0.260318
 C 0.1848 0.8232 0.4575   0.705072
 C 0.6464 0.9372 0.0018   0.169419
 C 0.6478 0.8524 0.000799999999998   -0.183345
 C 0.7041 0.8003 0.0272   0.136366
 C 0.7582 0.8376 0.0549   -0.205708
 C 0.7543 0.9249 0.0536   0.171116
 C 0.7104 0.71 0.0269   -0.091481
 C 0.6623 0.6691 0.0044   -0.106609
 C 0.6642 0.5766 0.0046   0.14151
 C 0.7348 0.528 0.0209   -0.208418
 C 0.7407 0.4411 0.0201   0.159238
 C 0.6054 0.4512 0.9868   0.156632
 C 0.59944 0.53824 0.98754   -0.203333
 C 0.1958 0.5496 0.5775   0.697196
 C 0.1963 0.4691 0.6106   -0.205858
 C 0.2718 0.4234 0.6198   0.017676
 C 0.2724 0.3482 0.6487   -0.272319
 C 0.1976 0.3158 0.6679   0.298792
 C 0.1243 0.3595 0.6572   -0.248021
 C 0.1232 0.4354 0.6282   0.017248
 C 0.2594 0.2098 0.7235   0.082804
 C 0.2285 0.1459 0.7672   -0.066255
 C 0.3059 0.1143 0.7985   0.079382
 C 0.3978 0.1772 0.845   0.291683
 C 0.4249 0.2537 0.8538   -0.259768
 C 0.4893 0.2561 0.8847   0.015673
 C 0.5259 0.1847 0.9067   -0.20627
 C 0.502 0.109 0.8954   0.029227
 C 0.4377 0.1045 0.8645   -0.28288
 C 0.5912 0.1892 0.9438   0.699169
 C 0.1914 0.0698 0.7432   0.084958
 C 0.233 0.9686 0.6858   0.307078
 C 0.295 0.9322 0.6574   -0.242751
 C 0.2813 0.8717 0.627   0.015758
 C 0.2016 0.8446 0.627   -0.183152
 C 0.1386 0.8818 0.656   0.024976
 C 0.1521 0.9459 0.687   -0.284613
 C 0.1878 0.782 0.5921   0.698702
 C 0.1571 0.1873 0.8026   0.082494
 C 0.0574 0.1502 0.8694   0.300883
 C 0.0175 0.2285 0.8687   -0.307383
 C 0.9413 0.2395 0.8982   0.032787
 C 0.9064 0.1742 0.9275   -0.199562
 C 0.95 0.098 0.928   0.027316
 C 0.0265 0.0841 0.9001   -0.260318
 C 0.8232 0.1848 0.9575   0.705072
 C 0.9372 0.6464 0.5018   0.169421
 C 0.8524 0.6478 0.5008   -0.183348
 C 0.8003 0.7041 0.5272   0.136368
 C 0.8376 0.7582 0.5549   -0.205709
 C 0.9249 0.7543 0.5536   0.171116
 C 0.71 0.7104 0.5269   -0.091481
 C 0.6691 0.6623 0.5044   -0.106609
 C 0.5766 0.6642 0.5046   0.14151
 C 0.528 0.7348 0.5209   -0.208418
 C 0.4411 0.7407 0.5201   0.159238
 C 0.4512 0.6054 0.4868   0.156632
 C 0.53824 0.59944 0.48754   -0.203333
 N 0.59728 0.32408 0.49691   -0.299922
 N 0.02683 0.30095 0.47222   -0.297481
 N 0.32408 0.59728 0.99691   -0.299922
 N 0.30095 0.02683 0.97222   -0.297481
 N 0.67592 0.40272 0.00309   -0.299922
 N 0.69905 0.97317 0.02778   -0.297481
 N 0.40272 0.67592 0.50309   -0.299922
 N 0.97317 0.69905 0.52778   -0.297481
 O 0.73664 0.42584 0.44312   -0.611542
 O 0.87489 0.41129 0.42819   -0.599527
 O 0.8094 0.759 0.3028   -0.274383
 O 0.6672 0.8148 0.1853   -0.272502
 O 0.38886 0.7399 0.04981   -0.601394
 O 0.37944 0.87756 0.03463   -0.60603
 O 0.7445 0.9673 0.286   -0.29191
 O 0.8862 0.236 0.41273   -0.604121
 O 0.74819 0.25139 0.43197   -0.617332
 O 0.8688 0.8704 0.15902   -0.270473
 O 0.21224 0.74264 0.03913   -0.608346
 O 0.20452 0.88038 0.01956   -0.605286
 O 0.42584 0.73664 0.94312   -0.611542
 O 0.41129 0.87489 0.92819   -0.599527
 O 0.759 0.8094 0.8028   -0.274383
 O 0.8148 0.6672 0.6853   -0.272502
 O 0.7399 0.38886 0.54981   -0.601394
 O 0.87756 0.37944 0.53463   -0.60603
 O 0.9673 0.7445 0.786   -0.29191
 O 0.236 0.8862 0.91273   -0.604121
 O 0.25139 0.74819 0.93197   -0.617332
 O 0.8704 0.8688 0.65902   -0.270473
 O 0.74264 0.21224 0.53913   -0.608346
 O 0.88038 0.20452 0.51956   -0.605287
 O 0.57416 0.26336 0.05688   -0.611542
 O 0.58871 0.12511 0.07181   -0.599527
 O 0.241 0.1906 0.1972   -0.274383
 O 0.1852 0.3328 0.3147   -0.272502
 O 0.2601 0.61114 0.45019   -0.601394
 O 0.12244 0.62056 0.46537   -0.60603
 O 0.0327 0.2555 0.214   -0.29191
 O 0.764 0.1138 0.08727   -0.604121
 O 0.74861 0.25181 0.06803   -0.617332
 O 0.1296 0.1312 0.34098   -0.270473
 O 0.25736 0.78776 0.46087   -0.608346
 O 0.11962 0.79548 0.48044   -0.605286
 O 0.26336 0.57416 0.55688   -0.611542
 O 0.12511 0.58871 0.57181   -0.599527
 O 0.1906 0.241 0.6972   -0.274383
 O 0.3328 0.1852 0.8147   -0.272502
 O 0.61114 0.2601 0.95019   -0.601394
 O 0.62056 0.12244 0.96537   -0.60603
 O 0.2555 0.0327 0.714   -0.29191
 O 0.1138 0.764 0.58727   -0.604121
 O 0.25181 0.74861 0.56803   -0.617332
 O 0.1312 0.1296 0.84098   -0.270473
 O 0.78776 0.25736 0.96087   -0.608346
 O 0.79548 0.11962 0.98044   -0.605286
