{'_ref': 'TBD', '_srcid': 'CAKYAQ_clean', 'submitters': [{'name': 'Dalar Nazarian Jeff Camp and David Sholl', 'email': 'dalar@gatech.edu jcamp6@gatech.edu'}], '_method': 'VASP DFT with PBE;DDEC'}
data_InH6(C2O)8
_symmetry_space_group_name_H-M   'P 1'
_cell_length_a   11.21840000
_cell_length_b   17.92180000
_cell_length_c   17.92180000
_cell_angle_alpha   90.00000000
_cell_angle_beta   90.00000000
_cell_angle_gamma   90.00000000
_symmetry_Int_Tables_number   1
_chemical_formula_structural   InH6(C2O)8
_chemical_formula_sum   'In4 H24 C64 O32'
_cell_volume   3603.24816353
_cell_formula_units_Z   4
loop_
 _symmetry_equiv_pos_site_id
 _symmetry_equiv_pos_as_xyz
  1  'x, y, z'
loop_
 _atom_site_label
 _atom_site_fract_x
 _atom_site_fract_y
 _atom_site_fract_z
 _atom_site_charge
 In 0.25 0.18399 0.81601   1.457756
 In 0.75 0.81601 0.18399   1.457756
 In 0.5 0.68399 0.68399   1.457756
 In 0.0 0.31601 0.31601   1.457756
 H 0.0941 0.2479 0.5708   0.125493
 H 0.7802 0.3547 0.5392   0.122782
 H 0.8731 0.2861 0.7466   0.126079
 H 0.5941 0.7521 0.4292   0.125493
 H 0.2802 0.6453 0.4608   0.122782
 H 0.3731 0.7139 0.2534   0.126079
 H 0.3441 0.9292 0.7479   0.125493
 H 0.0302 0.9608 0.8547   0.122782
 H 0.1231 0.7534 0.7861   0.126079
 H 0.8441 0.0708 0.2521   0.125493
 H 0.5302 0.0392 0.1453   0.122782
 H 0.6231 0.2466 0.2139   0.126079
 H 0.1559 0.2521 0.0708   0.125493
 H 0.4698 0.1453 0.0392   0.122782
 H 0.3769 0.2139 0.2466   0.126079
 H 0.6559 0.7479 0.9292   0.125493
 H 0.9698 0.8547 0.9608   0.122782
 H 0.8769 0.7861 0.7534   0.126079
 H 0.9059 0.5708 0.2479   0.125492
 H 0.2198 0.5392 0.3547   0.122782
 H 0.1269 0.7466 0.2861   0.126079
 H 0.4059 0.4292 0.7521   0.125492
 H 0.7198 0.4608 0.6453   0.122782
 H 0.6269 0.2534 0.7139   0.126079
 C 0.9636 0.30598 0.461   0.60489
 C 0.80717 0.32349 0.6474   0.03931
 C 0.0875 0.22978 0.71949   0.602146
 C 0.9401 0.30066 0.54303   -0.111694
 C 0.9963 0.26116 0.66677   -0.10611
 C 0.02141 0.26705 0.59011   0.019847
 C 0.8343 0.33001 0.57161   -0.053166
 C 0.88965 0.28972 0.69472   -0.059725
 C 0.4636 0.69402 0.539   0.60489
 C 0.30717 0.67651 0.3526   0.03931
 C 0.5875 0.77022 0.28051   0.602146
 C 0.4401 0.69934 0.45697   -0.111694
 C 0.4963 0.73884 0.33323   -0.10611
 C 0.52141 0.73295 0.40989   0.019847
 C 0.3343 0.66999 0.42839   -0.053166
 C 0.38965 0.71028 0.30528   -0.059725
 C 0.2136 0.039 0.80598   0.60489
 C 0.05717 0.8526 0.82349   0.03931
 C 0.3375 0.78051 0.72978   0.602146
 C 0.1901 0.95697 0.80066   -0.111694
 C 0.2463 0.83323 0.76116   -0.10611
 C 0.27141 0.90989 0.76705   0.019847
 C 0.0843 0.92839 0.83001   -0.053166
 C 0.13965 0.80528 0.78972   -0.059725
 C 0.7136 0.961 0.19402   0.60489
 C 0.55717 0.1474 0.17651   0.03931
 C 0.8375 0.21949 0.27022   0.602146
 C 0.6901 0.04303 0.19934   -0.111694
 C 0.7463 0.16677 0.23884   -0.10611
 C 0.77141 0.09011 0.23295   0.019847
 C 0.5843 0.07161 0.16999   -0.053166
 C 0.63965 0.19472 0.21028   -0.059725
 C 0.2864 0.19402 0.961   0.60489
 C 0.44283 0.17651 0.1474   0.039309
 C 0.1625 0.27022 0.21949   0.602146
 C 0.3099 0.19934 0.04303   -0.111694
 C 0.2537 0.23884 0.16677   -0.10611
 C 0.22859 0.23295 0.09011   0.019848
 C 0.4157 0.16999 0.07161   -0.053166
 C 0.36035 0.21028 0.19472   -0.059724
 C 0.7864 0.80598 0.039   0.60489
 C 0.94283 0.82349 0.8526   0.039309
 C 0.6625 0.72978 0.78051   0.602146
 C 0.8099 0.80066 0.95697   -0.111694
 C 0.7537 0.76116 0.83323   -0.10611
 C 0.72859 0.76705 0.90989   0.019848
 C 0.9157 0.83001 0.92839   -0.053166
 C 0.86035 0.78972 0.80528   -0.059724
 C 0.0364 0.461 0.30598   0.60489
 C 0.19283 0.6474 0.32349   0.039309
 C 0.9125 0.71949 0.22978   0.602146
 C 0.0599 0.54303 0.30066   -0.111694
 C 0.0037 0.66677 0.26116   -0.10611
 C 0.97859 0.59011 0.26705   0.019848
 C 0.1657 0.57161 0.33001   -0.053166
 C 0.11035 0.69472 0.28972   -0.059724
 C 0.5364 0.539 0.69402   0.60489
 C 0.69283 0.3526 0.67651   0.039309
 C 0.4125 0.28051 0.77022   0.602146
 C 0.5599 0.45697 0.69934   -0.111694
 C 0.5037 0.33323 0.73884   -0.10611
 C 0.47859 0.40989 0.73295   0.019848
 C 0.6657 0.42839 0.66999   -0.053166
 C 0.61035 0.30528 0.71028   -0.059724
 O 0.88997 0.33857 0.41958   -0.530642
 O 0.07217 0.23744 0.78889   -0.493102
 O 0.05811 0.27727 0.43361   -0.496923
 O 0.18056 0.19798 0.69514   -0.518064
 O 0.38997 0.66143 0.58042   -0.530642
 O 0.57217 0.76256 0.21111   -0.493102
 O 0.55811 0.72273 0.56639   -0.496923
 O 0.68056 0.80202 0.30486   -0.518064
 O 0.13997 0.08042 0.83857   -0.530642
 O 0.32217 0.71111 0.73744   -0.493102
 O 0.30811 0.06639 0.77727   -0.496923
 O 0.43056 0.80486 0.69798   -0.518064
 O 0.63997 0.91958 0.16143   -0.530642
 O 0.82217 0.28889 0.26256   -0.493102
 O 0.80811 0.93361 0.22273   -0.496923
 O 0.93056 0.19514 0.30202   -0.518064
 O 0.36003 0.16143 0.91958   -0.530642
 O 0.17783 0.26256 0.28889   -0.493102
 O 0.19189 0.22273 0.93361   -0.496923
 O 0.06944 0.30202 0.19514   -0.518064
 O 0.86003 0.83857 0.08042   -0.530642
 O 0.67783 0.73744 0.71111   -0.493102
 O 0.69189 0.77727 0.06639   -0.496923
 O 0.56944 0.69798 0.80486   -0.518064
 O 0.11003 0.41958 0.33857   -0.530642
 O 0.92783 0.78889 0.23744   -0.493102
 O 0.94189 0.43361 0.27727   -0.496923
 O 0.81944 0.69514 0.19798   -0.518064
 O 0.61003 0.58042 0.66143   -0.530642
 O 0.42783 0.21111 0.76256   -0.493102
 O 0.44189 0.56639 0.72273   -0.496923
 O 0.31944 0.30486 0.80202   -0.518064
