{'_ref': 'TBD', '_srcid': 'CAKYAQ_clean', 'submitters': [{'name': 'Dalar Nazarian Jeff Camp and David Sholl', 'email': 'dalar@gatech.edu jcamp6@gatech.edu'}], '_method': 'VASP DFT with PBE;DDEC'}
data_AlPC3NO4
_symmetry_space_group_name_H-M   'P 1'
_cell_length_a   12.83000000
_cell_length_b   13.79499953
_cell_length_c   18.81500000
_cell_angle_alpha   90.04099795
_cell_angle_beta   90.00000000
_cell_angle_gamma   90.00000000
_symmetry_Int_Tables_number   1
_chemical_formula_structural   AlPC3NO4
_chemical_formula_sum   'Al24 P24 C72 N24 O96'
_cell_volume   3330.06306216
_cell_formula_units_Z   24
loop_
 _symmetry_equiv_pos_site_id
 _symmetry_equiv_pos_as_xyz
  1  'x, y, z'
loop_
 _atom_site_label
 _atom_site_fract_x
 _atom_site_fract_y
 _atom_site_fract_z
 _atom_site_charge
 Al 0.9596 0.8895 0.8345   2.021205
 Al 0.9596 0.1105 0.6655   2.021206
 Al 0.4596 0.3895 0.8345   2.021205
 Al 0.4596 0.6105 0.6655   2.021206
 Al 0.0404 0.1105 0.1655   2.021205
 Al 0.0404 0.8895 0.3345   2.021206
 Al 0.5404 0.6105 0.1655   2.021205
 Al 0.5404 0.3895 0.3345   2.021206
 Al 0.7746 0.1172 0.9385   2.0481
 Al 0.7746 0.8828 0.5615   2.0481
 Al 0.2746 0.6172 0.9385   2.0481
 Al 0.2746 0.3828 0.5615   2.0481
 Al 0.2254 0.8828 0.0615   2.0481
 Al 0.2254 0.1172 0.4385   2.0481
 Al 0.7254 0.3828 0.0615   2.0481
 Al 0.7254 0.6172 0.4385   2.0481
 Al 0.0961 0.2267 0.9505   2.036858
 Al 0.0961 0.7733 0.5495   2.036858
 Al 0.5961 0.7267 0.9505   2.036858
 Al 0.5961 0.2733 0.5495   2.036858
 Al 0.9039 0.7733 0.0495   2.036858
 Al 0.9039 0.2267 0.4505   2.036858
 Al 0.4039 0.2733 0.0495   2.036858
 Al 0.4039 0.7267 0.4505   2.036858
 P 0.0963 0.7722 0.9446   2.16569
 P 0.0963 0.2278 0.5554   2.16569
 P 0.5963 0.2722 0.9446   2.16569
 P 0.5963 0.7278 0.5554   2.16569
 P 0.9037 0.2278 0.0554   2.16569
 P 0.9037 0.7722 0.4446   2.16569
 P 0.4037 0.7278 0.0554   2.16569
 P 0.4037 0.2722 0.4446   2.16569
 P 0.7676 0.8887 0.9382   2.168683
 P 0.7676 0.1113 0.5618   2.168684
 P 0.2676 0.3887 0.9382   2.168683
 P 0.2676 0.6113 0.5618   2.168684
 P 0.2324 0.1113 0.0618   2.168683
 P 0.2324 0.8887 0.4382   2.168684
 P 0.7324 0.6113 0.0618   2.168683
 P 0.7324 0.3887 0.4382   2.168684
 P 0.9643 0.1187 0.8333   2.140991
 P 0.9643 0.8813 0.6667   2.140991
 P 0.4643 0.6187 0.8333   2.140991
 P 0.4643 0.3813 0.6667   2.140991
 P 0.0357 0.8813 0.1667   2.140991
 P 0.0357 0.1187 0.3333   2.140991
 P 0.5357 0.3813 0.1667   2.140991
 P 0.5357 0.6187 0.3333   2.140991
 C 0.9672 0.5055 0.5509   0.001531
 C 0.9672 0.4945 0.9491   0.001531
 C 0.4672 0.0055 0.5509   0.001531
 C 0.4672 0.9945 0.9491   0.001531
 C 0.0328 0.4945 0.4491   0.001529
 C 0.0328 0.5055 0.0509   0.001529
 C 0.5328 0.9945 0.4491   0.001529
 C 0.5328 0.0055 0.0509   0.001529
 C 0.7434 0.706 0.7477   0.113595
 C 0.7434 0.294 0.7523   0.113595
 C 0.2434 0.206 0.7477   0.113595
 C 0.2434 0.794 0.7523   0.113595
 C 0.2566 0.294 0.2523   0.113595
 C 0.2566 0.706 0.2477   0.113595
 C 0.7566 0.794 0.2523   0.113595
 C 0.7566 0.206 0.2477   0.113595
 C 0.9698 0.5795 0.6731   -0.237702
 C 0.9698 0.4205 0.8269   -0.237702
 C 0.4698 0.0795 0.6731   -0.237702
 C 0.4698 0.9205 0.8269   -0.237702
 C 0.0302 0.4205 0.3269   -0.237702
 C 0.0302 0.5795 0.1731   -0.237702
 C 0.5302 0.9205 0.3269   -0.237702
 C 0.5302 0.0795 0.1731   -0.237702
 C 0.8582 0.6241 0.681   -0.056293
 C 0.8582 0.3759 0.819   -0.056293
 C 0.3582 0.1241 0.681   -0.056293
 C 0.3582 0.8759 0.819   -0.056293
 C 0.1418 0.3759 0.319   -0.056293
 C 0.1418 0.6241 0.181   -0.056293
 C 0.6418 0.8759 0.319   -0.056293
 C 0.6418 0.1241 0.181   -0.056293
 C 0.907 0.4061 0.6545   -0.189465
 C 0.907 0.5939 0.8455   -0.189465
 C 0.407 0.9061 0.6545   -0.189465
 C 0.407 0.0939 0.8455   -0.189465
 C 0.093 0.5939 0.3455   -0.189465
 C 0.093 0.4061 0.1545   -0.189465
 C 0.593 0.0939 0.3455   -0.189465
 C 0.593 0.9061 0.1545   -0.189465
 C 0.9136 0.6212 0.7642   0.032716
 C 0.9136 0.3788 0.7358   0.032716
 C 0.4136 0.1212 0.7642   0.032716
 C 0.4136 0.8788 0.7358   0.032716
 C 0.0864 0.3788 0.2358   0.032716
 C 0.0864 0.6212 0.2642   0.032716
 C 0.5864 0.8788 0.2358   0.032716
 C 0.5864 0.1212 0.2642   0.032716
 C 0.8148 0.5634 0.8078   0.076514
 C 0.8148 0.4366 0.6922   0.076514
 C 0.3148 0.0634 0.8078   0.076514
 C 0.3148 0.9366 0.6922   0.076514
 C 0.1852 0.4366 0.1922   0.076514
 C 0.1852 0.5634 0.3078   0.076514
 C 0.6852 0.9366 0.1922   0.076514
 C 0.6852 0.0634 0.3078   0.076514
 C 0.753 0.5293 0.7171   -0.147033
 C 0.753 0.4707 0.7829   -0.147032
 C 0.253 0.0293 0.7171   -0.147033
 C 0.253 0.9707 0.7829   -0.147032
 C 0.247 0.4707 0.2829   -0.147033
 C 0.247 0.5293 0.2171   -0.147032
 C 0.747 0.9707 0.2829   -0.147033
 C 0.747 0.0293 0.2171   -0.147032
 C 0.7295 0.7117 0.7561   0.069215
 C 0.7295 0.2883 0.7439   0.069215
 C 0.2295 0.2117 0.7561   0.069215
 C 0.2295 0.7883 0.7439   0.069215
 C 0.2705 0.2883 0.2439   0.069215
 C 0.2705 0.7117 0.2561   0.069215
 C 0.7705 0.7883 0.2439   0.069215
 C 0.7705 0.2117 0.2561   0.069215
 N 0.9778 0.4871 0.6297   0.072749
 N 0.9778 0.5129 0.8703   0.072749
 N 0.4778 0.9871 0.6297   0.072749
 N 0.4778 0.0129 0.8703   0.072749
 N 0.0222 0.5129 0.3703   0.072749
 N 0.0222 0.4871 0.1297   0.072749
 N 0.5222 0.0129 0.3703   0.072749
 N 0.5222 0.9871 0.1297   0.072749
 N 0.8244 0.6485 0.7564   0.282241
 N 0.8244 0.3515 0.7436   0.282241
 N 0.3244 0.1485 0.7564   0.282241
 N 0.3244 0.8515 0.7436   0.282241
 N 0.1756 0.3515 0.2436   0.282241
 N 0.1756 0.6485 0.2564   0.282241
 N 0.6756 0.8515 0.2436   0.282241
 N 0.6756 0.1485 0.2564   0.282241
 N 0.8121 0.6245 0.7228   0.118534
 N 0.8121 0.3755 0.7772   0.118534
 N 0.3121 0.1245 0.7228   0.118534
 N 0.3121 0.8755 0.7772   0.118534
 N 0.1879 0.3755 0.2772   0.118534
 N 0.1879 0.6245 0.2228   0.118534
 N 0.6879 0.8755 0.2772   0.118534
 N 0.6879 0.1245 0.2228   0.118534
 O 0.0474 0.1803 0.8694   -1.026663
 O 0.0474 0.8197 0.6306   -1.026663
 O 0.5474 0.6803 0.8694   -1.026663
 O 0.5474 0.3197 0.6306   -1.026663
 O 0.9526 0.8197 0.1306   -1.026663
 O 0.9526 0.1803 0.3694   -1.026663
 O 0.4526 0.3197 0.1306   -1.026663
 O 0.4526 0.6803 0.3694   -1.026663
 O 0.824 0.8595 0.0061   -1.084067
 O 0.824 0.1405 0.4939   -1.084067
 O 0.324 0.3595 0.0061   -1.084067
 O 0.324 0.6405 0.4939   -1.084067
 O 0.176 0.1405 0.9939   -1.084067
 O 0.176 0.8595 0.5061   -1.084067
 O 0.676 0.6405 0.9939   -1.084067
 O 0.676 0.3595 0.5061   -1.084067
 O 0.7385 0.9947 0.9422   -1.036283
 O 0.7385 0.0053 0.5578   -1.036283
 O 0.2385 0.4947 0.9422   -1.036283
 O 0.2385 0.5053 0.5578   -1.036283
 O 0.2615 0.0053 0.0578   -1.036283
 O 0.2615 0.9947 0.4422   -1.036283
 O 0.7615 0.5053 0.0578   -1.036283
 O 0.7615 0.4947 0.4422   -1.036283
 O 0.1647 0.8466 0.9822   -1.090923
 O 0.1647 0.1534 0.5178   -1.090923
 O 0.6647 0.3466 0.9822   -1.090923
 O 0.6647 0.6534 0.5178   -1.090923
 O 0.8353 0.1534 0.0178   -1.090923
 O 0.8353 0.8466 0.4822   -1.090923
 O 0.3353 0.6534 0.0178   -1.090923
 O 0.3353 0.3466 0.4822   -1.090923
 O 0.0538 0.8168 0.8764   -1.044238
 O 0.0538 0.1832 0.6236   -1.044238
 O 0.5538 0.3168 0.8764   -1.044238
 O 0.5538 0.6832 0.6236   -1.044238
 O 0.9462 0.1832 0.1236   -1.044238
 O 0.9462 0.8168 0.3764   -1.044238
 O 0.4462 0.6832 0.1236   -1.044238
 O 0.4462 0.3168 0.3764   -1.044238
 O 0.9949 0.0124 0.8418   -1.083519
 O 0.9949 0.9876 0.6582   -1.083519
 O 0.4949 0.5124 0.8418   -1.083519
 O 0.4949 0.4876 0.6582   -1.083519
 O 0.0051 0.9876 0.1582   -1.083519
 O 0.0051 0.0124 0.3418   -1.083519
 O 0.5051 0.4876 0.1582   -1.083519
 O 0.5051 0.5124 0.3418   -1.083519
 O 0.8583 0.1377 0.8665   -1.09235
 O 0.8583 0.8623 0.6335   -1.09235
 O 0.3583 0.6377 0.8665   -1.09235
 O 0.3583 0.3623 0.6335   -1.09235
 O 0.1417 0.8623 0.1335   -1.092349
 O 0.1417 0.1377 0.3665   -1.092349
 O 0.6417 0.3623 0.1335   -1.092349
 O 0.6417 0.6377 0.3665   -1.092349
 O 0.6678 0.8319 0.9298   -1.036201
 O 0.6678 0.1681 0.5702   -1.036201
 O 0.1678 0.3319 0.9298   -1.036201
 O 0.1678 0.6681 0.5702   -1.036201
 O 0.3322 0.1681 0.0702   -1.036201
 O 0.3322 0.8319 0.4298   -1.036201
 O 0.8322 0.6681 0.0702   -1.036201
 O 0.8322 0.3319 0.4298   -1.036201
 O 0.959 0.1471 0.7551   -1.022715
 O 0.959 0.8529 0.7449   -1.022715
 O 0.459 0.6471 0.7551   -1.022715
 O 0.459 0.3529 0.7449   -1.022715
 O 0.041 0.8529 0.2449   -1.022715
 O 0.041 0.1471 0.2551   -1.022715
 O 0.541 0.3529 0.2449   -1.022715
 O 0.541 0.6471 0.2551   -1.022715
 O 0.1601 0.6837 0.9242   -1.025233
 O 0.1601 0.3163 0.5758   -1.025233
 O 0.6601 0.1837 0.9242   -1.025233
 O 0.6601 0.8163 0.5758   -1.025233
 O 0.8399 0.3163 0.0758   -1.025233
 O 0.8399 0.6837 0.4242   -1.025233
 O 0.3399 0.8163 0.0758   -1.025233
 O 0.3399 0.1837 0.4242   -1.025233
 O 0.8364 0.87 0.8733   -1.076723
 O 0.8364 0.13 0.6267   -1.076723
 O 0.3364 0.37 0.8733   -1.076723
 O 0.3364 0.63 0.6267   -1.076723
 O 0.1636 0.13 0.1267   -1.076723
 O 0.1636 0.87 0.3733   -1.076723
 O 0.6636 0.63 0.1267   -1.076723
 O 0.6636 0.37 0.3733   -1.076723
 O 0.0091 0.74 0.9929   -1.099214
 O 0.0091 0.26 0.5071   -1.099214
 O 0.5091 0.24 0.9929   -1.099214
 O 0.5091 0.76 0.5071   -1.099214
 O 0.9909 0.26 0.0071   -1.099214
 O 0.9909 0.74 0.4929   -1.099214
 O 0.4909 0.76 0.0071   -1.099214
 O 0.4909 0.24 0.4929   -1.099214
