{'_ref': 'TBD', '_srcid': 'CAKYAQ_clean', 'submitters': [{'name': 'Dalar Nazarian Jeff Camp and David Sholl', 'email': 'dalar@gatech.edu jcamp6@gatech.edu'}], '_method': 'VASP DFT with PBE;DDEC'}
data_Zn5C4(N9O2)2
_symmetry_space_group_name_H-M   'P 1'
_cell_length_a   8.55050000
_cell_length_b   9.10910036
_cell_length_c   14.21130000
_cell_angle_alpha   108.61700140
_cell_angle_beta   90.00000000
_cell_angle_gamma   117.99099885
_symmetry_Int_Tables_number   1
_chemical_formula_structural   Zn5C4(N9O2)2
_chemical_formula_sum   'Zn10 C8 N36 O8'
_cell_volume   911.287652007
_cell_formula_units_Z   2
loop_
 _symmetry_equiv_pos_site_id
 _symmetry_equiv_pos_as_xyz
  1  'x, y, z'
loop_
 _atom_site_label
 _atom_site_fract_x
 _atom_site_fract_y
 _atom_site_fract_z
 _atom_site_charge
 Zn 0.29264 0.44558 0.86563   0.852897
 Zn 0.40966 0.19028 0.97128   0.758409
 Zn 0.84706 0.55442 0.63437   0.853144
 Zn 0.21938 0.80972 0.52872   0.758341
 Zn 0.70736 0.55442 0.13437   0.852891
 Zn 0.59034 0.80972 0.02872   0.758412
 Zn 0.15294 0.44558 0.36563   0.853137
 Zn 0.78062 0.19028 0.47128   0.758344
 Zn 0.12327 0.0 0.75   0.671008
 Zn 0.87673 0.0 0.25   0.671006
 C 0.6575 0.6302 0.819   0.550224
 C 0.5055 0.3226 0.7249   0.542621
 C 0.0273 0.3698 0.681   0.549787
 C 0.1829 0.6774 0.7751   0.54246
 C 0.3425 0.3698 0.181   0.550223
 C 0.4945 0.6774 0.2751   0.542621
 C 0.9727 0.6302 0.319   0.549785
 C 0.8171 0.3226 0.2249   0.542459
 N 0.7793 0.6858 0.7585   -0.366905
 N 0.8807 0.8638 0.8051   0.0476
 N 0.8293 0.9184 0.8885   -0.081701
 N 0.6908 0.7768 0.8999   -0.279484
 N 0.6167 0.334 0.6561   -0.310068
 N 0.5465 0.1676 0.5877   -0.048968
 N 0.4024 0.0634 0.6155   -0.010653
 N 0.3716 0.156 0.7014   -0.288543
 N 0.522 0.4666 0.8059   -0.559447
 N 0.0935 0.3142 0.7415   -0.36746
 N 0.0169 0.1362 0.6949   0.048956
 N 0.9109 0.0816 0.6115   -0.082267
 N 0.914 0.2232 0.6001   -0.279368
 N 0.2827 0.666 0.8439   -0.310605
 N 0.3789 0.8324 0.9123   -0.046979
 N 0.339 0.9366 0.8845   -0.011735
 N 0.2156 0.844 0.7986   -0.288965
 N 0.0554 0.5334 0.6941   -0.559494
 N 0.2207 0.3142 0.2415   -0.366905
 N 0.1193 0.1362 0.1949   0.047605
 N 0.1707 0.0816 0.1115   -0.08175
 N 0.3092 0.2232 0.1001   -0.279477
 N 0.3833 0.666 0.3439   -0.310065
 N 0.4535 0.8324 0.4123   -0.048982
 N 0.5976 0.9366 0.3845   -0.010657
 N 0.6284 0.844 0.2986   -0.288543
 N 0.478 0.5334 0.1941   -0.559446
 N 0.9065 0.6858 0.2585   -0.36746
 N 0.9831 0.8638 0.3051   0.048961
 N 0.0891 0.9184 0.3885   -0.082314
 N 0.086 0.7768 0.3999   -0.279362
 N 0.7173 0.334 0.1561   -0.310602
 N 0.6211 0.1676 0.0877   -0.046994
 N 0.661 0.0634 0.1155   -0.011738
 N 0.7844 0.156 0.2014   -0.288965
 N 0.9446 0.4666 0.3059   -0.559493
 O 0.2261 0.207 0.8884   -0.622093
 O 0.3661 0.5996 0.0112   -0.519114
 O 0.0191 0.793 0.6116   -0.622313
 O 0.7665 0.4004 0.4888   -0.519229
 O 0.7739 0.793 0.1116   -0.622092
 O 0.6339 0.4004 0.9888   -0.519113
 O 0.9809 0.207 0.3884   -0.622312
 O 0.2335 0.5996 0.5112   -0.519228
