{'_ref': 'TBD', '_srcid': 'CAKYAQ_clean', 'submitters': [{'name': 'Dalar Nazarian Jeff Camp and David Sholl', 'email': 'dalar@gatech.edu jcamp6@gatech.edu'}], '_method': 'VASP DFT with PBE;DDEC'}
data_MnH4(C2O)4
_symmetry_space_group_name_H-M   'P 1'
_cell_length_a   9.71599963
_cell_length_b   12.19300027
_cell_length_c   12.44230000
_cell_angle_alpha   103.86300167
_cell_angle_beta   112.12399812
_cell_angle_gamma   107.27999790
_symmetry_Int_Tables_number   1
_chemical_formula_structural   MnH4(C2O)4
_chemical_formula_sum   'Mn4 H16 C32 O16'
_cell_volume   1196.49989597
_cell_formula_units_Z   4
loop_
 _symmetry_equiv_pos_site_id
 _symmetry_equiv_pos_as_xyz
  1  'x, y, z'
loop_
 _atom_site_label
 _atom_site_fract_x
 _atom_site_fract_y
 _atom_site_fract_z
 _atom_site_charge
 Mn 0.21525 0.32873 0.12322   1.017645
 Mn 0.78475 0.67127 0.87678   1.017644
 Mn 0.0 0.0 0.0   1.241352
 Mn 0.0 0.5 0.0   1.118183
 H 0.4757 0.3551 0.5121   0.111031
 H 0.5608 0.1513 0.7173   0.064671
 H 0.3486 0.9723 0.546   0.104994
 H 0.2122 0.9829 0.3544   0.103508
 H 0.679 0.0131 0.8472   0.081941
 H 0.398 0.8981 0.7551   0.115193
 H 0.2467 0.9759 0.8282   0.108012
 H 0.6532 0.2976 0.0685   0.109291
 H 0.5243 0.6449 0.4879   0.111032
 H 0.4392 0.8487 0.2827   0.064671
 H 0.6514 0.0277 0.454   0.104994
 H 0.7878 0.0171 0.6456   0.103508
 H 0.321 0.9869 0.1528   0.081941
 H 0.602 0.1019 0.2449   0.115193
 H 0.7533 0.0241 0.1718   0.108012
 H 0.3468 0.7024 0.9315   0.10929
 C 0.2431 0.1728 0.286   0.705778
 C 0.3314 0.1694 0.4126   -0.178411
 C 0.4529 0.2778 0.5181   0.011526
 C 0.5399 0.2711 0.632   -0.169084
 C 0.502 0.1563 0.6414   -0.000562
 C 0.3768 0.0489 0.5384   -0.133328
 C 0.294 0.0557 0.4242   -0.007465
 C 0.8761 0.241 0.0259   0.728908
 C 0.6945 0.1665 0.9676   -0.185893
 C 0.6174 0.0466 0.8739   0.012027
 C 0.4496 0.9769 0.8201   -0.109424
 C 0.359 0.0239 0.8628   -0.003723
 C 0.4351 0.1435 0.9579   -0.175301
 C 0.603 0.2162 0.0082   0.011599
 C 0.6735 0.3869 0.7465   0.72863
 C 0.3383 0.1907 0.0095   0.704448
 C 0.7569 0.8272 0.714   0.705778
 C 0.6686 0.8306 0.5874   -0.178412
 C 0.5471 0.7222 0.4819   0.011526
 C 0.4601 0.7289 0.368   -0.169084
 C 0.498 0.8437 0.3586   -0.000562
 C 0.6232 0.9511 0.4616   -0.133326
 C 0.706 0.9443 0.5758   -0.007464
 C 0.1239 0.759 0.9741   0.728908
 C 0.3055 0.8335 0.0324   -0.185893
 C 0.3826 0.9534 0.1261   0.012026
 C 0.5504 0.0231 0.1799   -0.109424
 C 0.641 0.9761 0.1372   -0.003724
 C 0.5649 0.8565 0.0421   -0.175301
 C 0.397 0.7838 0.9918   0.011599
 C 0.3265 0.6131 0.2535   0.72863
 C 0.6617 0.8093 0.9905   0.704448
 O 0.2823 0.27675 0.2781   -0.578449
 O 0.13693 0.06965 0.19663   -0.633437
 O 0.96387 0.1835 0.02027   -0.628431
 O 0.93991 0.35861 0.08001   -0.642488
 O 0.78651 0.37497 0.82711   -0.63451
 O 0.66105 0.48738 0.75165   -0.578229
 O 0.3967 0.3053 0.0754   -0.587171
 O 0.2012 0.1139 0.9845   -0.653065
 O 0.7177 0.72325 0.7219   -0.578449
 O 0.86307 0.93035 0.80337   -0.633437
 O 0.03613 0.8165 0.97973   -0.628431
 O 0.06009 0.64139 0.91999   -0.642488
 O 0.21349 0.62503 0.17289   -0.63451
 O 0.33895 0.51262 0.24835   -0.578229
 O 0.6033 0.6947 0.9246   -0.587171
 O 0.7988 0.8861 0.0155   -0.653065
