{'_ref': 'TBD', '_srcid': 'CAKYAQ_clean', 'submitters': [{'name': 'Dalar Nazarian Jeff Camp and David Sholl', 'email': 'dalar@gatech.edu jcamp6@gatech.edu'}], '_method': 'VASP DFT with PBE;DDEC'}
data_NiH6C9(NO)3
_symmetry_space_group_name_H-M   'P 1'
_cell_length_a   7.60199979
_cell_length_b   14.25099991
_cell_length_c   14.25100000
_cell_angle_alpha   97.95229856
_cell_angle_beta   101.46999771
_cell_angle_gamma   101.47000170
_symmetry_Int_Tables_number   1
_chemical_formula_structural   NiH6C9(NO)3
_chemical_formula_sum   'Ni4 H24 C36 N12 O12'
_cell_volume   1457.19059068
_cell_formula_units_Z   4
loop_
 _symmetry_equiv_pos_site_id
 _symmetry_equiv_pos_as_xyz
  1  'x, y, z'
loop_
 _atom_site_label
 _atom_site_fract_x
 _atom_site_fract_y
 _atom_site_fract_z
 _atom_site_charge
 Ni 0.75 0.58943 0.41057   0.792299
 Ni 0.25 0.41057 0.58943   0.792299
 Ni 0.5 0.0 0.0   0.842592
 Ni 0.0 0.0 0.0   0.842592
 H 0.9572 0.783 0.9368   0.087879
 H 0.9042 0.6625 0.8017   0.138274
 H 0.8633 0.8647 0.6321   0.137261
 H 0.9126 0.9797 0.7717   0.079523
 H 0.6288 0.7743 0.3825   0.099601
 H 0.6205 0.8824 0.276   0.133683
 H 0.5428 0.0632 0.217   0.087879
 H 0.5958 0.1983 0.3375   0.138274
 H 0.6367 0.3679 0.1353   0.137261
 H 0.5874 0.2283 0.0203   0.079523
 H 0.8712 0.6175 0.2257   0.099601
 H 0.8795 0.724 0.1176   0.133684
 H 0.0428 0.217 0.0632   0.087879
 H 0.0958 0.3375 0.1983   0.138274
 H 0.1367 0.1353 0.3679   0.13726
 H 0.0874 0.0203 0.2283   0.079523
 H 0.3712 0.2257 0.6175   0.099601
 H 0.3795 0.1176 0.724   0.133683
 H 0.4572 0.9368 0.783   0.087879
 H 0.4042 0.8017 0.6625   0.138274
 H 0.3633 0.6321 0.8647   0.13726
 H 0.4126 0.7717 0.9797   0.079523
 H 0.1288 0.3825 0.7743   0.099601
 H 0.1205 0.276 0.8824   0.133683
 C 0.9381 0.7997 0.8753   0.13749
 C 0.9066 0.7264 0.794   -0.149838
 C 0.8785 0.7497 0.7005   0.00601
 C 0.8815 0.8464 0.6928   -0.154709
 C 0.9125 0.9155 0.7779   0.133348
 C 0.8417 0.67 0.61   0.614659
 C 0.6781 0.7635 0.3283   0.151405
 C 0.6737 0.8298 0.2646   -0.145528
 C 0.5619 0.1247 0.2003   0.13749
 C 0.5934 0.206 0.2736   -0.149838
 C 0.6215 0.2995 0.2503   0.00601
 C 0.6185 0.3072 0.1536   -0.154709
 C 0.5875 0.2221 0.0845   0.133348
 C 0.6583 0.39 0.33   0.614659
 C 0.8219 0.6717 0.2365   0.151405
 C 0.8263 0.7354 0.1702   -0.145528
 C 0.0619 0.2003 0.1247   0.13749
 C 0.0934 0.2736 0.206   -0.149838
 C 0.1215 0.2503 0.2995   0.00601
 C 0.1185 0.1536 0.3072   -0.154709
 C 0.0875 0.0845 0.2221   0.133348
 C 0.1583 0.33 0.39   0.614659
 C 0.3219 0.2365 0.6717   0.151405
 C 0.3263 0.1702 0.7354   -0.145528
 C 0.4381 0.8753 0.7997   0.137489
 C 0.4066 0.794 0.7264   -0.149838
 C 0.3785 0.7005 0.7497   0.00601
 C 0.3815 0.6928 0.8464   -0.154709
 C 0.4125 0.7779 0.9155   0.133348
 C 0.3417 0.61 0.67   0.614659
 C 0.1781 0.3283 0.7635   0.151405
 C 0.1737 0.2646 0.8298   -0.145528
 C 0.75 0.8162 0.1838   -0.0209
 C 0.75 0.8872 0.1128   0.611993
 C 0.25 0.1838 0.8162   -0.0209
 C 0.25 0.1128 0.8872   0.611993
 N 0.9421 0.89449 0.86851   -0.295882
 N 0.5579 0.13149 0.10551   -0.295882
 N 0.0579 0.10551 0.13149   -0.295882
 N 0.4421 0.86851 0.89449   -0.295882
 N 0.75 0.6845 0.3155   -0.31463
 N 0.25 0.3155 0.6845   -0.31463
 N 0.25 0.9525 0.0475   -0.627636
 N 0.25 0.8969 0.1031   0.55082
 N 0.25 0.8432 0.1568   -0.407337
 N 0.75 0.0475 0.9525   -0.627636
 N 0.75 0.1031 0.8969   0.55082
 N 0.75 0.1568 0.8432   -0.407337
 O 0.8249 0.698 0.52882   -0.579384
 O 0.8293 0.582 0.6222   -0.556885
 O 0.6279 0.93659 0.10969   -0.550508
 O 0.6751 0.47118 0.302   -0.579384
 O 0.6707 0.3778 0.418   -0.556885
 O 0.8721 0.89031 0.06341   -0.550508
 O 0.1751 0.302 0.47118   -0.579384
 O 0.1707 0.418 0.3778   -0.556885
 O 0.3721 0.06341 0.89031   -0.550508
 O 0.3249 0.52882 0.698   -0.579384
 O 0.3293 0.6222 0.582   -0.556885
 O 0.1279 0.10969 0.93659   -0.550508
