{'_ref': 'TBD', '_srcid': 'CAKYAQ_clean', 'submitters': [{'name': 'Dalar Nazarian Jeff Camp and David Sholl', 'email': 'dalar@gatech.edu jcamp6@gatech.edu'}], '_method': 'VASP DFT with PBE;DDEC'}
data_Pr2Cu3C24(NO4)6
_symmetry_space_group_name_H-M   'P 1'
_cell_length_a   13.42400000
_cell_length_b   13.42399998
_cell_length_c   14.75200000
_cell_angle_alpha   90.00000000
_cell_angle_beta   90.00000000
_cell_angle_gamma   120.00000004
_symmetry_Int_Tables_number   1
_chemical_formula_structural   Pr2Cu3C24(NO4)6
_chemical_formula_sum   'Pr4 Cu6 C48 N12 O48'
_cell_volume   2302.2125742
_cell_formula_units_Z   2
loop_
 _symmetry_equiv_pos_site_id
 _symmetry_equiv_pos_as_xyz
  1  'x, y, z'
loop_
 _atom_site_label
 _atom_site_fract_x
 _atom_site_fract_y
 _atom_site_fract_z
 _atom_site_charge
 Pr 0.66667 0.33334 0.8312   2.25357
 Pr 0.33333 0.66666 0.6688   2.253563
 Pr 0.33333 0.66666 0.1688   2.253598
 Pr 0.66667 0.33334 0.3312   2.253591
 Cu 0.5 0.0 0.0   0.7222
 Cu 0.5 0.5 0.0   0.734087
 Cu 0.0 0.5 0.0   0.729951
 Cu 0.5 0.0 0.5   0.72136
 Cu 0.0 0.5 0.5   0.735519
 Cu 0.5 0.5 0.5   0.729467
 C 0.7294 0.1789 0.9301   0.657556
 C 0.7432 0.0972 0.992   -0.043974
 C 0.661 0.109 0.14   -0.028363
 C 0.5638 0.1229 0.158   0.661741
 C 0.4495 0.2706 0.9301   0.637465
 C 0.354 0.2568 0.992   -0.010366
 C 0.448 0.339 0.14   -0.039847
 C 0.5591 0.4362 0.158   0.633544
 C 0.8211 0.5505 0.9301   0.66148
 C 0.9028 0.646 0.992   -0.057664
 C 0.891 0.552 0.14   -0.039936
 C 0.8771 0.4409 0.158   0.663321
 C 0.5505 0.8211 0.5699   0.657543
 C 0.646 0.9028 0.508   -0.044034
 C 0.552 0.891 0.36   -0.028463
 C 0.4409 0.8771 0.342   0.661747
 C 0.1789 0.7294 0.5699   0.637585
 C 0.0972 0.7432 0.508   -0.010293
 C 0.109 0.661 0.36   -0.039686
 C 0.1229 0.5638 0.342   0.633598
 C 0.2706 0.4495 0.5699   0.66145
 C 0.2568 0.354 0.508   -0.057679
 C 0.339 0.448 0.36   -0.03989
 C 0.4362 0.5591 0.342   0.66331
 C 0.2706 0.8211 0.0699   0.657567
 C 0.2568 0.9028 0.008   -0.044114
 C 0.339 0.891 0.86   -0.028353
 C 0.4362 0.8771 0.842   0.661739
 C 0.5505 0.7294 0.0699   0.637482
 C 0.646 0.7432 0.008   -0.010511
 C 0.552 0.661 0.86   -0.039868
 C 0.4409 0.5638 0.842   0.633545
 C 0.1789 0.4495 0.0699   0.661495
 C 0.0972 0.354 0.008   -0.057813
 C 0.109 0.448 0.86   -0.039942
 C 0.1229 0.5591 0.842   0.663321
 C 0.4495 0.1789 0.4301   0.657556
 C 0.354 0.0972 0.492   -0.044186
 C 0.448 0.109 0.64   -0.028455
 C 0.5591 0.1229 0.658   0.661746
 C 0.8211 0.2706 0.4301   0.637602
 C 0.9028 0.2568 0.492   -0.010446
 C 0.891 0.339 0.64   -0.039705
 C 0.8771 0.4362 0.658   0.633599
 C 0.7294 0.5505 0.4301   0.661467
 C 0.7432 0.646 0.492   -0.057845
 C 0.661 0.552 0.64   -0.039895
 C 0.5638 0.4409 0.658   0.663309
 N 0.652 0.0396 0.057   -0.059463
 N 0.3876 0.348 0.057   -0.100549
 N 0.9604 0.6124 0.057   -0.052516
 N 0.6124 0.9604 0.443   -0.059313
 N 0.0396 0.652 0.443   -0.100873
 N 0.348 0.3876 0.443   -0.052381
 N 0.348 0.9604 0.943   -0.059449
 N 0.6124 0.652 0.943   -0.100531
 N 0.0396 0.3876 0.943   -0.052499
 N 0.3876 0.0396 0.557   -0.059297
 N 0.9604 0.348 0.557   -0.100856
 N 0.652 0.6124 0.557   -0.052363
 O 0.8015 0.2439 0.8722   -0.526652
 O 0.6386 0.1876 0.9407   -0.661507
 O 0.5637 0.1781 0.226   -0.622967
 O 0.4712 0.0705 0.1045   -0.448951
 O 0.4424 0.1985 0.8722   -0.529111
 O 0.549 0.3614 0.9407   -0.6585
 O 0.6144 0.4363 0.226   -0.623506
 O 0.5993 0.5288 0.1045   -0.478984
 O 0.7561 0.5576 0.8722   -0.527536
 O 0.8124 0.451 0.9407   -0.659473
 O 0.8219 0.3856 0.226   -0.626576
 O 0.9295 0.4007 0.1045   -0.46524
 O 0.5576 0.7561 0.6278   -0.526666
 O 0.451 0.8124 0.5593   -0.661158
 O 0.3856 0.8219 0.274   -0.622963
 O 0.4007 0.9295 0.3955   -0.448978
 O 0.2439 0.8015 0.6278   -0.529103
 O 0.1876 0.6386 0.5593   -0.658998
 O 0.1781 0.5637 0.274   -0.623513
 O 0.0705 0.4712 0.3955   -0.479117
 O 0.1985 0.4424 0.6278   -0.527547
 O 0.3614 0.549 0.5593   -0.659396
 O 0.4363 0.6144 0.274   -0.626588
 O 0.5288 0.5993 0.3955   -0.465097
 O 0.1985 0.7561 0.1278   -0.526652
 O 0.3614 0.8124 0.0593   -0.661509
 O 0.4363 0.8219 0.774   -0.622965
 O 0.5288 0.9295 0.8955   -0.448951
 O 0.5576 0.8015 0.1278   -0.52911
 O 0.451 0.6386 0.0593   -0.658502
 O 0.3856 0.5637 0.774   -0.623504
 O 0.4007 0.4712 0.8955   -0.478984
 O 0.2439 0.4424 0.1278   -0.527536
 O 0.1876 0.549 0.0593   -0.659475
 O 0.1781 0.6144 0.774   -0.626575
 O 0.0705 0.5993 0.8955   -0.465241
 O 0.4424 0.2439 0.3722   -0.526665
 O 0.549 0.1876 0.4407   -0.66116
 O 0.6144 0.1781 0.726   -0.622961
 O 0.5993 0.0705 0.6045   -0.448979
 O 0.7561 0.1985 0.3722   -0.529102
 O 0.8124 0.3614 0.4407   -0.659
 O 0.8219 0.4363 0.726   -0.623511
 O 0.9295 0.5288 0.6045   -0.479117
 O 0.8015 0.5576 0.3722   -0.527547
 O 0.6386 0.451 0.4407   -0.659398
 O 0.5637 0.3856 0.726   -0.626586
 O 0.4712 0.4007 0.6045   -0.465098
