{'_ref': 'TBD', '_srcid': 'CAKYAQ_clean', 'submitters': [{'name': 'Dalar Nazarian Jeff Camp and David Sholl', 'email': 'dalar@gatech.edu jcamp6@gatech.edu'}], '_method': 'VASP DFT with PBE;DDEC'}
data_V2P2C2O7
_symmetry_space_group_name_H-M   'P 1'
_cell_length_a   7.48500000
_cell_length_b   7.90300028
_cell_length_c   9.35500000
_cell_angle_alpha   90.00000000
_cell_angle_beta   90.00000000
_cell_angle_gamma   118.24999619
_symmetry_Int_Tables_number   1
_chemical_formula_structural   V2P2C2O7
_chemical_formula_sum   'V4 P4 C4 O14'
_cell_volume   487.471975254
_cell_formula_units_Z   2
loop_
 _symmetry_equiv_pos_site_id
 _symmetry_equiv_pos_as_xyz
  1  'x, y, z'
loop_
 _atom_site_label
 _atom_site_fract_x
 _atom_site_fract_y
 _atom_site_fract_z
 _atom_site_charge
 V 0.566 0.0382 0.25   1.678517
 V 0.434 0.9618 0.75   1.678522
 V 0.0392 0.9949 0.75   1.476095
 V 0.9608 0.0051 0.25   1.476094
 P 0.6317 0.8082 0.516   1.548099
 P 0.3683 0.1918 0.016   1.548099
 P 0.3683 0.1918 0.484   1.5481
 P 0.6317 0.8082 0.984   1.5481
 C 0.5395 0.5717 0.4281   -0.341866
 C 0.4605 0.4283 0.9281   -0.341866
 C 0.4605 0.4283 0.5719   -0.341867
 C 0.5395 0.5717 0.0719   -0.341867
 O 0.8112 0.8143 0.6115   -0.796829
 O 0.7051 0.9345 0.3886   -0.961573
 O 0.4914 0.858 0.5928   -0.798769
 O 0.1888 0.1857 0.1115   -0.796829
 O 0.2949 0.0655 0.8886   -0.961574
 O 0.5086 0.142 0.0928   -0.798768
 O 0.1888 0.1857 0.3885   -0.79683
 O 0.2949 0.0655 0.6114   -0.961574
 O 0.5086 0.142 0.4072   -0.798768
 O 0.8112 0.8143 0.8885   -0.79683
 O 0.7051 0.9345 0.1114   -0.961573
 O 0.4914 0.858 0.9072   -0.798769
 O 0.8959 0.2715 0.25   -0.452736
 O 0.1041 0.7285 0.75   -0.452737
