{'_ref': 'TBD', '_srcid': 'CAKYAQ_clean', 'submitters': [{'name': 'Dalar Nazarian Jeff Camp and David Sholl', 'email': 'dalar@gatech.edu jcamp6@gatech.edu'}], '_method': 'VASP DFT with PBE;DDEC'}
data_SmAgH8C14(NO4)2
_symmetry_space_group_name_H-M   'P 1'
_cell_length_a   9.17260000
_cell_length_b   9.71450021
_cell_length_c   22.34440000
_cell_angle_alpha   90.00000000
_cell_angle_beta   90.00000000
_cell_angle_gamma   117.29500100
_symmetry_Int_Tables_number   1
_chemical_formula_structural   SmAgH8C14(NO4)2
_chemical_formula_sum   'Sm4 Ag4 H32 C56 N8 O32'
_cell_volume   1769.3587607
_cell_formula_units_Z   4
loop_
 _symmetry_equiv_pos_site_id
 _symmetry_equiv_pos_as_xyz
  1  'x, y, z'
loop_
 _atom_site_label
 _atom_site_fract_x
 _atom_site_fract_y
 _atom_site_fract_z
 _atom_site_charge
 Sm 0.88233 0.14285 0.00869   2.293884
 Sm 0.61767 0.85715 0.50868   2.293877
 Sm 0.11767 0.85715 0.99131   2.293884
 Sm 0.38233 0.14285 0.49132   2.293877
 Ag 0.51691 0.17933 0.14763   0.393251
 Ag 0.98309 0.82067 0.64763   0.393251
 Ag 0.48309 0.82067 0.85237   0.393251
 Ag 0.01691 0.17933 0.35237   0.393251
 H 0.756 0.4696 0.8681   0.140769
 H 0.3166 0.5291 0.9334   0.08923
 H 0.7221 0.6788 0.841   0.062165
 H 0.5608 0.2795 0.9279   0.101613
 H 0.9883 0.1395 0.2184   0.08018
 H 0.1006 0.8124 0.1589   0.116714
 H 0.1141 0.9097 0.3322   0.084913
 H 0.14 0.7635 0.2573   0.135356
 H 0.744 0.5304 0.3681   0.140769
 H 0.1834 0.4709 0.4334   0.089229
 H 0.7779 0.3212 0.341   0.062164
 H 0.9392 0.7205 0.4279   0.101612
 H 0.5117 0.8605 0.7184   0.080179
 H 0.3994 0.1876 0.6589   0.116707
 H 0.3859 0.0903 0.8322   0.084913
 H 0.36 0.2365 0.7573   0.135356
 H 0.244 0.5304 0.1319   0.140769
 H 0.6834 0.4709 0.0666   0.08923
 H 0.2779 0.3212 0.159   0.062164
 H 0.4392 0.7205 0.0721   0.101613
 H 0.0117 0.8605 0.7816   0.080179
 H 0.8994 0.1876 0.8411   0.116715
 H 0.8859 0.0903 0.6678   0.084913
 H 0.86 0.2365 0.7427   0.135355
 H 0.256 0.4696 0.6319   0.140769
 H 0.8166 0.5291 0.5666   0.089229
 H 0.2221 0.6788 0.659   0.062164
 H 0.0608 0.2795 0.5721   0.101612
 H 0.4883 0.1395 0.2816   0.080178
 H 0.6006 0.8124 0.3411   0.116708
 H 0.6141 0.9097 0.1678   0.084913
 H 0.64 0.7635 0.2427   0.135355
 C 0.4147 0.3834 0.93617   -0.22875
 C 0.6648 0.4789 0.88129   -0.155969
 C 0.4047 0.5154 0.91951   0.185773
 C 0.6441 0.6042 0.86566   0.164271
 C 0.2811 0.2586 0.97226   0.782063
 C 0.549 0.3662 0.9169   0.059642
 C 0.0208 0.0636 0.22618   0.156325
 C 0.0864 0.8691 0.1899   0.061929
 C 0.0931 0.9278 0.29305   0.174727
 C 0.0401 0.9831 0.17816   -0.21981
 C 0.1111 0.8412 0.2483   -0.192953
 C 0.4972 0.0207 0.03303   0.546828
 C 0.0078 0.0229 0.11643   0.762312
 C 0.0083 0.5081 0.03469   0.55231
 C 0.0853 0.6166 0.43617   -0.228747
 C 0.8352 0.5211 0.38129   -0.155965
 C 0.0953 0.4846 0.41951   0.185773
 C 0.8559 0.3958 0.36566   0.164273
 C 0.2189 0.7414 0.47226   0.782058
 C 0.951 0.6338 0.4169   0.059641
 C 0.4792 0.9364 0.72618   0.156328
 C 0.4136 0.1309 0.6899   0.061927
 C 0.4069 0.0722 0.79305   0.174726
 C 0.4599 0.0169 0.67816   -0.219819
 C 0.3889 0.1588 0.7483   -0.19295
 C 0.0028 0.9793 0.53303   0.546837
 C 0.4922 0.9771 0.61643   0.762317
 C 0.4917 0.4919 0.53469   0.552302
 C 0.5853 0.6166 0.06383   -0.22875
 C 0.3352 0.5211 0.11871   -0.155969
 C 0.5953 0.4846 0.08049   0.185774
 C 0.3559 0.3958 0.13434   0.16427
 C 0.7189 0.7414 0.02774   0.782062
 C 0.451 0.6338 0.0831   0.059642
 C 0.9792 0.9364 0.77382   0.156324
 C 0.9136 0.1309 0.8101   0.061929
 C 0.9069 0.0722 0.70695   0.174726
 C 0.9599 0.0169 0.82184   -0.21981
 C 0.8889 0.1588 0.7517   -0.192953
 C 0.5028 0.9793 0.96697   0.546827
 C 0.9922 0.9771 0.88357   0.762312
 C 0.9917 0.4919 0.96531   0.552312
 C 0.9147 0.3834 0.56383   -0.228747
 C 0.1648 0.4789 0.61871   -0.155965
 C 0.9047 0.5154 0.58049   0.185774
 C 0.1441 0.6042 0.63434   0.164273
 C 0.7811 0.2586 0.52774   0.782058
 C 0.049 0.3662 0.5831   0.059641
 C 0.5208 0.0636 0.27382   0.156327
 C 0.5864 0.8691 0.3101   0.061928
 C 0.5931 0.9278 0.20695   0.174726
 C 0.5401 0.9831 0.32184   -0.219819
 C 0.6111 0.8412 0.2517   -0.192951
 C 0.9972 0.0207 0.46697   0.546836
 C 0.5078 0.0229 0.38357   0.762317
 C 0.5083 0.5081 0.46531   0.552304
 N 0.5163 0.6254 0.88411   -0.311565
 N 0.0463 0.0381 0.28296   -0.301874
 N 0.9837 0.3746 0.38411   -0.311567
 N 0.4537 0.9619 0.78296   -0.301873
 N 0.4837 0.3746 0.11589   -0.311565
 N 0.9537 0.9619 0.71704   -0.301874
 N 0.0163 0.6254 0.61589   -0.311567
 N 0.5463 0.0381 0.21704   -0.301873
 O 0.6305 0.1165 0.05598   -0.636161
 O 0.1769 0.29 0.99674   -0.737413
 O 0.2834 0.1309 0.97383   -0.739879
 O 0.9504 0.3844 0.06382   -0.647009
 O 0.3614 0.9582 0.05886   -0.622497
 O 0.0787 0.642 0.0557   -0.672075
 O 0.9443 0.1118 0.11157   -0.674938
 O 0.0448 0.965 0.07246   -0.803361
 O 0.8695 0.8835 0.55598   -0.636134
 O 0.3231 0.71 0.49674   -0.737436
 O 0.2166 0.8691 0.47383   -0.739873
 O 0.5496 0.6156 0.56382   -0.64696
 O 0.1386 0.0418 0.55886   -0.622545
 O 0.4213 0.358 0.5557   -0.672102
 O 0.5557 0.8882 0.61157   -0.674879
 O 0.4552 0.035 0.57246   -0.803386
 O 0.3695 0.8835 0.94402   -0.63616
 O 0.8231 0.71 0.00326   -0.737413
 O 0.7166 0.8691 0.02617   -0.739879
 O 0.0496 0.6156 0.93618   -0.647009
 O 0.6386 0.0418 0.94114   -0.622497
 O 0.9213 0.358 0.9443   -0.672075
 O 0.0557 0.8882 0.88843   -0.674937
 O 0.9552 0.035 0.92754   -0.803362
 O 0.1305 0.1165 0.44402   -0.636134
 O 0.6769 0.29 0.50326   -0.737436
 O 0.7834 0.1309 0.52617   -0.739874
 O 0.4504 0.3844 0.43618   -0.64696
 O 0.8614 0.9582 0.44114   -0.622545
 O 0.5787 0.642 0.4443   -0.672102
 O 0.4443 0.1118 0.38843   -0.674879
 O 0.5448 0.965 0.42754   -0.803386
