{'_ref': 'TBD', '_srcid': 'CAKYAQ_clean', 'submitters': [{'name': 'Dalar Nazarian Jeff Camp and David Sholl', 'email': 'dalar@gatech.edu jcamp6@gatech.edu'}], '_method': 'VASP DFT with PBE;DDEC'}
data_Ni3H32C40(NO6)2
_symmetry_space_group_name_H-M   'P 1'
_cell_length_a   11.38500000
_cell_length_b   11.60600012
_cell_length_c   19.12500000
_cell_angle_alpha   90.00000000
_cell_angle_beta   90.00000000
_cell_angle_gamma   115.68400113
_symmetry_Int_Tables_number   1
_chemical_formula_structural   Ni3H32C40(NO6)2
_chemical_formula_sum   'Ni6 H64 C80 N4 O24'
_cell_volume   2277.3894595
_cell_formula_units_Z   2
loop_
 _symmetry_equiv_pos_site_id
 _symmetry_equiv_pos_as_xyz
  1  'x, y, z'
loop_
 _atom_site_label
 _atom_site_fract_x
 _atom_site_fract_y
 _atom_site_fract_z
 _atom_site_charge
 Ni 0.67351 0.82916 0.49506   0.847033
 Ni 0.82649 0.67084 0.99506   0.847033
 Ni 0.32649 0.17084 0.50494   0.847033
 Ni 0.17351 0.32916 0.00494   0.847033
 Ni 0.5 0.5 0.5   1.108501
 Ni 0.0 0.0 0.0   1.108501
 H 0.7919 0.5159 0.5519   0.108833
 H 0.8706 0.367 0.6101   0.093606
 H 0.9904 0.7269 0.3882   0.109325
 H 0.076 0.6085 0.1462   0.098171
 H 0.1584 0.4853 0.2274   0.111586
 H 0.293 0.4875 0.3162   0.114414
 H 0.4494 0.8699 0.3258   0.094167
 H 0.376 0.9899 0.2441   0.109722
 H 0.2476 0.9919 0.153   0.100275
 H 0.5963 0.0446 0.5405   0.099749
 H 0.7086 0.1734 0.5138   0.08586
 H 0.7383 0.0898 0.5697   0.092728
 H 0.8646 0.0448 0.409   0.110629
 H 0.8659 0.1743 0.4346   0.085852
 H 0.9104 0.093 0.4854   0.095587
 H 0.6652 0.0141 0.4375   0.27936
 H 0.7081 0.9841 0.0519   0.108833
 H 0.6294 0.133 0.1101   0.093606
 H 0.5096 0.7731 0.8882   0.109325
 H 0.424 0.8915 0.6462   0.09817
 H 0.3416 0.0147 0.7274   0.111586
 H 0.207 0.0125 0.8162   0.114414
 H 0.0506 0.6301 0.8258   0.094167
 H 0.124 0.5101 0.7441   0.109722
 H 0.2524 0.5081 0.653   0.100275
 H 0.9037 0.4554 0.0405   0.099749
 H 0.7914 0.3266 0.0138   0.08586
 H 0.7617 0.4102 0.0697   0.092728
 H 0.6354 0.4552 0.909   0.110629
 H 0.6341 0.3257 0.9346   0.085852
 H 0.5896 0.407 0.9854   0.095587
 H 0.8348 0.4859 0.9375   0.27936
 H 0.2081 0.4841 0.4481   0.108833
 H 0.1294 0.633 0.3899   0.093603
 H 0.0096 0.2731 0.6118   0.109323
 H 0.924 0.3915 0.8538   0.09817
 H 0.8416 0.5147 0.7726   0.111586
 H 0.707 0.5125 0.6838   0.114414
 H 0.5506 0.1301 0.6742   0.094167
 H 0.624 0.0101 0.7559   0.109722
 H 0.7524 0.0081 0.847   0.100275
 H 0.4037 0.9554 0.4595   0.099749
 H 0.2914 0.8266 0.4862   0.08586
 H 0.2617 0.9102 0.4303   0.092729
 H 0.1354 0.9552 0.591   0.110628
 H 0.1341 0.8257 0.5654   0.085852
 H 0.0896 0.907 0.5146   0.095588
 H 0.3348 0.9859 0.5625   0.27936
 H 0.2919 0.0159 0.9481   0.108833
 H 0.3706 0.867 0.8899   0.093603
 H 0.4904 0.2269 0.1118   0.109323
 H 0.576 0.1085 0.3538   0.09817
 H 0.6584 0.9853 0.2726   0.111586
 H 0.793 0.9875 0.1838   0.114414
 H 0.9494 0.3699 0.1742   0.094167
 H 0.876 0.4899 0.2559   0.109722
 H 0.7476 0.4919 0.347   0.100275
 H 0.0963 0.5446 0.9595   0.099749
 H 0.2086 0.6734 0.9862   0.08586
 H 0.2383 0.5898 0.9303   0.092729
 H 0.3646 0.5448 0.091   0.110628
 H 0.3659 0.6743 0.0654   0.085852
 H 0.4104 0.593 0.0146   0.095588
 H 0.1652 0.5141 0.0625   0.27936
 C 0.4726 0.6796 0.3901   0.675684
 C 0.791 0.6986 0.4708   0.65578
 C 0.8771 0.6295 0.4708   -0.123943
 C 0.8614 0.54 0.5206   -0.062628
 C 0.9486 0.4822 0.5244   0.033536
 C 0.9371 0.3906 0.5768   -0.122636
 C 0.9807 0.666 0.4219   -0.057383
 C 0.0584 0.805 0.0837   0.679988
 C 0.147 0.7992 0.1416   -0.118421
 C 0.1376 0.6847 0.1661   -0.105331
 C 0.2195 0.6803 0.2212   0.036368
 C 0.2159 0.563 0.2472   -0.138502
 C 0.2962 0.5641 0.3001   -0.043024
 C 0.3842 0.6797 0.3308   -0.125223
 C 0.39 0.793 0.3065   -0.092948
 C 0.3093 0.7966 0.2514   0.041843
 C 0.317 0.9131 0.2247   -0.134903
 C 0.2397 0.9142 0.1711   -0.039666
 C 0.6874 0.0875 0.5291   -0.136822
 C 0.851 0.0885 0.4485   -0.151184
 C 0.0274 0.8204 0.8901   0.675683
 C 0.709 0.8014 0.9708   0.65578
 C 0.6229 0.8705 0.9708   -0.123943
 C 0.6386 0.96 0.0206   -0.062628
 C 0.5514 0.0178 0.0244   0.033536
 C 0.5629 0.1094 0.0768   -0.122635
 C 0.5193 0.834 0.9219   -0.057383
 C 0.4416 0.695 0.5837   0.679988
 C 0.353 0.7008 0.6416   -0.118421
 C 0.3624 0.8153 0.6661   -0.105331
 C 0.2805 0.8197 0.7212   0.036368
 C 0.2841 0.937 0.7472   -0.138502
 C 0.2038 0.9359 0.8001   -0.043024
 C 0.1158 0.8203 0.8308   -0.125223
 C 0.11 0.707 0.8065   -0.092948
 C 0.1907 0.7034 0.7514   0.041843
 C 0.183 0.5869 0.7247   -0.134903
 C 0.2603 0.5858 0.6711   -0.039666
 C 0.8126 0.4125 0.0291   -0.136821
 C 0.649 0.4115 0.9485   -0.151184
 C 0.5274 0.3204 0.6099   0.675684
 C 0.209 0.3014 0.5292   0.655781
 C 0.1229 0.3705 0.5292   -0.123947
 C 0.1386 0.46 0.4794   -0.062626
 C 0.0514 0.5178 0.4756   0.033533
 C 0.0629 0.6094 0.4232   -0.122611
 C 0.0193 0.334 0.5781   -0.057357
 C 0.9416 0.195 0.9163   0.679988
 C 0.853 0.2008 0.8584   -0.118421
 C 0.8624 0.3153 0.8339   -0.105331
 C 0.7805 0.3197 0.7788   0.036368
 C 0.7841 0.437 0.7528   -0.138501
 C 0.7038 0.4359 0.6999   -0.043024
 C 0.6158 0.3203 0.6692   -0.125223
 C 0.61 0.207 0.6935   -0.092948
 C 0.6907 0.2034 0.7486   0.041843
 C 0.683 0.0869 0.7753   -0.134903
 C 0.7603 0.0858 0.8289   -0.039666
 C 0.3126 0.9125 0.4709   -0.136822
 C 0.149 0.9115 0.5515   -0.151184
 C 0.9726 0.1796 0.1099   0.675683
 C 0.291 0.1986 0.0292   0.655781
 C 0.3771 0.1295 0.0292   -0.123947
 C 0.3614 0.04 0.9794   -0.062626
 C 0.4486 0.9822 0.9756   0.033533
 C 0.4371 0.8906 0.9232   -0.12261
 C 0.4807 0.166 0.0781   -0.057357
 C 0.5584 0.305 0.4163   0.679988
 C 0.647 0.2992 0.3584   -0.118421
 C 0.6376 0.1847 0.3339   -0.105331
 C 0.7195 0.1803 0.2788   0.036368
 C 0.7159 0.063 0.2528   -0.138501
 C 0.7962 0.0641 0.1999   -0.043024
 C 0.8842 0.1797 0.1692   -0.125223
 C 0.89 0.293 0.1935   -0.092948
 C 0.8093 0.2966 0.2486   0.041843
 C 0.817 0.4131 0.2753   -0.134903
 C 0.7397 0.4142 0.3289   -0.039666
 C 0.1874 0.5875 0.9709   -0.136822
 C 0.351 0.5885 0.0515   -0.151184
 N 0.7163 0.0168 0.47307   -0.347251
 N 0.7837 0.4832 0.97307   -0.347251
 N 0.2837 0.9832 0.52693   -0.347251
 N 0.2163 0.5168 0.02693   -0.347251
 O 0.448 0.5707 0.41492   -0.587387
 O 0.5591 0.7853 0.40915   -0.57193
 O 0.6857 0.6549 0.507   -0.614639
 O 0.8274 0.8038 0.44034   -0.54801
 O 0.9769 0.6992 0.05923   -0.610965
 O 0.0721 0.9146 0.06748   -0.581571
 O 0.052 0.9293 0.91492   -0.587387
 O 0.9409 0.7147 0.90915   -0.57193
 O 0.8143 0.8451 0.007   -0.614639
 O 0.6726 0.6962 0.94034   -0.54801
 O 0.5231 0.8008 0.55923   -0.610965
 O 0.4279 0.5854 0.56748   -0.581571
 O 0.552 0.4293 0.58508   -0.587388
 O 0.4409 0.2147 0.59085   -0.57193
 O 0.3143 0.3451 0.493   -0.614639
 O 0.1726 0.1962 0.55966   -0.548011
 O 0.0231 0.3008 0.94077   -0.610965
 O 0.9279 0.0854 0.93252   -0.581572
 O 0.948 0.0707 0.08508   -0.587388
 O 0.0591 0.2853 0.09085   -0.57193
 O 0.1857 0.1549 0.993   -0.614639
 O 0.3274 0.3038 0.05966   -0.548011
 O 0.4769 0.1992 0.44077   -0.610965
 O 0.5721 0.4146 0.43252   -0.581572
