{'_ref': 'TBD', '_srcid': 'CAKYAQ_clean', 'submitters': [{'name': 'Dalar Nazarian Jeff Camp and David Sholl', 'email': 'dalar@gatech.edu jcamp6@gatech.edu'}], '_method': 'VASP DFT with PBE;DDEC'}
data_Ce2H12(C4O5)3
_symmetry_space_group_name_H-M   'P 1'
_cell_length_a   9.41930000
_cell_length_b   9.41929993
_cell_length_c   17.47570000
_cell_angle_alpha   90.00000000
_cell_angle_beta   90.00000000
_cell_angle_gamma   120.00000026
_symmetry_Int_Tables_number   1
_chemical_formula_structural   Ce2H12(C4O5)3
_chemical_formula_sum   'Ce4 H24 C24 O30'
_cell_volume   1342.77258619
_cell_formula_units_Z   2
loop_
 _symmetry_equiv_pos_site_id
 _symmetry_equiv_pos_as_xyz
  1  'x, y, z'
loop_
 _atom_site_label
 _atom_site_fract_x
 _atom_site_fract_y
 _atom_site_fract_z
 _atom_site_charge
 Ce 0.33333 0.66666 0.75   2.360425
 Ce 0.66667 0.33334 0.25   2.360425
 Ce 0.0 0.0 0.0   2.16418
 Ce 0.0 0.0 0.5   2.164184
 H 0.56877 0.59492 0.92133   0.113922
 H 0.50351 0.67626 0.97771   0.090285
 H 0.02615 0.43123 0.92133   0.113923
 H 0.17275 0.49649 0.97771   0.090287
 H 0.40508 0.97385 0.92133   0.113924
 H 0.32374 0.82725 0.97771   0.090285
 H 0.56877 0.59492 0.57867   0.113922
 H 0.50351 0.67626 0.52229   0.090285
 H 0.02615 0.43123 0.57867   0.113923
 H 0.17275 0.49649 0.52229   0.090287
 H 0.40508 0.97385 0.57867   0.113924
 H 0.32374 0.82725 0.52229   0.090285
 H 0.97385 0.40508 0.07867   0.113923
 H 0.82725 0.32374 0.02229   0.090285
 H 0.59492 0.56877 0.07867   0.113924
 H 0.67626 0.50351 0.02229   0.090287
 H 0.43123 0.02615 0.07867   0.113924
 H 0.49649 0.17275 0.02229   0.090285
 H 0.97385 0.40508 0.42133   0.113922
 H 0.82725 0.32374 0.47771   0.090285
 H 0.59492 0.56877 0.42133   0.113923
 H 0.67626 0.50351 0.47771   0.090287
 H 0.43123 0.02615 0.42133   0.113924
 H 0.49649 0.17275 0.47771   0.090285
 C 0.6489 0.8338 0.8949   0.770069
 C 0.5971 0.6918 0.9485   -0.077977
 C 0.1849 0.3511 0.8949   0.770073
 C 0.0947 0.4029 0.9485   -0.077979
 C 0.1662 0.8151 0.8949   0.770077
 C 0.3082 0.9053 0.9485   -0.077977
 C 0.6489 0.8338 0.6051   0.770069
 C 0.5971 0.6918 0.5515   -0.077977
 C 0.1849 0.3511 0.6051   0.770073
 C 0.0947 0.4029 0.5515   -0.077979
 C 0.1662 0.8151 0.6051   0.770077
 C 0.3082 0.9053 0.5515   -0.077977
 C 0.8151 0.1662 0.1051   0.770069
 C 0.9053 0.3082 0.0515   -0.077977
 C 0.8338 0.6489 0.1051   0.770073
 C 0.6918 0.5971 0.0515   -0.077979
 C 0.3511 0.1849 0.1051   0.770077
 C 0.4029 0.0947 0.0515   -0.077978
 C 0.8151 0.1662 0.3949   0.770069
 C 0.9053 0.3082 0.4485   -0.077977
 C 0.8338 0.6489 0.3949   0.770073
 C 0.6918 0.5971 0.4485   -0.077979
 C 0.3511 0.1849 0.3949   0.770077
 C 0.4029 0.0947 0.4485   -0.077978
 O 0.5495 0.8212 0.8444   -0.790294
 O 0.7892 0.9595 0.9039   -0.679065
 O 0.2717 0.4505 0.8444   -0.790301
 O 0.1703 0.2108 0.9039   -0.679058
 O 0.1788 0.7283 0.8444   -0.790306
 O 0.0405 0.8297 0.9039   -0.679065
 O 0.5495 0.8212 0.6556   -0.790294
 O 0.7892 0.9595 0.5961   -0.679065
 O 0.2717 0.4505 0.6556   -0.790301
 O 0.1703 0.2108 0.5961   -0.679059
 O 0.1788 0.7283 0.6556   -0.790306
 O 0.0405 0.8297 0.5961   -0.679066
 O 0.7283 0.1788 0.1556   -0.790294
 O 0.8297 0.0405 0.0961   -0.679065
 O 0.8212 0.5495 0.1556   -0.790301
 O 0.9595 0.7892 0.0961   -0.679058
 O 0.4505 0.2717 0.1556   -0.790306
 O 0.2108 0.1703 0.0961   -0.679065
 O 0.7283 0.1788 0.3444   -0.790294
 O 0.8297 0.0405 0.4039   -0.679065
 O 0.8212 0.5495 0.3444   -0.790301
 O 0.9595 0.7892 0.4039   -0.679059
 O 0.4505 0.2717 0.3444   -0.790306
 O 0.2108 0.1703 0.4039   -0.679065
 O 0.728 0.728 0.0   -0.362082
 O 0.0 0.272 0.0   -0.362082
 O 0.272 0.0 0.0   -0.362085
 O 0.728 0.728 0.5   -0.362083
 O 0.0 0.272 0.5   -0.362082
 O 0.272 0.0 0.5   -0.362085
