{'_ref': 'TBD', '_srcid': 'CAKYAQ_clean', 'submitters': [{'name': 'Dalar Nazarian Jeff Camp and David Sholl', 'email': 'dalar@gatech.edu jcamp6@gatech.edu'}], '_method': 'VASP DFT with PBE;DDEC'}
data_ZnH13C23N2(O2F3)2
_symmetry_space_group_name_H-M   'P 1'
_cell_length_a   15.83300000
_cell_length_b   16.08600000
_cell_length_c   22.67000000
_cell_angle_alpha   90.00000000
_cell_angle_beta   90.00000000
_cell_angle_gamma   90.00000000
_symmetry_Int_Tables_number   1
_chemical_formula_structural   ZnH13C23N2(O2F3)2
_chemical_formula_sum   'Zn8 H104 C184 N16 O32 F48'
_cell_volume   5773.81409346
_cell_formula_units_Z   8
loop_
 _symmetry_equiv_pos_site_id
 _symmetry_equiv_pos_as_xyz
  1  'x, y, z'
loop_
 _atom_site_label
 _atom_site_fract_x
 _atom_site_fract_y
 _atom_site_fract_z
 _atom_site_charge
 Zn 0.68767 0.56107 0.25923   0.916749
 Zn 0.83456 0.44472 0.25228   0.928643
 Zn 0.18767 0.43893 0.74077   0.916749
 Zn 0.33456 0.55528 0.74772   0.928643
 Zn 0.68767 0.43893 0.75923   0.916749
 Zn 0.83456 0.55528 0.75228   0.928643
 Zn 0.18767 0.56107 0.24077   0.916749
 Zn 0.33456 0.44472 0.24772   0.928643
 H 0.7782 0.7186 0.1177   0.092541
 H 0.8408 0.8017 0.0457   0.103303
 H 0.039 0.6423 0.039   0.122319
 H 0.9779 0.563 0.1121   0.0999
 H 0.9393 0.6576 0.9282   0.116735
 H 0.0043 0.5706 0.859   0.105206
 H 0.2202 0.7042 0.8744   0.106602
 H 0.1553 0.7888 0.9446   0.103677
 H 0.7553 0.2842 0.3894   0.093389
 H 0.6997 0.1942 0.4611   0.103285
 H 0.4819 0.3294 0.4596   0.118429
 H 0.5401 0.4193 0.3904   0.105515
 H 0.5898 0.3251 0.5754   0.120213
 H 0.5192 0.4125 0.6401   0.102334
 H 0.308 0.2762 0.6204   0.095847
 H 0.3777 0.187 0.5564   0.112221
 H 0.723 0.7335 0.2734   0.088564
 H 0.6595 0.8625 0.2864   0.131493
 H 0.4328 0.7494 0.2719   0.130553
 H 0.5034 0.6215 0.2649   0.09551
 H 0.4367 0.905 0.2809   0.079675
 H 0.5895 0.1061 0.2746   0.080487
 H 0.5889 0.2614 0.2766   0.129238
 H 0.5185 0.386 0.269   0.095493
 H 0.3016 0.267 0.2494   0.08982
 H 0.3671 0.1408 0.2588   0.131163
 H 0.2782 0.2814 0.8823   0.092541
 H 0.3408 0.1983 0.9543   0.103303
 H 0.539 0.3577 0.961   0.122319
 H 0.4779 0.437 0.8879   0.0999
 H 0.4393 0.3424 0.0718   0.116735
 H 0.5043 0.4294 0.141   0.105206
 H 0.7202 0.2958 0.1256   0.106602
 H 0.6553 0.2112 0.0554   0.103677
 H 0.2553 0.7158 0.6106   0.093389
 H 0.1997 0.8058 0.5389   0.103285
 H 0.9819 0.6706 0.5404   0.118429
 H 0.0401 0.5807 0.6096   0.105515
 H 0.0898 0.6749 0.4246   0.120213
 H 0.0192 0.5875 0.3599   0.102334
 H 0.808 0.7238 0.3796   0.095847
 H 0.8777 0.813 0.4436   0.112221
 H 0.223 0.2665 0.7266   0.088564
 H 0.1595 0.1375 0.7136   0.131493
 H 0.9328 0.2506 0.7281   0.130553
 H 0.0034 0.3785 0.7351   0.09551
 H 0.9367 0.095 0.7191   0.079675
 H 0.0895 0.8939 0.7254   0.080487
 H 0.0889 0.7386 0.7234   0.129238
 H 0.0185 0.614 0.731   0.095493
 H 0.8016 0.733 0.7506   0.08982
 H 0.8671 0.8592 0.7412   0.131163
 H 0.7782 0.2814 0.6177   0.092541
 H 0.8408 0.1983 0.5457   0.103303
 H 0.039 0.3577 0.539   0.122319
 H 0.9779 0.437 0.6121   0.0999
 H 0.9393 0.3424 0.4282   0.116734
 H 0.0043 0.4294 0.359   0.105206
 H 0.2202 0.2958 0.3744   0.106602
 H 0.1553 0.2112 0.4446   0.103677
 H 0.7553 0.7158 0.8894   0.093389
 H 0.6997 0.8058 0.9611   0.103285
 H 0.4819 0.6706 0.9596   0.118429
 H 0.5401 0.5807 0.8904   0.105515
 H 0.5898 0.6749 0.0754   0.120213
 H 0.5192 0.5875 0.1401   0.102334
 H 0.308 0.7238 0.1204   0.095847
 H 0.3777 0.813 0.0564   0.112221
 H 0.723 0.2665 0.7734   0.088564
 H 0.6595 0.1375 0.7864   0.131492
 H 0.4328 0.2506 0.7719   0.130552
 H 0.5034 0.3785 0.7649   0.095509
 H 0.4367 0.095 0.7809   0.079675
 H 0.5895 0.8939 0.7746   0.080487
 H 0.5889 0.7386 0.7766   0.129237
 H 0.5185 0.614 0.769   0.095493
 H 0.3016 0.733 0.7494   0.08982
 H 0.3671 0.8592 0.7588   0.131162
 H 0.2782 0.7186 0.3823   0.092541
 H 0.3408 0.8017 0.4543   0.103303
 H 0.539 0.6423 0.461   0.122319
 H 0.4779 0.563 0.3879   0.0999
 H 0.4393 0.6576 0.5718   0.116734
 H 0.5043 0.5706 0.641   0.105206
 H 0.7202 0.7042 0.6256   0.106602
 H 0.6553 0.7888 0.5554   0.103677
 H 0.2553 0.2842 0.1106   0.093389
 H 0.1997 0.1942 0.0389   0.103285
 H 0.9819 0.3294 0.0404   0.118429
 H 0.0401 0.4193 0.1096   0.105515
 H 0.0898 0.3251 0.9246   0.120213
 H 0.0192 0.4125 0.8599   0.102334
 H 0.808 0.2762 0.8796   0.095847
 H 0.8777 0.187 0.9436   0.112221
 H 0.223 0.7335 0.2266   0.088564
 H 0.1595 0.8625 0.2136   0.131492
 H 0.9328 0.7494 0.2281   0.130552
 H 0.0034 0.6215 0.2351   0.095509
 H 0.9367 0.905 0.2191   0.079675
 H 0.0895 0.1061 0.2254   0.080487
 H 0.0889 0.2614 0.2234   0.129237
 H 0.0185 0.386 0.231   0.095493
 H 0.8016 0.267 0.2506   0.08982
 H 0.8671 0.1408 0.2412   0.131162
 C 0.8338 0.5797 0.1697   0.682874
 C 0.8707 0.6323 0.123   -0.15202
 C 0.8317 0.7032 0.1021   -0.013944
 C 0.8687 0.7528 0.0589   -0.161523
 C 0.9463 0.7308 0.0352   0.086927
 C 0.9863 0.6586 0.0553   -0.145243
 C 0.9495 0.6113 0.0984   -0.026091
 C 0.9943 0.7864 0.9901   -0.299903
 C 0.0552 0.8411 0.0261   0.700131
 C 0.9359 0.8448 0.9548   0.691995
 C 0.0404 0.7321 0.9444   0.075461
 C 0.9967 0.667 0.9178   -0.14032
 C 0.0349 0.6153 0.8762   -0.0266
 C 0.1179 0.6297 0.8603   -0.145064
 C 0.1632 0.6944 0.8855   -0.03273
 C 0.1242 0.7447 0.9272   -0.154208
 C 0.162 0.5738 0.8163   0.667771
 C 0.6929 0.4185 0.3384   0.667629
 C 0.6538 0.3607 0.3845   -0.143394
 C 0.7002 0.2936 0.4046   -0.0229
 C 0.6671 0.2396 0.447   -0.158201
 C 0.5848 0.2533 0.4684   0.076495
 C 0.5379 0.3205 0.4461   -0.14372
 C 0.5722 0.3738 0.4048   -0.030829
 C 0.5416 0.1956 0.5136   -0.301354
 C 0.4833 0.1365 0.4767   0.693736
 C 0.6044 0.1424 0.5489   0.701406
 C 0.49 0.2484 0.5575   0.086389
 C 0.5319 0.3155 0.584   -0.149059
 C 0.49 0.3674 0.6223   -0.018403
 C 0.4049 0.3543 0.6352   -0.15284
 C 0.3654 0.2868 0.6108   -0.016025
 C 0.4066 0.2336 0.5725   -0.164497
 C 0.358 0.4136 0.6741   0.674688
 C 0.6631 0.737 0.2741   0.151982
 C 0.6258 0.8144 0.2805   -0.16476
 C 0.5384 0.8203 0.2782   0.070613
 C 0.4928 0.7478 0.2727   -0.181617
 C 0.5353 0.6712 0.2683   0.164827
 C 0.4965 0.9017 0.2794   0.176611
 C 0.5295 0.1074 0.2736   0.164371
 C 0.4853 0.1875 0.2686   0.078222
 C 0.5294 0.2618 0.2713   -0.181291
 C 0.4875 0.3356 0.2663   0.168398
 C 0.361 0.2656 0.2552   0.15656
 C 0.3993 0.1906 0.2606   -0.164411
 C 0.3338 0.4203 0.8303   0.682874
 C 0.3707 0.3677 0.877   -0.15202
 C 0.3317 0.2968 0.8979   -0.013944
 C 0.3687 0.2472 0.9411   -0.161523
 C 0.4463 0.2692 0.9648   0.086927
 C 0.4863 0.3414 0.9447   -0.145243
 C 0.4495 0.3887 0.9016   -0.026091
 C 0.4943 0.2136 0.0099   -0.299903
 C 0.5552 0.1589 0.9739   0.700131
 C 0.4359 0.1552 0.0452   0.691995
 C 0.5404 0.2679 0.0556   0.075461
 C 0.4967 0.333 0.0822   -0.140321
 C 0.5349 0.3847 0.1238   -0.0266
 C 0.6179 0.3703 0.1397   -0.145064
 C 0.6632 0.3056 0.1145   -0.03273
 C 0.6242 0.2553 0.0728   -0.154209
 C 0.662 0.4262 0.1837   0.66777
 C 0.1929 0.5815 0.6616   0.667628
 C 0.1538 0.6393 0.6155   -0.143394
 C 0.2002 0.7064 0.5954   -0.0229
 C 0.1671 0.7604 0.553   -0.158201
 C 0.0848 0.7467 0.5316   0.076495
 C 0.0379 0.6795 0.5539   -0.14372
 C 0.0722 0.6262 0.5952   -0.030829
 C 0.0416 0.8044 0.4864   -0.301354
 C 0.9833 0.8635 0.5233   0.693736
 C 0.1044 0.8576 0.4511   0.701406
 C 0.99 0.7516 0.4425   0.086389
 C 0.0319 0.6845 0.416   -0.149059
 C 0.99 0.6326 0.3777   -0.018403
 C 0.9049 0.6457 0.3648   -0.15284
 C 0.8654 0.7132 0.3892   -0.016025
 C 0.9066 0.7664 0.4275   -0.164497
 C 0.858 0.5864 0.3259   0.674688
 C 0.1631 0.263 0.7259   0.151982
 C 0.1258 0.1856 0.7195   -0.16476
 C 0.0384 0.1797 0.7218   0.070613
 C 0.9928 0.2522 0.7273   -0.181617
 C 0.0353 0.3288 0.7317   0.164827
 C 0.9965 0.0983 0.7206   0.176611
 C 0.0295 0.8926 0.7264   0.16437
 C 0.9853 0.8125 0.7314   0.078222
 C 0.0294 0.7382 0.7287   -0.181291
 C 0.9875 0.6644 0.7337   0.168398
 C 0.861 0.7344 0.7448   0.15656
 C 0.8993 0.8094 0.7394   -0.164411
 C 0.8338 0.4203 0.6697   0.682874
 C 0.8707 0.3677 0.623   -0.15202
 C 0.8317 0.2968 0.6021   -0.013944
 C 0.8687 0.2472 0.5589   -0.161523
 C 0.9463 0.2692 0.5352   0.086927
 C 0.9863 0.3414 0.5553   -0.145243
 C 0.9495 0.3887 0.5984   -0.026091
 C 0.9943 0.2136 0.4901   -0.299903
 C 0.0552 0.1589 0.5261   0.700131
 C 0.9359 0.1552 0.4548   0.691995
 C 0.0404 0.2679 0.4444   0.075461
 C 0.9967 0.333 0.4178   -0.14032
 C 0.0349 0.3847 0.3762   -0.0266
 C 0.1179 0.3703 0.3603   -0.145064
 C 0.1632 0.3056 0.3855   -0.03273
 C 0.1242 0.2553 0.4272   -0.154208
 C 0.162 0.4262 0.3163   0.667771
 C 0.6929 0.5815 0.8384   0.667628
 C 0.6538 0.6393 0.8845   -0.143394
 C 0.7002 0.7064 0.9046   -0.0229
 C 0.6671 0.7604 0.947   -0.158201
 C 0.5848 0.7467 0.9684   0.076495
 C 0.5379 0.6795 0.9461   -0.14372
 C 0.5722 0.6262 0.9048   -0.030829
 C 0.5416 0.8044 0.0136   -0.301354
 C 0.4833 0.8635 0.9767   0.693736
 C 0.6044 0.8576 0.0489   0.701406
 C 0.49 0.7516 0.0575   0.086389
 C 0.5319 0.6845 0.084   -0.149059
 C 0.49 0.6326 0.1223   -0.018403
 C 0.4049 0.6457 0.1352   -0.15284
 C 0.3654 0.7132 0.1108   -0.016025
 C 0.4066 0.7664 0.0725   -0.164497
 C 0.358 0.5864 0.1741   0.674688
 C 0.6631 0.263 0.7741   0.151982
 C 0.6258 0.1856 0.7805   -0.16476
 C 0.5384 0.1797 0.7782   0.070613
 C 0.4928 0.2522 0.7727   -0.181617
 C 0.5353 0.3288 0.7683   0.164828
 C 0.4965 0.0983 0.7794   0.176611
 C 0.5295 0.8926 0.7736   0.164371
 C 0.4853 0.8125 0.7686   0.078222
 C 0.5294 0.7382 0.7713   -0.181291
 C 0.4875 0.6644 0.7663   0.168398
 C 0.361 0.7344 0.7552   0.15656
 C 0.3993 0.8094 0.7606   -0.164411
 C 0.3338 0.5797 0.3303   0.682874
 C 0.3707 0.6323 0.377   -0.15202
 C 0.3317 0.7032 0.3979   -0.013944
 C 0.3687 0.7528 0.4411   -0.161523
 C 0.4463 0.7308 0.4648   0.086927
 C 0.4863 0.6586 0.4447   -0.145243
 C 0.4495 0.6113 0.4016   -0.026091
 C 0.4943 0.7864 0.5099   -0.299903
 C 0.5552 0.8411 0.4739   0.700131
 C 0.4359 0.8448 0.5452   0.691995
 C 0.5404 0.7321 0.5556   0.075461
 C 0.4967 0.667 0.5822   -0.140321
 C 0.5349 0.6153 0.6238   -0.0266
 C 0.6179 0.6297 0.6397   -0.145064
 C 0.6632 0.6944 0.6145   -0.03273
 C 0.6242 0.7447 0.5728   -0.154209
 C 0.662 0.5738 0.6837   0.66777
 C 0.1929 0.4185 0.1616   0.667628
 C 0.1538 0.3607 0.1155   -0.143394
 C 0.2002 0.2936 0.0954   -0.0229
 C 0.1671 0.2396 0.053   -0.158201
 C 0.0848 0.2533 0.0316   0.076495
 C 0.0379 0.3205 0.0539   -0.14372
 C 0.0722 0.3738 0.0952   -0.030829
 C 0.0416 0.1956 0.9864   -0.301354
 C 0.9833 0.1365 0.0233   0.693736
 C 0.1044 0.1424 0.9511   0.701406
 C 0.99 0.2484 0.9425   0.086389
 C 0.0319 0.3155 0.916   -0.149059
 C 0.99 0.3674 0.8777   -0.018403
 C 0.9049 0.3543 0.8648   -0.15284
 C 0.8654 0.2868 0.8892   -0.016025
 C 0.9066 0.2336 0.9275   -0.164497
 C 0.858 0.4136 0.8259   0.674688
 C 0.1631 0.737 0.2259   0.151982
 C 0.1258 0.8144 0.2195   -0.16476
 C 0.0384 0.8203 0.2218   0.070613
 C 0.9928 0.7478 0.2273   -0.181617
 C 0.0353 0.6712 0.2317   0.164828
 C 0.9965 0.9017 0.2206   0.176611
 C 0.0295 0.1074 0.2264   0.164371
 C 0.9853 0.1875 0.2314   0.078222
 C 0.0294 0.2618 0.2287   -0.181291
 C 0.9875 0.3356 0.2337   0.168398
 C 0.861 0.2656 0.2448   0.15656
 C 0.8993 0.1906 0.2394   -0.164411
 N 0.6185 0.6671 0.2688   -0.288046
 N 0.5409 0.9682 0.2782   -0.234885
 N 0.4874 0.0388 0.2766   -0.241207
 N 0.4036 0.3387 0.2577   -0.305074
 N 0.1185 0.3329 0.7312   -0.288046
 N 0.0409 0.0318 0.7218   -0.234885
 N 0.9874 0.9612 0.7234   -0.241207
 N 0.9036 0.6613 0.7423   -0.305074
 N 0.6185 0.3329 0.7688   -0.288046
 N 0.5409 0.0318 0.7782   -0.234885
 N 0.4874 0.9612 0.7766   -0.241207
 N 0.4036 0.6613 0.7577   -0.305074
 N 0.1185 0.6671 0.2312   -0.288046
 N 0.0409 0.9682 0.2218   -0.234885
 N 0.9874 0.0388 0.2234   -0.241207
 N 0.9036 0.3387 0.2423   -0.305074
 O 0.7629 0.6041 0.191   -0.617885
 O 0.8729 0.5167 0.185   -0.567511
 O 0.2334 0.5957 0.7992   -0.615586
 O 0.1237 0.5085 0.8012   -0.562288
 O 0.7665 0.4017 0.3226   -0.585749
 O 0.6477 0.4788 0.3214   -0.579931
 O 0.3969 0.4766 0.6935   -0.569876
 O 0.2823 0.3973 0.6852   -0.610454
 O 0.2629 0.3959 0.809   -0.617885
 O 0.3729 0.4833 0.815   -0.567511
 O 0.7334 0.4043 0.2008   -0.615586
 O 0.6237 0.4915 0.1988   -0.562288
 O 0.2665 0.5983 0.6774   -0.585749
 O 0.1477 0.5212 0.6786   -0.579931
 O 0.8969 0.5234 0.3065   -0.569876
 O 0.7823 0.6027 0.3148   -0.610454
 O 0.7629 0.3959 0.691   -0.617885
 O 0.8729 0.4833 0.685   -0.567511
 O 0.2334 0.4043 0.2992   -0.615586
 O 0.1237 0.4915 0.3012   -0.562288
 O 0.7665 0.5983 0.8226   -0.585749
 O 0.6477 0.5212 0.8214   -0.579931
 O 0.3969 0.5234 0.1935   -0.569876
 O 0.2823 0.6027 0.1852   -0.610454
 O 0.2629 0.6041 0.309   -0.617885
 O 0.3729 0.5167 0.315   -0.567511
 O 0.7334 0.5957 0.7008   -0.615586
 O 0.6237 0.5085 0.6988   -0.562288
 O 0.2665 0.4017 0.1774   -0.585749
 O 0.1477 0.4788 0.1786   -0.579931
 O 0.8969 0.4766 0.8065   -0.569876
 O 0.7823 0.3973 0.8148   -0.610454
 F 0.0145 0.8781 0.0711   -0.22146
 F 0.1165 0.7955 0.05107   -0.206334
 F 0.0908 0.9016 0.9954   -0.194435
 F 0.9768 0.8807 0.90977   -0.21197
 F 0.9018 0.9057 0.9866   -0.195081
 F 0.8706 0.8024 0.9305   -0.202349
 F 0.421 0.1767 0.4508   -0.187361
 F 0.5281 0.0997 0.4332   -0.222497
 F 0.4505 0.0745 0.5093   -0.209581
 F 0.6405 0.082 0.5169   -0.205832
 F 0.5652 0.1028 0.59407   -0.229604
 F 0.6654 0.1875 0.57267   -0.180042
 F 0.5145 0.1219 0.9289   -0.22146
 F 0.6165 0.2045 0.94893   -0.206334
 F 0.5908 0.0984 0.0046   -0.194435
 F 0.4768 0.1193 0.09023   -0.21197
 F 0.4018 0.0943 0.0134   -0.195081
 F 0.3706 0.1976 0.0695   -0.202349
 F 0.921 0.8233 0.5492   -0.187361
 F 0.0281 0.9003 0.5668   -0.222497
 F 0.9505 0.9255 0.4907   -0.209581
 F 0.1405 0.918 0.4831   -0.205832
 F 0.0652 0.8972 0.40593   -0.229604
 F 0.1654 0.8125 0.42733   -0.180042
 F 0.0145 0.1219 0.5711   -0.22146
 F 0.1165 0.2045 0.55107   -0.206334
 F 0.0908 0.0984 0.4954   -0.194435
 F 0.9768 0.1193 0.40977   -0.21197
 F 0.9018 0.0943 0.4866   -0.19508
 F 0.8706 0.1976 0.4305   -0.202349
 F 0.421 0.8233 0.9508   -0.187361
 F 0.5281 0.9003 0.9332   -0.222497
 F 0.4505 0.9255 0.0093   -0.209581
 F 0.6405 0.918 0.0169   -0.205832
 F 0.5652 0.8972 0.09407   -0.229604
 F 0.6654 0.8125 0.07267   -0.180042
 F 0.5145 0.8781 0.4289   -0.22146
 F 0.6165 0.7955 0.44893   -0.206334
 F 0.5908 0.9016 0.5046   -0.194435
 F 0.4768 0.8807 0.59023   -0.21197
 F 0.4018 0.9057 0.5134   -0.19508
 F 0.3706 0.8024 0.5695   -0.202349
 F 0.921 0.1767 0.0492   -0.187361
 F 0.0281 0.0997 0.0668   -0.222497
 F 0.9505 0.0745 0.9907   -0.209581
 F 0.1405 0.082 0.9831   -0.205832
 F 0.0652 0.1028 0.90593   -0.229604
 F 0.1654 0.1875 0.92733   -0.180042
