{'_ref': 'TBD', '_srcid': 'CAKYAQ_clean', 'submitters': [{'name': 'Dalar Nazarian Jeff Camp and David Sholl', 'email': 'dalar@gatech.edu jcamp6@gatech.edu'}], '_method': 'VASP DFT with PBE;DDEC'}
data_NaZnH8C12O7
_symmetry_space_group_name_H-M   'P 1'
_cell_length_a   8.75860000
_cell_length_b   10.15599987
_cell_length_c   19.47600000
_cell_angle_alpha   90.00000000
_cell_angle_beta   90.00000000
_cell_angle_gamma   100.22000244
_symmetry_Int_Tables_number   1
_chemical_formula_structural   NaZnH8C12O7
_chemical_formula_sum   'Na4 Zn4 H32 C48 O28'
_cell_volume   1704.94848315
_cell_formula_units_Z   4
loop_
 _symmetry_equiv_pos_site_id
 _symmetry_equiv_pos_as_xyz
  1  'x, y, z'
loop_
 _atom_site_label
 _atom_site_fract_x
 _atom_site_fract_y
 _atom_site_fract_z
 _atom_site_charge
 Na 0.89124 0.60987 0.46968   0.943451
 Na 0.10876 0.89013 0.96968   0.943451
 Na 0.10876 0.39013 0.53032   0.94345
 Na 0.89124 0.10987 0.03032   0.94345
 Zn 0.6373 0.52495 0.60181   1.028204
 Zn 0.3627 0.97505 0.10181   1.028204
 Zn 0.3627 0.47505 0.39819   1.028204
 Zn 0.6373 0.02495 0.89819   1.028204
 H 0.75 0.371 0.532   0.489476
 H 0.633 0.402 0.492   0.469695
 H 0.9152 0.7569 0.744   0.111979
 H 0.0835 0.8628 0.8253   0.065677
 H 0.4393 0.742 0.729   0.112292
 H 0.2708 0.6358 0.6471   0.09325
 H 0.3762 0.8477 0.5786   0.091716
 H 0.7271 0.9654 0.4485   0.110308
 H 0.25 0.129 0.032   0.489476
 H 0.367 0.098 0.992   0.469695
 H 0.0848 0.7431 0.244   0.111979
 H 0.9165 0.6372 0.3253   0.065677
 H 0.5607 0.758 0.229   0.112292
 H 0.7292 0.8642 0.1471   0.09325
 H 0.6238 0.6523 0.0786   0.091716
 H 0.2729 0.5346 0.9485   0.110308
 H 0.25 0.629 0.468   0.489476
 H 0.367 0.598 0.508   0.469694
 H 0.0848 0.2431 0.256   0.111979
 H 0.9165 0.1372 0.1747   0.065677
 H 0.5607 0.258 0.271   0.112292
 H 0.7292 0.3642 0.3529   0.09325
 H 0.6238 0.1523 0.4214   0.091716
 H 0.2729 0.0346 0.5515   0.110308
 H 0.75 0.871 0.968   0.489476
 H 0.633 0.902 0.008   0.469694
 H 0.9152 0.2569 0.756   0.111979
 H 0.0835 0.3628 0.6747   0.065677
 H 0.4393 0.242 0.771   0.112292
 H 0.2708 0.1358 0.8529   0.09325
 H 0.3762 0.3477 0.9214   0.091716
 H 0.7271 0.4654 0.0515   0.110308
 C 0.9626 0.6113 0.63531   0.755397
 C 0.0749 0.6833 0.68741   -0.14583
 C 0.0203 0.753 0.74115   -0.039736
 C 0.1209 0.816 0.78982   -0.075045
 C 0.2784 0.8105 0.78663   -0.118649
 C 0.3338 0.7439 0.73232   -0.055547
 C 0.2329 0.6806 0.68321   -0.044566
 C 0.3832 0.8787 0.84201   0.697501
 C 0.6334 0.768 0.53496   0.715998
 C 0.562 0.8867 0.51664   -0.130404
 C 0.4265 0.9089 0.5468   -0.06984
 C 0.6356 0.979 0.4694   -0.050687
 C 0.0374 0.8887 0.13531   0.755397
 C 0.9251 0.8167 0.18741   -0.14583
 C 0.9797 0.747 0.24115   -0.039736
 C 0.8791 0.684 0.28982   -0.075045
 C 0.7216 0.6895 0.28663   -0.118649
 C 0.6662 0.7561 0.23232   -0.055546
 C 0.7671 0.8194 0.18321   -0.044566
 C 0.6168 0.6213 0.34201   0.697501
 C 0.3666 0.732 0.03496   0.715998
 C 0.438 0.6133 0.01664   -0.130405
 C 0.5735 0.5911 0.0468   -0.069841
 C 0.3644 0.521 0.9694   -0.050686
 C 0.0374 0.3887 0.36469   0.755397
 C 0.9251 0.3167 0.31259   -0.14583
 C 0.9797 0.247 0.25885   -0.039736
 C 0.8791 0.184 0.21018   -0.075045
 C 0.7216 0.1895 0.21337   -0.118648
 C 0.6662 0.2561 0.26768   -0.055545
 C 0.7671 0.3194 0.31679   -0.044566
 C 0.6168 0.1213 0.15799   0.697501
 C 0.3666 0.232 0.46504   0.715998
 C 0.438 0.1133 0.48336   -0.130405
 C 0.5735 0.0911 0.4532   -0.069839
 C 0.3644 0.021 0.5306   -0.050686
 C 0.9626 0.1113 0.86469   0.755397
 C 0.0749 0.1833 0.81259   -0.14583
 C 0.0203 0.253 0.75885   -0.039736
 C 0.1209 0.316 0.71018   -0.075045
 C 0.2784 0.3105 0.71337   -0.118648
 C 0.3338 0.2439 0.76768   -0.055545
 C 0.2329 0.1806 0.81679   -0.044567
 C 0.3832 0.3787 0.65799   0.697501
 C 0.6334 0.268 0.96504   0.715998
 C 0.562 0.3867 0.98336   -0.130405
 C 0.4265 0.4089 0.9532   -0.069839
 C 0.6356 0.479 0.0306   -0.050685
 O 0.0101 0.57 0.58115   -0.810277
 O 0.8212 0.5992 0.65318   -0.613381
 O 0.5276 0.9085 0.82753   -0.620128
 O 0.3291 0.9054 0.89728   -0.686502
 O 0.77 0.7674 0.52227   -0.670123
 O 0.5421 0.6701 0.5649   -0.652035
 O 0.6988 0.4247 0.52155   -0.902194
 O 0.9899 0.93 0.08115   -0.810277
 O 0.1788 0.9008 0.15318   -0.613381
 O 0.4724 0.5915 0.32753   -0.620128
 O 0.6709 0.5946 0.39728   -0.686502
 O 0.23 0.7326 0.02227   -0.670123
 O 0.4579 0.8299 0.0649   -0.652035
 O 0.3012 0.0753 0.02155   -0.902194
 O 0.9899 0.43 0.41885   -0.810277
 O 0.1788 0.4008 0.34682   -0.613381
 O 0.4724 0.0915 0.17247   -0.620128
 O 0.6709 0.0946 0.10272   -0.686502
 O 0.23 0.2326 0.47773   -0.670123
 O 0.4579 0.3299 0.4351   -0.652035
 O 0.3012 0.5753 0.47845   -0.902194
 O 0.0101 0.07 0.91885   -0.810277
 O 0.8212 0.0992 0.84682   -0.613381
 O 0.5276 0.4085 0.67247   -0.620128
 O 0.3291 0.4054 0.60272   -0.686502
 O 0.77 0.2674 0.97773   -0.670123
 O 0.5421 0.1701 0.9351   -0.652035
 O 0.6988 0.9247 0.97845   -0.902194
