{'_ref': 'TBD', '_srcid': 'CAKYAQ_clean', 'submitters': [{'name': 'Dalar Nazarian Jeff Camp and David Sholl', 'email': 'dalar@gatech.edu jcamp6@gatech.edu'}], '_method': 'VASP DFT with PBE;DDEC'}
data_ZnH15C11Br(NO)2
_symmetry_space_group_name_H-M   'P 1'
_cell_length_a   10.48680000
_cell_length_b   17.77859979
_cell_length_c   17.77860000
_cell_angle_alpha   120.00000039
_cell_angle_beta   90.00000000
_cell_angle_gamma   90.00000000
_symmetry_Int_Tables_number   1
_chemical_formula_structural   ZnH15C11Br(NO)2
_chemical_formula_sum   'Zn6 H90 C66 Br6 N12 O12'
_cell_volume   2870.57387451
_cell_formula_units_Z   6
loop_
 _symmetry_equiv_pos_site_id
 _symmetry_equiv_pos_as_xyz
  1  'x, y, z'
loop_
 _atom_site_label
 _atom_site_fract_x
 _atom_site_fract_y
 _atom_site_fract_z
 _atom_site_charge
 Zn 0.92276 0.92957 0.47219   0.73974
 Zn 0.25609 0.54262 0.07043   0.739763
 Zn 0.58943 0.52781 0.45738   0.739983
 Zn 0.42276 0.07043 0.52781   0.73974
 Zn 0.75609 0.45738 0.92957   0.739763
 Zn 0.08943 0.47219 0.54262   0.739983
 H 0.831 0.0796 0.5537   0.265756
 H 0.6363 0.302 0.7789   0.083037
 H 0.9573 0.3236 0.8966   0.072855
 H 0.0122 0.182 0.7946   0.137568
 H 0.6799 0.1636 0.6773   0.121299
 H 0.9627 0.048 0.6688   0.090119
 H 0.8175 0.0269 0.6486   0.109618
 H 0.0354 0.1533 0.6256   0.083424
 H 0.0623 0.1963 0.5217   0.061456
 H 0.8649 0.0804 0.4267   0.091242
 H 0.0077 0.0701 0.397   0.112619
 H 0.9254 0.1466 0.4031   0.11151
 H 0.8735 0.274 0.5471   0.113378
 H 0.9218 0.278 0.6325   0.111285
 H 0.8088 0.2162 0.5799   0.087448
 H 0.16433 0.4741 0.9204   0.26505
 H 0.96963 0.4769 0.698   0.083292
 H 0.29063 0.573 0.6764   0.07346
 H 0.34553 0.6126 0.818   0.137533
 H 0.01323 0.5137 0.8364   0.120921
 H 0.29603 0.6208 0.952   0.090218
 H 0.15083 0.6217 0.9731   0.109813
 H 0.36873 0.4723 0.8467   0.083709
 H 0.39563 0.3254 0.8037   0.061109
 H 0.19823 0.3463 0.9196   0.090446
 H 0.34103 0.3269 0.9299   0.112739
 H 0.25873 0.2565 0.8534   0.112007
 H 0.20683 0.2731 0.726   0.113594
 H 0.25513 0.3545 0.722   0.11109
 H 0.14213 0.3637 0.7838   0.087701
 H 0.49767 0.4463 0.5259   0.265704
 H 0.30297 0.2211 0.5231   0.08357
 H 0.62397 0.1034 0.427   0.07272
 H 0.67887 0.2054 0.3874   0.138551
 H 0.34657 0.3227 0.4863   0.120307
 H 0.62937 0.3312 0.3792   0.090429
 H 0.48417 0.3514 0.3783   0.109394
 H 0.70207 0.3744 0.5277   0.084572
 H 0.72897 0.4783 0.6746   0.061138
 H 0.53157 0.5733 0.6537   0.090863
 H 0.67437 0.603 0.6731   0.113232
 H 0.59207 0.5969 0.7435   0.112223
 H 0.54017 0.4529 0.7269   0.113597
 H 0.58847 0.3675 0.6455   0.111381
 H 0.47547 0.4201 0.6363   0.087818
 H 0.331 0.9204 0.4463   0.265756
 H 0.1363 0.698 0.2211   0.083037
 H 0.4573 0.6764 0.1034   0.072854
 H 0.5122 0.818 0.2054   0.137568
 H 0.1799 0.8364 0.3227   0.121299
 H 0.4627 0.952 0.3312   0.090119
 H 0.3175 0.9731 0.3514   0.109618
 H 0.5354 0.8467 0.3744   0.083424
 H 0.5623 0.8037 0.4783   0.061456
 H 0.3649 0.9196 0.5733   0.091242
 H 0.5077 0.9299 0.603   0.11262
 H 0.4254 0.8534 0.5969   0.11151
 H 0.3735 0.726 0.4529   0.113378
 H 0.4218 0.722 0.3675   0.111285
 H 0.3088 0.7838 0.4201   0.087448
 H 0.66433 0.5259 0.0796   0.26505
 H 0.46963 0.5231 0.302   0.083292
 H 0.79063 0.427 0.3236   0.07346
 H 0.84553 0.3874 0.182   0.137533
 H 0.51323 0.4863 0.1636   0.120921
 H 0.79603 0.3792 0.048   0.090218
 H 0.65083 0.3783 0.0269   0.109814
 H 0.86873 0.5277 0.1533   0.083709
 H 0.89563 0.6746 0.1963   0.061109
 H 0.69823 0.6537 0.0804   0.090446
 H 0.84103 0.6731 0.0701   0.11274
 H 0.75873 0.7435 0.1466   0.112007
 H 0.70683 0.7269 0.274   0.113594
 H 0.75513 0.6455 0.278   0.11109
 H 0.64213 0.6363 0.2162   0.087701
 H 0.99767 0.5537 0.4741   0.265704
 H 0.80297 0.7789 0.4769   0.08357
 H 0.12397 0.8966 0.573   0.07272
 H 0.17887 0.7946 0.6126   0.138551
 H 0.84657 0.6773 0.5137   0.120307
 H 0.12937 0.6688 0.6208   0.090429
 H 0.98417 0.6486 0.6217   0.109394
 H 0.20207 0.6256 0.4723   0.084572
 H 0.22897 0.5217 0.3254   0.061138
 H 0.03157 0.4267 0.3463   0.090863
 H 0.17437 0.397 0.3269   0.113233
 H 0.09207 0.4031 0.2565   0.112223
 H 0.04017 0.5471 0.2731   0.113597
 H 0.08847 0.6325 0.3545   0.111381
 H 0.97547 0.5799 0.3637   0.087818
 C 0.7138 0.2779 0.7815   0.177297
 C 0.902 0.2912 0.8507   0.173047
 C 0.9351 0.2054 0.7901   -0.226095
 C 0.8516 0.1567 0.7241   0.11888
 C 0.7388 0.1951 0.7211   -0.189424
 C 0.8849 0.0663 0.6531   -0.027967
 C 0.1288 0.0527 0.5218   0.64428
 C 0.0124 0.113 0.5649   -0.088833
 C 0.9823 0.1683 0.5227   0.089878
 C 0.9413 0.1111 0.4287   -0.354327
 C 0.8879 0.2408 0.5754   -0.35441
 C 0.04713 0.5036 0.7221   0.177487
 C 0.23533 0.5595 0.7088   0.172267
 C 0.26843 0.5847 0.7946   -0.226438
 C 0.18493 0.5674 0.8433   0.118854
 C 0.07213 0.526 0.8049   -0.188811
 C 0.21823 0.5868 0.9337   -0.028174
 C 0.46213 0.4691 0.9473   0.646763
 C 0.34573 0.4519 0.887   -0.089852
 C 0.31563 0.3544 0.8317   0.090416
 C 0.27463 0.3176 0.8889   -0.354282
 C 0.22123 0.3346 0.7592   -0.354698
 C 0.38047 0.2185 0.4964   0.177582
 C 0.56867 0.1493 0.4405   0.173421
 C 0.60177 0.2099 0.4153   -0.227351
 C 0.51827 0.2759 0.4326   0.118588
 C 0.40547 0.2789 0.474   -0.187996
 C 0.55157 0.3469 0.4132   -0.027779
 C 0.79547 0.4782 0.5309   0.645792
 C 0.67907 0.4351 0.5481   -0.091397
 C 0.64897 0.4773 0.6456   0.090693
 C 0.60797 0.5713 0.6824   -0.35561
 C 0.55457 0.4246 0.6654   -0.354932
 C 0.2138 0.7221 0.2185   0.177297
 C 0.402 0.7088 0.1493   0.173047
 C 0.4351 0.7946 0.2099   -0.226095
 C 0.3516 0.8433 0.2759   0.118881
 C 0.2388 0.8049 0.2789   -0.189424
 C 0.3849 0.9337 0.3469   -0.027968
 C 0.6288 0.9473 0.4782   0.64428
 C 0.5124 0.887 0.4351   -0.088833
 C 0.4823 0.8317 0.4773   0.089878
 C 0.4413 0.8889 0.5713   -0.354327
 C 0.3879 0.7592 0.4246   -0.35441
 C 0.54713 0.4964 0.2779   0.177487
 C 0.73533 0.4405 0.2912   0.172267
 C 0.76843 0.4153 0.2054   -0.226439
 C 0.68493 0.4326 0.1567   0.118854
 C 0.57213 0.474 0.1951   -0.188811
 C 0.71823 0.4132 0.0663   -0.028175
 C 0.96213 0.5309 0.0527   0.646763
 C 0.84573 0.5481 0.113   -0.089852
 C 0.81563 0.6456 0.1683   0.090416
 C 0.77463 0.6824 0.1111   -0.354282
 C 0.72123 0.6654 0.2408   -0.354698
 C 0.88047 0.7815 0.5036   0.177582
 C 0.06867 0.8507 0.5595   0.173421
 C 0.10177 0.7901 0.5847   -0.227351
 C 0.01827 0.7241 0.5674   0.118588
 C 0.90547 0.7211 0.526   -0.187996
 C 0.05157 0.6531 0.5868   -0.027779
 C 0.29547 0.5218 0.4691   0.645792
 C 0.17907 0.5649 0.4519   -0.091397
 C 0.14897 0.5227 0.3544   0.090693
 C 0.10797 0.4287 0.3176   -0.35561
 C 0.05457 0.5754 0.3346   -0.354932
 Br 0.91231 0.86874 0.32053   -0.519842
 Br 0.24564 0.45179 0.13126   -0.519901
 Br 0.57898 0.67947 0.54821   -0.519757
 Br 0.41231 0.13126 0.67947   -0.519842
 Br 0.74564 0.54821 0.86874   -0.519901
 Br 0.07898 0.32053 0.45179   -0.519757
 N 0.7962 0.3275 0.8453   -0.307091
 N 0.9031 0.0594 0.566   -0.369526
 N 0.12953 0.5178 0.6725   -0.307099
 N 0.23643 0.5066 0.9406   -0.368696
 N 0.46287 0.1547 0.4822   -0.308313
 N 0.56977 0.434 0.4934   -0.369053
 N 0.2962 0.6725 0.1547   -0.307091
 N 0.4031 0.9406 0.434   -0.369525
 N 0.62953 0.4822 0.3275   -0.307099
 N 0.73643 0.4934 0.0594   -0.368696
 N 0.96287 0.8453 0.5178   -0.308314
 N 0.06977 0.566 0.5066   -0.369053
 O 0.118 0.9737 0.4888   -0.562459
 O 0.228 0.0921 0.522   -0.595725
 O 0.45133 0.5151 0.0263   -0.563663
 O 0.56133 0.4299 0.9079   -0.596605
 O 0.78467 0.5112 0.4849   -0.562936
 O 0.89467 0.478 0.5701   -0.596487
 O 0.618 0.0263 0.5112   -0.562459
 O 0.728 0.9079 0.478   -0.595725
 O 0.95133 0.4849 0.9737   -0.563663
 O 0.06133 0.5701 0.0921   -0.596605
 O 0.28467 0.4888 0.5151   -0.562936
 O 0.39467 0.522 0.4299   -0.596487
