{'_ref': 'TBD', '_srcid': 'CAKYAQ_clean', 'submitters': [{'name': 'Dalar Nazarian Jeff Camp and David Sholl', 'email': 'dalar@gatech.edu jcamp6@gatech.edu'}], '_method': 'VASP DFT with PBE;DDEC'}
data_ZnH15C11N2ClO2
_symmetry_space_group_name_H-M   'P 1'
_cell_length_a   10.51040000
_cell_length_b   17.76610006
_cell_length_c   17.76610000
_cell_angle_alpha   119.99999988
_cell_angle_beta   90.00000000
_cell_angle_gamma   90.00000000
_symmetry_Int_Tables_number   1
_chemical_formula_structural   ZnH15C11N2ClO2
_chemical_formula_sum   'Zn6 H90 C66 N12 Cl6 O12'
_cell_volume   2872.98979188
_cell_formula_units_Z   6
loop_
 _symmetry_equiv_pos_site_id
 _symmetry_equiv_pos_as_xyz
  1  'x, y, z'
loop_
 _atom_site_label
 _atom_site_fract_x
 _atom_site_fract_y
 _atom_site_fract_z
 _atom_site_charge
 Zn 0.63162 0.45626 0.92679   0.769921
 Zn 0.29829 0.47053 0.54374   0.770405
 Zn 0.96495 0.07321 0.52947   0.769928
 Zn 0.13162 0.54374 0.07321   0.769921
 Zn 0.79829 0.52947 0.45626   0.770405
 Zn 0.46495 0.92679 0.47053   0.769928
 H 0.723 0.5253 0.0792   0.266433
 H 0.9193 0.5208 0.3023   0.087759
 H 0.5921 0.4332 0.3253   0.073405
 H 0.537 0.3949 0.1861   0.133042
 H 0.5166 0.5304 0.1518   0.083679
 H 0.4943 0.6752 0.1934   0.06412
 H 0.6913 0.6526 0.0785   0.093319
 H 0.632 0.7427 0.1449   0.112698
 H 0.5493 0.6729 0.0683   0.115306
 H 0.7311 0.3775 0.0238   0.109331
 H 0.5862 0.3809 0.0467   0.093052
 H 0.6402 0.6353 0.27   0.107241
 H 0.6703 0.7262 0.2798   0.117311
 H 0.751 0.6447 0.2163   0.089538
 H 0.8765 0.4814 0.1611   0.120763
 H 0.38967 0.5539 0.4747   0.26713
 H 0.58597 0.7815 0.4792   0.087856
 H 0.25877 0.8921 0.5668   0.073323
 H 0.20367 0.7912 0.6051   0.133029
 H 0.18327 0.6214 0.4696   0.082908
 H 0.16097 0.5182 0.3248   0.064446
 H 0.35797 0.4259 0.3474   0.093525
 H 0.29867 0.4022 0.2573   0.11277
 H 0.21597 0.3954 0.3271   0.114961
 H 0.39777 0.6463 0.6225   0.10809
 H 0.25287 0.6658 0.6191   0.092841
 H 0.30687 0.6347 0.3647   0.106678
 H 0.33697 0.5536 0.2738   0.118043
 H 0.41767 0.5716 0.3553   0.090025
 H 0.54317 0.6797 0.5186   0.120269
 H 0.05633 0.9208 0.4461   0.266913
 H 0.25263 0.6977 0.2185   0.088032
 H 0.92543 0.6747 0.1079   0.072981
 H 0.87033 0.8139 0.2088   0.133534
 H 0.84993 0.8482 0.3786   0.083088
 H 0.82763 0.8066 0.4818   0.064451
 H 0.02463 0.9215 0.5741   0.09319
 H 0.96533 0.8551 0.5978   0.112251
 H 0.88263 0.9317 0.6046   0.115394
 H 0.06443 0.9762 0.3537   0.108582
 H 0.91953 0.9533 0.3342   0.092886
 H 0.97353 0.73 0.3653   0.106862
 H 0.00363 0.7202 0.4464   0.116831
 H 0.08433 0.7837 0.4284   0.089599
 H 0.20983 0.8389 0.3203   0.120612
 H 0.223 0.4747 0.9208   0.266433
 H 0.4193 0.4792 0.6977   0.087759
 H 0.0921 0.5668 0.6747   0.073405
 H 0.037 0.6051 0.8139   0.133042
 H 0.0166 0.4696 0.8482   0.083679
 H 0.9943 0.3248 0.8066   0.06412
 H 0.1913 0.3474 0.9215   0.09332
 H 0.132 0.2573 0.8551   0.112698
 H 0.0493 0.3271 0.9317   0.115306
 H 0.2311 0.6225 0.9762   0.109331
 H 0.0862 0.6191 0.9533   0.093052
 H 0.1402 0.3647 0.73   0.107241
 H 0.1703 0.2738 0.7202   0.117311
 H 0.251 0.3553 0.7837   0.089538
 H 0.3765 0.5186 0.8389   0.120763
 H 0.88967 0.4461 0.5253   0.26713
 H 0.08597 0.2185 0.5208   0.087856
 H 0.75877 0.1079 0.4332   0.073323
 H 0.70367 0.2088 0.3949   0.133029
 H 0.68327 0.3786 0.5304   0.082908
 H 0.66097 0.4818 0.6752   0.064446
 H 0.85797 0.5741 0.6526   0.093525
 H 0.79867 0.5978 0.7427   0.11277
 H 0.71597 0.6046 0.6729   0.114962
 H 0.89777 0.3537 0.3775   0.10809
 H 0.75287 0.3342 0.3809   0.092841
 H 0.80687 0.3653 0.6353   0.106678
 H 0.83697 0.4464 0.7262   0.118043
 H 0.91767 0.4284 0.6447   0.090025
 H 0.04317 0.3203 0.4814   0.120269
 H 0.55633 0.0792 0.5539   0.266913
 H 0.75263 0.3023 0.7815   0.088032
 H 0.42543 0.3253 0.8921   0.072981
 H 0.37033 0.1861 0.7912   0.133534
 H 0.34993 0.1518 0.6214   0.083088
 H 0.32763 0.1934 0.5182   0.064451
 H 0.52463 0.0785 0.4259   0.09319
 H 0.46533 0.1449 0.4022   0.112251
 H 0.38263 0.0683 0.3954   0.115394
 H 0.56443 0.0238 0.6463   0.108583
 H 0.41953 0.0467 0.6658   0.092886
 H 0.47353 0.27 0.6347   0.106862
 H 0.50363 0.2798 0.5536   0.116831
 H 0.58433 0.2163 0.5716   0.089599
 H 0.70983 0.1611 0.6797   0.120612
 C 0.8417 0.4949 0.278   0.180277
 C 0.649 0.4439 0.2917   0.169971
 C 0.6159 0.4201 0.2078   -0.22286
 C 0.5409 0.5499 0.1111   -0.088828
 C 0.4249 0.5333 0.0516   0.648757
 C 0.5737 0.6453 0.1655   0.090404
 C 0.6153 0.6817 0.1092   -0.355496
 C 0.7 0.4335 0.1549   0.110777
 C 0.6652 0.4135 0.0641   -0.022913
 C 0.6677 0.6647 0.2399   -0.355892
 C 0.8158 0.4716 0.1933   -0.185607
 C 0.50837 0.7831 0.5051   0.179487
 C 0.31567 0.8478 0.5561   0.169366
 C 0.28257 0.7877 0.5799   -0.222743
 C 0.20757 0.5612 0.4501   -0.087144
 C 0.09157 0.5183 0.4667   0.648345
 C 0.24037 0.5202 0.3547   0.089865
 C 0.28197 0.4275 0.3183   -0.355141
 C 0.36667 0.7214 0.5665   0.110297
 C 0.33187 0.6506 0.5865   -0.020328
 C 0.33437 0.5752 0.3353   -0.356823
 C 0.48247 0.7217 0.5284   -0.183833
 C 0.17503 0.722 0.2169   0.179463
 C 0.98233 0.7083 0.1522   0.170678
 C 0.94923 0.7922 0.2123   -0.223929
 C 0.87423 0.8889 0.4388   -0.087607
 C 0.75823 0.9484 0.4817   0.648275
 C 0.90703 0.8345 0.4798   0.089156
 C 0.94863 0.8908 0.5725   -0.354522
 C 0.03333 0.8451 0.2786   0.110594
 C 0.99853 0.9359 0.3494   -0.021137
 C 0.00103 0.7601 0.4248   -0.354741
 C 0.14913 0.8067 0.2783   -0.184336
 C 0.3417 0.5051 0.722   0.180277
 C 0.149 0.5561 0.7083   0.169971
 C 0.1159 0.5799 0.7922   -0.222861
 C 0.0409 0.4501 0.8889   -0.088828
 C 0.9249 0.4667 0.9484   0.648757
 C 0.0737 0.3547 0.8345   0.090404
 C 0.1153 0.3183 0.8908   -0.355496
 C 0.2 0.5665 0.8451   0.110777
 C 0.1652 0.5865 0.9359   -0.022913
 C 0.1677 0.3353 0.7601   -0.355892
 C 0.3158 0.5284 0.8067   -0.185607
 C 0.00837 0.2169 0.4949   0.179487
 C 0.81567 0.1522 0.4439   0.169366
 C 0.78257 0.2123 0.4201   -0.222743
 C 0.70757 0.4388 0.5499   -0.087144
 C 0.59157 0.4817 0.5333   0.648345
 C 0.74037 0.4798 0.6453   0.089865
 C 0.78197 0.5725 0.6817   -0.355141
 C 0.86667 0.2786 0.4335   0.110298
 C 0.83187 0.3494 0.4135   -0.020329
 C 0.83437 0.4248 0.6647   -0.356823
 C 0.98247 0.2783 0.4716   -0.183833
 C 0.67503 0.278 0.7831   0.179463
 C 0.48233 0.2917 0.8478   0.170678
 C 0.44923 0.2078 0.7877   -0.223929
 C 0.37423 0.1111 0.5612   -0.087607
 C 0.25823 0.0516 0.5183   0.648275
 C 0.40703 0.1655 0.5202   0.089156
 C 0.44863 0.1092 0.4275   -0.354522
 C 0.53333 0.1549 0.7214   0.110594
 C 0.49853 0.0641 0.6506   -0.021137
 C 0.50103 0.2399 0.5752   -0.354741
 C 0.64913 0.1933 0.7217   -0.184336
 N 0.7581 0.4813 0.326   -0.313927
 N 0.6503 0.4936 0.0588   -0.379402
 N 0.42477 0.8447 0.5187   -0.313331
 N 0.31697 0.5652 0.5064   -0.381272
 N 0.09143 0.674 0.1553   -0.313838
 N 0.98363 0.9412 0.4348   -0.38086
 N 0.2581 0.5187 0.674   -0.313927
 N 0.1503 0.5064 0.9412   -0.379402
 N 0.92477 0.1553 0.4813   -0.313331
 N 0.81697 0.4348 0.4936   -0.381272
 N 0.59143 0.326 0.8447   -0.313838
 N 0.48363 0.0588 0.5652   -0.38086
 Cl 0.6398 0.53997 0.868   -0.541319
 Cl 0.30647 0.32803 0.46003   -0.541185
 Cl 0.97313 0.132 0.67197   -0.541264
 Cl 0.1398 0.46003 0.132   -0.541319
 Cl 0.80647 0.67197 0.53997   -0.541185
 Cl 0.47313 0.868 0.32803   -0.541264
 O 0.3274 0.5749 0.0901   -0.598657
 O 0.4349 0.4832 0.9723   -0.572521
 O 0.99407 0.5152 0.4251   -0.599311
 O 0.10157 0.4891 0.5168   -0.572232
 O 0.66073 0.9099 0.4848   -0.599214
 O 0.76823 0.0277 0.5109   -0.571851
 O 0.8274 0.4251 0.9099   -0.598657
 O 0.9349 0.5168 0.0277   -0.572521
 O 0.49407 0.4848 0.5749   -0.599311
 O 0.60157 0.5109 0.4832   -0.572232
 O 0.16073 0.0901 0.5152   -0.599214
 O 0.26823 0.9723 0.4891   -0.571851
