{'_ref': 'TBD', '_srcid': 'CAKYAQ_clean', 'submitters': [{'name': 'Dalar Nazarian Jeff Camp and David Sholl', 'email': 'dalar@gatech.edu jcamp6@gatech.edu'}], '_method': 'VASP DFT with PBE;DDEC'}
data_ZnH15C11Br(NO)2
_symmetry_space_group_name_H-M   'P 1'
_cell_length_a   10.50310000
_cell_length_b   17.85900027
_cell_length_c   17.85900000
_cell_angle_alpha   119.99999950
_cell_angle_beta   90.00000000
_cell_angle_gamma   90.00000000
_symmetry_Int_Tables_number   1
_chemical_formula_structural   ZnH15C11Br(NO)2
_chemical_formula_sum   'Zn6 H90 C66 Br6 N12 O12'
_cell_volume   2901.09810566
_cell_formula_units_Z   6
loop_
 _symmetry_equiv_pos_site_id
 _symmetry_equiv_pos_as_xyz
  1  'x, y, z'
loop_
 _atom_site_label
 _atom_site_fract_x
 _atom_site_fract_y
 _atom_site_fract_z
 _atom_site_charge
 Zn 0.55949 0.54385 0.07006   0.746052
 Zn 0.22616 0.52621 0.45615   0.746754
 Zn 0.89282 0.92994 0.47379   0.746653
 Zn 0.05949 0.45615 0.92994   0.746052
 Zn 0.72616 0.47379 0.54385   0.746754
 Zn 0.39282 0.07006 0.52621   0.746653
 H 0.6718 0.3635 0.7842   0.089098
 H 0.5574 0.3603 0.7263   0.109802
 H 0.6026 0.2756 0.7241   0.113117
 H 0.42 0.3244 0.8058   0.06062
 H 0.5513 0.2597 0.8559   0.114095
 H 0.4818 0.3362 0.9346   0.110147
 H 0.6237 0.3466 0.9141   0.092533
 H 0.4416 0.4715 0.8467   0.090565
 H 0.6633 0.6201 0.972   0.108053
 H 0.5182 0.6182 0.951   0.088907
 H 0.8022 0.5157 0.837   0.120055
 H 0.47 0.6127 0.8182   0.138557
 H 0.5224 0.5745 0.6785   0.077299
 H 0.8457 0.4747 0.6971   0.086772
 H 0.6518 0.4745 0.9202   0.265642
 H 0.33847 0.4207 0.6365   0.089022
 H 0.22407 0.366 0.6397   0.109556
 H 0.26927 0.4485 0.7244   0.112998
 H 0.08667 0.4814 0.6756   0.060893
 H 0.21797 0.5962 0.7403   0.113938
 H 0.14847 0.5984 0.6638   0.110387
 H 0.29037 0.5675 0.6534   0.092468
 H 0.10827 0.3752 0.5285   0.091223
 H 0.32997 0.3519 0.3799   0.108611
 H 0.18487 0.3328 0.3818   0.089747
 H 0.46887 0.3213 0.4843   0.119756
 H 0.13667 0.2055 0.3873   0.137812
 H 0.18907 0.104 0.4255   0.07791
 H 0.51237 0.2224 0.5253   0.086035
 H 0.31847 0.4457 0.5255   0.265336
 H 0.00513 0.2158 0.5793   0.08868
 H 0.89073 0.2737 0.634   0.109739
 H 0.93593 0.2759 0.5515   0.113135
 H 0.75333 0.1942 0.5186   0.060836
 H 0.88463 0.1441 0.4038   0.114085
 H 0.81513 0.0654 0.4016   0.110379
 H 0.95703 0.0859 0.4325   0.092291
 H 0.77493 0.1533 0.6248   0.090898
 H 0.99663 0.028 0.6481   0.10881
 H 0.85153 0.049 0.6672   0.088677
 H 0.13553 0.163 0.6787   0.119995
 H 0.80333 0.1818 0.7945   0.138671
 H 0.85573 0.3215 0.896   0.077932
 H 0.17903 0.3029 0.7776   0.086639
 H 0.98513 0.0798 0.5543   0.26573
 H 0.1718 0.6365 0.2158   0.089098
 H 0.0574 0.6397 0.2737   0.109802
 H 0.1026 0.7244 0.2759   0.113117
 H 0.92 0.6756 0.1942   0.06062
 H 0.0513 0.7403 0.1441   0.114095
 H 0.9818 0.6638 0.0654   0.110147
 H 0.1237 0.6534 0.0859   0.092533
 H 0.9416 0.5285 0.1533   0.090565
 H 0.1633 0.3799 0.028   0.108054
 H 0.0182 0.3818 0.049   0.088907
 H 0.3022 0.4843 0.163   0.120055
 H 0.97 0.3873 0.1818   0.138557
 H 0.0224 0.4255 0.3215   0.077298
 H 0.3457 0.5253 0.3029   0.086772
 H 0.1518 0.5255 0.0798   0.265642
 H 0.83847 0.5793 0.3635   0.089022
 H 0.72407 0.634 0.3603   0.109556
 H 0.76927 0.5515 0.2756   0.112998
 H 0.58667 0.5186 0.3244   0.060893
 H 0.71797 0.4038 0.2597   0.113938
 H 0.64847 0.4016 0.3362   0.110388
 H 0.79037 0.4325 0.3466   0.092468
 H 0.60827 0.6248 0.4715   0.091223
 H 0.82997 0.6481 0.6201   0.108611
 H 0.68487 0.6672 0.6182   0.089747
 H 0.96887 0.6787 0.5157   0.119756
 H 0.63667 0.7945 0.6127   0.137812
 H 0.68907 0.896 0.5745   0.07791
 H 0.01237 0.7776 0.4747   0.086035
 H 0.81847 0.5543 0.4745   0.265336
 H 0.50513 0.7842 0.4207   0.08868
 H 0.39073 0.7263 0.366   0.109739
 H 0.43593 0.7241 0.4485   0.113135
 H 0.25333 0.8058 0.4814   0.060836
 H 0.38463 0.8559 0.5962   0.114086
 H 0.31513 0.9346 0.5984   0.110379
 H 0.45703 0.9141 0.5675   0.092291
 H 0.27493 0.8467 0.3752   0.090898
 H 0.49663 0.972 0.3519   0.108811
 H 0.35153 0.951 0.3328   0.088676
 H 0.63553 0.837 0.3213   0.119995
 H 0.30333 0.8182 0.2055   0.138671
 H 0.35573 0.6785 0.104   0.077932
 H 0.67903 0.6971 0.2224   0.086639
 H 0.48513 0.9202 0.4457   0.26573
 C 0.5913 0.3369 0.7602   -0.358438
 C 0.4993 0.3547 0.8329   0.09523
 C 0.5428 0.3214 0.8893   -0.355661
 C 0.4665 0.4517 0.8868   -0.094835
 C 0.5963 0.5848 0.933   -0.026718
 C 0.6291 0.5652 0.8422   0.119278
 C 0.7426 0.5261 0.8048   -0.190053
 C 0.5463 0.5843 0.7943   -0.2213
 C 0.5781 0.5605 0.7101   0.163084
 C 0.769 0.5023 0.7212   0.181783
 C 0.3535 0.467 0.9474   0.649655
 C 0.25797 0.4233 0.6631   -0.357703
 C 0.16597 0.4782 0.6453   0.095216
 C 0.20947 0.5679 0.6786   -0.355976
 C 0.13317 0.4351 0.5483   -0.096928
 C 0.26297 0.3482 0.4152   -0.029494
 C 0.29577 0.277 0.4348   0.121327
 C 0.40927 0.2787 0.4739   -0.191088
 C 0.21297 0.21 0.4157   -0.221172
 C 0.24477 0.1496 0.4395   0.162296
 C 0.43567 0.2189 0.4977   0.183206
 C 0.02017 0.4804 0.533   0.651561
 C 0.92463 0.2398 0.5767   -0.357772
 C 0.83263 0.1671 0.5218   0.095634
 C 0.87613 0.1107 0.4321   -0.355639
 C 0.79983 0.1132 0.5649   -0.09619
 C 0.92963 0.067 0.6518   -0.027415
 C 0.96243 0.1578 0.723   0.119762
 C 0.07593 0.1952 0.7213   -0.190231
 C 0.87963 0.2057 0.79   -0.221573
 C 0.91143 0.2899 0.8504   0.162344
 C 0.10233 0.2788 0.7811   0.181592
 C 0.68683 0.0526 0.5196   0.650892
 C 0.0913 0.6631 0.2398   -0.358438
 C 0.9993 0.6453 0.1671   0.09523
 C 0.0428 0.6786 0.1107   -0.355662
 C 0.9665 0.5483 0.1132   -0.094835
 C 0.0963 0.4152 0.067   -0.026718
 C 0.1291 0.4348 0.1578   0.119278
 C 0.2426 0.4739 0.1952   -0.190053
 C 0.0463 0.4157 0.2057   -0.2213
 C 0.0781 0.4395 0.2899   0.163084
 C 0.269 0.4977 0.2788   0.181783
 C 0.8535 0.533 0.0526   0.649655
 C 0.75797 0.5767 0.3369   -0.357703
 C 0.66597 0.5218 0.3547   0.095216
 C 0.70947 0.4321 0.3214   -0.355976
 C 0.63317 0.5649 0.4517   -0.096928
 C 0.76297 0.6518 0.5848   -0.029495
 C 0.79577 0.723 0.5652   0.121327
 C 0.90927 0.7213 0.5261   -0.191088
 C 0.71297 0.79 0.5843   -0.221172
 C 0.74477 0.8504 0.5605   0.162296
 C 0.93567 0.7811 0.5023   0.183206
 C 0.52017 0.5196 0.467   0.651561
 C 0.42463 0.7602 0.4233   -0.357772
 C 0.33263 0.8329 0.4782   0.095634
 C 0.37613 0.8893 0.5679   -0.35564
 C 0.29983 0.8868 0.4351   -0.09619
 C 0.42963 0.933 0.3482   -0.027416
 C 0.46243 0.8422 0.277   0.119762
 C 0.57593 0.8048 0.2787   -0.190231
 C 0.37963 0.7943 0.21   -0.221573
 C 0.41143 0.7101 0.1496   0.162344
 C 0.60233 0.7212 0.2189   0.181592
 C 0.18683 0.9474 0.4804   0.650892
 Br 0.56999 0.45363 0.13105   -0.521276
 Br 0.23666 0.67742 0.54637   -0.521318
 Br 0.90332 0.86895 0.32258   -0.521166
 Br 0.06999 0.54637 0.86895   -0.521276
 Br 0.73666 0.32258 0.45363   -0.521318
 Br 0.40332 0.13105 0.67742   -0.521166
 N 0.5799 0.5071 0.9405   -0.370655
 N 0.6869 0.5177 0.6719   -0.315367
 N 0.24657 0.4334 0.4929   -0.369067
 N 0.35357 0.1542 0.4823   -0.315651
 N 0.91323 0.0595 0.5666   -0.371121
 N 0.02023 0.3281 0.8458   -0.314683
 N 0.0799 0.4929 0.0595   -0.370655
 N 0.1869 0.4823 0.3281   -0.315367
 N 0.74657 0.5666 0.5071   -0.369067
 N 0.85357 0.8458 0.5177   -0.315651
 N 0.41323 0.9405 0.4334   -0.371121
 N 0.52023 0.6719 0.1542   -0.314683
 O 0.2549 0.4275 0.9101   -0.591797
 O 0.364 0.517 0.0262   -0.574319
 O 0.92157 0.4826 0.5725   -0.593269
 O 0.03067 0.5092 0.483   -0.574565
 O 0.58823 0.0899 0.5174   -0.592218
 O 0.69733 0.9738 0.4908   -0.57511
 O 0.7549 0.5725 0.0899   -0.591797
 O 0.864 0.483 0.9738   -0.574319
 O 0.42157 0.5174 0.4275   -0.593269
 O 0.53067 0.4908 0.517   -0.574565
 O 0.08823 0.9101 0.4826   -0.592218
 O 0.19733 0.0262 0.5092   -0.57511
