{'_ref': 'TBD', '_srcid': 'CAKYAQ_clean', 'submitters': [{'name': 'Dalar Nazarian Jeff Camp and David Sholl', 'email': 'dalar@gatech.edu jcamp6@gatech.edu'}], '_method': 'VASP DFT with PBE;DDEC'}
data_Zn7(PO4)6
_symmetry_space_group_name_H-M   'P 1'
_cell_length_a   9.36300032
_cell_length_b   9.36299987
_cell_length_c   9.36300000
_cell_angle_alpha   93.22470149
_cell_angle_beta   93.22470134
_cell_angle_gamma   93.22469885
_symmetry_Int_Tables_number   1
_chemical_formula_structural   Zn7(PO4)6
_chemical_formula_sum   'Zn7 P6 O24'
_cell_volume   816.762577258
_cell_formula_units_Z   1
loop_
 _symmetry_equiv_pos_site_id
 _symmetry_equiv_pos_as_xyz
  1  'x, y, z'
loop_
 _atom_site_label
 _atom_site_fract_x
 _atom_site_fract_y
 _atom_site_fract_z
 _atom_site_charge
 Zn 0.93813 0.66658 0.12556   1.214842
 Zn 0.12556 0.93813 0.66658   1.214844
 Zn 0.66658 0.12556 0.93813   1.214845
 Zn 0.06187 0.33342 0.87444   1.214847
 Zn 0.87444 0.06187 0.33342   1.214848
 Zn 0.33342 0.87444 0.06187   1.214849
 Zn 0.0 0.0 0.0   1.36452
 P 0.12027 0.6869 0.87339   1.742536
 P 0.87339 0.12027 0.6869   1.74254
 P 0.6869 0.87339 0.12027   1.742543
 P 0.87973 0.3131 0.12661   1.742543
 P 0.12661 0.87973 0.3131   1.742547
 P 0.3131 0.12661 0.87973   1.74255
 O 0.1457 0.9407 0.4666   -0.781805
 O 0.7458 0.7247 0.1203   -0.71512
 O 0.0524 0.7305 0.3014   -0.727484
 O 0.0208 0.774 0.9682   -0.960399
 O 0.4666 0.1457 0.9407   -0.781805
 O 0.1203 0.7458 0.7247   -0.715121
 O 0.3014 0.0524 0.7305   -0.727484
 O 0.9682 0.0208 0.774   -0.9604
 O 0.9407 0.4666 0.1457   -0.781805
 O 0.7247 0.1203 0.7458   -0.715121
 O 0.7305 0.3014 0.0524   -0.727485
 O 0.774 0.9682 0.0208   -0.960401
 O 0.8543 0.0593 0.5334   -0.781805
 O 0.2542 0.2753 0.8797   -0.715118
 O 0.9476 0.2695 0.6986   -0.727483
 O 0.9792 0.226 0.0318   -0.960401
 O 0.5334 0.8543 0.0593   -0.781805
 O 0.8797 0.2542 0.2753   -0.715119
 O 0.6986 0.9476 0.2695   -0.727483
 O 0.0318 0.9792 0.226   -0.960401
 O 0.0593 0.5334 0.8543   -0.781804
 O 0.2753 0.8797 0.2542   -0.71512
 O 0.2695 0.6986 0.9476   -0.727484
 O 0.226 0.0318 0.9792   -0.960402
