{'_ref': 'TBD', '_srcid': 'CAKYAQ_clean', 'submitters': [{'name': 'Dalar Nazarian Jeff Camp and David Sholl', 'email': 'dalar@gatech.edu jcamp6@gatech.edu'}], '_method': 'VASP DFT with PBE;DDEC'}
data_ZnPO4
_symmetry_space_group_name_H-M   'P 1'
_cell_length_a   9.90150000
_cell_length_b   9.90150000
_cell_length_c   13.41990000
_cell_angle_alpha   90.00000000
_cell_angle_beta   90.00000000
_cell_angle_gamma   90.00000000
_symmetry_Int_Tables_number   1
_chemical_formula_structural   ZnPO4
_chemical_formula_sum   'Zn10 P10 O40'
_cell_volume   1315.68300022
_cell_formula_units_Z   10
loop_
 _symmetry_equiv_pos_site_id
 _symmetry_equiv_pos_as_xyz
  1  'x, y, z'
loop_
 _atom_site_label
 _atom_site_fract_x
 _atom_site_fract_y
 _atom_site_fract_z
 _atom_site_charge
 Zn 0.85315 0.10025 0.69678   1.177136
 Zn 0.14685 0.89975 0.69678   1.177135
 Zn 0.10025 0.14685 0.30322   1.177135
 Zn 0.89975 0.85315 0.30322   1.177135
 Zn 0.64685 0.60025 0.80322   1.177135
 Zn 0.35315 0.39975 0.80322   1.177135
 Zn 0.39975 0.64685 0.19678   1.177135
 Zn 0.60025 0.35315 0.19678   1.177134
 Zn 0.0 0.0 0.0   1.203827
 Zn 0.5 0.5 0.5   1.203827
 P 0.8839 0.8271 0.816   1.684868
 P 0.1161 0.1729 0.816   1.684867
 P 0.8271 0.1161 0.184   1.684866
 P 0.1729 0.8839 0.184   1.684866
 P 0.6161 0.3271 0.684   1.684867
 P 0.3839 0.6729 0.684   1.684867
 P 0.6729 0.6161 0.316   1.684866
 P 0.3271 0.3839 0.316   1.684866
 P 0.0 0.0 0.5   1.706058
 P 0.5 0.5 0.0   1.706058
 O 0.8768 0.889 0.9218   -0.70427
 O 0.8133 0.9156 0.7407   -0.744442
 O 0.0323 0.8068 0.7899   -0.741847
 O 0.8185 0.69 0.816   -0.677385
 O 0.9277 0.1044 0.5617   -0.721531
 O 0.1232 0.111 0.9218   -0.70427
 O 0.1867 0.0844 0.7407   -0.744442
 O 0.9677 0.1932 0.7899   -0.741847
 O 0.1815 0.31 0.816   -0.677385
 O 0.0723 0.8956 0.5617   -0.721531
 O 0.889 0.1232 0.0782   -0.70427
 O 0.9156 0.1867 0.2593   -0.744442
 O 0.8068 0.9677 0.2101   -0.741847
 O 0.69 0.1815 0.184   -0.677385
 O 0.1044 0.0723 0.4383   -0.721531
 O 0.111 0.8768 0.0782   -0.70427
 O 0.0844 0.8133 0.2593   -0.744442
 O 0.1932 0.0323 0.2101   -0.741846
 O 0.31 0.8185 0.184   -0.677385
 O 0.8956 0.9277 0.4383   -0.721531
 O 0.6232 0.389 0.5782   -0.704269
 O 0.6867 0.4156 0.7593   -0.744442
 O 0.4677 0.3068 0.7101   -0.741846
 O 0.6815 0.19 0.684   -0.677385
 O 0.5723 0.6044 0.9383   -0.721531
 O 0.3768 0.611 0.5782   -0.704269
 O 0.3133 0.5844 0.7593   -0.744441
 O 0.5323 0.6932 0.7101   -0.741846
 O 0.3185 0.81 0.684   -0.677385
 O 0.4277 0.3956 0.9383   -0.721531
 O 0.611 0.6232 0.4218   -0.704269
 O 0.5844 0.6867 0.2407   -0.744441
 O 0.6932 0.4677 0.2899   -0.741846
 O 0.81 0.6815 0.316   -0.677385
 O 0.3956 0.5723 0.0617   -0.72153
 O 0.389 0.3768 0.4218   -0.704269
 O 0.4156 0.3133 0.2407   -0.744441
 O 0.3068 0.5323 0.2899   -0.741846
 O 0.19 0.3185 0.316   -0.677385
 O 0.6044 0.4277 0.0617   -0.72153
