{'_ref': 'TBD', '_srcid': 'CAKYAQ_clean', 'submitters': [{'name': 'Dalar Nazarian Jeff Camp and David Sholl', 'email': 'dalar@gatech.edu jcamp6@gatech.edu'}], '_method': 'VASP DFT with PBE;DDEC'}
data_CuH12C18(NO)3
_symmetry_space_group_name_H-M   'P 1'
_cell_length_a   15.27929994
_cell_length_b   19.30660000
_cell_length_c   20.77180000
_cell_angle_alpha   90.00000000
_cell_angle_beta   99.01000006
_cell_angle_gamma   90.00000000
_symmetry_Int_Tables_number   1
_chemical_formula_structural   CuH12C18(NO)3
_chemical_formula_sum   'Cu8 H96 C144 N24 O24'
_cell_volume   6051.8938575
_cell_formula_units_Z   8
loop_
 _symmetry_equiv_pos_site_id
 _symmetry_equiv_pos_as_xyz
  1  'x, y, z'
loop_
 _atom_site_label
 _atom_site_fract_x
 _atom_site_fract_y
 _atom_site_fract_z
 _atom_site_charge
 Cu 0.67891 0.53711 0.76301   0.822131
 Cu 0.54312 0.45931 0.83146   0.94526
 Cu 0.67891 0.96289 0.26301   0.822131
 Cu 0.54312 0.04069 0.33146   0.94526
 Cu 0.32109 0.03711 0.73699   0.822131
 Cu 0.45688 0.95931 0.66854   0.94526
 Cu 0.32109 0.46289 0.23699   0.822131
 Cu 0.45688 0.54069 0.16854   0.94526
 H 0.6347 0.9417 0.1151   0.082973
 H 0.6453 0.8618 0.036   0.120473
 H 0.6932 0.718 0.1752   0.128191
 H 0.7013 0.7997 0.2486   0.077811
 H 0.6541 0.7935 0.9669   0.112066
 H 0.657 0.7143 0.8849   0.097504
 H 0.6462 0.5635 0.0081   0.089978
 H 0.6752 0.6396 0.1004   0.114539
 H 0.8413 0.6156 0.8042   0.077533
 H 0.9965 0.6061 0.8203   0.142843
 H 0.9617 0.4087 0.7662   0.129577
 H 0.8115 0.4236 0.7568   0.084399
 H 0.1209 0.5767 0.8675   0.099584
 H 0.2702 0.566 0.8857   0.103247
 H 0.2538 0.4034 0.764   0.106036
 H 0.097 0.4142 0.7463   0.106833
 H 0.5559 0.046 0.4729   0.084493
 H 0.5738 0.1228 0.5566   0.133866
 H 0.5674 0.2756 0.4265   0.125537
 H 0.5586 0.1943 0.3458   0.094201
 H 0.5339 0.2044 0.6212   0.095371
 H 0.5576 0.281 0.7055   0.102883
 H 0.6679 0.4117 0.5946   0.099751
 H 0.6462 0.3327 0.5094   0.105524
 H 0.6347 0.5583 0.6151   0.082973
 H 0.6453 0.6382 0.536   0.120473
 H 0.6932 0.782 0.6752   0.128191
 H 0.7013 0.7003 0.7486   0.077811
 H 0.6541 0.7065 0.4669   0.112066
 H 0.657 0.7857 0.3849   0.097505
 H 0.6462 0.9365 0.5081   0.089978
 H 0.6752 0.8604 0.6004   0.114539
 H 0.8413 0.8844 0.3042   0.077533
 H 0.9965 0.8939 0.3203   0.142843
 H 0.9617 0.0913 0.2662   0.129577
 H 0.8115 0.0764 0.2568   0.084399
 H 0.1209 0.9233 0.3675   0.099584
 H 0.2702 0.934 0.3857   0.103247
 H 0.2538 0.0966 0.264   0.106036
 H 0.097 0.0858 0.2463   0.106833
 H 0.5559 0.454 0.9729   0.084493
 H 0.5738 0.3772 0.0566   0.133866
 H 0.5674 0.2244 0.9265   0.125537
 H 0.5586 0.3057 0.8458   0.094201
 H 0.5339 0.2956 0.1212   0.095371
 H 0.5576 0.219 0.2055   0.102883
 H 0.6679 0.0883 0.0946   0.099751
 H 0.6462 0.1673 0.0094   0.105524
 H 0.3653 0.4417 0.3849   0.082973
 H 0.3547 0.3618 0.464   0.120473
 H 0.3068 0.218 0.3248   0.128191
 H 0.2987 0.2997 0.2514   0.077811
 H 0.3459 0.2935 0.5331   0.112066
 H 0.343 0.2143 0.6151   0.097505
 H 0.3538 0.0635 0.4919   0.089978
 H 0.3248 0.1396 0.3996   0.114539
 H 0.1587 0.1156 0.6958   0.077533
 H 0.0035 0.1061 0.6797   0.142842
 H 0.0383 0.9087 0.7338   0.129577
 H 0.1885 0.9236 0.7432   0.084399
 H 0.8791 0.0767 0.6325   0.099584
 H 0.7298 0.066 0.6143   0.103247
 H 0.7462 0.9034 0.736   0.106037
 H 0.903 0.9142 0.7537   0.106833
 H 0.4441 0.546 0.0271   0.084493
 H 0.4262 0.6228 0.9434   0.133866
 H 0.4326 0.7756 0.0735   0.125537
 H 0.4414 0.6943 0.1542   0.094201
 H 0.4661 0.7044 0.8788   0.095371
 H 0.4424 0.781 0.7945   0.102883
 H 0.3321 0.9117 0.9054   0.099751
 H 0.3538 0.8327 0.9906   0.105524
 H 0.3653 0.0583 0.8849   0.082973
 H 0.3547 0.1382 0.964   0.120473
 H 0.3068 0.282 0.8248   0.128191
 H 0.2987 0.2003 0.7514   0.077811
 H 0.3459 0.2065 0.0331   0.112066
 H 0.343 0.2857 0.1151   0.097505
 H 0.3538 0.4365 0.9919   0.089978
 H 0.3248 0.3604 0.8996   0.114539
 H 0.1587 0.3844 0.1958   0.077533
 H 0.0035 0.3939 0.1797   0.142842
 H 0.0383 0.5913 0.2338   0.129577
 H 0.1885 0.5764 0.2432   0.084399
 H 0.8791 0.4233 0.1325   0.099584
 H 0.7298 0.434 0.1143   0.103247
 H 0.7462 0.5966 0.236   0.106037
 H 0.903 0.5858 0.2537   0.106833
 H 0.4441 0.954 0.5271   0.084493
 H 0.4262 0.8772 0.4434   0.133866
 H 0.4326 0.7244 0.5735   0.125537
 H 0.4414 0.8057 0.6542   0.094201
 H 0.4661 0.7956 0.3788   0.095371
 H 0.4424 0.719 0.2945   0.102883
 H 0.3321 0.5883 0.4054   0.099751
 H 0.3538 0.6673 0.4906   0.105524
 C 0.6511 0.8965 0.1269   0.197426
 C 0.6531 0.8475 0.0793   -0.206754
 C 0.665 0.7841 0.0914   0.094463
 C 0.6842 0.764 0.1627   -0.201956
 C 0.6876 0.812 0.2049   0.163253
 C 0.666 0.7236 0.0371   0.020044
 C 0.6597 0.7465 0.9761   -0.137831
 C 0.6617 0.6999 0.928   -0.034834
 C 0.6716 0.6254 0.9449   -0.13375
 C 0.6609 0.6094 0.0014   0.006109
 C 0.669 0.6544 0.0572   -0.139912
 C 0.8662 0.573 0.7969   0.16402
 C 0.9605 0.5682 0.8074   -0.222797
 C 0.9957 0.5026 0.7972   0.124635
 C 0.9395 0.4516 0.7761   -0.211237
 C 0.8484 0.4613 0.7686   0.178229
 C 0.0946 0.4957 0.8051   0.010056
 C 0.1476 0.5416 0.8467   -0.116939
 C 0.2364 0.5357 0.8572   -0.036009
 C 0.277 0.4859 0.8265   -0.113026
 C 0.2263 0.4383 0.7844   -0.066236
 C 0.1321 0.4446 0.774   -0.132732
 C 0.3844 0.4846 0.8422   0.645346
 C 0.6681 0.57784 0.88759   0.674737
 C 0.5602 0.09283 0.46362   0.180929
 C 0.57 0.13874 0.51404   -0.191971
 C 0.5741 0.20986 0.50196   0.116548
 C 0.5674 0.22887 0.4374   -0.218765
 C 0.5605 0.17983 0.3887   0.169888
 C 0.588 0.25974 0.55511   0.029201
 C 0.5617 0.24624 0.61529   -0.109955
 C 0.5753 0.29254 0.66599   -0.023988
 C 0.6133 0.35339 0.65974   -0.121211
 C 0.6408 0.36941 0.60004   -0.068869
 C 0.6275 0.32167 0.54865   -0.138741
 C 0.6287 0.40638 0.71355   0.664724
 C 0.6511 0.6035 0.6269   0.197426
 C 0.6531 0.6525 0.5793   -0.206754
 C 0.665 0.7159 0.5914   0.094463
 C 0.6842 0.736 0.6627   -0.201956
 C 0.6876 0.688 0.7049   0.163253
 C 0.666 0.7764 0.5371   0.020044
 C 0.6597 0.7535 0.4761   -0.137831
 C 0.6617 0.8001 0.428   -0.034834
 C 0.6716 0.8746 0.4449   -0.13375
 C 0.6609 0.8906 0.5014   0.006109
 C 0.669 0.8456 0.5572   -0.139912
 C 0.8662 0.927 0.2969   0.164021
 C 0.9605 0.9318 0.3074   -0.222798
 C 0.9957 0.9974 0.2972   0.124635
 C 0.9395 0.0484 0.2761   -0.211237
 C 0.8484 0.0387 0.2686   0.178229
 C 0.0946 0.0043 0.3051   0.010056
 C 0.1476 0.9584 0.3467   -0.116939
 C 0.2364 0.9643 0.3572   -0.036009
 C 0.277 0.0141 0.3265   -0.113026
 C 0.2263 0.0617 0.2844   -0.066236
 C 0.1321 0.0554 0.274   -0.132732
 C 0.3844 0.0154 0.3422   0.645346
 C 0.6681 0.92216 0.38759   0.674737
 C 0.5602 0.40717 0.96362   0.180929
 C 0.57 0.36126 0.01404   -0.191971
 C 0.5741 0.29014 0.00196   0.116548
 C 0.5674 0.27113 0.9374   -0.218765
 C 0.5605 0.32017 0.8887   0.169888
 C 0.588 0.24026 0.05511   0.029201
 C 0.5617 0.25376 0.11529   -0.109955
 C 0.5753 0.20746 0.16599   -0.023989
 C 0.6133 0.14661 0.15974   -0.121211
 C 0.6408 0.13059 0.10004   -0.068869
 C 0.6275 0.17833 0.04865   -0.138741
 C 0.6287 0.09362 0.21355   0.664724
 C 0.3489 0.3965 0.3731   0.197426
 C 0.3469 0.3475 0.4207   -0.206754
 C 0.335 0.2841 0.4086   0.094463
 C 0.3158 0.264 0.3373   -0.201956
 C 0.3124 0.312 0.2951   0.163253
 C 0.334 0.2236 0.4629   0.020044
 C 0.3403 0.2465 0.5239   -0.13783
 C 0.3383 0.1999 0.572   -0.034834
 C 0.3284 0.1254 0.5551   -0.13375
 C 0.3391 0.1094 0.4986   0.006109
 C 0.331 0.1544 0.4428   -0.139912
 C 0.1338 0.073 0.7031   0.16402
 C 0.0395 0.0682 0.6926   -0.222797
 C 0.0043 0.0026 0.7028   0.124635
 C 0.0605 0.9516 0.7239   -0.211237
 C 0.1516 0.9613 0.7314   0.178228
 C 0.9054 0.9957 0.6949   0.010056
 C 0.8524 0.0416 0.6533   -0.116939
 C 0.7636 0.0357 0.6428   -0.036009
 C 0.723 0.9859 0.6735   -0.113026
 C 0.7737 0.9383 0.7156   -0.066236
 C 0.8679 0.9446 0.726   -0.132732
 C 0.6156 0.9846 0.6578   0.645346
 C 0.3319 0.07784 0.61241   0.674737
 C 0.4398 0.59283 0.03638   0.180929
 C 0.43 0.63874 0.98596   -0.191971
 C 0.4259 0.70986 0.99804   0.116548
 C 0.4326 0.72887 0.0626   -0.218765
 C 0.4395 0.67983 0.1113   0.169888
 C 0.412 0.75974 0.94489   0.029201
 C 0.4383 0.74624 0.88471   -0.109954
 C 0.4247 0.79254 0.83401   -0.023989
 C 0.3867 0.85339 0.84026   -0.121211
 C 0.3592 0.86941 0.89996   -0.068869
 C 0.3725 0.82167 0.95135   -0.138741
 C 0.3713 0.90638 0.78645   0.664724
 C 0.3489 0.1035 0.8731   0.197426
 C 0.3469 0.1525 0.9207   -0.206754
 C 0.335 0.2159 0.9086   0.094463
 C 0.3158 0.236 0.8373   -0.201956
 C 0.3124 0.188 0.7951   0.163253
 C 0.334 0.2764 0.9629   0.020044
 C 0.3403 0.2535 0.0239   -0.13783
 C 0.3383 0.3001 0.072   -0.034834
 C 0.3284 0.3746 0.0551   -0.13375
 C 0.3391 0.3906 0.9986   0.006109
 C 0.331 0.3456 0.9428   -0.139912
 C 0.1338 0.427 0.2031   0.164021
 C 0.0395 0.4318 0.1926   -0.222797
 C 0.0043 0.4974 0.2028   0.124635
 C 0.0605 0.5484 0.2239   -0.211237
 C 0.1516 0.5387 0.2314   0.178229
 C 0.9054 0.5043 0.1949   0.010056
 C 0.8524 0.4584 0.1533   -0.116939
 C 0.7636 0.4643 0.1428   -0.036009
 C 0.723 0.5141 0.1735   -0.113026
 C 0.7737 0.5617 0.2156   -0.066236
 C 0.8679 0.5554 0.226   -0.132733
 C 0.6156 0.5154 0.1578   0.645346
 C 0.3319 0.42216 0.11241   0.674737
 C 0.4398 0.90717 0.53638   0.180929
 C 0.43 0.86126 0.48596   -0.191971
 C 0.4259 0.79014 0.49804   0.116548
 C 0.4326 0.77113 0.5626   -0.218765
 C 0.4395 0.82017 0.6113   0.169888
 C 0.412 0.74026 0.44489   0.029201
 C 0.4383 0.75376 0.38471   -0.109954
 C 0.4247 0.70746 0.33401   -0.023989
 C 0.3867 0.64661 0.34026   -0.121211
 C 0.3592 0.63059 0.39996   -0.06887
 C 0.3725 0.67833 0.45135   -0.138741
 C 0.3713 0.59362 0.28645   0.664724
 N 0.67259 0.87978 0.1908   -0.383702
 N 0.81211 0.52182 0.77763   -0.323138
 N 0.54625 0.53099 0.76553   -0.696283
 N 0.5023 0.58135 0.76231   0.607134
 N 0.4614 0.63 0.7595   -0.40076
 N 0.55658 0.11194 0.40122   -0.33532
 N 0.67259 0.62022 0.6908   -0.383702
 N 0.81211 0.97818 0.27763   -0.323138
 N 0.54625 0.96901 0.26553   -0.696283
 N 0.5023 0.91865 0.26231   0.607134
 N 0.4614 0.87 0.2595   -0.40076
 N 0.55658 0.38806 0.90122   -0.33532
 N 0.32741 0.37978 0.3092   -0.383702
 N 0.18789 0.02182 0.72237   -0.323138
 N 0.45375 0.03099 0.73447   -0.696283
 N 0.4977 0.08135 0.73769   0.607134
 N 0.5386 0.13 0.7405   -0.40076
 N 0.44342 0.61194 0.09878   -0.33532
 N 0.32741 0.12022 0.8092   -0.383702
 N 0.18789 0.47818 0.22237   -0.323138
 N 0.45375 0.46901 0.23447   -0.696283
 N 0.4977 0.41865 0.23769   0.607134
 N 0.5386 0.37 0.2405   -0.40076
 N 0.44342 0.88806 0.59878   -0.33532
 O 0.4228 0.5212 0.8834   -0.587058
 O 0.4154 0.4447 0.8086   -0.568743
 O 0.68889 0.60231 0.83528   -0.575039
 O 0.6444 0.5167 0.89505   -0.627272
 O 0.60503 0.39076 0.76732   -0.630552
 O 0.66492 0.46259 0.70111   -0.573964
 O 0.4228 0.9788 0.3834   -0.587058
 O 0.4154 0.0553 0.3086   -0.568743
 O 0.68889 0.89769 0.33528   -0.575039
 O 0.6444 0.9833 0.39505   -0.627272
 O 0.60503 0.10924 0.26732   -0.630552
 O 0.66492 0.03741 0.20111   -0.573964
 O 0.5772 0.0212 0.6166   -0.587058
 O 0.5846 0.9447 0.6914   -0.568743
 O 0.31111 0.10231 0.66472   -0.575039
 O 0.3556 0.0167 0.60495   -0.627272
 O 0.39497 0.89076 0.73268   -0.630552
 O 0.33508 0.96259 0.79889   -0.573964
 O 0.5772 0.4788 0.1166   -0.587058
 O 0.5846 0.5553 0.1914   -0.568743
 O 0.31111 0.39769 0.16472   -0.575039
 O 0.3556 0.4833 0.10495   -0.627272
 O 0.39497 0.60924 0.23268   -0.630552
 O 0.33508 0.53741 0.29889   -0.573964
