{'_ref': 'TBD', '_srcid': 'CAKYAQ_clean', 'submitters': [{'name': 'Dalar Nazarian Jeff Camp and David Sholl', 'email': 'dalar@gatech.edu jcamp6@gatech.edu'}], '_method': 'VASP DFT with PBE;DDEC'}
data_InH8C17O8
_symmetry_space_group_name_H-M   'P 1'
_cell_length_a   9.90600000
_cell_length_b   17.37900000
_cell_length_c   22.04300000
_cell_angle_alpha   90.00000000
_cell_angle_beta   90.00000000
_cell_angle_gamma   90.00000000
_symmetry_Int_Tables_number   1
_chemical_formula_structural   InH8C17O8
_chemical_formula_sum   'In4 H32 C68 O32'
_cell_volume   3794.84295208
_cell_formula_units_Z   4
loop_
 _symmetry_equiv_pos_site_id
 _symmetry_equiv_pos_as_xyz
  1  'x, y, z'
loop_
 _atom_site_label
 _atom_site_fract_x
 _atom_site_fract_y
 _atom_site_fract_z
 _atom_site_charge
 In 0.75 0.58469 0.32818   1.467261
 In 0.25 0.91531 0.82818   1.467261
 In 0.25 0.41531 0.67182   1.467261
 In 0.75 0.08469 0.17182   1.467261
 H 0.5463 0.2747 0.5506   0.125918
 H 0.8308 0.1745 0.4972   0.12253
 H 0.4537 0.2253 0.0506   0.125918
 H 0.1692 0.3255 0.9972   0.12253
 H 0.0463 0.7253 0.4494   0.125918
 H 0.3308 0.8255 0.5028   0.12253
 H 0.9537 0.7747 0.9494   0.125918
 H 0.6692 0.6745 0.0028   0.12253
 H 0.4537 0.7253 0.4494   0.125917
 H 0.1692 0.8255 0.5028   0.122523
 H 0.5463 0.7747 0.9494   0.125917
 H 0.8308 0.6745 0.0028   0.122523
 H 0.9537 0.2747 0.5506   0.125917
 H 0.6692 0.1745 0.4972   0.122523
 H 0.0463 0.2253 0.0506   0.125917
 H 0.3308 0.3255 0.9972   0.122523
 H 0.75 0.354 0.4563   0.105758
 H 0.75 0.1412 0.3847   0.120939
 H 0.75 0.3234 0.2732   0.121021
 H 0.75 0.418 0.671   0.125341
 H 0.25 0.146 0.9563   0.105758
 H 0.25 0.3588 0.8847   0.120939
 H 0.25 0.1766 0.7732   0.121021
 H 0.25 0.082 0.171   0.125341
 H 0.25 0.646 0.5437   0.105758
 H 0.25 0.8588 0.6153   0.120939
 H 0.25 0.6766 0.7268   0.121022
 H 0.25 0.582 0.329   0.125341
 H 0.75 0.854 0.0437   0.105758
 H 0.75 0.6412 0.1153   0.120939
 H 0.75 0.8234 0.2268   0.121022
 H 0.75 0.918 0.829   0.125341
 C 0.6273 0.3509 0.6128   -0.095386
 C 0.4971 0.3784 0.6337   0.61129
 C 0.6286 0.2942 0.5665   -0.068055
 C 0.3727 0.1491 0.1128   -0.095387
 C 0.5029 0.1216 0.1337   0.61129
 C 0.3714 0.2058 0.0665   -0.068055
 C 0.1273 0.6491 0.3872   -0.095387
 C 0.9971 0.6216 0.3663   0.61129
 C 0.1286 0.7058 0.4335   -0.068055
 C 0.8727 0.8509 0.8872   -0.095387
 C 0.0029 0.8784 0.8663   0.61129
 C 0.8714 0.7942 0.9335   -0.068055
 C 0.3727 0.6491 0.3872   -0.095386
 C 0.5029 0.6216 0.3663   0.61129
 C 0.3714 0.7058 0.4335   -0.068055
 C 0.6273 0.8509 0.8872   -0.095387
 C 0.4971 0.8784 0.8663   0.61129
 C 0.6286 0.7942 0.9335   -0.068055
 C 0.8727 0.3509 0.6128   -0.095386
 C 0.0029 0.3784 0.6337   0.61129
 C 0.8714 0.2942 0.5665   -0.068055
 C 0.1273 0.1491 0.1128   -0.095387
 C 0.9971 0.1216 0.1337   0.61129
 C 0.1286 0.2058 0.0665   -0.068055
 C 0.75 0.3536 0.3632   -0.085931
 C 0.75 0.2439 0.4309   0.081667
 C 0.75 0.2273 0.3214   -0.11454
 C 0.75 0.4382 0.3538   0.61064
 C 0.75 0.3769 0.6348   -0.031842
 C 0.75 0.3209 0.422   -0.095603
 C 0.75 0.1735 0.2675   0.616236
 C 0.75 0.1955 0.3797   -0.065743
 C 0.75 0.3031 0.3132   -0.000681
 C 0.75 0.2679 0.5449   0.055889
 C 0.75 0.2076 0.4931   -0.217508
 C 0.25 0.1464 0.8632   -0.085931
 C 0.25 0.2561 0.9309   0.081667
 C 0.25 0.2727 0.8214   -0.114539
 C 0.25 0.0618 0.8538   0.61064
 C 0.25 0.1231 0.1348   -0.031841
 C 0.25 0.1791 0.922   -0.095603
 C 0.25 0.3265 0.7675   0.616236
 C 0.25 0.3045 0.8797   -0.065743
 C 0.25 0.1969 0.8132   -0.000681
 C 0.25 0.2321 0.0449   0.055889
 C 0.25 0.2924 0.9931   -0.217508
 C 0.25 0.6464 0.6368   -0.085931
 C 0.25 0.7561 0.5691   0.081667
 C 0.25 0.7727 0.6786   -0.11454
 C 0.25 0.5618 0.6462   0.61064
 C 0.25 0.6231 0.3652   -0.031841
 C 0.25 0.6791 0.578   -0.095603
 C 0.25 0.8265 0.7325   0.616236
 C 0.25 0.8045 0.6203   -0.065743
 C 0.25 0.6969 0.6868   -0.000681
 C 0.25 0.7321 0.4551   0.055889
 C 0.25 0.7924 0.5069   -0.217508
 C 0.75 0.8536 0.1368   -0.085931
 C 0.75 0.7439 0.0691   0.081667
 C 0.75 0.7273 0.1786   -0.114539
 C 0.75 0.9382 0.1462   0.61064
 C 0.75 0.8769 0.8652   -0.03184
 C 0.75 0.8209 0.078   -0.095603
 C 0.75 0.6735 0.2325   0.616236
 C 0.75 0.6955 0.1203   -0.065743
 C 0.75 0.8031 0.1868   -0.000681
 C 0.75 0.7679 0.9551   0.055888
 C 0.75 0.7076 0.0069   -0.217508
 O 0.4877 0.419 0.68047   -0.50685
 O 0.3893 0.3606 0.60528   -0.494572
 O 0.5123 0.081 0.18047   -0.50685
 O 0.6107 0.1394 0.10528   -0.494572
 O 0.9877 0.581 0.31953   -0.50685
 O 0.8893 0.6394 0.39472   -0.494572
 O 0.0123 0.919 0.81953   -0.50685
 O 0.1107 0.8606 0.89472   -0.494572
 O 0.5123 0.581 0.31953   -0.50685
 O 0.6107 0.6394 0.39472   -0.494572
 O 0.4877 0.919 0.81953   -0.50685
 O 0.3893 0.8606 0.89472   -0.494572
 O 0.0123 0.419 0.68047   -0.50685
 O 0.1107 0.3606 0.60528   -0.494572
 O 0.9877 0.081 0.18047   -0.50685
 O 0.8893 0.1394 0.10528   -0.494572
 O 0.75 0.1016 0.274   -0.514401
 O 0.75 0.4823 0.3983   -0.518237
 O 0.75 0.4639 0.3003   -0.517141
 O 0.75 0.2015 0.2153   -0.532869
 O 0.25 0.3984 0.774   -0.514401
 O 0.25 0.0177 0.8983   -0.518237
 O 0.25 0.0361 0.8003   -0.517141
 O 0.25 0.2985 0.7153   -0.532869
 O 0.25 0.8984 0.726   -0.514401
 O 0.25 0.5177 0.6017   -0.518237
 O 0.25 0.5361 0.6997   -0.517141
 O 0.25 0.7985 0.7847   -0.532869
 O 0.75 0.6016 0.226   -0.514401
 O 0.75 0.9823 0.1017   -0.518237
 O 0.75 0.9639 0.1997   -0.517141
 O 0.75 0.7015 0.2847   -0.532869
