{'_ref': 'TBD', '_srcid': 'CAKYAQ_clean', 'submitters': [{'name': 'Dalar Nazarian Jeff Camp and David Sholl', 'email': 'dalar@gatech.edu jcamp6@gatech.edu'}], '_method': 'VASP DFT with PBE;DDEC'}
data_Ag2H10C7(N2O)4
_symmetry_space_group_name_H-M   'P 1'
_cell_length_a   14.04499989
_cell_length_b   14.04499970
_cell_length_c   14.04500000
_cell_angle_alpha   104.92399989
_cell_angle_beta   104.92399969
_cell_angle_gamma   104.92399883
_symmetry_Int_Tables_number   1
_chemical_formula_structural   Ag2H10C7(N2O)4
_chemical_formula_sum   'Ag12 H60 C42 N48 O24'
_cell_volume   2426.18223677
_cell_formula_units_Z   6
loop_
 _symmetry_equiv_pos_site_id
 _symmetry_equiv_pos_as_xyz
  1  'x, y, z'
loop_
 _atom_site_label
 _atom_site_fract_x
 _atom_site_fract_y
 _atom_site_fract_z
 _atom_site_charge
 Ag 0.213 0.213 0.47909   0.513264
 Ag 0.47909 0.213 0.213   0.513265
 Ag 0.213 0.47909 0.213   0.513265
 Ag 0.787 0.787 0.52091   0.513264
 Ag 0.787 0.52091 0.787   0.513264
 Ag 0.52091 0.787 0.787   0.513265
 Ag 0.72284 0.0 0.27716   0.518462
 Ag 0.27716 0.72284 0.0   0.518462
 Ag 0.0 0.27716 0.72284   0.518462
 Ag 0.27716 0.0 0.72284   0.518462
 Ag 0.72284 0.27716 0.0   0.518462
 Ag 0.0 0.72284 0.27716   0.518462
 H 0.4737 0.3533 0.7099   0.159134
 H 0.9017 0.1783 0.4174   0.351999
 H 0.0228 0.2302 0.4757   0.334053
 H 0.7533 0.8234 0.2424   0.323873
 H 0.3989 0.1927 0.4689   0.33258
 H 0.7099 0.4737 0.3533   0.159134
 H 0.4174 0.9017 0.1783   0.351999
 H 0.4757 0.0228 0.2302   0.334053
 H 0.2424 0.7533 0.8234   0.323873
 H 0.4689 0.3989 0.1927   0.33258
 H 0.3533 0.7099 0.4737   0.159134
 H 0.1783 0.4174 0.9017   0.351999
 H 0.2302 0.4757 0.0228   0.334053
 H 0.8234 0.2424 0.7533   0.323873
 H 0.1927 0.4689 0.3989   0.33258
 H 0.6467 0.5263 0.2901   0.159135
 H 0.8217 0.0983 0.5826   0.352001
 H 0.7698 0.9772 0.5243   0.334053
 H 0.1766 0.2467 0.7576   0.323875
 H 0.8073 0.6011 0.5311   0.33258
 H 0.5263 0.2901 0.6467   0.159135
 H 0.0983 0.5826 0.8217   0.352001
 H 0.9772 0.5243 0.7698   0.334053
 H 0.2467 0.7576 0.1766   0.323875
 H 0.6011 0.5311 0.8073   0.33258
 H 0.2901 0.6467 0.5263   0.159135
 H 0.5826 0.8217 0.0983   0.352001
 H 0.5243 0.7698 0.9772   0.334053
 H 0.7576 0.1766 0.2467   0.323875
 H 0.5311 0.8073 0.6011   0.33258
 H 0.5263 0.6467 0.2901   0.159136
 H 0.0983 0.8217 0.5826   0.351999
 H 0.9772 0.7698 0.5243   0.334054
 H 0.2467 0.1766 0.7576   0.323876
 H 0.6011 0.8073 0.5311   0.33258
 H 0.2901 0.5263 0.6467   0.159136
 H 0.5826 0.0983 0.8217   0.351999
 H 0.5243 0.9772 0.7698   0.334054
 H 0.7576 0.2467 0.1766   0.323876
 H 0.5311 0.6011 0.8073   0.33258
 H 0.6467 0.2901 0.5263   0.159136
 H 0.8217 0.5826 0.0983   0.351999
 H 0.7698 0.5243 0.9772   0.334054
 H 0.1766 0.7576 0.2467   0.323876
 H 0.8073 0.5311 0.6011   0.33258
 H 0.3533 0.4737 0.7099   0.159136
 H 0.1783 0.9017 0.4174   0.352001
 H 0.2302 0.0228 0.4757   0.334054
 H 0.8234 0.7533 0.2424   0.323877
 H 0.1927 0.3989 0.4689   0.33258
 H 0.4737 0.7099 0.3533   0.159136
 H 0.9017 0.4174 0.1783   0.352001
 H 0.0228 0.4757 0.2302   0.334054
 H 0.7533 0.2424 0.8234   0.323877
 H 0.3989 0.4689 0.1927   0.33258
 H 0.7099 0.3533 0.4737   0.159136
 H 0.4174 0.1783 0.9017   0.352001
 H 0.4757 0.2302 0.0228   0.334054
 H 0.2424 0.8234 0.7533   0.323877
 H 0.4689 0.1927 0.3989   0.33258
 C 0.40872 0.19628 0.67465   0.779856
 C 0.97594 0.07914 0.40503   0.738493
 C 0.67465 0.40872 0.19628   0.779856
 C 0.40503 0.97594 0.07914   0.738493
 C 0.19628 0.67465 0.40872   0.779856
 C 0.07914 0.40503 0.97594   0.738493
 C 0.80372 0.59128 0.32535   0.779856
 C 0.92086 0.02406 0.59497   0.738493
 C 0.59128 0.32535 0.80372   0.779856
 C 0.02406 0.59497 0.92086   0.738493
 C 0.32535 0.80372 0.59128   0.779856
 C 0.59497 0.92086 0.02406   0.738493
 C 0.59128 0.80372 0.32535   0.779856
 C 0.02406 0.92086 0.59497   0.738493
 C 0.32535 0.59128 0.80372   0.779856
 C 0.59497 0.02406 0.92086   0.738493
 C 0.80372 0.32535 0.59128   0.779856
 C 0.92086 0.59497 0.02406   0.738493
 C 0.19628 0.40872 0.67465   0.779856
 C 0.07914 0.97594 0.40503   0.738493
 C 0.40872 0.67465 0.19628   0.779856
 C 0.97594 0.40503 0.07914   0.738493
 C 0.67465 0.19628 0.40872   0.779856
 C 0.40503 0.07914 0.97594   0.738493
 C 0.90155 0.90155 0.319   0.749185
 C 0.319 0.90155 0.90155   0.749185
 C 0.90155 0.319 0.90155   0.749185
 C 0.09845 0.09845 0.681   0.749186
 C 0.09845 0.681 0.09845   0.749186
 C 0.681 0.09845 0.09845   0.749186
 C 0.5 0.2962 0.7038   -0.553944
 C 0.7038 0.5 0.2962   -0.553944
 C 0.2962 0.7038 0.5   -0.553944
 C 0.5 0.7038 0.2962   -0.553946
 C 0.2962 0.5 0.7038   -0.553946
 C 0.7038 0.2962 0.5   -0.553946
 C 0.38837 0.28526 0.38837   0.738587
 C 0.38837 0.38837 0.28526   0.738587
 C 0.28526 0.38837 0.38837   0.738587
 C 0.71474 0.61163 0.61163   0.738589
 C 0.61163 0.61163 0.71474   0.738588
 C 0.61163 0.71474 0.61163   0.738586
 N 0.88786 0.99497 0.34604   -0.675889
 N 0.96568 0.17264 0.43603   -0.686516
 N 0.34604 0.88786 0.99497   -0.675889
 N 0.43603 0.96568 0.17264   -0.686516
 N 0.99497 0.34604 0.88786   -0.675889
 N 0.17264 0.43603 0.96568   -0.686516
 N 0.00503 0.11214 0.65396   -0.675889
 N 0.82736 0.03432 0.56397   -0.686517
 N 0.11214 0.65396 0.00503   -0.675889
 N 0.03432 0.56397 0.82736   -0.686517
 N 0.65396 0.00503 0.11214   -0.675889
 N 0.56397 0.82736 0.03432   -0.686517
 N 0.11214 0.00503 0.65396   -0.675889
 N 0.03432 0.82736 0.56397   -0.686517
 N 0.65396 0.11214 0.00503   -0.675889
 N 0.56397 0.03432 0.82736   -0.686517
 N 0.00503 0.65396 0.11214   -0.675889
 N 0.82736 0.56397 0.03432   -0.686517
 N 0.99497 0.88786 0.34604   -0.675889
 N 0.17264 0.96568 0.43603   -0.686517
 N 0.88786 0.34604 0.99497   -0.675889
 N 0.96568 0.43603 0.17264   -0.686517
 N 0.34604 0.99497 0.88786   -0.675889
 N 0.43603 0.17264 0.96568   -0.686517
 N 0.07352 0.07352 0.43422   -0.66272
 N 0.81702 0.81702 0.26192   -0.682094
 N 0.31815 0.31815 0.4257   -0.665529
 N 0.43422 0.07352 0.07352   -0.66272
 N 0.26192 0.81702 0.81702   -0.682094
 N 0.4257 0.31815 0.31815   -0.665529
 N 0.07352 0.43422 0.07352   -0.66272
 N 0.81702 0.26192 0.81702   -0.682094
 N 0.31815 0.4257 0.31815   -0.665528
 N 0.92648 0.92648 0.56578   -0.66272
 N 0.18298 0.18298 0.73808   -0.682094
 N 0.68185 0.68185 0.5743   -0.665529
 N 0.92648 0.56578 0.92648   -0.66272
 N 0.18298 0.73808 0.18298   -0.682094
 N 0.68185 0.5743 0.68185   -0.665528
 N 0.56578 0.92648 0.92648   -0.66272
 N 0.73808 0.18298 0.18298   -0.682094
 N 0.5743 0.68185 0.68185   -0.665529
 N 0.42245 0.2162 0.42245   -0.672137
 N 0.42245 0.42245 0.2162   -0.672137
 N 0.2162 0.42245 0.42245   -0.672137
 N 0.7838 0.57755 0.57755   -0.672137
 N 0.57755 0.57755 0.7838   -0.672137
 N 0.57755 0.7838 0.57755   -0.672137
 O 0.35594 0.14918 0.5786   -0.671204
 O 0.3889 0.16919 0.74766   -0.627921
 O 0.5786 0.35594 0.14918   -0.671204
 O 0.74766 0.3889 0.16919   -0.627921
 O 0.14918 0.5786 0.35594   -0.671204
 O 0.16919 0.74766 0.3889   -0.627921
 O 0.85082 0.64406 0.4214   -0.671204
 O 0.83081 0.6111 0.25234   -0.627921
 O 0.64406 0.4214 0.85082   -0.671204
 O 0.6111 0.25234 0.83081   -0.627921
 O 0.4214 0.85082 0.64406   -0.671204
 O 0.25234 0.83081 0.6111   -0.627921
 O 0.64406 0.85082 0.4214   -0.671204
 O 0.6111 0.83081 0.25234   -0.627921
 O 0.4214 0.64406 0.85082   -0.671204
 O 0.25234 0.6111 0.83081   -0.627921
 O 0.85082 0.4214 0.64406   -0.671204
 O 0.83081 0.25234 0.6111   -0.627921
 O 0.14918 0.35594 0.5786   -0.671204
 O 0.16919 0.3889 0.74766   -0.627921
 O 0.35594 0.5786 0.14918   -0.671204
 O 0.3889 0.74766 0.16919   -0.627921
 O 0.5786 0.14918 0.35594   -0.671204
 O 0.74766 0.16919 0.3889   -0.627921
