{'_ref': 'TBD', '_srcid': 'CAKYAQ_clean', 'submitters': [{'name': 'Dalar Nazarian Jeff Camp and David Sholl', 'email': 'dalar@gatech.edu jcamp6@gatech.edu'}], '_method': 'VASP DFT with PBE;DDEC'}
data_Ag2H10C7(N2O)4
_symmetry_space_group_name_H-M   'P 1'
_cell_length_a   13.99170042
_cell_length_b   13.99170017
_cell_length_c   13.99170000
_cell_angle_alpha   104.80300107
_cell_angle_beta   104.80300080
_cell_angle_gamma   104.80299886
_symmetry_Int_Tables_number   1
_chemical_formula_structural   Ag2H10C7(N2O)4
_chemical_formula_sum   'Ag12 H60 C42 N48 O24'
_cell_volume   2404.83109779
_cell_formula_units_Z   6
loop_
 _symmetry_equiv_pos_site_id
 _symmetry_equiv_pos_as_xyz
  1  'x, y, z'
loop_
 _atom_site_label
 _atom_site_fract_x
 _atom_site_fract_y
 _atom_site_fract_z
 _atom_site_charge
 Ag 0.78492 0.78492 0.51416   0.523355
 Ag 0.51416 0.78492 0.78492   0.523355
 Ag 0.78492 0.51416 0.78492   0.523356
 Ag 0.21508 0.21508 0.48584   0.523355
 Ag 0.21508 0.48584 0.21508   0.523355
 Ag 0.48584 0.21508 0.21508   0.523356
 Ag 0.0 0.27741 0.72259   0.51858
 Ag 0.72259 0.0 0.27741   0.51858
 Ag 0.27741 0.72259 0.0   0.51858
 Ag 0.0 0.72259 0.27741   0.51858
 Ag 0.27741 0.0 0.72259   0.51858
 Ag 0.72259 0.27741 0.0   0.51858
 H 0.5251 0.6463 0.2883   0.158777
 H 0.821 0.0976 0.5818   0.350335
 H 0.7691 0.9763 0.524   0.332447
 H 0.8089 0.6032 0.5324   0.333275
 H 0.1742 0.2449 0.7593   0.321402
 H 0.2883 0.5251 0.6463   0.158777
 H 0.5818 0.821 0.0976   0.350335
 H 0.524 0.7691 0.9763   0.332447
 H 0.5324 0.8089 0.6032   0.333276
 H 0.7593 0.1742 0.2449   0.321402
 H 0.6463 0.2883 0.5251   0.158777
 H 0.0976 0.5818 0.821   0.350335
 H 0.9763 0.524 0.7691   0.332447
 H 0.6032 0.5324 0.8089   0.333275
 H 0.2449 0.7593 0.1742   0.321402
 H 0.3537 0.4749 0.7117   0.158778
 H 0.9024 0.179 0.4182   0.350337
 H 0.0237 0.2309 0.476   0.332447
 H 0.3968 0.1911 0.4676   0.333275
 H 0.7551 0.8258 0.2407   0.321403
 H 0.4749 0.7117 0.3537   0.158778
 H 0.179 0.4182 0.9024   0.350337
 H 0.2309 0.476 0.0237   0.332447
 H 0.1911 0.4676 0.3968   0.333276
 H 0.8258 0.2407 0.7551   0.321403
 H 0.7117 0.3537 0.4749   0.158777
 H 0.4182 0.9024 0.179   0.350337
 H 0.476 0.0237 0.2309   0.332447
 H 0.4676 0.3968 0.1911   0.333275
 H 0.2407 0.7551 0.8258   0.321403
 H 0.4749 0.3537 0.7117   0.158778
 H 0.179 0.9024 0.4182   0.350336
 H 0.2309 0.0237 0.476   0.332447
 H 0.1911 0.3968 0.4676   0.333274
 H 0.8258 0.7551 0.2407   0.321404
 H 0.7117 0.4749 0.3537   0.158779
 H 0.4182 0.179 0.9024   0.350336
 H 0.476 0.2309 0.0237   0.332447
 H 0.4676 0.1911 0.3968   0.333275
 H 0.2407 0.8258 0.7551   0.321404
 H 0.3537 0.7117 0.4749   0.158778
 H 0.9024 0.4182 0.179   0.350336
 H 0.0237 0.476 0.2309   0.332447
 H 0.3968 0.4676 0.1911   0.333274
 H 0.7551 0.2407 0.8258   0.321404
 H 0.6463 0.5251 0.2883   0.158779
 H 0.0976 0.821 0.5818   0.350337
 H 0.9763 0.7691 0.524   0.332447
 H 0.6032 0.8089 0.5324   0.333274
 H 0.2449 0.1742 0.7593   0.321405
 H 0.5251 0.2883 0.6463   0.158779
 H 0.821 0.5818 0.0976   0.350337
 H 0.7691 0.524 0.9763   0.332448
 H 0.8089 0.5324 0.6032   0.333275
 H 0.1742 0.7593 0.2449   0.321405
 H 0.2883 0.6463 0.5251   0.158779
 H 0.5818 0.0976 0.821   0.350337
 H 0.524 0.9763 0.7691   0.332448
 H 0.5324 0.6032 0.8089   0.333274
 H 0.7593 0.2449 0.1742   0.321405
 C 0.92 0.0229 0.59593   0.748627
 C 0.59233 0.80276 0.32351   0.793601
 C 0.59593 0.92 0.0229   0.748627
 C 0.32351 0.59233 0.80276   0.793601
 C 0.0229 0.59593 0.92   0.748627
 C 0.80276 0.32351 0.59233   0.793597
 C 0.9771 0.08 0.40407   0.748627
 C 0.19724 0.40767 0.67649   0.793601
 C 0.08 0.40407 0.9771   0.748627
 C 0.40767 0.67649 0.19724   0.793601
 C 0.40407 0.9771 0.08   0.748627
 C 0.67649 0.19724 0.40767   0.793597
 C 0.08 0.9771 0.40407   0.748627
 C 0.40767 0.19724 0.67649   0.793601
 C 0.40407 0.08 0.9771   0.748627
 C 0.67649 0.40767 0.19724   0.793601
 C 0.9771 0.40407 0.08   0.748627
 C 0.19724 0.67649 0.40767   0.793597
 C 0.0229 0.92 0.59593   0.748627
 C 0.80276 0.59233 0.32351   0.793601
 C 0.92 0.59593 0.0229   0.748627
 C 0.59233 0.32351 0.80276   0.793601
 C 0.59593 0.0229 0.92   0.748627
 C 0.32351 0.80276 0.59233   0.793597
 C 0.09642 0.09642 0.68197   0.751464
 C 0.68197 0.09642 0.09642   0.751464
 C 0.09642 0.68197 0.09642   0.751464
 C 0.90358 0.90358 0.31803   0.751464
 C 0.90358 0.31803 0.90358   0.751464
 C 0.31803 0.90358 0.90358   0.751464
 C 0.5 0.70475 0.29525   -0.565922
 C 0.29525 0.5 0.70475   -0.565922
 C 0.70475 0.29525 0.5   -0.565919
 C 0.5 0.29525 0.70475   -0.565923
 C 0.70475 0.5 0.29525   -0.565923
 C 0.29525 0.70475 0.5   -0.56592
 C 0.7177 0.6143 0.6143   0.759165
 C 0.6143 0.7177 0.6143   0.759164
 C 0.6143 0.6143 0.7177   0.759164
 C 0.3857 0.2823 0.3857   0.759166
 C 0.2823 0.3857 0.3857   0.759165
 C 0.3857 0.3857 0.2823   0.759164
 N 0.82669 0.03337 0.56372   -0.690228
 N 0.00333 0.11062 0.6551   -0.678636
 N 0.56372 0.82669 0.03337   -0.690228
 N 0.6551 0.00333 0.11062   -0.678636
 N 0.03337 0.56372 0.82669   -0.690228
 N 0.11062 0.6551 0.00333   -0.678636
 N 0.96663 0.17331 0.43628   -0.690228
 N 0.88938 0.99667 0.3449   -0.678636
 N 0.17331 0.43628 0.96663   -0.690228
 N 0.99667 0.3449 0.88938   -0.678636
 N 0.43628 0.96663 0.17331   -0.690228
 N 0.3449 0.88938 0.99667   -0.678636
 N 0.17331 0.96663 0.43628   -0.690228
 N 0.99667 0.88938 0.3449   -0.678636
 N 0.43628 0.17331 0.96663   -0.690228
 N 0.3449 0.99667 0.88938   -0.678636
 N 0.96663 0.43628 0.17331   -0.690228
 N 0.88938 0.3449 0.99667   -0.678636
 N 0.03337 0.82669 0.56372   -0.690228
 N 0.11062 0.00333 0.6551   -0.678636
 N 0.82669 0.56372 0.03337   -0.690228
 N 0.00333 0.6551 0.11062   -0.678636
 N 0.56372 0.03337 0.82669   -0.690228
 N 0.6551 0.11062 0.00333   -0.678636
 N 0.92562 0.92562 0.56697   -0.673357
 N 0.68435 0.68435 0.577   -0.684361
 N 0.18087 0.18087 0.73987   -0.684669
 N 0.56697 0.92562 0.92562   -0.673357
 N 0.577 0.68435 0.68435   -0.684361
 N 0.73987 0.18087 0.18087   -0.684669
 N 0.92562 0.56697 0.92562   -0.673357
 N 0.68435 0.577 0.68435   -0.684361
 N 0.18087 0.73987 0.18087   -0.684669
 N 0.07438 0.07438 0.43303   -0.673357
 N 0.31565 0.31565 0.423   -0.684361
 N 0.81913 0.81913 0.26013   -0.684669
 N 0.07438 0.43303 0.07438   -0.673357
 N 0.31565 0.423 0.31565   -0.684361
 N 0.81913 0.26013 0.81913   -0.684669
 N 0.43303 0.07438 0.07438   -0.673357
 N 0.423 0.31565 0.31565   -0.684361
 N 0.26013 0.81913 0.81913   -0.684669
 N 0.7857 0.57985 0.57985   -0.677995
 N 0.57985 0.7857 0.57985   -0.677994
 N 0.57985 0.57985 0.7857   -0.677994
 N 0.42015 0.2143 0.42015   -0.677995
 N 0.2143 0.42015 0.42015   -0.677995
 N 0.42015 0.42015 0.2143   -0.677994
 O 0.64533 0.84795 0.41846   -0.675838
 O 0.61162 0.82964 0.25094   -0.626895
 O 0.41846 0.64533 0.84795   -0.675838
 O 0.25094 0.61162 0.82964   -0.626895
 O 0.84795 0.41846 0.64533   -0.675837
 O 0.82964 0.25094 0.61162   -0.626894
 O 0.15205 0.35467 0.58154   -0.675838
 O 0.17036 0.38838 0.74906   -0.626896
 O 0.35467 0.58154 0.15205   -0.675838
 O 0.38838 0.74906 0.17036   -0.626895
 O 0.58154 0.15205 0.35467   -0.675837
 O 0.74906 0.17036 0.38838   -0.626894
 O 0.35467 0.15205 0.58154   -0.675838
 O 0.38838 0.17036 0.74906   -0.626895
 O 0.58154 0.35467 0.15205   -0.675838
 O 0.74906 0.38838 0.17036   -0.626896
 O 0.15205 0.58154 0.35467   -0.675837
 O 0.17036 0.74906 0.38838   -0.626894
 O 0.84795 0.64533 0.41846   -0.675838
 O 0.82964 0.61162 0.25094   -0.626896
 O 0.64533 0.41846 0.84795   -0.675838
 O 0.61162 0.25094 0.82964   -0.626896
 O 0.41846 0.84795 0.64533   -0.675837
 O 0.25094 0.82964 0.61162   -0.626895
