{'_ref': 'TBD', '_srcid': 'CAKYAQ_clean', 'submitters': [{'name': 'Dalar Nazarian Jeff Camp and David Sholl', 'email': 'dalar@gatech.edu jcamp6@gatech.edu'}], '_method': 'VASP DFT with PBE;DDEC'}
data_MnH12C20S2(N2O3)2
_symmetry_space_group_name_H-M   'P 1'
_cell_length_a   9.31600008
_cell_length_b   11.91700000
_cell_length_c   25.51500000
_cell_angle_alpha   90.00000000
_cell_angle_beta   94.66299868
_cell_angle_gamma   90.00000000
_symmetry_Int_Tables_number   1
_chemical_formula_structural   MnH12C20S2(N2O3)2
_chemical_formula_sum   'Mn4 H48 C80 S8 N16 O24'
_cell_volume   2823.26820795
_cell_formula_units_Z   4
loop_
 _symmetry_equiv_pos_site_id
 _symmetry_equiv_pos_as_xyz
  1  'x, y, z'
loop_
 _atom_site_label
 _atom_site_fract_x
 _atom_site_fract_y
 _atom_site_fract_z
 _atom_site_charge
 Mn 0.55567 0.91943 0.97874   1.123072
 Mn 0.07356 0.60055 0.29405   1.165173
 Mn 0.55567 0.08057 0.47874   1.123072
 Mn 0.07356 0.39945 0.79405   1.165173
 H 0.3811 0.3122 0.0079   0.101631
 H 0.5224 0.4527 0.0505   0.133769
 H 0.7604 0.4813 0.0262   0.111515
 H 0.7063 0.2367 0.9166   0.098343
 H 0.9144 0.2542 0.0477   0.101804
 H 0.9457 0.2356 0.1391   0.104108
 H 0.0585 0.3702 0.1913   0.102208
 H 0.1554 0.5402 0.0597   0.108762
 H 0.3681 0.562 0.957   0.125339
 H 0.577 0.6207 0.918   0.104864
 H 0.5795 0.593 0.8231   0.137347
 H 0.3918 0.5033 0.778   0.098616
 H 0.8793 0.9748 0.5083   0.090083
 H 0.0826 0.9214 0.4688   0.145142
 H 0.0827 0.9252 0.3769   0.107405
 H 0.8823 0.0061 0.3268   0.122107
 H 0.2394 0.0042 0.2407   0.121217
 H 0.0018 0.0218 0.204   0.126693
 H 0.8564 0.1633 0.2302   0.094244
 H 0.1703 0.2766 0.3333   0.093369
 H 0.6326 0.9956 0.2145   0.121198
 H 0.5189 0.1779 0.0819   0.096991
 H 0.3993 0.3056 0.1333   0.099922
 H 0.377 0.2776 0.222   0.108321
 H 0.3811 0.6878 0.5079   0.101631
 H 0.5224 0.5473 0.5505   0.133769
 H 0.7604 0.5187 0.5262   0.111515
 H 0.7063 0.7633 0.4166   0.098343
 H 0.9144 0.7458 0.5477   0.101803
 H 0.9457 0.7644 0.6391   0.104108
 H 0.0585 0.6298 0.6913   0.102208
 H 0.1554 0.4598 0.5597   0.108762
 H 0.3681 0.438 0.457   0.125339
 H 0.577 0.3793 0.418   0.104864
 H 0.5795 0.407 0.3231   0.137347
 H 0.3918 0.4967 0.278   0.098615
 H 0.8793 0.0252 0.0083   0.090082
 H 0.0826 0.0786 0.9688   0.145142
 H 0.0827 0.0748 0.8769   0.107405
 H 0.8823 0.9939 0.8268   0.122107
 H 0.2394 0.9958 0.7407   0.121217
 H 0.0018 0.9782 0.704   0.126693
 H 0.8564 0.8367 0.7302   0.094244
 H 0.1703 0.7234 0.8333   0.093369
 H 0.6326 0.0044 0.7145   0.121198
 H 0.5189 0.8221 0.5819   0.096991
 H 0.3993 0.6944 0.6333   0.099922
 H 0.377 0.7224 0.722   0.10832
 C 0.5252 0.2659 0.956   -0.21996
 C 0.4747 0.327 0.9974   0.000393
 C 0.5588 0.4092 0.0234   -0.094883
 C 0.701 0.4265 0.0083   -0.088382
 C 0.7541 0.366 0.9685   -0.019095
 C 0.6683 0.2821 0.9427   -0.035426
 C 0.8977 0.3843 0.9519   0.145989
 C 0.0219 0.4132 0.9865   0.247984
 C 0.0303 0.4004 0.0441   -0.066856
 C 0.9675 0.3089 0.0682   -0.077377
 C 0.9844 0.2996 0.1231   -0.075249
 C 0.0533 0.3774 0.1541   0.003741
 C 0.1185 0.471 0.1302   -0.216774
 C 0.1088 0.4799 0.0757   -0.016545
 C 0.1399 0.4528 0.9135   0.369969
 C 0.2679 0.4972 0.8892   0.175971
 C 0.3772 0.5505 0.9206   -0.157395
 C 0.4987 0.5862 0.8979   0.013757
 C 0.5002 0.5678 0.8412   -0.133838
 C 0.388 0.5149 0.8147   0.192473
 C 0.8792 0.9804 0.4712   0.187759
 C 0.000399999999999 0.9474 0.4479   -0.158307
 C 0.0021 0.9525 0.3936   0.035271
 C 0.8832 0.9984 0.3638   -0.130347
 C 0.7671 0.032 0.3908   0.179986
 C 0.6362 0.077 0.3618   0.384624
 C 0.5067 0.1137 0.2847   0.263328
 C 0.3824 0.1312 0.3136   0.167659
 C 0.237 0.1439 0.2904   -0.036669
 C 0.1804 0.0635 0.2515   -0.103389
 C 0.0386 0.0738 0.2299   -0.07951
 C 0.9524 0.1574 0.2456   0.002322
 C 0.000700000000002 0.2323 0.2827   -0.228907
 C 0.1398 0.2254 0.3062   -0.037551
 C 0.5042 0.1301 0.2266   -0.048832
 C 0.5822 0.057 0.1979   -0.020936
 C 0.5851 0.0763 0.143   -0.200659
 C 0.5167 0.1663 0.1187   -0.016032
 C 0.4429 0.2413 0.1498   -0.07017
 C 0.4306 0.2271 0.2023   -0.060691
 C 0.5252 0.7341 0.456   -0.21996
 C 0.4747 0.673 0.4974   0.000393
 C 0.5588 0.5908 0.5234   -0.094882
 C 0.701 0.5735 0.5083   -0.088382
 C 0.7541 0.634 0.4685   -0.019095
 C 0.6683 0.7179 0.4427   -0.035427
 C 0.8977 0.6157 0.4519   0.145989
 C 0.0219 0.5868 0.4865   0.247984
 C 0.0303 0.5996 0.5441   -0.066856
 C 0.9675 0.6911 0.5682   -0.077377
 C 0.9844 0.7004 0.6231   -0.075249
 C 0.0533 0.6226 0.6541   0.003741
 C 0.1185 0.529 0.6302   -0.216774
 C 0.1088 0.5201 0.5757   -0.016545
 C 0.1399 0.5472 0.4135   0.369969
 C 0.2679 0.5028 0.3892   0.175971
 C 0.3772 0.4495 0.4206   -0.157395
 C 0.4987 0.4138 0.3979   0.013757
 C 0.5002 0.4322 0.3412   -0.133838
 C 0.388 0.4851 0.3147   0.192473
 C 0.8792 0.0196 0.9712   0.187759
 C 0.000399999999999 0.0526 0.9479   -0.158308
 C 0.0021 0.0475 0.8936   0.035271
 C 0.8832 0.0016 0.8638   -0.130347
 C 0.7671 0.968 0.8908   0.179986
 C 0.6362 0.923 0.8618   0.384624
 C 0.5067 0.8863 0.7847   0.263328
 C 0.3824 0.8688 0.8136   0.167659
 C 0.237 0.8561 0.7904   -0.036668
 C 0.1804 0.9365 0.7515   -0.103389
 C 0.0386 0.9262 0.7299   -0.07951
 C 0.9524 0.8426 0.7456   0.002322
 C 0.000700000000002 0.7677 0.7827   -0.228907
 C 0.1398 0.7746 0.8062   -0.037551
 C 0.5042 0.8699 0.7266   -0.048832
 C 0.5822 0.943 0.6979   -0.020936
 C 0.5851 0.9237 0.643   -0.200659
 C 0.5167 0.8337 0.6187   -0.016032
 C 0.4429 0.7587 0.6498   -0.07017
 C 0.4306 0.7729 0.7023   -0.060691
 S 0.4174 0.1621 0.92317   1.345613
 S 0.2206 0.5671 0.16948   1.394752
 S 0.6873 0.9838 0.10583   1.364358
 S 0.8898 0.3441 0.30183   1.421872
 S 0.4174 0.8379 0.42317   1.345613
 S 0.2206 0.4329 0.66948   1.394752
 S 0.6873 0.0162 0.60583   1.364358
 S 0.8898 0.6559 0.80183   1.421872
 N 0.9124 0.374 0.9006   -0.140372
 N 0.0381 0.4019 0.8812   -0.283106
 N 0.14 0.4538 0.9665   -0.348026
 N 0.2723 0.4779 0.8371   -0.401409
 N 0.5307 0.1147 0.3911   -0.328339
 N 0.3998 0.1395 0.3651   -0.16628
 N 0.6288 0.0835 0.3091   -0.332423
 N 0.7587 0.0207 0.4433   -0.417056
 N 0.9124 0.626 0.4006   -0.140372
 N 0.0381 0.5981 0.3812   -0.283106
 N 0.14 0.5462 0.4665   -0.348026
 N 0.2723 0.5221 0.3371   -0.401409
 N 0.5307 0.8853 0.8911   -0.328339
 N 0.3998 0.8605 0.8651   -0.16628
 N 0.6288 0.9165 0.8091   -0.332423
 N 0.7587 0.9793 0.9433   -0.417056
 O 0.4196 0.067 0.9597   -0.683839
 O 0.2714 0.2116 0.9142   -0.659139
 O 0.4813 0.1353 0.8748   -0.633281
 O 0.1617 0.5691 0.2195   -0.72821
 O 0.2023 0.6717 0.1427   -0.648976
 O 0.3668 0.5238 0.1744   -0.643456
 O 0.8852 0.3366 0.3552   -0.653621
 O 0.7526 0.3309 0.2715   -0.654364
 O 0.9602 0.444 0.2869   -0.72866
 O 0.6838 0.876 0.1279   -0.636766
 O 0.6178 0.9909 0.0523   -0.713445
 O 0.8353 0.0243 0.1098   -0.64651
 O 0.4196 0.933 0.4597   -0.683839
 O 0.2714 0.7884 0.4142   -0.659139
 O 0.4813 0.8647 0.3748   -0.633281
 O 0.1617 0.4309 0.7195   -0.72821
 O 0.2023 0.3283 0.6427   -0.648976
 O 0.3668 0.4762 0.6744   -0.643456
 O 0.8852 0.6634 0.8552   -0.653621
 O 0.7526 0.6691 0.7715   -0.654364
 O 0.9602 0.556 0.7869   -0.72866
 O 0.6838 0.124 0.6279   -0.636766
 O 0.6178 0.0091 0.5523   -0.713445
 O 0.8353 0.9757 0.6098   -0.64651
