{'_ref': 'TBD', '_srcid': 'CAKYAQ_clean', 'submitters': [{'name': 'Dalar Nazarian Jeff Camp and David Sholl', 'email': 'dalar@gatech.edu jcamp6@gatech.edu'}], '_method': 'VASP DFT with PBE;DDEC'}
data_La2H19C28S4NO19
_symmetry_space_group_name_H-M   'P 1'
_cell_length_a   10.45879964
_cell_length_b   14.99499966
_cell_length_c   16.69900000
_cell_angle_alpha   65.44600108
_cell_angle_beta   83.48699709
_cell_angle_gamma   73.30499795
_symmetry_Int_Tables_number   1
_chemical_formula_structural   La2H19C28S4NO19
_chemical_formula_sum   'La4 H38 C56 S8 N2 O38'
_cell_volume   2281.60879783
_cell_formula_units_Z   2
loop_
 _symmetry_equiv_pos_site_id
 _symmetry_equiv_pos_as_xyz
  1  'x, y, z'
loop_
 _atom_site_label
 _atom_site_fract_x
 _atom_site_fract_y
 _atom_site_fract_z
 _atom_site_charge
 La 0.20832 0.74396 0.29051   2.141323
 La 0.2791 0.49318 0.87103   2.24021
 La 0.79168 0.25604 0.70949   2.141317
 La 0.7209 0.50682 0.12897   2.240211
 H 0.5212 0.0603 0.6858   0.386314
 H 0.6761 0.0336 0.795   0.359362
 H 0.8011 0.0369 0.6658   0.365081
 H 0.4345 0.7552 0.8371   0.105888
 H 0.6391 0.7593 0.62   0.122166
 H 0.3662 0.0174 0.7855   0.104415
 H 0.3085 0.9242 0.8407   0.100665
 H 0.6902 0.8606 0.0821   0.1014
 H 0.3826 0.8237 0.9882   0.118003
 H 0.7466 0.0612 0.902   0.088931
 H 0.8035 0.9818 0.9952   0.113813
 H 0.1737 0.8068 0.7968   0.100534
 H 0.9643 0.8211 0.0083   0.097836
 H 0.009 0.0497 0.6464   0.105361
 H 0.1443 0.9654 0.6609   0.115276
 H 0.8555 0.8148 0.5066   0.122637
 H 0.1664 0.8353 0.6095   0.118877
 H 0.64 0.9282 0.499   0.110235
 H 0.623 0.0199 0.5254   0.110689
 H 0.4788 0.9397 0.3142   0.386313
 H 0.3239 0.9664 0.205   0.359362
 H 0.1989 0.9631 0.3342   0.365081
 H 0.5655 0.2448 0.1629   0.105888
 H 0.3609 0.2407 0.38   0.122166
 H 0.6338 0.9826 0.2145   0.104415
 H 0.6915 0.0758 0.1593   0.100665
 H 0.3098 0.1394 0.9179   0.1014
 H 0.6174 0.1763 0.0118   0.118004
 H 0.2534 0.9388 0.098   0.088931
 H 0.1965 0.0182 0.0048   0.113814
 H 0.8263 0.1932 0.2032   0.100534
 H 0.0357 0.1789 0.9917   0.097836
 H 0.991 0.9503 0.3536   0.105361
 H 0.8557 0.0346 0.3391   0.115277
 H 0.1445 0.1852 0.4934   0.122637
 H 0.8336 0.1647 0.3905   0.118878
 H 0.36 0.0718 0.501   0.110235
 H 0.377 0.9801 0.4746   0.11069
 C 0.5363 0.7435 0.7315   -0.238813
 C 0.4707 0.7915 0.7841   -0.075594
 C 0.4581 0.8931 0.7588   -0.043825
 C 0.5132 0.9446 0.6786   0.223706
 C 0.5847 0.8956 0.6272   -0.016046
 C 0.5938 0.7938 0.6543   -0.053213
 C 0.3902 0.9444 0.8188   -0.156256
 C 0.5349 0.8306 0.0469   -0.337763
 C 0.6375 0.8755 0.0345   -0.045838
 C 0.6622 0.9424 0.9521   -0.041208
 C 0.5821 0.9627 0.8829   0.227472
 C 0.4764 0.9183 0.8952   -0.008808
 C 0.4533 0.853 0.9782   -0.037549
 C 0.7763 0.9891 0.9387   -0.14894
 C 0.0803 0.7981 0.9106   -0.294054
 C 0.1033 0.841 0.8215   -0.065089
 C 0.0233 0.934 0.7683   -0.040614
 C 0.9164 0.9844 0.8057   0.276897
 C 0.8941 0.9409 0.8964   -0.05311
 C 0.9775 0.8491 0.9478   -0.029193
 C 0.0488 0.9769 0.6706   -0.161108
 C 0.0235 0.8137 0.555   -0.234379
 C 0.8893 0.844 0.536   -0.0598
 C 0.8052 0.9173 0.5604   -0.018645
 C 0.8581 0.9605 0.6038   0.231137
 C 0.9937 0.9308 0.6221   -0.054025
 C 0.0753 0.8565 0.5974   -0.07045
 C 0.6572 0.9467 0.5452   -0.169434
 C 0.4637 0.2565 0.2685   -0.238813
 C 0.5293 0.2085 0.2159   -0.075594
 C 0.5419 0.1069 0.2412   -0.043825
 C 0.4868 0.0554 0.3214   0.223705
 C 0.4153 0.1044 0.3728   -0.016046
 C 0.4062 0.2062 0.3457   -0.053213
 C 0.6098 0.0556 0.1812   -0.156256
 C 0.4651 0.1694 0.9531   -0.337763
 C 0.3625 0.1245 0.9655   -0.045838
 C 0.3378 0.0576 0.0479   -0.041208
 C 0.4179 0.0373 0.1171   0.227471
 C 0.5236 0.0817 0.1048   -0.008808
 C 0.5467 0.147 0.0218   -0.037549
 C 0.2237 0.0109 0.0613   -0.14894
 C 0.9197 0.2019 0.0894   -0.294054
 C 0.8967 0.159 0.1785   -0.065089
 C 0.9767 0.066 0.2317   -0.040614
 C 0.0836 0.0156 0.1943   0.276897
 C 0.1059 0.0591 0.1036   -0.053109
 C 0.0225 0.1509 0.0522   -0.029193
 C 0.9512 0.0231 0.3294   -0.161108
 C 0.9765 0.1863 0.445   -0.23438
 C 0.1107 0.156 0.464   -0.0598
 C 0.1948 0.0827 0.4396   -0.018645
 C 0.1419 0.0395 0.3962   0.231137
 C 0.0063 0.0692 0.3779   -0.054025
 C 0.9247 0.1435 0.4026   -0.070451
 C 0.3428 0.0533 0.4548   -0.169435
 S 0.55077 0.61298 0.76758   1.493807
 S 0.51065 0.7416 0.15116   1.500327
 S 0.17757 0.67925 0.97846   1.500184
 S 0.12564 0.71919 0.52412   1.424785
 S 0.44923 0.38702 0.23242   1.493807
 S 0.48935 0.2584 0.84884   1.500327
 S 0.82243 0.32075 0.02154   1.500184
 S 0.87436 0.28081 0.47588   1.424785
 N 0.9468 0.8449 0.1961   0.835798
 N 0.0532 0.1551 0.8039   0.835798
 O 0.6221 0.5637 0.8504   -0.725433
 O 0.6242 0.5813 0.7032   -0.677496
 O 0.4194 0.6012 0.7788   -0.804439
 O 0.4945 0.0473 0.6486   -0.521863
 O 0.5935 0.7431 0.2125   -0.634405
 O 0.5437 0.6445 0.1443   -0.840867
 O 0.3695 0.7698 0.1702   -0.769105
 O 0.6005 0.0262 0.7997   -0.444365
 O 0.0876 0.625 0.0367   -0.754993
 O 0.2454 0.6302 0.921   -0.866743
 O 0.2717 0.6922 0.0248   -0.617962
 O 0.8318 0.0718 0.7546   -0.736232
 O 0.2491 0.6822 0.5722   -0.690752
 O 0.0566 0.6418 0.5455   -0.686314
 O 0.1464 0.7652 0.4301   -0.827162
 O 0.7705 0.0317 0.6254   -0.434295
 O 0.8389 0.8797 0.1624   -0.351757
 O 0.9565 0.8131 0.2789   -0.564983
 O 0.0521 0.8373 0.1541   -0.540207
 O 0.3779 0.4363 0.1496   -0.725432
 O 0.3758 0.4187 0.2968   -0.677496
 O 0.5806 0.3988 0.2212   -0.804439
 O 0.5055 0.9527 0.3514   -0.521863
 O 0.4065 0.2569 0.7875   -0.634405
 O 0.4563 0.3555 0.8557   -0.840867
 O 0.6305 0.2302 0.8298   -0.769105
 O 0.3995 0.9738 0.2003   -0.444365
 O 0.9124 0.375 0.9633   -0.754992
 O 0.7546 0.3698 0.079   -0.866743
 O 0.7283 0.3078 0.9752   -0.617962
 O 0.1682 0.9282 0.2454   -0.736232
 O 0.7509 0.3178 0.4278   -0.690752
 O 0.9434 0.3582 0.4545   -0.686315
 O 0.8536 0.2348 0.5699   -0.827162
 O 0.2295 0.9683 0.3746   -0.434295
 O 0.1611 0.1203 0.8376   -0.351757
 O 0.0435 0.1869 0.7211   -0.564983
 O 0.9479 0.1627 0.8459   -0.540207
