{'_ref': 'TBD', '_srcid': 'CAKYAQ_clean', 'submitters': [{'name': 'Dalar Nazarian Jeff Camp and David Sholl', 'email': 'dalar@gatech.edu jcamp6@gatech.edu'}], '_method': 'VASP DFT with PBE;DDEC'}
data_VH4C8O5
_symmetry_space_group_name_H-M   'P 1'
_cell_length_a   6.82490000
_cell_length_b   13.99510000
_cell_length_c   16.07300000
_cell_angle_alpha   90.00000000
_cell_angle_beta   90.00000000
_cell_angle_gamma   90.00000000
_symmetry_Int_Tables_number   1
_chemical_formula_structural   VH4C8O5
_chemical_formula_sum   'V4 H16 C32 O20'
_cell_volume   1535.21513437
_cell_formula_units_Z   4
loop_
 _symmetry_equiv_pos_site_id
 _symmetry_equiv_pos_as_xyz
  1  'x, y, z'
loop_
 _atom_site_label
 _atom_site_fract_x
 _atom_site_fract_y
 _atom_site_fract_z
 _atom_site_charge
 V 0.8145 0.23612 0.75   1.877665
 V 0.6855 0.73612 0.25   1.877665
 V 0.1855 0.76388 0.25   1.877667
 V 0.3145 0.26388 0.75   1.877667
 H 0.2189 0.0664 0.5547   0.112746
 H 0.8023 0.0409 0.5536   0.11169
 H 0.2811 0.5664 0.4453   0.112746
 H 0.6977 0.5409 0.4464   0.11169
 H 0.7811 0.9336 0.0547   0.112746
 H 0.1977 0.9591 0.0536   0.11169
 H 0.7189 0.4336 0.9453   0.112746
 H 0.3023 0.4591 0.9464   0.11169
 H 0.7811 0.9336 0.4453   0.112745
 H 0.1977 0.9591 0.4464   0.11169
 H 0.7189 0.4336 0.5547   0.112745
 H 0.3023 0.4591 0.5536   0.11169
 H 0.2189 0.0664 0.9453   0.112745
 H 0.8023 0.0409 0.9464   0.11169
 H 0.2811 0.5664 0.0547   0.112745
 H 0.6977 0.5409 0.0536   0.11169
 C 0.5251 0.13416 0.63564   0.730698
 C 0.5123 0.06478 0.56517   -0.123239
 C 0.3324 0.03975 0.53271   -0.05545
 C 0.6803 0.02454 0.53206   -0.057738
 C 0.9749 0.63416 0.36436   0.730698
 C 0.9877 0.56478 0.43483   -0.123239
 C 0.1676 0.53975 0.46729   -0.05545
 C 0.8197 0.52454 0.46794   -0.057738
 C 0.4749 0.86584 0.13564   0.730698
 C 0.4877 0.93522 0.06517   -0.123239
 C 0.6676 0.96025 0.03271   -0.05545
 C 0.3197 0.97546 0.03206   -0.057738
 C 0.0251 0.36584 0.86436   0.730698
 C 0.0123 0.43522 0.93483   -0.123239
 C 0.8324 0.46025 0.96729   -0.05545
 C 0.1803 0.47546 0.96794   -0.057738
 C 0.4749 0.86584 0.36436   0.730699
 C 0.4877 0.93522 0.43483   -0.123241
 C 0.6676 0.96025 0.46729   -0.055446
 C 0.3197 0.97546 0.46794   -0.057734
 C 0.0251 0.36584 0.63564   0.730699
 C 0.0123 0.43522 0.56517   -0.123241
 C 0.8324 0.46025 0.53271   -0.055446
 C 0.1803 0.47546 0.53206   -0.057734
 C 0.5251 0.13416 0.86436   0.730699
 C 0.5123 0.06478 0.93483   -0.123241
 C 0.3324 0.03975 0.96729   -0.055446
 C 0.6803 0.02454 0.96794   -0.057734
 C 0.9749 0.63416 0.13564   0.730699
 C 0.9877 0.56478 0.06517   -0.123241
 C 0.1676 0.53975 0.03271   -0.055446
 C 0.8197 0.52454 0.03206   -0.057734
 O 0.6928 0.15438 0.66255   -0.651083
 O 0.36591 0.1679 0.6623   -0.627619
 O 0.8072 0.65438 0.33745   -0.651083
 O 0.13409 0.6679 0.3377   -0.627619
 O 0.3072 0.84562 0.16255   -0.651083
 O 0.63409 0.8321 0.1623   -0.627619
 O 0.1928 0.34562 0.83745   -0.651083
 O 0.86591 0.3321 0.8377   -0.627619
 O 0.3072 0.84562 0.33745   -0.651083
 O 0.63409 0.8321 0.3377   -0.627619
 O 0.1928 0.34562 0.66255   -0.651083
 O 0.86591 0.3321 0.6623   -0.627619
 O 0.6928 0.15438 0.83745   -0.651083
 O 0.36591 0.1679 0.8377   -0.627619
 O 0.8072 0.65438 0.16255   -0.651083
 O 0.13409 0.6679 0.1623   -0.627619
 O 0.5313 0.30951 0.75   -0.757681
 O 0.9687 0.80951 0.25   -0.757681
 O 0.4687 0.69049 0.25   -0.757681
 O 0.0313 0.19049 0.75   -0.757681
