{'_ref': 'TBD', '_srcid': 'CAKYAQ_clean', 'submitters': [{'name': 'Dalar Nazarian Jeff Camp and David Sholl', 'email': 'dalar@gatech.edu jcamp6@gatech.edu'}], '_method': 'VASP DFT with PBE;DDEC'}
data_ZnH12C18N2O3
_symmetry_space_group_name_H-M   'P 1'
_cell_length_a   5.14620013
_cell_length_b   18.97980000
_cell_length_c   18.97980020
_cell_angle_alpha   88.94690081
_cell_angle_beta   82.20829983
_cell_angle_gamma   82.20839996
_symmetry_Int_Tables_number   1
_chemical_formula_structural   ZnH12C18N2O3
_chemical_formula_sum   'Zn4 H48 C72 N8 O12'
_cell_volume   1819.75758438
_cell_formula_units_Z   4
loop_
 _symmetry_equiv_pos_site_id
 _symmetry_equiv_pos_as_xyz
  1  'x, y, z'
loop_
 _atom_site_label
 _atom_site_fract_x
 _atom_site_fract_y
 _atom_site_fract_z
 _atom_site_charge
 Zn 0.19842 0.51214 0.94087   1.027851
 Zn 0.65142 0.48786 0.05913   1.028811
 Zn 0.28945 0.05912 0.51214   1.029261
 Zn 0.86071 0.94088 0.48786   1.029121
 H 0.4463 0.5959 0.8115   0.104376
 H 0.1808 0.5274 0.0596   0.409071
 H 0.7063 0.6325 0.9925   0.128804
 H 0.2995 0.7067 0.0491   0.115367
 H 0.0273 0.8149 0.0597   0.092615
 H 0.1344 0.9118 0.9878   0.088118
 H 0.504 0.9008 0.904   0.10327
 H 0.8937 0.8258 0.8388   0.117057
 H 0.4605 0.6374 0.7012   0.141783
 H 0.6075 0.6906 0.5926   0.117085
 H 0.4775 0.8825 0.6895   0.092754
 H 0.3385 0.827 0.7976   0.101479
 H 0.8537 0.4041 0.1885   0.10247
 H 0.7678 0.4726 0.9404   0.40908
 H 0.3313 0.3675 0.0075   0.128588
 H 0.0553 0.2933 0.9509   0.114971
 H 0.9019 0.1851 0.9403   0.092968
 H 0.034 0.0882 0.0122   0.088234
 H 0.3088 0.0992 0.096   0.104065
 H 0.5583 0.1742 0.1612   0.116895
 H 0.7991 0.3626 0.2988   0.142822
 H 0.8907 0.3094 0.4074   0.116686
 H 0.0495 0.1175 0.3105   0.092585
 H 0.9631 0.173 0.2024   0.103154
 H 0.9578 0.1885 0.5959   0.103257
 H 0.2918 0.9404 0.5274   0.409816
 H 0.6612 0.0075 0.6325   0.128083
 H 0.9938 0.9509 0.7067   0.116697
 H 0.1578 0.9403 0.8149   0.092997
 H 0.9538 0.0122 0.9118   0.08733
 H 0.5952 0.096 0.9008   0.103738
 H 0.2805 0.1612 0.8258   0.116551
 H 0.9021 0.2988 0.6374   0.143294
 H 0.7019 0.4074 0.6906   0.117356
 H 0.64 0.3105 0.8825   0.092088
 H 0.8345 0.2024 0.827   0.102041
 H 0.7422 0.8115 0.4041   0.104161
 H 0.7596 0.0596 0.4726   0.408958
 H 0.3012 0.9925 0.3675   0.12793
 H 0.6514 0.0491 0.2933   0.116411
 H 0.913 0.0597 0.1851   0.093239
 H 0.8778 0.9878 0.0882   0.087462
 H 0.592 0.904 0.0992   0.10411
 H 0.2675 0.8388 0.1742   0.11704
 H 0.8383 0.7012 0.3626   0.142346
 H 0.7999 0.5926 0.3094   0.11771
 H 0.833 0.6895 0.1175   0.092032
 H 0.8639 0.7976 0.173   0.102344
 C 0.30106 0.62637 0.83551   0.264365
 C 0.95642 0.66516 0.9098   0.175307
 C 0.74217 0.67138 0.96208   -0.202024
 C 0.57783 0.73704 0.9691   0.046755
 C 0.34379 0.74552 0.0197   -0.119389
 C 0.18255 0.80961 0.02589   -0.09403
 C 0.24628 0.8675 0.98234   -0.081298
 C 0.46487 0.86111 0.93275   -0.139811
 C 0.63644 0.79517 0.92335   0.054856
 C 0.85486 0.78749 0.86959   -0.201583
 C 0.00903 0.72272 0.86342   0.073902
 C 0.35259 0.72867 0.75455   0.164249
 C 0.4556 0.6875 0.6979   -0.202312
 C 0.5551 0.7183 0.6345   0.009132
 C 0.57667 0.79316 0.6339   -0.155199
 C 0.48032 0.83233 0.69143   -0.014973
 C 0.38304 0.80022 0.7549   -0.192302
 C 0.6592 0.8258 0.5624   0.694188
 C 0.76294 0.37363 0.16449   0.268166
 C 0.53138 0.33484 0.0902   0.178103
 C 0.37563 0.32862 0.03792   -0.203047
 C 0.28397 0.26296 0.0309   0.0474
 C 0.10901 0.25448 0.9803   -0.119154
 C 0.01805 0.19039 0.97411   -0.094823
 C 0.09612 0.1325 0.01766   -0.079609
 C 0.25873 0.13889 0.06725   -0.142842
 C 0.35496 0.20483 0.07665   0.055705
 C 0.51194 0.21251 0.13041   -0.202061
 C 0.59517 0.27728 0.13658   0.073944
 C 0.83581 0.27133 0.24545   0.165108
 C 0.841 0.3125 0.3021   -0.20383
 C 0.9079 0.2817 0.3655   0.009447
 C 0.00373 0.20684 0.3661   -0.152907
 C 0.00408 0.16767 0.30857   -0.016191
 C 0.93816 0.19978 0.2451   -0.194874
 C 0.0474 0.1742 0.4376   0.690838
 C 0.07257 0.16449 0.62637   0.26685
 C 0.37842 0.0902 0.66516   0.175643
 C 0.58645 0.03792 0.67138   -0.200465
 C 0.68513 0.0309 0.73704   0.047637
 C 0.91069 0.9803 0.74552   -0.120387
 C 0.00784 0.97411 0.80961   -0.095952
 C 0.88622 0.01766 0.8675   -0.078537
 C 0.67402 0.06725 0.86111   -0.142292
 C 0.56839 0.07665 0.79517   0.054587
 C 0.35765 0.13041 0.78749   -0.200429
 C 0.26825 0.13658 0.72272   0.073895
 C 0.91874 0.24545 0.72867   0.163513
 C 0.8569 0.3021 0.6875   -0.203954
 C 0.7266 0.3655 0.7183   0.009483
 C 0.63017 0.3661 0.79316   -0.15365
 C 0.68735 0.30857 0.83233   -0.014491
 C 0.81674 0.2451 0.80022   -0.19361
 C 0.515 0.4376 0.8258   0.691167
 C 0.86343 0.83551 0.37363   0.264443
 C 0.13378 0.9098 0.33484   0.17787
 C 0.29575 0.96208 0.32862   -0.202839
 C 0.45307 0.9691 0.26296   0.047386
 C 0.63651 0.0197 0.25448   -0.119812
 C 0.79156 0.02589 0.19039   -0.09594
 C 0.77138 0.98234 0.1325   -0.079019
 C 0.60238 0.93275 0.13889   -0.14143
 C 0.44021 0.92335 0.20483   0.054967
 C 0.27555 0.86959 0.21251   -0.201758
 C 0.12755 0.86342 0.27728   0.074115
 C 0.89286 0.75455 0.27133   0.163902
 C 0.8465 0.6979 0.3125   -0.202403
 C 0.8104 0.6345 0.2817   0.007599
 C 0.78943 0.6339 0.20684   -0.153144
 C 0.82825 0.69143 0.16767   -0.015078
 C 0.86206 0.7549 0.19978   -0.193683
 C 0.7784 0.5624 0.1742   0.692378
 N 0.14779 0.6066 0.89002   -0.464822
 N 0.23297 0.69558 0.81608   -0.048423
 N 0.64441 0.3934 0.10998   -0.468172
 N 0.74463 0.30442 0.18392   -0.048744
 N 0.24561 0.10998 0.6066   -0.466818
 N 0.07145 0.18392 0.69558   -0.04894
 N 0.96219 0.89002 0.3934   -0.46624
 N 0.95095 0.81608 0.30442   -0.048671
 O 0.32362 0.52882 0.02954   -0.931105
 O 0.63515 0.88769 0.55541   -0.611737
 O 0.77496 0.78275 0.51193   -0.663271
 O 0.88198 0.47118 0.97046   -0.931956
 O 0.07825 0.11231 0.44459   -0.610483
 O 0.06964 0.21725 0.48807   -0.661548
 O 0.14756 0.97046 0.52882   -0.932798
 O 0.47716 0.44459 0.88769   -0.610668
 O 0.44229 0.48807 0.78275   -0.661865
 O 0.64684 0.02954 0.47118   -0.932386
 O 0.80944 0.55541 0.11231   -0.611403
 O 0.71311 0.51193 0.21725   -0.662049
