{'_ref': 'TBD', '_srcid': 'CAKYAQ_clean', 'submitters': [{'name': 'Dalar Nazarian Jeff Camp and David Sholl', 'email': 'dalar@gatech.edu jcamp6@gatech.edu'}], '_method': 'VASP DFT with PBE;DDEC'}
data_ZnH11C18N2O3
_symmetry_space_group_name_H-M   'P 1'
_cell_length_a   5.28540014
_cell_length_b   18.89390024
_cell_length_c   18.89390000
_cell_angle_alpha   88.87900072
_cell_angle_beta   81.95959868
_cell_angle_gamma   81.95970095
_symmetry_Int_Tables_number   1
_chemical_formula_structural   ZnH11C18N2O3
_chemical_formula_sum   'Zn4 H44 C72 N8 O12'
_cell_volume   1849.86682922
_cell_formula_units_Z   4
loop_
 _symmetry_equiv_pos_site_id
 _symmetry_equiv_pos_as_xyz
  1  'x, y, z'
loop_
 _atom_site_label
 _atom_site_fract_x
 _atom_site_fract_y
 _atom_site_fract_z
 _atom_site_charge
 Zn 0.63067 0.05895 0.51135   0.980528
 Zn 0.20097 0.94105 0.48865   0.980878
 Zn 0.85797 0.51136 0.94105   0.979763
 Zn 0.31039 0.48864 0.05895   0.980842
 H 0.7481 0.1877 0.5979   0.101407
 H 0.2035 0.0081 0.6335   0.124386
 H 0.8562 0.9525 0.7081   0.113436
 H 0.5994 0.9432 0.8146   0.091491
 H 0.6331 0.0149 0.9111   0.086646
 H 0.9053 0.0984 0.8998   0.103131
 H 0.2262 0.1614 0.826   0.112619
 H 0.6392 0.3011 0.6395   0.137058
 H 0.6847 0.4092 0.6918   0.121068
 H 0.6791 0.3103 0.8817   0.095808
 H 0.6333 0.2033 0.8269   0.100162
 H 0.5337 0.8123 0.4021   0.102968
 H 0.8451 0.9919 0.3665   0.124005
 H 0.5168 0.0475 0.2919   0.113135
 H 0.3572 0.0568 0.1854   0.091859
 H 0.5591 0.9851 0.0889   0.086752
 H 0.9035 0.9016 0.1002   0.103603
 H 0.2136 0.8386 0.174   0.112195
 H 0.5798 0.6989 0.3605   0.138549
 H 0.7857 0.5908 0.3082   0.121801
 H 0.8711 0.6897 0.1183   0.096153
 H 0.6635 0.7967 0.1731   0.100984
 H 0.654 0.5979 0.8123   0.101952
 H 0.163 0.6335 0.9919   0.122687
 H 0.4357 0.7081 0.0475   0.113299
 H 0.586 0.8146 0.0568   0.090717
 H 0.4558 0.9111 0.9851   0.086202
 H 0.1949 0.8998 0.9016   0.102277
 H 0.9478 0.826 0.8386   0.1129
 H 0.7213 0.6395 0.6989   0.139228
 H 0.6235 0.6918 0.5908   0.121854
 H 0.4392 0.8817 0.6897   0.095642
 H 0.5398 0.8269 0.7967   0.099955
 H 0.0642 0.4021 0.1877   0.103153
 H 0.7884 0.3665 0.0081   0.123071
 H 0.1913 0.2919 0.9525   0.112805
 H 0.4574 0.1854 0.9432   0.092144
 H 0.352 0.0889 0.0149   0.087128
 H 0.9963 0.1002 0.0984   0.103377
 H 0.6124 0.174 0.1614   0.112945
 H 0.0597 0.3605 0.3011   0.138918
 H 0.9061 0.3082 0.4092   0.122171
 H 0.0106 0.1183 0.3103   0.096898
 H 0.1634 0.1731 0.2033   0.100411
 C 0.63004 0.16439 0.62753   0.255331
 C 0.363 0.09058 0.66562   0.174189
 C 0.20626 0.03822 0.67166   -0.180496
 C 0.04943 0.03128 0.73746   0.037081
 C 0.86942 0.98157 0.74619   -0.113086
 C 0.71656 0.97604 0.80944   -0.093518
 C 0.735 0.02009 0.86751   -0.07833
 C 0.8979 0.06959 0.86101   -0.14047
 C 0.05851 0.07808 0.7951   0.054046
 C 0.21948 0.13142 0.78802   -0.201061
 C 0.36723 0.13786 0.72288   0.064712
 C 0.59524 0.24631 0.72961   0.152901
 C 0.6357 0.304 0.6886   -0.190353
 C 0.6727 0.3678 0.7188   0.002492
 C 0.69301 0.3662 0.79518   -0.148264
 C 0.6705 0.3093 0.8329   -0.013292
 C 0.6328 0.2455 0.8007   -0.17983
 C 0.7433 0.4326 0.8308   0.6666
 C 0.42196 0.83561 0.37247   0.255907
 C 0.1192 0.90942 0.33438   0.172497
 C 0.91614 0.96178 0.32834   -0.179071
 C 0.81817 0.96872 0.26254   0.036537
 C 0.59718 0.01843 0.25381   -0.112058
 C 0.50204 0.02396 0.19056   -0.093873
 C 0.6226 0.97991 0.13249   -0.080283
 C 0.8285 0.93041 0.13899   -0.139218
 C 0.93169 0.92192 0.2049   0.054919
 C 0.13892 0.86858 0.21198   -0.202294
 C 0.22797 0.86214 0.27712   0.067176
 C 0.57116 0.75369 0.27039   0.153883
 C 0.6283 0.696 0.3114   -0.19236
 C 0.7593 0.6322 0.2812   0.000594
 C 0.85439 0.6338 0.20482   -0.142563
 C 0.8127 0.6907 0.1671   -0.018329
 C 0.679 0.7545 0.1993   -0.179646
 C 0.0067 0.5674 0.1692   0.665437
 C 0.74243 0.62753 0.83561   0.254775
 C 0.97138 0.66562 0.90942   0.174826
 C 0.12208 0.67166 0.96178   -0.179245
 C 0.21311 0.73746 0.96872   0.036438
 C 0.38439 0.74619 0.01843   -0.111722
 C 0.474 0.80944 0.02396   -0.093172
 C 0.39749 0.86751 0.97991   -0.078071
 C 0.24109 0.86101 0.93041   -0.13837
 C 0.14639 0.7951 0.92192   0.054575
 C 0.9925 0.78802 0.86858   -0.202957
 C 0.90989 0.72288 0.86214   0.067464
 C 0.67515 0.72961 0.75369   0.154701
 C 0.6757 0.6886 0.696   -0.195914
 C 0.6085 0.7188 0.6322   0.002437
 C 0.51181 0.79518 0.6338   -0.144171
 C 0.4966 0.8329 0.6907   -0.016519
 C 0.5665 0.8007 0.7545   -0.17872
 C 0.4259 0.8308 0.5674   0.668487
 C 0.20557 0.37247 0.16439   0.255228
 C 0.54642 0.33438 0.09058   0.173265
 C 0.75552 0.32834 0.03822   -0.177183
 C 0.91929 0.26254 0.03128   0.035197
 C 0.14901 0.25381 0.98157   -0.108607
 C 0.3074 0.19056 0.97604   -0.097367
 C 0.24491 0.13249 0.02009   -0.079995
 C 0.03251 0.13899 0.06959   -0.137712
 C 0.86341 0.2049 0.07808   0.054215
 C 0.6491 0.21198 0.13142   -0.202269
 C 0.49491 0.27712 0.13786   0.066522
 C 0.15845 0.27039 0.24631   0.154681
 C 0.0603 0.3114 0.304   -0.193574
 C 0.9595 0.2812 0.3678   0.00152
 C 0.94079 0.20482 0.3662   -0.146168
 C 0.0202 0.1671 0.3093   -0.016359
 C 0.1217 0.1993 0.2455   -0.179788
 C 0.8241 0.1692 0.4326   0.665156
 N 0.53388 0.10962 0.60722   -0.431476
 N 0.54056 0.18407 0.69621   -0.035506
 N 0.25072 0.89038 0.39278   -0.432858
 N 0.42084 0.81593 0.30379   -0.037949
 N 0.8589 0.60722 0.89038   -0.431328
 N 0.76323 0.69621 0.81593   -0.038972
 N 0.3565 0.39278 0.10962   -0.432939
 N 0.27537 0.30379 0.18407   -0.038864
 O 0.33701 0.03016 0.47682   -0.706933
 O 0.71479 0.44232 0.8881   -0.464446
 O 0.7684 0.4883 0.7829   -0.597672
 O 0.84399 0.96984 0.52318   -0.707011
 O 0.04521 0.55768 0.1119   -0.464454
 O 0.0396 0.5117 0.2171   -0.598116
 O 0.18617 0.47682 0.96984   -0.707027
 O 0.39711 0.8881 0.55768   -0.464924
 O 0.4487 0.7829 0.5117   -0.599935
 O 0.63283 0.52318 0.03016   -0.706598
 O 0.84289 0.1119 0.44232   -0.463672
 O 0.7433 0.2171 0.4883   -0.5978
