{'_ref': 'TBD', '_srcid': 'CAKYAQ_clean', 'submitters': [{'name': 'Dalar Nazarian Jeff Camp and David Sholl', 'email': 'dalar@gatech.edu jcamp6@gatech.edu'}], '_method': 'VASP DFT with PBE;DDEC'}
data_ZnH11C18N2O3
_symmetry_space_group_name_H-M   'P 1'
_cell_length_a   5.08829981
_cell_length_b   19.05950000
_cell_length_c   19.05950019
_cell_angle_alpha   88.97910141
_cell_angle_beta   82.32930148
_cell_angle_gamma   82.32899542
_symmetry_Int_Tables_number   1
_chemical_formula_structural   ZnH11C18N2O3
_chemical_formula_sum   'Zn4 H44 C72 N8 O12'
_cell_volume   1815.46515664
_cell_formula_units_Z   4
loop_
 _symmetry_equiv_pos_site_id
 _symmetry_equiv_pos_as_xyz
  1  'x, y, z'
loop_
 _atom_site_label
 _atom_site_fract_x
 _atom_site_fract_y
 _atom_site_fract_z
 _atom_site_charge
 Zn 0.4704 0.44239 0.01579   0.931324
 Zn 0.92858 0.55761 0.98421   0.932554
 Zn 0.08721 0.98421 0.44239   0.931723
 Zn 0.51381 0.01579 0.55761   0.932722
 H 0.7345 0.3148 0.1006   0.12146
 H 0.9736 0.4917 0.1323   0.135581
 H 0.5607 0.5495 0.2061   0.122726
 H 0.2819 0.5602 0.3132   0.09702
 H 0.3773 0.4846 0.4086   0.090037
 H 0.7525 0.4023 0.3991   0.104548
 H 0.1476 0.3377 0.3255   0.118197
 H 0.9948 0.2604 0.1834   0.113509
 H 0.1979 0.1607 0.2395   0.099518
 H 0.477 0.1295 0.3435   0.121251
 H 0.2713 0.226 0.2854   0.098911
 H 0.1499 0.6852 0.8994   0.121672
 H 0.5976 0.5083 0.8677   0.134223
 H 0.3163 0.4505 0.7939   0.1234
 H 0.1553 0.4398 0.6868   0.096193
 H 0.2705 0.5154 0.5914   0.09005
 H 0.5539 0.5977 0.6009   0.104916
 H 0.8108 0.6623 0.6745   0.119509
 H 0.4386 0.7396 0.8166   0.115018
 H 0.5981 0.8393 0.7605   0.099741
 H 0.95 0.8705 0.6565   0.120981
 H 0.7827 0.774 0.7146   0.097969
 H 0.9507 0.8994 0.3148   0.121794
 H 0.5347 0.8677 0.4917   0.134938
 H 0.8898 0.7939 0.5495   0.123383
 H 0.1579 0.6868 0.5602   0.096299
 H 0.1381 0.5914 0.4846   0.088996
 H 0.8452 0.6009 0.4023   0.105151
 H 0.5147 0.6745 0.3377   0.119547
 H 0.7448 0.8166 0.2604   0.114047
 H 0.6414 0.7605 0.1607   0.099758
 H 0.3935 0.6565 0.1295   0.120562
 H 0.5027 0.7146 0.226   0.099036
 H 0.1649 0.1006 0.6852   0.121088
 H 0.8941 0.1323 0.5083   0.135037
 H 0.2332 0.2061 0.4505   0.122717
 H 0.4049 0.3132 0.4398   0.096669
 H 0.2141 0.4086 0.5154   0.088881
 H 0.8484 0.3991 0.5977   0.104522
 H 0.5269 0.3255 0.6623   0.119021
 H 0.8218 0.1834 0.7396   0.115314
 H 0.5626 0.2395 0.8393   0.100879
 H 0.1795 0.3435 0.8705   0.122227
 H 0.4433 0.2854 0.774   0.099595
 C 0.58147 0.33736 0.1297   0.209987
 C 0.22186 0.41045 0.16643   0.166097
 C 0.00727 0.46147 0.17119   -0.174487
 C 0.83634 0.46812 0.2358   0.040861
 C 0.60204 0.51939 0.24453   -0.113617
 C 0.4359 0.5256 0.3078   -0.094225
 C 0.49443 0.48025 0.36529   -0.081652
 C 0.71423 0.43088 0.35946   -0.136188
 C 0.88908 0.42145 0.29399   0.052337
 C 0.11057 0.36852 0.28734   -0.19125
 C 0.27244 0.36304 0.22308   0.052904
 C 0.61989 0.2544 0.23062   0.132042
 C 0.84618 0.1345 0.29494   -0.118939
 C 0.97873 0.07011 0.32943   0.597651
 C 0.8892 0.2339 0.2159   -0.208037
 C 0.0099 0.1744 0.2484   -0.001514
 C 0.5814 0.1553 0.3099   0.010919
 C 0.4597 0.2135 0.2771   -0.174285
 C 0.04853 0.66264 0.8703   0.211157
 C 0.79874 0.58955 0.83357   0.164384
 C 0.63993 0.53853 0.82881   -0.172172
 C 0.54026 0.53188 0.7642   0.041904
 C 0.36596 0.48061 0.75547   -0.116094
 C 0.2693 0.4744 0.6922   -0.092316
 C 0.33997 0.51975 0.63471   -0.081803
 C 0.50457 0.56912 0.64054   -0.137141
 C 0.60452 0.57855 0.70601   0.0538
 C 0.76643 0.63148 0.71266   -0.194934
 C 0.85856 0.63696 0.77692   0.054868
 C 0.10491 0.7456 0.76938   0.132088
 C 0.27562 0.8655 0.70506   -0.118133
 C 0.37827 0.92989 0.67057   0.597528
 C 0.339 0.7661 0.7841   -0.209351
 C 0.4327 0.8256 0.7516   -0.001859
 C 0.0466 0.8447 0.6901   0.009989
 C 0.9503 0.7865 0.7229   -0.172481
 C 0.08117 0.8703 0.33736   0.210816
 C 0.36769 0.83357 0.41045   0.163912
 C 0.53126 0.82881 0.46147   -0.173387
 C 0.69554 0.7642 0.46812   0.041946
 C 0.87857 0.75547 0.51939   -0.115031
 C 0.0385 0.6922 0.5256   -0.09359
 C 0.02532 0.63471 0.48025   -0.080811
 C 0.85489 0.64054 0.43088   -0.136513
 C 0.68947 0.70601 0.42145   0.053066
 C 0.52091 0.71266 0.36852   -0.194593
 C 0.36452 0.77692 0.36304   0.055048
 C 0.12571 0.76938 0.2544   0.131434
 C 0.01932 0.70506 0.1345   -0.118338
 C 0.95116 0.67057 0.07011   0.598782
 C 0.8769 0.7841 0.2339   -0.207094
 C 0.8157 0.7516 0.1744   -0.002899
 C 0.2633 0.6901 0.1553   0.011259
 C 0.3268 0.7229 0.2135   -0.174743
 C 0.28883 0.1297 0.66264   0.211712
 C 0.61171 0.16643 0.58955   0.165044
 C 0.82154 0.17119 0.53853   -0.173625
 C 0.92786 0.2358 0.53188   0.041534
 C 0.15343 0.24453 0.48061   -0.114017
 C 0.2563 0.3078 0.4744   -0.093932
 C 0.14028 0.36529 0.51975   -0.080347
 C 0.92631 0.35946 0.56912   -0.135488
 C 0.81693 0.29399 0.57855   0.051972
 C 0.60209 0.28734 0.63148   -0.19406
 C 0.50448 0.22308 0.63696   0.054892
 C 0.14949 0.23062 0.7456   0.132748
 C 0.85888 0.29494 0.8655   -0.11844
 C 0.69184 0.32943 0.92989   0.598488
 C 0.8949 0.2159 0.7661   -0.20955
 C 0.7417 0.2484 0.8256   -0.003155
 C 0.1087 0.3099 0.8447   0.009172
 C 0.2632 0.2771 0.7865   -0.175735
 N 0.42452 0.39244 0.10932   -0.416175
 N 0.5012 0.31638 0.19662   -0.024539
 N 0.92628 0.60756 0.89068   -0.416936
 N 0.0142 0.68362 0.80338   -0.025357
 N 0.18304 0.89068 0.39244   -0.416726
 N 0.18242 0.80338 0.31638   -0.024617
 N 0.46616 0.10932 0.60756   -0.416909
 N 0.30218 0.19662 0.68362   -0.025556
 O 0.59522 0.53229 0.02967   -0.612251
 O 0.86356 0.05152 0.38796   -0.513128
 O 0.2363 0.0537 0.3133   -0.556827
 O 0.15718 0.46771 0.97033   -0.612565
 O 0.30304 0.94848 0.61204   -0.513383
 O 0.6033 0.9463 0.6867   -0.557266
 O 0.87249 0.97033 0.53229   -0.612061
 O 0.08492 0.61204 0.05152   -0.51439
 O 0.71 0.6867 0.0537   -0.556962
 O 0.37511 0.02967 0.46771   -0.612979
 O 0.74848 0.38796 0.94848   -0.512779
 O 0.4504 0.3133 0.9463   -0.557318
