{'_ref': 'TBD', '_srcid': 'CAKYAQ_clean', 'submitters': [{'name': 'Dalar Nazarian Jeff Camp and David Sholl', 'email': 'dalar@gatech.edu jcamp6@gatech.edu'}], '_method': 'VASP DFT with PBE;DDEC'}
data_CoHC5O4
_symmetry_space_group_name_H-M   'P 1'
_cell_length_a   6.91039974
_cell_length_b   7.42529982
_cell_length_c   8.25440000
_cell_angle_alpha   90.39699867
_cell_angle_beta   109.83500211
_cell_angle_gamma   93.13700274
_symmetry_Int_Tables_number   1
_chemical_formula_structural   CoHC5O4
_chemical_formula_sum   'Co2 H2 C10 O8'
_cell_volume   397.676858124
_cell_formula_units_Z   2
loop_
 _symmetry_equiv_pos_site_id
 _symmetry_equiv_pos_as_xyz
  1  'x, y, z'
loop_
 _atom_site_label
 _atom_site_fract_x
 _atom_site_fract_y
 _atom_site_fract_z
 _atom_site_charge
 Co 0.0 0.5 0.0   1.093786
 Co 0.5 0.0 0.0   1.106437
 H 0.442 0.795 0.547   0.116696
 H 0.558 0.205 0.453   0.116695
 C 0.5356 0.5681 0.6665   -0.117246
 C 0.5804 0.3921 0.642   -0.106837
 C 0.4561 0.6745 0.5242   -0.019841
 C 0.648 0.2595 0.7847   0.728069
 C 0.5745 0.657 0.8396   0.712676
 C 0.4644 0.4319 0.3335   -0.117252
 C 0.4196 0.6079 0.358   -0.106822
 C 0.5439 0.3255 0.4758   -0.019826
 C 0.352 0.7405 0.2153   0.728068
 C 0.4255 0.343 0.1604   0.712677
 O 0.4441 0.7619 0.8503   -0.595072
 O 0.737 0.6295 0.9623   -0.61822
 O 0.8293 0.2682 0.8884   -0.613996
 O 0.5117 0.143 0.7877   -0.586352
 O 0.5559 0.2381 0.1497   -0.595073
 O 0.263 0.3705 0.0377   -0.61822
 O 0.1707 0.7318 0.1116   -0.613996
 O 0.4883 0.857 0.2123   -0.586352
