{'_ref': 'TBD', '_srcid': 'CAKYAQ_clean', 'submitters': [{'name': 'Dalar Nazarian Jeff Camp and David Sholl', 'email': 'dalar@gatech.edu jcamp6@gatech.edu'}], '_method': 'VASP DFT with PBE;DDEC'}
data_Cr3Cu3H36C42N6Cl7O13
_symmetry_space_group_name_H-M   'P 1'
_cell_length_a   13.46900000
_cell_length_b   13.46899986
_cell_length_c   27.51000000
_cell_angle_alpha   90.00000000
_cell_angle_beta   90.00000000
_cell_angle_gamma   120.00000035
_symmetry_Int_Tables_number   1
_chemical_formula_structural   Cr3Cu3H36C42N6Cl7O13
_chemical_formula_sum   'Cr6 Cu6 H72 C84 N12 Cl14 O26'
_cell_volume   4322.07124813
_cell_formula_units_Z   2
loop_
 _symmetry_equiv_pos_site_id
 _symmetry_equiv_pos_as_xyz
  1  'x, y, z'
loop_
 _atom_site_label
 _atom_site_fract_x
 _atom_site_fract_y
 _atom_site_fract_z
 _atom_site_charge
 Cr 0.4855 0.7902 0.75   1.566534
 Cr 0.3047 0.5145 0.75   1.566572
 Cr 0.2098 0.6953 0.75   1.566558
 Cr 0.3047 0.7902 0.25   1.566534
 Cr 0.2098 0.5145 0.25   1.566572
 Cr 0.4855 0.6953 0.25   1.566558
 Cu 0.7778 0.8889 0.0   0.686088
 Cu 0.1111 0.2222 0.0   0.686057
 Cu 0.1111 0.8889 0.0   0.686088
 Cu 0.7778 0.8889 0.5   0.686088
 Cu 0.1111 0.2222 0.5   0.686057
 Cu 0.1111 0.8889 0.5   0.686088
 H 0.8371 0.8503 0.9206   0.331928
 H 0.8466 0.7749 0.9562   0.294312
 H 0.5452 0.4247 0.9395   0.107828
 H 0.7016 0.588 0.9717   0.115521
 H 0.6663 0.7816 0.8688   0.123363
 H 0.4493 0.4399 0.872   0.104672
 H 0.0132 0.1629 0.9206   0.331928
 H 0.9283 0.1534 0.9562   0.294314
 H 0.8795 0.4548 0.9395   0.107828
 H 0.8864 0.2984 0.9717   0.115521
 H 0.1153 0.3337 0.8688   0.123362
 H 0.9906 0.5507 0.872   0.104672
 H 0.1497 0.9868 0.9206   0.331927
 H 0.2251 0.0717 0.9562   0.294312
 H 0.5753 0.1205 0.9395   0.107829
 H 0.412 0.1136 0.9717   0.115521
 H 0.2184 0.8847 0.8688   0.123363
 H 0.5601 0.0094 0.872   0.104673
 H 0.8371 0.8503 0.5794   0.331928
 H 0.8466 0.7749 0.5438   0.294312
 H 0.5452 0.4247 0.5605   0.107828
 H 0.7016 0.588 0.5283   0.115521
 H 0.6663 0.7816 0.6312   0.123364
 H 0.4493 0.4399 0.628   0.104672
 H 0.0132 0.1629 0.5794   0.331928
 H 0.9283 0.1534 0.5438   0.294314
 H 0.8795 0.4548 0.5605   0.107828
 H 0.8864 0.2984 0.5283   0.115521
 H 0.1153 0.3337 0.6312   0.123362
 H 0.9906 0.5507 0.628   0.104672
 H 0.1497 0.9868 0.5794   0.331927
 H 0.2251 0.0717 0.5438   0.294312
 H 0.5753 0.1205 0.5605   0.107829
 H 0.412 0.1136 0.5283   0.115521
 H 0.2184 0.8847 0.6312   0.123363
 H 0.5601 0.0094 0.628   0.104673
 H 0.0132 0.8503 0.4206   0.331928
 H 0.9283 0.7749 0.4562   0.294312
 H 0.8795 0.4247 0.4395   0.107829
 H 0.8864 0.588 0.4717   0.115521
 H 0.1153 0.7816 0.3688   0.123363
 H 0.9906 0.4399 0.372   0.104672
 H 0.1497 0.1629 0.4206   0.331928
 H 0.2251 0.1534 0.4562   0.294313
 H 0.5753 0.4548 0.4395   0.107829
 H 0.412 0.2984 0.4717   0.115521
 H 0.2184 0.3337 0.3688   0.123362
 H 0.5601 0.5507 0.372   0.104672
 H 0.8371 0.9868 0.4206   0.331927
 H 0.8466 0.0717 0.4562   0.294312
 H 0.5452 0.1205 0.4395   0.107829
 H 0.7016 0.1136 0.4717   0.115521
 H 0.6663 0.8847 0.3688   0.123363
 H 0.4493 0.0094 0.372   0.104673
 H 0.0132 0.8503 0.0794   0.331928
 H 0.9283 0.7749 0.0438   0.294312
 H 0.8795 0.4247 0.0605   0.107829
 H 0.8864 0.588 0.0283   0.115521
 H 0.1153 0.7816 0.1312   0.123364
 H 0.9906 0.4399 0.128   0.104672
 H 0.1497 0.1629 0.0794   0.331928
 H 0.2251 0.1534 0.0438   0.294313
 H 0.5753 0.4548 0.0605   0.107829
 H 0.412 0.2984 0.0283   0.115521
 H 0.2184 0.3337 0.1312   0.123363
 H 0.5601 0.5507 0.128   0.104672
 H 0.8371 0.9868 0.0794   0.331927
 H 0.8466 0.0717 0.0438   0.294312
 H 0.5452 0.1205 0.0605   0.107829
 H 0.7016 0.1136 0.0283   0.115521
 H 0.6663 0.8847 0.1312   0.123363
 H 0.4493 0.0094 0.128   0.104673
 C 0.5696 0.4967 0.9253   -0.069995
 C 0.663 0.5942 0.9445   -0.150359
 C 0.6991 0.7006 0.9234   0.22595
 C 0.6419 0.7096 0.8831   -0.144527
 C 0.5486 0.6123 0.8639   -0.139751
 C 0.5124 0.5057 0.885   -0.040189
 C 0.4957 0.6288 0.8192   0.792256
 C 0.9271 0.4304 0.9253   -0.069995
 C 0.9312 0.337 0.9445   -0.150359
 C 0.0015 0.3009 0.9234   0.225948
 C 0.0677 0.3581 0.8831   -0.144526
 C 0.0637 0.4514 0.8639   -0.139751
 C 0.9933 0.4876 0.885   -0.040188
 C 0.1331 0.5043 0.8192   0.792258
 C 0.5033 0.0729 0.9253   -0.069995
 C 0.4058 0.0688 0.9445   -0.15036
 C 0.2994 0.9985 0.9234   0.225949
 C 0.2904 0.9323 0.8831   -0.144526
 C 0.3877 0.9363 0.8639   -0.139749
 C 0.4943 0.0067 0.885   -0.040189
 C 0.3712 0.8669 0.8192   0.792255
 C 0.5696 0.4967 0.5747   -0.069995
 C 0.663 0.5942 0.5555   -0.150359
 C 0.6991 0.7006 0.5766   0.22595
 C 0.6419 0.7096 0.6169   -0.144527
 C 0.5486 0.6123 0.6361   -0.139751
 C 0.5124 0.5057 0.615   -0.040189
 C 0.4957 0.6288 0.6808   0.792256
 C 0.9271 0.4304 0.5747   -0.069995
 C 0.9312 0.337 0.5555   -0.150359
 C 0.0015 0.3009 0.5766   0.225948
 C 0.0677 0.3581 0.6169   -0.144526
 C 0.0637 0.4514 0.6361   -0.139751
 C 0.9933 0.4876 0.615   -0.040188
 C 0.1331 0.5043 0.6808   0.792258
 C 0.5033 0.0729 0.5747   -0.069995
 C 0.4058 0.0688 0.5555   -0.15036
 C 0.2994 0.9985 0.5766   0.225949
 C 0.2904 0.9323 0.6169   -0.144526
 C 0.3877 0.9363 0.6361   -0.139749
 C 0.4943 0.0067 0.615   -0.040189
 C 0.3712 0.8669 0.6808   0.792254
 C 0.9271 0.4967 0.4253   -0.069995
 C 0.9312 0.5942 0.4445   -0.150359
 C 0.0015 0.7006 0.4234   0.22595
 C 0.0677 0.7096 0.3831   -0.144527
 C 0.0637 0.6123 0.3639   -0.139751
 C 0.9933 0.5057 0.385   -0.040189
 C 0.1331 0.6288 0.3192   0.792256
 C 0.5033 0.4304 0.4253   -0.069995
 C 0.4058 0.337 0.4445   -0.150358
 C 0.2994 0.3009 0.4234   0.225948
 C 0.2904 0.3581 0.3831   -0.144526
 C 0.3877 0.4514 0.3639   -0.139751
 C 0.4943 0.4876 0.385   -0.040189
 C 0.3712 0.5043 0.3192   0.792258
 C 0.5696 0.0729 0.4253   -0.069995
 C 0.663 0.0688 0.4445   -0.15036
 C 0.6991 0.9985 0.4234   0.225949
 C 0.6419 0.9323 0.3831   -0.144526
 C 0.5486 0.9363 0.3639   -0.139749
 C 0.5124 0.0067 0.385   -0.040189
 C 0.4957 0.8669 0.3192   0.792255
 C 0.9271 0.4967 0.0747   -0.069995
 C 0.9312 0.5942 0.0555   -0.150359
 C 0.0015 0.7006 0.0766   0.22595
 C 0.0677 0.7096 0.1169   -0.144527
 C 0.0637 0.6123 0.1361   -0.139751
 C 0.9933 0.5057 0.115   -0.040189
 C 0.1331 0.6288 0.1808   0.792256
 C 0.5033 0.4304 0.0747   -0.069995
 C 0.4058 0.337 0.0555   -0.150358
 C 0.2994 0.3009 0.0766   0.225948
 C 0.2904 0.3581 0.1169   -0.144526
 C 0.3877 0.4514 0.1361   -0.139751
 C 0.4943 0.4876 0.115   -0.040189
 C 0.3712 0.5043 0.1808   0.792258
 C 0.5696 0.0729 0.0747   -0.069995
 C 0.663 0.0688 0.0555   -0.15036
 C 0.6991 0.9985 0.0766   0.225949
 C 0.6419 0.9323 0.1169   -0.144526
 C 0.5486 0.9363 0.1361   -0.139749
 C 0.5124 0.0067 0.115   -0.040189
 C 0.4957 0.8669 0.1808   0.792255
 N 0.7992 0.7997 0.945   -0.603146
 N 0.000500000000002 0.2008 0.945   -0.603141
 N 0.2003 0.9995 0.945   -0.603146
 N 0.7992 0.7997 0.555   -0.603146
 N 0.000500000000002 0.2008 0.555   -0.603141
 N 0.2003 0.9995 0.555   -0.603146
 N 0.000500000000002 0.7997 0.445   -0.603147
 N 0.2003 0.2008 0.445   -0.603141
 N 0.7992 0.9995 0.445   -0.603146
 N 0.000500000000002 0.7997 0.055   -0.603147
 N 0.2003 0.2008 0.055   -0.603141
 N 0.7992 0.9995 0.055   -0.603146
 Cl 0.74 0.7414 0.05315   -0.509553
 Cl 0.0014 0.26 0.05315   -0.509544
 Cl 0.2586 0.9986 0.05315   -0.509555
 Cl 0.74 0.7414 0.44685   -0.509553
 Cl 0.0014 0.26 0.44685   -0.509544
 Cl 0.2586 0.9986 0.44685   -0.509555
 Cl 0.0014 0.7414 0.55315   -0.509553
 Cl 0.2586 0.26 0.55315   -0.509544
 Cl 0.74 0.9986 0.55315   -0.509554
 Cl 0.0014 0.7414 0.94685   -0.509553
 Cl 0.2586 0.26 0.94685   -0.509544
 Cl 0.74 0.9986 0.94685   -0.509554
 Cl 0.0 0.0 0.0   -0.558657
 Cl 0.0 0.0 0.5   -0.558657
 O 0.534 0.7255 0.8031   -0.65269
 O 0.4171 0.5427 0.8036   -0.631169
 O 0.1915 0.466 0.8031   -0.652693
 O 0.1256 0.5829 0.8036   -0.63117
 O 0.2745 0.8085 0.8031   -0.652695
 O 0.4573 0.8744 0.8036   -0.631171
 O 0.534 0.7255 0.6969   -0.65269
 O 0.4171 0.5427 0.6964   -0.631169
 O 0.1915 0.466 0.6969   -0.652693
 O 0.1256 0.5829 0.6964   -0.63117
 O 0.2745 0.8085 0.6969   -0.652695
 O 0.4573 0.8744 0.6964   -0.631171
 O 0.1915 0.7255 0.3031   -0.65269
 O 0.1256 0.5427 0.3036   -0.631169
 O 0.2745 0.466 0.3031   -0.652693
 O 0.4573 0.5829 0.3036   -0.63117
 O 0.534 0.8085 0.3031   -0.652695
 O 0.4171 0.8744 0.3036   -0.631171
 O 0.1915 0.7255 0.1969   -0.65269
 O 0.1256 0.5427 0.1964   -0.631169
 O 0.2745 0.466 0.1969   -0.652693
 O 0.4573 0.5829 0.1964   -0.63117
 O 0.534 0.8085 0.1969   -0.652694
 O 0.4171 0.8744 0.1964   -0.631171
 O 0.33333 0.66666 0.75   -1.125954
 O 0.33333 0.66666 0.25   -1.125954
