{'_ref': 'TBD', '_srcid': 'CAKYAQ_clean', 'submitters': [{'name': 'Dalar Nazarian Jeff Camp and David Sholl', 'email': 'dalar@gatech.edu jcamp6@gatech.edu'}], '_method': 'VASP DFT with PBE;DDEC'}
data_Zn3H22C38(NO3)4
_symmetry_space_group_name_H-M   'P 1'
_cell_length_a   9.47200017
_cell_length_b   11.49769967
_cell_length_c   22.50389430
_cell_angle_alpha   91.57067832
_cell_angle_beta   102.14883406
_cell_angle_gamma   114.32470117
_symmetry_Int_Tables_number   1
_chemical_formula_structural   Zn3H22C38(NO3)4
_chemical_formula_sum   'Zn6 H44 C76 N8 O24'
_cell_volume   2165.24790297
_cell_formula_units_Z   2
loop_
 _symmetry_equiv_pos_site_id
 _symmetry_equiv_pos_as_xyz
  1  'x, y, z'
loop_
 _atom_site_label
 _atom_site_fract_x
 _atom_site_fract_y
 _atom_site_fract_z
 _atom_site_charge
 Zn 0.8057 0.16271 0.73863   0.963048
 Zn 0.40436 0.33729 0.76137   0.963807
 Zn 0.1943 0.83729 0.26137   0.963048
 Zn 0.59564 0.66271 0.23863   0.963807
 Zn 0.83435 0.75 0.75   1.078826
 Zn 0.16565 0.25 0.25   1.078826
 H 0.3176 0.9469 0.5709   0.097684
 H 0.0665 0.9333 0.5257   0.094088
 H 0.9225 0.9815 0.5851   0.086858
 H 0.9165 0.8329 0.1679   0.084234
 H 0.8346 0.8271 0.0635   0.136016
 H 0.252 0.8343 0.0491   0.13612
 H 0.3201 0.8376 0.153   0.102377
 H 0.7476 0.7232 0.9648   0.14009
 H 0.682 0.7021 0.8603   0.093379
 H 0.125 0.8966 0.857   0.087329
 H 0.2041 0.9205 0.9607   0.141608
 H 0.2998 0.5531 0.9291   0.09938
 H 0.1075 0.5667 0.9743   0.093405
 H 0.8559 0.5185 0.9149   0.086988
 H 0.4157 0.6671 0.3321   0.085084
 H 0.444 0.6729 0.4365   0.136357
 H 0.8686 0.6657 0.4509   0.136008
 H 0.8295 0.6624 0.347   0.102033
 H 0.5596 0.7768 0.5352   0.14074
 H 0.6196 0.7979 0.6397   0.092004
 H 0.8714 0.6034 0.643   0.088361
 H 0.8229 0.5795 0.5393   0.140749
 H 0.6824 0.0531 0.4291   0.097687
 H 0.9335 0.0667 0.4743   0.094088
 H 0.0775 0.0185 0.4149   0.086859
 H 0.0835 0.1671 0.8321   0.084234
 H 0.1654 0.1729 0.9365   0.136016
 H 0.748 0.1657 0.9509   0.136119
 H 0.6799 0.1624 0.847   0.102377
 H 0.2524 0.2768 0.0352   0.14009
 H 0.318 0.2979 0.1397   0.093379
 H 0.875 0.1034 0.143   0.087329
 H 0.7959 0.0795 0.0393   0.141605
 H 0.7002 0.4469 0.0709   0.099383
 H 0.8925 0.4333 0.0257   0.093405
 H 0.1441 0.4815 0.0851   0.086989
 H 0.5843 0.3329 0.6679   0.085084
 H 0.556 0.3271 0.5635   0.136356
 H 0.1314 0.3343 0.5491   0.136007
 H 0.1705 0.3376 0.653   0.102033
 H 0.4404 0.2232 0.4648   0.140741
 H 0.3804 0.2021 0.3603   0.092004
 H 0.1286 0.3966 0.357   0.088361
 H 0.1771 0.4205 0.4607   0.140746
 C 0.25841 0.96475 0.59489   -0.081585
 C 0.10794 0.95644 0.56772   -0.121186
 C 0.0208 0.98269 0.60343   -0.075279
 C 0.07861 0.01113 0.66687   -0.146152
 C 0.23039 0.02185 0.69447   -0.081332
 C 0.32064 0.99931 0.65741   -0.040179
 C 0.48812 0.01853 0.68239   0.599095
 C 0.29489 0.05521 0.76251   0.672066
 C 0.97247 0.02644 0.70452   0.712473
 C 0.98449 0.8331 0.14344   0.208986
 C 0.93442 0.82976 0.08056   -0.208622
 C 0.03401 0.83046 0.04366   0.089566
 C 0.18121 0.83383 0.07229   -0.193515
 C 0.22169 0.83624 0.13464   0.206098
 C 0.9864 0.82389 0.97625   0.103144
 C 0.8274 0.75845 0.94389   -0.195254
 C 0.7889 0.74611 0.88097   0.203043
 C 0.04782 0.85935 0.87889   0.221393
 C 0.09633 0.87503 0.94149   -0.211787
 C 0.19877 0.53525 0.90511   -0.08447
 C 0.08378 0.54356 0.93228   -0.118862
 C 0.93468 0.51731 0.89657   -0.077502
 C 0.90061 0.48887 0.83313   -0.142951
 C 0.01407 0.47815 0.80553   -0.084497
 C 0.16392 0.50069 0.84259   -0.039004
 C 0.2872 0.48147 0.81761   0.600528
 C 0.97717 0.44479 0.73749   0.673121
 C 0.74151 0.47356 0.79548   0.71513
 C 0.50795 0.6669 0.35656   0.207959
 C 0.5241 0.67024 0.41944   -0.208307
 C 0.65989 0.66954 0.45634   0.087435
 C 0.77509 0.66617 0.42771   -0.192289
 C 0.75081 0.66376 0.36536   0.205462
 C 0.68626 0.67611 0.52375   0.101444
 C 0.62506 0.74155 0.55611   -0.194881
 C 0.66182 0.75389 0.61903   0.205045
 C 0.80958 0.64065 0.62111   0.220528
 C 0.77981 0.62497 0.55851   -0.208017
 C 0.74159 0.03525 0.40511   -0.081586
 C 0.89206 0.04356 0.43228   -0.121186
 C 0.9792 0.01731 0.39657   -0.075279
 C 0.92139 0.98887 0.33313   -0.146152
 C 0.76961 0.97815 0.30553   -0.081332
 C 0.67936 0.000689999999999 0.34259   -0.040178
 C 0.51188 0.98147 0.31761   0.599095
 C 0.70511 0.94479 0.23749   0.672066
 C 0.02753 0.97356 0.29548   0.712473
 C 0.01551 0.1669 0.85656   0.208985
 C 0.06558 0.17024 0.91944   -0.208622
 C 0.96599 0.16954 0.95634   0.089566
 C 0.81879 0.16617 0.92771   -0.193515
 C 0.77831 0.16376 0.86536   0.206099
 C 0.0136 0.17611 0.02375   0.103143
 C 0.1726 0.24155 0.05611   -0.195255
 C 0.2111 0.25389 0.11903   0.203044
 C 0.95218 0.14065 0.12111   0.221392
 C 0.90367 0.12497 0.05851   -0.211786
 C 0.80123 0.46475 0.09489   -0.084471
 C 0.91622 0.45644 0.06772   -0.118862
 C 0.06532 0.48269 0.10343   -0.077502
 C 0.09939 0.51113 0.16687   -0.142951
 C 0.98593 0.52185 0.19447   -0.084497
 C 0.83608 0.49931 0.15741   -0.039004
 C 0.7128 0.51853 0.18239   0.600527
 C 0.02283 0.55521 0.26251   0.673121
 C 0.25849 0.52644 0.20452   0.71513
 C 0.49205 0.3331 0.64344   0.207959
 C 0.4759 0.32976 0.58056   -0.208307
 C 0.34011 0.33046 0.54366   0.087434
 C 0.22491 0.33383 0.57229   -0.192288
 C 0.24919 0.33624 0.63464   0.205462
 C 0.31374 0.32389 0.47625   0.101444
 C 0.37494 0.25845 0.44389   -0.194881
 C 0.33818 0.24611 0.38097   0.205046
 C 0.19042 0.35935 0.37889   0.220527
 C 0.22019 0.37503 0.44149   -0.208016
 N 0.1249 0.8366 0.16998   -0.35899
 N 0.89759 0.79439 0.84765   -0.381541
 N 0.61832 0.6634 0.33002   -0.357967
 N 0.75555 0.70561 0.65235   -0.383657
 N 0.8751 0.1634 0.83002   -0.35899
 N 0.10241 0.20561 0.15235   -0.381541
 N 0.38168 0.3366 0.66998   -0.357967
 N 0.24445 0.29439 0.34765   -0.383657
 O 0.57486 0.11032 0.72312   -0.55181
 O 0.51364 0.91327 0.67421   -0.622464
 O 0.3145 0.97076 0.79278   -0.588958
 O 0.31906 0.16308 0.78724   -0.638527
 O 0.92789 0.11454 0.692   -0.565927
 O 0.93282 0.95561 0.74423   -0.655136
 O 0.24142 0.38968 0.77688   -0.552511
 O 0.42616 0.58673 0.82579   -0.623392
 O 0.05096 0.52924 0.70722   -0.589652
 O 0.86874 0.33692 0.71276   -0.638714
 O 0.62135 0.38546 0.808   -0.568027
 O 0.73298 0.54439 0.75577   -0.656148
 O 0.42514 0.88968 0.27688   -0.55181
 O 0.48636 0.08673 0.32579   -0.622464
 O 0.6855 0.02924 0.20722   -0.588958
 O 0.68094 0.83692 0.21276   -0.638527
 O 0.07211 0.88546 0.308   -0.565927
 O 0.06718 0.04439 0.25577   -0.655136
 O 0.75858 0.61032 0.22312   -0.55251
 O 0.57384 0.41327 0.17421   -0.623392
 O 0.94904 0.47076 0.29278   -0.589652
 O 0.13126 0.66308 0.28724   -0.638714
 O 0.37865 0.61454 0.192   -0.568027
 O 0.26702 0.45561 0.24423   -0.656148
