{'_ref': 'TBD', '_srcid': 'CAKYAQ_clean', 'submitters': [{'name': 'Dalar Nazarian Jeff Camp and David Sholl', 'email': 'dalar@gatech.edu jcamp6@gatech.edu'}], '_method': 'VASP DFT with PBE;DDEC'}
data_TmH18(C3O)6
_symmetry_space_group_name_H-M   'P 1'
_cell_length_a   9.95500007
_cell_length_b   12.79499972
_cell_length_c   13.80100000
_cell_angle_alpha   69.41500048
_cell_angle_beta   82.56200178
_cell_angle_gamma   83.11699839
_symmetry_Int_Tables_number   1
_chemical_formula_structural   TmH18(C3O)6
_chemical_formula_sum   'Tm2 H36 C36 O12'
_cell_volume   1626.56647425
_cell_formula_units_Z   2
loop_
 _symmetry_equiv_pos_site_id
 _symmetry_equiv_pos_as_xyz
  1  'x, y, z'
loop_
 _atom_site_label
 _atom_site_fract_x
 _atom_site_fract_y
 _atom_site_fract_z
 _atom_site_charge
 Tm 0.53018 0.64035 0.37478   2.071887
 Tm 0.46982 0.35965 0.62522   2.071888
 H 0.2102 0.9814 0.4111   0.111393
 H 0.3022 0.8756 0.4035   0.131774
 H 0.2229 0.8736 0.5099   0.123858
 H 0.7108 0.8506 0.6778   0.122869
 H 0.6825 0.7657 0.6255   0.112375
 H 0.793 0.8512 0.5727   0.114831
 H 0.1346 0.4231 0.2974   0.1233
 H 0.2037 0.5325 0.2817   0.13544
 H 0.2597 0.4173 0.358   0.13019
 H 0.095 0.5669 0.694   0.122579
 H 0.1891 0.6323 0.5966   0.122833
 H 0.0407 0.6822 0.6167   0.12938
 H 0.2449 0.0329 0.1715   0.118213
 H 0.1874 0.9599 0.1183   0.118267
 H 0.2803 0.903 0.2092   0.129022
 H 0.8089 0.8683 0.9865   0.114541
 H 0.7749 0.8505 0.1051   0.112257
 H 0.7194 0.7718 0.057   0.123862
 H 0.7898 0.0186 0.5889   0.111392
 H 0.6978 0.1244 0.5965   0.131773
 H 0.7771 0.1264 0.4901   0.123857
 H 0.2892 0.1494 0.3222   0.122869
 H 0.3175 0.2343 0.3745   0.112376
 H 0.207 0.1488 0.4273   0.11483
 H 0.8654 0.5769 0.7026   0.123302
 H 0.7963 0.4675 0.7183   0.13544
 H 0.7403 0.5827 0.642   0.130191
 H 0.905 0.4331 0.306   0.122581
 H 0.8109 0.3677 0.4034   0.122833
 H 0.9593 0.3178 0.3833   0.12938
 H 0.7551 0.9671 0.8285   0.118211
 H 0.8126 0.0401 0.8817   0.118264
 H 0.7197 0.097 0.7908   0.129022
 H 0.1911 0.1317 0.0135   0.114537
 H 0.2251 0.1495 0.8949   0.112256
 H 0.2806 0.2282 0.943   0.123863
 C 0.4747 0.7645 0.556   0.770403
 C 0.4886 0.8883 0.5262   -0.172802
 C 0.3883 0.9625 0.4735   0.090578
 C 0.2705 0.9194 0.4471   -0.354084
 C 0.6001 0.9238 0.5533   0.065299
 C 0.7062 0.8402 0.6127   -0.334017
 C 0.2689 0.5732 0.4516   0.797641
 C 0.1283 0.5344 0.478   -0.248625
 C 0.0852 0.4802 0.4183   0.084686
 C 0.1793 0.4616 0.331   -0.359308
 C 0.046 0.5553 0.5599   0.063149
 C 0.0974 0.6144 0.6224   -0.34671
 C 0.5049 0.8171 0.1943   0.726684
 C 0.5021 0.9132 0.092   -0.187223
 C 0.3867 0.9855 0.0734   0.073181
 C 0.2639 0.9686 0.1499   -0.33996
 C 0.6146 0.9257 0.0211   0.069066
 C 0.7409 0.8469 0.0444   -0.342743
 C 0.5253 0.2355 0.444   0.770403
 C 0.5114 0.1117 0.4738   -0.172802
 C 0.6117 0.0375 0.5265   0.09058
 C 0.7295 0.0806 0.5529   -0.354083
 C 0.3999 0.0762 0.4467   0.065301
 C 0.2938 0.1598 0.3873   -0.334018
 C 0.7311 0.4268 0.5484   0.797641
 C 0.8717 0.4656 0.522   -0.248624
 C 0.9148 0.5198 0.5817   0.084682
 C 0.8207 0.5384 0.669   -0.359308
 C 0.954 0.4447 0.4401   0.063145
 C 0.9026 0.3856 0.3776   -0.346711
 C 0.4951 0.1829 0.8057   0.726683
 C 0.4979 0.0868 0.908   -0.187222
 C 0.6133 0.0145 0.9266   0.073177
 C 0.7361 0.0314 0.8501   -0.339958
 C 0.3854 0.0743 0.9789   0.069061
 C 0.2591 0.1531 0.9556   -0.342742
 O 0.5291 0.7153 0.4946   -0.805548
 O 0.4119 0.7154 0.6393   -0.552105
 O 0.2901 0.6641 0.3823   -0.639717
 O 0.3669 0.5133 0.4968   -0.899473
 O 0.5078 0.8364 0.2764   -0.686151
 O 0.5048 0.7199 0.1961   -0.741086
 O 0.4709 0.2847 0.5054   -0.805548
 O 0.5881 0.2846 0.3607   -0.552105
 O 0.7099 0.3359 0.6177   -0.639717
 O 0.6331 0.4867 0.5032   -0.899473
 O 0.4922 0.1636 0.7236   -0.686151
 O 0.4952 0.2801 0.8039   -0.741086
