{'_ref': 'TBD', '_srcid': 'CAKYAQ_clean', 'submitters': [{'name': 'Dalar Nazarian Jeff Camp and David Sholl', 'email': 'dalar@gatech.edu jcamp6@gatech.edu'}], '_method': 'VASP DFT with PBE;DDEC'}
data_TmH6(C2O)6
_symmetry_space_group_name_H-M   'P 1'
_cell_length_a   8.65139985
_cell_length_b   10.15310015
_cell_length_c   11.17030000
_cell_angle_alpha   65.43700128
_cell_angle_beta   71.66600006
_cell_angle_gamma   78.42099891
_symmetry_Int_Tables_number   1
_chemical_formula_structural   TmH6(C2O)6
_chemical_formula_sum   'Tm2 H12 C24 O12'
_cell_volume   844.305875022
_cell_formula_units_Z   2
loop_
 _symmetry_equiv_pos_site_id
 _symmetry_equiv_pos_as_xyz
  1  'x, y, z'
loop_
 _atom_site_label
 _atom_site_fract_x
 _atom_site_fract_y
 _atom_site_fract_z
 _atom_site_charge
 Tm 0.13211 0.44027 0.65278   2.058978
 Tm 0.86789 0.55973 0.34722   2.058983
 H 0.6336 0.1118 0.7731   0.100779
 H 0.2303 0.0702 0.0811   0.106281
 H 0.5439 0.3545 0.8769   0.089333
 H 0.7132 0.6183 0.9847   0.108059
 H 0.9259 0.7821 0.6801   0.108454
 H 0.0207 0.0271 0.2795   0.117802
 H 0.3664 0.8882 0.2269   0.100777
 H 0.7697 0.9298 0.9189   0.106278
 H 0.4561 0.6455 0.1231   0.08933
 H 0.2868 0.3817 0.0153   0.108056
 H 0.0741 0.2179 0.3199   0.108446
 H 0.9793 0.9729 0.7205   0.117794
 C 0.3258 0.2314 0.8209   0.689416
 C 0.4181 0.1118 0.911   -0.097486
 C 0.5793 0.0674 0.8644   -0.043788
 C 0.3393 0.0422 0.0481   -0.056098
 C 0.8202 0.4615 0.8309   0.687089
 C 0.6542 0.4829 0.9174   -0.104172
 C 0.5261 0.4129 0.9266   -0.058462
 C 0.6279 0.5708 0.9909   -0.06622
 C 0.9299 0.7661 0.4476   0.752375
 C 0.9661 0.886 0.4764   -0.125452
 C 0.9551 0.8692 0.608   -0.078731
 C 0.012 0.0165 0.3681   -0.040368
 C 0.6742 0.7686 0.1791   0.689418
 C 0.5819 0.8882 0.089   -0.097498
 C 0.4207 0.9326 0.1356   -0.043756
 C 0.6607 0.9578 0.9519   -0.056067
 C 0.1798 0.5385 0.1691   0.687091
 C 0.3458 0.5171 0.0826   -0.104182
 C 0.4739 0.5871 0.0734   -0.058435
 C 0.3721 0.4292 0.0091   -0.066192
 C 0.0701 0.2339 0.5524   0.75238
 C 0.0339 0.114 0.5236   -0.125477
 C 0.0449 0.1308 0.392   -0.078652
 C 0.988 0.9835 0.6319   -0.040287
 O 0.3978 0.2989 0.6961   -0.732971
 O 0.1787 0.2656 0.8685   -0.63013
 O 0.8433 0.3813 0.7637   -0.641139
 O 0.9355 0.5236 0.8251   -0.653669
 O 0.9623 0.6343 0.5189   -0.866809
 O 0.868 0.7994 0.35   -0.623176
 O 0.6022 0.7011 0.3039   -0.732972
 O 0.8213 0.7344 0.1315   -0.630131
 O 0.1567 0.6187 0.2363   -0.64114
 O 0.0645 0.4764 0.1749   -0.653673
 O 0.0377 0.3657 0.4811   -0.86681
 O 0.132 0.2006 0.65   -0.623178
