{'_ref': 'TBD', '_srcid': 'CAKYAQ_clean', 'submitters': [{'name': 'Dalar Nazarian Jeff Camp and David Sholl', 'email': 'dalar@gatech.edu jcamp6@gatech.edu'}], '_method': 'VASP DFT with PBE;DDEC'}
data_ErH26C30(NO3)2
_symmetry_space_group_name_H-M   'P 1'
_cell_length_a   9.49299973
_cell_length_b   13.22500023
_cell_length_c   16.23200000
_cell_angle_alpha   111.72900127
_cell_angle_beta   100.55399909
_cell_angle_gamma   91.87900111
_symmetry_Int_Tables_number   1
_chemical_formula_structural   ErH26C30(NO3)2
_chemical_formula_sum   'Er2 H52 C60 N4 O12'
_cell_volume   1849.6957281
_cell_formula_units_Z   2
loop_
 _symmetry_equiv_pos_site_id
 _symmetry_equiv_pos_as_xyz
  1  'x, y, z'
loop_
 _atom_site_label
 _atom_site_fract_x
 _atom_site_fract_y
 _atom_site_fract_z
 _atom_site_charge
 Er 0.91771 0.54391 0.84483   1.277216
 Er 0.08229 0.45609 0.15517   1.277216
 H 0.1152 0.6841 0.712   0.128028
 H 0.2503 0.6856 0.6661   0.125341
 H 0.1211 0.7564 0.6522   0.110812
 H 0.8099 0.3627 0.5873   0.114993
 H 0.7169 0.331 0.4867   0.124153
 H 0.8539 0.2684 0.5036   0.103299
 H 0.8979 0.8174 0.786   0.13089
 H 0.8114 0.919 0.7851   0.120088
 H 0.9759 0.9193 0.7748   0.109836
 H 0.0243 0.788 0.0689   0.126241
 H 0.1404 0.8811 0.1459   0.11215
 H 0.9731 0.8821 0.1494   0.109138
 H 0.5917 0.7718 0.1013   0.116475
 H 0.7258 0.7212 0.1411   0.111212
 H 0.7129 0.7287 0.0439   0.139933
 H 0.7593 0.3332 0.9592   0.129431
 H 0.6356 0.2629 0.9764   0.139008
 H 0.6245 0.2689 0.8787   0.106004
 H 0.0496 0.3019 0.7637   0.065045
 H 0.9898 0.1201 0.6688   0.120716
 H 0.4889 0.0787 0.619   0.112426
 H 0.321 0.199 0.6467   0.100376
 H 0.258 0.3897 0.7213   0.100847
 H 0.338 0.5715 0.8066   0.140619
 H 0.5869 0.6291 0.8523   0.091647
 H 0.7493 0.0506 0.6136   0.100215
 H 0.8848 0.3159 0.288   0.128027
 H 0.7497 0.3144 0.3339   0.125339
 H 0.8789 0.2436 0.3478   0.110812
 H 0.1901 0.6373 0.4127   0.114993
 H 0.2831 0.669 0.5133   0.124149
 H 0.1461 0.7316 0.4964   0.103299
 H 0.1021 0.1826 0.214   0.13089
 H 0.1886 0.081 0.2149   0.120088
 H 0.0241 0.0807 0.2252   0.109836
 H 0.9757 0.212 0.9311   0.126241
 H 0.8596 0.1189 0.8541   0.112152
 H 0.0269 0.1179 0.8506   0.109139
 H 0.4083 0.2282 0.8987   0.116474
 H 0.2742 0.2788 0.8589   0.111212
 H 0.2871 0.2713 0.9561   0.139933
 H 0.2407 0.6668 0.0408   0.129432
 H 0.3644 0.7371 0.0236   0.139008
 H 0.3755 0.7311 0.1213   0.106005
 H 0.9504 0.6981 0.2363   0.065045
 H 0.0102 0.8799 0.3312   0.120717
 H 0.5111 0.9213 0.381   0.112426
 H 0.679 0.801 0.3533   0.100376
 H 0.742 0.6103 0.2787   0.100847
 H 0.662 0.4285 0.1934   0.14062
 H 0.4131 0.3709 0.1477   0.091647
 H 0.2507 0.9494 0.3864   0.100215
 C 0.8097 0.5267 0.0312   0.700101
 C 0.6475 0.5133 0.0143   -0.180306
 C 0.576 0.6053 0.0418   0.067379
 C 0.576 0.4076 0.9723   0.084218
 C 0.9561 0.7692 0.9157   0.628696
 C 0.9777 0.8883 0.959   -0.154359
 C 0.0238 0.9371 0.0522   0.064292
 C 0.9546 0.9519 0.9056   0.079355
 C 0.9601 0.5267 0.6776   0.621293
 C 0.9798 0.5111 0.5841   -0.146515
 C 0.9081 0.422 0.5103   0.068027
 C 0.0704 0.5924 0.5753   0.072848
 C 0.1458 0.6879 0.6587   -0.341192
 C 0.8142 0.3389 0.5231   -0.338955
 C 0.9057 0.8971 0.804   -0.338838
 C 0.0421 0.8655 0.1093   -0.344499
 C 0.6587 0.7162 0.0858   -0.358065
 C 0.6556 0.3099 0.9443   -0.359328
 C 0.9505 0.2756 0.7392   0.198878
 C 0.9161 0.1662 0.6838   -0.19534
 C 0.5187 0.155 0.6489   -0.15149
 C 0.4202 0.2261 0.6683   -0.089536
 C 0.4574 0.3378 0.7187   -0.0092
 C 0.6068 0.3772 0.7482   0.150202
 C 0.3584 0.4132 0.7409   -0.019463
 C 0.4051 0.5197 0.7903   -0.155989
 C 0.5555 0.5537 0.8178   0.188685
 C 0.7139 0.3039 0.7264   0.16302
 C 0.6687 0.1944 0.6733   -0.002448
 C 0.7751 0.1258 0.6514   -0.035981
 C 0.1903 0.4733 0.9688   0.700101
 C 0.3525 0.4867 0.9857   -0.180307
 C 0.424 0.3947 0.9582   0.067379
 C 0.424 0.5924 0.0277   0.084218
 C 0.0439 0.2308 0.0843   0.628696
 C 0.0223 0.1117 0.041   -0.154359
 C 0.9762 0.0629 0.9478   0.064293
 C 0.0454 0.0481 0.0944   0.079355
 C 0.0399 0.4733 0.3224   0.621293
 C 0.0202 0.4889 0.4159   -0.146516
 C 0.0919 0.578 0.4897   0.068028
 C 0.9296 0.4076 0.4247   0.072849
 C 0.8542 0.3121 0.3413   -0.341191
 C 0.1858 0.6611 0.4769   -0.338953
 C 0.0943 0.1029 0.196   -0.338838
 C 0.9579 0.1345 0.8907   -0.3445
 C 0.3413 0.2838 0.9142   -0.358065
 C 0.3444 0.6901 0.0557   -0.359328
 C 0.0495 0.7244 0.2608   0.198878
 C 0.0839 0.8338 0.3162   -0.19534
 C 0.4813 0.845 0.3511   -0.15149
 C 0.5798 0.7739 0.3317   -0.089537
 C 0.5426 0.6622 0.2813   -0.0092
 C 0.3932 0.6228 0.2518   0.150202
 C 0.6416 0.5868 0.2591   -0.019464
 C 0.5949 0.4803 0.2097   -0.155989
 C 0.4445 0.4463 0.1822   0.188685
 C 0.2861 0.6961 0.2736   0.16302
 C 0.3313 0.8056 0.3267   -0.002448
 C 0.2249 0.8742 0.3486   -0.035981
 N 0.6536 0.4851 0.7976   -0.360861
 N 0.8544 0.3468 0.7604   -0.369678
 N 0.3464 0.5149 0.2024   -0.360861
 N 0.1456 0.6532 0.2396   -0.369678
 O 0.8673 0.5509 0.9756   -0.590875
 O 0.8765 0.5149 0.0986   -0.552126
 O 0.8273 0.7158 0.8949   -0.576795
 O 0.0573 0.7122 0.8968   -0.557745
 O 0.0523 0.4984 0.7278   -0.55387
 O 0.8476 0.5613 0.7031   -0.56968
 O 0.1327 0.4491 0.0244   -0.590876
 O 0.1235 0.4851 0.9014   -0.552126
 O 0.1727 0.2842 0.1051   -0.576795
 O 0.9427 0.2878 0.1032   -0.557745
 O 0.9477 0.5016 0.2722   -0.55387
 O 0.1524 0.4387 0.2969   -0.56968
