{'_ref': 'TBD', '_srcid': 'CAKYAQ_clean', 'submitters': [{'name': 'Dalar Nazarian Jeff Camp and David Sholl', 'email': 'dalar@gatech.edu jcamp6@gatech.edu'}], '_method': 'VASP DFT with PBE;DDEC'}
data_TmH6(C2O)6
_symmetry_space_group_name_H-M   'P 1'
_cell_length_a   8.65139985
_cell_length_b   10.15310015
_cell_length_c   11.17030000
_cell_angle_alpha   65.43700128
_cell_angle_beta   71.66600006
_cell_angle_gamma   78.42099891
_symmetry_Int_Tables_number   1
_chemical_formula_structural   TmH6(C2O)6
_chemical_formula_sum   'Tm2 H12 C24 O12'
_cell_volume   844.305875022
_cell_formula_units_Z   2
loop_
 _symmetry_equiv_pos_site_id
 _symmetry_equiv_pos_as_xyz
  1  'x, y, z'
loop_
 _atom_site_label
 _atom_site_fract_x
 _atom_site_fract_y
 _atom_site_fract_z
 _atom_site_charge
 Tm 0.13213 0.44028 0.65276   2.058835
 Tm 0.86787 0.55972 0.34724   2.058841
 H 0.6347 0.1125 0.7708   0.102496
 H 0.228 0.0721 0.0818   0.108186
 H 0.5443 0.3531 0.8756   0.090995
 H 0.7153 0.6188 0.9852   0.111164
 H 0.925 0.7804 0.6819   0.111464
 H 0.0199 0.0273 0.2777   0.120388
 H 0.3653 0.8875 0.2292   0.102495
 H 0.772 0.9279 0.9182   0.108183
 H 0.4557 0.6469 0.1244   0.090993
 H 0.2847 0.3812 0.0148   0.111161
 H 0.075 0.2196 0.3181   0.111456
 H 0.9801 0.9727 0.7223   0.12038
 C 0.3266 0.2316 0.8204   0.687012
 C 0.4183 0.112 0.9106   -0.092913
 C 0.5793 0.0673 0.864   -0.048196
 C 0.339 0.043 0.0482   -0.059055
 C 0.8203 0.4616 0.8312   0.684284
 C 0.654 0.4828 0.9174   -0.09834
 C 0.5261 0.4128 0.9263   -0.059855
 C 0.628 0.5706 0.9913   -0.073197
 C 0.9302 0.7668 0.4473   0.753809
 C 0.9667 0.8856 0.4759   -0.121471
 C 0.9552 0.8692 0.608   -0.082606
 C 0.0117 0.0162 0.3681   -0.044696
 C 0.6734 0.7684 0.1796   0.687013
 C 0.5817 0.888 0.0894   -0.092923
 C 0.4207 0.9327 0.136   -0.04817
 C 0.661 0.957 0.9518   -0.05903
 C 0.1797 0.5384 0.1688   0.684285
 C 0.346 0.5172 0.0826   -0.098347
 C 0.4739 0.5872 0.0737   -0.059833
 C 0.372 0.4294 0.0087   -0.073174
 C 0.0698 0.2332 0.5527   0.753815
 C 0.0333 0.1144 0.5241   -0.121497
 C 0.0448 0.1308 0.392   -0.082525
 C 0.9883 0.9838 0.6319   -0.044613
 O 0.3983 0.2989 0.696   -0.730171
 O 0.1788 0.2655 0.8688   -0.632737
 O 0.8432 0.3813 0.7636   -0.641677
 O 0.9353 0.5239 0.825   -0.651936
 O 0.9621 0.6343 0.5187   -0.869259
 O 0.8684 0.7995 0.3498   -0.622624
 O 0.6017 0.7011 0.304   -0.730172
 O 0.8212 0.7345 0.1312   -0.632738
 O 0.1568 0.6187 0.2364   -0.641678
 O 0.0647 0.4761 0.175   -0.651939
 O 0.0379 0.3657 0.4813   -0.86926
 O 0.1316 0.2005 0.6502   -0.622626
