{'_ref': 'TBD', '_srcid': 'CAKYAQ_clean', 'submitters': [{'name': 'Dalar Nazarian Jeff Camp and David Sholl', 'email': 'dalar@gatech.edu jcamp6@gatech.edu'}], '_method': 'VASP DFT with PBE;DDEC'}
data_K2V5P4H4C2O17
_symmetry_space_group_name_H-M   'P 1'
_cell_length_a   4.69020000
_cell_length_b   13.76420000
_cell_length_c   15.67960000
_cell_angle_alpha   90.00000000
_cell_angle_beta   90.00000000
_cell_angle_gamma   90.00000000
_symmetry_Int_Tables_number   1
_chemical_formula_structural   K2V5P4H4C2O17
_chemical_formula_sum   'K4 V10 P8 H8 C4 O34'
_cell_volume   1012.22559843
_cell_formula_units_Z   2
loop_
 _symmetry_equiv_pos_site_id
 _symmetry_equiv_pos_as_xyz
  1  'x, y, z'
loop_
 _atom_site_label
 _atom_site_fract_x
 _atom_site_fract_y
 _atom_site_fract_z
 _atom_site_charge
 K 0.9023 0.5384 0.75   0.974133
 K 0.9023 0.9616 0.75   0.974124
 K 0.0977 0.4616 0.25   0.974133
 K 0.0977 0.0384 0.25   0.974124
 V 0.0216 0.4901 0.5162   0.585168
 V 0.0216 0.0099 0.9838   0.585168
 V 0.9784 0.5099 0.0162   0.585168
 V 0.9784 0.9901 0.4838   0.585168
 V 0.9784 0.5099 0.4838   0.567516
 V 0.9784 0.9901 0.0162   0.567515
 V 0.0216 0.4901 0.9838   0.567516
 V 0.0216 0.0099 0.5162   0.567515
 V 0.2808 0.75 0.75   2.114191
 V 0.7192 0.25 0.25   2.114191
 P 0.4895 0.6378 0.5758   1.604103
 P 0.4895 0.8622 0.9242   1.604102
 P 0.5105 0.3622 0.0758   1.604103
 P 0.5105 0.1378 0.4242   1.604102
 P 0.5105 0.3622 0.4242   1.604104
 P 0.5105 0.1378 0.0758   1.604103
 P 0.4895 0.6378 0.9242   1.604104
 P 0.4895 0.8622 0.5758   1.604103
 H 0.6722 0.75 0.4828   0.27572
 H 0.8491 0.75 0.5671   0.249719
 H 0.6722 0.75 0.0172   0.27572
 H 0.8491 0.75 0.9329   0.249719
 H 0.3278 0.25 0.9828   0.27572
 H 0.1509 0.25 0.0671   0.249719
 H 0.3278 0.25 0.5172   0.27572
 H 0.1509 0.25 0.4329   0.249719
 C 0.6566 0.75 0.5445   -0.971852
 C 0.6566 0.75 0.9555   -0.971852
 C 0.3434 0.25 0.0445   -0.971852
 C 0.3434 0.25 0.4555   -0.971852
 O 0.3796 0.6493 0.6672   -0.995776
 O 0.7158 0.5586 0.5773   -0.743801
 O 0.2507 0.6161 0.5132   -0.645917
 O 0.171 0.437 0.6004   -0.382461
 O 0.3796 0.8507 0.8328   -0.995775
 O 0.7158 0.9414 0.9227   -0.743801
 O 0.2507 0.8839 0.9868   -0.645917
 O 0.171 0.063 0.8996   -0.38246
 O 0.6204 0.3507 0.1672   -0.995776
 O 0.2842 0.4414 0.0773   -0.743801
 O 0.7493 0.3839 0.0132   -0.645917
 O 0.829 0.563 0.1004   -0.382461
 O 0.6204 0.1493 0.3328   -0.995775
 O 0.2842 0.0586 0.4227   -0.743801
 O 0.7493 0.1161 0.4868   -0.645917
 O 0.829 0.937 0.3996   -0.38246
 O 0.6204 0.3507 0.3328   -0.995736
 O 0.2842 0.4414 0.4227   -0.743583
 O 0.7493 0.3839 0.4868   -0.646083
 O 0.829 0.563 0.3996   -0.381347
 O 0.6204 0.1493 0.1672   -0.995735
 O 0.2842 0.0586 0.0773   -0.743583
 O 0.7493 0.1161 0.0132   -0.646083
 O 0.829 0.937 0.1004   -0.381347
 O 0.3796 0.6493 0.8328   -0.995736
 O 0.7158 0.5586 0.9227   -0.743583
 O 0.2507 0.6161 0.9868   -0.646083
 O 0.171 0.437 0.8996   -0.381347
 O 0.3796 0.8507 0.6672   -0.995735
 O 0.7158 0.9414 0.5773   -0.743583
 O 0.2507 0.8839 0.5132   -0.646083
 O 0.171 0.063 0.6004   -0.381347
 O 0.9383 0.75 0.75   -0.821997
 O 0.0617 0.25 0.25   -0.821997
