{'_ref': 'TBD', '_srcid': 'CAKYAQ_clean', 'submitters': [{'name': 'Dalar Nazarian Jeff Camp and David Sholl', 'email': 'dalar@gatech.edu jcamp6@gatech.edu'}], '_method': 'VASP DFT with PBE;DDEC'}
data_MnH2(CO2)2
_symmetry_space_group_name_H-M   'P 1'
_cell_length_a   10.20000000
_cell_length_b   11.73199952
_cell_length_c   14.94700000
_cell_angle_alpha   91.53799918
_cell_angle_beta   90.00000000
_cell_angle_gamma   90.00000000
_symmetry_Int_Tables_number   1
_chemical_formula_structural   MnH2(CO2)2
_chemical_formula_sum   'Mn12 H24 C24 O48'
_cell_volume   1788.00923492
_cell_formula_units_Z   12
loop_
 _symmetry_equiv_pos_site_id
 _symmetry_equiv_pos_as_xyz
  1  'x, y, z'
loop_
 _atom_site_label
 _atom_site_fract_x
 _atom_site_fract_y
 _atom_site_fract_z
 _atom_site_charge
 Mn 0.92084 0.74294 0.86897   1.158838
 Mn 0.10717 0.76015 0.68681   1.150138
 Mn 0.42084 0.75706 0.63103   1.158838
 Mn 0.60717 0.73985 0.81319   1.150138
 Mn 0.07916 0.25706 0.13103   1.158838
 Mn 0.89283 0.23985 0.31319   1.150138
 Mn 0.57916 0.24294 0.36897   1.158838
 Mn 0.39283 0.26015 0.18681   1.150138
 Mn 0.0 0.0 0.0   1.159527
 Mn 0.5 0.5 0.5   1.159527
 Mn 0.0 0.5 0.0   1.174954
 Mn 0.5 0.0 0.5   1.174954
 H 0.0327 0.0204 0.7372   0.011326
 H 0.6224 0.9378 0.9599   0.002438
 H 0.7573 0.6413 0.6346   -0.003937
 H 0.7062 0.5053 0.9832   0.00762
 H 0.1954 0.5273 0.7721   -0.002104
 H 0.1524 0.8003 0.0738   0.003987
 H 0.5327 0.4796 0.7628   0.011325
 H 0.1224 0.5622 0.5401   0.002438
 H 0.2573 0.8587 0.8654   -0.003937
 H 0.2062 0.9947 0.5168   0.007619
 H 0.6954 0.9727 0.7279   -0.002104
 H 0.6524 0.6997 0.4262   0.003987
 H 0.9673 0.9796 0.2628   0.011327
 H 0.3776 0.0622 0.0401   0.002432
 H 0.2427 0.3587 0.3654   -0.003937
 H 0.2938 0.4947 0.0168   0.007618
 H 0.8046 0.4727 0.2279   -0.002103
 H 0.8476 0.1997 0.9262   0.003989
 H 0.4673 0.5204 0.2372   0.011326
 H 0.8776 0.4378 0.4599   0.002432
 H 0.7427 0.1413 0.1346   -0.003937
 H 0.7938 0.0053 0.4832   0.007617
 H 0.3046 0.0273 0.2721   -0.002104
 H 0.3476 0.3003 0.5738   0.003989
 C 0.0134 0.98 0.7898   0.682703
 C 0.7131 0.9227 0.9513   0.69221
 C 0.8264 0.6714 0.6707   0.693512
 C 0.723 0.5668 0.9448   0.697494
 C 0.1328 0.5523 0.8154   0.690079
 C 0.0995 0.758 0.0325   0.704097
 C 0.5134 0.52 0.7102   0.682703
 C 0.2131 0.5773 0.5487   0.69221
 C 0.3264 0.8286 0.8293   0.69351
 C 0.223 0.9332 0.5552   0.697494
 C 0.6328 0.9477 0.6846   0.690078
 C 0.5995 0.742 0.4675   0.704095
 C 0.9866 0.02 0.2102   0.682703
 C 0.2869 0.0773 0.0487   0.692212
 C 0.1736 0.3286 0.3293   0.693512
 C 0.277 0.4332 0.0552   0.697495
 C 0.8672 0.4477 0.1846   0.690079
 C 0.9005 0.242 0.9675   0.704096
 C 0.4866 0.48 0.2898   0.682703
 C 0.7869 0.4227 0.4513   0.692212
 C 0.6736 0.1714 0.1707   0.69351
 C 0.777 0.0668 0.4448   0.697495
 C 0.3672 0.0523 0.3154   0.690078
 C 0.4005 0.258 0.5325   0.704095
 O 0.007 0.8713 0.78224   -0.679463
 O 0.7422 0.846 0.89259   -0.683026
 O 0.7994 0.6949 0.75206   -0.66961
 O 0.8414 0.5991 0.93832   -0.667393
 O 0.0807 0.6489 0.80404   -0.674437
 O 0.0294 0.8144 0.97967   -0.673653
 O 0.9969 0.0366 0.8589   -0.595733
 O 0.7893 0.9788 0.99762   -0.587153
 O 0.6274 0.6076 0.90592   -0.606004
 O 0.1102 0.4877 0.8771   -0.600022
 O 0.1056 0.6531 0.0354   -0.61371
 O 0.9343 0.6841 0.63367   -0.605436
 O 0.507 0.6287 0.71776   -0.679463
 O 0.2422 0.654 0.60741   -0.683026
 O 0.2994 0.8051 0.74794   -0.66961
 O 0.3414 0.9009 0.56168   -0.667393
 O 0.5807 0.8511 0.69596   -0.674437
 O 0.5294 0.6856 0.52033   -0.673652
 O 0.4969 0.4634 0.6411   -0.595733
 O 0.2893 0.5212 0.50238   -0.587153
 O 0.1274 0.8924 0.59408   -0.606004
 O 0.6102 0.0123 0.6229   -0.600022
 O 0.6056 0.8469 0.4646   -0.61371
 O 0.4343 0.8159 0.86633   -0.605436
 O 0.993 0.1287 0.21776   -0.679463
 O 0.2578 0.154 0.10741   -0.683027
 O 0.2006 0.3051 0.24794   -0.66961
 O 0.1586 0.4009 0.06168   -0.667393
 O 0.9193 0.3511 0.19596   -0.674437
 O 0.9706 0.1856 0.02033   -0.673653
 O 0.0031 0.9634 0.1411   -0.595733
 O 0.2107 0.0212 0.00238   -0.587153
 O 0.3726 0.3924 0.09408   -0.606004
 O 0.8898 0.5123 0.1229   -0.600022
 O 0.8944 0.3469 0.9646   -0.61371
 O 0.0657 0.3159 0.36633   -0.605436
 O 0.493 0.3713 0.28224   -0.679463
 O 0.7578 0.346 0.39259   -0.683027
 O 0.7006 0.1949 0.25206   -0.66961
 O 0.6586 0.0991 0.43832   -0.667393
 O 0.4193 0.1489 0.30404   -0.674437
 O 0.4706 0.3144 0.47967   -0.673652
 O 0.5031 0.5366 0.3589   -0.595733
 O 0.7107 0.4788 0.49762   -0.587153
 O 0.8726 0.1076 0.40592   -0.606004
 O 0.3898 0.9877 0.3771   -0.600022
 O 0.3944 0.1531 0.5354   -0.61371
 O 0.5657 0.1841 0.13367   -0.605436
