{'_ref': 'TBD', '_srcid': 'CAKYAQ_clean', 'submitters': [{'name': 'Dalar Nazarian Jeff Camp and David Sholl', 'email': 'dalar@gatech.edu jcamp6@gatech.edu'}], '_method': 'VASP DFT with PBE;DDEC'}
data_CuH2C3O4
_symmetry_space_group_name_H-M   'P 1'
_cell_length_a   8.40150000
_cell_length_b   8.40150000
_cell_length_c   12.01500000
_cell_angle_alpha   90.00000000
_cell_angle_beta   90.00000000
_cell_angle_gamma   90.00000000
_symmetry_Int_Tables_number   1
_chemical_formula_structural   CuH2C3O4
_chemical_formula_sum   'Cu4 H8 C12 O16'
_cell_volume   848.081205034
_cell_formula_units_Z   4
loop_
 _symmetry_equiv_pos_site_id
 _symmetry_equiv_pos_as_xyz
  1  'x, y, z'
loop_
 _atom_site_label
 _atom_site_fract_x
 _atom_site_fract_y
 _atom_site_fract_z
 _atom_site_charge
 Cu 0.80664 0.40272 0.37512   0.979247
 Cu 0.19336 0.59728 0.87512   0.979247
 Cu 0.59728 0.80664 0.12512   0.979237
 Cu 0.40272 0.19336 0.62512   0.979237
 H 0.8332 0.0289 0.4103   0.203172
 H 0.6792 0.9376 0.3746   0.174409
 H 0.1668 0.9711 0.9103   0.203172
 H 0.3208 0.0624 0.8746   0.174409
 H 0.9711 0.8332 0.1603   0.203174
 H 0.0624 0.6792 0.1246   0.174409
 H 0.0289 0.1668 0.6603   0.203174
 H 0.9376 0.3208 0.6246   0.174409
 C 0.7415 0.1119 0.2625   0.781235
 C 0.727 0.0424 0.38   -0.578271
 C 0.6298 0.1412 0.4615   0.796286
 C 0.2585 0.8881 0.7625   0.781235
 C 0.273 0.9576 0.88   -0.578271
 C 0.3702 0.8588 0.9615   0.796286
 C 0.8881 0.7415 0.0125   0.781234
 C 0.9576 0.727 0.13   -0.578271
 C 0.8588 0.6298 0.2115   0.796286
 C 0.1119 0.2585 0.5125   0.781235
 C 0.0424 0.273 0.63   -0.578271
 C 0.1412 0.3702 0.7115   0.796287
 O 0.7679 0.2592 0.2529   -0.543558
 O 0.7329 0.0216 0.1823   -0.599867
 O 0.6481 0.2887 0.4662   -0.654563
 O 0.5359 0.0663 0.5233   -0.558084
 O 0.2321 0.7408 0.7529   -0.543558
 O 0.2671 0.9784 0.6823   -0.599868
 O 0.3519 0.7113 0.9662   -0.654563
 O 0.4641 0.9337 0.0233   -0.558085
 O 0.7408 0.7679 0.0029   -0.543558
 O 0.9784 0.7329 0.9323   -0.599868
 O 0.7113 0.6481 0.2162   -0.654563
 O 0.9337 0.5359 0.2733   -0.558085
 O 0.2592 0.2321 0.5029   -0.543558
 O 0.0216 0.2671 0.4323   -0.599869
 O 0.2887 0.3519 0.7162   -0.654563
 O 0.0663 0.4641 0.7733   -0.558086
