{'_ref': 'TBD', '_srcid': 'CAKYAQ_clean', 'submitters': [{'name': 'Dalar Nazarian Jeff Camp and David Sholl', 'email': 'dalar@gatech.edu jcamp6@gatech.edu'}], '_method': 'VASP DFT with PBE;DDEC'}
data_GdH2C7(NO3)2
_symmetry_space_group_name_H-M   'P 1'
_cell_length_a   6.09220005
_cell_length_b   9.96330010
_cell_length_c   13.35980000
_cell_angle_alpha   68.85300001
_cell_angle_beta   81.10400406
_cell_angle_gamma   76.84800081
_symmetry_Int_Tables_number   1
_chemical_formula_structural   GdH2C7(NO3)2
_chemical_formula_sum   'Gd2 H4 C14 N4 O12'
_cell_volume   734.117679409
_cell_formula_units_Z   2
loop_
 _symmetry_equiv_pos_site_id
 _symmetry_equiv_pos_as_xyz
  1  'x, y, z'
loop_
 _atom_site_label
 _atom_site_fract_x
 _atom_site_fract_y
 _atom_site_fract_z
 _atom_site_charge
 Gd 0.83214 0.61429 0.19572   2.075517
 Gd 0.16786 0.38571 0.80429   2.075517
 H 0.3269 0.0471 0.0281   0.090007
 H 0.704 0.3248 0.6297   0.071242
 H 0.6731 0.9529 0.9719   0.090009
 H 0.296 0.6752 0.3703   0.071238
 C 0.2883 0.7661 0.141   0.688847
 C 0.134 0.8934 0.0687   0.062583
 C 0.1921 0.0298 0.0152   0.20274
 C 0.9507 0.3826 0.4395   0.638405
 C 0.7101 0.4441 0.4728   0.101539
 C 0.6172 0.3976 0.5776   0.217529
 C 0.0888 0.4399 0.0345   0.547918
 C 0.7117 0.2339 0.859   0.688839
 C 0.866 0.1066 0.9313   0.062583
 C 0.8079 0.9702 0.9848   0.202744
 C 0.0493 0.6174 0.5605   0.638412
 C 0.2899 0.5559 0.5272   0.101544
 C 0.3828 0.6024 0.4224   0.217526
 C 0.9112 0.5601 0.9655   0.547911
 N 0.9401 0.8637 0.0542   -0.385752
 N 0.5934 0.5465 0.3933   -0.46879
 N 0.0599 0.1363 0.9458   -0.385741
 N 0.4066 0.4535 0.6067   -0.468775
 O 0.2142 0.6493 0.1837   -0.64631
 O 0.4799 0.7834 0.1514   -0.689307
 O 0.0142 0.4315 0.3418   -0.690871
 O 0.0691 0.2906 0.5102   -0.574933
 O 0.0847 0.4295 0.1303   -0.582043
 O 0.223 0.3612 0.9873   -0.658326
 O 0.7858 0.3507 0.8163   -0.646299
 O 0.5201 0.2166 0.8486   -0.68931
 O 0.9858 0.5685 0.6582   -0.690877
 O 0.9309 0.7094 0.4898   -0.574949
 O 0.9153 0.5705 0.8697   -0.582058
 O 0.777 0.6388 0.0127   -0.658312
