{'_ref': 'TBD', '_srcid': 'CAKYAQ_clean', 'submitters': [{'name': 'Dalar Nazarian Jeff Camp and David Sholl', 'email': 'dalar@gatech.edu jcamp6@gatech.edu'}], '_method': 'VASP DFT with PBE;DDEC'}
data_NdH2C7(NO3)2
_symmetry_space_group_name_H-M   'P 1'
_cell_length_a   6.16449979
_cell_length_b   10.07399990
_cell_length_c   13.50300000
_cell_angle_alpha   68.95099716
_cell_angle_beta   80.87199889
_cell_angle_gamma   76.66700083
_symmetry_Int_Tables_number   1
_chemical_formula_structural   NdH2C7(NO3)2
_chemical_formula_sum   'Nd2 H4 C14 N4 O12'
_cell_volume   758.846223565
_cell_formula_units_Z   2
loop_
 _symmetry_equiv_pos_site_id
 _symmetry_equiv_pos_as_xyz
  1  'x, y, z'
loop_
 _atom_site_label
 _atom_site_fract_x
 _atom_site_fract_y
 _atom_site_fract_z
 _atom_site_charge
 Nd 0.82878 0.61541 0.19666   2.163968
 Nd 0.17122 0.38459 0.80335   2.163961
 H 0.3239 0.0469 0.0268   0.091257
 H 0.7016 0.3271 0.6293   0.072596
 H 0.6761 0.9531 0.9732   0.09126
 H 0.2984 0.6729 0.3707   0.072593
 C 0.2838 0.7695 0.1405   0.692029
 C 0.1336 0.895 0.0682   0.067451
 C 0.1906 0.0294 0.0145   0.20566
 C 0.9469 0.3842 0.4409   0.633355
 C 0.7102 0.4451 0.473   0.109231
 C 0.6164 0.3988 0.5775   0.218901
 C 0.0873 0.4403 0.0338   0.553859
 C 0.7162 0.2305 0.8595   0.692015
 C 0.8664 0.105 0.9318   0.067462
 C 0.8094 0.9706 0.9855   0.205653
 C 0.0531 0.6158 0.5591   0.633351
 C 0.2898 0.5549 0.527   0.109252
 C 0.3836 0.6012 0.4225   0.21888
 C 0.9127 0.5597 0.9662   0.553844
 N 0.9402 0.8659 0.0544   -0.403304
 N 0.5924 0.5457 0.3946   -0.48628
 N 0.0598 0.1341 0.9456   -0.403322
 N 0.4076 0.4543 0.6054   -0.486302
 O 0.2121 0.6543 0.1846   -0.660194
 O 0.4738 0.7876 0.1496   -0.704801
 O 0.0118 0.4309 0.3438   -0.704726
 O 0.0647 0.2925 0.5114   -0.578115
 O 0.0829 0.4308 0.1289   -0.607634
 O 0.2206 0.3631 0.9878   -0.66324
 O 0.7879 0.3457 0.8154   -0.660173
 O 0.5262 0.2124 0.8504   -0.704797
 O 0.9882 0.5691 0.6562   -0.704716
 O 0.9353 0.7075 0.4886   -0.578128
 O 0.9171 0.5692 0.8711   -0.607629
 O 0.7794 0.6369 0.0122   -0.663219
