{'_ref': 'TBD', '_srcid': 'CAKYAQ_clean', 'submitters': [{'name': 'Dalar Nazarian Jeff Camp and David Sholl', 'email': 'dalar@gatech.edu jcamp6@gatech.edu'}], '_method': 'VASP DFT with PBE;DDEC'}
data_SmH2C7(NO3)2
_symmetry_space_group_name_H-M   'P 1'
_cell_length_a   6.11390040
_cell_length_b   9.98300001
_cell_length_c   13.41300000
_cell_angle_alpha   68.93100264
_cell_angle_beta   80.96000249
_cell_angle_gamma   76.68900163
_symmetry_Int_Tables_number   1
_chemical_formula_structural   SmH2C7(NO3)2
_chemical_formula_sum   'Sm2 H4 C14 N4 O12'
_cell_volume   740.914531918
_cell_formula_units_Z   2
loop_
 _symmetry_equiv_pos_site_id
 _symmetry_equiv_pos_as_xyz
  1  'x, y, z'
loop_
 _atom_site_label
 _atom_site_fract_x
 _atom_site_fract_y
 _atom_site_fract_z
 _atom_site_charge
 Sm 0.83082 0.61458 0.19641   2.164574
 Sm 0.16918 0.38542 0.80359   2.164574
 H 0.3225 0.0496 0.029   0.092093
 H 0.702 0.3258 0.6306   0.072403
 H 0.6775 0.9504 0.971   0.092093
 H 0.298 0.6742 0.3694   0.072403
 C 0.2863 0.7672 0.1404   0.694309
 C 0.1325 0.8953 0.0684   0.065729
 C 0.1898 0.0314 0.0151   0.208426
 C 0.9484 0.3835 0.4395   0.637678
 C 0.7116 0.4439 0.4728   0.109758
 C 0.6162 0.3978 0.5782   0.222473
 C 0.0892 0.4407 0.0333   0.554173
 C 0.7137 0.2328 0.8596   0.694309
 C 0.8675 0.1047 0.9316   0.065729
 C 0.8102 0.9686 0.9849   0.208426
 C 0.0516 0.6165 0.5605   0.637677
 C 0.2884 0.5561 0.5272   0.109758
 C 0.3838 0.6022 0.4218   0.222473
 C 0.9108 0.5593 0.9667   0.554174
 N 0.9389 0.8647 0.0546   -0.402666
 N 0.5938 0.5462 0.3941   -0.491453
 N 0.0611 0.1353 0.9454   -0.402666
 N 0.4062 0.4538 0.6059   -0.491453
 O 0.2129 0.6517 0.1843   -0.659556
 O 0.4775 0.785 0.1509   -0.710491
 O 0.0143 0.4311 0.3423   -0.70725
 O 0.0668 0.2907 0.5099   -0.578358
 O 0.0835 0.4305 0.1296   -0.607484
 O 0.2237 0.3624 0.9867   -0.664357
 O 0.7871 0.3483 0.8157   -0.659556
 O 0.5225 0.215 0.8491   -0.710491
 O 0.9857 0.5689 0.6577   -0.70725
 O 0.9332 0.7093 0.4901   -0.578359
 O 0.9165 0.5695 0.8704   -0.607484
 O 0.7763 0.6376 0.0133   -0.664357
