{'_ref': 'TBD', '_srcid': 'CAKYAQ_clean', 'submitters': [{'name': 'Dalar Nazarian Jeff Camp and David Sholl', 'email': 'dalar@gatech.edu jcamp6@gatech.edu'}], '_method': 'VASP DFT with PBE;DDEC'}
data_CeH6(C3O4)3
_symmetry_space_group_name_H-M   'P 1'
_cell_length_a   8.94270000
_cell_length_b   10.28799969
_cell_length_c   10.28800000
_cell_angle_alpha   120.00000099
_cell_angle_beta   90.00000000
_cell_angle_gamma   90.00000000
_symmetry_Int_Tables_number   1
_chemical_formula_structural   CeH6(C3O4)3
_chemical_formula_sum   'Ce2 H12 C18 O24'
_cell_volume   819.711800789
_cell_formula_units_Z   2
loop_
 _symmetry_equiv_pos_site_id
 _symmetry_equiv_pos_as_xyz
  1  'x, y, z'
loop_
 _atom_site_label
 _atom_site_fract_x
 _atom_site_fract_y
 _atom_site_fract_z
 _atom_site_charge
 Ce 0.95012 0.33333 0.66666   2.179179
 Ce 0.04988 0.66667 0.33334   2.179186
 H 0.5624 0.4799 0.1151   0.115035
 H 0.7207 0.6298 0.0589   0.142155
 H 0.5624 0.6352 0.5201   0.115023
 H 0.7207 0.4291 0.3702   0.142155
 H 0.5624 0.8849 0.3648   0.115029
 H 0.7207 0.9411 0.5709   0.142152
 H 0.4376 0.5201 0.8849   0.115036
 H 0.2793 0.3702 0.9411   0.142155
 H 0.4376 0.3648 0.4799   0.115024
 H 0.2793 0.5709 0.6298   0.142155
 H 0.4376 0.1151 0.6352   0.115029
 H 0.2793 0.0589 0.4291   0.142152
 C 0.8438 0.4455 0.0253   0.684321
 C 0.5666 0.4619 0.0122   0.107258
 C 0.7156 0.521 0.9911   0.010375
 C 0.8438 0.5798 0.5545   0.684339
 C 0.5666 0.5503 0.5381   0.10728
 C 0.7156 0.4701 0.479   0.010375
 C 0.8438 0.9747 0.4202   0.684334
 C 0.5666 0.9878 0.4497   0.10726
 C 0.7156 0.0089 0.5299   0.01038
 C 0.1562 0.5545 0.9747   0.684322
 C 0.4334 0.5381 0.9878   0.107256
 C 0.2844 0.479 0.0089   0.010374
 C 0.1562 0.4202 0.4455   0.684341
 C 0.4334 0.4497 0.4619   0.107275
 C 0.2844 0.5299 0.521   0.010375
 C 0.1562 0.0253 0.5798   0.684335
 C 0.4334 0.0122 0.5503   0.107257
 C 0.2844 0.9911 0.4701   0.010379
 O 0.5591 0.3035 0.9111   -0.189468
 O 0.9218 0.3509 0.9172   -0.618385
 O 0.8629 0.4813 0.1595   -0.59265
 O 0.7346 0.488 0.839   -0.384968
 O 0.5591 0.6076 0.6965   -0.189508
 O 0.9218 0.5663 0.6491   -0.618396
 O 0.8629 0.6782 0.5187   -0.592701
 O 0.7346 0.351 0.512   -0.385015
 O 0.5591 0.0889 0.3924   -0.189454
 O 0.9218 0.0828 0.4337   -0.618413
 O 0.8629 0.8405 0.3218   -0.592681
 O 0.7346 0.161 0.649   -0.385018
 O 0.4409 0.6965 0.0889   -0.189463
 O 0.0782 0.6491 0.0828   -0.618385
 O 0.1371 0.5187 0.8405   -0.59265
 O 0.2654 0.512 0.161   -0.384968
 O 0.4409 0.3924 0.3035   -0.189503
 O 0.0782 0.4337 0.3509   -0.618396
 O 0.1371 0.3218 0.4813   -0.592701
 O 0.2654 0.649 0.488   -0.385015
 O 0.4409 0.9111 0.6076   -0.18945
 O 0.0782 0.9172 0.5663   -0.618413
 O 0.1371 0.1595 0.6782   -0.59268
 O 0.2654 0.839 0.351   -0.385018
