{'_ref': 'TBD', '_srcid': 'CAKYAQ_clean', 'submitters': [{'name': 'Dalar Nazarian Jeff Camp and David Sholl', 'email': 'dalar@gatech.edu jcamp6@gatech.edu'}], '_method': 'VASP DFT with PBE;DDEC'}
data_NdH6(C3O4)3
_symmetry_space_group_name_H-M   'P 1'
_cell_length_a   8.90210000
_cell_length_b   10.21509991
_cell_length_c   10.21510000
_cell_angle_alpha   120.00000029
_cell_angle_beta   90.00000000
_cell_angle_gamma   90.00000000
_symmetry_Int_Tables_number   1
_chemical_formula_structural   NdH6(C3O4)3
_chemical_formula_sum   'Nd2 H12 C18 O24'
_cell_volume   804.467197378
_cell_formula_units_Z   2
loop_
 _symmetry_equiv_pos_site_id
 _symmetry_equiv_pos_as_xyz
  1  'x, y, z'
loop_
 _atom_site_label
 _atom_site_fract_x
 _atom_site_fract_y
 _atom_site_fract_z
 _atom_site_charge
 Nd 0.94886 0.33333 0.66666   2.225297
 Nd 0.05114 0.66667 0.33334   2.225304
 H 0.5629 0.4813 0.1168   0.11532
 H 0.722 0.6314 0.0602   0.143103
 H 0.5629 0.6355 0.5187   0.115325
 H 0.722 0.4288 0.3686   0.143096
 H 0.5629 0.8832 0.3645   0.115319
 H 0.722 0.9398 0.5712   0.143099
 H 0.4371 0.5187 0.8832   0.115321
 H 0.278 0.3686 0.9398   0.143103
 H 0.4371 0.3645 0.4813   0.115325
 H 0.278 0.5712 0.6314   0.143096
 H 0.4371 0.1168 0.6355   0.11532
 H 0.278 0.0602 0.4288   0.1431
 C 0.845 0.4457 0.0253   0.687361
 C 0.5674 0.4624 0.0129   0.106469
 C 0.7168 0.5218 0.9916   0.013843
 C 0.845 0.5796 0.5543   0.687372
 C 0.5674 0.5505 0.5376   0.106456
 C 0.7168 0.4698 0.4782   0.013851
 C 0.845 0.9747 0.4204   0.687383
 C 0.5674 0.9871 0.4495   0.106471
 C 0.7168 0.0084 0.5302   0.013842
 C 0.155 0.5543 0.9747   0.687362
 C 0.4326 0.5376 0.9871   0.106466
 C 0.2832 0.4782 0.0084   0.013843
 C 0.155 0.4204 0.4457   0.687373
 C 0.4326 0.4495 0.4624   0.106454
 C 0.2832 0.5302 0.5218   0.013851
 C 0.155 0.0253 0.5796   0.687384
 C 0.4326 0.0129 0.5505   0.106467
 C 0.2832 0.9916 0.4698   0.013841
 O 0.5592 0.3026 0.9122   -0.187637
 O 0.9236 0.35 0.916   -0.62337
 O 0.8646 0.4825 0.1609   -0.600234
 O 0.7367 0.4888 0.8384   -0.396592
 O 0.5592 0.6096 0.6974   -0.187577
 O 0.9236 0.566 0.65   -0.623393
 O 0.8646 0.6784 0.5175   -0.600284
 O 0.7367 0.3496 0.5112   -0.39664
 O 0.5592 0.0878 0.3904   -0.187604
 O 0.9236 0.084 0.434   -0.623418
 O 0.8646 0.8391 0.3216   -0.600259
 O 0.7367 0.1616 0.6504   -0.396614
 O 0.4408 0.6974 0.0878   -0.187628
 O 0.0764 0.65 0.084   -0.62337
 O 0.1354 0.5175 0.8391   -0.600233
 O 0.2633 0.5112 0.1616   -0.396592
 O 0.4408 0.3904 0.3026   -0.187568
 O 0.0764 0.434 0.35   -0.623393
 O 0.1354 0.3216 0.4825   -0.600283
 O 0.2633 0.6504 0.4888   -0.396641
 O 0.4408 0.9122 0.6096   -0.187595
 O 0.0764 0.916 0.566   -0.623418
 O 0.1354 0.1609 0.6784   -0.600258
 O 0.2633 0.8384 0.3496   -0.396614
