{'_ref': 'TBD', '_srcid': 'CAKYAQ_clean', 'submitters': [{'name': 'Dalar Nazarian Jeff Camp and David Sholl', 'email': 'dalar@gatech.edu jcamp6@gatech.edu'}], '_method': 'VASP DFT with PBE;DDEC'}
data_ZnH17C23(N3O2)2
_symmetry_space_group_name_H-M   'P 1'
_cell_length_a   10.83600003
_cell_length_b   14.96200000
_cell_length_c   14.96700000
_cell_angle_alpha   90.00000000
_cell_angle_beta   92.49399991
_cell_angle_gamma   90.00000000
_symmetry_Int_Tables_number   1
_chemical_formula_structural   ZnH17C23(N3O2)2
_chemical_formula_sum   'Zn4 H68 C92 N24 O16'
_cell_volume   2424.27476663
_cell_formula_units_Z   4
loop_
 _symmetry_equiv_pos_site_id
 _symmetry_equiv_pos_as_xyz
  1  'x, y, z'
loop_
 _atom_site_label
 _atom_site_fract_x
 _atom_site_fract_y
 _atom_site_fract_z
 _atom_site_charge
 Zn 0.42952 0.65761 0.12123   0.904952
 Zn 0.07048 0.15761 0.87877   0.904952
 Zn 0.57048 0.34239 0.87877   0.904952
 Zn 0.92952 0.84239 0.12123   0.904952
 H 0.2515 0.5898 0.2659   0.08343
 H 0.4716 0.7905 0.2976   0.108531
 H 0.4301 0.8258 0.4661   0.10049
 H 0.3634 0.7478 0.5143   0.113494
 H 0.2101 0.8694 0.3446   0.081369
 H 0.0471 0.9645 0.3603   0.087979
 H 0.0826 0.9372 0.6238   0.10546
 H 0.2403 0.8373 0.6046   0.103391
 H 0.8356 0.4097 0.4949   0.073257
 H 0.7561 0.3718 0.3557   0.093642
 H 0.0245 0.5028 0.2438   0.110676
 H 0.1048 0.543 0.3846   0.097891
 H 0.8799 0.4131 0.1484   0.126156
 H 0.7676 0.3659 0.1922   0.120162
 H 0.565 0.4561 0.1421   0.126034
 H 0.702 0.6949 0.1459   0.081858
 H 0.3457 0.8946 0.9851   0.106386
 H 0.2485 0.0898 0.7341   0.08343
 H 0.0284 0.2905 0.7024   0.108531
 H 0.0699 0.3258 0.5339   0.10049
 H 0.1366 0.2478 0.4857   0.113494
 H 0.2899 0.3694 0.6554   0.081369
 H 0.4529 0.4645 0.6397   0.087979
 H 0.4174 0.4372 0.3762   0.105459
 H 0.2597 0.3373 0.3954   0.103391
 H 0.6644 0.9097 0.5051   0.073257
 H 0.7439 0.8718 0.6443   0.093642
 H 0.4755 0.0028 0.7562   0.110676
 H 0.3952 0.043 0.6154   0.097891
 H 0.6201 0.9131 0.8516   0.126156
 H 0.7324 0.8659 0.8078   0.120162
 H 0.935 0.9561 0.8579   0.126034
 H 0.798 0.1949 0.8541   0.081858
 H 0.1543 0.3946 0.0149   0.106386
 H 0.7485 0.4102 0.7341   0.08343
 H 0.5284 0.2095 0.7024   0.108531
 H 0.5699 0.1742 0.5339   0.10049
 H 0.6366 0.2522 0.4857   0.113495
 H 0.7899 0.1306 0.6554   0.081369
 H 0.9529 0.0355 0.6397   0.087979
 H 0.9174 0.0628 0.3762   0.105459
 H 0.7597 0.1627 0.3954   0.10339
 H 0.1644 0.5903 0.5051   0.073257
 H 0.2439 0.6282 0.6443   0.093642
 H 0.9755 0.4972 0.7562   0.110676
 H 0.8952 0.457 0.6154   0.09789
 H 0.1201 0.5869 0.8516   0.126156
 H 0.2324 0.6341 0.8078   0.120161
 H 0.435 0.5439 0.8579   0.126034
 H 0.298 0.3051 0.8541   0.081858
 H 0.6543 0.1054 0.0149   0.106386
 H 0.7515 0.9102 0.2659   0.08343
 H 0.9716 0.7095 0.2976   0.108531
 H 0.9301 0.6742 0.4661   0.10049
 H 0.8634 0.7522 0.5143   0.113495
 H 0.7101 0.6306 0.3446   0.081369
 H 0.5471 0.5355 0.3603   0.087979
 H 0.5826 0.5628 0.6238   0.105459
 H 0.7403 0.6627 0.6046   0.10339
 H 0.3356 0.0903 0.4949   0.073257
 H 0.2561 0.1282 0.3557   0.093642
 H 0.5245 0.9972 0.2438   0.110676
 H 0.6048 0.957 0.3846   0.09789
 H 0.3799 0.0869 0.1484   0.126156
 H 0.2676 0.1341 0.1922   0.120161
 H 0.065 0.0439 0.1421   0.126033
 H 0.202 0.8051 0.1459   0.081858
 H 0.8457 0.6054 0.9851   0.106386
 C 0.2947 0.6377 0.2916   0.314482
 C 0.4141 0.7457 0.307   0.170742
 C 0.357 0.7883 0.4637   -0.075933
 C 0.2454 0.8466 0.4732   0.045215
 C 0.1854 0.8835 0.4017   -0.1183
 C 0.0881 0.9417 0.4112   -0.101104
 C 0.05 0.9668 0.4944   0.025147
 C 0.1079 0.9252 0.5664   -0.101695
 C 0.2037 0.8654 0.5547   -0.119517
 C 0.9759 0.4847 0.4561   0.021458
 C 0.8739 0.4311 0.4447   -0.087619
 C 0.8261 0.4078 0.3602   -0.137581
 C 0.8774 0.4354 0.2844   0.029048
 C 0.9839 0.485 0.2943   -0.10298
 C 0.0326 0.5094 0.3799   -0.112433
 C 0.8173 0.4198 0.1923   -0.07358
 C 0.6192 0.5041 0.1476   0.159305
 C 0.6959 0.6331 0.1503   0.284407
 C 0.5242 0.8273 0.0881   0.662821
 C 0.5172 0.9152 0.0364   -0.102769
 C 0.6112 0.978 0.0466   -0.09787
 C 0.408 0.9371 0.9909   -0.064756
 C 0.7387 0.9554 0.0851   0.67002
 C 0.2053 0.1377 0.7084   0.314482
 C 0.0859 0.2457 0.693   0.170742
 C 0.143 0.2883 0.5363   -0.075933
 C 0.2546 0.3466 0.5268   0.045215
 C 0.3146 0.3835 0.5983   -0.1183
 C 0.4119 0.4417 0.5888   -0.101104
 C 0.45 0.4668 0.5056   0.025147
 C 0.3921 0.4252 0.4336   -0.101695
 C 0.2963 0.3654 0.4453   -0.119518
 C 0.5241 0.9847 0.5439   0.021458
 C 0.6261 0.9311 0.5553   -0.087619
 C 0.6739 0.9078 0.6398   -0.137581
 C 0.6226 0.9354 0.7156   0.029048
 C 0.5161 0.985 0.7057   -0.102979
 C 0.4674 0.0094 0.6201   -0.112434
 C 0.6827 0.9198 0.8077   -0.07358
 C 0.8808 0.0041 0.8524   0.159306
 C 0.8041 0.1331 0.8497   0.284407
 C 0.9758 0.3273 0.9119   0.662821
 C 0.9828 0.4152 0.9636   -0.102769
 C 0.8888 0.478 0.9534   -0.09787
 C 0.092 0.4371 0.0091   -0.064756
 C 0.7613 0.4554 0.9149   0.67002
 C 0.7053 0.3623 0.7084   0.314482
 C 0.5859 0.2543 0.693   0.170743
 C 0.643 0.2117 0.5363   -0.075933
 C 0.7546 0.1534 0.5268   0.045215
 C 0.8146 0.1165 0.5983   -0.118301
 C 0.9119 0.0583 0.5888   -0.101104
 C 0.95 0.0332 0.5056   0.025147
 C 0.8921 0.0748 0.4336   -0.101695
 C 0.7963 0.1346 0.4453   -0.119516
 C 0.0241 0.5153 0.5439   0.021456
 C 0.1261 0.5689 0.5553   -0.08762
 C 0.1739 0.5922 0.6398   -0.137581
 C 0.1226 0.5646 0.7156   0.029048
 C 0.0161 0.515 0.7057   -0.10298
 C 0.9674 0.4906 0.6201   -0.112433
 C 0.1827 0.5802 0.8077   -0.073579
 C 0.3808 0.4959 0.8524   0.159306
 C 0.3041 0.3669 0.8497   0.284407
 C 0.4758 0.1727 0.9119   0.662821
 C 0.4828 0.0848 0.9636   -0.102769
 C 0.3888 0.022 0.9534   -0.09787
 C 0.592 0.0629 0.0091   -0.064756
 C 0.2613 0.0446 0.9149   0.67002
 C 0.7947 0.8623 0.2916   0.314482
 C 0.9141 0.7543 0.307   0.170743
 C 0.857 0.7117 0.4637   -0.075933
 C 0.7454 0.6534 0.4732   0.045215
 C 0.6854 0.6165 0.4017   -0.118301
 C 0.5881 0.5583 0.4112   -0.101104
 C 0.55 0.5332 0.4944   0.025147
 C 0.6079 0.5748 0.5664   -0.101695
 C 0.7037 0.6346 0.5547   -0.119517
 C 0.4759 0.0153 0.4561   0.021456
 C 0.3739 0.0689 0.4447   -0.08762
 C 0.3261 0.0922 0.3602   -0.137581
 C 0.3774 0.0646 0.2844   0.029048
 C 0.4839 0.015 0.2943   -0.10298
 C 0.5326 0.9906 0.3799   -0.112434
 C 0.3173 0.0802 0.1923   -0.073579
 C 0.1192 0.9959 0.1476   0.159306
 C 0.1959 0.8669 0.1503   0.284407
 C 0.0242 0.6727 0.0881   0.662821
 C 0.0172 0.5848 0.0364   -0.102769
 C 0.1112 0.522 0.0466   -0.09787
 C 0.908 0.5629 0.9909   -0.064756
 C 0.2387 0.5446 0.0851   0.67002
 N 0.3795 0.6828 0.2465   -0.438146
 N 0.2759 0.6638 0.372   -0.371878
 N 0.3558 0.7351 0.3804   0.157287
 N 0.5885 0.589 0.1338   -0.432308
 N 0.7911 0.582 0.1729   -0.33252
 N 0.7392 0.4977 0.1705   0.146963
 N 0.1205 0.1828 0.7535   -0.438146
 N 0.2241 0.1638 0.628   -0.371878
 N 0.1442 0.2351 0.6196   0.157287
 N 0.9115 0.089 0.8662   -0.432309
 N 0.7089 0.082 0.8271   -0.33252
 N 0.7608 0.9977 0.8295   0.146963
 N 0.6205 0.3172 0.7535   -0.438146
 N 0.7241 0.3362 0.628   -0.371878
 N 0.6442 0.2649 0.6196   0.157287
 N 0.4115 0.411 0.8662   -0.432309
 N 0.2089 0.418 0.8271   -0.33252
 N 0.2608 0.5023 0.8295   0.146963
 N 0.8795 0.8172 0.2465   -0.438146
 N 0.7759 0.8362 0.372   -0.371878
 N 0.8558 0.7649 0.3804   0.157287
 N 0.0885 0.911 0.1338   -0.432309
 N 0.2911 0.918 0.1729   -0.33252
 N 0.2392 0.0023 0.1705   0.146963
 O 0.463 0.7622 0.049   -0.626759
 O 0.577 0.823 0.1607   -0.579686
 O 0.7853 0.8848 0.0537   -0.613978
 O 0.7888 0.0048 0.1408   -0.620638
 O 0.037 0.2622 0.951   -0.626759
 O 0.923 0.323 0.8393   -0.579686
 O 0.7147 0.3848 0.9463   -0.613978
 O 0.7112 0.5048 0.8592   -0.620638
 O 0.537 0.2378 0.951   -0.626759
 O 0.423 0.177 0.8393   -0.579686
 O 0.2147 0.1152 0.9463   -0.613978
 O 0.2112 0.9952 0.8592   -0.620638
 O 0.963 0.7378 0.049   -0.626759
 O 0.077 0.677 0.1607   -0.579686
 O 0.2853 0.6152 0.0537   -0.613978
 O 0.2888 0.4952 0.1408   -0.620638
