{'_ref': 'TBD', '_srcid': 'CAKYAQ_clean', 'submitters': [{'name': 'Dalar Nazarian Jeff Camp and David Sholl', 'email': 'dalar@gatech.edu jcamp6@gatech.edu'}], '_method': 'VASP DFT with PBE;DDEC'}
data_CoH14C17O6
_symmetry_space_group_name_H-M   'P 1'
_cell_length_a   10.53049974
_cell_length_b   13.84199965
_cell_length_c   14.13610000
_cell_angle_alpha   60.68590064
_cell_angle_beta   82.60520128
_cell_angle_gamma   74.75890216
_symmetry_Int_Tables_number   1
_chemical_formula_structural   CoH14C17O6
_chemical_formula_sum   'Co4 H56 C68 O24'
_cell_volume   1733.47825265
_cell_formula_units_Z   4
loop_
 _symmetry_equiv_pos_site_id
 _symmetry_equiv_pos_as_xyz
  1  'x, y, z'
loop_
 _atom_site_label
 _atom_site_fract_x
 _atom_site_fract_y
 _atom_site_fract_z
 _atom_site_charge
 Co 0.25 0.58283 0.83434   1.057931
 Co 0.75 0.41717 0.16566   1.057931
 Co 0.5 0.5 0.0   1.151261
 Co 0.0 0.5 0.0   1.151257
 H 0.2652 0.7001 0.14   0.095998
 H 0.1509 0.8234 0.2062   0.126884
 H 0.7019 0.7342 0.753   0.094742
 H 0.4201 0.8193 0.544   0.096482
 H 0.8318 0.8828 0.0414   0.121763
 H 0.9444 0.7569 0.9794   0.087509
 H 0.8244 0.8437 0.6142   0.137219
 H 0.5422 0.928 0.402   0.119935
 H 0.8884 0.0943 0.2726   0.117692
 H 0.8189 0.1229 0.1674   0.104331
 H 0.9851 0.9071 0.294   0.052461
 H 0.0346 0.0036 0.1892   0.044456
 H 0.7137 0.9646 0.2854   0.04336
 H 0.6605 0.0768 0.2954   0.052619
 H 0.2348 0.1599 0.14   0.096002
 H 0.3491 0.9704 0.2062   0.126886
 H 0.7981 0.5128 0.753   0.094741
 H 0.0799 0.6367 0.544   0.096487
 H 0.6682 0.0758 0.0414   0.121764
 H 0.5556 0.2637 0.9794   0.087508
 H 0.6756 0.5421 0.6142   0.13722
 H 0.9578 0.67 0.402   0.119937
 H 0.6116 0.6331 0.2726   0.117693
 H 0.6811 0.7097 0.1674   0.104329
 H 0.5149 0.7989 0.294   0.052462
 H 0.4654 0.8072 0.1892   0.044457
 H 0.7863 0.75 0.2854   0.043362
 H 0.8395 0.6278 0.2954   0.052621
 H 0.7348 0.2999 0.86   0.095998
 H 0.8491 0.1766 0.7938   0.126884
 H 0.2981 0.2658 0.247   0.094741
 H 0.5799 0.1807 0.456   0.096482
 H 0.1682 0.1172 0.9586   0.121763
 H 0.0556 0.2431 0.0206   0.087509
 H 0.1756 0.1563 0.3858   0.137222
 H 0.4578 0.072 0.598   0.119935
 H 0.1116 0.9057 0.7274   0.117694
 H 0.1811 0.8771 0.8326   0.104331
 H 0.0149 0.0929 0.706   0.052461
 H 0.9654 0.9964 0.8108   0.044456
 H 0.2863 0.0354 0.7146   0.04336
 H 0.3395 0.9232 0.7046   0.052619
 H 0.7652 0.8401 0.86   0.096002
 H 0.6509 0.0296 0.7938   0.126886
 H 0.2019 0.4872 0.247   0.094741
 H 0.9201 0.3633 0.456   0.096488
 H 0.3318 0.9242 0.9586   0.121764
 H 0.4444 0.7363 0.0206   0.087508
 H 0.3244 0.4579 0.3858   0.137223
 H 0.0422 0.33 0.598   0.119937
 H 0.3884 0.3669 0.7274   0.117694
 H 0.3189 0.2903 0.8326   0.104329
 H 0.4851 0.2011 0.706   0.052463
 H 0.5346 0.1928 0.8108   0.044457
 H 0.2137 0.25 0.7146   0.043362
 H 0.1605 0.3722 0.7046   0.052621
 C 0.1185 0.71784 0.05112   -0.222067
 C 0.9802 0.8669 0.1272   0.303004
 C 0.4741 0.68869 0.75282   0.727805
 C 0.178 0.73724 0.11972   0.040857
 C 0.1102 0.81148 0.15944   -0.284792
 C 0.6956 0.89563 0.49234   0.307316
 C 0.5481 0.76513 0.66274   -0.239456
 C 0.6699 0.77329 0.68242   0.020459
 C 0.1931 0.64579 0.00302   0.734223
 C 0.5019 0.8236 0.5578   0.041106
 C 0.9192 0.84628 0.06104   -0.24229
 C 0.9869 0.77138 0.02324   0.035897
 C 0.7438 0.83793 0.59974   -0.239382
 C 0.5749 0.88894 0.47232   -0.277938
 C 0.8512 0.06194 0.23832   -0.251556
 C 0.9584 0.97291 0.22418   0.13568
 C 0.7368 0.01527 0.30586   0.139743
 C 0.3815 0.23104 0.05112   -0.222062
 C 0.5198 0.0059 0.1272   0.303003
 C 0.0259 0.55849 0.75282   0.727804
 C 0.322 0.14304 0.11972   0.04084
 C 0.3898 0.02908 0.15944   -0.284786
 C 0.8044 0.61203 0.49234   0.307326
 C 0.9519 0.57213 0.66274   -0.239456
 C 0.8301 0.54429 0.68242   0.020461
 C 0.3069 0.35119 0.00302   0.734229
 C 0.9981 0.6186 0.5578   0.041102
 C 0.5808 0.09268 0.06104   -0.242292
 C 0.5131 0.20538 0.02324   0.0359
 C 0.7562 0.56233 0.59974   -0.239391
 C 0.9251 0.63874 0.47232   -0.277945
 C 0.6488 0.69974 0.23832   -0.25155
 C 0.5416 0.80291 0.22418   0.135678
 C 0.7632 0.67887 0.30586   0.139728
 C 0.8815 0.28216 0.94888   -0.222067
 C 0.0198 0.1331 0.8728   0.303004
 C 0.5259 0.31131 0.24718   0.727805
 C 0.822 0.26276 0.88028   0.040857
 C 0.8898 0.18852 0.84056   -0.284792
 C 0.3044 0.10437 0.50766   0.307316
 C 0.4519 0.23487 0.33726   -0.239456
 C 0.3301 0.22671 0.31758   0.020458
 C 0.8069 0.35421 0.99698   0.734223
 C 0.4981 0.1764 0.4422   0.041105
 C 0.0808 0.15372 0.93896   -0.24229
 C 0.0131 0.22862 0.97676   0.035897
 C 0.2562 0.16207 0.40026   -0.239383
 C 0.4251 0.11106 0.52768   -0.277939
 C 0.1488 0.93806 0.76168   -0.251557
 C 0.0416 0.02709 0.77582   0.13568
 C 0.2632 0.98473 0.69414   0.139744
 C 0.6185 0.76896 0.94888   -0.222062
 C 0.4802 0.9941 0.8728   0.303003
 C 0.9741 0.44151 0.24718   0.727803
 C 0.678 0.85696 0.88028   0.04084
 C 0.6102 0.97092 0.84056   -0.284786
 C 0.1956 0.38797 0.50766   0.307326
 C 0.0481 0.42787 0.33726   -0.239456
 C 0.1699 0.45571 0.31758   0.020461
 C 0.6931 0.64881 0.99698   0.734229
 C 0.0019 0.3814 0.4422   0.041102
 C 0.4192 0.90732 0.93896   -0.242292
 C 0.4869 0.79462 0.97676   0.0359
 C 0.2438 0.43767 0.40026   -0.239392
 C 0.0749 0.36126 0.52768   -0.277945
 C 0.3512 0.30026 0.76168   -0.251551
 C 0.4584 0.19709 0.77582   0.135678
 C 0.2368 0.32113 0.69414   0.139728
 O 0.5273 0.62413 0.84354   -0.630308
 O 0.1301 0.629 0.94188   -0.700665
 O 0.3144 0.60827 0.0181   -0.608595
 O 0.3601 0.69137 0.73206   -0.6233
 O 0.9045 0.94225 0.1587   -0.269359
 O 0.779 0.95452 0.41636   -0.296432
 O 0.9727 0.53233 0.84354   -0.630309
 O 0.3699 0.42912 0.94188   -0.700665
 O 0.1856 0.37363 0.0181   -0.608596
 O 0.1399 0.57657 0.73206   -0.623297
 O 0.5955 0.89905 0.1587   -0.269358
 O 0.721 0.62912 0.41636   -0.296426
 O 0.4727 0.37587 0.15646   -0.630308
 O 0.8699 0.371 0.05812   -0.700665
 O 0.6856 0.39173 0.9819   -0.608595
 O 0.6399 0.30863 0.26794   -0.6233
 O 0.0955 0.05775 0.8413   -0.269359
 O 0.221 0.04548 0.58364   -0.296432
 O 0.0273 0.46767 0.15646   -0.630309
 O 0.6301 0.57088 0.05812   -0.700665
 O 0.8144 0.62637 0.9819   -0.608596
 O 0.8601 0.42343 0.26794   -0.623297
 O 0.4045 0.10095 0.8413   -0.269358
 O 0.279 0.37088 0.58364   -0.296426
