{'_ref': 'TBD', '_srcid': 'CAKYAQ_clean', 'submitters': [{'name': 'Dalar Nazarian Jeff Camp and David Sholl', 'email': 'dalar@gatech.edu jcamp6@gatech.edu'}], '_method': 'VASP DFT with PBE;DDEC'}
data_Er2Fe3H18C42(NO4)6
_symmetry_space_group_name_H-M   'P 1'
_cell_length_a   15.16500000
_cell_length_b   15.16499978
_cell_length_c   15.71300000
_cell_angle_alpha   90.00000000
_cell_angle_beta   90.00000000
_cell_angle_gamma   120.00000047
_symmetry_Int_Tables_number   1
_chemical_formula_structural   Er2Fe3H18C42(NO4)6
_chemical_formula_sum   'Er4 Fe6 H36 C84 N12 O48'
_cell_volume   3129.49717089
_cell_formula_units_Z   2
loop_
 _symmetry_equiv_pos_site_id
 _symmetry_equiv_pos_as_xyz
  1  'x, y, z'
loop_
 _atom_site_label
 _atom_site_fract_x
 _atom_site_fract_y
 _atom_site_fract_z
 _atom_site_charge
 Er 0.66667 0.33334 0.75   1.189921
 Er 0.33333 0.66666 0.75   1.18992
 Er 0.33333 0.66666 0.25   1.189899
 Er 0.66667 0.33334 0.25   1.189898
 Fe 0.5 0.0 0.0   1.290371
 Fe 0.5 0.5 0.0   1.295037
 Fe 0.0 0.5 0.0   1.270067
 Fe 0.5 0.0 0.5   1.290378
 Fe 0.0 0.5 0.5   1.295069
 Fe 0.5 0.5 0.5   1.270056
 H 0.2885 0.0565 0.8456   0.114647
 H 0.768 0.7115 0.8456   0.114307
 H 0.9435 0.232 0.8456   0.114763
 H 0.7115 0.9435 0.8456   0.114671
 H 0.232 0.2885 0.8456   0.114331
 H 0.0565 0.768 0.8456   0.114789
 H 0.232 0.9435 0.6544   0.114641
 H 0.0565 0.2885 0.6544   0.114312
 H 0.7115 0.768 0.6544   0.114762
 H 0.768 0.0565 0.6544   0.11467
 H 0.9435 0.7115 0.6544   0.114343
 H 0.2885 0.232 0.6544   0.11479
 H 0.7115 0.9435 0.1544   0.114697
 H 0.232 0.2885 0.1544   0.114364
 H 0.0565 0.768 0.1544   0.114811
 H 0.2885 0.0565 0.1544   0.114719
 H 0.768 0.7115 0.1544   0.114385
 H 0.9435 0.232 0.1544   0.114834
 H 0.768 0.0565 0.3456   0.114691
 H 0.9435 0.7115 0.3456   0.114369
 H 0.2885 0.232 0.3456   0.114809
 H 0.232 0.9435 0.3456   0.114718
 H 0.0565 0.2885 0.3456   0.114397
 H 0.7115 0.768 0.3456   0.114836
 H 0.1999 0.09995 0.75   0.083313
 H 0.90005 0.8001 0.75   0.083181
 H 0.90005 0.09995 0.75   0.083318
 H 0.8001 0.90005 0.75   0.083426
 H 0.09995 0.1999 0.75   0.083292
 H 0.09995 0.90005 0.75   0.083425
 H 0.8001 0.90005 0.25   0.083312
 H 0.09995 0.1999 0.25   0.083179
 H 0.09995 0.90005 0.25   0.083316
 H 0.1999 0.09995 0.25   0.083425
 H 0.90005 0.8001 0.25   0.08329
 H 0.90005 0.09995 0.25   0.083423
 C 0.3229 0.1089 0.8066   -0.122855
 C 0.4273 0.1624 0.8036   0.113124
 C 0.4934 0.14 0.8607   0.642443
 C 0.786 0.6771 0.8066   -0.122727
 C 0.7351 0.5727 0.8036   0.113305
 C 0.6466 0.5066 0.8607   0.642876
 C 0.8911 0.214 0.8066   -0.123026
 C 0.8376 0.2649 0.8036   0.112824
 C 0.86 0.3534 0.8607   0.640474
 C 0.6771 0.8911 0.8066   -0.122849
 C 0.5727 0.8376 0.8036   0.113125
 C 0.5066 0.86 0.8607   0.642443
 C 0.214 0.3229 0.8066   -0.122722
 C 0.2649 0.4273 0.8036   0.113305
 C 0.3534 0.4934 0.8607   0.642877
 C 0.1089 0.786 0.8066   -0.123021
 C 0.1624 0.7351 0.8036   0.112824
 C 0.14 0.6466 0.8607   0.640475
 C 0.214 0.8911 0.6934   -0.122846
 C 0.2649 0.8376 0.6964   0.113122
 C 0.3534 0.86 0.6393   0.64243
 C 0.1089 0.3229 0.6934   -0.122719
 C 0.1624 0.4273 0.6964   0.113305
 C 0.14 0.4934 0.6393   0.64288
 C 0.6771 0.786 0.6934   -0.123016
 C 0.5727 0.7351 0.6964   0.112821
 C 0.5066 0.6466 0.6393   0.640479
 C 0.786 0.1089 0.6934   -0.122868
 C 0.7351 0.1624 0.6964   0.113127
 C 0.6466 0.14 0.6393   0.642429
 C 0.8911 0.6771 0.6934   -0.122742
 C 0.8376 0.5727 0.6964   0.11331
 C 0.86 0.5066 0.6393   0.642881
 C 0.3229 0.214 0.6934   -0.12304
 C 0.4273 0.2649 0.6964   0.112826
 C 0.4934 0.3534 0.6393   0.64048
 C 0.6771 0.8911 0.1934   -0.122872
 C 0.5727 0.8376 0.1964   0.113131
 C 0.5066 0.86 0.1393   0.642436
 C 0.214 0.3229 0.1934   -0.122749
 C 0.2649 0.4273 0.1964   0.113312
 C 0.3534 0.4934 0.1393   0.642873
 C 0.1089 0.786 0.1934   -0.123044
 C 0.1624 0.7351 0.1964   0.11283
 C 0.14 0.6466 0.1393   0.640468
 C 0.3229 0.1089 0.1934   -0.122866
 C 0.4273 0.1624 0.1964   0.113131
 C 0.4934 0.14 0.1393   0.642435
 C 0.786 0.6771 0.1934   -0.122743
 C 0.7351 0.5727 0.1964   0.113311
 C 0.6466 0.5066 0.1393   0.642875
 C 0.8911 0.214 0.1934   -0.123038
 C 0.8376 0.2649 0.1964   0.11283
 C 0.86 0.3534 0.1393   0.640469
 C 0.786 0.1089 0.3066   -0.122864
 C 0.7351 0.1624 0.3036   0.113128
 C 0.6466 0.14 0.3607   0.642427
 C 0.8911 0.6771 0.3066   -0.12274
 C 0.8376 0.5727 0.3036   0.113312
 C 0.86 0.5066 0.3607   0.642878
 C 0.3229 0.214 0.3066   -0.123034
 C 0.4273 0.2649 0.3036   0.112827
 C 0.4934 0.3534 0.3607   0.640473
 C 0.214 0.8911 0.3066   -0.122886
 C 0.2649 0.8376 0.3036   0.113133
 C 0.3534 0.86 0.3607   0.642426
 C 0.1089 0.3229 0.3066   -0.122763
 C 0.1624 0.4273 0.3036   0.113316
 C 0.14 0.4934 0.3607   0.642879
 C 0.6771 0.786 0.3066   -0.123057
 C 0.5727 0.7351 0.3036   0.112832
 C 0.5066 0.6466 0.3607   0.640474
 C 0.2707 0.13535 0.75   -0.027829
 C 0.86465 0.7293 0.75   -0.028252
 C 0.86465 0.13535 0.75   -0.02783
 C 0.7293 0.86465 0.75   -0.027872
 C 0.13535 0.2707 0.75   -0.028294
 C 0.13535 0.86465 0.75   -0.027871
 C 0.7293 0.86465 0.25   -0.027818
 C 0.13535 0.2707 0.25   -0.028238
 C 0.13535 0.86465 0.25   -0.027819
 C 0.2707 0.13535 0.25   -0.027861
 C 0.86465 0.7293 0.25   -0.028281
 C 0.86465 0.13535 0.25   -0.02786
 N 0.4791 0.23955 0.75   -0.26957
 N 0.76045 0.5209 0.75   -0.270078
 N 0.76045 0.23955 0.75   -0.26957
 N 0.5209 0.76045 0.75   -0.269568
 N 0.23955 0.4791 0.75   -0.270077
 N 0.23955 0.76045 0.75   -0.269569
 N 0.5209 0.76045 0.25   -0.26957
 N 0.23955 0.4791 0.25   -0.270079
 N 0.23955 0.76045 0.25   -0.269571
 N 0.4791 0.23955 0.25   -0.269569
 N 0.76045 0.5209 0.25   -0.270077
 N 0.76045 0.23955 0.25   -0.269569
 O 0.5893 0.1997 0.8555   -0.561524
 O 0.4492 0.0649 0.9088   -0.599396
 O 0.6104 0.4107 0.8555   -0.562197
 O 0.6157 0.5508 0.9088   -0.601966
 O 0.8003 0.3896 0.8555   -0.558989
 O 0.9351 0.3843 0.9088   -0.593404
 O 0.4107 0.8003 0.8555   -0.561524
 O 0.5508 0.9351 0.9088   -0.599397
 O 0.3896 0.5893 0.8555   -0.562197
 O 0.3843 0.4492 0.9088   -0.601967
 O 0.1997 0.6104 0.8555   -0.558989
 O 0.0649 0.6157 0.9088   -0.593405
 O 0.3896 0.8003 0.6445   -0.561526
 O 0.3843 0.9351 0.5912   -0.599396
 O 0.1997 0.5893 0.6445   -0.562196
 O 0.0649 0.4492 0.5912   -0.601968
 O 0.4107 0.6104 0.6445   -0.558991
 O 0.5508 0.6157 0.5912   -0.593401
 O 0.6104 0.1997 0.6445   -0.561526
 O 0.6157 0.0649 0.5912   -0.599396
 O 0.8003 0.4107 0.6445   -0.562196
 O 0.9351 0.5508 0.5912   -0.601968
 O 0.5893 0.3896 0.6445   -0.55899
 O 0.4492 0.3843 0.5912   -0.593402
 O 0.4107 0.8003 0.1445   -0.561523
 O 0.5508 0.9351 0.0912   -0.599396
 O 0.3896 0.5893 0.1445   -0.562196
 O 0.3843 0.4492 0.0912   -0.601958
 O 0.1997 0.6104 0.1445   -0.558988
 O 0.0649 0.6157 0.0912   -0.593408
 O 0.5893 0.1997 0.1445   -0.561523
 O 0.4492 0.0649 0.0912   -0.599396
 O 0.6104 0.4107 0.1445   -0.562196
 O 0.6157 0.5508 0.0912   -0.601958
 O 0.8003 0.3896 0.1445   -0.558988
 O 0.9351 0.3843 0.0912   -0.593408
 O 0.6104 0.1997 0.3555   -0.561525
 O 0.6157 0.0649 0.4088   -0.599396
 O 0.8003 0.4107 0.3555   -0.562194
 O 0.9351 0.5508 0.4088   -0.601959
 O 0.5893 0.3896 0.3555   -0.558989
 O 0.4492 0.3843 0.4088   -0.593405
 O 0.3896 0.8003 0.3555   -0.561525
 O 0.3843 0.9351 0.4088   -0.599396
 O 0.1997 0.5893 0.3555   -0.562194
 O 0.0649 0.4492 0.4088   -0.601959
 O 0.4107 0.6104 0.3555   -0.558989
 O 0.5508 0.6157 0.4088   -0.593405
