{'_ref': 'TBD', '_srcid': 'CAKYAQ_clean', 'submitters': [{'name': 'Dalar Nazarian Jeff Camp and David Sholl', 'email': 'dalar@gatech.edu jcamp6@gatech.edu'}], '_method': 'VASP DFT with PBE;DDEC'}
data_Sm2Co3H18C42(NO4)6
_symmetry_space_group_name_H-M   'P 1'
_cell_length_a   15.30920000
_cell_length_b   15.30919990
_cell_length_c   15.34600000
_cell_angle_alpha   90.00000000
_cell_angle_beta   90.00000000
_cell_angle_gamma   120.00000021
_symmetry_Int_Tables_number   1
_chemical_formula_structural   Sm2Co3H18C42(NO4)6
_chemical_formula_sum   'Sm4 Co6 H36 C84 N12 O48'
_cell_volume   3114.80465712
_cell_formula_units_Z   2
loop_
 _symmetry_equiv_pos_site_id
 _symmetry_equiv_pos_as_xyz
  1  'x, y, z'
loop_
 _atom_site_label
 _atom_site_fract_x
 _atom_site_fract_y
 _atom_site_fract_z
 _atom_site_charge
 Sm 0.33333 0.66666 0.75   2.141568
 Sm 0.66667 0.33334 0.75   2.141567
 Sm 0.66667 0.33334 0.25   2.141568
 Sm 0.33333 0.66666 0.25   2.141568
 Co 0.5 0.5 0.5   1.122458
 Co 0.0 0.5 0.5   1.123168
 Co 0.5 0.0 0.5   1.12017
 Co 0.0 0.5 0.0   1.122462
 Co 0.5 0.5 0.0   1.123172
 Co 0.5 0.0 0.0   1.120165
 H 0.2336 0.2871 0.6553   0.116634
 H 0.0535 0.7664 0.6553   0.116598
 H 0.7129 0.9465 0.6553   0.116636
 H 0.7664 0.7129 0.6553   0.116634
 H 0.9465 0.2336 0.6553   0.116598
 H 0.2871 0.0535 0.6553   0.116636
 H 0.9465 0.7129 0.8447   0.116636
 H 0.2871 0.2336 0.8447   0.116597
 H 0.7664 0.0535 0.8447   0.116635
 H 0.0535 0.2871 0.8447   0.116636
 H 0.7129 0.7664 0.8447   0.116598
 H 0.2336 0.9465 0.8447   0.116635
 H 0.7664 0.7129 0.3447   0.116637
 H 0.9465 0.2336 0.3447   0.116601
 H 0.2871 0.0535 0.3447   0.116638
 H 0.2336 0.2871 0.3447   0.116637
 H 0.0535 0.7664 0.3447   0.116601
 H 0.7129 0.9465 0.3447   0.116638
 H 0.0535 0.2871 0.1553   0.116638
 H 0.7129 0.7664 0.1553   0.1166
 H 0.2336 0.9465 0.1553   0.116637
 H 0.9465 0.7129 0.1553   0.116638
 H 0.2871 0.2336 0.1553   0.1166
 H 0.7664 0.0535 0.1553   0.116638
 H 0.10015 0.2003 0.75   0.081493
 H 0.10015 0.89985 0.75   0.081458
 H 0.7997 0.89985 0.75   0.08146
 H 0.89985 0.7997 0.75   0.081498
 H 0.89985 0.10015 0.75   0.081464
 H 0.2003 0.10015 0.75   0.081465
 H 0.89985 0.7997 0.25   0.081493
 H 0.89985 0.10015 0.25   0.081458
 H 0.2003 0.10015 0.25   0.08146
 H 0.10015 0.2003 0.25   0.081498
 H 0.10015 0.89985 0.25   0.081463
 H 0.7997 0.89985 0.25   0.081465
 C 0.3541 0.49 0.6384   0.665818
 C 0.2648 0.4248 0.6964   0.1489
 C 0.2145 0.3214 0.6939   -0.127183
 C 0.1359 0.6459 0.6384   0.665975
 C 0.16 0.7352 0.6964   0.148901
 C 0.1069 0.7855 0.6939   -0.127218
 C 0.51 0.8641 0.6384   0.665514
 C 0.5752 0.84 0.6964   0.149037
 C 0.6786 0.8931 0.6939   -0.127261
 C 0.6459 0.51 0.6384   0.665818
 C 0.7352 0.5752 0.6964   0.1489
 C 0.7855 0.6786 0.6939   -0.127182
 C 0.8641 0.3541 0.6384   0.665974
 C 0.84 0.2648 0.6964   0.148901
 C 0.8931 0.2145 0.6939   -0.127217
 C 0.49 0.1359 0.6384   0.665514
 C 0.4248 0.16 0.6964   0.149037
 C 0.3214 0.1069 0.6939   -0.127261
 C 0.8641 0.51 0.8616   0.665818
 C 0.84 0.5752 0.8036   0.1489
 C 0.8931 0.6786 0.8061   -0.127183
 C 0.49 0.3541 0.8616   0.665976
 C 0.4248 0.2648 0.8036   0.148901
 C 0.3214 0.2145 0.8061   -0.127217
 C 0.6459 0.1359 0.8616   0.665512
 C 0.7352 0.16 0.8036   0.149037
 C 0.7855 0.1069 0.8061   -0.127261
 C 0.1359 0.49 0.8616   0.665818
 C 0.16 0.4248 0.8036   0.1489
 C 0.1069 0.3214 0.8061   -0.127183
 C 0.51 0.6459 0.8616   0.665976
 C 0.5752 0.7352 0.8036   0.148901
 C 0.6786 0.7855 0.8061   -0.127217
 C 0.3541 0.8641 0.8616   0.665512
 C 0.2648 0.84 0.8036   0.149037
 C 0.2145 0.8931 0.8061   -0.127262
 C 0.6459 0.51 0.3616   0.665818
 C 0.7352 0.5752 0.3036   0.1489
 C 0.7855 0.6786 0.3061   -0.127183
 C 0.8641 0.3541 0.3616   0.665975
 C 0.84 0.2648 0.3036   0.148902
 C 0.8931 0.2145 0.3061   -0.127218
 C 0.49 0.1359 0.3616   0.665514
 C 0.4248 0.16 0.3036   0.149037
 C 0.3214 0.1069 0.3061   -0.127262
 C 0.3541 0.49 0.3616   0.665818
 C 0.2648 0.4248 0.3036   0.1489
 C 0.2145 0.3214 0.3061   -0.127182
 C 0.1359 0.6459 0.3616   0.665975
 C 0.16 0.7352 0.3036   0.148902
 C 0.1069 0.7855 0.3061   -0.127218
 C 0.51 0.8641 0.3616   0.665514
 C 0.5752 0.84 0.3036   0.149037
 C 0.6786 0.8931 0.3061   -0.127261
 C 0.1359 0.49 0.1384   0.665818
 C 0.16 0.4248 0.1964   0.1489
 C 0.1069 0.3214 0.1939   -0.127183
 C 0.51 0.6459 0.1384   0.665976
 C 0.5752 0.7352 0.1964   0.148901
 C 0.6786 0.7855 0.1939   -0.127217
 C 0.3541 0.8641 0.1384   0.665512
 C 0.2648 0.84 0.1964   0.149037
 C 0.2145 0.8931 0.1939   -0.127261
 C 0.8641 0.51 0.1384   0.665818
 C 0.84 0.5752 0.1964   0.1489
 C 0.8931 0.6786 0.1939   -0.127184
 C 0.49 0.3541 0.1384   0.665976
 C 0.4248 0.2648 0.1964   0.148901
 C 0.3214 0.2145 0.1939   -0.127218
 C 0.6459 0.1359 0.1384   0.665512
 C 0.7352 0.16 0.1964   0.149037
 C 0.7855 0.1069 0.1939   -0.127262
 C 0.1349 0.2698 0.75   -0.013945
 C 0.1349 0.8651 0.75   -0.013987
 C 0.7302 0.8651 0.75   -0.013988
 C 0.8651 0.7302 0.75   -0.013947
 C 0.8651 0.1349 0.75   -0.01399
 C 0.2698 0.1349 0.75   -0.01399
 C 0.8651 0.7302 0.25   -0.013945
 C 0.8651 0.1349 0.25   -0.013987
 C 0.2698 0.1349 0.25   -0.013988
 C 0.1349 0.2698 0.25   -0.013947
 C 0.1349 0.8651 0.25   -0.013989
 C 0.7302 0.8651 0.25   -0.01399
 N 0.2379 0.4758 0.75   -0.410018
 N 0.2379 0.7621 0.75   -0.41011
 N 0.5242 0.7621 0.75   -0.41011
 N 0.7621 0.5242 0.75   -0.410018
 N 0.7621 0.2379 0.75   -0.41011
 N 0.4758 0.2379 0.75   -0.41011
 N 0.7621 0.5242 0.25   -0.410018
 N 0.7621 0.2379 0.25   -0.41011
 N 0.4758 0.2379 0.25   -0.41011
 N 0.2379 0.4758 0.25   -0.410018
 N 0.2379 0.7621 0.25   -0.41011
 N 0.5242 0.7621 0.25   -0.41011
 O 0.3877 0.5846 0.6426   -0.677159
 O 0.387 0.4463 0.5931   -0.593057
 O 0.1969 0.6123 0.6426   -0.677236
 O 0.0593 0.613 0.5931   -0.593487
 O 0.4154 0.8031 0.6426   -0.677357
 O 0.5537 0.9407 0.5931   -0.592421
 O 0.6123 0.4154 0.6426   -0.677159
 O 0.613 0.5537 0.5931   -0.593057
 O 0.8031 0.3877 0.6426   -0.677236
 O 0.9407 0.387 0.5931   -0.593487
 O 0.5846 0.1969 0.6426   -0.677357
 O 0.4463 0.0593 0.5931   -0.592421
 O 0.8031 0.4154 0.8574   -0.677159
 O 0.9407 0.5537 0.9069   -0.593058
 O 0.5846 0.3877 0.8574   -0.677236
 O 0.4463 0.387 0.9069   -0.593486
 O 0.6123 0.1969 0.8574   -0.677357
 O 0.613 0.0593 0.9069   -0.592421
 O 0.1969 0.5846 0.8574   -0.677159
 O 0.0593 0.4463 0.9069   -0.593058
 O 0.4154 0.6123 0.8574   -0.677236
 O 0.5537 0.613 0.9069   -0.593486
 O 0.3877 0.8031 0.8574   -0.677357
 O 0.387 0.9407 0.9069   -0.592421
 O 0.6123 0.4154 0.3574   -0.677159
 O 0.613 0.5537 0.4069   -0.593058
 O 0.8031 0.3877 0.3574   -0.677236
 O 0.9407 0.387 0.4069   -0.593486
 O 0.5846 0.1969 0.3574   -0.677357
 O 0.4463 0.0593 0.4069   -0.592422
 O 0.3877 0.5846 0.3574   -0.677159
 O 0.387 0.4463 0.4069   -0.593058
 O 0.1969 0.6123 0.3574   -0.677236
 O 0.0593 0.613 0.4069   -0.593486
 O 0.4154 0.8031 0.3574   -0.677357
 O 0.5537 0.9407 0.4069   -0.592422
 O 0.1969 0.5846 0.1426   -0.677159
 O 0.0593 0.4463 0.0931   -0.593058
 O 0.4154 0.6123 0.1426   -0.677236
 O 0.5537 0.613 0.0931   -0.593486
 O 0.3877 0.8031 0.1426   -0.677357
 O 0.387 0.9407 0.0931   -0.592421
 O 0.8031 0.4154 0.1426   -0.677159
 O 0.9407 0.5537 0.0931   -0.593058
 O 0.5846 0.3877 0.1426   -0.677236
 O 0.4463 0.387 0.0931   -0.593486
 O 0.6123 0.1969 0.1426   -0.677357
 O 0.613 0.0593 0.0931   -0.592421
