{'_ref': 'TBD', '_srcid': 'CAKYAQ_clean', 'submitters': [{'name': 'Dalar Nazarian Jeff Camp and David Sholl', 'email': 'dalar@gatech.edu jcamp6@gatech.edu'}], '_method': 'VASP DFT with PBE;DDEC'}
data_Ni2H16C24N4O9
_symmetry_space_group_name_H-M   'P 1'
_cell_length_a   10.72800000
_cell_length_b   13.78999962
_cell_length_c   19.57600000
_cell_angle_alpha   90.00000000
_cell_angle_beta   90.00000000
_cell_angle_gamma   104.49000016
_symmetry_Int_Tables_number   1
_chemical_formula_structural   Ni2H16C24N4O9
_chemical_formula_sum   'Ni8 H64 C96 N16 O36'
_cell_volume   2803.93642418
_cell_formula_units_Z   4
loop_
 _symmetry_equiv_pos_site_id
 _symmetry_equiv_pos_as_xyz
  1  'x, y, z'
loop_
 _atom_site_label
 _atom_site_fract_x
 _atom_site_fract_y
 _atom_site_fract_z
 _atom_site_charge
 Ni 0.75409 0.20476 0.97439   0.85974
 Ni 0.59494 0.36062 0.88175   0.855683
 Ni 0.24591 0.29524 0.47439   0.85974
 Ni 0.40506 0.13938 0.38175   0.855683
 Ni 0.24591 0.79524 0.02561   0.85974
 Ni 0.40506 0.63938 0.11825   0.855683
 Ni 0.75409 0.70476 0.52561   0.85974
 Ni 0.59494 0.86062 0.61825   0.855683
 H 0.682 0.9046 0.9103   0.094917
 H 0.5943 0.7485 0.8632   0.128881
 H 0.5609 0.7332 0.7477   0.080824
 H 0.6924 0.0205 0.7234   0.076684
 H 0.1302 0.9483 0.806   0.137155
 H 0.1124 0.8285 0.8881   0.08309
 H 0.4008 0.9939 0.9875   0.065513
 H 0.2885 0.0982 0.8154   0.10137
 H 0.8404 0.4618 0.1196   0.107439
 H 0.848 0.6047 0.1837   0.141431
 H 0.6739 0.672 0.1872   0.081597
 H 0.4882 0.4717 0.059   0.063755
 H 0.302 0.3386 0.0328   0.098541
 H 0.2207 0.1931 0.9707   0.120987
 H 0.0063 0.1451 0.9447   0.082867
 H 0.9482 0.3812 0.0352   0.067377
 H 0.318 0.5954 0.4103   0.094917
 H 0.4057 0.7515 0.3632   0.128881
 H 0.4391 0.7668 0.2477   0.080824
 H 0.3076 0.4795 0.2234   0.076684
 H 0.8698 0.5517 0.306   0.137151
 H 0.8876 0.6715 0.3881   0.083089
 H 0.5992 0.5061 0.4875   0.065513
 H 0.7115 0.4018 0.3154   0.101368
 H 0.1596 0.0382 0.6196   0.107437
 H 0.152 0.8953 0.6837   0.141427
 H 0.3261 0.828 0.6872   0.081596
 H 0.5118 0.0283 0.559   0.063755
 H 0.698 0.1614 0.5328   0.098541
 H 0.7793 0.3069 0.4707   0.120987
 H 0.9937 0.3549 0.4447   0.082867
 H 0.0518 0.1188 0.5352   0.067377
 H 0.318 0.0954 0.0897   0.094918
 H 0.4057 0.2515 0.1368   0.128882
 H 0.4391 0.2668 0.2523   0.080825
 H 0.3076 0.9795 0.2766   0.076684
 H 0.8698 0.0517 0.194   0.137155
 H 0.8876 0.1715 0.1119   0.083089
 H 0.5992 0.0061 0.0125   0.065513
 H 0.7115 0.9018 0.1846   0.101367
 H 0.1596 0.5382 0.8804   0.107437
 H 0.152 0.3953 0.8163   0.14143
 H 0.3261 0.328 0.8128   0.081594
 H 0.5118 0.5283 0.941   0.063755
 H 0.698 0.6614 0.9672   0.098542
 H 0.7793 0.8069 0.0293   0.120987
 H 0.9937 0.8549 0.0553   0.082867
 H 0.0518 0.6188 0.9648   0.067377
 H 0.682 0.4046 0.5897   0.094918
 H 0.5943 0.2485 0.6368   0.128882
 H 0.5609 0.2332 0.7523   0.080825
 H 0.6924 0.5205 0.7766   0.076684
 H 0.1302 0.4483 0.694   0.137151
 H 0.1124 0.3285 0.6119   0.083087
 H 0.4008 0.4939 0.5125   0.065513
 H 0.2885 0.5982 0.6846   0.101366
 H 0.8404 0.9618 0.3804   0.107435
 H 0.848 0.1047 0.3163   0.141426
 H 0.6739 0.172 0.3128   0.081593
 H 0.4882 0.9717 0.441   0.063755
 H 0.302 0.8386 0.4672   0.098542
 H 0.2207 0.6931 0.5293   0.120987
 H 0.0063 0.6451 0.5553   0.082867
 H 0.9482 0.8812 0.4648   0.067377
 C 0.7522 0.084 0.84849   0.653526
 C 0.6987 0.9801 0.82079   -0.204586
 C 0.6675 0.8976 0.8635   0.040767
 C 0.6165 0.8049 0.8355   -0.188218
 C 0.5966 0.7963 0.7661   0.186428
 C 0.6742 0.9649 0.75202   0.187645
 C 0.1865 0.9592 0.8429   -0.194782
 C 0.1778 0.8871 0.8918   0.159076
 C 0.3472 0.984 0.94944   0.203584
 C 0.2827 0.0475 0.8475   0.043977
 C 0.3673 0.0595 0.90164   -0.215294
 C 0.4777 0.1501 0.90965   0.681774
 C 0.6498 0.3646 0.03313   0.68375
 C 0.6602 0.4499 0.08224   -0.221498
 C 0.7707 0.4906 0.1202   0.061624
 C 0.7746 0.5751 0.1588   -0.185915
 C 0.67 0.6156 0.1604   0.145371
 C 0.5608 0.497 0.08562   0.199526
 C 0.1744 0.4712 0.0812   0.65201
 C 0.1313 0.3746 0.04186   -0.211759
 C 0.215 0.3187 0.0217   0.048244
 C 0.1665 0.2322 0.9849   -0.193094
 C 0.0373 0.2035 0.9696   0.15394
 C 0.0037 0.342 0.02296   0.203351
 C 0.2478 0.416 0.34849   0.653525
 C 0.3013 0.5199 0.32079   -0.204586
 C 0.3325 0.6024 0.3635   0.040767
 C 0.3835 0.6951 0.3355   -0.188218
 C 0.4034 0.7037 0.2661   0.186428
 C 0.3258 0.5351 0.25202   0.187646
 C 0.8135 0.5408 0.3429   -0.194781
 C 0.8222 0.6129 0.3918   0.159076
 C 0.6528 0.516 0.44944   0.203584
 C 0.7173 0.4525 0.3475   0.043977
 C 0.6327 0.4405 0.40164   -0.215294
 C 0.5223 0.3499 0.40965   0.681774
 C 0.3502 0.1354 0.53313   0.68375
 C 0.3398 0.0501 0.58224   -0.221499
 C 0.2293 0.0094 0.6202   0.061625
 C 0.2254 0.9249 0.6588   -0.185914
 C 0.33 0.8844 0.6604   0.145371
 C 0.4392 0.003 0.58562   0.199527
 C 0.8256 0.0288 0.5812   0.65201
 C 0.8687 0.1254 0.54186   -0.211759
 C 0.785 0.1813 0.5217   0.048244
 C 0.8335 0.2678 0.4849   -0.193094
 C 0.9627 0.2965 0.4696   0.15394
 C 0.9963 0.158 0.52296   0.203351
 C 0.2478 0.916 0.15151   0.653526
 C 0.3013 0.0199 0.17921   -0.204585
 C 0.3325 0.1024 0.1365   0.040767
 C 0.3835 0.1951 0.1645   -0.188217
 C 0.4034 0.2037 0.2339   0.186428
 C 0.3258 0.0351 0.24798   0.187645
 C 0.8135 0.0408 0.1571   -0.194783
 C 0.8222 0.1129 0.1082   0.159077
 C 0.6528 0.016 0.05056   0.203584
 C 0.7173 0.9525 0.1525   0.043978
 C 0.6327 0.9405 0.09836   -0.215294
 C 0.5223 0.8499 0.09035   0.681774
 C 0.3502 0.6354 0.96687   0.683751
 C 0.3398 0.5501 0.91776   -0.221498
 C 0.2293 0.5094 0.8798   0.061625
 C 0.2254 0.4249 0.8412   -0.185915
 C 0.33 0.3844 0.8396   0.145372
 C 0.4392 0.503 0.91438   0.199527
 C 0.8256 0.5288 0.9188   0.65201
 C 0.8687 0.6254 0.95814   -0.211759
 C 0.785 0.6813 0.9783   0.048244
 C 0.8335 0.7678 0.0151   -0.193094
 C 0.9627 0.7965 0.0304   0.153941
 C 0.9963 0.658 0.97704   0.203351
 C 0.7522 0.584 0.65151   0.653525
 C 0.6987 0.4801 0.67921   -0.204585
 C 0.6675 0.3976 0.6365   0.040767
 C 0.6165 0.3049 0.6645   -0.188217
 C 0.5966 0.2963 0.7339   0.186428
 C 0.6742 0.4649 0.74798   0.187646
 C 0.1865 0.4592 0.6571   -0.194782
 C 0.1778 0.3871 0.6082   0.159077
 C 0.3472 0.484 0.55056   0.203584
 C 0.2827 0.5475 0.6525   0.043978
 C 0.3673 0.5595 0.59836   -0.215295
 C 0.4777 0.6501 0.59035   0.681774
 C 0.6498 0.8646 0.46687   0.683751
 C 0.6602 0.9499 0.41776   -0.221499
 C 0.7707 0.9906 0.3798   0.061625
 C 0.7746 0.0751 0.3412   -0.185913
 C 0.67 0.1156 0.3396   0.145372
 C 0.5608 0.997 0.41438   0.199527
 C 0.1744 0.9712 0.4188   0.65201
 C 0.1313 0.8746 0.45814   -0.211759
 C 0.215 0.8187 0.4783   0.048244
 C 0.1665 0.7322 0.5151   -0.193094
 C 0.0373 0.7035 0.5304   0.153941
 C 0.0037 0.842 0.47704   0.203351
 N 0.6256 0.87474 0.72418   -0.293922
 N 0.2574 0.89774 0.94535   -0.287078
 N 0.5623 0.57693 0.12455   -0.287553
 N 0.955 0.25729 0.98851   -0.292311
 N 0.3744 0.62526 0.22418   -0.293922
 N 0.7426 0.60226 0.44535   -0.287078
 N 0.4377 0.92307 0.62455   -0.287553
 N 0.045 0.24271 0.48851   -0.292311
 N 0.3744 0.12526 0.27582   -0.293922
 N 0.7426 0.10226 0.05465   -0.287078
 N 0.4377 0.42307 0.87545   -0.287553
 N 0.045 0.74271 0.01149   -0.292311
 N 0.6256 0.37474 0.77582   -0.293922
 N 0.2574 0.39774 0.55465   -0.287078
 N 0.5623 0.07693 0.37545   -0.287553
 N 0.955 0.75729 0.51149   -0.292311
 O 0.7761 0.09038 0.91126   -0.576927
 O 0.7647 0.15574 0.80756   -0.517431
 O 0.5579 0.14521 0.955   -0.547001
 O 0.4789 0.22185 0.86981   -0.555944
 O 0.5651 0.35536 0.98762   -0.572382
 O 0.7289 0.31223 0.04025   -0.54589
 O 0.0927 0.51883 0.0944   -0.507809
 O 0.2912 0.49699 0.09774   -0.559854
 O 0.76 0.30215 0.89052   -0.393193
 O 0.2239 0.40962 0.41126   -0.576927
 O 0.2353 0.34426 0.30756   -0.517431
 O 0.4421 0.35479 0.455   -0.547001
 O 0.5211 0.27815 0.36981   -0.555944
 O 0.4349 0.14464 0.48762   -0.572382
 O 0.2711 0.18777 0.54025   -0.54589
 O 0.9073 0.98117 0.5944   -0.507809
 O 0.7088 0.00301 0.59774   -0.559854
 O 0.24 0.19785 0.39052   -0.393193
 O 0.2239 0.90962 0.08874   -0.576927
 O 0.2353 0.84426 0.19244   -0.517431
 O 0.4421 0.85479 0.045   -0.547001
 O 0.5211 0.77815 0.13019   -0.555944
 O 0.4349 0.64464 0.01238   -0.572382
 O 0.2711 0.68777 0.95975   -0.54589
 O 0.9073 0.48117 0.9056   -0.50781
 O 0.7088 0.50301 0.90226   -0.559854
 O 0.24 0.69785 0.10948   -0.393193
 O 0.7761 0.59038 0.58874   -0.576927
 O 0.7647 0.65574 0.69244   -0.517431
 O 0.5579 0.64521 0.545   -0.547001
 O 0.4789 0.72185 0.63019   -0.555944
 O 0.5651 0.85536 0.51238   -0.572382
 O 0.7289 0.81223 0.45975   -0.54589
 O 0.0927 0.01883 0.4056   -0.507809
 O 0.2912 0.99699 0.40226   -0.559854
 O 0.76 0.80215 0.60948   -0.393193
