{'_ref': 'TBD', '_srcid': 'CAKYAQ_clean', 'submitters': [{'name': 'Dalar Nazarian Jeff Camp and David Sholl', 'email': 'dalar@gatech.edu jcamp6@gatech.edu'}], '_method': 'VASP DFT with PBE;DDEC'}
data_GdH7C15(NO3)2
_symmetry_space_group_name_H-M   'P 1'
_cell_length_a   13.61589992
_cell_length_b   14.47970039
_cell_length_c   16.03720000
_cell_angle_alpha   116.83599984
_cell_angle_beta   96.23400111
_cell_angle_gamma   90.00000001
_symmetry_Int_Tables_number   1
_chemical_formula_structural   GdH7C15(NO3)2
_chemical_formula_sum   'Gd4 H28 C60 N8 O24'
_cell_volume   2800.31278613
_cell_formula_units_Z   4
loop_
 _symmetry_equiv_pos_site_id
 _symmetry_equiv_pos_as_xyz
  1  'x, y, z'
loop_
 _atom_site_label
 _atom_site_fract_x
 _atom_site_fract_y
 _atom_site_fract_z
 _atom_site_charge
 Gd 0.46562 0.39205 0.3662   2.161316
 Gd 0.03438 0.02585 0.6338   2.161067
 Gd 0.53438 0.60795 0.6338   2.161316
 Gd 0.96562 0.97415 0.3662   2.161067
 H 0.9064 0.1265 0.9388   0.115474
 H 0.9557 0.368 0.889   0.098839
 H 0.926 0.7027 0.3172   0.126152
 H 0.783 0.7335 0.5332   0.108606
 H 0.9034 0.4791 0.0302   0.112413
 H 0.7302 0.4812 0.2854   0.105935
 H 0.8518 0.24 0.0804   0.117776
 H 0.5936 0.1877 0.0612   0.115298
 H 0.5443 0.479 0.111   0.098704
 H 0.574 0.3855 0.6828   0.126364
 H 0.717 0.2003 0.4668   0.108881
 H 0.5966 0.4489 0.9698   0.111778
 H 0.7698 0.1958 0.7146   0.106233
 H 0.6482 0.1596 0.9196   0.118699
 H 0.0936 0.8735 0.0612   0.115475
 H 0.0443 0.632 0.111   0.098839
 H 0.074 0.2973 0.6828   0.126152
 H 0.217 0.2665 0.4668   0.108606
 H 0.0966 0.5209 0.9698   0.112413
 H 0.2698 0.5188 0.7146   0.105935
 H 0.1482 0.76 0.9196   0.117776
 H 0.4064 0.8123 0.9388   0.1153
 H 0.4557 0.521 0.889   0.098704
 H 0.426 0.6145 0.3172   0.126364
 H 0.283 0.7997 0.5332   0.108882
 H 0.4034 0.5511 0.0302   0.111778
 H 0.2302 0.8042 0.2854   0.106233
 H 0.3518 0.8404 0.0804   0.118699
 C 0.6661 0.5608 0.452   0.813877
 C 0.9731 0.1648 0.8074   0.67989
 C 0.9359 0.2381 0.8986   -0.121243
 C 0.9054 0.1971 0.9566   -0.035426
 C 0.9348 0.3414 0.9276   -0.012211
 C 0.9169 0.8379 0.4952   0.777195
 C 0.8619 0.7353 0.4336   -0.161626
 C 0.881 0.6772 0.3424   -0.080821
 C 0.7941 0.696 0.4706   0.018871
 C 0.7434 0.6015 0.4144   -0.16219
 C 0.8336 0.5818 0.2888   0.147074
 C 0.874 0.3695 0.0686   0.187056
 C 0.9039 0.4083 0.012   -0.15502
 C 0.7638 0.5449 0.3236   -0.052264
 C 0.8737 0.2656 0.0414   -0.161539
 C 0.8339 0.1088 0.548   0.813629
 C 0.5269 0.3574 0.1926   0.679451
 C 0.5641 0.3395 0.1014   -0.120794
 C 0.5946 0.2405 0.0434   -0.035313
 C 0.5652 0.4138 0.0724   -0.012823
 C 0.5831 0.3427 0.5048   0.776976
 C 0.6381 0.3017 0.5664   -0.160033
 C 0.619 0.3348 0.6576   -0.081983
 C 0.7059 0.2254 0.5294   0.017574
 C 0.7566 0.1871 0.5856   -0.161496
 C 0.6664 0.293 0.7112   0.148303
 C 0.626 0.3009 0.9314   0.186627
 C 0.5961 0.3963 0.988   -0.153216
 C 0.7362 0.2213 0.6764   -0.053471
 C 0.6263 0.2242 0.9586   -0.162746
 C 0.3339 0.4392 0.548   0.813877
 C 0.0269 0.8352 0.1926   0.67989
 C 0.0641 0.7619 0.1014   -0.121242
 C 0.0946 0.8029 0.0434   -0.035427
 C 0.0652 0.6586 0.0724   -0.012211
 C 0.0831 0.1621 0.5048   0.777195
 C 0.1381 0.2647 0.5664   -0.161626
 C 0.119 0.3228 0.6576   -0.080821
 C 0.2059 0.304 0.5294   0.01887
 C 0.2566 0.3985 0.5856   -0.16219
 C 0.1664 0.4182 0.7112   0.147074
 C 0.126 0.6305 0.9314   0.187056
 C 0.0961 0.5917 0.988   -0.15502
 C 0.2362 0.4551 0.6764   -0.052264
 C 0.1263 0.7344 0.9586   -0.161539
 C 0.1661 0.8912 0.452   0.813629
 C 0.4731 0.6426 0.8074   0.679451
 C 0.4359 0.6605 0.8986   -0.120794
 C 0.4054 0.7595 0.9566   -0.035314
 C 0.4348 0.5862 0.9276   -0.012823
 C 0.4169 0.6573 0.4952   0.776976
 C 0.3619 0.6983 0.4336   -0.160033
 C 0.381 0.6652 0.3424   -0.081984
 C 0.2941 0.7746 0.4706   0.017573
 C 0.2434 0.8129 0.4144   -0.161496
 C 0.3336 0.707 0.2888   0.148303
 C 0.374 0.6991 0.0686   0.186627
 C 0.4039 0.6037 0.012   -0.153216
 C 0.2638 0.7787 0.3236   -0.053471
 C 0.3737 0.7758 0.0414   -0.162746
 N 0.8628 0.5246 0.195   -0.140204
 N 0.8442 0.4304 0.1618   -0.15066
 N 0.6372 0.3296 0.805   -0.13999
 N 0.6558 0.2686 0.8382   -0.151354
 N 0.1372 0.4754 0.805   -0.140204
 N 0.1558 0.5696 0.8382   -0.15066
 N 0.3628 0.6704 0.195   -0.13999
 N 0.3442 0.7314 0.1618   -0.151354
 O 0.6263 0.4737 0.399   -0.678677
 O 0.6485 0.61671 0.53362   -0.77638
 O 0.964 0.0694 0.7804   -0.69117
 O 0.0124 0.2031 0.7622   -0.695467
 O 0.93 0.86871 0.58262   -0.651529
 O 0.9503 0.8901 0.4586   -0.843939
 O 0.8737 0.0747 0.601   -0.678173
 O 0.8515 0.08309 0.46638   -0.776492
 O 0.536 0.289 0.2196   -0.691632
 O 0.4876 0.4409 0.2378   -0.694722
 O 0.57 0.28609 0.41738   -0.652399
 O 0.5497 0.4315 0.5414   -0.843056
 O 0.3737 0.5263 0.601   -0.678677
 O 0.3515 0.38329 0.46638   -0.77638
 O 0.036 0.9306 0.2196   -0.69117
 O 0.9876 0.7969 0.2378   -0.695467
 O 0.07 0.13129 0.41738   -0.651529
 O 0.0497 0.1099 0.5414   -0.843939
 O 0.1263 0.9253 0.399   -0.678173
 O 0.1485 0.91691 0.53362   -0.776492
 O 0.464 0.711 0.7804   -0.691632
 O 0.5124 0.5591 0.7622   -0.694722
 O 0.43 0.71391 0.58262   -0.652399
 O 0.4503 0.5685 0.4586   -0.843056
