{'_ref': 'TBD', '_srcid': 'CAKYAQ_clean', 'submitters': [{'name': 'Dalar Nazarian Jeff Camp and David Sholl', 'email': 'dalar@gatech.edu jcamp6@gatech.edu'}], '_method': 'VASP DFT with PBE;DDEC'}
data_Ag2H16C11SN5O3
_symmetry_space_group_name_H-M   'P 1'
_cell_length_a   11.16140000
_cell_length_b   12.56750000
_cell_length_c   31.05770000
_cell_angle_alpha   90.00000000
_cell_angle_beta   90.00000000
_cell_angle_gamma   90.00000000
_symmetry_Int_Tables_number   1
_chemical_formula_structural   Ag2H16C11SN5O3
_chemical_formula_sum   'Ag16 H128 C88 S8 N40 O24'
_cell_volume   4356.49136011
_cell_formula_units_Z   8
loop_
 _symmetry_equiv_pos_site_id
 _symmetry_equiv_pos_as_xyz
  1  'x, y, z'
loop_
 _atom_site_label
 _atom_site_fract_x
 _atom_site_fract_y
 _atom_site_fract_z
 _atom_site_charge
 Ag 0.67633 0.62168 0.73436   -0.044958
 Ag 0.81784 0.44155 0.9138   0.438558
 Ag 0.32367 0.87832 0.23436   -0.044958
 Ag 0.18216 0.05845 0.4138   0.438558
 Ag 0.17633 0.37832 0.76564   -0.044958
 Ag 0.31784 0.55845 0.5862   0.438558
 Ag 0.82367 0.12168 0.26564   -0.044958
 Ag 0.68216 0.94155 0.0862   0.438558
 Ag 0.32367 0.37832 0.26564   -0.044958
 Ag 0.18216 0.55845 0.0862   0.438558
 Ag 0.67633 0.12168 0.76564   -0.044958
 Ag 0.81784 0.94155 0.5862   0.438558
 Ag 0.82367 0.62168 0.23436   -0.044958
 Ag 0.68216 0.44155 0.4138   0.438558
 Ag 0.17633 0.87832 0.73436   -0.044958
 Ag 0.31784 0.05845 0.9138   0.438558
 H 0.7008 0.0791 0.0031   0.083438
 H 0.41 0.254 0.9783   0.109171
 H 0.3211 0.1816 0.0392   0.131195
 H 0.4259 0.062 0.0804   0.06456
 H 0.4884 0.527 0.6648   0.064518
 H 0.4915 0.65 0.6562   0.093725
 H 0.4126 0.73 0.76   0.020299
 H 0.445 0.7737 0.7141   0.063384
 H 0.4111 0.5384 0.7727   0.045738
 H 0.4402 0.4601 0.7348   0.048729
 H 0.3066 0.7511 0.6552   0.10343
 H 0.1836 0.6933 0.6625   0.080394
 H 0.2243 0.6394 0.772   0.029095
 H 0.1332 0.6246 0.7339   0.050428
 H 0.2976 0.4377 0.6759   0.035486
 H 0.1784 0.5039 0.6755   0.056676
 H 0.2992 0.4209 0.5031   0.083438
 H 0.59 0.246 0.4783   0.109171
 H 0.6789 0.3184 0.5392   0.131195
 H 0.5741 0.438 0.5804   0.064561
 H 0.5116 0.973 0.1648   0.064518
 H 0.5085 0.85 0.1562   0.093725
 H 0.5874 0.77 0.26   0.020299
 H 0.555 0.7263 0.2141   0.063384
 H 0.5889 0.9616 0.2727   0.045738
 H 0.5598 0.0399 0.2348   0.048729
 H 0.6934 0.7489 0.1552   0.10343
 H 0.8164 0.8067 0.1625   0.080394
 H 0.7757 0.8606 0.272   0.029095
 H 0.8668 0.8754 0.2339   0.050428
 H 0.7024 0.0623 0.1759   0.035486
 H 0.8216 0.9961 0.1755   0.056676
 H 0.2008 0.9209 0.4969   0.083438
 H 0.91 0.746 0.5217   0.109171
 H 0.8211 0.8184 0.4608   0.131195
 H 0.9259 0.938 0.4196   0.06456
 H 0.9884 0.473 0.8352   0.064518
 H 0.9915 0.35 0.8438   0.093725
 H 0.9126 0.27 0.74   0.020299
 H 0.945 0.2263 0.7859   0.063384
 H 0.9111 0.4616 0.7273   0.045737
 H 0.9402 0.5399 0.7652   0.048729
 H 0.8066 0.2489 0.8448   0.10343
 H 0.6836 0.3067 0.8375   0.080394
 H 0.7243 0.3606 0.728   0.029094
 H 0.6332 0.3754 0.7661   0.050428
 H 0.7976 0.5623 0.8241   0.035486
 H 0.6784 0.4961 0.8245   0.056676
 H 0.7992 0.5791 0.9969   0.083438
 H 0.09 0.754 0.0217   0.109171
 H 0.1789 0.6816 0.9608   0.131195
 H 0.0741 0.562 0.9196   0.06456
 H 0.0116 0.027 0.3352   0.064519
 H 0.0085 0.15 0.3438   0.093725
 H 0.0874 0.23 0.24   0.020299
 H 0.055 0.2737 0.2859   0.063384
 H 0.0889 0.0384 0.2273   0.045737
 H 0.0598 0.9601 0.2652   0.048729
 H 0.1934 0.2511 0.3448   0.10343
 H 0.3164 0.1933 0.3375   0.080394
 H 0.2757 0.1394 0.228   0.029094
 H 0.3668 0.1246 0.2661   0.050428
 H 0.2024 0.9377 0.3241   0.035486
 H 0.3216 0.0039 0.3245   0.056676
 H 0.2992 0.9209 0.9969   0.083439
 H 0.59 0.746 0.0217   0.109172
 H 0.6789 0.8184 0.9608   0.131195
 H 0.5741 0.938 0.9196   0.06456
 H 0.5116 0.473 0.3352   0.064518
 H 0.5085 0.35 0.3438   0.093725
 H 0.5874 0.27 0.24   0.020297
 H 0.555 0.2263 0.2859   0.063385
 H 0.5889 0.4616 0.2273   0.045739
 H 0.5598 0.5399 0.2652   0.048728
 H 0.6934 0.2489 0.3448   0.10343
 H 0.8164 0.3067 0.3375   0.080394
 H 0.7757 0.3606 0.228   0.029093
 H 0.8668 0.3754 0.2661   0.050428
 H 0.7024 0.5623 0.3241   0.035483
 H 0.8216 0.4961 0.3245   0.056677
 H 0.7008 0.5791 0.4969   0.083439
 H 0.41 0.754 0.5217   0.109172
 H 0.3211 0.6816 0.4608   0.131195
 H 0.4259 0.562 0.4196   0.064561
 H 0.4884 0.027 0.8352   0.064518
 H 0.4915 0.15 0.8438   0.093725
 H 0.4126 0.23 0.74   0.020297
 H 0.445 0.2737 0.7859   0.063385
 H 0.4111 0.0384 0.7273   0.045739
 H 0.4402 0.9601 0.7652   0.048728
 H 0.3066 0.2511 0.8448   0.10343
 H 0.1836 0.1933 0.8375   0.080394
 H 0.2243 0.1394 0.728   0.029093
 H 0.1332 0.1246 0.7661   0.050428
 H 0.2976 0.9377 0.8241   0.035483
 H 0.1784 0.0039 0.8245   0.056677
 H 0.7992 0.0791 0.5031   0.083439
 H 0.09 0.254 0.4783   0.109172
 H 0.1789 0.1816 0.5392   0.131195
 H 0.0741 0.062 0.5804   0.06456
 H 0.0116 0.527 0.1648   0.064518
 H 0.0085 0.65 0.1562   0.093725
 H 0.0874 0.73 0.26   0.020297
 H 0.055 0.7737 0.2141   0.063385
 H 0.0889 0.5384 0.2727   0.045738
 H 0.0598 0.4601 0.2348   0.048728
 H 0.1934 0.7511 0.1552   0.10343
 H 0.3164 0.6933 0.1625   0.080394
 H 0.2757 0.6394 0.272   0.029093
 H 0.3668 0.6246 0.2339   0.050428
 H 0.2024 0.4377 0.1759   0.035483
 H 0.3216 0.5039 0.1755   0.056676
 H 0.2008 0.4209 0.0031   0.083439
 H 0.91 0.246 0.9783   0.109172
 H 0.8211 0.3184 0.0392   0.131195
 H 0.9259 0.438 0.0804   0.06456
 H 0.9884 0.973 0.6648   0.064519
 H 0.9915 0.85 0.6562   0.093725
 H 0.9126 0.77 0.76   0.020297
 H 0.945 0.7263 0.7141   0.063385
 H 0.9111 0.9616 0.7727   0.045738
 H 0.9402 0.0399 0.7348   0.048728
 H 0.8066 0.7489 0.6552   0.10343
 H 0.6836 0.8067 0.6625   0.080394
 H 0.7243 0.8606 0.772   0.029093
 H 0.6332 0.8754 0.7339   0.050428
 H 0.7976 0.0623 0.6759   0.035483
 H 0.6784 0.9961 0.6755   0.056676
 C 0.6235 0.0999 0.01045   0.181377
 C 0.565 0.1723 0.9844   -0.278854
 C 0.4507 0.2046 0.99517   0.042825
 C 0.3984 0.162 0.03134   -0.17228
 C 0.462 0.0899 0.05588   0.146267
 C 0.4508 0.5942 0.67212   0.083437
 C 0.4052 0.7164 0.72937   0.100172
 C 0.4028 0.5274 0.74191   0.095591
 C 0.2674 0.6941 0.67088   0.078077
 C 0.2177 0.6266 0.74126   0.09822
 C 0.2625 0.5057 0.68343   0.092973
 C 0.3765 0.4001 0.51045   0.181377
 C 0.435 0.3277 0.4844   -0.278854
 C 0.5493 0.2954 0.49517   0.042825
 C 0.6016 0.338 0.53134   -0.17228
 C 0.538 0.4101 0.55588   0.146267
 C 0.5492 0.9058 0.17212   0.083437
 C 0.5948 0.7836 0.22937   0.100172
 C 0.5972 0.9726 0.24191   0.095591
 C 0.7326 0.8059 0.17088   0.078077
 C 0.7823 0.8734 0.24126   0.09822
 C 0.7375 0.9943 0.18343   0.092973
 C 0.1235 0.9001 0.48955   0.181377
 C 0.065 0.8277 0.5156   -0.278854
 C 0.9507 0.7954 0.50483   0.042825
 C 0.8984 0.838 0.46866   -0.17228
 C 0.962 0.9101 0.44412   0.146267
 C 0.9508 0.4058 0.82788   0.083437
 C 0.9052 0.2836 0.77063   0.100172
 C 0.9028 0.4726 0.75809   0.095591
 C 0.7674 0.3059 0.82912   0.078077
 C 0.7177 0.3734 0.75874   0.09822
 C 0.7625 0.4943 0.81657   0.092973
 C 0.8765 0.5999 0.98955   0.181377
 C 0.935 0.6723 0.0156   -0.278854
 C 0.0493 0.7046 0.00483   0.042825
 C 0.1016 0.662 0.96866   -0.17228
 C 0.038 0.5899 0.94412   0.146267
 C 0.0492 0.0942 0.32788   0.083437
 C 0.0948 0.2164 0.27063   0.100172
 C 0.0972 0.0274 0.25809   0.095591
 C 0.2326 0.1941 0.32912   0.078077
 C 0.2823 0.1266 0.25874   0.09822
 C 0.2375 0.0057 0.31657   0.092973
 C 0.3765 0.9001 0.98955   0.181377
 C 0.435 0.8277 0.0156   -0.278854
 C 0.5493 0.7954 0.00483   0.042824
 C 0.6016 0.838 0.96866   -0.17228
 C 0.538 0.9101 0.94412   0.146267
 C 0.5492 0.4058 0.32788   0.083437
 C 0.5948 0.2836 0.27063   0.100172
 C 0.5972 0.4726 0.25809   0.095591
 C 0.7326 0.3059 0.32912   0.078077
 C 0.7823 0.3734 0.25874   0.098221
 C 0.7375 0.4943 0.31657   0.092973
 C 0.6235 0.5999 0.48955   0.181377
 C 0.565 0.6723 0.5156   -0.278854
 C 0.4507 0.7046 0.50483   0.042824
 C 0.3984 0.662 0.46866   -0.17228
 C 0.462 0.5899 0.44412   0.146267
 C 0.4508 0.0942 0.82788   0.083437
 C 0.4052 0.2164 0.77063   0.100172
 C 0.4028 0.0274 0.75809   0.095591
 C 0.2674 0.1941 0.82912   0.078077
 C 0.2177 0.1266 0.75874   0.098221
 C 0.2625 0.0057 0.81657   0.092973
 C 0.8765 0.0999 0.51045   0.181377
 C 0.935 0.1723 0.4844   -0.278854
 C 0.0493 0.2046 0.49517   0.042824
 C 0.1016 0.162 0.53134   -0.17228
 C 0.038 0.0899 0.55588   0.146267
 C 0.0492 0.5942 0.17212   0.083437
 C 0.0948 0.7164 0.22937   0.100172
 C 0.0972 0.5274 0.24191   0.095591
 C 0.2326 0.6941 0.17088   0.078077
 C 0.2823 0.6266 0.24126   0.098221
 C 0.2375 0.5057 0.18343   0.092974
 C 0.1235 0.4001 0.01045   0.181377
 C 0.065 0.3277 0.9844   -0.278854
 C 0.9507 0.2954 0.99517   0.042824
 C 0.8984 0.338 0.03134   -0.17228
 C 0.962 0.4101 0.05588   0.146267
 C 0.9508 0.9058 0.67212   0.083437
 C 0.9052 0.7836 0.72937   0.100172
 C 0.9028 0.9726 0.74191   0.095591
 C 0.7674 0.8059 0.67088   0.078077
 C 0.7177 0.8734 0.74126   0.098221
 C 0.7625 0.9943 0.68343   0.092974
 S 0.63604 0.22116 0.93752   1.354114
 S 0.36396 0.27884 0.43752   1.354114
 S 0.13604 0.77884 0.56248   1.354114
 S 0.86396 0.72116 0.06248   1.354114
 S 0.36396 0.77884 0.06248   1.354114
 S 0.63604 0.72116 0.56248   1.354114
 S 0.86396 0.22116 0.43752   1.354114
 S 0.13604 0.27884 0.93752   1.354114
 N 0.5727 0.0582 0.04605   -0.369558
 N 0.4645 0.61395 0.71877   -0.223386
 N 0.3233 0.5912 0.65912   -0.260265
 N 0.2734 0.5227 0.73067   -0.214339
 N 0.2765 0.71495 0.7174   -0.218936
 N 0.4273 0.4418 0.54605   -0.369558
 N 0.5355 0.88605 0.21877   -0.223386
 N 0.6767 0.9088 0.15912   -0.260265
 N 0.7266 0.9773 0.23067   -0.214339
 N 0.7235 0.78505 0.2174   -0.218936
 N 0.0727 0.9418 0.45395   -0.369558
 N 0.9645 0.38605 0.78123   -0.223386
 N 0.8233 0.4088 0.84088   -0.260265
 N 0.7734 0.4773 0.76933   -0.214339
 N 0.7765 0.28505 0.7826   -0.218936
 N 0.9273 0.5582 0.95395   -0.369558
 N 0.0355 0.11395 0.28123   -0.223386
 N 0.1767 0.0912 0.34088   -0.260265
 N 0.2266 0.0227 0.26933   -0.214339
 N 0.2235 0.21495 0.2826   -0.218936
 N 0.4273 0.9418 0.95395   -0.369558
 N 0.5355 0.38605 0.28123   -0.223386
 N 0.6767 0.4088 0.34088   -0.260266
 N 0.7266 0.4773 0.26933   -0.214339
 N 0.7235 0.28505 0.2826   -0.218936
 N 0.5727 0.5582 0.45395   -0.369558
 N 0.4645 0.11395 0.78123   -0.223386
 N 0.3233 0.0912 0.84088   -0.260266
 N 0.2734 0.0227 0.76933   -0.214339
 N 0.2765 0.21495 0.7826   -0.218936
 N 0.9273 0.0582 0.54605   -0.369558
 N 0.0355 0.61395 0.21877   -0.223386
 N 0.1767 0.5912 0.15912   -0.260266
 N 0.2266 0.5227 0.23067   -0.214339
 N 0.2235 0.71495 0.2174   -0.218936
 N 0.0727 0.4418 0.04605   -0.369558
 N 0.9645 0.88605 0.71877   -0.223386
 N 0.8233 0.9088 0.65912   -0.260266
 N 0.7734 0.9773 0.73067   -0.214339
 N 0.7765 0.78505 0.7174   -0.218936
 O 0.7102 0.135 0.92187   -0.670013
 O 0.5405 0.2512 0.90856   -0.68025
 O 0.7056 0.3108 0.95252   -0.659037
 O 0.2898 0.365 0.42187   -0.670013
 O 0.4595 0.2488 0.40856   -0.68025
 O 0.2944 0.1892 0.45252   -0.659037
 O 0.2102 0.865 0.57813   -0.670013
 O 0.0405 0.7488 0.59144   -0.68025
 O 0.2056 0.6892 0.54748   -0.659037
 O 0.7898 0.635 0.07813   -0.670013
 O 0.9595 0.7512 0.09144   -0.68025
 O 0.7944 0.8108 0.04748   -0.659037
 O 0.2898 0.865 0.07813   -0.670013
 O 0.4595 0.7488 0.09144   -0.68025
 O 0.2944 0.6892 0.04748   -0.659037
 O 0.7102 0.635 0.57813   -0.670013
 O 0.5405 0.7512 0.59144   -0.68025
 O 0.7056 0.8108 0.54748   -0.659037
 O 0.7898 0.135 0.42187   -0.670013
 O 0.9595 0.2512 0.40856   -0.68025
 O 0.7944 0.3108 0.45252   -0.659037
 O 0.2102 0.365 0.92187   -0.670013
 O 0.0405 0.2488 0.90856   -0.68025
 O 0.2056 0.1892 0.95252   -0.659037
