{'_ref': 'TBD', '_srcid': 'CAKYAQ_clean', 'submitters': [{'name': 'Dalar Nazarian Jeff Camp and David Sholl', 'email': 'dalar@gatech.edu jcamp6@gatech.edu'}], '_method': 'VASP DFT with PBE;DDEC'}
data_Ag3H24(C3N2)4
_symmetry_space_group_name_H-M   'P 1'
_cell_length_a   11.34600000
_cell_length_b   11.75899986
_cell_length_c   11.96300000
_cell_angle_alpha   119.43700201
_cell_angle_beta   90.00000000
_cell_angle_gamma   90.00000000
_symmetry_Int_Tables_number   1
_chemical_formula_structural   Ag3H24(C3N2)4
_chemical_formula_sum   'Ag6 H48 C24 N16'
_cell_volume   1390.01620173
_cell_formula_units_Z   2
loop_
 _symmetry_equiv_pos_site_id
 _symmetry_equiv_pos_as_xyz
  1  'x, y, z'
loop_
 _atom_site_label
 _atom_site_fract_x
 _atom_site_fract_y
 _atom_site_fract_z
 _atom_site_charge
 Ag 0.52492 0.14113 0.49262   -0.189343
 Ag 0.02492 0.85887 0.50738   -0.189343
 Ag 0.02492 0.35149 0.49262   -0.189367
 Ag 0.52492 0.64851 0.50738   -0.189367
 Ag 0.70176 0.17392 0.0   -0.161817
 Ag 0.20176 0.82608 0.0   -0.161819
 H 0.8188 0.0868 0.5714   0.054822
 H 0.7751 0.9578 0.4518   0.022928
 H 0.5812 0.8709 0.4572   0.021807
 H 0.5025 0.9451 0.5802   0.039962
 H 0.5712 0.1421 0.7602   -0.014576
 H 0.6956 0.1985 0.7566   0.020723
 H 0.6664 0.8712 0.781   0.031437
 H 0.5535 0.9452 0.7748   0.034491
 H 0.862 0.9578 0.775   0.035913
 H 0.8726 0.0864 0.7666   0.032013
 H 0.7925 0.7593 0.5928   0.057049
 H 0.7584 0.7582 0.4652   0.019401
 H 0.3188 0.9132 0.4286   0.054821
 H 0.2751 0.0422 0.5482   0.022928
 H 0.0812 0.1291 0.5428   0.021808
 H 0.0025 0.0549 0.4198   0.039961
 H 0.0712 0.8579 0.2398   -0.014575
 H 0.1956 0.8015 0.2434   0.020723
 H 0.1664 0.1288 0.219   0.031437
 H 0.0535 0.0548 0.2252   0.034491
 H 0.362 0.0422 0.225   0.035913
 H 0.3726 0.9136 0.2334   0.032014
 H 0.2925 0.2407 0.4072   0.057049
 H 0.2584 0.2418 0.5348   0.019401
 H 0.3188 0.4846 0.5714   0.054846
 H 0.2751 0.494 0.4518   0.022944
 H 0.0812 0.5863 0.4572   0.021812
 H 0.0025 0.6351 0.5802   0.039949
 H 0.0712 0.6181 0.7602   -0.014573
 H 0.1956 0.5581 0.7566   0.020706
 H 0.1664 0.9098 0.781   0.0314
 H 0.0535 0.8296 0.7748   0.034513
 H 0.362 0.8172 0.775   0.035937
 H 0.3726 0.6802 0.7666   0.032012
 H 0.2925 0.8335 0.5928   0.057013
 H 0.2584 0.707 0.4652   0.019398
 H 0.8188 0.5154 0.4286   0.054845
 H 0.7751 0.506 0.5482   0.022944
 H 0.5812 0.4137 0.5428   0.021813
 H 0.5025 0.3649 0.4198   0.039949
 H 0.5712 0.3819 0.2398   -0.014572
 H 0.6956 0.4419 0.2434   0.020706
 H 0.6664 0.0902 0.219   0.0314
 H 0.5535 0.1704 0.2252   0.034513
 H 0.862 0.1828 0.225   0.035937
 H 0.8726 0.3198 0.2334   0.032012
 H 0.7925 0.1665 0.4072   0.057013
 H 0.7584 0.293 0.5348   0.019398
 C 0.7736 0.0076 0.5448   0.112935
 C 0.583 0.92231 0.55022   0.104864
 C 0.6514 0.11854 0.72948   0.12976
 C 0.6339 0.92197 0.74434   0.107903
 C 0.8264 0.00768 0.73896   0.106532
 C 0.7576 0.81058 0.55796   0.102382
 C 0.2736 0.9924 0.4552   0.112935
 C 0.083 0.07769 0.44978   0.104864
 C 0.1514 0.88146 0.27052   0.12976
 C 0.1339 0.07803 0.25566   0.107903
 C 0.3264 0.99232 0.26104   0.106532
 C 0.2576 0.18942 0.44204   0.102382
 C 0.2736 0.5372 0.5448   0.112874
 C 0.083 0.62791 0.55022   0.10487
 C 0.1514 0.61094 0.72948   0.129768
 C 0.1339 0.82237 0.74434   0.107933
 C 0.3264 0.73128 0.73896   0.10651
 C 0.2576 0.74738 0.55796   0.102437
 C 0.7736 0.4628 0.4552   0.112874
 C 0.583 0.37209 0.44978   0.10487
 C 0.6514 0.38906 0.27052   0.129768
 C 0.6339 0.17763 0.25566   0.107933
 C 0.8264 0.26872 0.26104   0.10651
 C 0.7576 0.25262 0.44204   0.102437
 N 0.6509 0.04232 0.58844   -0.20149
 N 0.7051 0.04338 0.7876   -0.1599
 N 0.6342 0.8426 0.603   -0.178665
 N 0.8292 0.92975 0.5975   -0.210047
 N 0.1509 0.95768 0.41156   -0.20149
 N 0.2051 0.95662 0.2124   -0.1599
 N 0.1342 0.1574 0.397   -0.178665
 N 0.3292 0.07025 0.4025   -0.210047
 N 0.1509 0.54612 0.58844   -0.201458
 N 0.2051 0.74422 0.7876   -0.159893
 N 0.1342 0.7604 0.603   -0.178701
 N 0.3292 0.66775 0.5975   -0.210015
 N 0.6509 0.45388 0.41156   -0.201458
 N 0.7051 0.25578 0.2124   -0.159893
 N 0.6342 0.2396 0.397   -0.178701
 N 0.8292 0.33225 0.4025   -0.210015
