{'_ref': 'TBD', '_srcid': 'CAKYAQ_clean', 'submitters': [{'name': 'Dalar Nazarian Jeff Camp and David Sholl', 'email': 'dalar@gatech.edu jcamp6@gatech.edu'}], '_method': 'VASP DFT with PBE;DDEC'}
data_Er2H3(C5O4)3
_symmetry_space_group_name_H-M   'P 1'
_cell_length_a   10.40049983
_cell_length_b   10.64859950
_cell_length_c   13.63210000
_cell_angle_alpha   105.30699850
_cell_angle_beta   93.83500057
_cell_angle_gamma   108.93499851
_symmetry_Int_Tables_number   1
_chemical_formula_structural   Er2H3(C5O4)3
_chemical_formula_sum   'Er4 H6 C30 O24'
_cell_volume   1358.01637784
_cell_formula_units_Z   2
loop_
 _symmetry_equiv_pos_site_id
 _symmetry_equiv_pos_as_xyz
  1  'x, y, z'
loop_
 _atom_site_label
 _atom_site_fract_x
 _atom_site_fract_y
 _atom_site_fract_z
 _atom_site_charge
 Er 0.47639 0.41994 0.81192   1.618369
 Er 0.01863 0.05028 0.18658   1.536009
 Er 0.52361 0.58006 0.18808   1.61837
 Er 0.98137 0.94972 0.81342   1.536006
 H 0.6871 0.1769 0.1103   0.128229
 H 0.7981 0.3146 0.9184   0.111937
 H 0.0996 0.2376 0.5712   0.121719
 H 0.3129 0.8231 0.8897   0.128229
 H 0.2019 0.6854 0.0816   0.111937
 H 0.9004 0.7624 0.4288   0.121719
 C 0.5202 0.8912 0.9273   0.009329
 C 0.6332 0.9988 0.9944   -0.107897
 C 0.6119 0.1055 0.0658   -0.045319
 C 0.5306 0.766 0.8492   0.632618
 C 0.7769 0.000399999999999 0.9904   0.748795
 C 0.9943 0.6272 0.0582   0.004161
 C 0.8722 0.5133 0.0089   -0.075263
 C 0.8791 0.3889 0.9513   -0.077452
 C 0.9903 0.7684 0.1096   0.60114
 C 0.7329 0.5217 0.0262   0.782892
 C 0.0938 0.0566 0.5925   -0.111278
 C 0.059 0.1415 0.5424   0.000123
 C 0.0345 0.9113 0.5496   -0.074056
 C 0.1978 0.1261 0.6896   0.737865
 C 0.0662 0.8077 0.5948   0.663999
 C 0.4798 0.1088 0.0727   0.00933
 C 0.3668 0.0012 0.0056   -0.107897
 C 0.3881 0.8945 0.9342   -0.045317
 C 0.4694 0.234 0.1508   0.632618
 C 0.2231 0.9996 0.0096   0.748795
 C 0.0057 0.3728 0.9418   0.004161
 C 0.1278 0.4867 0.9911   -0.075263
 C 0.1209 0.6111 0.0487   -0.077452
 C 0.0097 0.2316 0.8904   0.60114
 C 0.2671 0.4783 0.9738   0.782892
 C 0.9062 0.9434 0.4075   -0.111277
 C 0.941 0.8585 0.4576   0.000121
 C 0.9655 0.0887 0.4504   -0.074058
 C 0.8022 0.8739 0.3104   0.737866
 C 0.9338 0.1923 0.4052   0.663999
 O 0.861 0.0616 0.0736   -0.649372
 O 0.8047 0.9445 0.9064   -0.650807
 O 0.539 0.6691 0.883   -0.618894
 O 0.5195 0.7633 0.7568   -0.443147
 O 0.644 0.4901 0.9487   -0.764425
 O 0.7144 0.5545 0.1172   -0.659985
 O 0.9221 0.8168 0.0596   -0.501328
 O 0.0611 0.8409 0.1971   -0.58205
 O 0.1799 0.0763 0.7636   -0.593812
 O 0.298 0.2326 0.6923   -0.733551
 O 0.0324 0.7989 0.68   -0.625192
 O 0.1166 0.7301 0.5393   -0.383357
 O 0.139 0.9384 0.9264   -0.649372
 O 0.1953 0.0555 0.0936   -0.650807
 O 0.461 0.3309 0.117   -0.618894
 O 0.4805 0.2367 0.2432   -0.443147
 O 0.356 0.5099 0.0513   -0.764425
 O 0.2856 0.4455 0.8828   -0.659985
 O 0.0779 0.1832 0.9404   -0.501328
 O 0.9389 0.1591 0.8029   -0.58205
 O 0.8201 0.9237 0.2364   -0.593812
 O 0.702 0.7674 0.3077   -0.733551
 O 0.9676 0.2011 0.32   -0.625192
 O 0.8834 0.2699 0.4607   -0.383357
