{'_ref': 'TBD', '_srcid': 'CAKYAQ_clean', 'submitters': [{'name': 'Dalar Nazarian Jeff Camp and David Sholl', 'email': 'dalar@gatech.edu jcamp6@gatech.edu'}], '_method': 'VASP DFT with PBE;DDEC'}
data_Cu5H14(CO)24
_symmetry_space_group_name_H-M   'P 1'
_cell_length_a   8.39710051
_cell_length_b   9.52569984
_cell_length_c   27.13000000
_cell_angle_alpha   83.10700062
_cell_angle_beta   81.09729725
_cell_angle_gamma   63.84760052
_symmetry_Int_Tables_number   1
_chemical_formula_structural   Cu5H14(CO)24
_chemical_formula_sum   'Cu10 H28 C48 O48'
_cell_volume   1921.16519596
_cell_formula_units_Z   2
loop_
 _symmetry_equiv_pos_site_id
 _symmetry_equiv_pos_as_xyz
  1  'x, y, z'
loop_
 _atom_site_label
 _atom_site_fract_x
 _atom_site_fract_y
 _atom_site_fract_z
 _atom_site_charge
 Cu 0.39396 0.86447 0.77559   0.951248
 Cu 0.04721 0.28926 0.58182   1.003932
 Cu 0.03402 0.63553 0.72441   0.951006
 Cu 0.91829 0.21074 0.91818   1.004177
 Cu 0.60604 0.13553 0.22441   0.951248
 Cu 0.95279 0.71074 0.41818   1.003932
 Cu 0.96598 0.36447 0.27559   0.951006
 Cu 0.08171 0.78926 0.08182   1.004177
 Cu 0.73789 0.25 0.75   0.732631
 Cu 0.26211 0.75 0.25   0.732631
 H 0.4633 0.6972 0.6914   0.10154
 H 0.5312 0.5959 0.6177   0.140793
 H 0.756 0.5586 0.558   0.104481
 H 0.5204 0.7853 0.5491   0.136204
 H 0.4422 0.0177 0.5777   0.102981
 H 0.3476 0.8602 0.6274   0.132318
 H 0.7089 0.0621 0.5497   0.405958
 H 0.8519 0.8028 0.8086   0.101726
 H 0.7448 0.9041 0.8823   0.140382
 H 0.8726 0.9414 0.942   0.104389
 H 0.8548 0.7147 0.9509   0.136007
 H 0.0376 0.4823 0.9223   0.103361
 H 0.8352 0.6398 0.8726   0.132214
 H 0.3207 0.4379 0.9503   0.40687
 H 0.5367 0.3028 0.3086   0.10154
 H 0.4688 0.4041 0.3823   0.140792
 H 0.244 0.4414 0.442   0.10448
 H 0.4796 0.2147 0.4509   0.136202
 H 0.5578 0.9823 0.4223   0.102981
 H 0.6524 0.1398 0.3726   0.132318
 H 0.2911 0.9379 0.4503   0.405957
 H 0.1481 0.1972 0.1914   0.101726
 H 0.2552 0.0959 0.1177   0.140382
 H 0.1274 0.0586 0.058   0.104388
 H 0.1452 0.2853 0.0491   0.136005
 H 0.9624 0.5177 0.0777   0.103361
 H 0.1648 0.3602 0.1274   0.132214
 H 0.6793 0.5621 0.0497   0.406869
 C 0.54824 0.72577 0.66855   -0.17121
 C 0.63384 0.59867 0.62985   -0.153732
 C 0.73898 0.635 0.58184   -0.177324
 C 0.6214 0.79743 0.55857   -0.134986
 C 0.53449 0.93109 0.59513   -0.173657
 C 0.43417 0.88268 0.64138   -0.17029
 C 0.6848 0.72191 0.70089   0.698977
 C 0.72581 0.43726 0.65592   0.732465
 C 0.92567 0.62014 0.58652   0.623031
 C 0.71274 0.83547 0.50905   0.661563
 C 0.64765 0.000630000000001 0.61187   0.668873
 C 0.31755 0.02282 0.67288   0.687528
 C 0.94256 0.77423 0.83145   -0.171949
 C 0.86236 0.90133 0.87015   -0.153378
 C 0.95582 0.865 0.91816   -0.176805
 C 0.9774 0.70257 0.94143   -0.133934
 C 0.06071 0.56891 0.90487   -0.175655
 C 0.95823 0.61732 0.85862   -0.168793
 C 0.1076 0.77809 0.79911   0.700951
 C 0.81899 0.06274 0.84408   0.731109
 C 0.13233 0.87986 0.91348   0.622471
 C 0.05726 0.66453 0.99095   0.661668
 C 0.26015 0.49937 0.88813   0.669224
 C 0.01325 0.47718 0.82712   0.686783
 C 0.45176 0.27423 0.33145   -0.17121
 C 0.36616 0.40133 0.37015   -0.153732
 C 0.26102 0.365 0.41816   -0.177324
 C 0.3786 0.20257 0.44143   -0.134985
 C 0.46551 0.06891 0.40487   -0.173657
 C 0.56583 0.11732 0.35862   -0.17029
 C 0.3152 0.27809 0.29911   0.698977
 C 0.27419 0.56274 0.34408   0.732464
 C 0.07433 0.37986 0.41348   0.623031
 C 0.28726 0.16453 0.49095   0.661563
 C 0.35235 0.99937 0.38813   0.668873
 C 0.68245 0.97718 0.32712   0.687528
 C 0.05744 0.22577 0.16855   -0.171949
 C 0.13764 0.09867 0.12985   -0.153378
 C 0.04418 0.135 0.08184   -0.176805
 C 0.0226 0.29743 0.05857   -0.133934
 C 0.93929 0.43109 0.09513   -0.175656
 C 0.04177 0.38268 0.14138   -0.168793
 C 0.8924 0.22191 0.20089   0.700951
 C 0.18101 0.93726 0.15592   0.731109
 C 0.86767 0.12014 0.08652   0.622471
 C 0.94274 0.33547 0.00905   0.661668
 C 0.73985 0.50063 0.11187   0.669224
 C 0.98675 0.52282 0.17288   0.686783
 O 0.63323 0.79277 0.74097   -0.608858
 O 0.84793 0.63918 0.68736   -0.543767
 O 0.65985 0.42234 0.69936   -0.545684
 O 0.85016 0.32408 0.633   -0.615259
 O 0.05485 0.48321 0.58949   -0.500985
 O 0.94875 0.74088 0.58402   -0.467294
 O 0.78604 0.7274 0.47912   -0.586935
 O 0.70643 0.9707 0.49924   -0.563666
 O 0.71137 0.08179 0.57807   -0.526633
 O 0.66319 0.99838 0.65564   -0.495011
 O 0.24867 0.1543 0.65016   -0.52413
 O 0.28079 0.00358 0.72004   -0.558627
 O 0.16697 0.70723 0.75903   -0.60947
 O 0.17447 0.86082 0.81264   -0.544936
 O 0.78155 0.07766 0.80064   -0.54493
 O 0.80724 0.17592 0.867   -0.61488
 O 0.12755 0.01679 0.91051   -0.500923
 O 0.27365 0.75912 0.91598   -0.46697
 O 0.99256 0.7726 0.02088   -0.587148
 O 0.17637 0.5293 0.00076   -0.563781
 O 0.37123 0.41821 0.92193   -0.527345
 O 0.31721 0.50162 0.84436   -0.495267
 O 0.05313 0.3457 0.84984   -0.523923
 O 0.00441 0.49642 0.77996   -0.558718
 O 0.36677 0.20723 0.25903   -0.608858
 O 0.15207 0.36082 0.31264   -0.543767
 O 0.34015 0.57766 0.30064   -0.545684
 O 0.14984 0.67592 0.367   -0.615259
 O 0.94515 0.51679 0.41051   -0.500985
 O 0.05125 0.25912 0.41598   -0.467294
 O 0.21396 0.2726 0.52088   -0.586936
 O 0.29357 0.0293 0.50076   -0.563666
 O 0.28863 0.91821 0.42193   -0.526633
 O 0.33681 0.00162 0.34436   -0.495011
 O 0.75133 0.8457 0.34984   -0.52413
 O 0.71921 0.99642 0.27996   -0.558627
 O 0.83303 0.29277 0.24097   -0.60947
 O 0.82553 0.13918 0.18736   -0.544936
 O 0.21845 0.92234 0.19936   -0.54493
 O 0.19276 0.82408 0.133   -0.61488
 O 0.87245 0.98321 0.08949   -0.500924
 O 0.72635 0.24088 0.08402   -0.46697
 O 0.00744 0.2274 0.97912   -0.587149
 O 0.82363 0.4707 0.99924   -0.56378
 O 0.62877 0.58179 0.07807   -0.527345
 O 0.68279 0.49838 0.15564   -0.495267
 O 0.94687 0.6543 0.15016   -0.523923
 O 0.99559 0.50358 0.22004   -0.558718
