{'_ref': 'TBD', '_srcid': 'CAKYAQ_clean', 'submitters': [{'name': 'Dalar Nazarian Jeff Camp and David Sholl', 'email': 'dalar@gatech.edu jcamp6@gatech.edu'}], '_method': 'VASP DFT with PBE;DDEC'}
data_Zn4H12C24O13
_symmetry_space_group_name_H-M   'P 1'
_cell_length_a   18.26598237
_cell_length_b   18.26598237
_cell_length_c   18.26598237
_cell_angle_alpha   60.00000000
_cell_angle_beta   60.00000000
_cell_angle_gamma   60.00000000
_symmetry_Int_Tables_number   1
_chemical_formula_structural   Zn4H12C24O13
_chemical_formula_sum   'Zn8 H24 C48 O26'
_cell_volume   4309.37318259
_cell_formula_units_Z   2
loop_
 _symmetry_equiv_pos_site_id
 _symmetry_equiv_pos_as_xyz
  1  'x, y, z'
loop_
 _atom_site_label
 _atom_site_fract_x
 _atom_site_fract_y
 _atom_site_fract_z
 _atom_site_charge
 Zn 0.7066 0.8802 0.7066   1.103828
 Zn 0.2934 0.1198 0.2934   1.103828
 Zn 0.7066 0.7066 0.8802   1.103828
 Zn 0.2934 0.2934 0.1198   1.103828
 Zn 0.7066 0.7066 0.7066   1.103827
 Zn 0.2934 0.2934 0.2934   1.103827
 Zn 0.8802 0.7066 0.7066   1.103828
 Zn 0.1198 0.2934 0.2934   1.103828
 H 0.5448 0.065 0.8454   0.115889
 H 0.4552 0.935 0.1546   0.115889
 H 0.5448 0.8454 0.065   0.115888
 H 0.4552 0.1546 0.935   0.115888
 H 0.8454 0.5448 0.5448   0.11589
 H 0.1546 0.4552 0.4552   0.11589
 H 0.065 0.5448 0.5448   0.115888
 H 0.935 0.4552 0.4552   0.115888
 H 0.5448 0.5448 0.065   0.115889
 H 0.4552 0.4552 0.935   0.115889
 H 0.5448 0.5448 0.8454   0.115888
 H 0.4552 0.4552 0.1546   0.115888
 H 0.8454 0.065 0.5448   0.115889
 H 0.1546 0.935 0.4552   0.115889
 H 0.065 0.8454 0.5448   0.115887
 H 0.935 0.1546 0.4552   0.115887
 H 0.5448 0.8454 0.5448   0.115889
 H 0.4552 0.1546 0.4552   0.115889
 H 0.5448 0.065 0.5448   0.115887
 H 0.4552 0.935 0.4552   0.115887
 H 0.8454 0.5448 0.065   0.115889
 H 0.1546 0.4552 0.935   0.115889
 H 0.065 0.5448 0.8454   0.115887
 H 0.935 0.4552 0.1546   0.115887
 C 0.6113 0.8887 0.8887   0.671939
 C 0.3887 0.1113 0.1113   0.671939
 C 0.8887 0.6113 0.6113   0.671939
 C 0.1113 0.3887 0.3887   0.671939
 C 0.6113 0.6113 0.8887   0.67194
 C 0.3887 0.3887 0.1113   0.67194
 C 0.8887 0.8887 0.6113   0.67194
 C 0.1113 0.1113 0.3887   0.67194
 C 0.6113 0.8887 0.6113   0.67194
 C 0.3887 0.1113 0.3887   0.67194
 C 0.8887 0.6113 0.8887   0.67194
 C 0.1113 0.3887 0.1113   0.67194
 C 0.5538 0.9462 0.9462   -0.11508
 C 0.4462 0.0538 0.0538   -0.11508
 C 0.9462 0.5538 0.5538   -0.11508
 C 0.0538 0.4462 0.4462   -0.11508
 C 0.5538 0.5538 0.9462   -0.11508
 C 0.4462 0.4462 0.0538   -0.11508
 C 0.9462 0.9462 0.5538   -0.11508
 C 0.0538 0.0538 0.4462   -0.11508
 C 0.5538 0.9462 0.5538   -0.11508
 C 0.4462 0.0538 0.4462   -0.11508
 C 0.9462 0.5538 0.9462   -0.11508
 C 0.0538 0.4462 0.0538   -0.11508
 C 0.5269 0.0389 0.9073   -0.0559
 C 0.4731 0.9611 0.0927   -0.0559
 C 0.5269 0.9073 0.0389   -0.055903
 C 0.4731 0.0927 0.9611   -0.055903
 C 0.9073 0.5269 0.5269   -0.0559
 C 0.0927 0.4731 0.4731   -0.0559
 C 0.0389 0.5269 0.5269   -0.055903
 C 0.9611 0.4731 0.4731   -0.055903
 C 0.5269 0.5269 0.0389   -0.0559
 C 0.4731 0.4731 0.9611   -0.0559
 C 0.5269 0.5269 0.9073   -0.055903
 C 0.4731 0.4731 0.0927   -0.055903
 C 0.9073 0.0389 0.5269   -0.0559
 C 0.0927 0.9611 0.4731   -0.0559
 C 0.0389 0.9073 0.5269   -0.055903
 C 0.9611 0.0927 0.4731   -0.055903
 C 0.5269 0.9073 0.5269   -0.055901
 C 0.4731 0.0927 0.4731   -0.055901
 C 0.5269 0.0389 0.5269   -0.055903
 C 0.4731 0.9611 0.4731   -0.055903
 C 0.9073 0.5269 0.0389   -0.0559
 C 0.0927 0.4731 0.9611   -0.0559
 C 0.0389 0.5269 0.9073   -0.055903
 C 0.9611 0.4731 0.0927   -0.055903
 O 0.75 0.75 0.75   -1.262151
 O 0.25 0.25 0.25   -1.262151
 O 0.634 0.9298 0.8022   -0.60118
 O 0.366 0.0702 0.1978   -0.60118
 O 0.634 0.8022 0.9298   -0.601179
 O 0.366 0.1978 0.0702   -0.601179
 O 0.8022 0.634 0.634   -0.601179
 O 0.1978 0.366 0.366   -0.601179
 O 0.9298 0.634 0.634   -0.60118
 O 0.0702 0.366 0.366   -0.60118
 O 0.634 0.634 0.9298   -0.60118
 O 0.366 0.366 0.0702   -0.60118
 O 0.634 0.634 0.8022   -0.601179
 O 0.366 0.366 0.1978   -0.601179
 O 0.8022 0.9298 0.634   -0.60118
 O 0.1978 0.0702 0.366   -0.60118
 O 0.9298 0.8022 0.634   -0.601179
 O 0.0702 0.1978 0.366   -0.601179
 O 0.634 0.8022 0.634   -0.601179
 O 0.366 0.1978 0.366   -0.601179
 O 0.634 0.9298 0.634   -0.60118
 O 0.366 0.0702 0.366   -0.60118
 O 0.8022 0.634 0.9298   -0.60118
 O 0.1978 0.366 0.0702   -0.60118
 O 0.9298 0.634 0.8022   -0.60118
 O 0.0702 0.366 0.1978   -0.60118
