{'_ref': 'TBD', '_srcid': 'CAKYAQ_clean', 'submitters': [{'name': 'Dalar Nazarian Jeff Camp and David Sholl', 'email': 'dalar@gatech.edu jcamp6@gatech.edu'}], '_method': 'VASP DFT with PBE;DDEC'}
data_DyNiH25C48(NO2)4
_symmetry_space_group_name_H-M   'P 1'
_cell_length_a   8.76020000
_cell_length_b   21.22010012
_cell_length_c   27.83080000
_cell_angle_alpha   90.00000000
_cell_angle_beta   90.00000000
_cell_angle_gamma   97.68009897
_symmetry_Int_Tables_number   1
_chemical_formula_structural   DyNiH25C48(NO2)4
_chemical_formula_sum   'Dy4 Ni4 H100 C192 N16 O32'
_cell_volume   5127.12376394
_cell_formula_units_Z   4
loop_
 _symmetry_equiv_pos_site_id
 _symmetry_equiv_pos_as_xyz
  1  'x, y, z'
loop_
 _atom_site_label
 _atom_site_fract_x
 _atom_site_fract_y
 _atom_site_fract_z
 _atom_site_charge
 Dy 0.81449 0.75378 0.31147   2.280279
 Dy 0.23006 0.74834 0.4217   2.251468
 Dy 0.18551 0.24622 0.81147   2.280279
 Dy 0.76994 0.25166 0.9217   2.251468
 Ni 0.27561 0.24013 0.31389   0.431549
 Ni 0.7774 0.26348 0.40801   0.432681
 Ni 0.72439 0.75987 0.81389   0.431549
 Ni 0.2226 0.73652 0.90801   0.432681
 H 0.344 0.0514 0.2092   0.130434
 H 0.226 0.1244 0.1552   0.134597
 H 0.1876 0.3719 0.1671   0.133025
 H 0.1777 0.4457 0.2361   0.131591
 H 0.0606 0.3975 0.4208   0.127464
 H 0.1293 0.3165 0.4781   0.131075
 H 0.5021 0.1389 0.4567   0.127141
 H 0.5604 0.0716 0.3885   0.122848
 H 0.9535 0.1857 0.1572   0.104957
 H 0.8494 0.1876 0.0796   0.115479
 H 0.2295 0.296 0.0336   0.106917
 H 0.3387 0.2949 0.1118   0.108375
 H 0.9206 0.4382 0.2913   0.102999
 H 0.8599 0.542 0.2981   0.106909
 H 0.2198 0.587 0.3853   0.072052
 H 0.2836 0.4843 0.3784   0.094323
 H 0.1886 0.1373 0.4959   0.08832
 H 0.1975 0.1289 0.5779   0.106241
 H 0.4459 0.3006 0.5831   0.094949
 H 0.435 0.3092 0.5005   0.098955
 H 0.2741 0.1587 0.695   0.426945
 H 0.3519 0.9974 0.3507   0.08839
 H 0.4408 0.8976 0.3481   0.088161
 H 0.6923 0.9546 0.2307   0.111124
 H 0.6175 0.0551 0.2371   0.11461
 H 0.6901 0.4434 0.5196   0.132731
 H 0.7891 0.3645 0.5733   0.137377
 H 0.8263 0.118 0.5501   0.135743
 H 0.8775 0.0536 0.4785   0.127439
 H 0.0018 0.1134 0.2943   0.131477
 H 0.9066 0.191 0.2414   0.115547
 H 0.5563 0.3744 0.2674   0.13078
 H 0.5072 0.4403 0.3379   0.12322
 H 0.0451 0.2909 0.5844   0.103971
 H 0.0798 0.2861 0.6673   0.103291
 H 0.6525 0.1814 0.6786   0.103808
 H 0.6291 0.1864 0.5952   0.101382
 H 0.8017 0.0272 0.3334   0.098043
 H 0.8673 0.9251 0.3239   0.081401
 H 0.1918 0.9636 0.4288   0.107645
 H 0.138 0.0665 0.4341   0.110591
 H 0.8576 0.3708 0.2278   0.100648
 H 0.8319 0.3806 0.1435   0.108311
 H 0.5513 0.2126 0.14   0.100379
 H 0.5891 0.1996 0.223   0.099744
 H 0.7394 0.3519 0.0289   0.419121
 H 0.7298 0.519 0.3821   0.101808
 H 0.6371 0.6142 0.3906   0.07511
 H 0.3323 0.5385 0.4915   0.109256
 H 0.4235 0.4403 0.4843   0.123743
 H 0.656 0.9486 0.7092   0.130434
 H 0.774 0.8756 0.6552   0.134596
 H 0.8124 0.6281 0.6671   0.133025
 H 0.8223 0.5543 0.7361   0.131591
 H 0.9394 0.6025 0.9208   0.127464
 H 0.8707 0.6835 0.9781   0.131075
 H 0.4979 0.8611 0.9567   0.127141
 H 0.4396 0.9284 0.8885   0.122848
 H 0.0465 0.8143 0.6572   0.104957
 H 0.1506 0.8124 0.5796   0.115478
 H 0.7705 0.704 0.5336   0.106918
 H 0.6613 0.7051 0.6118   0.108375
 H 0.0794 0.5618 0.7913   0.102999
 H 0.1401 0.458 0.7981   0.106908
 H 0.7802 0.413 0.8853   0.072052
 H 0.7164 0.5157 0.8784   0.094323
 H 0.8114 0.8627 0.9959   0.08832
 H 0.8025 0.8711 0.0779   0.10624
 H 0.5541 0.6994 0.0831   0.094949
 H 0.565 0.6908 0.000500000000002   0.098955
 H 0.7259 0.8413 0.195   0.426945
 H 0.6481 0.0026 0.8507   0.08839
 H 0.5592 0.1024 0.8481   0.088161
 H 0.3077 0.0454 0.7307   0.111124
 H 0.3825 0.9449 0.7371   0.11461
 H 0.3099 0.5566 0.0196   0.13273
 H 0.2109 0.6355 0.0733   0.137376
 H 0.1737 0.882 0.0501   0.135742
 H 0.1225 0.9464 0.9785   0.127438
 H 0.9982 0.8866 0.7943   0.131477
 H 0.0934 0.809 0.7414   0.115547
 H 0.4437 0.6256 0.7674   0.13078
 H 0.4928 0.5597 0.8379   0.12322
 H 0.9549 0.7091 0.0844   0.103971
 H 0.9202 0.7139 0.1673   0.103291
 H 0.3475 0.8186 0.1786   0.103808
 H 0.3709 0.8136 0.0952   0.101382
 H 0.1983 0.9728 0.8334   0.098043
 H 0.1327 0.0749 0.8239   0.081401
 H 0.8082 0.0364 0.9288   0.107645
 H 0.862 0.9335 0.9341   0.110591
 H 0.1424 0.6292 0.7278   0.100648
 H 0.1681 0.6194 0.6435   0.10831
 H 0.4487 0.7874 0.64   0.100379
 H 0.4109 0.8004 0.723   0.099744
 H 0.2606 0.6481 0.5289   0.419121
 H 0.2702 0.481 0.8821   0.101808
 H 0.3629 0.3858 0.8906   0.07511
 H 0.6677 0.4615 0.9915   0.109256
 H 0.5765 0.5597 0.9843   0.123743
 C 0.3504 0.124 0.2615   0.1783
 C 0.3221 0.0928 0.217   -0.1808
 C 0.258 0.1326 0.1875   -0.173163
 C 0.248 0.1889 0.214   0.181582
 C 0.2087 0.2457 0.194   -0.101289
 C 0.215 0.3009 0.22   0.186338
 C 0.1944 0.3617 0.2002   -0.162642
 C 0.1867 0.4016 0.2378   -0.18318
 C 0.1948 0.3651 0.2808   0.195076
 C 0.1566 0.3851 0.3261   -0.118769
 C 0.1641 0.3484 0.366   0.205185
 C 0.1128 0.3624 0.4129   -0.177579
 C 0.1496 0.3182 0.4446   -0.169661
 C 0.2253 0.2749 0.4169   0.193025
 C 0.3014 0.2274 0.4363   -0.098266
 C 0.3699 0.1855 0.4072   0.187997
 C 0.4672 0.1419 0.4245   -0.182501
 C 0.5011 0.106 0.3873   -0.167192
 C 0.4307 0.1293 0.3456   0.194595
 C 0.4222 0.0987 0.3006   -0.108954
 C 0.1568 0.2436 0.1429   0.095236
 C 0.0102 0.2094 0.1325   -0.160801
 C 0.9483 0.2101 0.0862   -0.038741
 C 0.0306 0.2433 0.0504   -0.137499
 C 0.1724 0.274 0.059   -0.01447
 C 0.2378 0.2738 0.1062   -0.14528
 C 0.9526 0.2443 0.0024   0.692099
 C 0.1129 0.4502 0.3319   0.121199
 C 0.9852 0.4684 0.3099   -0.149179
 C 0.9476 0.5306 0.3143   -0.012598
 C 0.0352 0.5743 0.3415   -0.183042
 C 0.1592 0.5569 0.3655   0.007385
 C 0.1978 0.4955 0.3611   -0.159332
 C 0.9975 0.6403 0.3466   0.867014
 C 0.3087 0.223 0.4897   0.111142
 C 0.2418 0.1715 0.5138   -0.132497
 C 0.2467 0.1659 0.5622   -0.034155
 C 0.3245 0.2152 0.5883   -0.149364
 C 0.3921 0.2667 0.5651   -0.021235
 C 0.3862 0.2721 0.5161   -0.139058
 C 0.3328 0.213 0.6428   0.651133
 C 0.477 0.0369 0.295   0.115082
 C 0.4246 0.9895 0.3268   -0.141421
 C 0.4758 0.9293 0.325   -0.005579
 C 0.5768 0.9168 0.2896   -0.129088
 C 0.6261 0.9635 0.2561   -0.028906
 C 0.5792 0.023 0.2595   -0.151037
 C 0.6442 0.8551 0.2913   0.711491
 C 0.7019 0.3755 0.464   0.190237
 C 0.7142 0.4027 0.5107   -0.192192
 C 0.7667 0.3598 0.54   -0.159511
 C 0.7819 0.3055 0.5104   0.164133
 C 0.8121 0.2474 0.5288   -0.094812
 C 0.8208 0.1949 0.5002   0.183647
 C 0.8349 0.1321 0.5177   -0.171832
 C 0.8628 0.0971 0.4784   -0.184579
 C 0.8664 0.1374 0.4368   0.192208
 C 0.9106 0.1212 0.3913   -0.125512
 C 0.8987 0.1596 0.3516   0.192077
 C 0.9451 0.1465 0.3037   -0.173503
 C 0.8948 0.1887 0.2753   -0.159437
 C 0.8198 0.2302 0.3043   0.199879
 C 0.7413 0.2783 0.2865   -0.10886
 C 0.6791 0.3194 0.3168   0.18091
 C 0.5891 0.3688 0.2995   -0.170964
 C 0.5622 0.4046 0.3378   -0.171058
 C 0.6334 0.3784 0.379   0.203953
 C 0.638 0.4046 0.424   -0.132025
 C 0.8331 0.2429 0.583   0.088033
 C 0.9655 0.2695 0.6038   -0.156046
 C 0.9876 0.2661 0.6528   -0.041624
 C 0.8682 0.2319 0.6812   -0.162892
 C 0.7331 0.2034 0.6597   -0.014957
 C 0.7183 0.2076 0.6105   -0.157236
 C 0.886 0.2306 0.736   0.775082
 C 0.9611 0.0572 0.3846   0.124928
 C 0.8822 0.0142 0.3523   -0.161309
 C 0.9188 0.9529 0.3473   0.012566
 C 0.033 0.9317 0.377   -0.201772
 C 0.113 0.9765 0.4091   -0.001849
 C 0.0806 0.0374 0.4128   -0.14812
 C 0.056 0.8638 0.3763   0.854853
 C 0.7227 0.2834 0.2339   0.107937
 C 0.7969 0.3384 0.21   -0.148426
 C 0.7799 0.3446 0.1597   -0.035912
 C 0.6878 0.2983 0.1342   -0.168613
 C 0.6148 0.2443 0.1576   -0.019802
 C 0.6359 0.2371 0.2075   -0.141804
 C 0.66 0.3066 0.0826   0.662661
 C 0.5822 0.4675 0.4308   0.115336
 C 0.6476 0.5223 0.4039   -0.152216
 C 0.593 0.5789 0.4092   0.006816
 C 0.4737 0.5868 0.4412   -0.159925
 C 0.412 0.5339 0.4692   -0.015758
 C 0.4653 0.475 0.4647   -0.164213
 C 0.4007 0.6465 0.4417   0.712485
 C 0.6496 0.876 0.7615   0.1783
 C 0.6779 0.9072 0.717   -0.1808
 C 0.742 0.8674 0.6875   -0.173163
 C 0.752 0.8111 0.714   0.181582
 C 0.7913 0.7543 0.694   -0.101289
 C 0.785 0.6991 0.72   0.186338
 C 0.8056 0.6383 0.7002   -0.162642
 C 0.8133 0.5984 0.7378   -0.18318
 C 0.8052 0.6349 0.7808   0.195076
 C 0.8434 0.6149 0.8261   -0.118769
 C 0.8359 0.6516 0.866   0.205185
 C 0.8872 0.6376 0.9129   -0.177579
 C 0.8504 0.6818 0.9446   -0.169661
 C 0.7747 0.7251 0.9169   0.193025
 C 0.6986 0.7726 0.9363   -0.098266
 C 0.6301 0.8145 0.9072   0.187997
 C 0.5328 0.8581 0.9245   -0.182501
 C 0.4989 0.894 0.8873   -0.167192
 C 0.5693 0.8707 0.8456   0.194595
 C 0.5778 0.9013 0.8006   -0.108954
 C 0.8432 0.7564 0.6429   0.095236
 C 0.9898 0.7906 0.6325   -0.160801
 C 0.0517 0.7899 0.5862   -0.038741
 C 0.9694 0.7567 0.5504   -0.137499
 C 0.8276 0.726 0.559   -0.01447
 C 0.7622 0.7262 0.6062   -0.14528
 C 0.0474 0.7557 0.5024   0.692099
 C 0.8871 0.5498 0.8319   0.121199
 C 0.0148 0.5316 0.8099   -0.149179
 C 0.0524 0.4694 0.8143   -0.012598
 C 0.9648 0.4257 0.8415   -0.183042
 C 0.8408 0.4431 0.8655   0.007385
 C 0.8022 0.5045 0.8611   -0.159332
 C 0.0025 0.3597 0.8466   0.867014
 C 0.6913 0.777 0.9897   0.111142
 C 0.7582 0.8285 0.0138   -0.132497
 C 0.7533 0.8341 0.0622   -0.034155
 C 0.6755 0.7848 0.0883   -0.149364
 C 0.6079 0.7333 0.0651   -0.021235
 C 0.6138 0.7279 0.0161   -0.139058
 C 0.6672 0.787 0.1428   0.651133
 C 0.523 0.9631 0.795   0.115082
 C 0.5754 0.0105 0.8268   -0.141421
 C 0.5242 0.0707 0.825   -0.005579
 C 0.4232 0.0832 0.7896   -0.129088
 C 0.3739 0.0365 0.7561   -0.028906
 C 0.4208 0.977 0.7595   -0.151037
 C 0.3558 0.1449 0.7913   0.711491
 C 0.2981 0.6245 0.964   0.190237
 C 0.2858 0.5973 0.0107   -0.192192
 C 0.2333 0.6402 0.04   -0.159511
 C 0.2181 0.6945 0.0104   0.164133
 C 0.1879 0.7526 0.0288   -0.094812
 C 0.1792 0.8051 0.0002   0.183647
 C 0.1651 0.8679 0.0177   -0.171832
 C 0.1372 0.9029 0.9784   -0.184579
 C 0.1336 0.8626 0.9368   0.192207
 C 0.0894 0.8788 0.8913   -0.125512
 C 0.1013 0.8404 0.8516   0.192077
 C 0.0549 0.8535 0.8037   -0.173503
 C 0.1052 0.8113 0.7753   -0.159437
 C 0.1802 0.7698 0.8043   0.199879
 C 0.2587 0.7217 0.7865   -0.10886
 C 0.3209 0.6806 0.8168   0.18091
 C 0.4109 0.6312 0.7995   -0.170964
 C 0.4378 0.5954 0.8378   -0.171058
 C 0.3666 0.6216 0.879   0.203953
 C 0.362 0.5954 0.924   -0.132025
 C 0.1669 0.7571 0.083   0.088033
 C 0.0345 0.7305 0.1038   -0.156046
 C 0.0124 0.7339 0.1528   -0.041624
 C 0.1318 0.7681 0.1812   -0.162892
 C 0.2669 0.7966 0.1597   -0.014957
 C 0.2817 0.7924 0.1105   -0.157236
 C 0.114 0.7694 0.236   0.775081
 C 0.0389 0.9428 0.8846   0.124928
 C 0.1178 0.9858 0.8523   -0.161309
 C 0.0812 0.0471 0.8473   0.012566
 C 0.967 0.0683 0.877   -0.201772
 C 0.887 0.0235 0.9091   -0.001849
 C 0.9194 0.9626 0.9128   -0.14812
 C 0.944 0.1362 0.8763   0.854853
 C 0.2773 0.7166 0.7339   0.107937
 C 0.2031 0.6616 0.71   -0.148426
 C 0.2201 0.6554 0.6597   -0.035912
 C 0.3122 0.7017 0.6342   -0.168613
 C 0.3852 0.7557 0.6576   -0.019802
 C 0.3641 0.7629 0.7075   -0.141804
 C 0.34 0.6934 0.5826   0.662661
 C 0.4178 0.5325 0.9308   0.115336
 C 0.3524 0.4777 0.9039   -0.152216
 C 0.407 0.4211 0.9092   0.006816
 C 0.5263 0.4132 0.9412   -0.159925
 C 0.588 0.4661 0.9692   -0.015758
 C 0.5347 0.525 0.9647   -0.164213
 C 0.5993 0.3535 0.9417   0.712485
 N 0.2994 0.1839 0.2605   -0.325616
 N 0.2207 0.3038 0.27   -0.313913
 N 0.226 0.2917 0.3678   -0.325762
 N 0.3554 0.1803 0.3578   -0.317938
 N 0.7463 0.3163 0.4627   -0.307292
 N 0.8322 0.1973 0.4507   -0.32046
 N 0.8281 0.2149 0.3524   -0.316978
 N 0.6998 0.325 0.3663   -0.313012
 N 0.7006 0.8161 0.7605   -0.325616
 N 0.7793 0.6962 0.77   -0.313913
 N 0.774 0.7083 0.8678   -0.325762
 N 0.6446 0.8197 0.8578   -0.317938
 N 0.2537 0.6837 0.9627   -0.307292
 N 0.1678 0.8027 0.9507   -0.32046
 N 0.1719 0.7851 0.8524   -0.316978
 N 0.3002 0.675 0.8663   -0.313012
 O 0.8148 0.2183 0.9999   -0.70836
 O 0.0191 0.2719 0.9667   -0.674467
 O 0.883 0.6533 0.3232   -0.786062
 O 0.0794 0.6783 0.3739   -0.852952
 O 0.2773 0.1578 0.662   -0.549279
 O 0.3848 0.2593 0.6674   -0.552687
 O 0.6206 0.8205 0.3282   -0.7723
 O 0.7323 0.8407 0.2581   -0.701704
 O 0.7653 0.2113 0.7584   -0.622981
 O 0.0176 0.2466 0.7519   -0.818157
 O 0.9887 0.8281 0.3444   -0.845007
 O 0.1378 0.8446 0.4088   -0.776491
 O 0.563 0.2716 0.0603   -0.534294
 O 0.7488 0.3534 0.0619   -0.550171
 O 0.4534 0.6901 0.4136   -0.760438
 O 0.2813 0.6512 0.4668   -0.707676
 O 0.1852 0.7817 0.4999   -0.70836
 O 0.9809 0.7281 0.4667   -0.674467
 O 0.117 0.3467 0.8232   -0.786062
 O 0.9206 0.3217 0.8739   -0.852952
 O 0.7227 0.8422 0.162   -0.549279
 O 0.6152 0.7407 0.1674   -0.552687
 O 0.3794 0.1795 0.8282   -0.7723
 O 0.2677 0.1593 0.7581   -0.701704
 O 0.2347 0.7887 0.2584   -0.622982
 O 0.9824 0.7534 0.2519   -0.818157
 O 0.0113 0.1719 0.8444   -0.845007
 O 0.8622 0.1554 0.9088   -0.776491
 O 0.437 0.7284 0.5603   -0.534294
 O 0.2512 0.6466 0.5619   -0.550172
 O 0.5466 0.3099 0.9136   -0.760438
 O 0.7187 0.3488 0.9668   -0.707676
