{'_ref': 'TBD', '_srcid': 'CAKYAQ_clean', 'submitters': [{'name': 'Dalar Nazarian Jeff Camp and David Sholl', 'email': 'dalar@gatech.edu jcamp6@gatech.edu'}], '_method': 'VASP DFT with PBE;DDEC'}
data_Ca3H10(C6O7)2
_symmetry_space_group_name_H-M   'P 1'
_cell_length_a   5.94660046
_cell_length_b   10.22469983
_cell_length_c   16.64960000
_cell_angle_alpha   72.21299881
_cell_angle_beta   79.71800203
_cell_angle_gamma   89.79100124
_symmetry_Int_Tables_number   1
_chemical_formula_structural   Ca3H10(C6O7)2
_chemical_formula_sum   'Ca6 H20 C24 O28'
_cell_volume   947.062303215
_cell_formula_units_Z   2
loop_
 _symmetry_equiv_pos_site_id
 _symmetry_equiv_pos_as_xyz
  1  'x, y, z'
loop_
 _atom_site_label
 _atom_site_fract_x
 _atom_site_fract_y
 _atom_site_fract_z
 _atom_site_charge
 Ca 0.75595 0.87952 0.99633   1.598422
 Ca 0.05062 0.18055 0.39568   1.504573
 Ca 0.45185 0.57902 0.60335   1.51233
 Ca 0.24405 0.12048 0.00367   1.598421
 Ca 0.94938 0.81945 0.60432   1.50457
 Ca 0.54815 0.42098 0.39665   1.512325
 H 0.296 0.3525 0.7428   0.41107
 H 0.1581 0.0187 0.3596   0.267722
 H 0.7579 0.2492 0.7922   0.163032
 H 0.9167 0.1376 0.7658   0.155021
 H 0.0193 0.1903 0.6341   0.135537
 H 0.8443 0.308 0.6093   0.157841
 H 0.4876 0.8203 0.3706   0.154821
 H 0.6591 0.9164 0.3941   0.159772
 H 0.7419 0.029 0.2093   0.15959
 H 0.5851 0.8902 0.2405   0.140572
 H 0.704 0.6475 0.2572   0.41107
 H 0.8419 0.9813 0.6404   0.267722
 H 0.2421 0.7508 0.2078   0.163032
 H 0.0833 0.8624 0.2342   0.155021
 H 0.9807 0.8097 0.3659   0.135537
 H 0.1557 0.692 0.3907   0.157842
 H 0.5124 0.1797 0.6294   0.154821
 H 0.3409 0.0836 0.6059   0.159772
 H 0.2581 0.971 0.7907   0.15959
 H 0.4149 0.1098 0.7595   0.140572
 C 0.0208 0.2028 0.8585   0.8124
 C 0.9191 0.226 0.7786   -0.448566
 C 0.0354 0.3374 0.6958   0.301884
 C 0.0032 0.2909 0.6185   -0.436153
 C 0.1631 0.3576 0.5343   0.808565
 C 0.9229 0.4757 0.6875   0.644112
 C 0.3384 0.894 0.4674   0.804116
 C 0.5011 0.907 0.3846   -0.475164
 C 0.4673 0.0274 0.3061   0.286963
 C 0.5812 0.9916 0.225   -0.403618
 C 0.4725 0.0422 0.1455   0.801303
 C 0.5793 0.1596 0.3108   0.63816
 C 0.9792 0.7972 0.1415   0.812401
 C 0.0809 0.774 0.2214   -0.448566
 C 0.9646 0.6626 0.3042   0.301884
 C 0.9968 0.7091 0.3815   -0.436153
 C 0.8369 0.6424 0.4657   0.808565
 C 0.0771 0.5243 0.3125   0.644112
 C 0.6616 0.106 0.5326   0.804117
 C 0.4989 0.093 0.6154   -0.475164
 C 0.5327 0.9726 0.6939   0.286963
 C 0.4188 0.0084 0.775   -0.403618
 C 0.5275 0.9578 0.8545   0.801303
 C 0.4207 0.8404 0.6892   0.63816
 O 0.1758 0.2835 0.8613   -0.692233
 O 0.9498 0.0976 0.9201   -0.827836
 O 0.188 0.2936 0.4804   -0.75746
 O 0.2669 0.4713 0.5205   -0.715854
 O 0.049 0.5816 0.6737   -0.701536
 O 0.7107 0.4713 0.6936   -0.661835
 O 0.2749 0.3532 0.6941   -0.651956
 O 0.2347 0.9926 0.4813   -0.719234
 O 0.3106 0.7761 0.5218   -0.737126
 O 0.5481 0.0016 0.083   -0.844653
 O 0.3106 0.1202 0.1449   -0.67401
 O 0.4541 0.2542 0.3222   -0.700379
 O 0.7921 0.1644 0.3034   -0.654029
 O 0.2271 0.041 0.3083   -0.516159
 O 0.8242 0.7165 0.1387   -0.692233
 O 0.0502 0.9024 0.0799   -0.827836
 O 0.812 0.7064 0.5196   -0.75746
 O 0.7331 0.5287 0.4795   -0.715856
 O 0.951 0.4184 0.3263   -0.701536
 O 0.2893 0.5287 0.3064   -0.661836
 O 0.7251 0.6468 0.3059   -0.651955
 O 0.7653 0.0074 0.5187   -0.719234
 O 0.6894 0.2239 0.4782   -0.737126
 O 0.4519 0.9984 0.917   -0.844653
 O 0.6894 0.8798 0.8551   -0.67401
 O 0.5459 0.7458 0.6778   -0.70038
 O 0.2079 0.8356 0.6966   -0.654029
 O 0.7729 0.959 0.6917   -0.516159
