{'_ref': 'TBD', '_srcid': 'CAKYAQ_clean', 'submitters': [{'name': 'Dalar Nazarian Jeff Camp and David Sholl', 'email': 'dalar@gatech.edu jcamp6@gatech.edu'}], '_method': 'VASP DFT with PBE;DDEC'}
data_ZnH11C18N3O4
_symmetry_space_group_name_H-M   'P 1'
_cell_length_a   10.07000034
_cell_length_b   11.38300000
_cell_length_c   13.93600000
_cell_angle_alpha   90.00000000
_cell_angle_beta   101.95499987
_cell_angle_gamma   90.00000000
_symmetry_Int_Tables_number   1
_chemical_formula_structural   ZnH11C18N3O4
_chemical_formula_sum   'Zn2 H22 C36 N6 O8'
_cell_volume   1562.79176678
_cell_formula_units_Z   2
loop_
 _symmetry_equiv_pos_site_id
 _symmetry_equiv_pos_as_xyz
  1  'x, y, z'
loop_
 _atom_site_label
 _atom_site_fract_x
 _atom_site_fract_y
 _atom_site_fract_z
 _atom_site_charge
 Zn 0.3743 0.0 0.59954   0.877801
 Zn 0.6257 0.0 0.40046   0.877801
 H 0.5211 0.7889 0.71   0.088846
 H 0.5311 0.5907 0.7106   0.128748
 H 0.2185 0.5929 0.4856   0.121623
 H 0.2276 0.7886 0.4863   0.08355
 H 0.4789 0.7889 0.29   0.088846
 H 0.4689 0.5907 0.2894   0.128748
 H 0.7815 0.5929 0.5144   0.121623
 H 0.7724 0.7886 0.5137   0.08355
 H 0.4789 0.2111 0.29   0.088846
 H 0.4689 0.4093 0.2894   0.128748
 H 0.7815 0.4071 0.5144   0.121622
 H 0.7724 0.2114 0.5137   0.08355
 H 0.5211 0.2111 0.71   0.088846
 H 0.5311 0.4093 0.7106   0.128747
 H 0.2185 0.4071 0.4856   0.121621
 H 0.2276 0.2114 0.4863   0.08355
 H 0.9161 0.0 0.6007   0.102202
 H 0.1471 0.0 0.8726   0.107137
 H 0.7411 0.0 0.835   0.116944
 H 0.0839 0.0 0.3993   0.102202
 H 0.8529 0.0 0.1274   0.107139
 H 0.2589 0.0 0.165   0.116942
 C 0.461 0.7484 0.6617   0.180516
 C 0.4664 0.6288 0.6636   -0.20647
 C 0.3758 0.5637 0.5957   0.095417
 C 0.2852 0.6302 0.5316   -0.207027
 C 0.29 0.7482 0.5332   0.180929
 C 0.539 0.7484 0.3383   0.180516
 C 0.5336 0.6288 0.3364   -0.20647
 C 0.6242 0.5637 0.4043   0.095417
 C 0.7148 0.6302 0.4684   -0.207027
 C 0.71 0.7482 0.4668   0.180929
 C 0.539 0.2516 0.3383   0.180516
 C 0.5336 0.3712 0.3364   -0.20647
 C 0.6242 0.4363 0.4043   0.095414
 C 0.7148 0.3698 0.4684   -0.207027
 C 0.71 0.2518 0.4668   0.180929
 C 0.461 0.2516 0.6617   0.180516
 C 0.4664 0.3712 0.6636   -0.20647
 C 0.3758 0.4363 0.5957   0.095414
 C 0.2852 0.3698 0.5316   -0.207027
 C 0.29 0.2518 0.5332   0.180929
 C 0.6684 0.0 0.6388   0.674652
 C 0.8064 0.0 0.7057   -0.176958
 C 0.9231 0.0 0.6683   -0.006046
 C 0.0521 0.0 0.7306   -0.124122
 C 0.1783 0.0 0.689   0.631642
 C 0.0622 0.0 0.8308   -0.075344
 C 0.9447 0.0 0.8697   0.138199
 C 0.8187 0.0 0.8085   -0.090455
 C 0.3316 0.0 0.3612   0.674651
 C 0.1936 0.0 0.2943   -0.176957
 C 0.0769 0.0 0.3317   -0.006046
 C 0.9479 0.0 0.2694   -0.124123
 C 0.8217 0.0 0.311   0.631642
 C 0.9378 0.0 0.1692   -0.07534
 C 0.0553 0.0 0.1303   0.138188
 C 0.1813 0.0 0.1915   -0.090456
 N 0.3769 0.8103 0.5965   -0.293069
 N 0.6231 0.8103 0.4035   -0.293069
 N 0.6231 0.1897 0.4035   -0.293069
 N 0.3769 0.1897 0.5965   -0.293069
 N 0.9441 0.0 0.9724   -0.155009
 N 0.0559 0.0 0.0276   -0.154907
 O 0.5678 0.0 0.6801   -0.583505
 O 0.6626 0.0 0.5509   -0.6008
 O 0.1644 0.0 0.5982   -0.591204
 O 0.2912 0.0 0.7457   -0.591304
 O 0.4322 0.0 0.3199   -0.583505
 O 0.3374 0.0 0.4491   -0.6008
 O 0.8356 0.0 0.4018   -0.591204
 O 0.7088 0.0 0.2543   -0.591304
