{'_ref': 'TBD', '_srcid': 'CAKYAQ_clean', 'submitters': [{'name': 'Dalar Nazarian Jeff Camp and David Sholl', 'email': 'dalar@gatech.edu jcamp6@gatech.edu'}], '_method': 'VASP DFT with PBE;DDEC'}
data_InH28(C5O2)4
_symmetry_space_group_name_H-M   'P 1'
_cell_length_a   13.89540000
_cell_length_b   13.89540000
_cell_length_c   17.78700000
_cell_angle_alpha   90.00000000
_cell_angle_beta   90.00000000
_cell_angle_gamma   90.00000000
_symmetry_Int_Tables_number   1
_chemical_formula_structural   InH28(C5O2)4
_chemical_formula_sum   'In4 H112 C80 O32'
_cell_volume   3434.35204481
_cell_formula_units_Z   4
loop_
 _symmetry_equiv_pos_site_id
 _symmetry_equiv_pos_as_xyz
  1  'x, y, z'
loop_
 _atom_site_label
 _atom_site_fract_x
 _atom_site_fract_y
 _atom_site_fract_z
 _atom_site_charge
 In 0.08733 0.08733 0.5   1.441059
 In 0.41267 0.58733 0.25   1.441059
 In 0.91267 0.91267 0.0   1.44106
 In 0.58733 0.41267 0.75   1.44106
 H 0.4 0.1778 0.4279   0.08396
 H 0.3222 0.9 0.1779   0.08396
 H 0.6 0.8222 0.9279   0.08396
 H 0.6778 0.1 0.6779   0.08396
 H 0.9 0.3222 0.8221   0.08396
 H 0.1778 0.4 0.5721   0.08396
 H 0.1 0.6778 0.3221   0.08396
 H 0.8222 0.6 0.0721   0.08396
 H 0.4316 0.1038 0.3655   0.082603
 H 0.3962 0.9316 0.1155   0.082603
 H 0.5684 0.8962 0.8655   0.082603
 H 0.6038 0.0684 0.6155   0.082603
 H 0.9316 0.3962 0.8845   0.082603
 H 0.1038 0.4316 0.6345   0.082603
 H 0.0684 0.6038 0.3845   0.082603
 H 0.8962 0.5684 0.1345   0.082603
 H 0.5061 0.2144 0.3079   0.071493
 H 0.2856 0.0061 0.0579   0.071493
 H 0.4939 0.7856 0.8079   0.071493
 H 0.7144 0.9939 0.5579   0.071493
 H 0.0061 0.2856 0.9421   0.071492
 H 0.2144 0.5061 0.6921   0.071492
 H 0.9939 0.7144 0.4421   0.071492
 H 0.7856 0.4939 0.1921   0.071492
 H 0.4765 0.2877 0.3712   0.082803
 H 0.2123 0.9765 0.1212   0.082803
 H 0.5235 0.7123 0.8712   0.082803
 H 0.7877 0.0235 0.6212   0.082803
 H 0.9765 0.2123 0.8788   0.082803
 H 0.2877 0.4765 0.6288   0.082803
 H 0.0235 0.7877 0.3788   0.082803
 H 0.7123 0.5235 0.1288   0.082803
 H 0.3835 0.2591 0.2305   0.115711
 H 0.2409 0.8835 0.9805   0.115711
 H 0.6165 0.7409 0.7305   0.115711
 H 0.7591 0.1165 0.4805   0.115711
 H 0.8835 0.2409 0.0195   0.115711
 H 0.2591 0.3835 0.7695   0.115711
 H 0.1165 0.7591 0.5195   0.115711
 H 0.7409 0.6165 0.2695   0.115711
 H 0.2887 0.0334 0.296   0.124369
 H 0.4666 0.7887 0.046   0.124369
 H 0.7113 0.9666 0.796   0.124369
 H 0.5334 0.2113 0.546   0.124369
 H 0.7887 0.4666 0.954   0.124369
 H 0.0334 0.2887 0.704   0.124369
 H 0.2113 0.5334 0.454   0.124369
 H 0.9666 0.7113 0.204   0.124369
 H 0.3317 0.1114 0.2419   0.122487
 H 0.3886 0.8317 0.9919   0.122487
 H 0.6683 0.8886 0.7419   0.122487
 H 0.6114 0.1683 0.4919   0.122487
 H 0.8317 0.3886 0.0081   0.122487
 H 0.1114 0.3317 0.7581   0.122487
 H 0.1683 0.6114 0.5081   0.122487
 H 0.8886 0.6683 0.2581   0.122487
 H 0.2203 0.1067 0.2556   0.129346
 H 0.3933 0.7203 0.0056   0.129346
 H 0.7797 0.8933 0.7556   0.129346
 H 0.6067 0.2797 0.5056   0.129346
 H 0.7203 0.3933 0.9944   0.129346
 H 0.1067 0.2203 0.7444   0.129346
 H 0.2797 0.6067 0.4944   0.129346
 H 0.8933 0.7797 0.2444   0.129346
 H 0.202 0.2504 0.2273   0.104409
 H 0.2496 0.702 0.9773   0.104409
 H 0.798 0.7496 0.7273   0.104409
 H 0.7504 0.298 0.4773   0.104409
 H 0.702 0.2496 0.0227   0.104409
 H 0.2504 0.202 0.7727   0.104409
 H 0.298 0.7504 0.5227   0.104409
 H 0.7496 0.798 0.2727   0.104409
 H 0.2022 0.3567 0.2569   0.129478
 H 0.1433 0.7022 0.0069   0.129478
 H 0.7978 0.6433 0.7569   0.129478
 H 0.8567 0.2978 0.5069   0.129478
 H 0.7022 0.1433 0.9931   0.129478
 H 0.3567 0.2022 0.7431   0.129478
 H 0.2978 0.8567 0.4931   0.129478
 H 0.6433 0.7978 0.2431   0.129478
 H 0.1411 0.2779 0.2983   0.131057
 H 0.2221 0.6411 0.0483   0.131056
 H 0.8589 0.7221 0.7983   0.131057
 H 0.7779 0.3589 0.5483   0.131057
 H 0.6411 0.2221 0.9517   0.131057
 H 0.2779 0.1411 0.7017   0.131056
 H 0.3589 0.7779 0.4517   0.131056
 H 0.7221 0.8589 0.2017   0.131057
 H 0.2645 0.4022 0.3598   0.119804
 H 0.0978 0.7645 0.1098   0.119804
 H 0.7355 0.5978 0.8598   0.119804
 H 0.9022 0.2355 0.6098   0.119804
 H 0.7645 0.0978 0.8902   0.119804
 H 0.4022 0.2645 0.6402   0.119804
 H 0.2355 0.9022 0.3902   0.119804
 H 0.5978 0.7355 0.1402   0.119804
 H 0.3143 0.3334 0.4178   0.113779
 H 0.1666 0.8143 0.1678   0.113779
 H 0.6857 0.6666 0.9178   0.113779
 H 0.8334 0.1857 0.6678   0.113779
 H 0.8143 0.1666 0.8322   0.113778
 H 0.3334 0.3143 0.5822   0.113778
 H 0.1857 0.8334 0.3322   0.113778
 H 0.6666 0.6857 0.0822   0.113778
 H 0.2033 0.3256 0.4033   0.130784
 H 0.1744 0.7033 0.1533   0.130784
 H 0.7967 0.6744 0.9033   0.130784
 H 0.8256 0.2967 0.6533   0.130784
 H 0.7033 0.1744 0.8467   0.130784
 H 0.3256 0.2033 0.5967   0.130784
 H 0.2967 0.8256 0.3467   0.130784
 H 0.6744 0.7967 0.0967   0.130784
 C 0.2825 0.2678 0.3201   0.199579
 C 0.2322 0.7825 0.0701   0.199579
 C 0.7175 0.7322 0.8201   0.199579
 C 0.7678 0.2175 0.5701   0.199579
 C 0.7825 0.2322 0.9299   0.199579
 C 0.2678 0.2825 0.6799   0.199579
 C 0.2175 0.7678 0.4299   0.199579
 C 0.7322 0.7175 0.1799   0.199579
 C 0.2923 0.1645 0.3414   -0.009863
 C 0.3355 0.7923 0.0914   -0.009863
 C 0.7077 0.8355 0.8414   -0.009863
 C 0.6645 0.2077 0.5914   -0.009863
 C 0.7923 0.3355 0.9086   -0.009863
 C 0.1645 0.2923 0.6586   -0.009863
 C 0.2077 0.6645 0.4086   -0.009863
 C 0.8355 0.7077 0.1586   -0.009863
 C 0.4007 0.1654 0.3742   -0.159652
 C 0.3346 0.9007 0.1242   -0.159652
 C 0.5993 0.8346 0.8742   -0.159652
 C 0.6654 0.0993 0.6242   -0.159652
 C 0.9007 0.3346 0.8758   -0.159652
 C 0.1654 0.4007 0.6258   -0.159652
 C 0.0993 0.6654 0.3758   -0.159652
 C 0.8346 0.5993 0.1258   -0.159652
 C 0.4521 0.2412 0.3353   -0.101442
 C 0.2588 0.9521 0.0853   -0.101442
 C 0.5479 0.7588 0.8353   -0.101442
 C 0.7412 0.0479 0.5853   -0.101442
 C 0.9521 0.2588 0.9147   -0.101442
 C 0.2412 0.4521 0.6647   -0.101442
 C 0.0479 0.7412 0.4147   -0.101442
 C 0.7588 0.5479 0.1647   -0.101442
 C 0.3812 0.2916 0.2794   -0.211822
 C 0.2084 0.8812 0.0294   -0.211822
 C 0.6188 0.7084 0.7794   -0.211822
 C 0.7916 0.1188 0.5294   -0.211822
 C 0.8812 0.2084 0.9706   -0.211822
 C 0.2916 0.3812 0.7206   -0.211822
 C 0.1188 0.7916 0.4706   -0.211822
 C 0.7084 0.6188 0.2206   -0.211822
 C 0.2165 0.1341 0.4006   0.610746
 C 0.3659 0.7165 0.1506   0.610746
 C 0.7835 0.8659 0.9006   0.610746
 C 0.6341 0.2835 0.6506   0.610746
 C 0.7165 0.3659 0.8494   0.610746
 C 0.1341 0.2165 0.5994   0.610746
 C 0.2835 0.6341 0.3494   0.610746
 C 0.8659 0.7835 0.0994   0.610746
 C 0.2824 0.0984 0.2784   -0.355518
 C 0.4016 0.7824 0.0284   -0.355518
 C 0.7176 0.9016 0.7784   -0.355518
 C 0.5984 0.2176 0.5284   -0.355518
 C 0.7824 0.4016 0.9716   -0.355518
 C 0.0984 0.2824 0.7216   -0.355518
 C 0.2176 0.5984 0.4716   -0.355518
 C 0.9016 0.7176 0.2216   -0.355518
 C 0.1997 0.2901 0.2714   -0.40045
 C 0.2099 0.6997 0.0214   -0.40045
 C 0.8003 0.7099 0.7714   -0.40045
 C 0.7901 0.3003 0.5214   -0.40045
 C 0.6997 0.2099 0.9786   -0.40045
 C 0.2901 0.1997 0.7286   -0.40045
 C 0.3003 0.7901 0.4786   -0.40045
 C 0.7099 0.8003 0.2286   -0.40045
 C 0.2646 0.3385 0.3805   -0.40917
 C 0.1615 0.7646 0.1305   -0.40917
 C 0.7354 0.6615 0.8805   -0.40917
 C 0.8385 0.2354 0.6305   -0.40917
 C 0.7646 0.1615 0.8695   -0.40917
 C 0.3385 0.2646 0.6195   -0.40917
 C 0.2354 0.8385 0.3695   -0.40917
 C 0.6615 0.7354 0.1195   -0.40917
 C 0.4011 0.399 0.2692   0.635588
 C 0.101 0.9011 0.0192   0.635588
 C 0.5989 0.601 0.7692   0.635588
 C 0.899 0.0989 0.5192   0.635588
 C 0.9011 0.101 0.9808   0.635588
 C 0.399 0.4011 0.7308   0.635588
 C 0.0989 0.899 0.4808   0.635588
 C 0.601 0.5989 0.2308   0.635588
 O 0.2451 0.1053 0.4646   -0.540546
 O 0.3947 0.7451 0.2146   -0.540546
 O 0.7549 0.8947 0.9646   -0.540546
 O 0.6053 0.2549 0.7146   -0.540546
 O 0.7451 0.3947 0.7854   -0.540546
 O 0.1053 0.2451 0.5354   -0.540546
 O 0.2549 0.6053 0.2854   -0.540546
 O 0.8947 0.7549 0.0354   -0.540546
 O 0.1322 0.135 0.3852   -0.497517
 O 0.365 0.6322 0.1352   -0.497517
 O 0.8678 0.865 0.8852   -0.497517
 O 0.635 0.3678 0.6352   -0.497517
 O 0.6322 0.365 0.8648   -0.497517
 O 0.135 0.1322 0.6148   -0.497517
 O 0.3678 0.635 0.3648   -0.497517
 O 0.865 0.8678 0.1148   -0.497517
 O 0.451 0.443 0.3169   -0.506979
 O 0.057 0.951 0.0669   -0.506979
 O 0.549 0.557 0.8169   -0.506979
 O 0.943 0.049 0.5669   -0.506979
 O 0.951 0.057 0.9331   -0.506979
 O 0.443 0.451 0.6831   -0.506979
 O 0.049 0.943 0.4331   -0.506979
 O 0.557 0.549 0.1831   -0.506979
 O 0.3655 0.4417 0.2145   -0.515566
 O 0.0583 0.8655 0.9645   -0.515566
 O 0.6345 0.5583 0.7145   -0.515566
 O 0.9417 0.1345 0.4645   -0.515566
 O 0.8655 0.0583 0.0355   -0.515566
 O 0.4417 0.3655 0.7855   -0.515566
 O 0.1345 0.9417 0.5355   -0.515566
 O 0.5583 0.6345 0.2855   -0.515566
