{'_ref': 'TBD', '_srcid': 'CAKYAQ_clean', 'submitters': [{'name': 'Dalar Nazarian Jeff Camp and David Sholl', 'email': 'dalar@gatech.edu jcamp6@gatech.edu'}], '_method': 'VASP DFT with PBE;DDEC'}
data_FeH2C7O5
_symmetry_space_group_name_H-M   'P 1'
_cell_length_a   8.67160000
_cell_length_b   8.67160009
_cell_length_c   10.86500000
_cell_angle_alpha   90.00000000
_cell_angle_beta   90.00000000
_cell_angle_gamma   119.99999964
_symmetry_Int_Tables_number   1
_chemical_formula_structural   FeH2C7O5
_chemical_formula_sum   'Fe3 H6 C21 O15'
_cell_volume   707.552780593
_cell_formula_units_Z   3
loop_
 _symmetry_equiv_pos_site_id
 _symmetry_equiv_pos_as_xyz
  1  'x, y, z'
loop_
 _atom_site_label
 _atom_site_fract_x
 _atom_site_fract_y
 _atom_site_fract_z
 _atom_site_charge
 Fe 0.94182 0.0 0.5   1.272948
 Fe 0.05818 0.05818 0.16667   1.273088
 Fe 0.0 0.94182 0.83333   1.273087
 H 0.3908 0.4882 0.4902   0.149251
 H 0.0974 0.6092 0.15687   0.149256
 H 0.5118 0.9026 0.82353   0.149226
 H 0.9026 0.5118 0.5098   0.14925
 H 0.4882 0.3908 0.84313   0.149256
 H 0.6092 0.0974 0.17647   0.149226
 C 0.6246 0.6852 0.5625   0.259047
 C 0.4651 0.5243 0.5609   -0.185569
 C 0.0606 0.3754 0.22917   0.259139
 C 0.0592 0.5349 0.22757   -0.185672
 C 0.3148 0.9394 0.89583   0.259156
 C 0.4757 0.9408 0.89423   -0.185659
 C 0.9394 0.3148 0.4375   0.259046
 C 0.9408 0.4757 0.4391   -0.185568
 C 0.6852 0.6246 0.77083   0.259139
 C 0.5243 0.4651 0.77243   -0.185672
 C 0.3754 0.0606 0.10417   0.259156
 C 0.5349 0.0592 0.10577   -0.185659
 C 0.7306 0.7306 0.66667   0.147926
 C 0.4164 0.4164 0.66667   -0.038864
 C 0.2453 0.2453 0.66667   0.681562
 C 0.0 0.2694 0.33333   0.147926
 C 0.0 0.5836 0.33333   -0.038864
 C 0.0 0.7547 0.33333   0.681562
 C 0.2694 0.0 0.0   0.147882
 C 0.5836 0.0 0.0   -0.038652
 C 0.7547 0.0 0.0   0.681364
 O 0.6871 0.8075 0.4703   -0.467538
 O 0.1891 0.1664 0.5647   -0.541768
 O 0.1204 0.3129 0.13697   -0.467576
 O 0.9773 0.8109 0.23137   -0.541863
 O 0.1925 0.8796 0.80363   -0.467601
 O 0.8336 0.0227 0.89803   -0.541778
 O 0.8796 0.1925 0.5297   -0.467538
 O 0.0227 0.8336 0.4353   -0.541768
 O 0.8075 0.6871 0.86303   -0.467576
 O 0.1664 0.1891 0.76863   -0.541864
 O 0.3129 0.1204 0.19637   -0.4676
 O 0.8109 0.9773 0.10197   -0.541778
 O 0.8874 0.8874 0.66667   -0.490382
 O 0.0 0.1126 0.33333   -0.490383
 O 0.1126 0.0 0.0   -0.490306
