{'_ref': 'TBD', '_srcid': 'CAKYAQ_clean', 'submitters': [{'name': 'Dalar Nazarian Jeff Camp and David Sholl', 'email': 'dalar@gatech.edu jcamp6@gatech.edu'}], '_method': 'VASP DFT with PBE;DDEC'}
data_Cd3C8N6ClO8
_symmetry_space_group_name_H-M   'P 1'
_cell_length_a   9.31499998
_cell_length_b   13.20000000
_cell_length_c   15.45500000
_cell_angle_alpha   90.00000000
_cell_angle_beta   106.81599811
_cell_angle_gamma   90.00000000
_symmetry_Int_Tables_number   1
_chemical_formula_structural   Cd3C8N6ClO8
_chemical_formula_sum   'Cd12 C32 N24 Cl4 O32'
_cell_volume   1819.05601607
_cell_formula_units_Z   4
loop_
 _symmetry_equiv_pos_site_id
 _symmetry_equiv_pos_as_xyz
  1  'x, y, z'
loop_
 _atom_site_label
 _atom_site_fract_x
 _atom_site_fract_y
 _atom_site_fract_z
 _atom_site_charge
 Cd 0.57147 0.87376 0.11081   1.007375
 Cd 0.64416 0.39874 0.43875   0.975341
 Cd 0.74499 0.58403 0.25685   1.011904
 Cd 0.92853 0.37376 0.88919   1.007375
 Cd 0.85584 0.89874 0.56125   0.975342
 Cd 0.75501 0.08403 0.74315   1.011904
 Cd 0.42853 0.12624 0.88919   1.007374
 Cd 0.35584 0.60126 0.56125   0.975341
 Cd 0.25501 0.41597 0.74315   1.011904
 Cd 0.07147 0.62624 0.11081   1.007374
 Cd 0.14416 0.10126 0.43875   0.975341
 Cd 0.24499 0.91597 0.25685   1.011904
 C 0.7823 0.8921 0.9792   0.031734
 C 0.4512 0.7062 0.4063   0.014299
 C 0.8408 0.8032 0.0376   0.619455
 C 0.9678 0.9268 0.8835   0.562152
 C 0.5395 0.7746 0.2671   0.642536
 C 0.5155 0.7032 0.3361   -0.00292
 C 0.8351 0.9404 0.9153   0.000225
 C 0.3816 0.7885 0.4481   0.620396
 C 0.7177 0.3921 0.0208   0.031734
 C 0.0488 0.2062 0.5937   0.014299
 C 0.6592 0.3032 0.9624   0.619455
 C 0.5322 0.4268 0.1165   0.562152
 C 0.9605 0.2746 0.7329   0.642536
 C 0.9845 0.2032 0.6639   -0.00292
 C 0.6649 0.4404 0.0847   0.000225
 C 0.1184 0.2885 0.5519   0.620396
 C 0.2177 0.1079 0.0208   0.031734
 C 0.5488 0.2938 0.5937   0.014299
 C 0.1592 0.1968 0.9624   0.619455
 C 0.0322 0.0732 0.1165   0.562152
 C 0.4605 0.2254 0.7329   0.642536
 C 0.4845 0.2968 0.6639   -0.00292
 C 0.1649 0.0596 0.0847   0.000225
 C 0.6184 0.2115 0.5519   0.620396
 C 0.2823 0.6079 0.9792   0.031734
 C 0.9512 0.7938 0.4063   0.014299
 C 0.3408 0.6968 0.0376   0.619455
 C 0.4678 0.5732 0.8835   0.562152
 C 0.0395 0.7254 0.2671   0.642536
 C 0.0155 0.7968 0.3361   -0.00292
 C 0.3351 0.5596 0.9153   0.000225
 C 0.8816 0.7115 0.4481   0.620396
 N 0.7383 0.0164 0.8804   -0.190259
 N 0.6307 0.0143 0.9214   -0.045684
 N 0.6566 0.9396 0.9833   -0.243537
 N 0.5405 0.5565 0.401   -0.058842
 N 0.5705 0.6088 0.3355   -0.176428
 N 0.4687 0.6142 0.4447   -0.245217
 N 0.7617 0.5164 0.1196   -0.190259
 N 0.8693 0.5143 0.0786   -0.045684
 N 0.8434 0.4396 0.0167   -0.243537
 N 0.9595 0.0565 0.599   -0.058842
 N 0.9295 0.1088 0.6645   -0.176428
 N 0.0313 0.1142 0.5553   -0.245217
 N 0.2617 0.9836 0.1196   -0.190259
 N 0.3693 0.9857 0.0786   -0.045684
 N 0.3434 0.0604 0.0167   -0.243537
 N 0.4595 0.4435 0.599   -0.058842
 N 0.4295 0.3912 0.6645   -0.176428
 N 0.5313 0.3858 0.5553   -0.245217
 N 0.2383 0.4836 0.8804   -0.190259
 N 0.1307 0.4857 0.9214   -0.045684
 N 0.1566 0.5604 0.9833   -0.243537
 N 0.0405 0.9435 0.401   -0.058842
 N 0.0705 0.8912 0.3355   -0.176428
 N 0.9687 0.8858 0.4447   -0.245217
 Cl 0.80542 0.40133 0.32989   -0.46971
 Cl 0.69458 0.90133 0.67011   -0.46971
 Cl 0.19458 0.59867 0.67011   -0.46971
 Cl 0.30542 0.09867 0.32989   -0.46971
 O 0.6305 0.746 0.2252   -0.560599
 O 0.4724 0.8575 0.2507   -0.57364
 O 0.0551 0.8501 0.914   -0.290555
 O 0.9497 0.7557 0.0218   -0.466744
 O 0.3893 0.8774 0.4207   -0.56005
 O 0.7811 0.7791 0.0964   -0.522529
 O 0.9955 0.9875 0.8307   -0.510277
 O 0.3216 0.7632 0.5074   -0.568427
 O 0.8695 0.246 0.7748   -0.560599
 O 0.0276 0.3575 0.7493   -0.57364
 O 0.4449 0.3501 0.086   -0.290555
 O 0.5503 0.2557 0.9782   -0.466744
 O 0.1107 0.3774 0.5793   -0.56005
 O 0.7189 0.2791 0.9036   -0.522529
 O 0.5045 0.4875 0.1693   -0.510277
 O 0.1784 0.2632 0.4926   -0.568427
 O 0.3695 0.254 0.7748   -0.5606
 O 0.5276 0.1425 0.7493   -0.57364
 O 0.9449 0.1499 0.086   -0.290555
 O 0.0503 0.2443 0.9782   -0.466744
 O 0.6107 0.1226 0.5793   -0.560049
 O 0.2189 0.2209 0.9036   -0.522529
 O 0.0045 0.0125 0.1693   -0.510277
 O 0.6784 0.2368 0.4926   -0.568427
 O 0.1305 0.754 0.2252   -0.5606
 O 0.9724 0.6425 0.2507   -0.57364
 O 0.5551 0.6499 0.914   -0.290555
 O 0.4497 0.7443 0.0218   -0.466744
 O 0.8893 0.6226 0.4207   -0.560049
 O 0.2811 0.7209 0.0964   -0.522529
 O 0.4955 0.5125 0.8307   -0.510277
 O 0.8216 0.7368 0.5074   -0.568427
