{'_ref': 'TBD', '_srcid': 'CAKYAQ_clean', 'submitters': [{'name': 'Dalar Nazarian Jeff Camp and David Sholl', 'email': 'dalar@gatech.edu jcamp6@gatech.edu'}], '_method': 'VASP DFT with PBE;DDEC'}
data_CdH36C48N12ClO4
_symmetry_space_group_name_H-M   'P 1'
_cell_length_a   15.87630000
_cell_length_b   15.87630000
_cell_length_c   21.50700000
_cell_angle_alpha   90.00000000
_cell_angle_beta   90.00000000
_cell_angle_gamma   90.00000000
_symmetry_Int_Tables_number   1
_chemical_formula_structural   CdH36C48N12ClO4
_chemical_formula_sum   'Cd4 H144 C192 N48 Cl4 O16'
_cell_volume   5420.98778465
_cell_formula_units_Z   4
loop_
 _symmetry_equiv_pos_site_id
 _symmetry_equiv_pos_as_xyz
  1  'x, y, z'
loop_
 _atom_site_label
 _atom_site_fract_x
 _atom_site_fract_y
 _atom_site_fract_z
 _atom_site_charge
 Cd 0.4411 0.4411 0.0   0.787465
 Cd 0.5589 0.5589 0.5   0.787465
 Cd 0.0589 0.9411 0.25   0.787465
 Cd 0.9411 0.0589 0.75   0.787465
 H 0.9867 0.7683 0.3266   0.06282
 H 0.8931 0.655 0.3172   0.13066
 H 0.8506 0.7292 0.1398   0.119336
 H 0.9465 0.8366 0.1547   0.05265
 H 0.8361 0.5367 0.2906   0.104988
 H 0.7325 0.4329 0.2775   0.098078
 H 0.6227 0.4543 0.2091   0.098956
 H 0.7242 0.6749 0.1553   0.087009
 H 0.505 0.6996 0.956   0.087017
 H 0.4124 0.7985 0.9131   0.09318
 H 0.2986 0.8463 0.9668   0.073867
 H 0.3623 0.6972 0.1125   0.108064
 H 0.214 0.9112 0.0317   0.126947
 H 0.111 0.9615 0.0979   0.064362
 H 0.1422 0.7711 0.2112   0.070286
 H 0.2429 0.7123 0.1478   0.130791
 H 0.5973 0.7601 0.0969   0.309739
 H 0.5313 0.754 0.1457   0.334946
 H 0.0133 0.2317 0.8266   0.06282
 H 0.1069 0.345 0.8172   0.13066
 H 0.1494 0.2708 0.6398   0.119336
 H 0.0535 0.1634 0.6547   0.05265
 H 0.1639 0.4633 0.7906   0.104988
 H 0.2675 0.5671 0.7775   0.098078
 H 0.3773 0.5457 0.7091   0.098956
 H 0.2758 0.3251 0.6553   0.087009
 H 0.495 0.3004 0.456   0.087017
 H 0.5876 0.2015 0.4131   0.09318
 H 0.7014 0.1537 0.4668   0.073867
 H 0.6377 0.3028 0.6125   0.108064
 H 0.786 0.0888 0.5317   0.126947
 H 0.889 0.0385 0.5979   0.064362
 H 0.8578 0.2289 0.7112   0.070286
 H 0.7571 0.2877 0.6478   0.130791
 H 0.4027 0.2399 0.5969   0.309739
 H 0.4687 0.246 0.6457   0.334946
 H 0.7317 0.4867 0.5766   0.06282
 H 0.845 0.3931 0.5672   0.13066
 H 0.7708 0.3506 0.3898   0.119338
 H 0.6634 0.4465 0.4047   0.05265
 H 0.9633 0.3361 0.5406   0.104988
 H 0.0671 0.2325 0.5275   0.098081
 H 0.0457 0.1227 0.4591   0.098956
 H 0.8251 0.2242 0.4053   0.087009
 H 0.8004 0.005 0.206   0.087017
 H 0.7015 0.9124 0.1631   0.09318
 H 0.6537 0.7986 0.2168   0.073867
 H 0.8028 0.8623 0.3625   0.108064
 H 0.5888 0.714 0.2817   0.126947
 H 0.5385 0.611 0.3479   0.064362
 H 0.7289 0.6422 0.4612   0.070286
 H 0.7877 0.7429 0.3978   0.130791
 H 0.7399 0.0973 0.3469   0.309739
 H 0.746 0.0313 0.3957   0.334945
 H 0.2683 0.5133 0.0766   0.06282
 H 0.155 0.6069 0.0672   0.13066
 H 0.2292 0.6494 0.8898   0.119338
 H 0.3366 0.5535 0.9047   0.05265
 H 0.0367 0.6639 0.0406   0.104988
 H 0.9329 0.7675 0.0275   0.098081
 H 0.9543 0.8773 0.9591   0.098956
 H 0.1749 0.7758 0.9053   0.087009
 H 0.1996 0.995 0.706   0.087017
 H 0.2985 0.0876 0.6631   0.09318
 H 0.3463 0.2014 0.7168   0.073867
 H 0.1972 0.1377 0.8625   0.108064
 H 0.4112 0.286 0.7817   0.126947
 H 0.4615 0.389 0.8479   0.064362
 H 0.2711 0.3578 0.9612   0.070286
 H 0.2123 0.2571 0.8978   0.130791
 H 0.2601 0.9027 0.8469   0.309739
 H 0.254 0.9687 0.8957   0.334945
 H 0.5133 0.2683 0.9234   0.06282
 H 0.6069 0.155 0.9328   0.13066
 H 0.6494 0.2292 0.1102   0.119336
 H 0.5535 0.3366 0.0953   0.05265
 H 0.6639 0.0367 0.9594   0.104988
 H 0.7675 0.9329 0.9725   0.098081
 H 0.8773 0.9543 0.0409   0.098956
 H 0.7758 0.1749 0.0947   0.08701
 H 0.995 0.1996 0.294   0.087018
 H 0.0876 0.2985 0.3369   0.09318
 H 0.2014 0.3463 0.2832   0.073867
 H 0.1377 0.1972 0.1375   0.108064
 H 0.286 0.4112 0.2183   0.126947
 H 0.389 0.4615 0.1521   0.064362
 H 0.3578 0.2711 0.0388   0.070286
 H 0.2571 0.2123 0.1022   0.130791
 H 0.9027 0.2601 0.1531   0.309742
 H 0.9687 0.254 0.1043   0.334946
 H 0.4867 0.7317 0.4234   0.06282
 H 0.3931 0.845 0.4328   0.13066
 H 0.3506 0.7708 0.6102   0.119336
 H 0.4465 0.6634 0.5953   0.05265
 H 0.3361 0.9633 0.4594   0.104988
 H 0.2325 0.0671 0.4725   0.098081
 H 0.1227 0.0457 0.5409   0.098956
 H 0.2242 0.8251 0.5947   0.08701
 H 0.005 0.8004 0.794   0.087018
 H 0.9124 0.7015 0.8369   0.09318
 H 0.7986 0.6537 0.7832   0.073867
 H 0.8623 0.8028 0.6375   0.108064
 H 0.714 0.5888 0.7183   0.126947
 H 0.611 0.5385 0.6521   0.064362
 H 0.6422 0.7289 0.5388   0.070286
 H 0.7429 0.7877 0.6022   0.130791
 H 0.0973 0.7399 0.6531   0.309742
 H 0.0313 0.746 0.6043   0.334946
 H 0.7683 0.9867 0.6734   0.06282
 H 0.655 0.8931 0.6828   0.13066
 H 0.7292 0.8506 0.8602   0.119338
 H 0.8366 0.9465 0.8453   0.052649
 H 0.5367 0.8361 0.7094   0.104988
 H 0.4329 0.7325 0.7225   0.098083
 H 0.4543 0.6227 0.7909   0.098955
 H 0.6749 0.7242 0.8447   0.08701
 H 0.6996 0.505 0.044   0.087018
 H 0.7985 0.4124 0.0869   0.093179
 H 0.8463 0.2986 0.0332   0.073867
 H 0.6972 0.3623 0.8875   0.108064
 H 0.9112 0.214 0.9683   0.126947
 H 0.9615 0.111 0.9021   0.064362
 H 0.7711 0.1422 0.7888   0.070286
 H 0.7123 0.2429 0.8522   0.130791
 H 0.7601 0.5973 0.9031   0.309742
 H 0.754 0.5313 0.8543   0.334945
 H 0.2317 0.0133 0.1734   0.06282
 H 0.345 0.1069 0.1828   0.13066
 H 0.2708 0.1494 0.3602   0.119338
 H 0.1634 0.0535 0.3453   0.052649
 H 0.4633 0.1639 0.2094   0.104988
 H 0.5671 0.2675 0.2225   0.098083
 H 0.5457 0.3773 0.2909   0.098955
 H 0.3251 0.2758 0.3447   0.08701
 H 0.3004 0.495 0.544   0.087018
 H 0.2015 0.5876 0.5869   0.093179
 H 0.1537 0.7014 0.5332   0.073867
 H 0.3028 0.6377 0.3875   0.108064
 H 0.0888 0.786 0.4683   0.126947
 H 0.0385 0.889 0.4021   0.064362
 H 0.2289 0.8578 0.2888   0.070286
 H 0.2877 0.7571 0.3522   0.130791
 H 0.2399 0.4027 0.4031   0.309742
 H 0.246 0.4687 0.3543   0.334945
 C 0.9584 0.7602 0.2882   0.17611
 C 0.9016 0.6922 0.2832   -0.214128
 C 0.8586 0.6806 0.2282   0.096437
 C 0.8772 0.7359 0.179   -0.225288
 C 0.9345 0.7998 0.1884   0.166763
 C 0.7927 0.6143 0.2219   0.020756
 C 0.7933 0.5436 0.2601   -0.124467
 C 0.7304 0.483 0.2535   -0.085727
 C 0.666 0.4953 0.2125   -0.100298
 C 0.6628 0.5664 0.1759   0.002546
 C 0.7261 0.6258 0.1805   -0.129303
 C 0.5921 0.5754 0.1317   0.225052
 C 0.4972 0.6259 0.0696   0.227064
 C 0.4416 0.689 0.0393   -0.053911
 C 0.4577 0.719 0.979   -0.126589
 C 0.4024 0.7778 0.9539   -0.085205
 C 0.3351 0.8064 0.9856   -0.091696
 C 0.3179 0.7775 0.0471   0.01687
 C 0.3726 0.7183 0.0719   -0.122953
 C 0.2462 0.8084 0.0839   0.084534
 C 0.2019 0.8818 0.0691   -0.205502
 C 0.1402 0.9115 0.1091   0.155468
 C 0.1582 0.8005 0.1745   0.129629
 C 0.2192 0.7654 0.1374   -0.193894
 C 0.0416 0.2398 0.7882   0.17611
 C 0.0984 0.3078 0.7832   -0.214128
 C 0.1414 0.3194 0.7282   0.096437
 C 0.1228 0.2641 0.679   -0.225288
 C 0.0655 0.2002 0.6884   0.166763
 C 0.2073 0.3857 0.7219   0.020756
 C 0.2067 0.4564 0.7601   -0.124467
 C 0.2696 0.517 0.7535   -0.085727
 C 0.334 0.5047 0.7125   -0.100298
 C 0.3372 0.4336 0.6759   0.002546
 C 0.2739 0.3742 0.6805   -0.129303
 C 0.4079 0.4246 0.6317   0.225052
 C 0.5028 0.3741 0.5696   0.227064
 C 0.5584 0.311 0.5393   -0.053911
 C 0.5423 0.281 0.479   -0.126589
 C 0.5976 0.2222 0.4539   -0.085205
 C 0.6649 0.1936 0.4856   -0.091696
 C 0.6821 0.2225 0.5471   0.01687
 C 0.6274 0.2817 0.5719   -0.122953
 C 0.7538 0.1916 0.5839   0.084534
 C 0.7981 0.1182 0.5691   -0.205502
 C 0.8598 0.0885 0.6091   0.155468
 C 0.8418 0.1995 0.6745   0.129629
 C 0.7808 0.2346 0.6374   -0.193894
 C 0.7398 0.4584 0.5382   0.17611
 C 0.8078 0.4016 0.5332   -0.214128
 C 0.8194 0.3586 0.4782   0.096437
 C 0.7641 0.3772 0.429   -0.225288
 C 0.7002 0.4345 0.4384   0.166764
 C 0.8857 0.2927 0.4719   0.020756
 C 0.9564 0.2933 0.5101   -0.124467
 C 0.017 0.2304 0.5035   -0.085728
 C 0.0047 0.166 0.4625   -0.100298
 C 0.9336 0.1628 0.4259   0.002546
 C 0.8742 0.2261 0.4305   -0.129303
 C 0.9246 0.0921 0.3817   0.225052
 C 0.8741 0.9972 0.3196   0.227064
 C 0.811 0.9416 0.2893   -0.053911
 C 0.781 0.9577 0.229   -0.126589
 C 0.7222 0.9024 0.2039   -0.085205
 C 0.6936 0.8351 0.2356   -0.091696
 C 0.7225 0.8179 0.2971   0.01687
 C 0.7817 0.8726 0.3219   -0.122953
 C 0.6916 0.7462 0.3339   0.084534
 C 0.6182 0.7019 0.3191   -0.205502
 C 0.5885 0.6402 0.3591   0.155468
 C 0.6995 0.6582 0.4245   0.129629
 C 0.7346 0.7192 0.3874   -0.193894
 C 0.2602 0.5416 0.0382   0.17611
 C 0.1922 0.5984 0.0332   -0.214128
 C 0.1806 0.6414 0.9782   0.096437
 C 0.2359 0.6228 0.929   -0.225288
 C 0.2998 0.5655 0.9384   0.166764
 C 0.1143 0.7073 0.9719   0.020756
 C 0.0436 0.7067 0.0101   -0.124467
 C 0.983 0.7696 0.0035   -0.085728
 C 0.9953 0.834 0.9625   -0.100298
 C 0.0664 0.8372 0.9259   0.002546
 C 0.1258 0.7739 0.9305   -0.129303
 C 0.0754 0.9079 0.8817   0.225052
 C 0.1259 0.0028 0.8196   0.227064
 C 0.189 0.0584 0.7893   -0.053911
 C 0.219 0.0423 0.729   -0.126589
 C 0.2778 0.0976 0.7039   -0.085205
 C 0.3064 0.1649 0.7356   -0.091696
 C 0.2775 0.1821 0.7971   0.01687
 C 0.2183 0.1274 0.8219   -0.122953
 C 0.3084 0.2538 0.8339   0.084534
 C 0.3818 0.2981 0.8191   -0.205502
 C 0.4115 0.3598 0.8591   0.155468
 C 0.3005 0.3418 0.9245   0.129629
 C 0.2654 0.2808 0.8874   -0.193894
 C 0.5416 0.2602 0.9618   0.17611
 C 0.5984 0.1922 0.9668   -0.214128
 C 0.6414 0.1806 0.0218   0.096437
 C 0.6228 0.2359 0.071   -0.225288
 C 0.5655 0.2998 0.0616   0.166763
 C 0.7073 0.1143 0.0281   0.020756
 C 0.7067 0.0436 0.9899   -0.124467
 C 0.7696 0.983 0.9965   -0.085728
 C 0.834 0.9953 0.0375   -0.100298
 C 0.8372 0.0664 0.0741   0.002546
 C 0.7739 0.1258 0.0695   -0.129303
 C 0.9079 0.0754 0.1183   0.225052
 C 0.0028 0.1259 0.1804   0.227064
 C 0.0584 0.189 0.2107   -0.053911
 C 0.0423 0.219 0.271   -0.12659
 C 0.0976 0.2778 0.2961   -0.085205
 C 0.1649 0.3064 0.2644   -0.091696
 C 0.1821 0.2775 0.2029   0.01687
 C 0.1274 0.2183 0.1781   -0.122953
 C 0.2538 0.3084 0.1661   0.084534
 C 0.2981 0.3818 0.1809   -0.205502
 C 0.3598 0.4115 0.1409   0.155468
 C 0.3418 0.3005 0.0755   0.129629
 C 0.2808 0.2654 0.1126   -0.193894
 C 0.4584 0.7398 0.4618   0.17611
 C 0.4016 0.8078 0.4668   -0.214128
 C 0.3586 0.8194 0.5218   0.096437
 C 0.3772 0.7641 0.571   -0.225288
 C 0.4345 0.7002 0.5616   0.166763
 C 0.2927 0.8857 0.5281   0.020756
 C 0.2933 0.9564 0.4899   -0.124467
 C 0.2304 0.017 0.4965   -0.085728
 C 0.166 0.0047 0.5375   -0.100298
 C 0.1628 0.9336 0.5741   0.002546
 C 0.2261 0.8742 0.5695   -0.129303
 C 0.0921 0.9246 0.6183   0.225052
 C 0.9972 0.8741 0.6804   0.227064
 C 0.9416 0.811 0.7107   -0.053911
 C 0.9577 0.781 0.771   -0.12659
 C 0.9024 0.7222 0.7961   -0.085205
 C 0.8351 0.6936 0.7644   -0.091696
 C 0.8179 0.7225 0.7029   0.01687
 C 0.8726 0.7817 0.6781   -0.122953
 C 0.7462 0.6916 0.6661   0.084534
 C 0.7019 0.6182 0.6809   -0.205502
 C 0.6402 0.5885 0.6409   0.155468
 C 0.6582 0.6995 0.5755   0.129629
 C 0.7192 0.7346 0.6126   -0.193894
 C 0.7602 0.9584 0.7118   0.17611
 C 0.6922 0.9016 0.7168   -0.214128
 C 0.6806 0.8586 0.7718   0.096437
 C 0.7359 0.8772 0.821   -0.225288
 C 0.7998 0.9345 0.8116   0.166764
 C 0.6143 0.7927 0.7781   0.020756
 C 0.5436 0.7933 0.7399   -0.124467
 C 0.483 0.7304 0.7465   -0.085729
 C 0.4953 0.666 0.7875   -0.100298
 C 0.5664 0.6628 0.8241   0.002546
 C 0.6258 0.7261 0.8195   -0.129303
 C 0.5754 0.5921 0.8683   0.225052
 C 0.6259 0.4972 0.9304   0.227064
 C 0.689 0.4416 0.9607   -0.053911
 C 0.719 0.4577 0.021   -0.126589
 C 0.7778 0.4024 0.0461   -0.085205
 C 0.8064 0.3351 0.0144   -0.091696
 C 0.7775 0.3179 0.9529   0.01687
 C 0.7183 0.3726 0.9281   -0.122953
 C 0.8084 0.2462 0.9161   0.084534
 C 0.8818 0.2019 0.9309   -0.205502
 C 0.9115 0.1402 0.8909   0.155468
 C 0.8005 0.1582 0.8255   0.129629
 C 0.7654 0.2192 0.8626   -0.193894
 C 0.2398 0.0416 0.2118   0.17611
 C 0.3078 0.0984 0.2168   -0.214128
 C 0.3194 0.1414 0.2718   0.096437
 C 0.2641 0.1228 0.321   -0.225288
 C 0.2002 0.0655 0.3116   0.166764
 C 0.3857 0.2073 0.2781   0.020756
 C 0.4564 0.2067 0.2399   -0.124467
 C 0.517 0.2696 0.2465   -0.085729
 C 0.5047 0.334 0.2875   -0.100298
 C 0.4336 0.3372 0.3241   0.002546
 C 0.3742 0.2739 0.3195   -0.129303
 C 0.4246 0.4079 0.3683   0.225052
 C 0.3741 0.5028 0.4304   0.227064
 C 0.311 0.5584 0.4607   -0.053911
 C 0.281 0.5423 0.521   -0.126589
 C 0.2222 0.5976 0.5461   -0.085205
 C 0.1936 0.6649 0.5144   -0.091696
 C 0.2225 0.6821 0.4529   0.01687
 C 0.2817 0.6274 0.4281   -0.122953
 C 0.1916 0.7538 0.4161   0.084534
 C 0.1182 0.7981 0.4309   -0.205502
 C 0.0885 0.8598 0.3909   0.155468
 C 0.1995 0.8418 0.3255   0.129629
 C 0.2346 0.7808 0.3626   -0.193894
 N 0.5537 0.5115 0.1056   -0.298236
 N 0.4929 0.5435 0.0672   -0.214194
 N 0.5585 0.6473 0.11   0.10371
 N 0.5783 0.7293 0.1298   -0.560078
 N 0.9742 0.8127 0.2426   -0.36217
 N 0.1196 0.8741 0.1621   -0.359322
 N 0.4463 0.4885 0.6056   -0.298236
 N 0.5071 0.4565 0.5672   -0.214194
 N 0.4415 0.3527 0.61   0.10371
 N 0.4217 0.2707 0.6298   -0.560078
 N 0.0258 0.1873 0.7426   -0.36217
 N 0.8804 0.1259 0.6621   -0.359322
 N 0.9885 0.0537 0.3556   -0.298236
 N 0.9565 0.9929 0.3172   -0.214194
 N 0.8527 0.0585 0.36   0.10371
 N 0.7707 0.0783 0.3798   -0.560078
 N 0.6873 0.4742 0.4926   -0.36217
 N 0.6259 0.6196 0.4121   -0.359322
 N 0.0115 0.9463 0.8556   -0.298236
 N 0.0435 0.0071 0.8172   -0.214194
 N 0.1473 0.9415 0.86   0.10371
 N 0.2293 0.9217 0.8798   -0.560078
 N 0.3127 0.5258 0.9926   -0.36217
 N 0.3741 0.3804 0.9121   -0.359322
 N 0.9463 0.0115 0.1444   -0.298237
 N 0.0071 0.0435 0.1828   -0.214194
 N 0.9415 0.1473 0.14   0.10371
 N 0.9217 0.2293 0.1202   -0.560078
 N 0.5258 0.3127 0.0074   -0.36217
 N 0.3804 0.3741 0.0879   -0.359322
 N 0.0537 0.9885 0.6444   -0.298237
 N 0.9929 0.9565 0.6828   -0.214194
 N 0.0585 0.8527 0.64   0.10371
 N 0.0783 0.7707 0.6202   -0.560078
 N 0.4742 0.6873 0.5074   -0.36217
 N 0.6196 0.6259 0.5879   -0.359322
 N 0.5115 0.5537 0.8944   -0.298237
 N 0.5435 0.4929 0.9328   -0.214194
 N 0.6473 0.5585 0.89   0.10371
 N 0.7293 0.5783 0.8702   -0.560078
 N 0.8127 0.9742 0.7574   -0.36217
 N 0.8741 0.1196 0.8379   -0.359322
 N 0.4885 0.4463 0.3944   -0.298237
 N 0.4565 0.5071 0.4328   -0.214194
 N 0.3527 0.4415 0.39   0.10371
 N 0.2707 0.4217 0.3702   -0.560078
 N 0.1873 0.0258 0.2574   -0.36217
 N 0.1259 0.8804 0.3379   -0.359322
 Cl 0.6186 0.3814 0.75   1.665801
 Cl 0.3814 0.6186 0.25   1.665801
 Cl 0.1186 0.1186 0.0   1.665801
 Cl 0.8814 0.8814 0.5   1.665801
 O 0.614 0.3158 0.7871   -0.652207
 O 0.65 0.4417 0.7862   -0.580103
 O 0.6842 0.386 0.7129   -0.652207
 O 0.5583 0.35 0.7138   -0.580103
 O 0.386 0.6842 0.2871   -0.652207
 O 0.35 0.5583 0.2862   -0.580103
 O 0.3158 0.614 0.2129   -0.652207
 O 0.4417 0.65 0.2138   -0.580103
 O 0.1842 0.114 0.0371   -0.652207
 O 0.0583 0.15 0.0362   -0.580103
 O 0.114 0.1842 0.9629   -0.652207
 O 0.15 0.0583 0.9638   -0.580103
 O 0.8158 0.886 0.5371   -0.652207
 O 0.9417 0.85 0.5362   -0.580103
 O 0.886 0.8158 0.4629   -0.652207
 O 0.85 0.9417 0.4638   -0.580103
