{'_ref': 'TBD', '_srcid': 'CAKYAQ_clean', 'submitters': [{'name': 'Dalar Nazarian Jeff Camp and David Sholl', 'email': 'dalar@gatech.edu jcamp6@gatech.edu'}], '_method': 'VASP DFT with PBE;DDEC'}
data_Cu5H48C64(NO2)8
_symmetry_space_group_name_H-M   'P 1'
_cell_length_a   13.42079988
_cell_length_b   13.42080031
_cell_length_c   22.80270000
_cell_angle_alpha   101.93799867
_cell_angle_beta   101.93799905
_cell_angle_gamma   107.28100226
_symmetry_Int_Tables_number   1
_chemical_formula_structural   Cu5H48C64(NO2)8
_chemical_formula_sum   'Cu10 H96 C128 N16 O32'
_cell_volume   3675.30974684
_cell_formula_units_Z   2
loop_
 _symmetry_equiv_pos_site_id
 _symmetry_equiv_pos_as_xyz
  1  'x, y, z'
loop_
 _atom_site_label
 _atom_site_fract_x
 _atom_site_fract_y
 _atom_site_fract_z
 _atom_site_charge
 Cu 0.46775 0.19605 0.09644   0.829284
 Cu 0.62869 0.40039 0.09644   0.830265
 Cu 0.30395 0.03225 0.40356   0.829285
 Cu 0.09961 0.87131 0.40356   0.830265
 Cu 0.53225 0.80395 0.90356   0.829284
 Cu 0.37131 0.59961 0.90356   0.830265
 Cu 0.69605 0.96775 0.59644   0.829285
 Cu 0.90039 0.12869 0.59644   0.830265
 Cu 0.625 0.875 0.25   0.41536
 Cu 0.375 0.125 0.75   0.41536
 H 0.2786 0.7882 0.0474   0.115987
 H 0.4189 0.9845 0.0532   0.104357
 H 0.2304 0.8518 0.1278   0.11758
 H 0.1476 0.9378 0.1888   0.086422
 H 0.179 0.1192 0.204   0.11922
 H 0.3027 0.2151 0.163   0.070772
 H 0.4316 0.4762 0.2422   0.118429
 H 0.6139 0.6445 0.2462   0.109881
 H 0.4354 0.57 0.338   0.123287
 H 0.4068 0.692 0.4164   0.08465
 H 0.5043 0.8783 0.438   0.136538
 H 0.5951 0.9251 0.3784   0.038533
 H 0.7688 0.7592 0.0474   0.117363
 H 0.6343 0.5687 0.0532   0.102662
 H 0.8974 0.776 0.1278   0.117299
 H 0.0412 0.751 0.1888   0.086716
 H 0.025 0.5848 0.204   0.119301
 H 0.8603 0.4479 0.163   0.072247
 H 0.8106 0.266 0.2422   0.117831
 H 0.6323 0.1017 0.2462   0.110317
 H 0.9026 0.268 0.338   0.124614
 H 0.0096 0.2244 0.4164   0.085468
 H 0.9337 0.0597 0.438   0.135299
 H 0.7833 0.9533 0.3784   0.037514
 H 0.7118 0.2214 0.4526   0.115987
 H 0.5155 0.0811 0.4468   0.104358
 H 0.6482 0.2696 0.3722   0.117579
 H 0.5622 0.3524 0.3112   0.086423
 H 0.3808 0.321 0.296   0.119214
 H 0.2849 0.1973 0.337   0.070771
 H 0.0238 0.0684 0.2578   0.118427
 H 0.8555 0.8861 0.2538   0.109881
 H 0.93 0.0646 0.162   0.123285
 H 0.808 0.0932 0.0836   0.084649
 H 0.6217 0.9957 0.062   0.136538
 H 0.5749 0.9049 0.1216   0.038533
 H 0.7408 0.7312 0.4526   0.117363
 H 0.9313 0.8657 0.4468   0.102662
 H 0.724 0.6026 0.3722   0.117298
 H 0.749 0.4588 0.3112   0.086716
 H 0.9152 0.475 0.296   0.119295
 H 0.0521 0.6397 0.337   0.072246
 H 0.234 0.6894 0.2578   0.11783
 H 0.3983 0.8677 0.2538   0.110316
 H 0.232 0.5974 0.162   0.124611
 H 0.2756 0.4904 0.0836   0.085468
 H 0.4403 0.5663 0.062   0.135299
 H 0.5467 0.7167 0.1216   0.037514
 H 0.7214 0.2118 0.9526   0.115987
 H 0.5811 0.0155 0.9468   0.104357
 H 0.7696 0.1482 0.8722   0.11758
 H 0.8524 0.0622 0.8112   0.086422
 H 0.821 0.8808 0.796   0.11922
 H 0.6973 0.7849 0.837   0.070772
 H 0.5684 0.5238 0.7578   0.118429
 H 0.3861 0.3555 0.7538   0.109881
 H 0.5646 0.43 0.662   0.123287
 H 0.5932 0.308 0.5836   0.08465
 H 0.4957 0.1217 0.562   0.136538
 H 0.4049 0.0749 0.6216   0.038533
 H 0.2312 0.2408 0.9526   0.117362
 H 0.3657 0.4313 0.9468   0.102662
 H 0.1026 0.224 0.8722   0.117299
 H 0.9588 0.249 0.8112   0.086716
 H 0.975 0.4152 0.796   0.119301
 H 0.1397 0.5521 0.837   0.072247
 H 0.1894 0.734 0.7578   0.117831
 H 0.3677 0.8983 0.7538   0.110317
 H 0.0974 0.732 0.662   0.124614
 H 0.9904 0.7756 0.5836   0.085468
 H 0.0663 0.9403 0.562   0.135299
 H 0.2167 0.0467 0.6216   0.037514
 H 0.2882 0.7786 0.5474   0.115987
 H 0.4845 0.9189 0.5532   0.104358
 H 0.3518 0.7304 0.6278   0.117579
 H 0.4378 0.6476 0.6888   0.086423
 H 0.6192 0.679 0.704   0.119214
 H 0.7151 0.8027 0.663   0.070771
 H 0.9762 0.9316 0.7422   0.118427
 H 0.1445 0.1139 0.7462   0.109881
 H 0.07 0.9354 0.838   0.123285
 H 0.192 0.9068 0.9164   0.084649
 H 0.3783 0.0043 0.938   0.136538
 H 0.4251 0.0951 0.8784   0.038533
 H 0.2592 0.2688 0.5474   0.117363
 H 0.0687 0.1343 0.5532   0.102663
 H 0.276 0.3974 0.6278   0.117298
 H 0.251 0.5412 0.6888   0.086716
 H 0.0848 0.525 0.704   0.119295
 H 0.9479 0.3603 0.663   0.072246
 H 0.766 0.3106 0.7422   0.11783
 H 0.6017 0.1323 0.7462   0.110316
 H 0.768 0.4026 0.838   0.124611
 H 0.7244 0.5096 0.9164   0.085468
 H 0.5597 0.4337 0.938   0.135299
 H 0.4533 0.2833 0.8784   0.037514
 C 0.37618 0.78218 0.98616   0.662165
 C 0.3321 0.8347 0.0354   -0.213636
 C 0.36171 0.93771 0.06242   -0.078723
 C 0.31261 0.98561 0.10582   0.253939
 C 0.2434 0.9258 0.134   -0.196304
 C 0.195 0.9774 0.1704   0.029296
 C 0.2144 0.0846 0.1804   -0.19698
 C 0.2871 0.1405 0.155   0.177976
 C 0.52064 0.43904 0.17988   0.68085
 C 0.4933 0.5077 0.2306   -0.25035
 C 0.5543 0.6131 0.2596   -0.103157
 C 0.4691 0.6447 0.346   -0.235935
 C 0.4534 0.7172 0.3934   0.04782
 C 0.5325 0.6835 0.3124   0.277015
 C 0.5081 0.8265 0.4054   -0.149574
 C 0.5612 0.8504 0.3708   0.199978
 C 0.60998 0.70398 0.98616   0.662603
 C 0.7033 0.7007 0.0354   -0.217003
 C 0.70071 0.62471 0.06242   -0.076206
 C 0.79321 0.62021 0.10582   0.254636
 C 0.8906 0.7082 0.134   -0.196323
 C 0.9754 0.693 0.1704   0.027563
 C 0.966 0.5958 0.1804   -0.195178
 C 0.8679 0.5145 0.155   0.17614
 C 0.65924 0.24084 0.17988   0.680484
 C 0.7373 0.2229 0.2306   -0.248188
 C 0.7053 0.1465 0.2596   -0.103978
 C 0.8769 0.2013 0.346   -0.237996
 C 0.94 0.1762 0.3934   0.046465
 C 0.7799 0.1289 0.3124   0.277785
 C 0.8973 0.0789 0.4054   -0.147525
 C 0.8096 0.0204 0.3708   0.200326
 C 0.71782 0.12382 0.51384   0.662165
 C 0.6653 0.1679 0.4646   -0.213634
 C 0.56229 0.13829 0.43758   -0.078724
 C 0.51439 0.18739 0.39418   0.253939
 C 0.5742 0.2566 0.366   -0.196304
 C 0.5226 0.305 0.3296   0.029295
 C 0.4154 0.2856 0.3196   -0.196979
 C 0.3595 0.2129 0.345   0.177975
 C 0.06096 0.97936 0.32012   0.68085
 C 0.9923 0.0067 0.2694   -0.250349
 C 0.8869 0.9457 0.2404   -0.103157
 C 0.8553 0.0309 0.154   -0.235936
 C 0.7828 0.0466 0.1066   0.047821
 C 0.8165 0.9675 0.1876   0.277015
 C 0.6735 0.9919 0.0946   -0.149573
 C 0.6496 0.9388 0.1292   0.199978
 C 0.79602 0.89002 0.51384   0.662603
 C 0.7993 0.7967 0.4646   -0.217004
 C 0.87529 0.79929 0.43758   -0.076206
 C 0.87979 0.70679 0.39418   0.254636
 C 0.7918 0.6094 0.366   -0.196323
 C 0.807 0.5246 0.3296   0.027563
 C 0.9042 0.534 0.3196   -0.195177
 C 0.9855 0.6321 0.345   0.17614
 C 0.25916 0.84076 0.32012   0.680495
 C 0.2771 0.7627 0.2694   -0.248194
 C 0.3535 0.7947 0.2404   -0.103976
 C 0.2987 0.6231 0.154   -0.237995
 C 0.3238 0.56 0.1066   0.046465
 C 0.3711 0.7201 0.1876   0.277785
 C 0.4211 0.6027 0.0946   -0.147525
 C 0.4796 0.6904 0.1292   0.200326
 C 0.62382 0.21782 0.01384   0.662165
 C 0.6679 0.1653 0.9646   -0.213636
 C 0.63829 0.06229 0.93758   -0.078723
 C 0.68739 0.01439 0.89418   0.253939
 C 0.7566 0.0742 0.866   -0.196304
 C 0.805 0.0226 0.8296   0.029296
 C 0.7856 0.9154 0.8196   -0.19698
 C 0.7129 0.8595 0.845   0.177976
 C 0.47936 0.56096 0.82012   0.68085
 C 0.5067 0.4923 0.7694   -0.25035
 C 0.4457 0.3869 0.7404   -0.103157
 C 0.5309 0.3553 0.654   -0.235935
 C 0.5466 0.2828 0.6066   0.04782
 C 0.4675 0.3165 0.6876   0.277015
 C 0.4919 0.1735 0.5946   -0.149574
 C 0.4388 0.1496 0.6292   0.199978
 C 0.39002 0.29602 0.01384   0.662603
 C 0.2967 0.2993 0.9646   -0.217003
 C 0.29929 0.37529 0.93758   -0.076206
 C 0.20679 0.37979 0.89418   0.254636
 C 0.1094 0.2918 0.866   -0.196323
 C 0.0246 0.307 0.8296   0.027563
 C 0.034 0.4042 0.8196   -0.195178
 C 0.1321 0.4855 0.845   0.17614
 C 0.34076 0.75916 0.82012   0.680484
 C 0.2627 0.7771 0.7694   -0.248188
 C 0.2947 0.8535 0.7404   -0.103978
 C 0.1231 0.7987 0.654   -0.237996
 C 0.06 0.8238 0.6066   0.046465
 C 0.2201 0.8711 0.6876   0.277785
 C 0.1027 0.9211 0.5946   -0.147525
 C 0.1904 0.9796 0.6292   0.200326
 C 0.28218 0.87618 0.48616   0.662165
 C 0.3347 0.8321 0.5354   -0.213634
 C 0.43771 0.86171 0.56242   -0.078724
 C 0.48561 0.81261 0.60582   0.253939
 C 0.4258 0.7434 0.634   -0.196304
 C 0.4774 0.695 0.6704   0.029295
 C 0.5846 0.7144 0.6804   -0.196979
 C 0.6405 0.7871 0.655   0.177975
 C 0.93904 0.02064 0.67988   0.68085
 C 0.0077 0.9933 0.7306   -0.250349
 C 0.1131 0.0543 0.7596   -0.103157
 C 0.1447 0.9691 0.846   -0.235936
 C 0.2172 0.9534 0.8934   0.047821
 C 0.1835 0.0325 0.8124   0.277015
 C 0.3265 0.0081 0.9054   -0.149573
 C 0.3504 0.0612 0.8708   0.199978
 C 0.20398 0.10998 0.48616   0.662603
 C 0.2007 0.2033 0.5354   -0.217004
 C 0.12471 0.20071 0.56242   -0.076206
 C 0.12021 0.29321 0.60582   0.254636
 C 0.2082 0.3906 0.634   -0.196323
 C 0.193 0.4754 0.6704   0.027563
 C 0.0958 0.466 0.6804   -0.195177
 C 0.0145 0.3679 0.655   0.17614
 C 0.74084 0.15924 0.67988   0.680495
 C 0.7229 0.2373 0.7306   -0.248194
 C 0.6465 0.2053 0.7596   -0.103976
 C 0.7013 0.3769 0.846   -0.237995
 C 0.6762 0.44 0.8934   0.046465
 C 0.6289 0.2799 0.8124   0.277785
 C 0.5789 0.3973 0.9054   -0.147525
 C 0.5204 0.3096 0.8708   0.200326
 N 0.5808 0.7884 0.3228   -0.388512
 N 0.33775 0.09495 0.1193   -0.32191
 N 0.742 0.0344 0.3228   -0.388491
 N 0.78155 0.52435 0.1193   -0.321985
 N 0.7116 0.9192 0.1772   -0.388512
 N 0.40505 0.16225 0.3807   -0.32191
 N 0.4656 0.758 0.1772   -0.388491
 N 0.97565 0.71845 0.3807   -0.321986
 N 0.4192 0.2116 0.6772   -0.388512
 N 0.66225 0.90505 0.8807   -0.32191
 N 0.258 0.9656 0.6772   -0.388491
 N 0.21845 0.47565 0.8807   -0.321985
 N 0.2884 0.0808 0.8228   -0.388512
 N 0.59495 0.83775 0.6193   -0.32191
 N 0.5344 0.242 0.8228   -0.388491
 N 0.02435 0.28155 0.6193   -0.321986
 O 0.45367 0.84387 0.97034   -0.597391
 O 0.33187 0.68087 0.96634   -0.567485
 O 0.46959 0.34079 0.16418   -0.606067
 O 0.59298 0.48998 0.15816   -0.582449
 O 0.51667 0.62647 0.97034   -0.596865
 O 0.63447 0.78547 0.96634   -0.567907
 O 0.69459 0.32339 0.16418   -0.605981
 O 0.56518 0.16818 0.15816   -0.582446
 O 0.65613 0.04633 0.52966   -0.597392
 O 0.81913 0.16813 0.53366   -0.567485
 O 0.15921 0.03041 0.33582   -0.606067
 O 0.01002 0.90702 0.34184   -0.582449
 O 0.87353 0.98333 0.52966   -0.596864
 O 0.71453 0.86553 0.53366   -0.567907
 O 0.17661 0.80541 0.33582   -0.605983
 O 0.33182 0.93482 0.34184   -0.582452
 O 0.54633 0.15613 0.02966   -0.597391
 O 0.66813 0.31913 0.03366   -0.567485
 O 0.53041 0.65921 0.83582   -0.606067
 O 0.40702 0.51002 0.84184   -0.582449
 O 0.48333 0.37353 0.02966   -0.596865
 O 0.36553 0.21453 0.03366   -0.567907
 O 0.30541 0.67661 0.83582   -0.605981
 O 0.43482 0.83182 0.84184   -0.582446
 O 0.34387 0.95367 0.47034   -0.597392
 O 0.18087 0.83187 0.46634   -0.567485
 O 0.84079 0.96959 0.66418   -0.606067
 O 0.98998 0.09298 0.65816   -0.582449
 O 0.12647 0.01667 0.47034   -0.596864
 O 0.28547 0.13447 0.46634   -0.567907
 O 0.82339 0.19459 0.66418   -0.605983
 O 0.66818 0.06518 0.65816   -0.582452
