{'_ref': 'TBD', '_srcid': 'CAKYAQ_clean', 'submitters': [{'name': 'Dalar Nazarian Jeff Camp and David Sholl', 'email': 'dalar@gatech.edu jcamp6@gatech.edu'}], '_method': 'VASP DFT with PBE;DDEC'}
data_Co3H6C10(N4O3)2
_symmetry_space_group_name_H-M   'P 1'
_cell_length_a   8.46820021
_cell_length_b   15.27440036
_cell_length_c   15.27440000
_cell_angle_alpha   85.59299911
_cell_angle_beta   73.90680269
_cell_angle_gamma   73.90679903
_symmetry_Int_Tables_number   1
_chemical_formula_structural   Co3H6C10(N4O3)2
_chemical_formula_sum   'Co12 H24 C40 N32 O24'
_cell_volume   1823.88033856
_cell_formula_units_Z   4
loop_
 _symmetry_equiv_pos_site_id
 _symmetry_equiv_pos_as_xyz
  1  'x, y, z'
loop_
 _atom_site_label
 _atom_site_fract_x
 _atom_site_fract_y
 _atom_site_fract_z
 _atom_site_charge
 Co 0.40407 0.96053 0.94981   0.992025
 Co 0.81441 0.53947 0.55019   0.994961
 Co 0.35388 0.05019 0.46053   0.99233
 Co 0.3646 0.44981 0.03947   0.993302
 Co 0.59593 0.03947 0.05019   0.992025
 Co 0.18559 0.46053 0.44981   0.994961
 Co 0.64612 0.94981 0.53947   0.992331
 Co 0.6354 0.55019 0.96053   0.993302
 Co 0.0 0.0 0.0   0.898108
 Co 0.5 0.5 0.5   0.896728
 Co 0.0 0.0 0.5   0.900413
 Co 0.0 0.5 0.0   0.896445
 H 0.9334 0.9756 0.1932   0.323934
 H 0.864 0.9795 0.3411   0.084026
 H 0.5423 0.0781 0.2529   0.076501
 H 0.6022 0.5244 0.3068   0.325978
 H 0.6846 0.5205 0.1589   0.083231
 H 0.3733 0.4219 0.2471   0.075696
 H 0.1266 0.8068 0.4756   0.326073
 H 0.2051 0.6589 0.4795   0.085149
 H 0.7952 0.7471 0.5781   0.076178
 H 0.909 0.6932 0.0244   0.327783
 H 0.8435 0.8411 0.0205   0.081888
 H 0.6204 0.7529 0.9219   0.075897
 H 0.0666 0.0244 0.8068   0.323934
 H 0.136 0.0205 0.6589   0.084026
 H 0.4577 0.9219 0.7471   0.076501
 H 0.3978 0.4756 0.6932   0.325978
 H 0.3154 0.4795 0.8411   0.083231
 H 0.6267 0.5781 0.7529   0.075696
 H 0.8734 0.1932 0.5244   0.326073
 H 0.7949 0.3411 0.5205   0.085149
 H 0.2048 0.2529 0.4219   0.076178
 H 0.091 0.3068 0.9756   0.327782
 H 0.1565 0.1589 0.9795   0.081888
 H 0.3796 0.2471 0.0781   0.075896
 C 0.9669 0.9907 0.3085   0.353889
 C 0.2093 0.026 0.3002   0.378878
 C 0.2611 0.0219 0.2047   -0.085821
 C 0.1568 0.9991 0.1585   0.50946
 C 0.4456 0.0608 0.2524   0.319157
 C 0.7661 0.5093 0.1915   0.354778
 C 0.0355 0.474 0.1998   0.379444
 C 0.9877 0.4781 0.2953   -0.081944
 C 0.8144 0.5009 0.3415   0.506972
 C 0.2588 0.4392 0.2476   0.319854
 C 0.2754 0.6915 0.4907   0.350959
 C 0.5095 0.6998 0.526   0.380697
 C 0.4658 0.7953 0.5219   -0.084995
 C 0.3153 0.8415 0.4991   0.504878
 C 0.698 0.7476 0.5608   0.320691
 C 0.9576 0.8085 0.0093   0.356725
 C 0.2353 0.8002 0.974   0.383132
 C 0.283 0.7047 0.9781   -0.086107
 C 0.1559 0.6585 0.000900000000001   0.507723
 C 0.5064 0.7524 0.9392   0.31832
 C 0.0331 0.0093 0.6915   0.353889
 C 0.7907 0.974 0.6998   0.378878
 C 0.7389 0.9781 0.7953   -0.085821
 C 0.8432 0.000900000000001 0.8415   0.50946
 C 0.5544 0.9392 0.7476   0.319158
 C 0.2339 0.4907 0.8085   0.354778
 C 0.9645 0.526 0.8002   0.379444
 C 0.0123 0.5219 0.7047   -0.081944
 C 0.1856 0.4991 0.6585   0.506972
 C 0.7412 0.5608 0.7524   0.319854
 C 0.7246 0.3085 0.5093   0.350958
 C 0.4905 0.3002 0.474   0.380697
 C 0.5342 0.2047 0.4781   -0.084996
 C 0.6847 0.1585 0.5009   0.504878
 C 0.302 0.2524 0.4392   0.320691
 C 0.0424 0.1915 0.9907   0.356725
 C 0.7647 0.1998 0.026   0.383132
 C 0.717 0.2953 0.0219   -0.086107
 C 0.8441 0.3415 0.9991   0.507723
 C 0.4936 0.2476 0.0608   0.318321
 N 0.0065 0.9866 0.2172   -0.353399
 N 0.062 0.0092 0.3546   -0.419347
 N 0.4143 0.0451 0.1755   -0.36209
 N 0.3278 0.05 0.3302   -0.460714
 N 0.7103 0.5134 0.2828   -0.353232
 N 0.9258 0.4908 0.1454   -0.420709
 N 0.1349 0.4549 0.3245   -0.366791
 N 0.208 0.45 0.1698   -0.459579
 N 0.2237 0.7828 0.4866   -0.35124
 N 0.4166 0.6454 0.5092   -0.418303
 N 0.5898 0.8245 0.5451   -0.363983
 N 0.658 0.6698 0.55   -0.463194
 N 0.9931 0.7172 0.0134   -0.354216
 N 0.0712 0.8546 0.9908   -0.423989
 N 0.4594 0.6755 0.9549   -0.363336
 N 0.3778 0.8302 0.95   -0.460092
 N 0.9935 0.0134 0.7828   -0.353399
 N 0.938 0.9908 0.6454   -0.419347
 N 0.5857 0.9549 0.8245   -0.36209
 N 0.6722 0.95 0.6698   -0.460714
 N 0.2897 0.4866 0.7172   -0.353232
 N 0.0742 0.5092 0.8546   -0.420709
 N 0.8651 0.5451 0.6755   -0.366791
 N 0.792 0.55 0.8302   -0.459579
 N 0.7763 0.2172 0.5134   -0.35124
 N 0.5834 0.3546 0.4908   -0.418303
 N 0.4102 0.1755 0.4549   -0.363983
 N 0.342 0.3302 0.45   -0.463194
 N 0.0069 0.2828 0.9866   -0.354216
 N 0.9288 0.1454 0.0092   -0.423989
 N 0.5406 0.3245 0.0451   -0.363336
 N 0.6222 0.1698 0.05   -0.460092
 O 0.4255 0.0836 0.9738   -0.596852
 O 0.2 0.008 0.8944   -0.68831
 O 0.182 0.9907 0.0731   -0.520206
 O 0.9829 0.4164 0.5262   -0.59793
 O 0.6024 0.492 0.6056   -0.689045
 O 0.7458 0.5093 0.4269   -0.519741
 O 0.3993 0.0262 0.5836   -0.597078
 O 0.0944 0.1056 0.508   -0.6896
 O 0.2551 0.9269 0.4907   -0.518798
 O 0.5091 0.4738 0.9164   -0.597635
 O 0.208 0.3944 0.992   -0.688507
 O 0.1727 0.5731 0.0093   -0.519572
 O 0.5745 0.9164 0.0262   -0.596852
 O 0.8 0.992 0.1056   -0.68831
 O 0.818 0.0093 0.9269   -0.520206
 O 0.0171 0.5836 0.4738   -0.59793
 O 0.3976 0.508 0.3944   -0.689045
 O 0.2542 0.4907 0.5731   -0.519741
 O 0.6007 0.9738 0.4164   -0.597078
 O 0.9056 0.8944 0.492   -0.6896
 O 0.7449 0.0731 0.5093   -0.518798
 O 0.4909 0.5262 0.0836   -0.597635
 O 0.792 0.6056 0.008   -0.688507
 O 0.8273 0.4269 0.9907   -0.519572
