{'_ref': 'TBD', '_srcid': 'CAKYAQ_clean', 'submitters': [{'name': 'Dalar Nazarian Jeff Camp and David Sholl', 'email': 'dalar@gatech.edu jcamp6@gatech.edu'}], '_method': 'VASP DFT with PBE;DDEC'}
data_Co3H6C10(N4O3)2
_symmetry_space_group_name_H-M   'P 1'
_cell_length_a   8.44950003
_cell_length_b   15.26090000
_cell_length_c   15.26090006
_cell_angle_alpha   85.60470093
_cell_angle_beta   73.92850067
_cell_angle_gamma   73.92859728
_symmetry_Int_Tables_number   1
_chemical_formula_structural   Co3H6C10(N4O3)2
_chemical_formula_sum   'Co12 H24 C40 N32 O24'
_cell_volume   1817.03483481
_cell_formula_units_Z   4
loop_
 _symmetry_equiv_pos_site_id
 _symmetry_equiv_pos_as_xyz
  1  'x, y, z'
loop_
 _atom_site_label
 _atom_site_fract_x
 _atom_site_fract_y
 _atom_site_fract_z
 _atom_site_charge
 Co 0.90404 0.96034 0.94983   0.980076
 Co 0.31422 0.53966 0.55017   0.980693
 Co 0.86439 0.44982 0.03966   0.981511
 Co 0.85387 0.05018 0.46034   0.980613
 Co 0.09596 0.03966 0.05017   0.980076
 Co 0.68578 0.46034 0.44983   0.980693
 Co 0.13561 0.55018 0.96034   0.981511
 Co 0.14613 0.94982 0.53966   0.980613
 Co 0.5 0.0 0.0   0.900954
 Co 0.0 0.5 0.5   0.905
 Co 0.5 0.5 0.0   0.901444
 Co 0.5 0.0 0.5   0.905334
 H 0.5672 0.025 0.8078   0.326084
 H 0.9573 0.9225 0.7473   0.076913
 H 0.6359 0.0235 0.6581   0.08539
 H 0.9 0.475 0.6922   0.324582
 H 0.1271 0.5775 0.7527   0.075942
 H 0.8175 0.4765 0.8419   0.08531
 H 0.5922 0.3078 0.975   0.322991
 H 0.8798 0.2473 0.0775   0.076597
 H 0.6594 0.1581 0.9765   0.084399
 H 0.375 0.1922 0.525   0.325511
 H 0.7046 0.2527 0.4225   0.076709
 H 0.294 0.3419 0.5235   0.083805
 H 0.4328 0.975 0.1922   0.326084
 H 0.0427 0.0775 0.2527   0.076913
 H 0.3641 0.9765 0.3419   0.08539
 H 0.1 0.525 0.3078   0.324582
 H 0.8729 0.4225 0.2473   0.075942
 H 0.1825 0.5235 0.1581   0.08531
 H 0.4078 0.6922 0.025   0.322991
 H 0.1202 0.7527 0.9225   0.076597
 H 0.3406 0.8419 0.0235   0.084399
 H 0.625 0.8078 0.475   0.325511
 H 0.2954 0.7473 0.5775   0.076709
 H 0.706 0.6581 0.4765   0.083805
 C 0.34359 0.000590000000002 0.84243   0.518659
 C 0.24026 0.97676 0.79532   -0.088679
 C 0.05482 0.93929 0.74767   0.312339
 C 0.29105 0.97322 0.69928   0.382051
 C 0.53446 0.01069 0.69099   0.350592
 C 0.68661 0.49941 0.65757   0.517284
 C 0.51234 0.52324 0.70468   -0.090211
 C 0.24178 0.56071 0.75233   0.310683
 C 0.46355 0.52678 0.80072   0.381249
 C 0.73614 0.48931 0.80901   0.35292
 C 0.34418 0.34243 0.99941   0.518222
 C 0.21702 0.29532 0.02324   -0.0916
 C 0.99411 0.24767 0.06071   0.309054
 C 0.26427 0.19928 0.02678   0.383818
 C 0.54515 0.19099 0.98931   0.351299
 C 0.18602 0.15757 0.50059   0.515436
 C 0.03558 0.20468 0.47676   -0.088205
 C 0.80249 0.25233 0.43929   0.313005
 C 0.99033 0.30072 0.47322   0.381727
 C 0.22545 0.30901 0.51069   0.354097
 C 0.65641 0.99941 0.15757   0.518659
 C 0.75974 0.02324 0.20468   -0.088679
 C 0.94518 0.06071 0.25233   0.31234
 C 0.70895 0.02678 0.30072   0.382051
 C 0.46554 0.98931 0.30901   0.350591
 C 0.31339 0.50059 0.34243   0.517284
 C 0.48766 0.47676 0.29532   -0.090211
 C 0.75822 0.43929 0.24767   0.310684
 C 0.53645 0.47322 0.19928   0.381248
 C 0.26386 0.51069 0.19099   0.35292
 C 0.65582 0.65757 0.000590000000002   0.518222
 C 0.78298 0.70468 0.97676   -0.0916
 C 0.00589 0.75233 0.93929   0.309055
 C 0.73573 0.80072 0.97322   0.383817
 C 0.45485 0.80901 0.01069   0.351299
 C 0.81398 0.84243 0.49941   0.515436
 C 0.96442 0.79532 0.52324   -0.088205
 C 0.19751 0.74767 0.56071   0.313006
 C 0.00967 0.69928 0.52678   0.381727
 C 0.77455 0.69099 0.48931   0.354097
 N 0.08805 0.95446 0.82464   -0.357962
 N 0.17264 0.94992 0.6698   -0.453862
 N 0.43888 0.99077 0.64567   -0.421455
 N 0.49411 0.01391 0.78367   -0.366795
 N 0.36715 0.54554 0.67536   -0.357523
 N 0.29236 0.55008 0.8302   -0.450208
 N 0.57532 0.50923 0.85433   -0.423955
 N 0.79169 0.48609 0.71633   -0.363434
 N 0.04251 0.32464 0.04554   -0.355159
 N 0.12256 0.1698 0.05008   -0.450649
 N 0.42965 0.14567 0.00923   -0.424564
 N 0.50802 0.28367 0.98609   -0.360617
 N 0.91269 0.17536 0.45446   -0.359879
 N 0.84244 0.3302 0.44992   -0.452844
 N 0.08455 0.35433 0.49077   -0.423839
 N 0.27778 0.21633 0.51391   -0.364509
 N 0.91195 0.04554 0.17536   -0.357962
 N 0.82736 0.05008 0.3302   -0.453862
 N 0.56112 0.00923 0.35433   -0.421455
 N 0.50589 0.98609 0.21633   -0.366795
 N 0.63285 0.45446 0.32464   -0.357523
 N 0.70764 0.44992 0.1698   -0.450208
 N 0.42468 0.49077 0.14567   -0.423955
 N 0.20831 0.51391 0.28367   -0.363434
 N 0.95749 0.67536 0.95446   -0.355159
 N 0.87744 0.8302 0.94992   -0.450649
 N 0.57035 0.85433 0.99077   -0.424564
 N 0.49198 0.71633 0.01391   -0.360617
 N 0.08731 0.82464 0.54554   -0.359879
 N 0.15756 0.6698 0.55008   -0.452844
 N 0.91545 0.64567 0.50923   -0.423838
 N 0.72222 0.78367 0.48609   -0.364509
 O 0.69928 0.00736 0.89428   -0.684693
 O 0.31934 0.00945 0.92647   -0.514933
 O 0.92528 0.08423 0.97341   -0.594722
 O 0.10092 0.49264 0.60572   -0.68607
 O 0.75526 0.49055 0.57353   -0.514354
 O 0.48292 0.41577 0.52659   -0.594962
 O 0.70664 0.39428 0.99264   -0.68477
 O 0.32879 0.42647 0.99055   -0.515519
 O 0.00951 0.47341 0.91577   -0.595641
 O 0.59356 0.10572 0.50736   -0.686103
 O 0.24581 0.07353 0.50945   -0.51358
 O 0.89869 0.02659 0.58423   -0.594632
 O 0.30072 0.99264 0.10572   -0.684693
 O 0.68066 0.99055 0.07353   -0.514933
 O 0.07472 0.91577 0.02659   -0.594722
 O 0.89908 0.50736 0.39428   -0.68607
 O 0.24474 0.50945 0.42647   -0.514354
 O 0.51708 0.58423 0.47341   -0.594962
 O 0.29336 0.60572 0.00736   -0.68477
 O 0.67121 0.57353 0.00945   -0.515519
 O 0.99049 0.52659 0.08423   -0.595641
 O 0.40644 0.89428 0.49264   -0.686103
 O 0.75419 0.92647 0.49055   -0.51358
 O 0.10131 0.97341 0.41577   -0.594632
