{'_ref': 'TBD', '_srcid': 'CAKYAQ_clean', 'submitters': [{'name': 'Dalar Nazarian Jeff Camp and David Sholl', 'email': 'dalar@gatech.edu jcamp6@gatech.edu'}], '_method': 'VASP DFT with PBE;DDEC'}
data_CuH7C13NO4
_symmetry_space_group_name_H-M   'P 1'
_cell_length_a   14.20700000
_cell_length_b   14.56399957
_cell_length_c   26.22000000
_cell_angle_alpha   90.00000000
_cell_angle_beta   90.00000000
_cell_angle_gamma   107.08000061
_symmetry_Int_Tables_number   1
_chemical_formula_structural   CuH7C13NO4
_chemical_formula_sum   'Cu8 H56 C104 N8 O32'
_cell_volume   5185.92443684
_cell_formula_units_Z   8
loop_
 _symmetry_equiv_pos_site_id
 _symmetry_equiv_pos_as_xyz
  1  'x, y, z'
loop_
 _atom_site_label
 _atom_site_fract_x
 _atom_site_fract_y
 _atom_site_fract_z
 _atom_site_charge
 Cu 0.56376 0.43549 0.79726   0.798726
 Cu 0.41098 0.97273 0.47975   0.866941
 Cu 0.93624 0.56451 0.29726   0.798726
 Cu 0.08902 0.02727 0.97975   0.866941
 Cu 0.43624 0.56451 0.20274   0.798726
 Cu 0.58902 0.02727 0.52025   0.866942
 Cu 0.06376 0.43549 0.70274   0.798726
 Cu 0.91098 0.97273 0.02025   0.866942
 H 0.7406 0.5352 0.7386   0.095798
 H 0.7855 0.6417 0.6672   0.140778
 H 0.6612 0.6828 0.6233   0.111659
 H 0.4687 0.5529 0.731   0.088038
 H 0.5668 0.7794 0.6142   0.112387
 H 0.2809 0.7423 0.5824   0.119016
 H 0.3554 0.5512 0.6742   0.098247
 H 0.4247 0.2609 0.8525   0.105128
 H 0.4387 0.1184 0.8871   0.130936
 H 0.5909 0.0955 0.8961   0.108991
 H 0.7106 0.3566 0.8314   0.084214
 H 0.7654 0.1261 0.9243   0.105779
 H 0.0365 0.2019 0.8586   0.126148
 H 0.8167 0.2914 0.7976   0.111064
 H 0.7594 0.4648 0.2386   0.095798
 H 0.7145 0.3583 0.1672   0.140778
 H 0.8388 0.3172 0.1233   0.111659
 H 0.0313 0.4471 0.231   0.088038
 H 0.9332 0.2206 0.1142   0.112387
 H 0.2191 0.2577 0.0824   0.119016
 H 0.1446 0.4488 0.1742   0.098247
 H 0.0753 0.7391 0.3525   0.105128
 H 0.0613 0.8816 0.3871   0.130936
 H 0.9091 0.9045 0.3961   0.108991
 H 0.7894 0.6434 0.3314   0.084214
 H 0.7346 0.8739 0.4243   0.105779
 H 0.4635 0.7981 0.3586   0.126148
 H 0.6833 0.7086 0.2976   0.111064
 H 0.2594 0.4648 0.2614   0.095798
 H 0.2145 0.3583 0.3328   0.140778
 H 0.3388 0.3172 0.3767   0.111659
 H 0.5313 0.4471 0.269   0.088038
 H 0.4332 0.2206 0.3858   0.112387
 H 0.7191 0.2577 0.4176   0.119016
 H 0.6446 0.4488 0.3258   0.098246
 H 0.5753 0.7391 0.1475   0.105128
 H 0.5613 0.8816 0.1129   0.130936
 H 0.4091 0.9045 0.1039   0.108991
 H 0.2894 0.6434 0.1686   0.084214
 H 0.2346 0.8739 0.0757   0.105779
 H 0.9635 0.7981 0.1414   0.126148
 H 0.1833 0.7086 0.2024   0.111064
 H 0.2406 0.5352 0.7614   0.095798
 H 0.2855 0.6417 0.8328   0.140778
 H 0.1612 0.6828 0.8767   0.111659
 H 0.9687 0.5529 0.769   0.088038
 H 0.0668 0.7794 0.8858   0.112387
 H 0.7809 0.7423 0.9176   0.119016
 H 0.8554 0.5512 0.8258   0.098246
 H 0.9247 0.2609 0.6475   0.105128
 H 0.9387 0.1184 0.6129   0.130936
 H 0.0909 0.0955 0.6039   0.108991
 H 0.2106 0.3566 0.6686   0.084214
 H 0.2654 0.1261 0.5757   0.105779
 H 0.5365 0.2019 0.6414   0.126148
 H 0.3167 0.2914 0.7024   0.111064
 C 0.6929 0.5588 0.7221   0.151986
 C 0.7193 0.6203 0.6788   -0.165359
 C 0.6465 0.6477 0.6543   -0.027249
 C 0.5519 0.625 0.6739   -0.016817
 C 0.5329 0.5687 0.7166   0.113588
 C 0.4716 0.6546 0.649   0.003179
 C 0.4998 0.7424 0.6174   -0.082832
 C 0.4262 0.7693 0.5925   -0.109315
 C 0.3302 0.7207 0.5987   -0.017296
 C 0.3025 0.6347 0.6305   -0.083991
 C 0.3739 0.6072 0.6535   -0.070958
 C 0.1948 0.5832 0.638   0.607223
 C 0.4519 0.8563 0.5579   0.672482
 C 0.4872 0.2502 0.8555   0.132812
 C 0.4958 0.1666 0.8759   -0.158422
 C 0.5859 0.1526 0.8803   -0.043617
 C 0.6738 0.2213 0.8617   -0.023705
 C 0.6558 0.3058 0.8426   0.149663
 C 0.7712 0.2122 0.8622   0.019385
 C 0.8081 0.1594 0.898   -0.061853
 C 0.9007 0.1538 0.8968   -0.119766
 C 0.97 0.2031 0.8591   -0.029659
 C 0.9311 0.2541 0.8224   -0.111757
 C 0.8385 0.2573 0.8237   -0.063189
 C 0.9425 0.0956 0.935   0.667756
 C 0.0087 0.3114 0.7819   0.624136
 C 0.8071 0.4412 0.2221   0.151986
 C 0.7807 0.3797 0.1788   -0.165359
 C 0.8535 0.3523 0.1543   -0.027249
 C 0.9481 0.375 0.1739   -0.016818
 C 0.9671 0.4313 0.2166   0.113588
 C 0.0284 0.3454 0.149   0.003179
 C 0.0002 0.2576 0.1174   -0.082832
 C 0.0738 0.2307 0.0925   -0.109315
 C 0.1698 0.2793 0.0987   -0.017296
 C 0.1975 0.3653 0.1305   -0.083991
 C 0.1261 0.3928 0.1535   -0.070958
 C 0.3052 0.4168 0.138   0.607223
 C 0.0481 0.1437 0.0579   0.672482
 C 0.0128 0.7498 0.3555   0.132812
 C 0.0042 0.8334 0.3759   -0.158422
 C 0.9141 0.8474 0.3803   -0.043617
 C 0.8262 0.7787 0.3617   -0.023705
 C 0.8442 0.6942 0.3426   0.149663
 C 0.7288 0.7878 0.3622   0.019385
 C 0.6919 0.8406 0.398   -0.061853
 C 0.5993 0.8462 0.3968   -0.119766
 C 0.53 0.7969 0.3591   -0.029659
 C 0.5689 0.7459 0.3224   -0.111757
 C 0.6615 0.7427 0.3237   -0.063189
 C 0.5575 0.9044 0.435   0.667756
 C 0.4913 0.6886 0.2819   0.624136
 C 0.3071 0.4412 0.2779   0.151986
 C 0.2807 0.3797 0.3212   -0.165359
 C 0.3535 0.3523 0.3457   -0.027249
 C 0.4481 0.375 0.3261   -0.016818
 C 0.4671 0.4313 0.2834   0.113587
 C 0.5284 0.3454 0.351   0.003179
 C 0.5002 0.2576 0.3826   -0.082832
 C 0.5738 0.2307 0.4075   -0.109315
 C 0.6698 0.2793 0.4013   -0.017296
 C 0.6975 0.3653 0.3695   -0.083992
 C 0.6261 0.3928 0.3465   -0.070958
 C 0.8052 0.4168 0.362   0.607223
 C 0.5481 0.1437 0.4421   0.672482
 C 0.5128 0.7498 0.1445   0.132812
 C 0.5042 0.8334 0.1241   -0.158422
 C 0.4141 0.8474 0.1197   -0.043617
 C 0.3262 0.7787 0.1383   -0.023705
 C 0.3442 0.6942 0.1574   0.149662
 C 0.2288 0.7878 0.1378   0.019385
 C 0.1919 0.8406 0.102   -0.061853
 C 0.0993 0.8462 0.1032   -0.119766
 C 0.03 0.7969 0.1409   -0.029659
 C 0.0689 0.7459 0.1776   -0.111757
 C 0.1615 0.7427 0.1763   -0.063189
 C 0.0575 0.9044 0.065   0.667756
 C 0.9913 0.6886 0.2181   0.624136
 C 0.1929 0.5588 0.7779   0.151986
 C 0.2193 0.6203 0.8212   -0.165359
 C 0.1465 0.6477 0.8457   -0.027249
 C 0.0519 0.625 0.8261   -0.016818
 C 0.0329 0.5687 0.7834   0.113587
 C 0.9716 0.6546 0.851   0.003179
 C 0.9998 0.7424 0.8826   -0.082832
 C 0.9262 0.7693 0.9075   -0.109315
 C 0.8302 0.7207 0.9013   -0.017296
 C 0.8025 0.6347 0.8695   -0.083992
 C 0.8739 0.6072 0.8465   -0.070958
 C 0.6948 0.5832 0.862   0.607223
 C 0.9519 0.8563 0.9421   0.672482
 C 0.9872 0.2502 0.6445   0.132812
 C 0.9958 0.1666 0.6241   -0.158422
 C 0.0859 0.1526 0.6197   -0.043617
 C 0.1738 0.2213 0.6383   -0.023705
 C 0.1558 0.3058 0.6574   0.149662
 C 0.2712 0.2122 0.6378   0.019385
 C 0.3081 0.1594 0.602   -0.061853
 C 0.4007 0.1538 0.6032   -0.119766
 C 0.47 0.2031 0.6409   -0.029659
 C 0.4311 0.2541 0.6776   -0.111757
 C 0.3385 0.2573 0.6763   -0.063189
 C 0.4425 0.0956 0.565   0.667755
 C 0.5087 0.3114 0.7181   0.624136
 N 0.6006 0.535 0.739   -0.296288
 N 0.5697 0.3174 0.8396   -0.285505
 N 0.8994 0.465 0.239   -0.296288
 N 0.9303 0.6826 0.3396   -0.285505
 N 0.3994 0.465 0.261   -0.296288
 N 0.4303 0.6826 0.1604   -0.285505
 N 0.1006 0.535 0.761   -0.296288
 N 0.0697 0.3174 0.6604   -0.285505
 O 0.1258 0.5868 0.6065   -0.588025
 O 0.1799 0.5093 0.66695   -0.595247
 O 0.3869 0.8663 0.52773   -0.551237
 O 0.5388 0.9113 0.56176   -0.571961
 O 0.876 0.0507 0.96711   -0.575843
 O 0.028 0.0968 0.93308   -0.529919
 O 0.0967 0.3154 0.78259   -0.570761
 O 0.9671 0.3527 0.74841   -0.595486
 O 0.3742 0.4132 0.1065   -0.588025
 O 0.3201 0.4907 0.16695   -0.595247
 O 0.1131 0.1337 0.02773   -0.551237
 O 0.9612 0.0887 0.06176   -0.571961
 O 0.624 0.9493 0.46711   -0.575843
 O 0.472 0.9032 0.43308   -0.529919
 O 0.4033 0.6846 0.28259   -0.570761
 O 0.5329 0.6473 0.24841   -0.595486
 O 0.8742 0.4132 0.3935   -0.588025
 O 0.8201 0.4907 0.33305   -0.595247
 O 0.6131 0.1337 0.47227   -0.551238
 O 0.4612 0.0887 0.43824   -0.571961
 O 0.124 0.9493 0.03289   -0.575843
 O 0.972 0.9032 0.06692   -0.529919
 O 0.9033 0.6846 0.21741   -0.570761
 O 0.0329 0.6473 0.25159   -0.595486
 O 0.6258 0.5868 0.8935   -0.588025
 O 0.6799 0.5093 0.83305   -0.595247
 O 0.8869 0.8663 0.97227   -0.551237
 O 0.0388 0.9113 0.93824   -0.571961
 O 0.376 0.0507 0.53289   -0.575843
 O 0.528 0.0968 0.56692   -0.529919
 O 0.5967 0.3154 0.71741   -0.570761
 O 0.4671 0.3527 0.75159   -0.595486
