{'_ref': 'TBD', '_srcid': 'CAKYAQ_clean', 'submitters': [{'name': 'Dalar Nazarian Jeff Camp and David Sholl', 'email': 'dalar@gatech.edu jcamp6@gatech.edu'}], '_method': 'VASP DFT with PBE;DDEC'}
data_Cd2H26C17(NO2)6
_symmetry_space_group_name_H-M   'P 1'
_cell_length_a   12.67740046
_cell_length_b   12.67740042
_cell_length_c   18.03808913
_cell_angle_alpha   110.57330934
_cell_angle_beta   110.57333978
_cell_angle_gamma   90.00009915
_symmetry_Int_Tables_number   1
_chemical_formula_structural   Cd2H26C17(NO2)6
_chemical_formula_sum   'Cd8 H104 C68 N24 O48'
_cell_volume   2515.68558881
_cell_formula_units_Z   4
loop_
 _symmetry_equiv_pos_site_id
 _symmetry_equiv_pos_as_xyz
  1  'x, y, z'
loop_
 _atom_site_label
 _atom_site_fract_x
 _atom_site_fract_y
 _atom_site_fract_z
 _atom_site_charge
 Cd 0.57783 0.31985 0.1399   0.914634
 Cd 0.56207 0.82005 0.1399   0.914755
 Cd 0.57005 0.82783 0.6399   0.914252
 Cd 0.06985 0.81207 0.6399   0.914032
 Cd 0.18793 0.93015 0.3601   0.914038
 Cd 0.17217 0.42995 0.3601   0.914241
 Cd 0.68015 0.42217 0.8601   0.91463
 Cd 0.17995 0.43793 0.8601   0.914754
 H 0.9338 0.5283 0.3444   0.346226
 H 0.9112 0.4487 0.4184   0.352774
 H 0.768 0.6636 0.3652   0.095923
 H 0.7461 0.5779 0.4506   0.104229
 H 0.628 0.0626 0.13   0.080589
 H 0.566 0.3116 0.3068   0.088509
 H 0.465 0.2158 0.233   0.058851
 H 0.7763 0.2049 0.2334   0.068444
 H 0.7535 0.3045 0.3076   0.06374
 H 0.7039 0.2629 0.4014   0.069067
 H 0.3896 0.3267 0.9638   0.101488
 H 0.6348 0.5723 0.1432   0.105778
 H 0.6748 0.4248 0.036   0.060473
 H 0.4106 0.8161 0.3444   0.346924
 H 0.5072 0.9697 0.4184   0.352856
 H 0.5972 0.7016 0.3652   0.095958
 H 0.7045 0.8727 0.4506   0.104649
 H 0.502 0.0674 0.13   0.080704
 H 0.7408 0.9952 0.3068   0.08895
 H 0.768 0.0172 0.233   0.058655
 H 0.4571 0.0285 0.2334   0.068385
 H 0.5541 0.0031 0.3076   0.063584
 H 0.6975 0.1385 0.4014   0.069095
 H 0.5742 0.6371 0.9638   0.100852
 H 0.5084 0.5709 0.1432   0.105594
 H 0.3612 0.6112 0.036   0.059446
 H 0.5661 0.1838 0.8444   0.346518
 H 0.7197 0.1612 0.9184   0.352721
 H 0.4516 0.018 0.8652   0.096021
 H 0.6227 0.9961 0.9506   0.104504
 H 0.8174 0.878 0.63   0.080469
 H 0.7452 0.816 0.8068   0.089065
 H 0.7672 0.715 0.733   0.058025
 H 0.7785 0.0263 0.7334   0.067926
 H 0.7531 0.0035 0.8076   0.062835
 H 0.8885 0.9539 0.9014   0.068924
 H 0.3871 0.6396 0.4638   0.101136
 H 0.3209 0.8848 0.6432   0.105906
 H 0.3612 0.9248 0.536   0.060083
 H 0.2783 0.6606 0.8444   0.346551
 H 0.1987 0.7572 0.9184   0.352634
 H 0.4136 0.8472 0.8652   0.096228
 H 0.3279 0.9545 0.9506   0.104183
 H 0.8126 0.752 0.63   0.080493
 H 0.0616 0.9908 0.8068   0.088979
 H 0.9658 0.018 0.733   0.058693
 H 0.9549 0.7071 0.7334   0.068537
 H 0.0545 0.8041 0.8076   0.063806
 H 0.0129 0.9475 0.9014   0.069092
 H 0.0767 0.8242 0.4638   0.101608
 H 0.3223 0.7584 0.6432   0.105677
 H 0.1748 0.6112 0.536   0.059725
 H 0.3394 0.7217 0.1556   0.346557
 H 0.2428 0.8013 0.0816   0.352634
 H 0.1528 0.5864 0.1348   0.096228
 H 0.0455 0.6721 0.0494   0.104183
 H 0.248 0.1874 0.37   0.080497
 H 0.0092 0.9384 0.1932   0.088979
 H 0.982 0.0342 0.267   0.058692
 H 0.2929 0.0451 0.2666   0.068537
 H 0.1959 0.9455 0.1924   0.063809
 H 0.0525 0.9871 0.0986   0.069092
 H 0.1758 0.9233 0.5362   0.101606
 H 0.2416 0.6777 0.3568   0.105677
 H 0.3888 0.8252 0.464   0.059727
 H 0.8162 0.4339 0.1556   0.346517
 H 0.8388 0.2803 0.0816   0.352722
 H 0.982 0.5484 0.1348   0.09602
 H 0.0039 0.3773 0.0494   0.104503
 H 0.122 0.1826 0.37   0.080477
 H 0.184 0.2548 0.1932   0.089065
 H 0.285 0.2328 0.267   0.058025
 H 0.9737 0.2215 0.2666   0.067929
 H 0.9965 0.2469 0.1924   0.062836
 H 0.0461 0.1115 0.0986   0.068924
 H 0.3604 0.6129 0.5362   0.101136
 H 0.1152 0.6791 0.3568   0.105905
 H 0.0752 0.6388 0.464   0.060082
 H 0.4717 0.0662 0.6556   0.346224
 H 0.5513 0.0888 0.5816   0.352774
 H 0.3364 0.232 0.6348   0.095926
 H 0.4221 0.2539 0.5494   0.10423
 H 0.9374 0.372 0.87   0.080582
 H 0.6884 0.434 0.6932   0.08851
 H 0.7842 0.535 0.767   0.058847
 H 0.7951 0.2237 0.7666   0.068445
 H 0.6955 0.2465 0.6924   0.063741
 H 0.7371 0.2961 0.5986   0.069066
 H 0.6733 0.6104 0.0362   0.101486
 H 0.4277 0.3652 0.8568   0.105779
 H 0.5752 0.3252 0.964   0.060472
 H 0.1839 0.5894 0.6556   0.346924
 H 0.0303 0.4928 0.5816   0.352856
 H 0.2984 0.4028 0.6348   0.095959
 H 0.1273 0.2955 0.5494   0.104649
 H 0.9326 0.498 0.87   0.080697
 H 0.0048 0.2592 0.6932   0.08895
 H 0.9828 0.232 0.767   0.058659
 H 0.9715 0.5429 0.7666   0.068384
 H 0.9969 0.4459 0.6924   0.063582
 H 0.8615 0.3025 0.5986   0.069093
 H 0.3629 0.4258 0.0362   0.100853
 H 0.4291 0.4916 0.8568   0.105595
 H 0.3888 0.6388 0.964   0.059446
 C 0.7125 0.4982 0.2852   0.661391
 C 0.7987 0.5897 0.3594   0.035975
 C 0.8183 0.5698 0.4396   0.026253
 C 0.906 0.6576 0.511   0.629175
 C 0.5465 0.2295 0.2706   0.093934
 C 0.7314 0.2227 0.2708   0.109344
 C 0.5727 0.787 0.2852   0.66367
 C 0.5607 0.7697 0.3594   0.036041
 C 0.6213 0.8698 0.4396   0.024711
 C 0.605 0.8534 0.511   0.62828
 C 0.7241 0.0411 0.2706   0.093187
 C 0.5394 0.0481 0.2708   0.109221
 C 0.537 0.9625 0.7852   0.661129
 C 0.5197 0.0487 0.8594   0.035881
 C 0.6198 0.0683 0.9396   0.024663
 C 0.6034 0.156 0.011   0.629985
 C 0.7911 0.7965 0.7706   0.092844
 C 0.7981 0.9814 0.7708   0.11127
 C 0.2482 0.8227 0.7852   0.663635
 C 0.3397 0.8107 0.8594   0.035815
 C 0.3198 0.8713 0.9396   0.026151
 C 0.4076 0.855 0.011   0.626652
 C 0.9795 0.9741 0.7706   0.093666
 C 0.9727 0.7894 0.7708   0.108873
 C 0.1773 0.7518 0.2148   0.663634
 C 0.1893 0.6603 0.1406   0.035821
 C 0.1287 0.6802 0.0604   0.026149
 C 0.145 0.5924 0.989   0.626653
 C 0.0259 0.0205 0.2294   0.093662
 C 0.2106 0.0273 0.2292   0.108866
 C 0.0375 0.463 0.2148   0.661141
 C 0.9513 0.4803 0.1406   0.035878
 C 0.9317 0.3802 0.0604   0.024664
 C 0.844 0.3966 0.989   0.629986
 C 0.2035 0.2089 0.2294   0.092844
 C 0.0186 0.2019 0.2292   0.111266
 C 0.5018 0.2875 0.7148   0.661391
 C 0.4103 0.2013 0.6406   0.035971
 C 0.4302 0.1817 0.5604   0.026251
 C 0.3424 0.094 0.489   0.629176
 C 0.7705 0.4535 0.7294   0.09394
 C 0.7773 0.2686 0.7292   0.109343
 C 0.213 0.4273 0.7148   0.663669
 C 0.2303 0.4393 0.6406   0.036046
 C 0.1302 0.3787 0.5604   0.024711
 C 0.1466 0.395 0.489   0.628278
 C 0.9589 0.2759 0.7294   0.093189
 C 0.9519 0.4606 0.7292   0.109232
 C 0.5836 0.0836 0.1672   0.073787
 C 0.6816 0.1816 0.3632   0.121221
 C 0.8336 0.8336 0.6672   0.073693
 C 0.9316 0.9316 0.8632   0.121261
 C 0.1664 0.1664 0.3328   0.073646
 C 0.0684 0.0684 0.1368   0.121264
 C 0.9164 0.4164 0.8328   0.07385
 C 0.8184 0.3184 0.6368   0.121226
 C 0.4087 0.4087 0.0   0.061702
 C 0.5913 0.5913 0.0   0.061708
 C 0.3413 0.6587 0.5   0.062114
 C 0.1587 0.8413 0.5   0.059692
 C 0.553 0.553 0.106   0.061815
 C 0.303 0.803 0.606   0.060883
 C 0.197 0.697 0.394   0.060891
 C 0.447 0.447 0.894   0.061813
 C 0.5925 0.4075 0.0   0.095845
 C 0.4075 0.5925 0.0   0.099161
 C 0.3425 0.8425 0.5   0.097157
 C 0.1575 0.6575 0.5   0.097169
 N 0.6125 0.203 0.2178   -0.289699
 N 0.561 0.1673 0.3242   -0.315297
 N 0.528 0.4332 0.054   -0.268695
 N 0.6053 0.0148 0.2178   -0.289657
 N 0.7632 0.1569 0.3242   -0.314915
 N 0.526 0.6208 0.054   -0.26936
 N 0.7648 0.8625 0.7178   -0.289506
 N 0.9069 0.811 0.8242   -0.314135
 N 0.3708 0.778 0.554   -0.26887
 N 0.953 0.8553 0.7178   -0.289142
 N 0.9173 0.0132 0.8242   -0.315714
 N 0.1832 0.776 0.554   -0.267189
 N 0.1447 0.047 0.2822   -0.289122
 N 0.9868 0.0827 0.1758   -0.315715
 N 0.224 0.8168 0.446   -0.26719
 N 0.1375 0.2352 0.2822   -0.289464
 N 0.189 0.0931 0.1758   -0.314144
 N 0.222 0.6292 0.446   -0.268883
 N 0.797 0.3875 0.7822   -0.289724
 N 0.8327 0.439 0.6758   -0.3153
 N 0.5668 0.472 0.946   -0.268696
 N 0.9852 0.3947 0.7822   -0.289699
 N 0.8431 0.2368 0.6758   -0.314914
 N 0.3792 0.474 0.946   -0.269358
 O 0.7381 0.4351 0.229   -0.588473
 O 0.6163 0.4909 0.2814   -0.624789
 O 0.9013 0.5994 0.3492   -0.507731
 O 0.8394 0.4587 0.4274   -0.501721
 O 0.9772 0.6251 0.5626   -0.593017
 O 0.9088 0.7561 0.5164   -0.584134
 O 0.4909 0.7939 0.229   -0.588846
 O 0.6651 0.7905 0.2814   -0.626005
 O 0.4479 0.7498 0.3492   -0.508589
 O 0.588 0.9687 0.4274   -0.501296
 O 0.5854 0.9375 0.5626   -0.592711
 O 0.6076 0.7603 0.5164   -0.583301
 O 0.5439 0.9881 0.729   -0.587554
 O 0.5405 0.8663 0.7814   -0.62501
 O 0.4998 0.1513 0.8492   -0.507898
 O 0.7187 0.0894 0.9274   -0.50126
 O 0.6875 0.2272 0.0626   -0.593225
 O 0.5103 0.1588 0.0164   -0.58422
 O 0.1851 0.7409 0.729   -0.589118
 O 0.2409 0.9151 0.7814   -0.625758
 O 0.3494 0.6979 0.8492   -0.508103
 O 0.2087 0.838 0.9274   -0.50165
 O 0.3751 0.8354 0.0626   -0.591942
 O 0.5061 0.8576 0.0164   -0.582898
 O 0.2591 0.8149 0.271   -0.589123
 O 0.0849 0.7591 0.2186   -0.625759
 O 0.3021 0.6506 0.1508   -0.508112
 O 0.162 0.7913 0.0726   -0.501653
 O 0.1646 0.6249 0.9374   -0.591939
 O 0.1424 0.4939 0.9836   -0.582898
 O 0.0119 0.4561 0.271   -0.587557
 O 0.1337 0.4595 0.2186   -0.625016
 O 0.8487 0.5002 0.1508   -0.507895
 O 0.9106 0.2813 0.0726   -0.501263
 O 0.7728 0.3125 0.9374   -0.593224
 O 0.8412 0.4897 0.9836   -0.584219
 O 0.5649 0.2619 0.771   -0.588472
 O 0.5091 0.3837 0.7186   -0.624789
 O 0.4006 0.0987 0.6508   -0.507728
 O 0.5413 0.1606 0.5726   -0.501719
 O 0.3749 0.0228 0.4374   -0.593019
 O 0.2439 0.0912 0.4836   -0.584136
 O 0.2061 0.5091 0.771   -0.588848
 O 0.2095 0.3349 0.7186   -0.626004
 O 0.2502 0.5521 0.6508   -0.508591
 O 0.0313 0.412 0.5726   -0.501296
 O 0.0625 0.4146 0.4374   -0.59271
 O 0.2397 0.3924 0.4836   -0.583301
