{'_ref': 'TBD', '_srcid': 'CAKYAQ_clean', 'submitters': [{'name': 'Dalar Nazarian Jeff Camp and David Sholl', 'email': 'dalar@gatech.edu jcamp6@gatech.edu'}], '_method': 'VASP DFT with PBE;DDEC'}
data_CuH6C6BrN2
_symmetry_space_group_name_H-M   'P 1'
_cell_length_a   12.60079970
_cell_length_b   14.03129999
_cell_length_c   14.03130000
_cell_angle_alpha   78.36819882
_cell_angle_beta   63.31900185
_cell_angle_gamma   63.31890063
_symmetry_Int_Tables_number   1
_chemical_formula_structural   CuH6C6BrN2
_chemical_formula_sum   'Cu8 H48 C48 Br8 N16'
_cell_volume   1980.62584747
_cell_formula_units_Z   8
loop_
 _symmetry_equiv_pos_site_id
 _symmetry_equiv_pos_as_xyz
  1  'x, y, z'
loop_
 _atom_site_label
 _atom_site_fract_x
 _atom_site_fract_y
 _atom_site_fract_z
 _atom_site_charge
 Cu 0.17572 0.47638 0.999   0.286951
 Cu 0.6511 0.52362 0.000999999999998   0.285913
 Cu 0.42472 0.501 0.97638   0.284825
 Cu 0.9021 0.499 0.02362   0.285601
 Cu 0.6511 0.000999999999998 0.52362   0.285909
 Cu 0.17572 0.999 0.47638   0.286954
 Cu 0.9021 0.02362 0.499   0.2856
 Cu 0.42472 0.97638 0.501   0.284818
 H 0.7296 0.392 0.2384   0.118849
 H 0.7999 0.3462 0.1238   0.099109
 H 0.3587 0.2509 0.0793   0.10857
 H 0.2997 0.3568 0.1392   0.097575
 H 0.36 0.608 0.7616   0.119462
 H 0.2699 0.6538 0.8762   0.098927
 H 0.6889 0.7491 0.9207   0.109181
 H 0.7957 0.6432 0.8608   0.099808
 H 0.218 0.2616 0.892   0.119255
 H 0.1737 0.3762 0.8462   0.099156
 H 0.688 0.4207 0.7509   0.110775
 H 0.6889 0.3608 0.8568   0.099113
 H 0.3716 0.7384 0.108   0.117175
 H 0.3961 0.6238 0.1538   0.097764
 H 0.8596 0.5793 0.2491   0.11085
 H 0.9065 0.6392 0.1432   0.098689
 H 0.36 0.7616 0.608   0.119461
 H 0.2699 0.8762 0.6538   0.098951
 H 0.6889 0.9207 0.7491   0.109183
 H 0.7957 0.8608 0.6432   0.099807
 H 0.7296 0.2384 0.392   0.118846
 H 0.7999 0.1238 0.3462   0.099106
 H 0.3587 0.0793 0.2509   0.108569
 H 0.2997 0.1392 0.3568   0.097574
 H 0.3716 0.108 0.7384   0.117171
 H 0.3961 0.1538 0.6238   0.097764
 H 0.8596 0.2491 0.5793   0.110849
 H 0.9065 0.1432 0.6392   0.098688
 H 0.218 0.892 0.2616   0.119253
 H 0.1737 0.8462 0.3762   0.099132
 H 0.688 0.7509 0.4207   0.110776
 H 0.6889 0.8568 0.3608   0.099119
 H 0.6886 0.2501 0.2501   0.088015
 H 0.8326 0.1807 0.1807   0.079782
 H 0.4204 0.2061 0.2061   0.081793
 H 0.2942 0.2861 0.2861   0.081019
 H 0.1888 0.7499 0.7499   0.088483
 H 0.194 0.8193 0.8193   0.081229
 H 0.8326 0.7939 0.7939   0.080337
 H 0.8664 0.7139 0.7139   0.080654
 H 0.1887 0.2499 0.7501   0.086468
 H 0.2633 0.3193 0.6807   0.079923
 H 0.8765 0.2939 0.7061   0.083819
 H 0.8303 0.2139 0.7861   0.080322
 H 0.1887 0.7501 0.2499   0.086466
 H 0.2633 0.6807 0.3193   0.079919
 H 0.8765 0.7061 0.2939   0.083818
 H 0.8303 0.7861 0.2139   0.080321
 C 0.9266 0.3199 0.1843   0.252862
 C 0.1599 0.3042 0.1624   0.230886
 C 0.7995 0.3324 0.1938   -0.249395
 C 0.2962 0.2888 0.145   -0.226828
 C 0.4308 0.6801 0.8157   0.254088
 C 0.6265 0.6958 0.8376   0.232034
 C 0.3257 0.6676 0.8062   -0.249821
 C 0.73 0.7112 0.855   -0.232602
 C 0.3609 0.3157 0.8199   0.254609
 C 0.5723 0.3376 0.8042   0.230871
 C 0.2433 0.3062 0.8324   -0.250269
 C 0.6912 0.355 0.7888   -0.232934
 C 0.4965 0.6843 0.1801   0.252806
 C 0.7141 0.6624 0.1958   0.233619
 C 0.3819 0.6938 0.1676   -0.245531
 C 0.835 0.645 0.2112   -0.232784
 C 0.4308 0.8157 0.6801   0.254086
 C 0.6265 0.8376 0.6958   0.232032
 C 0.3257 0.8062 0.6676   -0.249838
 C 0.73 0.855 0.7112   -0.232608
 C 0.9266 0.1843 0.3199   0.252867
 C 0.1599 0.1624 0.3042   0.23088
 C 0.7995 0.1938 0.3324   -0.249374
 C 0.2962 0.145 0.2888   -0.226823
 C 0.4965 0.1801 0.6843   0.252783
 C 0.7141 0.1958 0.6624   0.233652
 C 0.3819 0.1676 0.6938   -0.245507
 C 0.835 0.2112 0.645   -0.232783
 C 0.3609 0.8199 0.3157   0.254611
 C 0.5723 0.8042 0.3376   0.230866
 C 0.2433 0.8324 0.3062   -0.250238
 C 0.6912 0.7888 0.355   -0.232952
 C 0.9865 0.2452 0.2452   -0.109492
 C 0.1053 0.2363 0.2363   -0.093601
 C 0.7769 0.2349 0.2349   -0.047939
 C 0.327 0.234 0.234   -0.053683
 C 0.4769 0.7548 0.7548   -0.110184
 C 0.5779 0.7637 0.7637   -0.094516
 C 0.2467 0.7651 0.7651   -0.051882
 C 0.795 0.766 0.766   -0.047663
 C 0.4817 0.2548 0.7452   -0.111735
 C 0.5916 0.2637 0.7363   -0.09339
 C 0.2618 0.2651 0.7349   -0.046707
 C 0.811 0.266 0.734   -0.052489
 C 0.4817 0.7452 0.2548   -0.111753
 C 0.5916 0.7363 0.2637   -0.093349
 C 0.2618 0.7349 0.2651   -0.046701
 C 0.811 0.734 0.266   -0.052477
 Br 0.03014 0.60239 0.91453   -0.417395
 Br 0.54706 0.39761 0.08547   -0.417077
 Br 0.19467 0.58547 0.10239   -0.417137
 Br 0.88253 0.41453 0.89761   -0.417276
 Br 0.54706 0.08547 0.39761   -0.417078
 Br 0.03014 0.91453 0.60239   -0.417391
 Br 0.88253 0.89761 0.41453   -0.417273
 Br 0.19467 0.10239 0.58547   -0.417136
 N 0.1014 0.3732 0.1042   -0.150465
 N 0.9827 0.3829 0.1151   -0.162894
 N 0.5788 0.6268 0.8958   -0.148766
 N 0.4807 0.6171 0.8849   -0.163904
 N 0.4556 0.3958 0.8732   -0.148025
 N 0.3478 0.3849 0.8829   -0.16453
 N 0.7246 0.6042 0.1268   -0.148688
 N 0.6156 0.6151 0.1171   -0.165415
 N 0.5788 0.8958 0.6268   -0.148765
 N 0.4807 0.8849 0.6171   -0.163905
 N 0.1014 0.1042 0.3732   -0.150456
 N 0.9827 0.1151 0.3829   -0.162909
 N 0.7246 0.1268 0.6042   -0.148697
 N 0.6156 0.1171 0.6151   -0.165407
 N 0.4556 0.8732 0.3958   -0.148028
 N 0.3478 0.8829 0.3849   -0.164531
