{'_ref': 'TBD', '_srcid': 'CAKYAQ_clean', 'submitters': [{'name': 'Dalar Nazarian Jeff Camp and David Sholl', 'email': 'dalar@gatech.edu jcamp6@gatech.edu'}], '_method': 'VASP DFT with PBE;DDEC'}
data_VH4C8O5
_symmetry_space_group_name_H-M   'P 1'
_cell_length_a   6.82700000
_cell_length_b   13.96500000
_cell_length_c   16.07300000
_cell_angle_alpha   90.00000000
_cell_angle_beta   90.00000000
_cell_angle_gamma   90.00000000
_symmetry_Int_Tables_number   1
_chemical_formula_structural   VH4C8O5
_chemical_formula_sum   'V4 H16 C32 O20'
_cell_volume   1532.38463101
_cell_formula_units_Z   4
loop_
 _symmetry_equiv_pos_site_id
 _symmetry_equiv_pos_as_xyz
  1  'x, y, z'
loop_
 _atom_site_label
 _atom_site_fract_x
 _atom_site_fract_y
 _atom_site_fract_z
 _atom_site_charge
 V 0.93488 0.23585 0.49911   1.915265
 V 0.56512 0.76415 0.99911   1.915265
 V 0.06512 0.73585 0.000889999999998   1.915267
 V 0.43488 0.26415 0.50089   1.915267
 H 0.5519 0.9815 0.1798   0.1118
 H 0.5313 0.0878 0.2868   0.111791
 H 0.9482 0.0521 0.2932   0.111763
 H 0.9689 0.9523 0.1812   0.113364
 H 0.9481 0.0185 0.6798   0.1118
 H 0.9687 0.9122 0.7868   0.111791
 H 0.5518 0.9479 0.7932   0.111763
 H 0.5311 0.0477 0.6812   0.113364
 H 0.4481 0.4815 0.3202   0.1118
 H 0.4687 0.5878 0.2132   0.111791
 H 0.0518 0.5521 0.2068   0.111763
 H 0.0311 0.4523 0.3188   0.113364
 H 0.0519 0.5185 0.8202   0.1118
 H 0.0313 0.4122 0.7132   0.111791
 H 0.4482 0.4479 0.7068   0.111763
 H 0.4689 0.5477 0.8188   0.113364
 C 0.2779 0.8795 0.1046   0.725561
 C 0.2615 0.9526 0.1704   -0.122479
 C 0.4302 0.996 0.2025   -0.057533
 C 0.4177 0.0594 0.2665   -0.05199
 C 0.2242 0.1462 0.3758   0.729143
 C 0.2378 0.0826 0.3025   -0.126962
 C 0.0699 0.0391 0.2698   -0.056328
 C 0.0829 0.9777 0.2039   -0.052808
 C 0.2221 0.1205 0.6046   0.725561
 C 0.2385 0.0474 0.6704   -0.122479
 C 0.0698 0.004 0.7025   -0.057533
 C 0.0823 0.9406 0.7665   -0.051989
 C 0.2758 0.8538 0.8758   0.729143
 C 0.2622 0.9174 0.8025   -0.126962
 C 0.4301 0.9609 0.7698   -0.056328
 C 0.4171 0.0223 0.7039   -0.052808
 C 0.7221 0.3795 0.3954   0.725561
 C 0.7385 0.4526 0.3296   -0.12248
 C 0.5698 0.496 0.2975   -0.057532
 C 0.5823 0.5594 0.2335   -0.051989
 C 0.7758 0.6462 0.1242   0.729143
 C 0.7622 0.5826 0.1975   -0.126962
 C 0.9301 0.5391 0.2302   -0.056328
 C 0.9171 0.4777 0.2961   -0.052807
 C 0.7779 0.6205 0.8954   0.725562
 C 0.7615 0.5474 0.8296   -0.122479
 C 0.9302 0.504 0.7975   -0.057532
 C 0.9177 0.4406 0.7335   -0.051989
 C 0.7242 0.3538 0.6242   0.729143
 C 0.7378 0.4174 0.6975   -0.126962
 C 0.5699 0.4609 0.7302   -0.056328
 C 0.5829 0.5223 0.7961   -0.052807
 O 0.7177 0.1912 0.4942   -0.765581
 O 0.4437 0.8572 0.0785   -0.64158
 O 0.0559 0.166 0.4053   -0.664566
 O 0.1164 0.8426 0.0762   -0.650385
 O 0.3828 0.1807 0.4031   -0.628477
 O 0.7823 0.8088 0.9942   -0.765581
 O 0.0563 0.1428 0.5785   -0.64158
 O 0.4441 0.834 0.9053   -0.664566
 O 0.3836 0.1574 0.5762   -0.650385
 O 0.1172 0.8193 0.9031   -0.628477
 O 0.2823 0.6912 0.0058   -0.765581
 O 0.5563 0.3572 0.4215   -0.641581
 O 0.9441 0.666 0.0947   -0.664566
 O 0.8836 0.3426 0.4238   -0.650385
 O 0.6172 0.6807 0.0969   -0.628477
 O 0.2177 0.3088 0.5058   -0.765582
 O 0.9437 0.6428 0.9215   -0.641581
 O 0.5559 0.334 0.5947   -0.664566
 O 0.6164 0.6574 0.9238   -0.650385
 O 0.8828 0.3193 0.5969   -0.628477
