{'_ref': 'TBD', '_srcid': 'CAKYAQ_clean', 'submitters': [{'name': 'Dalar Nazarian Jeff Camp and David Sholl', 'email': 'dalar@gatech.edu jcamp6@gatech.edu'}], '_method': 'VASP DFT with PBE;DDEC'}
data_VH4C8O5
_symmetry_space_group_name_H-M   'P 1'
_cell_length_a   6.80180000
_cell_length_b   13.53440000
_cell_length_c   16.41560000
_cell_angle_alpha   90.00000000
_cell_angle_beta   90.00000000
_cell_angle_gamma   90.00000000
_symmetry_Int_Tables_number   1
_chemical_formula_structural   VH4C8O5
_chemical_formula_sum   'V4 H16 C32 O20'
_cell_volume   1511.19193269
_cell_formula_units_Z   4
loop_
 _symmetry_equiv_pos_site_id
 _symmetry_equiv_pos_as_xyz
  1  'x, y, z'
loop_
 _atom_site_label
 _atom_site_fract_x
 _atom_site_fract_y
 _atom_site_fract_z
 _atom_site_charge
 V 0.93711 0.7644 0.000720000000001   1.89344
 V 0.56289 0.2356 0.50072   1.89344
 V 0.06289 0.2644 0.49928   1.893443
 V 0.43711 0.7356 0.99928   1.893443
 H 0.5338 0.9446 0.8114   0.110919
 H 0.5547 0.0483 0.7037   0.111596
 H 0.9691 0.0849 0.7086   0.112326
 H 0.95 0.9797 0.8176   0.110975
 H 0.9662 0.0554 0.3114   0.110919
 H 0.9453 0.9517 0.2037   0.111596
 H 0.5309 0.9151 0.2086   0.112326
 H 0.55 0.0203 0.3176   0.110975
 H 0.4662 0.4446 0.6886   0.110919
 H 0.4453 0.5483 0.7963   0.111596
 H 0.0309 0.5849 0.7914   0.112325
 H 0.05 0.4797 0.6824   0.110975
 H 0.0338 0.5554 0.1886   0.110919
 H 0.0547 0.4517 0.2963   0.111596
 H 0.4691 0.4151 0.2914   0.112325
 H 0.45 0.5203 0.1824   0.110975
 C 0.2259 0.8789 0.89403   0.726967
 C 0.2386 0.9491 0.82584   -0.124582
 C 0.4196 0.9724 0.7903   -0.052763
 C 0.4323 0.0341 0.7261   -0.05762
 C 0.2622 0.0772 0.69264   -0.126726
 C 0.0831 0.0561 0.7289   -0.052486
 C 0.0717 0.993 0.79424   -0.053925
 C 0.2745 0.1416 0.62047   0.731874
 C 0.2741 0.1211 0.39403   0.726968
 C 0.2614 0.0509 0.32584   -0.124582
 C 0.0804 0.0276 0.2903   -0.052763
 C 0.0677 0.9659 0.2261   -0.05762
 C 0.2378 0.9228 0.19264   -0.126726
 C 0.4169 0.9439 0.2289   -0.052486
 C 0.4283 0.007 0.29424   -0.053925
 C 0.2255 0.8584 0.12047   0.731874
 C 0.7741 0.3789 0.60597   0.726967
 C 0.7614 0.4491 0.67416   -0.124582
 C 0.5804 0.4724 0.7097   -0.052762
 C 0.5677 0.5341 0.7739   -0.057619
 C 0.7378 0.5772 0.80736   -0.126726
 C 0.9169 0.5561 0.7711   -0.052485
 C 0.9283 0.493 0.70576   -0.053925
 C 0.7255 0.6416 0.87953   0.731874
 C 0.7259 0.6211 0.10597   0.726968
 C 0.7386 0.5509 0.17416   -0.124582
 C 0.9196 0.5276 0.2097   -0.052762
 C 0.9323 0.4659 0.2739   -0.057619
 C 0.7622 0.4228 0.30736   -0.126726
 C 0.5831 0.4439 0.2711   -0.052485
 C 0.5717 0.507 0.20576   -0.053925
 C 0.7745 0.3584 0.37953   0.731874
 O 0.71889 0.81132 0.00422   -0.760064
 O 0.057 0.85743 0.92133   -0.653063
 O 0.4415 0.16017 0.59164   -0.652771
 O 0.386 0.84327 0.92055   -0.629897
 O 0.1141 0.17534 0.59234   -0.634202
 O 0.78111 0.18868 0.50422   -0.760064
 O 0.443 0.14257 0.42133   -0.653063
 O 0.0585 0.83983 0.09164   -0.652771
 O 0.114 0.15673 0.42055   -0.629897
 O 0.3859 0.82466 0.09234   -0.634202
 O 0.28111 0.31132 0.49578   -0.760064
 O 0.943 0.35743 0.57867   -0.653064
 O 0.5585 0.66017 0.90836   -0.652771
 O 0.614 0.34327 0.57945   -0.629897
 O 0.8859 0.67534 0.90766   -0.634201
 O 0.21889 0.68868 0.99578   -0.760065
 O 0.557 0.64257 0.07867   -0.653064
 O 0.9415 0.33983 0.40836   -0.652771
 O 0.886 0.65673 0.07945   -0.629897
 O 0.6141 0.32466 0.40766   -0.634202
