{'_ref': 'TBD', '_srcid': 'CAKYAQ_clean', 'submitters': [{'name': 'Dalar Nazarian Jeff Camp and David Sholl', 'email': 'dalar@gatech.edu jcamp6@gatech.edu'}], '_method': 'VASP DFT with PBE;DDEC'}
data_VH4C8O5
_symmetry_space_group_name_H-M   'P 1'
_cell_length_a   6.82700000
_cell_length_b   13.96500000
_cell_length_c   16.07400000
_cell_angle_alpha   90.00000000
_cell_angle_beta   90.00000000
_cell_angle_gamma   90.00000000
_symmetry_Int_Tables_number   1
_chemical_formula_structural   VH4C8O5
_chemical_formula_sum   'V4 H16 C32 O20'
_cell_volume   1532.47997007
_cell_formula_units_Z   4
loop_
 _symmetry_equiv_pos_site_id
 _symmetry_equiv_pos_as_xyz
  1  'x, y, z'
loop_
 _atom_site_label
 _atom_site_fract_x
 _atom_site_fract_y
 _atom_site_fract_z
 _atom_site_charge
 V 0.93487 0.23597 0.49865   1.907279
 V 0.56513 0.76403 0.99865   1.907279
 V 0.06513 0.73597 0.00135   1.907282
 V 0.43487 0.26403 0.50135   1.907282
 H 0.5512 0.9895 0.1727   0.113845
 H 0.5326 0.0955 0.2823   0.116232
 H 0.9445 0.0658 0.2847   0.113509
 H 0.9662 0.9578 0.1776   0.115232
 H 0.9488 0.0105 0.6727   0.113845
 H 0.9674 0.9045 0.7823   0.116232
 H 0.5555 0.9342 0.7847   0.113509
 H 0.5338 0.0422 0.6776   0.115232
 H 0.4488 0.4895 0.3273   0.113845
 H 0.4674 0.5955 0.2177   0.116232
 H 0.0555 0.5658 0.2153   0.113509
 H 0.0338 0.4578 0.3224   0.115232
 H 0.0512 0.5105 0.8273   0.113845
 H 0.0326 0.4045 0.7177   0.116232
 H 0.4445 0.4342 0.7153   0.113509
 H 0.4662 0.5422 0.8224   0.115232
 C 0.2756 0.8838 0.1015   0.706009
 C 0.2628 0.9595 0.1661   -0.119545
 C 0.4303 0.0032 0.1966   -0.055093
 C 0.4191 0.067 0.262   -0.05645
 C 0.2249 0.1518 0.3718   0.726159
 C 0.2364 0.0892 0.2984   -0.127348
 C 0.0667 0.0489 0.2638   -0.053939
 C 0.0797 0.9848 0.1994   -0.056534
 C 0.2244 0.1162 0.6015   0.70601
 C 0.2372 0.0405 0.6661   -0.119545
 C 0.0697 0.9968 0.6966   -0.055093
 C 0.0809 0.933 0.762   -0.05645
 C 0.2751 0.8482 0.8718   0.726159
 C 0.2636 0.9108 0.7984   -0.127348
 C 0.4333 0.9511 0.7638   -0.053939
 C 0.4203 0.0152 0.6994   -0.056534
 C 0.7244 0.3838 0.3985   0.706009
 C 0.7372 0.4595 0.3339   -0.119545
 C 0.5697 0.5032 0.3034   -0.055092
 C 0.5809 0.567 0.238   -0.05645
 C 0.7751 0.6518 0.1282   0.726159
 C 0.7636 0.5892 0.2016   -0.127348
 C 0.9333 0.5489 0.2362   -0.053938
 C 0.9203 0.4848 0.3006   -0.056533
 C 0.7756 0.6162 0.8985   0.70601
 C 0.7628 0.5405 0.8339   -0.119545
 C 0.9303 0.4968 0.8034   -0.055092
 C 0.9191 0.433 0.738   -0.056449
 C 0.7249 0.3482 0.6282   0.726159
 C 0.7364 0.4108 0.7016   -0.127348
 C 0.5667 0.4511 0.7362   -0.053938
 C 0.5797 0.5152 0.8006   -0.056533
 O 0.7177 0.1927 0.491   -0.760883
 O 0.4464 0.8609 0.074   -0.649522
 O 0.0554 0.1692 0.4009   -0.656914
 O 0.1131 0.8463 0.0749   -0.630985
 O 0.3834 0.1842 0.4018   -0.631057
 O 0.7823 0.8073 0.991   -0.760883
 O 0.0536 0.1391 0.574   -0.649522
 O 0.4446 0.8308 0.9009   -0.656914
 O 0.3869 0.1537 0.5749   -0.630985
 O 0.1166 0.8158 0.9018   -0.631057
 O 0.2823 0.6927 0.009   -0.760883
 O 0.5536 0.3609 0.426   -0.649522
 O 0.9446 0.6692 0.0991   -0.656914
 O 0.8869 0.3463 0.4251   -0.630984
 O 0.6166 0.6842 0.0982   -0.631056
 O 0.2177 0.3073 0.509   -0.760883
 O 0.9464 0.6391 0.926   -0.649522
 O 0.5554 0.3308 0.5991   -0.656914
 O 0.6131 0.6537 0.9251   -0.630985
 O 0.8834 0.3158 0.5982   -0.631057
