{'_ref': 'TBD', '_srcid': 'CAKYAQ_clean', 'submitters': [{'name': 'Dalar Nazarian Jeff Camp and David Sholl', 'email': 'dalar@gatech.edu jcamp6@gatech.edu'}], '_method': 'VASP DFT with PBE;DDEC'}
data_VH4C8O5
_symmetry_space_group_name_H-M   'P 1'
_cell_length_a   6.78840000
_cell_length_b   13.23050000
_cell_length_c   16.63570000
_cell_angle_alpha   90.00000000
_cell_angle_beta   90.00000000
_cell_angle_gamma   90.00000000
_symmetry_Int_Tables_number   1
_chemical_formula_structural   VH4C8O5
_chemical_formula_sum   'V4 H16 C32 O20'
_cell_volume   1494.11753209
_cell_formula_units_Z   4
loop_
 _symmetry_equiv_pos_site_id
 _symmetry_equiv_pos_as_xyz
  1  'x, y, z'
loop_
 _atom_site_label
 _atom_site_fract_x
 _atom_site_fract_y
 _atom_site_fract_z
 _atom_site_charge
 V 0.43877 0.26461 0.49945   1.8903
 V 0.06123 0.73539 0.99945   1.8903
 V 0.56123 0.76461 0.000549999999997   1.890303
 V 0.93877 0.23539 0.50055   1.890303
 H 0.5495 0.9833 0.8188   0.11269
 H 0.5307 0.087 0.7082   0.112822
 H 0.9669 0.9356 0.8072   0.115362
 H 0.9483 0.0393 0.6957   0.112559
 H 0.9505 0.0167 0.3188   0.11269
 H 0.9693 0.913 0.2082   0.112822
 H 0.5331 0.0644 0.3072   0.115362
 H 0.5517 0.9607 0.1957   0.11256
 H 0.4505 0.4833 0.6812   0.11269
 H 0.4693 0.587 0.7918   0.112822
 H 0.0331 0.4356 0.6928   0.115362
 H 0.0517 0.5393 0.8043   0.112559
 H 0.0495 0.5167 0.1812   0.11269
 H 0.0307 0.413 0.2918   0.112822
 H 0.4669 0.5644 0.1928   0.115362
 H 0.4483 0.4607 0.3043   0.11256
 C 0.2728 0.878 0.89332   0.724744
 C 0.2606 0.9489 0.8241   -0.122543
 C 0.4285 0.9945 0.79413   -0.056486
 C 0.4171 0.0565 0.72792   -0.054906
 C 0.0802 0.966 0.78714   -0.059509
 C 0.0691 0.0281 0.72054   -0.056922
 C 0.2384 0.074 0.69041   -0.126579
 C 0.2269 0.1384 0.61753   0.733079
 C 0.2272 0.122 0.39332   0.724745
 C 0.2394 0.0511 0.3241   -0.122542
 C 0.0715 0.0055 0.29413   -0.056486
 C 0.0829 0.9435 0.22792   -0.054906
 C 0.4198 0.034 0.28714   -0.059509
 C 0.4309 0.9719 0.22054   -0.056922
 C 0.2616 0.926 0.19041   -0.126579
 C 0.2731 0.8616 0.11753   0.733079
 C 0.7272 0.378 0.60668   0.724744
 C 0.7394 0.4489 0.6759   -0.122543
 C 0.5715 0.4945 0.70587   -0.056486
 C 0.5829 0.5565 0.77208   -0.054906
 C 0.9198 0.466 0.71286   -0.059509
 C 0.9309 0.5281 0.77946   -0.056922
 C 0.7616 0.574 0.80959   -0.126579
 C 0.7731 0.6384 0.88247   0.733079
 C 0.7728 0.622 0.10668   0.724745
 C 0.7606 0.5511 0.1759   -0.122542
 C 0.9285 0.5055 0.20587   -0.056486
 C 0.9171 0.4435 0.27208   -0.054906
 C 0.5802 0.534 0.21286   -0.059509
 C 0.5691 0.4719 0.27946   -0.056921
 C 0.7384 0.426 0.30959   -0.126579
 C 0.7269 0.3616 0.38247   0.733079
 O 0.21969 0.31192 0.49691   -0.76471
 O 0.3877 0.17118 0.58981   -0.630736
 O 0.4421 0.85785 0.92067   -0.651008
 O 0.0597 0.15637 0.58916   -0.651618
 O 0.1122 0.84273 0.91962   -0.626543
 O 0.28031 0.68808 0.99691   -0.76471
 O 0.1123 0.82882 0.08981   -0.630736
 O 0.0579 0.14215 0.42067   -0.651008
 O 0.4403 0.84363 0.08916   -0.651618
 O 0.3878 0.15727 0.41962   -0.626543
 O 0.78031 0.81192 0.00309   -0.76471
 O 0.6123 0.67118 0.91019   -0.630737
 O 0.5579 0.35785 0.57933   -0.651007
 O 0.9403 0.65637 0.91084   -0.651617
 O 0.8878 0.34273 0.58038   -0.626543
 O 0.71969 0.18808 0.50309   -0.76471
 O 0.8877 0.32882 0.41019   -0.630737
 O 0.9421 0.64215 0.07933   -0.651007
 O 0.5597 0.34363 0.41084   -0.651617
 O 0.6122 0.65727 0.08038   -0.626543
