{'_ref': 'TBD', '_srcid': 'CAKYAQ_clean', 'submitters': [{'name': 'Dalar Nazarian Jeff Camp and David Sholl', 'email': 'dalar@gatech.edu jcamp6@gatech.edu'}], '_method': 'VASP DFT with PBE;DDEC'}
data_ZnH14C18(NO)4
_symmetry_space_group_name_H-M   'P 1'
_cell_length_a   10.27400000
_cell_length_b   14.72400000
_cell_length_c   29.50000000
_cell_angle_alpha   90.00000000
_cell_angle_beta   90.00000000
_cell_angle_gamma   90.00000000
_symmetry_Int_Tables_number   1
_chemical_formula_structural   ZnH14C18(NO)4
_chemical_formula_sum   'Zn8 H112 C144 N32 O32'
_cell_volume   4462.594092
_cell_formula_units_Z   8
loop_
 _symmetry_equiv_pos_site_id
 _symmetry_equiv_pos_as_xyz
  1  'x, y, z'
loop_
 _atom_site_label
 _atom_site_fract_x
 _atom_site_fract_y
 _atom_site_fract_z
 _atom_site_charge
 Zn 0.25 0.75 0.52797   0.853282
 Zn 0.75 0.75 0.02797   0.853282
 Zn 0.25 0.25 0.24245   0.863574
 Zn 0.75 0.25 0.74245   0.863574
 Zn 0.25 0.25 0.97203   0.853282
 Zn 0.75 0.25 0.47203   0.853282
 Zn 0.25 0.75 0.25755   0.863574
 Zn 0.75 0.75 0.75755   0.863574
 H 0.1418 0.9067 0.6515   0.095888
 H 0.0471 0.000500000000002 0.7039   0.100495
 H 0.812 0.1 0.6092   0.086598
 H 0.9043 0.0051 0.5563   0.096069
 H 0.4435 0.714 0.4549   0.082557
 H 0.5606 0.7878 0.4007   0.152456
 H 0.422 0.0241 0.4489   0.144273
 H 0.3084 0.9448 0.5017   0.08465
 H 0.4006 0.9854 0.3325   0.143552
 H 0.2847 0.0669 0.2806   0.066401
 H 0.4716 0.2868 0.3052   0.072568
 H 0.5911 0.2179 0.3598   0.150402
 H 0.6392 0.9278 0.3717   0.298604
 H 0.6288 0.0856 0.4038   0.270439
 H 0.3582 0.5933 0.6515   0.095888
 H 0.4529 0.4995 0.7039   0.100495
 H 0.688 0.4 0.6092   0.086598
 H 0.5957 0.4949 0.5563   0.096069
 H 0.0565 0.786 0.4549   0.082556
 H 0.9394 0.7122 0.4007   0.152456
 H 0.078 0.4759 0.4489   0.144273
 H 0.1916 0.5552 0.5017   0.08465
 H 0.0994 0.5146 0.3325   0.143552
 H 0.2153 0.4331 0.2806   0.066401
 H 0.0284 0.2132 0.3052   0.072568
 H 0.9089 0.2821 0.3598   0.150402
 H 0.8608 0.5722 0.3717   0.298604
 H 0.8712 0.4144 0.4038   0.270439
 H 0.8582 0.9067 0.1515   0.095888
 H 0.9529 0.000500000000002 0.2039   0.100495
 H 0.188 0.1 0.1092   0.086598
 H 0.0957 0.0051 0.0563   0.096069
 H 0.5565 0.714 0.9549   0.082557
 H 0.4394 0.7878 0.9007   0.152456
 H 0.578 0.0241 0.9489   0.144273
 H 0.6916 0.9448 0.0017   0.08465
 H 0.5994 0.9854 0.8325   0.143552
 H 0.7153 0.0669 0.7806   0.066401
 H 0.5284 0.2868 0.8052   0.072568
 H 0.4089 0.2179 0.8598   0.150402
 H 0.3608 0.9278 0.8717   0.298604
 H 0.3712 0.0856 0.9038   0.270439
 H 0.6418 0.5933 0.1515   0.095888
 H 0.5471 0.4995 0.2039   0.100495
 H 0.312 0.4 0.1092   0.086598
 H 0.4043 0.4949 0.0563   0.096069
 H 0.9435 0.786 0.9549   0.082556
 H 0.0606 0.7122 0.9007   0.152456
 H 0.922 0.4759 0.9489   0.144273
 H 0.8084 0.5552 0.0017   0.08465
 H 0.9006 0.5146 0.8325   0.143552
 H 0.7847 0.4331 0.7806   0.066401
 H 0.9716 0.2132 0.8052   0.072568
 H 0.0911 0.2821 0.8598   0.150402
 H 0.1392 0.5722 0.8717   0.298604
 H 0.1288 0.4144 0.9038   0.270439
 H 0.1418 0.0933 0.8485   0.095888
 H 0.0471 0.9995 0.7961   0.100493
 H 0.812 0.9 0.8908   0.086597
 H 0.9043 0.9949 0.9437   0.096069
 H 0.4435 0.286 0.0451   0.082556
 H 0.5606 0.2122 0.0993   0.152456
 H 0.422 0.9759 0.0511   0.144274
 H 0.3084 0.0552 0.9983   0.08465
 H 0.4006 0.0146 0.1675   0.143552
 H 0.2847 0.9331 0.2194   0.066401
 H 0.4716 0.7132 0.1948   0.072568
 H 0.5911 0.7821 0.1402   0.150402
 H 0.6392 0.0722 0.1283   0.298604
 H 0.6288 0.9144 0.0962   0.270439
 H 0.3582 0.4067 0.8485   0.095888
 H 0.4529 0.5005 0.7961   0.100493
 H 0.688 0.6 0.8908   0.086597
 H 0.5957 0.5051 0.9437   0.096069
 H 0.0565 0.214 0.0451   0.082556
 H 0.9394 0.2878 0.0993   0.152456
 H 0.078 0.5241 0.0511   0.144274
 H 0.1916 0.4448 0.9983   0.08465
 H 0.0994 0.4854 0.1675   0.143552
 H 0.2153 0.5669 0.2194   0.0664
 H 0.0284 0.7868 0.1948   0.072568
 H 0.9089 0.7179 0.1402   0.150402
 H 0.8608 0.4278 0.1283   0.298604
 H 0.8712 0.5856 0.0962   0.270439
 H 0.8582 0.0933 0.3485   0.095888
 H 0.9529 0.9995 0.2961   0.100493
 H 0.188 0.9 0.3908   0.086597
 H 0.0957 0.9949 0.4437   0.096069
 H 0.5565 0.286 0.5451   0.082556
 H 0.4394 0.2122 0.5993   0.152456
 H 0.578 0.9759 0.5511   0.144274
 H 0.6916 0.0552 0.4983   0.08465
 H 0.5994 0.0146 0.6675   0.143552
 H 0.7153 0.9331 0.7194   0.066401
 H 0.5284 0.7132 0.6948   0.072568
 H 0.4089 0.7821 0.6402   0.150402
 H 0.3608 0.0722 0.6283   0.298604
 H 0.3712 0.9144 0.5962   0.270439
 H 0.6418 0.4067 0.3485   0.095888
 H 0.5471 0.5005 0.2961   0.100493
 H 0.312 0.6 0.3908   0.086597
 H 0.4043 0.5051 0.4437   0.096069
 H 0.9435 0.214 0.5451   0.082556
 H 0.0606 0.2878 0.5993   0.152456
 H 0.922 0.5241 0.5511   0.144274
 H 0.8084 0.4448 0.4983   0.08465
 H 0.9006 0.4854 0.6675   0.143552
 H 0.7847 0.5669 0.7194   0.0664
 H 0.9716 0.7868 0.6948   0.072568
 H 0.0911 0.7179 0.6402   0.150402
 H 0.1392 0.4278 0.6283   0.298604
 H 0.1288 0.5856 0.5962   0.270439
 C 0.0941 0.8836 0.5632   0.65208
 C 0.0342 0.9468 0.59798   -0.136498
 C 0.0754 0.9458 0.64269   -0.083923
 C 0.0186 0.0021 0.674   -0.071455
 C 0.9202 0.061 0.6621   -0.11295
 C 0.8788 0.0611 0.6179   -0.082637
 C 0.9344 0.0044 0.58599   -0.047047
 C 0.8617 0.1247 0.6959   0.69995
 C 0.44 0.7771 0.4539   0.21275
 C 0.5121 0.821 0.4215   -0.292402
 C 0.5124 0.9156 0.4199   0.281564
 C 0.4297 0.9612 0.4501   -0.300009
 C 0.3605 0.9129 0.48142   0.20274
 C 0.5116 0.0933 0.35183   0.267902
 C 0.4171 0.0468 0.3278   -0.305128
 C 0.3494 0.097 0.29673   0.213004
 C 0.4569 0.2256 0.31101   0.208395
 C 0.5298 0.1849 0.34346   -0.297205
 C 0.4059 0.6164 0.5632   0.65208
 C 0.4658 0.5532 0.59798   -0.136498
 C 0.4246 0.5542 0.64269   -0.083923
 C 0.4814 0.4979 0.674   -0.071455
 C 0.5798 0.439 0.6621   -0.11295
 C 0.6212 0.4389 0.6179   -0.082637
 C 0.5656 0.4956 0.58599   -0.047047
 C 0.6383 0.3753 0.6959   0.69995
 C 0.06 0.7229 0.4539   0.212751
 C 0.9879 0.679 0.4215   -0.292402
 C 0.9876 0.5844 0.4199   0.281564
 C 0.0703 0.5388 0.4501   -0.300009
 C 0.1395 0.5871 0.48142   0.20274
 C 0.9884 0.4067 0.35183   0.267902
 C 0.0829 0.4532 0.3278   -0.305128
 C 0.1506 0.403 0.29673   0.213004
 C 0.0431 0.2744 0.31101   0.208395
 C 0.9702 0.3151 0.34346   -0.297205
 C 0.9059 0.8836 0.0632   0.65208
 C 0.9658 0.9468 0.09798   -0.136498
 C 0.9246 0.9458 0.14269   -0.083923
 C 0.9814 0.0021 0.174   -0.071455
 C 0.0798 0.061 0.1621   -0.11295
 C 0.1212 0.0611 0.1179   -0.082637
 C 0.0656 0.0044 0.08599   -0.047047
 C 0.1383 0.1247 0.1959   0.69995
 C 0.56 0.7771 0.9539   0.21275
 C 0.4879 0.821 0.9215   -0.292402
 C 0.4876 0.9156 0.9199   0.281564
 C 0.5703 0.9612 0.9501   -0.300009
 C 0.6395 0.9129 0.98142   0.20274
 C 0.4884 0.0933 0.85183   0.267902
 C 0.5829 0.0468 0.8278   -0.305128
 C 0.6506 0.097 0.79673   0.213004
 C 0.5431 0.2256 0.81101   0.208395
 C 0.4702 0.1849 0.84346   -0.297205
 C 0.5941 0.6164 0.0632   0.65208
 C 0.5342 0.5532 0.09798   -0.136498
 C 0.5754 0.5542 0.14269   -0.083923
 C 0.5186 0.4979 0.174   -0.071455
 C 0.4202 0.439 0.1621   -0.11295
 C 0.3788 0.4389 0.1179   -0.082637
 C 0.4344 0.4956 0.08599   -0.047047
 C 0.3617 0.3753 0.1959   0.69995
 C 0.94 0.7229 0.9539   0.212751
 C 0.0121 0.679 0.9215   -0.292402
 C 0.0124 0.5844 0.9199   0.281564
 C 0.9297 0.5388 0.9501   -0.300009
 C 0.8605 0.5871 0.98142   0.20274
 C 0.0116 0.4067 0.85183   0.267902
 C 0.9171 0.4532 0.8278   -0.305128
 C 0.8494 0.403 0.79673   0.213004
 C 0.9569 0.2744 0.81101   0.208395
 C 0.0298 0.3151 0.84346   -0.297205
 C 0.0941 0.1164 0.9368   0.652081
 C 0.0342 0.0532 0.90202   -0.136498
 C 0.0754 0.0542 0.85731   -0.083923
 C 0.0186 0.9979 0.826   -0.071455
 C 0.9202 0.939 0.8379   -0.11295
 C 0.8788 0.9389 0.8821   -0.082637
 C 0.9344 0.9956 0.91401   -0.047047
 C 0.8617 0.8753 0.8041   0.69995
 C 0.44 0.2229 0.0461   0.21275
 C 0.5121 0.179 0.0785   -0.292403
 C 0.5124 0.0844 0.0801   0.281564
 C 0.4297 0.0388 0.0499   -0.300009
 C 0.3605 0.0871 0.01858   0.20274
 C 0.5116 0.9067 0.14817   0.267902
 C 0.4171 0.9532 0.1722   -0.305128
 C 0.3494 0.903 0.20327   0.213004
 C 0.4569 0.7744 0.18899   0.208395
 C 0.5298 0.8151 0.15654   -0.297204
 C 0.4059 0.3836 0.9368   0.652081
 C 0.4658 0.4468 0.90202   -0.136498
 C 0.4246 0.4458 0.85731   -0.083923
 C 0.4814 0.5021 0.826   -0.071455
 C 0.5798 0.561 0.8379   -0.11295
 C 0.6212 0.5611 0.8821   -0.082637
 C 0.5656 0.5044 0.91401   -0.047047
 C 0.6383 0.6247 0.8041   0.69995
 C 0.06 0.2771 0.0461   0.212751
 C 0.9879 0.321 0.0785   -0.292402
 C 0.9876 0.4156 0.0801   0.281564
 C 0.0703 0.4612 0.0499   -0.300009
 C 0.1395 0.4129 0.01858   0.20274
 C 0.9884 0.5933 0.14817   0.267902
 C 0.0829 0.5468 0.1722   -0.305128
 C 0.1506 0.597 0.20327   0.213004
 C 0.0431 0.7256 0.18899   0.208396
 C 0.9702 0.6849 0.15654   -0.297204
 C 0.9059 0.1164 0.4368   0.652081
 C 0.9658 0.0532 0.40202   -0.136498
 C 0.9246 0.0542 0.35731   -0.083923
 C 0.9814 0.9979 0.326   -0.071455
 C 0.0798 0.939 0.3379   -0.11295
 C 0.1212 0.9389 0.3821   -0.082637
 C 0.0656 0.9956 0.41401   -0.047047
 C 0.1383 0.8753 0.3041   0.69995
 C 0.56 0.2229 0.5461   0.21275
 C 0.4879 0.179 0.5785   -0.292403
 C 0.4876 0.0844 0.5801   0.281564
 C 0.5703 0.0388 0.5499   -0.300009
 C 0.6395 0.0871 0.51858   0.20274
 C 0.4884 0.9067 0.64817   0.267902
 C 0.5829 0.9532 0.6722   -0.305128
 C 0.6506 0.903 0.70327   0.213004
 C 0.5431 0.7744 0.68899   0.208395
 C 0.4702 0.8151 0.65654   -0.297204
 C 0.5941 0.3836 0.4368   0.652081
 C 0.5342 0.4468 0.40202   -0.136498
 C 0.5754 0.4458 0.35731   -0.083923
 C 0.5186 0.5021 0.326   -0.071455
 C 0.4202 0.561 0.3379   -0.11295
 C 0.3788 0.5611 0.3821   -0.082637
 C 0.4344 0.5044 0.41401   -0.047047
 C 0.3617 0.6247 0.3041   0.69995
 C 0.94 0.2771 0.5461   0.212751
 C 0.0121 0.321 0.5785   -0.292402
 C 0.0124 0.4156 0.5801   0.281564
 C 0.9297 0.4612 0.5499   -0.300009
 C 0.8605 0.4129 0.51858   0.20274
 C 0.0116 0.5933 0.64817   0.267902
 C 0.9171 0.5468 0.6722   -0.305128
 C 0.8494 0.597 0.70327   0.213004
 C 0.9569 0.7256 0.68899   0.208396
 C 0.0298 0.6849 0.65654   -0.297204
 N 0.3635 0.8209 0.48454   -0.410275
 N 0.5885 0.9588 0.38897   -0.23558
 N 0.5849 0.0527 0.38518   -0.239099
 N 0.3662 0.1836 0.28721   -0.373356
 N 0.1365 0.6791 0.48454   -0.410275
 N 0.9115 0.5412 0.38897   -0.23558
 N 0.9151 0.4473 0.38518   -0.239099
 N 0.1338 0.3164 0.28721   -0.373356
 N 0.6365 0.8209 0.98454   -0.410275
 N 0.4115 0.9588 0.88897   -0.23558
 N 0.4151 0.0527 0.88518   -0.239099
 N 0.6338 0.1836 0.78721   -0.373356
 N 0.8635 0.6791 0.98454   -0.410275
 N 0.0885 0.5412 0.88897   -0.23558
 N 0.0849 0.4473 0.88518   -0.239099
 N 0.8662 0.3164 0.78721   -0.373356
 N 0.3635 0.1791 0.01546   -0.410275
 N 0.5885 0.0412 0.11103   -0.23558
 N 0.5849 0.9473 0.11482   -0.239099
 N 0.3662 0.8164 0.21279   -0.373356
 N 0.1365 0.3209 0.01546   -0.410275
 N 0.9115 0.4588 0.11103   -0.23558
 N 0.9151 0.5527 0.11482   -0.239099
 N 0.1338 0.6836 0.21279   -0.373356
 N 0.6365 0.1791 0.51546   -0.410275
 N 0.4115 0.0412 0.61103   -0.23558
 N 0.4151 0.9473 0.61482   -0.239099
 N 0.6338 0.8164 0.71279   -0.373356
 N 0.8635 0.3209 0.51546   -0.410275
 N 0.0885 0.4588 0.61103   -0.23558
 N 0.0849 0.5527 0.61482   -0.239099
 N 0.8662 0.6836 0.71279   -0.373356
 O 0.1932 0.8407 0.57474   -0.611576
 O 0.046 0.8797 0.52484   -0.601532
 O 0.7505 0.1492 0.6898   -0.616732
 O 0.9197 0.1473 0.7283   -0.624361
 O 0.3068 0.6593 0.57474   -0.611576
 O 0.454 0.6203 0.52484   -0.601532
 O 0.7495 0.3508 0.6898   -0.616732
 O 0.5803 0.3527 0.7283   -0.624361
 O 0.8068 0.8407 0.07474   -0.611576
 O 0.954 0.8797 0.02484   -0.601532
 O 0.2495 0.1492 0.1898   -0.616732
 O 0.0803 0.1473 0.2283   -0.624361
 O 0.6932 0.6593 0.07474   -0.611576
 O 0.546 0.6203 0.02484   -0.601532
 O 0.2505 0.3508 0.1898   -0.616732
 O 0.4197 0.3527 0.2283   -0.624361
 O 0.1932 0.1593 0.92526   -0.611576
 O 0.046 0.1203 0.97516   -0.601532
 O 0.7505 0.8508 0.8102   -0.616732
 O 0.9197 0.8527 0.7717   -0.624361
 O 0.3068 0.3407 0.92526   -0.611576
 O 0.454 0.3797 0.97516   -0.601532
 O 0.7495 0.6492 0.8102   -0.616732
 O 0.5803 0.6473 0.7717   -0.624361
 O 0.8068 0.1593 0.42526   -0.611576
 O 0.954 0.1203 0.47516   -0.601532
 O 0.2495 0.8508 0.3102   -0.616732
 O 0.0803 0.8527 0.2717   -0.624361
 O 0.6932 0.3407 0.42526   -0.611576
 O 0.546 0.3797 0.47516   -0.601532
 O 0.2505 0.6492 0.3102   -0.616732
 O 0.4197 0.6473 0.2717   -0.624361
