{'_ref': 'TBD', '_srcid': 'CAKYAQ_clean', 'submitters': [{'name': 'Dalar Nazarian Jeff Camp and David Sholl', 'email': 'dalar@gatech.edu jcamp6@gatech.edu'}], '_method': 'VASP DFT with PBE;DDEC'}
data_ZnH9C13(NO2)2
_symmetry_space_group_name_H-M   'P 1'
_cell_length_a   10.87700028
_cell_length_b   17.61899979
_cell_length_c   20.49900000
_cell_angle_alpha   110.78800089
_cell_angle_beta   93.32599729
_cell_angle_gamma   90.40800185
_symmetry_Int_Tables_number   1
_chemical_formula_structural   ZnH9C13(NO2)2
_chemical_formula_sum   'Zn8 H72 C104 N16 O32'
_cell_volume   3664.92063007
_cell_formula_units_Z   8
loop_
 _symmetry_equiv_pos_site_id
 _symmetry_equiv_pos_as_xyz
  1  'x, y, z'
loop_
 _atom_site_label
 _atom_site_fract_x
 _atom_site_fract_y
 _atom_site_fract_z
 _atom_site_charge
 Zn 0.18325 0.43882 0.22738   0.9269
 Zn 0.17825 0.55822 0.15516   0.934495
 Zn 0.1434 0.93974 0.72437   0.935249
 Zn 0.13234 0.05801 0.65083   0.937334
 Zn 0.81675 0.56118 0.77262   0.9269
 Zn 0.82175 0.44178 0.84484   0.934495
 Zn 0.8566 0.06026 0.27563   0.935249
 Zn 0.86766 0.94199 0.34917   0.937334
 H 0.2167 0.2213 0.0378   0.094873
 H 0.2049 0.1196 0.9331   0.095235
 H 0.1397 0.2781 0.8382   0.100491
 H 0.1482 0.3828 0.9453   0.098411
 H 0.5771 0.4046 0.2284   0.092044
 H 0.7862 0.4 0.2263   0.092736
 H 0.788 0.5813 0.1556   0.094819
 H 0.5789 0.5872 0.1582   0.105888
 H 0.1531 0.6166 0.4326   0.090274
 H 0.1261 0.7188 0.5377   0.097068
 H 0.1351 0.8812 0.4416   0.099768
 H 0.1541 0.7788 0.3373   0.099352
 H 0.1599 0.5499 0.0066   0.082542
 H 0.1328 0.6314 0.9432   0.131257
 H 0.151 0.8233 0.1228   0.152307
 H 0.1773 0.7357 0.1823   0.092044
 H 0.2333 0.8674 0.9324   0.134597
 H 0.2608 0.9289 0.8549   0.081809
 H 0.0066 0.7931 0.7256   0.072611
 H 0.9725 0.7279 0.7996   0.130332
 H 0.5436 0.9099 0.7332   0.091752
 H 0.7566 0.9106 0.7294   0.092238
 H 0.737 0.0858 0.6514   0.099517
 H 0.5244 0.0827 0.6528   0.105748
 H 0.1538 0.0533 0.5055   0.087443
 H 0.1905 0.138 0.446   0.136645
 H 0.1898 0.3253 0.63   0.147985
 H 0.1527 0.2348 0.6835   0.091738
 H 0.391 0.2536 0.3279   0.154365
 H 0.3451 0.3131 0.2453   0.093957
 H 0.0662 0.4162 0.3456   0.079563
 H 0.0973 0.3578 0.4268   0.140471
 H 0.1261 0.8404 0.0112   0.30768
 H 0.0199 0.7137 0.9086   0.283393
 H 0.2166 0.3483 0.5206   0.308363
 H 0.3356 0.2297 0.4286   0.309054
 H 0.7833 0.7787 0.9622   0.094873
 H 0.7951 0.8804 0.0669   0.095235
 H 0.8603 0.7219 0.1618   0.100491
 H 0.8518 0.6172 0.0547   0.098411
 H 0.4229 0.5954 0.7716   0.092044
 H 0.2138 0.6 0.7737   0.092737
 H 0.212 0.4187 0.8444   0.094818
 H 0.4211 0.4128 0.8418   0.105888
 H 0.8469 0.3834 0.5674   0.090274
 H 0.8739 0.2812 0.4623   0.097068
 H 0.8649 0.1188 0.5584   0.099768
 H 0.8459 0.2212 0.6627   0.099352
 H 0.8401 0.4501 0.9934   0.082542
 H 0.8672 0.3686 0.0568   0.131257
 H 0.849 0.1767 0.8772   0.152307
 H 0.8227 0.2643 0.8177   0.092043
 H 0.7667 0.1326 0.0676   0.134596
 H 0.7392 0.0711 0.1451   0.081808
 H 0.9934 0.2069 0.2744   0.072611
 H 0.0275 0.2721 0.2004   0.130332
 H 0.4564 0.0901 0.2668   0.091752
 H 0.2434 0.0894 0.2706   0.092238
 H 0.263 0.9142 0.3486   0.099517
 H 0.4756 0.9173 0.3472   0.105748
 H 0.8462 0.9467 0.4945   0.087443
 H 0.8095 0.862 0.554   0.136645
 H 0.8102 0.6747 0.37   0.147985
 H 0.8473 0.7652 0.3165   0.091738
 H 0.609 0.7464 0.6721   0.154366
 H 0.6549 0.6869 0.7547   0.093957
 H 0.9338 0.5838 0.6544   0.079563
 H 0.9027 0.6422 0.5732   0.140472
 H 0.8739 0.1596 0.9888   0.30768
 H 0.9801 0.2863 0.0914   0.283393
 H 0.7834 0.6517 0.4794   0.308363
 H 0.6644 0.7703 0.5714   0.309054
 C 0.1797 0.3796 0.0728   0.672399
 C 0.1802 0.3124 0.0035   -0.137431
 C 0.1991 0.2331 0.9976   -0.067074
 C 0.1928 0.1726 0.9354   -0.066266
 C 0.1686 0.1879 0.8747   -0.11372
 C 0.1536 0.2668 0.8789   -0.065427
 C 0.1589 0.3296 0.9429   -0.051575
 C 0.1564 0.1204 0.8046   0.684323
 C 0.4162 0.4992 0.1958   0.691302
 C 0.5543 0.4977 0.1945   -0.114437
 C 0.6195 0.4414 0.214   -0.069158
 C 0.7443 0.4385 0.2128   -0.078896
 C 0.8084 0.4916 0.1918   -0.127142
 C 0.7454 0.5457 0.1711   -0.058279
 C 0.62 0.5491 0.1725   -0.050943
 C 0.9454 0.4883 0.1902   0.673008
 C 0.1713 0.6198 0.3058   0.699555
 C 0.1571 0.686 0.3734   -0.130839
 C 0.1489 0.6699 0.4344   -0.071939
 C 0.1348 0.7312 0.4977   -0.081706
 C 0.1338 0.8112 0.5014   -0.121326
 C 0.1392 0.8279 0.44   -0.056045
 C 0.1506 0.7666 0.3778   -0.053132
 C 0.1277 0.8788 0.5708   0.673488
 C 0.1568 0.6056 0.0303   0.218807
 C 0.1405 0.6538 0.9918   -0.29833
 C 0.1355 0.7367 0.0258   0.263368
 C 0.1513 0.7676 0.0985   -0.300642
 C 0.1672 0.7147 0.1338   0.196279
 C 0.094 0.7944 0.8784   0.269019
 C 0.1833 0.8523 0.8912   -0.339993
 C 0.1999 0.8882 0.8439   0.218635
 C 0.0519 0.8091 0.7684   0.179815
 C 0.0302 0.7706 0.8126   -0.286367
 C 0.3729 0.9935 0.6925   0.689463
 C 0.5114 0.9948 0.6918   -0.109725
 C 0.5819 0.9452 0.7156   -0.083106
 C 0.7103 0.946 0.7142   -0.09378
 C 0.7667 0.9993 0.6902   -0.120562
 C 0.6984 0.0493 0.6677   -0.06196
 C 0.5702 0.0474 0.6685   -0.058176
 C 0.9024 0.9995 0.6884   0.679898
 C 0.1625 0.1088 0.5306   0.224611
 C 0.1857 0.1588 0.4942   -0.29611
 C 0.2016 0.24 0.5308   0.251864
 C 0.1849 0.2699 0.6043   -0.28672
 C 0.1618 0.2156 0.6356   0.195246
 C 0.2498 0.3036 0.3891   0.274715
 C 0.3243 0.2874 0.3324   -0.304531
 C 0.2959 0.3231 0.283   0.186389
 C 0.1328 0.3824 0.3416   0.2174
 C 0.1516 0.3491 0.3916   -0.314889
 C 0.8203 0.6204 0.9272   0.672399
 C 0.8198 0.6876 0.9965   -0.137431
 C 0.8009 0.7669 0.0024   -0.067074
 C 0.8072 0.8274 0.0646   -0.066266
 C 0.8314 0.8121 0.1253   -0.11372
 C 0.8464 0.7332 0.1211   -0.065427
 C 0.8411 0.6704 0.0571   -0.051575
 C 0.8436 0.8796 0.1954   0.684323
 C 0.5838 0.5008 0.8042   0.691302
 C 0.4457 0.5023 0.8055   -0.114437
 C 0.3805 0.5586 0.786   -0.069159
 C 0.2557 0.5615 0.7872   -0.078896
 C 0.1916 0.5084 0.8082   -0.127142
 C 0.2546 0.4543 0.8289   -0.058279
 C 0.38 0.4509 0.8275   -0.050942
 C 0.0546 0.5117 0.8098   0.673008
 C 0.8287 0.3802 0.6942   0.699555
 C 0.8429 0.314 0.6266   -0.130838
 C 0.8511 0.3301 0.5656   -0.071939
 C 0.8652 0.2688 0.5023   -0.081706
 C 0.8662 0.1888 0.4986   -0.121326
 C 0.8608 0.1721 0.56   -0.056045
 C 0.8494 0.2334 0.6222   -0.053132
 C 0.8723 0.1212 0.4292   0.673488
 C 0.8432 0.3944 0.9697   0.218807
 C 0.8595 0.3462 0.0082   -0.29833
 C 0.8645 0.2633 0.9742   0.263368
 C 0.8487 0.2324 0.9015   -0.300642
 C 0.8328 0.2853 0.8662   0.196279
 C 0.906 0.2056 0.1216   0.269019
 C 0.8167 0.1477 0.1088   -0.339992
 C 0.8001 0.1118 0.1561   0.218635
 C 0.9481 0.1909 0.2316   0.179815
 C 0.9698 0.2294 0.1874   -0.286367
 C 0.6271 0.0065 0.3075   0.689463
 C 0.4886 0.0052 0.3082   -0.109725
 C 0.4181 0.0548 0.2844   -0.083106
 C 0.2897 0.054 0.2858   -0.09378
 C 0.2333 0.000700000000002 0.3098   -0.120562
 C 0.3016 0.9507 0.3323   -0.06196
 C 0.4298 0.9526 0.3315   -0.058176
 C 0.0976 0.000500000000002 0.3116   0.679898
 C 0.8375 0.8912 0.4694   0.224611
 C 0.8143 0.8412 0.5058   -0.29611
 C 0.7984 0.76 0.4692   0.251865
 C 0.8151 0.7301 0.3957   -0.28672
 C 0.8382 0.7844 0.3644   0.195246
 C 0.7502 0.6964 0.6109   0.274715
 C 0.6757 0.7126 0.6676   -0.304531
 C 0.7041 0.6769 0.717   0.186389
 C 0.8672 0.6176 0.6584   0.2174
 C 0.8484 0.6509 0.6084   -0.314889
 N 0.1687 0.633 0.1006   -0.366594
 N 0.1122 0.789 0.9909   -0.256265
 N 0.066 0.757 0.9227   -0.192645
 N 0.1362 0.8699 0.7835   -0.35603
 N 0.1515 0.1345 0.5999   -0.36025
 N 0.2309 0.2976 0.5007   -0.267534
 N 0.2838 0.2682 0.4375   -0.245911
 N 0.2006 0.371 0.2881   -0.348184
 N 0.8313 0.367 0.8994   -0.366594
 N 0.8878 0.211 0.0091   -0.256265
 N 0.934 0.243 0.0773   -0.192645
 N 0.8638 0.1301 0.2165   -0.35603
 N 0.8485 0.8655 0.4001   -0.36025
 N 0.7691 0.7024 0.4993   -0.267534
 N 0.7162 0.7318 0.5625   -0.245911
 N 0.7994 0.629 0.7119   -0.348183
 O 0.1687 0.3595 0.12585   -0.616879
 O 0.188 0.4513 0.07479   -0.579542
 O 0.1557 0.0494 0.805   -0.618721
 O 0.1469 0.1377 0.751   -0.589571
 O 0.3637 0.4495 0.2155   -0.602238
 O 0.3635 0.5504 0.1749   -0.598449
 O 0.9965 0.528 0.1593   -0.59099
 O 0.999 0.4461 0.2206   -0.607005
 O 0.1866 0.55 0.30601   -0.616595
 O 0.1681 0.6386 0.25262   -0.592638
 O 0.1327 0.8609 0.625   -0.601249
 O 0.123 0.9501 0.5709   -0.5939
 O 0.3267 0.9472 0.719   -0.601426
 O 0.3161 0.0378 0.6667   -0.598884
 O 0.9599 0.9576 0.7156   -0.592076
 O 0.9489 0.0446 0.6595   -0.598132
 O 0.8313 0.6405 0.87415   -0.616879
 O 0.812 0.5487 0.92521   -0.579542
 O 0.8443 0.9506 0.195   -0.618721
 O 0.8531 0.8623 0.249   -0.589571
 O 0.6363 0.5505 0.7845   -0.602238
 O 0.6365 0.4496 0.8251   -0.598449
 O 0.0035 0.472 0.8407   -0.59099
 O 0.000999999999998 0.5539 0.7794   -0.607005
 O 0.8134 0.45 0.69399   -0.616595
 O 0.8319 0.3614 0.74738   -0.592638
 O 0.8673 0.1391 0.375   -0.601249
 O 0.877 0.0499 0.4291   -0.5939
 O 0.6733 0.0528 0.281   -0.601426
 O 0.6839 0.9622 0.3333   -0.598884
 O 0.0401 0.0424 0.2844   -0.592076
 O 0.0511 0.9554 0.3405   -0.598132
