{'_ref': 'TBD', '_srcid': 'CAKYAQ_clean', 'submitters': [{'name': 'Dalar Nazarian Jeff Camp and David Sholl', 'email': 'dalar@gatech.edu jcamp6@gatech.edu'}], '_method': 'VASP DFT with PBE;DDEC'}
data_CoH22C32(N2O3)2
_symmetry_space_group_name_H-M   'P 1'
_cell_length_a   16.12999966
_cell_length_b   16.87869991
_cell_length_c   16.87870000
_cell_angle_alpha   87.62349921
_cell_angle_beta   79.16200075
_cell_angle_gamma   79.16200041
_symmetry_Int_Tables_number   1
_chemical_formula_structural   CoH22C32(N2O3)2
_chemical_formula_sum   'Co4 H88 C128 N16 O24'
_cell_volume   4432.72266808
_cell_formula_units_Z   4
loop_
 _symmetry_equiv_pos_site_id
 _symmetry_equiv_pos_as_xyz
  1  'x, y, z'
loop_
 _atom_site_label
 _atom_site_fract_x
 _atom_site_fract_y
 _atom_site_fract_z
 _atom_site_charge
 Co 0.23666 0.23746 0.21786   0.839525
 Co 0.26334 0.78214 0.76254   0.839525
 Co 0.76334 0.76254 0.78214   0.839525
 Co 0.73666 0.21786 0.23746   0.839525
 H 0.4146 0.4855 0.9451   0.308845
 H 0.4881 0.1511 0.3205   0.096346
 H 0.5281 0.3966 0.583   0.315546
 H 0.5702 0.0709 0.4027   0.091837
 H 0.3598 0.9953 0.5231   0.084243
 H 0.2779 0.07 0.4378   0.085173
 H 0.9928 0.1649 0.1561   0.095067
 H 0.9208 0.0996 0.0812   0.097196
 H 0.3494 0.3609 0.1791   0.062346
 H 0.2365 0.2634 0.0352   0.086476
 H 0.2911 0.3381 0.9273   0.163282
 H 0.4162 0.4296 0.0768   0.125197
 H 0.4197 0.5898 0.867   0.104132
 H 0.4921 0.6704 0.7798   0.117608
 H 0.5721 0.6234 0.655   0.105603
 H 0.4871 0.4104 0.7032   0.096141
 H 0.5898 0.2305 0.3753   0.075071
 H 0.5238 0.3027 0.4885   0.150264
 H 0.7041 0.4396 0.4422   0.153308
 H 0.7619 0.3661 0.3285   0.076281
 H 0.1354 0.9452 0.9962   0.105109
 H 0.2081 0.0152 0.0676   0.09473
 H 0.0854 0.0549 0.5145   0.308846
 H 0.0119 0.6795 0.8489   0.096346
 H 0.9719 0.417 0.6034   0.315546
 H 0.9298 0.5973 0.9291   0.091837
 H 0.1402 0.4769 0.0047   0.084243
 H 0.2221 0.5622 0.93   0.085174
 H 0.5072 0.8439 0.8351   0.095067
 H 0.5792 0.9188 0.9004   0.097196
 H 0.1506 0.8209 0.6391   0.062346
 H 0.2635 0.9648 0.7366   0.086476
 H 0.2089 0.0727 0.6619   0.163282
 H 0.0838 0.9232 0.5704   0.125197
 H 0.0803 0.133 0.4102   0.104132
 H 0.0079 0.2202 0.3296   0.117609
 H 0.9279 0.345 0.3766   0.105604
 H 0.0129 0.2968 0.5896   0.096141
 H 0.9102 0.6247 0.7695   0.075071
 H 0.9762 0.5115 0.6973   0.150264
 H 0.7959 0.5578 0.5604   0.153307
 H 0.7381 0.6715 0.6339   0.076283
 H 0.3646 0.0038 0.0548   0.105108
 H 0.2919 0.9324 0.9848   0.094729
 H 0.5854 0.5145 0.0549   0.308847
 H 0.5119 0.8489 0.6795   0.096346
 H 0.4719 0.6034 0.417   0.315546
 H 0.4298 0.9291 0.5973   0.091838
 H 0.6402 0.0047 0.4769   0.084243
 H 0.7221 0.93 0.5622   0.085173
 H 0.0072 0.8351 0.8439   0.095066
 H 0.0792 0.9004 0.9188   0.097195
 H 0.6506 0.6391 0.8209   0.062346
 H 0.7635 0.7366 0.9648   0.086477
 H 0.7089 0.6619 0.0727   0.163282
 H 0.5838 0.5704 0.9232   0.125199
 H 0.5803 0.4102 0.133   0.104133
 H 0.5079 0.3296 0.2202   0.117609
 H 0.4279 0.3766 0.345   0.105604
 H 0.5129 0.5896 0.2968   0.096141
 H 0.4102 0.7695 0.6247   0.075071
 H 0.4762 0.6973 0.5115   0.150264
 H 0.2959 0.5604 0.5578   0.153307
 H 0.2381 0.6339 0.6715   0.076281
 H 0.8646 0.0548 0.0038   0.105108
 H 0.7919 0.9848 0.9324   0.09473
 H 0.9146 0.9451 0.4855   0.308847
 H 0.9881 0.3205 0.1511   0.096346
 H 0.0281 0.583 0.3966   0.315546
 H 0.0702 0.4027 0.0709   0.091838
 H 0.8598 0.5231 0.9953   0.084243
 H 0.7779 0.4378 0.07   0.085174
 H 0.4928 0.1561 0.1649   0.095067
 H 0.4208 0.0812 0.0996   0.097195
 H 0.8494 0.1791 0.3609   0.062346
 H 0.7365 0.0352 0.2634   0.086477
 H 0.7911 0.9273 0.3381   0.163282
 H 0.9162 0.0768 0.4296   0.125199
 H 0.9197 0.867 0.5898   0.104133
 H 0.9921 0.7798 0.6704   0.11761
 H 0.0721 0.655 0.6234   0.105605
 H 0.9871 0.7032 0.4104   0.096141
 H 0.0898 0.3753 0.2305   0.075071
 H 0.0238 0.4885 0.3027   0.150264
 H 0.2041 0.4422 0.4396   0.153307
 H 0.2619 0.3285 0.3661   0.076283
 H 0.6354 0.9962 0.9452   0.105107
 H 0.7081 0.0676 0.0152   0.094729
 C 0.32144 0.16395 0.31435   0.629937
 C 0.375 0.11704 0.3696   -0.127997
 C 0.4618 0.11819 0.36091   -0.036914
 C 0.51013 0.07156 0.41096   -0.132172
 C 0.47343 0.02547 0.47309   0.044244
 C 0.3867 0.02642 0.48118   -0.13206
 C 0.3376 0.071 0.4306   -0.042911
 C 0.1613 0.15822 0.14478   0.612072
 C 0.0238 0.12294 0.12044   -0.055184
 C 0.9799 0.07874 0.08042   -0.088432
 C 0.3389 0.3544 0.1264   0.208157
 C 0.2726 0.29933 0.04397   0.203552
 C 0.3051 0.34366 0.97866   -0.271472
 C 0.3581 0.39589 0.98925   0.324918
 C 0.3767 0.3977 0.0665   -0.300129
 C 0.4057 0.43324 0.84828   0.555273
 C 0.4501 0.49088 0.79486   -0.143377
 C 0.4502 0.56942 0.81602   -0.046718
 C 0.4932 0.61661 0.76453   -0.065999
 C 0.5397 0.58963 0.68929   -0.025631
 C 0.5375 0.51173 0.66523   -0.17263
 C 0.4907 0.46288 0.71912   -0.024054
 C 0.6137 0.27443 0.38863   0.187555
 C 0.5745 0.31662 0.45702   -0.301601
 C 0.608 0.37918 0.48074   0.321507
 C 0.6785 0.39633 0.43021   -0.284271
 C 0.7127 0.35177 0.36213   0.207094
 C 0.5873 0.48535 0.58347   0.552737
 C 0.1078 0.1066 0.109   -0.108331
 C 0.0134 0.0092 0.0408   0.001555
 C 0.105 0.9889 0.0297   -0.108657
 C 0.1486 0.0337 0.0683   -0.08416
 C 0.17856 0.68565 0.83605   0.629937
 C 0.125 0.6304 0.88296   -0.127997
 C 0.0382 0.63909 0.88181   -0.036914
 C 0.98987 0.58904 0.92844   -0.132172
 C 0.02657 0.52691 0.97453   0.044244
 C 0.1133 0.51882 0.97358   -0.13206
 C 0.1624 0.5694 0.929   -0.042911
 C 0.3387 0.85522 0.84178   0.612072
 C 0.4762 0.87956 0.87706   -0.055184
 C 0.5201 0.91958 0.92126   -0.088432
 C 0.1611 0.8736 0.6456   0.208157
 C 0.2274 0.95603 0.70067   0.203552
 C 0.1949 0.02134 0.65634   -0.271471
 C 0.1419 0.01075 0.60411   0.324918
 C 0.1233 0.9335 0.6023   -0.300129
 C 0.0943 0.15172 0.56676   0.555274
 C 0.0499 0.20514 0.50912   -0.143377
 C 0.0498 0.18398 0.43058   -0.046718
 C 0.0068 0.23547 0.38339   -0.065999
 C 0.9603 0.31071 0.41037   -0.025631
 C 0.9625 0.33477 0.48827   -0.17263
 C 0.0093 0.28088 0.53712   -0.024053
 C 0.8863 0.61137 0.72557   0.187555
 C 0.9255 0.54298 0.68338   -0.301601
 C 0.892 0.51926 0.62082   0.321508
 C 0.8215 0.56979 0.60367   -0.28427
 C 0.7873 0.63787 0.64823   0.207094
 C 0.9127 0.41653 0.51465   0.552739
 C 0.3922 0.891 0.8934   -0.108331
 C 0.4866 0.9592 0.9908   0.001555
 C 0.395 0.9703 0.0111   -0.108658
 C 0.3514 0.9317 0.9663   -0.084159
 C 0.67856 0.83605 0.68565   0.629937
 C 0.625 0.88296 0.6304   -0.127998
 C 0.5382 0.88181 0.63909   -0.036914
 C 0.48987 0.92844 0.58904   -0.132173
 C 0.52657 0.97453 0.52691   0.044243
 C 0.6133 0.97358 0.51882   -0.13206
 C 0.6624 0.929 0.5694   -0.042911
 C 0.8387 0.84178 0.85522   0.612072
 C 0.9762 0.87706 0.87956   -0.055182
 C 0.0201 0.92126 0.91958   -0.088436
 C 0.6611 0.6456 0.8736   0.208159
 C 0.7274 0.70067 0.95603   0.203553
 C 0.6949 0.65634 0.02134   -0.271471
 C 0.6419 0.60411 0.01075   0.324919
 C 0.6233 0.6023 0.9335   -0.300128
 C 0.5943 0.56676 0.15172   0.555274
 C 0.5499 0.50912 0.20514   -0.143376
 C 0.5498 0.43058 0.18398   -0.046718
 C 0.5068 0.38339 0.23547   -0.065999
 C 0.4603 0.41037 0.31071   -0.025632
 C 0.4625 0.48827 0.33477   -0.17263
 C 0.5093 0.53712 0.28088   -0.024052
 C 0.3863 0.72557 0.61137   0.187556
 C 0.4255 0.68338 0.54298   -0.301601
 C 0.392 0.62082 0.51926   0.321507
 C 0.3215 0.60367 0.56979   -0.28427
 C 0.2873 0.64823 0.63787   0.207095
 C 0.4127 0.51465 0.41653   0.552737
 C 0.8922 0.8934 0.891   -0.108332
 C 0.9866 0.9908 0.9592   0.001552
 C 0.895 0.0111 0.9703   -0.108658
 C 0.8514 0.9663 0.9317   -0.08416
 C 0.82144 0.31435 0.16395   0.629937
 C 0.875 0.3696 0.11704   -0.127998
 C 0.9618 0.36091 0.11819   -0.036914
 C 0.01013 0.41096 0.07156   -0.132173
 C 0.97343 0.47309 0.02547   0.044243
 C 0.8867 0.48118 0.02642   -0.13206
 C 0.8376 0.4306 0.071   -0.042911
 C 0.6613 0.14478 0.15822   0.612072
 C 0.5238 0.12044 0.12294   -0.055182
 C 0.4799 0.08042 0.07874   -0.088436
 C 0.8389 0.1264 0.3544   0.208159
 C 0.7726 0.04397 0.29933   0.203553
 C 0.8051 0.97866 0.34366   -0.271471
 C 0.8581 0.98925 0.39589   0.324919
 C 0.8767 0.0665 0.3977   -0.300128
 C 0.9057 0.84828 0.43324   0.555274
 C 0.9501 0.79486 0.49088   -0.143376
 C 0.9502 0.81602 0.56942   -0.046718
 C 0.9932 0.76453 0.61661   -0.065999
 C 0.0397 0.68929 0.58963   -0.025631
 C 0.0375 0.66523 0.51173   -0.172629
 C 0.9907 0.71912 0.46288   -0.024052
 C 0.1137 0.38863 0.27443   0.187556
 C 0.0745 0.45702 0.31662   -0.301601
 C 0.108 0.48074 0.37918   0.321508
 C 0.1785 0.43021 0.39633   -0.284269
 C 0.2127 0.36213 0.35177   0.207095
 C 0.0873 0.58347 0.48535   0.552739
 C 0.6078 0.109 0.1066   -0.108332
 C 0.5134 0.0408 0.0092   0.001552
 C 0.605 0.0297 0.9889   -0.108658
 C 0.6486 0.0683 0.0337   -0.084159
 N 0.28818 0.30345 0.11813   -0.362694
 N 0.3957 0.44428 0.92922   -0.441177
 N 0.68298 0.29079 0.33955   -0.381318
 N 0.5693 0.41805 0.55309   -0.439867
 N 0.21182 0.88187 0.69655   -0.362694
 N 0.1043 0.07078 0.55572   -0.441177
 N 0.81702 0.66045 0.70921   -0.381318
 N 0.9307 0.44691 0.58195   -0.439868
 N 0.71182 0.69655 0.88187   -0.362695
 N 0.6043 0.55572 0.07078   -0.441178
 N 0.31702 0.70921 0.66045   -0.381318
 N 0.4307 0.58195 0.44691   -0.439868
 N 0.78818 0.11813 0.30345   -0.362695
 N 0.8957 0.92922 0.44428   -0.441178
 N 0.18298 0.33955 0.29079   -0.381318
 N 0.0693 0.55309 0.41805   -0.439868
 O 0.35398 0.21382 0.26496   -0.575464
 O 0.24707 0.15275 0.31575   -0.563131
 O 0.12279 0.21987 0.18417   -0.562552
 O 0.24113 0.13483 0.13883   -0.552193
 O 0.3822 0.37891 0.81993   -0.479038
 O 0.6398 0.52104 0.5473   -0.467799
 O 0.14602 0.73504 0.78618   -0.575464
 O 0.25293 0.68425 0.84725   -0.563131
 O 0.37721 0.81583 0.78013   -0.562552
 O 0.25887 0.86117 0.86517   -0.552193
 O 0.1178 0.18007 0.62109   -0.479038
 O 0.8602 0.4527 0.47896   -0.467799
 O 0.64602 0.78618 0.73504   -0.575464
 O 0.75293 0.84725 0.68425   -0.563131
 O 0.87721 0.78013 0.81583   -0.562552
 O 0.75887 0.86517 0.86117   -0.552193
 O 0.6178 0.62109 0.18007   -0.479038
 O 0.3602 0.47896 0.4527   -0.467799
 O 0.85398 0.26496 0.21382   -0.575464
 O 0.74707 0.31575 0.15275   -0.563131
 O 0.62279 0.18417 0.21987   -0.562552
 O 0.74113 0.13883 0.13483   -0.552193
 O 0.8822 0.81993 0.37891   -0.479038
 O 0.1398 0.5473 0.52104   -0.467799
