{'_ref': 'TBD', '_srcid': 'CAKYAQ_clean', 'submitters': [{'name': 'Dalar Nazarian Jeff Camp and David Sholl', 'email': 'dalar@gatech.edu jcamp6@gatech.edu'}], '_method': 'VASP DFT with PBE;DDEC'}
data_Ag2H22C11S2(N2O3)2
_symmetry_space_group_name_H-M   'P 1'
_cell_length_a   6.73379992
_cell_length_b   16.69029963
_cell_length_c   16.69030000
_cell_angle_alpha   87.66779952
_cell_angle_beta   78.36219979
_cell_angle_gamma   78.36199986
_symmetry_Int_Tables_number   1
_chemical_formula_structural   Ag2H22C11S2(N2O3)2
_chemical_formula_sum   'Ag8 H88 C44 S8 N16 O24'
_cell_volume   1799.47556377
_cell_formula_units_Z   4
loop_
 _symmetry_equiv_pos_site_id
 _symmetry_equiv_pos_as_xyz
  1  'x, y, z'
loop_
 _atom_site_label
 _atom_site_fract_x
 _atom_site_fract_y
 _atom_site_fract_z
 _atom_site_charge
 Ag 0.91632 0.89096 0.38256   0.418979
 Ag 0.18984 0.60904 0.11744   0.419062
 Ag 0.29888 0.11744 0.89096   0.418116
 Ag 0.30728 0.38256 0.60904   0.418436
 Ag 0.08368 0.10904 0.61744   0.418979
 Ag 0.81016 0.39096 0.88256   0.419062
 Ag 0.70112 0.88256 0.10904   0.418116
 Ag 0.69272 0.61744 0.39096   0.418436
 H 0.8696 0.7623 0.6009   0.167636
 H 0.6643 0.8249 0.6223   0.143356
 H 0.8092 0.8916 0.6254   0.081355
 H 0.0091 0.8327 0.5857   0.081098
 H 0.653 0.9991 0.5397   0.099609
 H 0.8033 0.0164 0.5948   0.037175
 H 0.1525 0.9461 0.5731   0.064675
 H 0.2368 0.8807 0.5031   0.08716
 H 0.2368 0.7215 0.3903   0.087818
 H 0.3696 0.7891 0.3877   0.08498
 H 0.042 0.714 0.29   0.091232
 H 0.2328 0.7377 0.8991   0.167142
 H 0.1115 0.6751 0.8777   0.144142
 H 0.3262 0.6084 0.8746   0.080452
 H 0.4275 0.6673 0.9143   0.079614
 H 0.1918 0.5009 0.9603   0.098863
 H 0.4145 0.4836 0.9052   0.036747
 H 0.6717 0.5539 0.9269   0.062653
 H 0.6206 0.6193 0.9969   0.085257
 H 0.3486 0.7785 0.1097   0.086593
 H 0.5464 0.7109 0.1123   0.084151
 H 0.046 0.786 0.21   0.09108
 H 0.4705 0.8991 0.7623   0.168889
 H 0.2866 0.8777 0.8249   0.143578
 H 0.4346 0.8746 0.8916   0.07924
 H 0.5948 0.9143 0.8327   0.079248
 H 0.1927 0.9603 0.9991   0.099489
 H 0.3981 0.9052 0.0164   0.038064
 H 0.7256 0.9269 0.9461   0.063844
 H 0.7399 0.9969 0.8807   0.086576
 H 0.6271 0.1097 0.7215   0.087509
 H 0.7573 0.1123 0.7891   0.084129
 H 0.332 0.21 0.714   0.092137
 H 0.1319 0.6009 0.7377   0.168258
 H 0.9892 0.6223 0.6751   0.143582
 H 0.2008 0.6254 0.6084   0.081388
 H 0.3418 0.5857 0.6673   0.081626
 H 0.1521 0.5397 0.5009   0.099688
 H 0.3197 0.5948 0.4836   0.038744
 H 0.5986 0.5731 0.5539   0.062522
 H 0.6175 0.5031 0.6193   0.087353
 H 0.4583 0.3903 0.7785   0.087363
 H 0.6587 0.3877 0.7109   0.084441
 H 0.256 0.29 0.786   0.091408
 H 0.1304 0.2377 0.3991   0.167636
 H 0.3357 0.1751 0.3777   0.143356
 H 0.1908 0.1084 0.3746   0.081355
 H 0.9909 0.1673 0.4143   0.081098
 H 0.347 0.000900000000001 0.4603   0.099609
 H 0.1967 0.9836 0.4052   0.037175
 H 0.8475 0.0539 0.4269   0.064675
 H 0.7632 0.1193 0.4969   0.087159
 H 0.7632 0.2785 0.6097   0.087818
 H 0.6304 0.2109 0.6123   0.08498
 H 0.958 0.286 0.71   0.091232
 H 0.7672 0.2623 0.1009   0.167142
 H 0.8885 0.3249 0.1223   0.144142
 H 0.6738 0.3916 0.1254   0.080452
 H 0.5725 0.3327 0.0857   0.079614
 H 0.8082 0.4991 0.0397   0.098863
 H 0.5855 0.5164 0.0948   0.036747
 H 0.3283 0.4461 0.0731   0.062653
 H 0.3794 0.3807 0.0031   0.085257
 H 0.6514 0.2215 0.8903   0.086593
 H 0.4536 0.2891 0.8877   0.084152
 H 0.954 0.214 0.79   0.09108
 H 0.5295 0.1009 0.2377   0.168889
 H 0.7134 0.1223 0.1751   0.143578
 H 0.5654 0.1254 0.1084   0.07924
 H 0.4052 0.0857 0.1673   0.079248
 H 0.8073 0.0397 0.000900000000001   0.099489
 H 0.6019 0.0948 0.9836   0.038064
 H 0.2744 0.0731 0.0539   0.063844
 H 0.2601 0.0031 0.1193   0.086576
 H 0.3729 0.8903 0.2785   0.087509
 H 0.2427 0.8877 0.2109   0.08413
 H 0.668 0.79 0.286   0.092138
 H 0.8681 0.3991 0.2623   0.168258
 H 0.0108 0.3777 0.3249   0.143582
 H 0.7992 0.3746 0.3916   0.081388
 H 0.6582 0.4143 0.3327   0.081626
 H 0.8479 0.4603 0.4991   0.099688
 H 0.6803 0.4052 0.5164   0.038744
 H 0.4014 0.4269 0.4461   0.062522
 H 0.3825 0.4969 0.3807   0.087352
 H 0.5417 0.6097 0.2215   0.087363
 H 0.3413 0.6123 0.2891   0.084441
 H 0.744 0.71 0.214   0.091409
 C 0.7835 0.8082 0.5788   -0.456705
 C 0.8757 0.8608 0.5758   0.112139
 C 0.7951 0.0024 0.5398   -0.01929
 C 0.1426 0.9325 0.5183   -0.063392
 C 0.3214 0.7539 0.3541   0.07282
 C 0.1705 0.6918 0.9212   -0.457663
 C 0.3123 0.6392 0.9242   0.116634
 C 0.3373 0.4976 0.9602   -0.017391
 C 0.5934 0.5675 0.9817   -0.057455
 C 0.4294 0.7461 0.1459   0.074034
 C 0.3623 0.9212 0.8082   -0.460455
 C 0.4515 0.9242 0.8608   0.119291
 C 0.3349 0.9602 0.0024   -0.019393
 C 0.6609 0.9817 0.9325   -0.06212
 C 0.6755 0.1459 0.7539   0.073181
 C 0.0917 0.5788 0.6918   -0.459868
 C 0.2365 0.5758 0.6392   0.114057
 C 0.2975 0.5398 0.4976   -0.020376
 C 0.5751 0.5183 0.5675   -0.061107
 C 0.5753 0.3541 0.7461   0.074947
 C 0.2165 0.1918 0.4212   -0.456705
 C 0.1243 0.1392 0.4242   0.112139
 C 0.2049 0.9976 0.4602   -0.01929
 C 0.8574 0.0675 0.4817   -0.063392
 C 0.6786 0.2461 0.6459   0.072821
 C 0.8295 0.3082 0.0788   -0.457663
 C 0.6877 0.3608 0.0758   0.116634
 C 0.6627 0.5024 0.0398   -0.017391
 C 0.4066 0.4325 0.0183   -0.057454
 C 0.5706 0.2539 0.8541   0.074034
 C 0.6377 0.0788 0.1918   -0.460455
 C 0.5485 0.0758 0.1392   0.119291
 C 0.6651 0.0398 0.9976   -0.019393
 C 0.3391 0.0183 0.0675   -0.06212
 C 0.3245 0.8541 0.2461   0.073181
 C 0.9083 0.4212 0.3082   -0.459868
 C 0.7635 0.4242 0.3608   0.114057
 C 0.7025 0.4602 0.5024   -0.020376
 C 0.4249 0.4817 0.4325   -0.061107
 C 0.4247 0.6459 0.2539   0.074947
 C 0.1224 0.75 0.25   0.049602
 C 0.3724 0.25 0.75   0.046951
 C 0.8776 0.25 0.75   0.049602
 C 0.6276 0.75 0.25   0.046951
 S 0.68369 0.76272 0.5061   1.355495
 S 0.95251 0.73728 0.9939   1.35471
 S 0.18979 0.9939 0.76272   1.358048
 S 0.94641 0.5061 0.73728   1.357229
 S 0.31631 0.23728 0.4939   1.355495
 S 0.04749 0.26272 0.0061   1.35471
 S 0.81021 0.0061 0.23728   1.358048
 S 0.05359 0.4939 0.26272   1.357229
 N 0.928 0.9243 0.5171   -0.219181
 N 0.1935 0.8054 0.301   -0.257207
 N 0.3694 0.5757 0.9829   -0.223256
 N 0.2999 0.6946 0.199   -0.258359
 N 0.4451 0.9829 0.9243   -0.221164
 N 0.4945 0.199 0.8054   -0.255816
 N 0.3523 0.5171 0.5757   -0.221053
 N 0.4989 0.301 0.6946   -0.257895
 N 0.072 0.0757 0.4829   -0.219181
 N 0.8065 0.1946 0.699   -0.257207
 N 0.6306 0.4243 0.0171   -0.223256
 N 0.7001 0.3054 0.801   -0.258359
 N 0.5549 0.0171 0.0757   -0.221164
 N 0.5055 0.801 0.1946   -0.255816
 N 0.6477 0.4829 0.4243   -0.221053
 N 0.5011 0.699 0.3054   -0.257895
 O 0.6471 0.8227 0.4411   -0.662032
 O 0.4926 0.742 0.545   -0.671285
 O 0.8404 0.6918 0.479   -0.660577
 O 0.9109 0.6773 0.0589   -0.661262
 O 0.7796 0.758 0.955   -0.671595
 O 0.0112 0.8082 0.021   -0.659691
 O 0.0882 0.0589 0.8227   -0.661844
 O 0.0376 0.955 0.742   -0.67124
 O 0.3194 0.021 0.6918   -0.662419
 O 0.9698 0.4411 0.6773   -0.661502
 O 0.7346 0.545 0.758   -0.6707
 O 0.0322 0.479 0.8082   -0.662304
 O 0.3529 0.1773 0.5589   -0.662032
 O 0.5074 0.258 0.455   -0.671285
 O 0.1596 0.3082 0.521   -0.660577
 O 0.0891 0.3227 0.9411   -0.661262
 O 0.2204 0.242 0.045   -0.671595
 O 0.9888 0.1918 0.979   -0.659691
 O 0.9118 0.9411 0.1773   -0.661844
 O 0.9624 0.045 0.258   -0.67124
 O 0.6806 0.979 0.3082   -0.662419
 O 0.0302 0.5589 0.3227   -0.661502
 O 0.2654 0.455 0.242   -0.6707
 O 0.9678 0.521 0.1918   -0.662304
