{'_ref': 'TBD', '_srcid': 'CAKYAQ_clean', 'submitters': [{'name': 'Dalar Nazarian Jeff Camp and David Sholl', 'email': 'dalar@gatech.edu jcamp6@gatech.edu'}], '_method': 'VASP DFT with PBE;DDEC'}
data_ZnH13C25BrNO4
_symmetry_space_group_name_H-M   'P 1'
_cell_length_a   11.10600045
_cell_length_b   15.91600000
_cell_length_c   16.22400000
_cell_angle_alpha   90.00000000
_cell_angle_beta   101.59399891
_cell_angle_gamma   90.00000000
_symmetry_Int_Tables_number   1
_chemical_formula_structural   ZnH13C25BrNO4
_chemical_formula_sum   'Zn2 H26 C50 Br2 N2 O8'
_cell_volume   2809.29077455
_cell_formula_units_Z   2
loop_
 _symmetry_equiv_pos_site_id
 _symmetry_equiv_pos_as_xyz
  1  'x, y, z'
loop_
 _atom_site_label
 _atom_site_fract_x
 _atom_site_fract_y
 _atom_site_fract_z
 _atom_site_charge
 Zn 0.02696 0.5 0.5926   0.902341
 Zn 0.97304 0.5 0.4074   0.902384
 H 0.27726 0.70534 0.64012   0.097561
 H 0.40808 0.83394 0.63962   0.102933
 H 0.32732 0.8295 0.3649   0.095233
 H 0.20392 0.70172 0.36508   0.09589
 H 0.72274 0.70534 0.35988   0.097377
 H 0.59192 0.83394 0.36038   0.102912
 H 0.67268 0.8295 0.6351   0.095205
 H 0.79652 0.7011 0.6345   0.095741
 H 0.72274 0.29466 0.35988   0.097376
 H 0.59192 0.16606 0.36038   0.102913
 H 0.67268 0.1705 0.6351   0.095206
 H 0.79652 0.2989 0.6345   0.095741
 H 0.27726 0.29466 0.64012   0.097562
 H 0.40808 0.16606 0.63962   0.102934
 H 0.32732 0.1705 0.3649   0.095234
 H 0.20392 0.29828 0.36508   0.09589
 H 0.85386 0.5 0.7005   0.129608
 H 0.85566 0.5 0.85876   0.126949
 H 0.24266 0.5 0.75014   0.115396
 H 0.16304 0.5 0.02572   0.146952
 H 0.14614 0.5 0.2995   0.129652
 H 0.14434 0.5 0.14124   0.126939
 H 0.75734 0.5 0.24986   0.11539
 H 0.83696 0.5 0.97428   0.146949
 H 0.47994 0.5 0.98888   0.174232
 H 0.52006 0.5 0.01112   0.176139
 C 0.1552 0.6167 0.5043   0.696071
 C 0.2394 0.6945 0.5039   -0.106656
 C 0.2909 0.7329 0.5778   -0.046344
 C 0.3594 0.8049 0.5776   -0.16247
 C 0.3688 0.8419 0.5014   0.095176
 C 0.316 0.8023 0.4279   -0.149096
 C 0.2502 0.7313 0.4274   -0.049495
 C 0.4401 0.9225 0.5031   -0.011531
 C 0.8448 0.6167 0.4957   0.69611
 C 0.7606 0.6945 0.4961   -0.107128
 C 0.7091 0.7329 0.4222   -0.046213
 C 0.6406 0.8049 0.4224   -0.162537
 C 0.6312 0.8419 0.4986   0.095095
 C 0.684 0.8023 0.5721   -0.148652
 C 0.7498 0.7313 0.5726   -0.049569
 C 0.5599 0.9225 0.4969   -0.011482
 C 0.8448 0.3833 0.4957   0.696112
 C 0.7606 0.3055 0.4961   -0.10713
 C 0.7091 0.2671 0.4222   -0.046213
 C 0.6406 0.1951 0.4224   -0.162538
 C 0.6312 0.1581 0.4986   0.095097
 C 0.684 0.1977 0.5721   -0.148652
 C 0.7498 0.2687 0.5726   -0.049569
 C 0.5599 0.0775 0.4969   -0.011504
 C 0.1552 0.3833 0.5043   0.696073
 C 0.2394 0.3055 0.5039   -0.106656
 C 0.2909 0.2671 0.5778   -0.046343
 C 0.3594 0.1951 0.5776   -0.16247
 C 0.3688 0.1581 0.5014   0.095174
 C 0.316 0.1977 0.4279   -0.149096
 C 0.2502 0.2687 0.4274   -0.049495
 C 0.4401 0.0775 0.5031   -0.011509
 C 0.3781 0.0 0.5032   0.021723
 C 0.6219 0.0 0.4968   0.021741
 C 0.945 0.5 0.7477   0.084845
 C 0.946 0.5 0.8356   -0.194734
 C 0.0526 0.5 0.8966   0.130417
 C 0.159 0.5 0.863   0.011612
 C 0.154 0.5 0.7754   0.087667
 C 0.067 0.5 0.9844   -0.149601
 C 0.274 0.5 0.917   -0.008277
 C 0.38 0.5 0.954   -0.246183
 C 0.055 0.5 0.2523   0.084892
 C 0.054 0.5 0.1644   -0.194783
 C 0.9474 0.5 0.1034   0.13042
 C 0.841 0.5 0.137   0.011533
 C 0.846 0.5 0.2246   0.08766
 C 0.933 0.5 0.0156   -0.149573
 C 0.726 0.5 0.083   -0.008006
 C 0.62 0.5 0.046   -0.24673
 Br 0.2071 0.0 0.5036   -0.06682
 Br 0.7929 0.0 0.4964   -0.066791
 N 0.0522 0.5 0.7121   -0.228657
 N 0.9478 0.5 0.2879   -0.228582
 O 0.1477 0.5904 0.5739   -0.582539
 O 0.1069 0.5898 0.4351   -0.593832
 O 0.8523 0.5904 0.4261   -0.582426
 O 0.8931 0.5898 0.5649   -0.593689
 O 0.8523 0.4096 0.4261   -0.582426
 O 0.8931 0.4102 0.5649   -0.59369
 O 0.1477 0.4096 0.5739   -0.582539
 O 0.1069 0.4102 0.4351   -0.593832
