{'_ref': 'TBD', '_srcid': 'CAKYAQ_clean', 'submitters': [{'name': 'Dalar Nazarian Jeff Camp and David Sholl', 'email': 'dalar@gatech.edu jcamp6@gatech.edu'}], '_method': 'VASP DFT with PBE;DDEC'}
data_In3H24C43O18
_symmetry_space_group_name_H-M   'P 1'
_cell_length_a   16.12920026
_cell_length_b   16.12920010
_cell_length_c   16.12920000
_cell_angle_alpha   92.54950025
_cell_angle_beta   92.54950023
_cell_angle_gamma   92.54949948
_symmetry_Int_Tables_number   1
_chemical_formula_structural   In3H24C43O18
_chemical_formula_sum   'In9 H72 C129 O54'
_cell_volume   4183.18614903
_cell_formula_units_Z   3
loop_
 _symmetry_equiv_pos_site_id
 _symmetry_equiv_pos_as_xyz
  1  'x, y, z'
loop_
 _atom_site_label
 _atom_site_fract_x
 _atom_site_fract_y
 _atom_site_fract_z
 _atom_site_charge
 In 0.74044 0.16109 0.40989   1.772427
 In 0.40989 0.74044 0.16109   1.772425
 In 0.16109 0.40989 0.74044   1.772425
 In 0.83891 0.25956 0.59011   1.772427
 In 0.25956 0.59011 0.83891   1.772427
 In 0.59011 0.83891 0.25956   1.772425
 In 0.65936 0.34064 0.5   1.745658
 In 0.5 0.65936 0.34064   1.74566
 In 0.34064 0.5 0.65936   1.745663
 H 0.4908 0.0269 0.3883   0.096726
 H 0.3561 0.9775 0.3504   0.146527
 H 0.2803 0.2082 0.356   0.12185
 H 0.4115 0.2569 0.4032   0.085897
 H 0.9732 0.1281 0.2842   0.10649
 H 0.0986 0.0839 0.2363   0.143066
 H 0.1963 0.1276 0.4723   0.111051
 H 0.0759 0.168 0.5118   0.099696
 H 0.6557 0.2349 0.1651   0.114867
 H 0.6092 0.2799 0.0367   0.14266
 H 0.5986 0.5117 0.1356   0.145517
 H 0.6352 0.4666 0.2647   0.090587
 H 0.3883 0.4908 0.0269   0.096726
 H 0.3504 0.3561 0.9775   0.146527
 H 0.356 0.2803 0.2082   0.12185
 H 0.4032 0.4115 0.2569   0.085898
 H 0.2842 0.9732 0.1281   0.106491
 H 0.2363 0.0986 0.0839   0.143067
 H 0.4723 0.1963 0.1276   0.111051
 H 0.5118 0.0759 0.168   0.099696
 H 0.1651 0.6557 0.2349   0.114867
 H 0.0367 0.6092 0.2799   0.14266
 H 0.1356 0.5986 0.5117   0.145517
 H 0.2647 0.6352 0.4666   0.090587
 H 0.0269 0.3883 0.4908   0.096725
 H 0.9775 0.3504 0.3561   0.146527
 H 0.2082 0.356 0.2803   0.12185
 H 0.2569 0.4032 0.4115   0.085899
 H 0.1281 0.2842 0.9732   0.106491
 H 0.0839 0.2363 0.0986   0.143069
 H 0.1276 0.4723 0.1963   0.111051
 H 0.168 0.5118 0.0759   0.099696
 H 0.2349 0.1651 0.6557   0.114867
 H 0.2799 0.0367 0.6092   0.142659
 H 0.5117 0.1356 0.5986   0.145517
 H 0.4666 0.2647 0.6352   0.090587
 H 0.9731 0.5092 0.6117   0.096725
 H 0.0225 0.6439 0.6496   0.146527
 H 0.7918 0.7197 0.644   0.12185
 H 0.7431 0.5885 0.5968   0.085897
 H 0.8719 0.0268 0.7158   0.106491
 H 0.9161 0.9014 0.7637   0.143067
 H 0.8724 0.8037 0.5277   0.111051
 H 0.832 0.9241 0.4882   0.099696
 H 0.7651 0.3443 0.8349   0.114867
 H 0.7201 0.3908 0.9633   0.14266
 H 0.4883 0.4014 0.8644   0.145517
 H 0.5334 0.3648 0.7353   0.090587
 H 0.5092 0.6117 0.9731   0.096726
 H 0.6439 0.6496 0.0225   0.146527
 H 0.7197 0.644 0.7918   0.12185
 H 0.5885 0.5968 0.7431   0.085898
 H 0.0268 0.7158 0.8719   0.106492
 H 0.9014 0.7637 0.9161   0.143068
 H 0.8037 0.5277 0.8724   0.111051
 H 0.9241 0.4882 0.832   0.099696
 H 0.3443 0.8349 0.7651   0.114867
 H 0.3908 0.9633 0.7201   0.14266
 H 0.4014 0.8644 0.4883   0.145517
 H 0.3648 0.7353 0.5334   0.090587
 H 0.6117 0.9731 0.5092   0.096725
 H 0.6496 0.0225 0.6439   0.146527
 H 0.644 0.7918 0.7197   0.12185
 H 0.5968 0.7431 0.5885   0.085899
 H 0.7158 0.8719 0.0268   0.106492
 H 0.7637 0.9161 0.9014   0.14307
 H 0.5277 0.8724 0.8037   0.111051
 H 0.4882 0.832 0.9241   0.099696
 H 0.8349 0.7651 0.3443   0.114867
 H 0.9633 0.7201 0.3908   0.142659
 H 0.8644 0.4883 0.4014   0.145517
 H 0.7353 0.5334 0.3648   0.090587
 C 0.5512 0.1798 0.43   0.741037
 C 0.4657 0.1477 0.4   -0.221559
 C 0.4485 0.0639 0.3834   0.039789
 C 0.3684 0.0341 0.3592   -0.233531
 C 0.308 0.0902 0.3488   0.314202
 C 0.3225 0.1715 0.3637   -0.254478
 C 0.4015 0.2004 0.3908   0.029513
 C 0.9315 0.1838 0.4322   0.715653
 C 0.0127 0.1525 0.4021   -0.207477
 C 0.0193 0.1269 0.3209   0.030156
 C 0.0934 0.0993 0.2921   -0.244154
 C 0.1595 0.0951 0.3496   0.273878
 C 0.151 0.1259 0.4344   -0.223026
 C 0.0811 0.1505 0.4566   0.03368
 C 0.6774 0.3174 0.3105   0.738763
 C 0.6485 0.3461 0.2282   -0.222329
 C 0.6422 0.2899 0.1593   0.029056
 C 0.6157 0.3168 0.0827   -0.24696
 C 0.5989 0.4021 0.0763   0.299553
 C 0.608 0.4559 0.1421   -0.229397
 C 0.6311 0.4293 0.2188   0.035151
 C 0.43 0.5512 0.1798   0.741035
 C 0.4 0.4657 0.1477   -0.221559
 C 0.3834 0.4485 0.0639   0.039789
 C 0.3592 0.3684 0.0341   -0.233531
 C 0.3488 0.308 0.0902   0.314202
 C 0.3637 0.3225 0.1715   -0.254478
 C 0.3908 0.4015 0.2004   0.029512
 C 0.4322 0.9315 0.1838   0.715653
 C 0.4021 0.0127 0.1525   -0.207477
 C 0.3209 0.0193 0.1269   0.030156
 C 0.2921 0.0934 0.0993   -0.244155
 C 0.3496 0.1595 0.0951   0.273878
 C 0.4344 0.151 0.1259   -0.223026
 C 0.4566 0.0811 0.1505   0.03368
 C 0.3105 0.6774 0.3174   0.738763
 C 0.2282 0.6485 0.3461   -0.222329
 C 0.1593 0.6422 0.2899   0.029056
 C 0.0827 0.6157 0.3168   -0.24696
 C 0.0763 0.5989 0.4021   0.299553
 C 0.1421 0.608 0.4559   -0.229397
 C 0.2188 0.6311 0.4293   0.035151
 C 0.1798 0.43 0.5512   0.741036
 C 0.1477 0.4 0.4657   -0.221559
 C 0.0639 0.3834 0.4485   0.039791
 C 0.0341 0.3592 0.3684   -0.233531
 C 0.0902 0.3488 0.308   0.314203
 C 0.1715 0.3637 0.3225   -0.254477
 C 0.2004 0.3908 0.4015   0.029512
 C 0.1838 0.4322 0.9315   0.715653
 C 0.1525 0.4021 0.0127   -0.207477
 C 0.1269 0.3209 0.0193   0.030157
 C 0.0993 0.2921 0.0934   -0.244156
 C 0.0951 0.3496 0.1595   0.273879
 C 0.1259 0.4344 0.151   -0.223026
 C 0.1505 0.4566 0.0811   0.033679
 C 0.3174 0.3105 0.6774   0.738764
 C 0.3461 0.2282 0.6485   -0.222329
 C 0.2899 0.1593 0.6422   0.029056
 C 0.3168 0.0827 0.6157   -0.24696
 C 0.4021 0.0763 0.5989   0.299553
 C 0.4559 0.1421 0.608   -0.229397
 C 0.4293 0.2188 0.6311   0.035151
 C 0.8202 0.4488 0.57   0.741037
 C 0.8523 0.5343 0.6   -0.221559
 C 0.9361 0.5515 0.6166   0.039791
 C 0.9659 0.6316 0.6408   -0.233531
 C 0.9098 0.692 0.6512   0.314203
 C 0.8285 0.6775 0.6363   -0.254477
 C 0.7996 0.5985 0.6092   0.029513
 C 0.8162 0.0685 0.5678   0.715653
 C 0.8475 0.9873 0.5979   -0.207477
 C 0.8731 0.9807 0.6791   0.030156
 C 0.9007 0.9066 0.7079   -0.244155
 C 0.9049 0.8405 0.6504   0.273878
 C 0.8741 0.849 0.5656   -0.223026
 C 0.8495 0.9189 0.5434   0.033679
 C 0.6826 0.3226 0.6895   0.738763
 C 0.6539 0.3515 0.7718   -0.222329
 C 0.7101 0.3578 0.8407   0.029056
 C 0.6832 0.3843 0.9173   -0.24696
 C 0.5979 0.4011 0.9237   0.299553
 C 0.5441 0.392 0.8579   -0.229396
 C 0.5707 0.3689 0.7812   0.03515
 C 0.4488 0.57 0.8202   0.741037
 C 0.5343 0.6 0.8523   -0.221559
 C 0.5515 0.6166 0.9361   0.03979
 C 0.6316 0.6408 0.9659   -0.233531
 C 0.692 0.6512 0.9098   0.314202
 C 0.6775 0.6363 0.8285   -0.254478
 C 0.5985 0.6092 0.7996   0.029512
 C 0.0685 0.5678 0.8162   0.715653
 C 0.9873 0.5979 0.8475   -0.207477
 C 0.9807 0.6791 0.8731   0.030156
 C 0.9066 0.7079 0.9007   -0.244155
 C 0.8405 0.6504 0.9049   0.273878
 C 0.849 0.5656 0.8741   -0.223026
 C 0.9189 0.5434 0.8495   0.03368
 C 0.3226 0.6895 0.6826   0.738763
 C 0.3515 0.7718 0.6539   -0.222329
 C 0.3578 0.8407 0.7101   0.029056
 C 0.3843 0.9173 0.6832   -0.24696
 C 0.4011 0.9237 0.5979   0.299552
 C 0.392 0.8579 0.5441   -0.229396
 C 0.3689 0.7812 0.5707   0.03515
 C 0.57 0.8202 0.4488   0.741036
 C 0.6 0.8523 0.5343   -0.221559
 C 0.6166 0.9361 0.5515   0.039791
 C 0.6408 0.9659 0.6316   -0.233531
 C 0.6512 0.9098 0.692   0.314203
 C 0.6363 0.8285 0.6775   -0.254477
 C 0.6092 0.7996 0.5985   0.029512
 C 0.5678 0.8162 0.0685   0.715653
 C 0.5979 0.8475 0.9873   -0.207477
 C 0.6791 0.8731 0.9807   0.030156
 C 0.7079 0.9007 0.9066   -0.244156
 C 0.6504 0.9049 0.8405   0.273879
 C 0.5656 0.8741 0.849   -0.223026
 C 0.5434 0.8495 0.9189   0.033679
 C 0.6895 0.6826 0.3226   0.738763
 C 0.7718 0.6539 0.3515   -0.222329
 C 0.8407 0.7101 0.3578   0.029056
 C 0.9173 0.6832 0.3843   -0.24696
 C 0.9237 0.5979 0.4011   0.299552
 C 0.8579 0.5441 0.392   -0.229396
 C 0.7812 0.5707 0.3689   0.03515
 C 0.68305 0.0 0.31695   0.411186
 C 0.31695 0.68305 0.0   0.411186
 C 0.0 0.31695 0.68305   0.411186
 O 0.5564 0.2556 0.4528   -0.677112
 O 0.6087 0.1283 0.4285   -0.642076
 O 0.2301 0.0567 0.3213   -0.271232
 O 0.9312 0.2169 0.5047   -0.659462
 O 0.869 0.1785 0.38   -0.652105
 O 0.6782 0.3699 0.3724   -0.665724
 O 0.6991 0.242 0.3135   -0.639105
 O 0.7352 0.0616 0.315   -0.467052
 O 0.4528 0.5564 0.2556   -0.677112
 O 0.4285 0.6087 0.1283   -0.642073
 O 0.3213 0.2301 0.0567   -0.271232
 O 0.5047 0.9312 0.2169   -0.659462
 O 0.38 0.869 0.1785   -0.652105
 O 0.3724 0.6782 0.3699   -0.665724
 O 0.3135 0.6991 0.242   -0.639105
 O 0.315 0.7352 0.0616   -0.467052
 O 0.2556 0.4528 0.5564   -0.677113
 O 0.1283 0.4285 0.6087   -0.642073
 O 0.0567 0.3213 0.2301   -0.271233
 O 0.2169 0.5047 0.9312   -0.659462
 O 0.1785 0.38 0.869   -0.652105
 O 0.3699 0.3724 0.6782   -0.665724
 O 0.242 0.3135 0.6991   -0.639105
 O 0.0616 0.315 0.7352   -0.467052
 O 0.7444 0.4436 0.5472   -0.677112
 O 0.8717 0.3913 0.5715   -0.642076
 O 0.9433 0.7699 0.6787   -0.271233
 O 0.7831 0.0688 0.4953   -0.659462
 O 0.8215 0.131 0.62   -0.652105
 O 0.6301 0.3218 0.6276   -0.665724
 O 0.758 0.3009 0.6865   -0.639105
 O 0.9384 0.2648 0.685   -0.467052
 O 0.4436 0.5472 0.7444   -0.677113
 O 0.3913 0.5715 0.8717   -0.642076
 O 0.7699 0.6787 0.9433   -0.271232
 O 0.0688 0.4953 0.7831   -0.659462
 O 0.131 0.62 0.8215   -0.652105
 O 0.3218 0.6276 0.6301   -0.665724
 O 0.3009 0.6865 0.758   -0.639105
 O 0.2648 0.685 0.9384   -0.467052
 O 0.5472 0.7444 0.4436   -0.677112
 O 0.5715 0.8717 0.3913   -0.642073
 O 0.6787 0.9433 0.7699   -0.271233
 O 0.4953 0.7831 0.0688   -0.659462
 O 0.62 0.8215 0.131   -0.652105
 O 0.6276 0.6301 0.3218   -0.665724
 O 0.6865 0.758 0.3009   -0.639105
 O 0.685 0.9384 0.2648   -0.467052
 O 0.7482 0.2518 0.5   -1.290776
 O 0.5 0.7482 0.2518   -1.290777
 O 0.2518 0.5 0.7482   -1.290777
 O 0.56955 0.43045 0.0   -0.268096
 O 0.0 0.56955 0.43045   -0.268096
 O 0.43045 0.0 0.56955   -0.268096
