{'_ref': 'TBD', '_srcid': 'CAKYAQ_clean', 'submitters': [{'name': 'Dalar Nazarian Jeff Camp and David Sholl', 'email': 'dalar@gatech.edu jcamp6@gatech.edu'}], '_method': 'VASP DFT with PBE;DDEC'}
data_CuNiH8C12(N2O)4
_symmetry_space_group_name_H-M   'P 1'
_cell_length_a   9.21889972
_cell_length_b   9.21890044
_cell_length_c   10.51700000
_cell_angle_alpha   100.00300236
_cell_angle_beta   100.00300314
_cell_angle_gamma   91.69639718
_symmetry_Int_Tables_number   1
_chemical_formula_structural   CuNiH8C12(N2O)4
_chemical_formula_sum   'Cu2 Ni2 H16 C24 N16 O8'
_cell_volume   865.203971394
_cell_formula_units_Z   2
loop_
 _symmetry_equiv_pos_site_id
 _symmetry_equiv_pos_as_xyz
  1  'x, y, z'
loop_
 _atom_site_label
 _atom_site_fract_x
 _atom_site_fract_y
 _atom_site_fract_z
 _atom_site_charge
 Cu 0.0 0.0 0.0   1.007889
 Cu 0.0 0.0 0.5   1.007887
 Ni 0.14693 0.85307 0.25   0.838877
 Ni 0.85307 0.14693 0.75   0.838878
 H 0.5889 0.0505 0.11   0.113346
 H 0.3503 0.0243 0.1388   0.080073
 H 0.4504 0.7276 0.3554   0.075745
 H 0.6919 0.7439 0.3315   0.136799
 H 0.9495 0.4111 0.39   0.113347
 H 0.9757 0.6497 0.3612   0.080073
 H 0.2724 0.5496 0.1446   0.075745
 H 0.2561 0.3081 0.1685   0.136799
 H 0.4111 0.9495 0.89   0.113346
 H 0.6497 0.9757 0.8612   0.080073
 H 0.5496 0.2724 0.6446   0.075745
 H 0.3081 0.2561 0.6685   0.136799
 H 0.0505 0.5889 0.61   0.113347
 H 0.0243 0.3503 0.6388   0.080073
 H 0.7276 0.4504 0.8554   0.075745
 H 0.7439 0.6919 0.8315   0.136799
 C 0.5627 0.9815 0.1582   -0.118206
 C 0.4195 0.9655 0.1765   0.159371
 C 0.478 0.7916 0.3032   0.14414
 C 0.6673 0.8949 0.2118   -0.035809
 C 0.8222 0.9044 0.1838   0.676057
 C 0.6238 0.8004 0.2894   -0.127785
 C 0.0185 0.4373 0.3418   -0.118206
 C 0.0345 0.5805 0.3235   0.159371
 C 0.2084 0.522 0.1968   0.14414
 C 0.1051 0.3327 0.2882   -0.035809
 C 0.0956 0.1778 0.3162   0.676057
 C 0.1996 0.3762 0.2106   -0.127785
 C 0.4373 0.0185 0.8418   -0.118206
 C 0.5805 0.0345 0.8235   0.159371
 C 0.522 0.2084 0.6968   0.144142
 C 0.3327 0.1051 0.7882   -0.035809
 C 0.1778 0.0956 0.8162   0.676057
 C 0.3762 0.1996 0.7106   -0.127785
 C 0.9815 0.5627 0.6582   -0.118206
 C 0.9655 0.4195 0.6765   0.159371
 C 0.7916 0.478 0.8032   0.144142
 C 0.8949 0.6673 0.7118   -0.035808
 C 0.9044 0.8222 0.6838   0.676057
 C 0.8004 0.6238 0.7894   -0.127785
 N 0.3741 0.8693 0.2461   -0.3145
 N 0.0919 0.8201 0.0447   -0.727604
 N 0.1714 0.754 0.9782   0.56538
 N 0.2475 0.6909 0.9174   -0.384936
 N 0.1307 0.6259 0.2539   -0.3145
 N 0.1799 0.9081 0.4553   -0.727602
 N 0.246 0.8286 0.5218   0.565379
 N 0.3091 0.7525 0.5826   -0.384936
 N 0.6259 0.1307 0.7539   -0.314501
 N 0.9081 0.1799 0.9553   -0.727604
 N 0.8286 0.246 0.0218   0.56538
 N 0.7525 0.3091 0.0826   -0.384936
 N 0.8693 0.3741 0.7461   -0.314501
 N 0.8201 0.0919 0.5447   -0.727602
 N 0.754 0.1714 0.4782   0.565379
 N 0.6909 0.2475 0.4174   -0.384936
 O 0.83288 0.95792 0.0833   -0.576279
 O 0.92215 0.86015 0.2611   -0.589175
 O 0.04208 0.16712 0.4167   -0.576279
 O 0.13985 0.07785 0.2389   -0.589175
 O 0.16712 0.04208 0.9167   -0.576279
 O 0.07785 0.13985 0.7389   -0.589175
 O 0.95792 0.83288 0.5833   -0.576279
 O 0.86015 0.92215 0.7611   -0.589175
