{'_ref': 'TBD', '_srcid': 'CAKYAQ_clean', 'submitters': [{'name': 'Dalar Nazarian Jeff Camp and David Sholl', 'email': 'dalar@gatech.edu jcamp6@gatech.edu'}], '_method': 'VASP DFT with PBE;DDEC'}
data_Cd3H18(C16O7)2
_symmetry_space_group_name_H-M   'P 1'
_cell_length_a   6.77000000
_cell_length_b   14.46499997
_cell_length_c   17.77300000
_cell_angle_alpha   90.00000000
_cell_angle_beta   90.00000000
_cell_angle_gamma   91.27600109
_symmetry_Int_Tables_number   1
_chemical_formula_structural   Cd3H18(C16O7)2
_chemical_formula_sum   'Cd6 H36 C64 O28'
_cell_volume   1740.0436333
_cell_formula_units_Z   2
loop_
 _symmetry_equiv_pos_site_id
 _symmetry_equiv_pos_as_xyz
  1  'x, y, z'
loop_
 _atom_site_label
 _atom_site_fract_x
 _atom_site_fract_y
 _atom_site_fract_z
 _atom_site_charge
 Cd 0.557 0.86316 0.46745   1.058347
 Cd 0.943 0.13684 0.96745   1.058347
 Cd 0.443 0.13684 0.53255   1.058347
 Cd 0.057 0.86316 0.03255   1.058347
 Cd 0.0 0.0 0.5   1.18865
 Cd 0.5 0.0 0.0   1.18865
 H 0.1327 0.0226 0.2604   0.115494
 H 0.2734 0.2 0.0944   0.110477
 H 0.339 0.2775 0.3106   0.126006
 H 0.4988 0.312 0.0796   0.065881
 H 0.2978 0.3644 0.0763   0.066514
 H 0.8069 0.3947 0.0772   0.118726
 H 0.9778 0.5378 0.0649   0.088749
 H 0.4747 0.6736 0.1015   0.103214
 H 0.3146 0.534 0.1296   0.11555
 H 0.3673 0.9774 0.7604   0.115494
 H 0.2266 0.8 0.5944   0.110477
 H 0.161 0.7225 0.8106   0.126006
 H 0.0012 0.688 0.5796   0.065881
 H 0.2022 0.6356 0.5763   0.066514
 H 0.6931 0.6053 0.5772   0.118726
 H 0.5222 0.4622 0.5649   0.088749
 H 0.0253 0.3264 0.6015   0.103214
 H 0.1854 0.466 0.6296   0.11555
 H 0.8673 0.9774 0.7396   0.115494
 H 0.7266 0.8 0.9056   0.110477
 H 0.661 0.7225 0.6894   0.126006
 H 0.5012 0.688 0.9204   0.06588
 H 0.7022 0.6356 0.9237   0.066514
 H 0.1931 0.6053 0.9228   0.118726
 H 0.0222 0.4622 0.9351   0.088749
 H 0.5253 0.3264 0.8985   0.103214
 H 0.6854 0.466 0.8704   0.11555
 H 0.6327 0.0226 0.2396   0.115494
 H 0.7734 0.2 0.4056   0.110477
 H 0.839 0.2775 0.1894   0.126006
 H 0.9988 0.312 0.4204   0.06588
 H 0.7978 0.3644 0.4237   0.066514
 H 0.3069 0.3947 0.4228   0.118726
 H 0.4778 0.5378 0.4351   0.088749
 H 0.9747 0.6736 0.3985   0.103214
 H 0.8146 0.534 0.3704   0.11555
 C 0.2374 0.1475 0.2989   -0.143309
 C 0.1812 0.0802 0.2449   -0.015905
 C 0.1983 0.1 0.1691   -0.120654
 C 0.2643 0.1868 0.1455   -0.162584
 C 0.3163 0.2536 0.1978   0.246156
 C 0.303 0.2328 0.2753   -0.104808
 C 0.2269 0.1225 0.38   0.685196
 C 0.1432 0.0281 0.1141   0.650525
 C 0.852 0.709 0.073   0.674518
 C 0.741 0.6201 0.0881   -0.14309
 C 0.422 0.3602 0.1028   0.091833
 C 0.534 0.451 0.0989   0.024332
 C 0.742 0.4502 0.0831   -0.146187
 C 0.844 0.5359 0.0766   -0.042509
 C 0.544 0.6187 0.1006   -0.022142
 C 0.444 0.5343 0.1124   -0.119981
 C 0.2626 0.8525 0.7989   -0.143309
 C 0.3188 0.9198 0.7449   -0.015905
 C 0.3017 0.9 0.6691   -0.120654
 C 0.2357 0.8132 0.6455   -0.162584
 C 0.1837 0.7464 0.6978   0.246156
 C 0.197 0.7672 0.7753   -0.104808
 C 0.2731 0.8775 0.88   0.685196
 C 0.3568 0.9719 0.6141   0.650525
 C 0.648 0.291 0.573   0.674518
 C 0.759 0.3799 0.5881   -0.14309
 C 0.078 0.6398 0.6028   0.091833
 C 0.966 0.549 0.5989   0.024332
 C 0.758 0.5498 0.5831   -0.146187
 C 0.656 0.4641 0.5766   -0.042509
 C 0.956 0.3813 0.6006   -0.022142
 C 0.056 0.4657 0.6124   -0.119981
 C 0.7626 0.8525 0.7011   -0.143309
 C 0.8188 0.9198 0.7551   -0.015905
 C 0.8017 0.9 0.8309   -0.120654
 C 0.7357 0.8132 0.8545   -0.162584
 C 0.6837 0.7464 0.8022   0.246156
 C 0.697 0.7672 0.7247   -0.104808
 C 0.7731 0.8775 0.62   0.685196
 C 0.8568 0.9719 0.8859   0.650525
 C 0.148 0.291 0.927   0.674518
 C 0.259 0.3799 0.9119   -0.14309
 C 0.578 0.6398 0.8972   0.091832
 C 0.466 0.549 0.9011   0.024332
 C 0.258 0.5498 0.9169   -0.146188
 C 0.156 0.4641 0.9234   -0.042509
 C 0.456 0.3813 0.8994   -0.022143
 C 0.556 0.4657 0.8876   -0.11998
 C 0.7374 0.1475 0.2011   -0.143309
 C 0.6812 0.0802 0.2551   -0.015905
 C 0.6983 0.1 0.3309   -0.120654
 C 0.7643 0.1868 0.3545   -0.162584
 C 0.8163 0.2536 0.3022   0.246156
 C 0.803 0.2328 0.2247   -0.104808
 C 0.7269 0.1225 0.12   0.685196
 C 0.6432 0.0281 0.3859   0.650525
 C 0.352 0.709 0.427   0.674518
 C 0.241 0.6201 0.4119   -0.14309
 C 0.922 0.3602 0.3972   0.091832
 C 0.034 0.451 0.4011   0.024332
 C 0.242 0.4502 0.4169   -0.146188
 C 0.344 0.5359 0.4234   -0.042509
 C 0.044 0.6187 0.3994   -0.022143
 C 0.944 0.5343 0.3876   -0.11998
 O 0.1342 0.0492 0.3967   -0.6002
 O 0.3155 0.1762 0.4251   -0.583849
 O 0.1806 0.0409 0.042   -0.727225
 O 0.0652 0.9527 0.1351   -0.507338
 O 0.3887 0.3395 0.1786   -0.261308
 O 0.763 0.7778 0.0481   -0.63555
 O 0.0362 0.7125 0.079   -0.599204
 O 0.3658 0.9508 0.8967   -0.6002
 O 0.1845 0.8238 0.9251   -0.583849
 O 0.3194 0.9591 0.542   -0.727225
 O 0.4348 0.0473 0.6351   -0.507338
 O 0.1113 0.6605 0.6786   -0.261308
 O 0.737 0.2222 0.5481   -0.63555
 O 0.4638 0.2875 0.579   -0.599204
 O 0.8658 0.9508 0.6033   -0.6002
 O 0.6845 0.8238 0.5749   -0.583849
 O 0.8194 0.9591 0.958   -0.727225
 O 0.9348 0.0473 0.8649   -0.507338
 O 0.6113 0.6605 0.8214   -0.261307
 O 0.237 0.2222 0.9519   -0.63555
 O 0.9638 0.2875 0.921   -0.599204
 O 0.6342 0.0492 0.1033   -0.6002
 O 0.8155 0.1762 0.0749   -0.583849
 O 0.6806 0.0409 0.458   -0.727225
 O 0.5652 0.9527 0.3649   -0.507338
 O 0.8887 0.3395 0.3214   -0.261307
 O 0.263 0.7778 0.4519   -0.63555
 O 0.5362 0.7125 0.421   -0.599204
