{'_ref': 'TBD', '_srcid': 'CAKYAQ_clean', 'submitters': [{'name': 'Dalar Nazarian Jeff Camp and David Sholl', 'email': 'dalar@gatech.edu jcamp6@gatech.edu'}], '_method': 'VASP DFT with PBE;DDEC'}
data_Mn3CrH21C15(N2O)6
_symmetry_space_group_name_H-M   'P 1'
_cell_length_a   8.15300000
_cell_length_b   13.68020023
_cell_length_c   13.68020000
_cell_angle_alpha   119.99999943
_cell_angle_beta   90.00000000
_cell_angle_gamma   90.00000000
_symmetry_Int_Tables_number   1
_chemical_formula_structural   Mn3CrH21C15(N2O)6
_chemical_formula_sum   'Mn6 Cr2 H42 C30 N24 O12'
_cell_volume   1321.395968
_cell_formula_units_Z   2
loop_
 _symmetry_equiv_pos_site_id
 _symmetry_equiv_pos_as_xyz
  1  'x, y, z'
loop_
 _atom_site_label
 _atom_site_fract_x
 _atom_site_fract_y
 _atom_site_fract_z
 _atom_site_charge
 Mn 0.20692 0.33427 0.03788   0.953521
 Mn 0.20692 0.70361 0.66573   0.953607
 Mn 0.20692 0.96212 0.29639   0.953497
 Mn 0.70692 0.66573 0.96212   0.953521
 Mn 0.70692 0.29639 0.33427   0.953608
 Mn 0.70692 0.03788 0.70361   0.953497
 Cr 0.5896 0.66667 0.33334   0.117794
 Cr 0.0896 0.33333 0.66666   0.117794
 H 0.6095 0.2543 0.8481   0.312388
 H 0.6058 0.1972 0.9142   0.329549
 H 0.8692 0.2858 0.866   0.079889
 H 0.7241 0.3954 0.0434   0.063974
 H 0.8163 0.3204 0.0828   0.082201
 H 0.9602 0.4802 0.1332   0.31639
 H 0.9686 0.4566 0.0172   0.31356
 H 0.6095 0.5938 0.7457   0.312348
 H 0.6058 0.717 0.8028   0.329544
 H 0.8692 0.5802 0.7142   0.079882
 H 0.7241 0.648 0.6046   0.063944
 H 0.8163 0.7624 0.6796   0.08217
 H 0.9602 0.653 0.5198   0.316369
 H 0.9686 0.5606 0.5434   0.313556
 H 0.6095 0.1519 0.4062   0.312444
 H 0.6058 0.0858 0.283   0.329598
 H 0.8692 0.134 0.4198   0.079903
 H 0.7241 0.9566 0.352   0.064016
 H 0.8163 0.9172 0.2376   0.082241
 H 0.9602 0.8668 0.347   0.316411
 H 0.9686 0.9828 0.4394   0.313563
 H 0.1095 0.7457 0.1519   0.312393
 H 0.1058 0.8028 0.0858   0.329549
 H 0.3692 0.7142 0.134   0.079889
 H 0.2241 0.6046 0.9566   0.063975
 H 0.3163 0.6796 0.9172   0.082201
 H 0.4602 0.5198 0.8668   0.316396
 H 0.4686 0.5434 0.9828   0.313561
 H 0.1095 0.4062 0.2543   0.312355
 H 0.1058 0.283 0.1972   0.329544
 H 0.3692 0.4198 0.2858   0.079882
 H 0.2241 0.352 0.3954   0.063945
 H 0.3163 0.2376 0.3204   0.08217
 H 0.4602 0.347 0.4802   0.316374
 H 0.4686 0.4394 0.4566   0.313558
 H 0.1095 0.8481 0.5938   0.312449
 H 0.1058 0.9142 0.717   0.329598
 H 0.3692 0.866 0.5802   0.079903
 H 0.2241 0.0434 0.648   0.064016
 H 0.3163 0.0828 0.7624   0.082241
 H 0.4602 0.1332 0.653   0.316415
 H 0.4686 0.0172 0.5606   0.313563
 C 0.4391 0.5566 0.2026   0.067192
 C 0.8266 0.2541 0.9112   -0.006518
 C 0.8221 0.3507 0.0322   0.0602
 C 0.7211 0.6795 0.2098   0.028967
 C 0.9448 0.1586 0.892   0.64023
 C 0.4391 0.646 0.4434   0.067209
 C 0.8266 0.6571 0.7459   -0.006526
 C 0.8221 0.6815 0.6493   0.060214
 C 0.7211 0.5303 0.3205   0.028997
 C 0.9448 0.7334 0.8414   0.640242
 C 0.4391 0.7974 0.354   0.067162
 C 0.8266 0.0888 0.3429   -0.006498
 C 0.8221 0.9678 0.3185   0.060168
 C 0.7211 0.7902 0.4697   0.02899
 C 0.9448 0.108 0.2666   0.640245
 C 0.9391 0.4434 0.7974   0.067192
 C 0.3266 0.7459 0.0888   -0.006518
 C 0.3221 0.6493 0.9678   0.0602
 C 0.2211 0.3205 0.7902   0.028967
 C 0.4448 0.8414 0.108   0.640229
 C 0.9391 0.354 0.5566   0.067209
 C 0.3266 0.3429 0.2541   -0.006525
 C 0.3221 0.3185 0.3507   0.060215
 C 0.2211 0.4697 0.6795   0.028997
 C 0.4448 0.2666 0.1586   0.640243
 C 0.9391 0.2026 0.646   0.067162
 C 0.3266 0.9112 0.6571   -0.006498
 C 0.3221 0.0322 0.6815   0.060169
 C 0.2211 0.2098 0.5303   0.02899
 C 0.4448 0.892 0.7334   0.640245
 N 0.6647 0.2071 0.8642   -0.648526
 N 0.3536 0.4955 0.1294   -0.431527
 N 0.7688 0.6804 0.1299   -0.418595
 N 0.9682 0.4245 0.0608   -0.676312
 N 0.6647 0.6571 0.7929   -0.648508
 N 0.3536 0.6339 0.5045   -0.431542
 N 0.7688 0.4495 0.3196   -0.418609
 N 0.9682 0.6363 0.5755   -0.676326
 N 0.6647 0.1358 0.3429   -0.648566
 N 0.3536 0.8706 0.3661   -0.431549
 N 0.7688 0.8701 0.5505   -0.418603
 N 0.9682 0.9392 0.3637   -0.676275
 N 0.1647 0.7929 0.1358   -0.648527
 N 0.8536 0.5045 0.8706   -0.431527
 N 0.2688 0.3196 0.8701   -0.418595
 N 0.4682 0.5755 0.9392   -0.676315
 N 0.1647 0.3429 0.2071   -0.64851
 N 0.8536 0.3661 0.4955   -0.431542
 N 0.2688 0.5505 0.6804   -0.418609
 N 0.4682 0.3637 0.4245   -0.676329
 N 0.1647 0.8642 0.6571   -0.648568
 N 0.8536 0.1294 0.6339   -0.431549
 N 0.2688 0.1299 0.4495   -0.418603
 N 0.4682 0.0608 0.6363   -0.676276
 O 0.0664 0.1797 0.9522   -0.539334
 O 0.9103 0.0577 0.8131   -0.566568
 O 0.0664 0.7725 0.8203   -0.539365
 O 0.9103 0.7554 0.9423   -0.566564
 O 0.0664 0.0478 0.2275   -0.53934
 O 0.9103 0.1869 0.2446   -0.56654
 O 0.5664 0.8203 0.0478   -0.539334
 O 0.4103 0.9423 0.1869   -0.566568
 O 0.5664 0.2275 0.1797   -0.539365
 O 0.4103 0.2446 0.0577   -0.566564
 O 0.5664 0.9522 0.7725   -0.53934
 O 0.4103 0.8131 0.7554   -0.56654
