{'_ref': 'TBD', '_srcid': 'CAKYAQ_clean', 'submitters': [{'name': 'Dalar Nazarian Jeff Camp and David Sholl', 'email': 'dalar@gatech.edu jcamp6@gatech.edu'}], '_method': 'VASP DFT with PBE;DDEC'}
data_ZnH8C13NO4
_symmetry_space_group_name_H-M   'P 1'
_cell_length_a   10.88300025
_cell_length_b   10.92579994
_cell_length_c   14.06580000
_cell_angle_alpha   92.41700052
_cell_angle_beta   90.09899755
_cell_angle_gamma   101.72299760
_symmetry_Int_Tables_number   1
_chemical_formula_structural   ZnH8C13NO4
_chemical_formula_sum   'Zn4 H32 C52 N4 O16'
_cell_volume   1636.06710452
_cell_formula_units_Z   4
loop_
 _symmetry_equiv_pos_site_id
 _symmetry_equiv_pos_as_xyz
  1  'x, y, z'
loop_
 _atom_site_label
 _atom_site_fract_x
 _atom_site_fract_y
 _atom_site_fract_z
 _atom_site_charge
 Zn 0.26504 0.34438 0.89078   0.914951
 Zn 0.26209 0.33156 0.68186   0.91713
 Zn 0.73496 0.65562 0.10922   0.914951
 Zn 0.73791 0.66844 0.31814   0.91713
 H 0.6618 0.3568 0.9306   0.098749
 H 0.8737 0.3492 0.9298   0.102643
 H 0.654 0.3265 0.6439   0.098707
 H 0.2552 0.7174 0.6437   0.099188
 H 0.2652 0.7444 0.9271   0.096735
 H 0.2503 0.953 0.9242   0.110864
 H 0.2378 0.9274 0.6393   0.108051
 H 0.8657 0.3195 0.6433   0.101531
 H 0.0849 0.3195 0.5213   0.087281
 H 0.0791 0.3148 0.3586   0.122236
 H 0.4479 0.3623 0.3595   0.128232
 H 0.4434 0.3585 0.5226   0.081827
 H 0.075 0.3242 0.2122   0.130399
 H 0.4512 0.3533 0.2144   0.129348
 H 0.0819 0.3239 0.0496   0.091692
 H 0.4455 0.3512 0.0516   0.094002
 H 0.3382 0.6432 0.0694   0.098749
 H 0.1263 0.6508 0.0702   0.102641
 H 0.346 0.6735 0.3561   0.098706
 H 0.7448 0.2826 0.3563   0.099174
 H 0.7348 0.2556 0.0729   0.096736
 H 0.7497 0.047 0.0758   0.110861
 H 0.7622 0.0726 0.3607   0.108056
 H 0.1343 0.6805 0.3567   0.101528
 H 0.9151 0.6805 0.4787   0.087277
 H 0.9209 0.6852 0.6414   0.122231
 H 0.5521 0.6377 0.6405   0.128232
 H 0.5566 0.6415 0.4774   0.081827
 H 0.925 0.6758 0.7878   0.130399
 H 0.5488 0.6467 0.7856   0.129348
 H 0.9181 0.6761 0.9504   0.09169
 H 0.5545 0.6488 0.9484   0.094003
 C 0.4997 0.3495 0.7876   0.672921
 C 0.6363 0.3429 0.7879   -0.136584
 C 0.7026 0.3492 0.8725   -0.05133
 C 0.8291 0.3446 0.872   -0.067714
 C 0.6985 0.3313 0.7018   -0.066088
 C 0.2793 0.5774 0.7876   0.676375
 C 0.2666 0.7116 0.786   -0.129705
 C 0.2556 0.7653 0.7008   -0.078536
 C 0.2618 0.7815 0.8683   -0.063981
 C 0.2424 0.0985 0.7782   0.679749
 C 0.2451 0.9612 0.782   -0.105741
 C 0.2521 0.9063 0.8667   -0.061754
 C 0.2449 0.8912 0.6979   -0.07989
 C 0.0279 0.3283 0.7872   0.679449
 C 0.8895 0.3331 0.7872   -0.118439
 C 0.8243 0.3268 0.7013   -0.074235
 C 0.1607 0.3259 0.4882   0.162494
 C 0.1569 0.3246 0.3902   -0.186844
 C 0.2634 0.3372 0.3388   0.109932
 C 0.3703 0.3512 0.3906   -0.178239
 C 0.3671 0.3493 0.489   0.161311
 C 0.2629 0.3376 0.2344   0.089211
 C 0.1523 0.3298 0.1812   -0.183217
 C 0.374 0.3469 0.1825   -0.18009
 C 0.1574 0.3305 0.0839   0.165101
 C 0.3699 0.3466 0.0848   0.179686
 C 0.5003 0.6505 0.2124   0.672922
 C 0.3637 0.6571 0.2121   -0.136584
 C 0.2974 0.6508 0.1275   -0.05133
 C 0.1709 0.6554 0.128   -0.067713
 C 0.3015 0.6687 0.2982   -0.066086
 C 0.7207 0.4226 0.2124   0.676375
 C 0.7334 0.2884 0.214   -0.129707
 C 0.7444 0.2347 0.2992   -0.078529
 C 0.7382 0.2185 0.1317   -0.063983
 C 0.7576 0.9015 0.2218   0.679749
 C 0.7549 0.0388 0.218   -0.105741
 C 0.7479 0.0937 0.1333   -0.061757
 C 0.7551 0.1088 0.3021   -0.079889
 C 0.9721 0.6717 0.2128   0.679449
 C 0.1105 0.6669 0.2128   -0.11844
 C 0.1757 0.6732 0.2987   -0.074229
 C 0.8393 0.6741 0.5118   0.162495
 C 0.8431 0.6754 0.6098   -0.18684
 C 0.7366 0.6628 0.6612   0.109933
 C 0.6297 0.6488 0.6094   -0.178233
 C 0.6329 0.6507 0.511   0.161312
 C 0.7371 0.6624 0.7656   0.089212
 C 0.8477 0.6702 0.8188   -0.183219
 C 0.626 0.6531 0.8175   -0.180089
 C 0.8426 0.6695 0.9161   0.165099
 C 0.6301 0.6534 0.9152   0.179684
 N 0.2638 0.3353 0.537   -0.274224
 N 0.2651 0.3402 0.0348   -0.296125
 N 0.7362 0.6647 0.463   -0.274224
 N 0.7349 0.6598 0.9652   -0.296125
 O 0.4497 0.3572 0.8669   -0.580517
 O 0.4468 0.345 0.7079   -0.594021
 O 0.2839 0.5317 0.8677   -0.596365
 O 0.2858 0.5211 0.7106   -0.609328
 O 0.2439 0.1572 0.8577   -0.604286
 O 0.2396 0.145 0.6988   -0.594535
 O 0.0805 0.3312 0.8659   -0.579601
 O 0.0787 0.3238 0.7074   -0.5984
 O 0.5503 0.6428 0.1331   -0.580518
 O 0.5532 0.655 0.2921   -0.594021
 O 0.7161 0.4683 0.1323   -0.596365
 O 0.7142 0.4789 0.2894   -0.609328
 O 0.7561 0.8428 0.1423   -0.604286
 O 0.7604 0.855 0.3012   -0.594536
 O 0.9195 0.6688 0.1341   -0.579601
 O 0.9213 0.6762 0.2926   -0.5984
