{'_ref': 'TBD', '_srcid': 'CAKYAQ_clean', 'submitters': [{'name': 'Dalar Nazarian Jeff Camp and David Sholl', 'email': 'dalar@gatech.edu jcamp6@gatech.edu'}], '_method': 'VASP DFT with PBE;DDEC'}
data_Cu3H16C24(N10Cl)2
_symmetry_space_group_name_H-M   'P 1'
_cell_length_a   12.33050000
_cell_length_b   15.50690000
_cell_length_c   15.64120000
_cell_angle_alpha   90.00000000
_cell_angle_beta   90.00000000
_cell_angle_gamma   90.00000000
_symmetry_Int_Tables_number   1
_chemical_formula_structural   Cu3H16C24(N10Cl)2
_chemical_formula_sum   'Cu6 H32 C48 N40 Cl4'
_cell_volume   2990.71991763
_cell_formula_units_Z   2
loop_
 _symmetry_equiv_pos_site_id
 _symmetry_equiv_pos_as_xyz
  1  'x, y, z'
loop_
 _atom_site_label
 _atom_site_fract_x
 _atom_site_fract_y
 _atom_site_fract_z
 _atom_site_charge
 Cu 0.0 0.0 0.0   0.503538
 Cu 0.5 0.5 0.5   0.503538
 Cu 0.15251 0.0 0.19216   0.526622
 Cu 0.84749 0.0 0.80784   0.526622
 Cu 0.34749 0.5 0.69216   0.526622
 Cu 0.65251 0.5 0.30784   0.526622
 H 0.7737 0.7162 0.0973   0.140934
 H 0.6786 0.6005 0.1501   0.080729
 H 0.8424 0.6039 0.3585   0.086169
 H 0.9433 0.7188 0.3112   0.136777
 H 0.2263 0.7162 0.9027   0.140934
 H 0.3214 0.6005 0.8499   0.08073
 H 0.1576 0.6039 0.6415   0.086169
 H 0.0567 0.7188 0.6888   0.136777
 H 0.7263 0.7838 0.5973   0.140934
 H 0.8214 0.8995 0.6501   0.080729
 H 0.6576 0.8961 0.8585   0.086169
 H 0.5567 0.7812 0.8112   0.136777
 H 0.2737 0.7838 0.4027   0.140934
 H 0.1786 0.8995 0.3499   0.08073
 H 0.3424 0.8961 0.1415   0.086168
 H 0.4433 0.7812 0.1888   0.136777
 H 0.2263 0.2838 0.9027   0.140934
 H 0.3214 0.3995 0.8499   0.080731
 H 0.1576 0.3961 0.6415   0.086167
 H 0.0567 0.2812 0.6888   0.136777
 H 0.7737 0.2838 0.0973   0.140934
 H 0.6786 0.3995 0.1501   0.080731
 H 0.8424 0.3961 0.3585   0.086167
 H 0.9433 0.2812 0.3112   0.136777
 H 0.2737 0.2162 0.4027   0.140934
 H 0.1786 0.1005 0.3499   0.080731
 H 0.3424 0.1039 0.1415   0.086167
 H 0.4433 0.2188 0.1888   0.136777
 H 0.7263 0.2162 0.5973   0.140934
 H 0.8214 0.1005 0.6501   0.080731
 H 0.6576 0.1039 0.8585   0.086167
 H 0.5567 0.2188 0.8112   0.136777
 C 0.9335 0.8054 0.1669   0.317373
 C 0.8716 0.7299 0.1986   0.068611
 C 0.7902 0.6943 0.1511   -0.166676
 C 0.7324 0.625 0.1839   0.124329
 C 0.8277 0.6268 0.3048   0.155479
 C 0.8894 0.6959 0.2764   -0.17027
 C 0.0665 0.8054 0.8331   0.317373
 C 0.1284 0.7299 0.8014   0.068612
 C 0.2098 0.6943 0.8489   -0.166673
 C 0.2676 0.625 0.8161   0.124328
 C 0.1723 0.6268 0.6952   0.155479
 C 0.1106 0.6959 0.7236   -0.17027
 C 0.5665 0.6946 0.6669   0.317373
 C 0.6284 0.7701 0.6986   0.068611
 C 0.7098 0.8057 0.6511   -0.166675
 C 0.7676 0.875 0.6839   0.124329
 C 0.6723 0.8732 0.8048   0.155479
 C 0.6106 0.8041 0.7764   -0.170269
 C 0.4335 0.6946 0.3331   0.317373
 C 0.3716 0.7701 0.3014   0.068612
 C 0.2902 0.8057 0.3489   -0.166673
 C 0.2324 0.875 0.3161   0.124328
 C 0.3277 0.8732 0.1952   0.155479
 C 0.3894 0.8041 0.2236   -0.170269
 C 0.0665 0.1946 0.8331   0.317373
 C 0.1284 0.2701 0.8014   0.068611
 C 0.2098 0.3057 0.8489   -0.166674
 C 0.2676 0.375 0.8161   0.12433
 C 0.1723 0.3732 0.6952   0.155478
 C 0.1106 0.3041 0.7236   -0.170269
 C 0.9335 0.1946 0.1669   0.317373
 C 0.8716 0.2701 0.1986   0.068612
 C 0.7902 0.3057 0.1511   -0.166672
 C 0.7324 0.375 0.1839   0.12433
 C 0.8277 0.3732 0.3048   0.155478
 C 0.8894 0.3041 0.2764   -0.170269
 C 0.4335 0.3054 0.3331   0.317373
 C 0.3716 0.2299 0.3014   0.068611
 C 0.2902 0.1943 0.3489   -0.166673
 C 0.2324 0.125 0.3161   0.12433
 C 0.3277 0.1268 0.1952   0.155478
 C 0.3894 0.1959 0.2236   -0.170269
 C 0.5665 0.3054 0.6669   0.317373
 C 0.6284 0.2299 0.6986   0.068612
 C 0.7098 0.1943 0.6511   -0.166671
 C 0.7676 0.125 0.6839   0.12433
 C 0.6723 0.1268 0.8048   0.155478
 C 0.6106 0.1959 0.7764   -0.170269
 N 0.9852 0.90816 0.09105   0.047727
 N 0.04 0.90936 0.16389   0.006571
 N 0.0087 0.84487 0.2132   -0.352051
 N 0.9164 0.84209 0.09141   -0.306803
 N 0.7497 0.59244 0.25951   -0.245508
 N 0.0148 0.90816 0.90895   0.047726
 N 0.96 0.90936 0.83611   0.006571
 N 0.9913 0.84487 0.7868   -0.352051
 N 0.0836 0.84209 0.90859   -0.306803
 N 0.2503 0.59244 0.74049   -0.245508
 N 0.5148 0.59184 0.59105   0.047727
 N 0.46 0.59064 0.66389   0.006571
 N 0.4913 0.65513 0.7132   -0.352051
 N 0.5836 0.65791 0.59141   -0.306803
 N 0.7503 0.90756 0.75951   -0.245508
 N 0.4852 0.59184 0.40895   0.047726
 N 0.54 0.59064 0.33611   0.006571
 N 0.5087 0.65513 0.2868   -0.352051
 N 0.4164 0.65791 0.40859   -0.306803
 N 0.2497 0.90756 0.24049   -0.245508
 N 0.0148 0.09184 0.90895   0.047727
 N 0.96 0.09064 0.83611   0.006571
 N 0.9913 0.15513 0.7868   -0.352051
 N 0.0836 0.15791 0.90859   -0.306803
 N 0.2503 0.40756 0.74049   -0.245508
 N 0.9852 0.09184 0.09105   0.047726
 N 0.04 0.09064 0.16389   0.006571
 N 0.0087 0.15513 0.2132   -0.352051
 N 0.9164 0.15791 0.09141   -0.306803
 N 0.7497 0.40756 0.25951   -0.245508
 N 0.4852 0.40816 0.40895   0.047727
 N 0.54 0.40936 0.33611   0.006571
 N 0.5087 0.34487 0.2868   -0.352051
 N 0.4164 0.34209 0.40859   -0.306803
 N 0.2497 0.09244 0.24049   -0.245508
 N 0.5148 0.40816 0.59105   0.047726
 N 0.46 0.40936 0.66389   0.006571
 N 0.4913 0.34487 0.7132   -0.352051
 N 0.5836 0.34209 0.59141   -0.306803
 N 0.7503 0.09244 0.75951   -0.245508
 Cl 0.21617 0.0 0.03771   -0.625179
 Cl 0.78383 0.0 0.96229   -0.625179
 Cl 0.28383 0.5 0.53771   -0.625179
 Cl 0.71617 0.5 0.46229   -0.625179
