{'_ref': 'TBD', '_srcid': 'CAKYAQ_clean', 'submitters': [{'name': 'Dalar Nazarian Jeff Camp and David Sholl', 'email': 'dalar@gatech.edu jcamp6@gatech.edu'}], '_method': 'VASP DFT with PBE;DDEC'}
data_Al5P5O20F
_symmetry_space_group_name_H-M   'P 1'
_cell_length_a   8.42120048
_cell_length_b   12.13150034
_cell_length_c   12.13150000
_cell_angle_alpha   66.43619858
_cell_angle_beta   69.69129946
_cell_angle_gamma   69.69130026
_symmetry_Int_Tables_number   1
_chemical_formula_structural   Al5P5O20F
_chemical_formula_sum   'Al10 P10 O40 F2'
_cell_volume   1033.65186258
_cell_formula_units_Z   2
loop_
 _symmetry_equiv_pos_site_id
 _symmetry_equiv_pos_as_xyz
  1  'x, y, z'
loop_
 _atom_site_label
 _atom_site_fract_x
 _atom_site_fract_y
 _atom_site_fract_z
 _atom_site_charge
 Al 0.2127 0.8369 0.0971   2.045383
 Al 0.8023 0.9444 0.8448   2.080819
 Al 0.1467 0.1631 0.9029   2.045337
 Al 0.5915 0.0556 0.1552   2.080233
 Al 0.7127 0.5971 0.3369   2.045377
 Al 0.3023 0.3448 0.4444   2.080807
 Al 0.6467 0.4029 0.6631   2.045332
 Al 0.0915 0.6552 0.5556   2.080221
 Al 0.438 0.8978 0.6022   2.131355
 Al 0.938 0.1022 0.3978   2.131353
 P 0.845 0.8107 0.1143   2.213318
 P 0.4334 0.9406 0.8394   2.286809
 P 0.77 0.1893 0.8857   2.211009
 P 0.2134 0.0594 0.1606   2.283383
 P 0.345 0.6143 0.3107   2.213317
 P 0.9334 0.3394 0.4406   2.286808
 P 0.27 0.3857 0.6893   2.211007
 P 0.7134 0.6606 0.5594   2.283382
 P 0.0727 0.886 0.614   2.438642
 P 0.5727 0.114 0.386   2.438642
 O 0.0215 0.8121 0.1085   -0.986811
 O 0.6133 0.9396 0.8256   -1.092572
 O 0.8189 0.6857 0.1867   -0.945871
 O 0.8426 0.8393 0.9851   -1.051767
 O 0.3653 0.8476 0.9562   -1.042619
 O 0.7205 0.9085 0.1673   -1.10546
 O 0.3145 0.0669 0.8333   -1.096936
 O 0.9741 0.8928 0.7344   -1.091241
 O 0.4342 0.9144 0.7332   -1.081322
 O 0.9421 0.1879 0.8915   -0.988029
 O 0.3785 0.0604 0.1744   -1.091065
 O 0.6913 0.3143 0.8133   -0.944829
 O 0.667 0.1607 0.0149   -1.050671
 O 0.1691 0.1524 0.0438   -1.041523
 O 0.7963 0.0915 0.8327   -1.104636
 O 0.2147 0.9331 0.1667   -1.096516
 O 0.6013 0.1072 0.2656   -1.089942
 O 0.0818 0.0856 0.2668   -1.080238
 O 0.5215 0.6085 0.3121   -0.98681
 O 0.1133 0.3256 0.4396   -1.09257
 O 0.3189 0.6867 0.1857   -0.945872
 O 0.3426 0.4851 0.3393   -1.051765
 O 0.8653 0.4562 0.3476   -1.042618
 O 0.2205 0.6673 0.4085   -1.105458
 O 0.8145 0.3333 0.5669   -1.096935
 O 0.4741 0.2344 0.3928   -1.09124
 O 0.9342 0.2332 0.4144   -1.081321
 O 0.4421 0.3915 0.6879   -0.988028
 O 0.8785 0.6744 0.5604   -1.091063
 O 0.1913 0.3133 0.8143   -0.944829
 O 0.167 0.5149 0.6607   -1.05067
 O 0.6691 0.5438 0.6524   -1.041522
 O 0.2963 0.3327 0.5915   -1.104634
 O 0.7147 0.6667 0.4331   -1.096514
 O 0.1013 0.7656 0.6072   -1.089941
 O 0.5818 0.7668 0.5856   -1.080238
 O 0.237 0.902 0.598   -1.131521
 O 0.009 0.9828 0.5172   -1.144479
 O 0.737 0.098 0.402   -1.13152
 O 0.509 0.0172 0.4828   -1.144479
 F 0.0865 0.0 0.0   -0.55823
 F 0.5865 0.5 0.5   -0.558229
