{'_ref': 'TBD', '_srcid': 'CAKYAQ_clean', 'submitters': [{'name': 'Dalar Nazarian Jeff Camp and David Sholl', 'email': 'dalar@gatech.edu jcamp6@gatech.edu'}], '_method': 'VASP DFT with PBE;DDEC'}
data_Sm2Cu3H30C24(NO4)6
_symmetry_space_group_name_H-M   'P 1'
_cell_length_a   13.37700000
_cell_length_b   13.37700015
_cell_length_c   14.46200000
_cell_angle_alpha   90.00000000
_cell_angle_beta   90.00000000
_cell_angle_gamma   119.99999963
_symmetry_Int_Tables_number   1
_chemical_formula_structural   Sm2Cu3H30C24(NO4)6
_chemical_formula_sum   'Sm4 Cu6 H60 C48 N12 O48'
_cell_volume   2241.17851024
_cell_formula_units_Z   2
loop_
 _symmetry_equiv_pos_site_id
 _symmetry_equiv_pos_as_xyz
  1  'x, y, z'
loop_
 _atom_site_label
 _atom_site_fract_x
 _atom_site_fract_y
 _atom_site_fract_z
 _atom_site_charge
 Sm 0.66667 0.33334 0.33243   2.303304
 Sm 0.33333 0.66666 0.16757   2.303304
 Sm 0.33333 0.66666 0.66757   2.303303
 Sm 0.66667 0.33334 0.83243   2.303303
 Cu 0.5 0.0 0.5   0.813466
 Cu 0.5 0.5 0.5   0.813459
 Cu 0.0 0.5 0.5   0.813454
 Cu 0.5 0.0 0.0   0.813466
 Cu 0.0 0.5 0.0   0.813458
 Cu 0.5 0.5 0.0   0.813455
 H 0.9608 0.2545 0.95   0.127036
 H 0.8624 0.1809 0.0211   0.107701
 H 0.8065 0.2672 0.1283   0.139319
 H 0.9143 0.3136 0.1935   0.138589
 H 0.0238 0.3498 0.0787   0.257526
 H 0.2937 0.0392 0.95   0.127035
 H 0.3185 0.1376 0.0211   0.107696
 H 0.4607 0.1935 0.1283   0.139313
 H 0.3993 0.0857 0.1935   0.138586
 H 0.326 0.9762 0.0787   0.257528
 H 0.7455 0.7063 0.95   0.12704
 H 0.8191 0.6815 0.0211   0.107702
 H 0.7328 0.5393 0.1283   0.139315
 H 0.6864 0.6007 0.1935   0.138588
 H 0.6502 0.674 0.0787   0.257529
 H 0.7063 0.7455 0.55   0.127037
 H 0.6815 0.8191 0.4789   0.107701
 H 0.5393 0.7328 0.3717   0.139319
 H 0.6007 0.6864 0.3065   0.138589
 H 0.674 0.6502 0.4213   0.257526
 H 0.2545 0.9608 0.55   0.127035
 H 0.1809 0.8624 0.4789   0.107696
 H 0.2672 0.8065 0.3717   0.139313
 H 0.3136 0.9143 0.3065   0.138586
 H 0.3498 0.0238 0.4213   0.257528
 H 0.0392 0.2937 0.55   0.12704
 H 0.1376 0.3185 0.4789   0.107702
 H 0.1935 0.4607 0.3717   0.139315
 H 0.0857 0.3993 0.3065   0.138589
 H 0.9762 0.326 0.4213   0.257529
 H 0.0392 0.7455 0.05   0.127036
 H 0.1376 0.8191 0.9789   0.107701
 H 0.1935 0.7328 0.8717   0.139319
 H 0.0857 0.6864 0.8065   0.138589
 H 0.9762 0.6502 0.9213   0.257526
 H 0.7063 0.9608 0.05   0.127035
 H 0.6815 0.8624 0.9789   0.107695
 H 0.5393 0.8065 0.8717   0.139314
 H 0.6007 0.9143 0.8065   0.138586
 H 0.674 0.0238 0.9213   0.257528
 H 0.2545 0.2937 0.05   0.12704
 H 0.1809 0.3185 0.9789   0.107701
 H 0.2672 0.4607 0.8717   0.139315
 H 0.3136 0.3993 0.8065   0.138589
 H 0.3498 0.326 0.9213   0.257529
 H 0.2937 0.2545 0.45   0.127037
 H 0.3185 0.1809 0.5211   0.107701
 H 0.4607 0.2672 0.6283   0.139319
 H 0.3993 0.3136 0.6935   0.13859
 H 0.326 0.3498 0.5787   0.257526
 H 0.7455 0.0392 0.45   0.127035
 H 0.8191 0.1376 0.5211   0.107695
 H 0.7328 0.1935 0.6283   0.139314
 H 0.6864 0.0857 0.6935   0.138587
 H 0.6502 0.9762 0.5787   0.257528
 H 0.9608 0.7063 0.45   0.12704
 H 0.8624 0.6815 0.5211   0.107701
 H 0.8065 0.5393 0.6283   0.139315
 H 0.9143 0.6007 0.6935   0.138589
 H 0.0238 0.674 0.5787   0.257529
 C 0.7301 0.1838 0.4314   0.700363
 C 0.7456 0.0979 0.4899   -0.186204
 C 0.8757 0.4378 0.1599   0.755161
 C 0.8832 0.332 0.1398   -0.225483
 C 0.4537 0.2699 0.4314   0.70037
 C 0.3523 0.2544 0.4899   -0.186208
 C 0.5621 0.1243 0.1599   0.755145
 C 0.4488 0.1168 0.1398   -0.225477
 C 0.8162 0.5463 0.4314   0.700359
 C 0.9021 0.6477 0.4899   -0.18621
 C 0.5622 0.4379 0.1599   0.755151
 C 0.668 0.5512 0.1398   -0.225486
 C 0.5463 0.8162 0.0686   0.700363
 C 0.6477 0.9021 0.0101   -0.186204
 C 0.4379 0.5622 0.3401   0.75516
 C 0.5512 0.668 0.3602   -0.225483
 C 0.1838 0.7301 0.0686   0.700369
 C 0.0979 0.7456 0.0101   -0.186208
 C 0.4378 0.8757 0.3401   0.755144
 C 0.332 0.8832 0.3602   -0.225477
 C 0.2699 0.4537 0.0686   0.700359
 C 0.2544 0.3523 0.0101   -0.18621
 C 0.1243 0.5621 0.3401   0.755151
 C 0.1168 0.4488 0.3602   -0.225486
 C 0.2699 0.8162 0.5686   0.700363
 C 0.2544 0.9021 0.5101   -0.186204
 C 0.1243 0.5622 0.8401   0.755161
 C 0.1168 0.668 0.8602   -0.225483
 C 0.5463 0.7301 0.5686   0.70037
 C 0.6477 0.7456 0.5101   -0.186208
 C 0.4379 0.8757 0.8401   0.755145
 C 0.5512 0.8832 0.8602   -0.225477
 C 0.1838 0.4537 0.5686   0.700359
 C 0.0979 0.3523 0.5101   -0.18621
 C 0.4378 0.5621 0.8401   0.755151
 C 0.332 0.4488 0.8602   -0.225486
 C 0.4537 0.1838 0.9314   0.700363
 C 0.3523 0.0979 0.9899   -0.186204
 C 0.5621 0.4378 0.6599   0.75516
 C 0.4488 0.332 0.6398   -0.225483
 C 0.8162 0.2699 0.9314   0.700369
 C 0.9021 0.2544 0.9899   -0.186208
 C 0.5622 0.1243 0.6599   0.755144
 C 0.668 0.1168 0.6398   -0.225477
 C 0.7301 0.5463 0.9314   0.700359
 C 0.7456 0.6477 0.9899   -0.18621
 C 0.8757 0.4379 0.6599   0.755151
 C 0.8832 0.5512 0.6398   -0.225486
 N 0.6526 0.0419 0.5587   -0.281424
 N 0.3893 0.3474 0.5587   -0.281424
 N 0.9581 0.6107 0.5587   -0.281422
 N 0.6107 0.9581 0.9413   -0.281424
 N 0.0419 0.6526 0.9413   -0.281423
 N 0.3474 0.3893 0.9413   -0.281422
 N 0.3474 0.9581 0.4413   -0.281424
 N 0.6107 0.6526 0.4413   -0.281424
 N 0.0419 0.3893 0.4413   -0.281422
 N 0.3893 0.0419 0.0587   -0.281424
 N 0.9581 0.3474 0.0587   -0.281423
 N 0.6526 0.6107 0.0587   -0.281422
 O 0.6391 0.1879 0.4417   -0.733542
 O 0.7545 0.5595 0.373   -0.667888
 O 0.5977 0.0737 0.1077   -0.562895
 O 0.8171 0.4358 0.2284   -0.742751
 O 0.5488 0.3609 0.4417   -0.733553
 O 0.805 0.2455 0.373   -0.667917
 O 0.476 0.4023 0.1077   -0.562891
 O 0.6187 0.1829 0.2284   -0.742716
 O 0.8121 0.4512 0.4417   -0.733526
 O 0.4405 0.195 0.373   -0.667903
 O 0.9263 0.524 0.1077   -0.562894
 O 0.5642 0.3813 0.2284   -0.742733
 O 0.4512 0.8121 0.0583   -0.733543
 O 0.195 0.4405 0.127   -0.667888
 O 0.524 0.9263 0.3923   -0.562895
 O 0.3813 0.5642 0.2716   -0.742751
 O 0.1879 0.6391 0.0583   -0.733552
 O 0.5595 0.7545 0.127   -0.667916
 O 0.0737 0.5977 0.3923   -0.562891
 O 0.4358 0.8171 0.2716   -0.742716
 O 0.3609 0.5488 0.0583   -0.733525
 O 0.2455 0.805 0.127   -0.667903
 O 0.4023 0.476 0.3923   -0.562894
 O 0.1829 0.6187 0.2716   -0.742734
 O 0.3609 0.8121 0.5583   -0.733542
 O 0.2455 0.4405 0.627   -0.667888
 O 0.4023 0.9263 0.8923   -0.562895
 O 0.1829 0.5642 0.7716   -0.742751
 O 0.4512 0.6391 0.5583   -0.733553
 O 0.195 0.7545 0.627   -0.667917
 O 0.524 0.5977 0.8923   -0.562891
 O 0.3813 0.8171 0.7716   -0.742716
 O 0.1879 0.5488 0.5583   -0.733526
 O 0.5595 0.805 0.627   -0.667903
 O 0.0737 0.476 0.8923   -0.562894
 O 0.4358 0.6187 0.7716   -0.742733
 O 0.5488 0.1879 0.9417   -0.733543
 O 0.805 0.5595 0.873   -0.667888
 O 0.476 0.0737 0.6077   -0.562895
 O 0.6187 0.4358 0.7284   -0.742751
 O 0.8121 0.3609 0.9417   -0.733552
 O 0.4405 0.2455 0.873   -0.667916
 O 0.9263 0.4023 0.6077   -0.562891
 O 0.5642 0.1829 0.7284   -0.742716
 O 0.6391 0.4512 0.9417   -0.733525
 O 0.7545 0.195 0.873   -0.667903
 O 0.5977 0.524 0.6077   -0.562894
 O 0.8171 0.3813 0.7284   -0.742734
