{'_ref': 'TBD', '_srcid': 'CAKYAQ_clean', 'submitters': [{'name': 'Dalar Nazarian Jeff Camp and David Sholl', 'email': 'dalar@gatech.edu jcamp6@gatech.edu'}], '_method': 'VASP DFT with PBE;DDEC'}
data_Co3H40C68(NO4)4
_symmetry_space_group_name_H-M   'P 1'
_cell_length_a   13.70300005
_cell_length_b   14.11999948
_cell_length_c   15.81000000
_cell_angle_alpha   105.06899954
_cell_angle_beta   103.35499897
_cell_angle_gamma   109.05199958
_symmetry_Int_Tables_number   1
_chemical_formula_structural   Co3H40C68(NO4)4
_chemical_formula_sum   'Co3 H40 C68 N4 O16'
_cell_volume   2619.52253685
_cell_formula_units_Z   1
loop_
 _symmetry_equiv_pos_site_id
 _symmetry_equiv_pos_as_xyz
  1  'x, y, z'
loop_
 _atom_site_label
 _atom_site_fract_x
 _atom_site_fract_y
 _atom_site_fract_z
 _atom_site_charge
 Co 0.97112 0.89549 0.16048   1.154031
 Co 0.02888 0.10451 0.83952   1.154031
 Co 0.0 0.0 0.0   1.209067
 H 0.9227 0.6318 0.2723   0.102911
 H 0.9579 0.5178 0.3409   0.096184
 H 0.2779 0.7317 0.4711   0.134301
 H 0.2346 0.8445 0.3954   0.109963
 H 0.6666 0.8521 0.8585   0.113608
 H 0.4776 0.7883 0.7837   0.124606
 H 0.4314 0.7457 0.0138   0.126269
 H 0.6176 0.809 0.0849   0.106501
 H 0.3534 0.5684 0.7293   0.128113
 H 0.2843 0.4989 0.5682   0.125008
 H 0.1053 0.6731 0.5693   0.107016
 H 0.1782 0.7451 0.7323   0.117037
 H 0.1412 0.5833 0.8519   0.125346
 H 0.0273 0.6221 0.9294   0.106774
 H 0.2193 0.9362 0.0209   0.094847
 H 0.3402 0.8982 0.9525   0.123074
 H 0.1457 0.478 0.2863   0.127753
 H 0.0958 0.3044 0.1855   0.100931
 H 0.0558 0.1937 0.387   0.107447
 H 0.0979 0.3627 0.4872   0.115145
 H 0.0773 0.3682 0.7277   0.102913
 H 0.0421 0.4822 0.6591   0.096184
 H 0.7221 0.2683 0.5289   0.134301
 H 0.7654 0.1555 0.6046   0.109964
 H 0.3334 0.1479 0.1415   0.113608
 H 0.5224 0.2117 0.2163   0.124606
 H 0.5686 0.2543 0.9862   0.126269
 H 0.3824 0.191 0.9151   0.1065
 H 0.6466 0.4316 0.2707   0.128114
 H 0.7157 0.5011 0.4318   0.125007
 H 0.8947 0.3269 0.4307   0.107016
 H 0.8218 0.2549 0.2677   0.117037
 H 0.8588 0.4167 0.1481   0.125348
 H 0.9727 0.3779 0.0706   0.106774
 H 0.7807 0.0638 0.9791   0.094848
 H 0.6598 0.1018 0.0475   0.123075
 H 0.8543 0.522 0.7137   0.127753
 H 0.9042 0.6956 0.8145   0.100931
 H 0.9442 0.8063 0.613   0.107447
 H 0.9021 0.6373 0.5128   0.115145
 C 0.0519 0.8176 0.2741   0.649854
 C 0.0733 0.7466 0.3247   -0.113122
 C 0.9948 0.6517 0.3115   -0.014373
 C 0.0151 0.5836 0.3522   -0.186096
 C 0.1241 0.6121 0.4127   0.149301
 C 0.2062 0.7101 0.4303   -0.195117
 C 0.1795 0.7776 0.3848   -0.02724
 C 0.7808 0.8731 0.0215   0.695428
 C 0.6606 0.8354 0.9787   -0.158061
 C 0.6185 0.8296 0.8901   -0.002419
 C 0.5054 0.791 0.8449   -0.222457
 C 0.435 0.7571 0.8909   0.184433
 C 0.4784 0.766 0.9807   -0.203815
 C 0.5896 0.8042 0.0231   0.000638
 C 0.3042 0.5911 0.6971   -0.13578
 C 0.2624 0.5492 0.6011   -0.150566
 C 0.1886 0.5801 0.5524   0.138338
 C 0.1566 0.6523 0.6012   -0.144019
 C 0.2005 0.6953 0.6992   -0.142736
 C 0.2741 0.6664 0.7467   0.145293
 C 0.2509 0.7367 0.8948   0.170488
 C 0.1581 0.6549 0.8876   -0.19308
 C 0.0901 0.6783 0.9329   -0.0004
 C 0.1125 0.7838 0.9838   -0.143342
 C 0.2045 0.8643 0.9883   0.016665
 C 0.2755 0.8422 0.9464   -0.202098
 C 0.1258 0.4384 0.397   0.171306
 C 0.126 0.4202 0.3071   -0.21128
 C 0.0968 0.3161 0.2471   0.003538
 C 0.0698 0.2312 0.2755   -0.164422
 C 0.0725 0.2514 0.3658   0.005967
 C 0.0985 0.3521 0.4261   -0.211154
 C 0.0358 0.1191 0.2083   0.693551
 C 0.0371 0.8066 0.032   0.674121
 C 0.9481 0.1824 0.7259   0.649854
 C 0.9267 0.2534 0.6753   -0.113122
 C 0.0052 0.3483 0.6885   -0.014374
 C 0.9849 0.4164 0.6478   -0.186096
 C 0.8759 0.3879 0.5873   0.149301
 C 0.7938 0.2899 0.5697   -0.195117
 C 0.8205 0.2224 0.6152   -0.02724
 C 0.2192 0.1269 0.9785   0.695429
 C 0.3394 0.1646 0.0213   -0.158061
 C 0.3815 0.1704 0.1099   -0.002419
 C 0.4946 0.209 0.1551   -0.222457
 C 0.565 0.2429 0.1091   0.184433
 C 0.5216 0.234 0.0193   -0.203815
 C 0.4104 0.1958 0.9769   0.000638
 C 0.6958 0.4089 0.3029   -0.13578
 C 0.7376 0.4508 0.3989   -0.150566
 C 0.8114 0.4199 0.4476   0.138337
 C 0.8434 0.3477 0.3988   -0.144019
 C 0.7995 0.3047 0.3008   -0.142736
 C 0.7259 0.3336 0.2533   0.145293
 C 0.7491 0.2633 0.1052   0.170488
 C 0.8419 0.3451 0.1124   -0.19308
 C 0.9099 0.3217 0.0671   -0.0004
 C 0.8875 0.2162 0.0162   -0.143342
 C 0.7955 0.1357 0.0117   0.016665
 C 0.7245 0.1578 0.0536   -0.202098
 C 0.8742 0.5616 0.603   0.171305
 C 0.874 0.5798 0.6929   -0.21128
 C 0.9032 0.6839 0.7529   0.003538
 C 0.9302 0.7688 0.7245   -0.164422
 C 0.9275 0.7486 0.6342   0.005967
 C 0.9015 0.6479 0.5739   -0.211154
 C 0.9642 0.8809 0.7917   0.693551
 C 0.9629 0.1934 0.968   0.674121
 N 0.1497 0.5431 0.454   -0.086786
 N 0.3199 0.7128 0.8452   -0.12414
 N 0.8503 0.4569 0.546   -0.086786
 N 0.6801 0.2872 0.1548   -0.12414
 O 0.9549 0.8005 0.2374   -0.56917
 O 0.1286 0.8862 0.2665   -0.572317
 O 0.8135 0.8608 0.0976   -0.586291
 O 0.84 0.912 0.9791   -0.606788
 O 0.9636 0.7343 0.0382   -0.537005
 O 0.0232 0.0461 0.2433   -0.581437
 O 0.0238 0.1078 0.1254   -0.600179
 O 0.0562 0.9058 0.0721   -0.664633
 O 0.0451 0.1995 0.7626   -0.56917
 O 0.8714 0.1138 0.7335   -0.572317
 O 0.1865 0.1392 0.9024   -0.586291
 O 0.16 0.088 0.0209   -0.606788
 O 0.0364 0.2657 0.9618   -0.537005
 O 0.9768 0.9539 0.7567   -0.581437
 O 0.9762 0.8922 0.8746   -0.600179
 O 0.9438 0.0942 0.9279   -0.664633
