{'_ref': 'TBD', '_srcid': 'CAKYAQ_clean', 'submitters': [{'name': 'Dalar Nazarian Jeff Camp and David Sholl', 'email': 'dalar@gatech.edu jcamp6@gatech.edu'}], '_method': 'VASP DFT with PBE;DDEC'}
data_Nd2H30C51(NO4)3
_symmetry_space_group_name_H-M   'P 1'
_cell_length_a   15.15600015
_cell_length_b   15.65700007
_cell_length_c   26.96700000
_cell_angle_alpha   81.60299993
_cell_angle_beta   78.04199854
_cell_angle_gamma   73.52900119
_symmetry_Int_Tables_number   1
_chemical_formula_structural   Nd2H30C51(NO4)3
_chemical_formula_sum   'Nd4 H60 C102 N6 O24'
_cell_volume   5977.39370014
_cell_formula_units_Z   2
loop_
 _symmetry_equiv_pos_site_id
 _symmetry_equiv_pos_as_xyz
  1  'x, y, z'
loop_
 _atom_site_label
 _atom_site_fract_x
 _atom_site_fract_y
 _atom_site_fract_z
 _atom_site_charge
 Nd 0.86609 0.22797 0.79243   2.232944
 Nd 0.95499 0.85588 0.32552   2.177234
 Nd 0.13391 0.77203 0.20757   2.232944
 Nd 0.04501 0.14412 0.67448   2.177234
 H 0.8345 0.5584 0.7687   0.115332
 H 0.827 0.6932 0.7964   0.121669
 H 0.9076 0.569 0.9283   0.133589
 H 0.9164 0.4343 0.8992   0.101399
 H 0.9476 0.7356 0.157   0.091488
 H 0.8722 0.7098 0.1002   0.116854
 H 0.6309 0.87 0.1653   0.122615
 H 0.7097 0.8991 0.2225   0.104459
 H 0.7703 0.6332 0.37   0.109173
 H 0.693 0.5341 0.4197   0.130124
 H 0.787 0.5775 0.5413   0.126024
 H 0.8629 0.6753 0.4903   0.108793
 H 0.4727 0.6517 0.172   0.111443
 H 0.3902 0.8881 0.0961   0.100165
 H 0.8352 0.014 0.8251   0.099546
 H 0.7896 0.9013 0.8796   0.124255
 H 0.544 0.63 0.4999   0.120888
 H 0.6035 0.3638 0.5121   0.11861
 H 0.8505 0.398 0.5273   0.120399
 H 0.9063 0.3194 0.5989   0.095085
 H 0.6462 0.36 0.6739   0.107791
 H 0.5917 0.4419 0.6037   0.117279
 H 0.8366 0.837 0.0281   0.123973
 H 0.9002 0.8114 0.9467   0.109716
 H 0.7159 0.681 0.9387   0.118498
 H 0.6503 0.7026 0.02   0.11714
 H 0.6275 0.6547 0.1434   0.127593
 H 0.5418 0.8916 0.0657   0.124623
 H 0.9931 0.7182 0.8051   0.129107
 H 0.0381 0.8315 0.7471   0.110372
 H 0.1655 0.4416 0.2313   0.115332
 H 0.173 0.3068 0.2036   0.121668
 H 0.0924 0.431 0.0717   0.133589
 H 0.0836 0.5657 0.1008   0.101399
 H 0.0524 0.2644 0.843   0.091488
 H 0.1278 0.2902 0.8998   0.116854
 H 0.3691 0.13 0.8347   0.122615
 H 0.2903 0.1009 0.7775   0.104459
 H 0.2297 0.3668 0.63   0.109173
 H 0.307 0.4659 0.5803   0.130125
 H 0.213 0.4225 0.4587   0.126024
 H 0.1371 0.3247 0.5097   0.108793
 H 0.5273 0.3483 0.828   0.111443
 H 0.6098 0.1119 0.9039   0.100165
 H 0.1648 0.986 0.1749   0.099546
 H 0.2104 0.0987 0.1204   0.124255
 H 0.456 0.37 0.5001   0.120887
 H 0.3965 0.6362 0.4879   0.11861
 H 0.1495 0.602 0.4727   0.120399
 H 0.0937 0.6806 0.4011   0.095085
 H 0.3538 0.64 0.3261   0.107791
 H 0.4083 0.5581 0.3963   0.117279
 H 0.1634 0.163 0.9719   0.123973
 H 0.0998 0.1886 0.0533   0.109716
 H 0.2841 0.319 0.0613   0.118498
 H 0.3497 0.2974 0.98   0.11714
 H 0.3725 0.3453 0.8566   0.127593
 H 0.4582 0.1084 0.9343   0.124623
 H 0.0069 0.2818 0.1949   0.129108
 H 0.9619 0.1685 0.2529   0.110372
 C 0.8717 0.3938 0.8195   0.657141
 C 0.8731 0.4811 0.8342   -0.155943
 C 0.848 0.5608 0.8005   -0.001526
 C 0.8447 0.6408 0.8173   -0.216002
 C 0.8664 0.6465 0.8636   0.176803
 C 0.8933 0.5671 0.8967   -0.222895
 C 0.8967 0.487 0.879   0.00104
 C 0.8829 0.8372 0.2362   0.759644
 C 0.8356 0.8186 0.1968   -0.225756
 C 0.8842 0.7629 0.1585   0.02117
 C 0.8397 0.7492 0.1245   -0.208037
 C 0.743 0.7928 0.1237   0.18923
 C 0.695 0.845 0.1627   -0.227233
 C 0.7416 0.8603 0.1978   0.017065
 C 0.8766 0.7237 0.3905   0.703705
 C 0.8264 0.661 0.4236   -0.179125
 C 0.7744 0.6209 0.4044   0.008402
 C 0.7268 0.562 0.4342   -0.221956
 C 0.7305 0.5452 0.4867   0.166163
 C 0.7834 0.5883 0.5068   -0.209664
 C 0.8296 0.6461 0.4763   -0.004889
 C 0.3169 0.7689 0.1557   0.67677
 C 0.4868 0.7005 0.1509   -0.023209
 C 0.4165 0.77 0.1364   -0.105419
 C 0.4383 0.8406 0.1056   -0.023129
 C 0.9721 0.008 0.7408   0.724086
 C 0.9405 0.9351 0.7817   -0.202162
 C 0.8671 0.9547 0.8205   0.023988
 C 0.8398 0.8871 0.8531   -0.206563
 C 0.5909 0.4942 0.5088   0.138669
 C 0.527 0.5773 0.5003   -0.153548
 C 0.5618 0.4195 0.5075   -0.155516
 C 0.7142 0.4365 0.5589   0.180721
 C 0.8088 0.3934 0.5575   -0.209431
 C 0.8425 0.3438 0.6001   -0.002577
 C 0.6885 0.3686 0.6445   0.023314
 C 0.6558 0.4191 0.6023   -0.216971
 C 0.819 0.2823 0.6882   0.743185
 C 0.781 0.3313 0.6438   -0.19097
 C 0.7385 0.767 0.0346   0.134292
 C 0.8131 0.8037 0.0107   -0.162876
 C 0.8493 0.7891 0.962   -0.135172
 C 0.8172 0.7443 0.9332   0.123051
 C 0.7406 0.7117 0.957   -0.135711
 C 0.7022 0.7237 0.0055   -0.158272
 C 0.5795 0.7026 0.1342   -0.195349
 C 0.6004 0.7774 0.1033   0.168766
 C 0.5291 0.8438 0.0881   -0.191462
 C 0.8842 0.8014 0.8472   0.195277
 C 0.9611 0.7778 0.8082   -0.210509
 C 0.9889 0.8453 0.7741   -0.016259
 C 0.1283 0.6062 0.1805   0.657141
 C 0.1269 0.5189 0.1658   -0.155942
 C 0.152 0.4392 0.1995   -0.001526
 C 0.1553 0.3592 0.1827   -0.216002
 C 0.1336 0.3535 0.1364   0.176803
 C 0.1067 0.4329 0.1033   -0.222895
 C 0.1033 0.513 0.121   0.00104
 C 0.1171 0.1628 0.7638   0.759644
 C 0.1644 0.1814 0.8032   -0.225756
 C 0.1158 0.2371 0.8415   0.02117
 C 0.1603 0.2508 0.8755   -0.208037
 C 0.257 0.2072 0.8763   0.18923
 C 0.305 0.155 0.8373   -0.227233
 C 0.2584 0.1397 0.8022   0.017065
 C 0.1234 0.2763 0.6095   0.703705
 C 0.1736 0.339 0.5764   -0.179125
 C 0.2256 0.3791 0.5956   0.008402
 C 0.2732 0.438 0.5658   -0.221956
 C 0.2695 0.4548 0.5133   0.166163
 C 0.2166 0.4117 0.4932   -0.209664
 C 0.1704 0.3539 0.5237   -0.004889
 C 0.6831 0.2311 0.8443   0.67677
 C 0.5132 0.2995 0.8491   -0.023209
 C 0.5835 0.23 0.8636   -0.105419
 C 0.5617 0.1594 0.8944   -0.023129
 C 0.0279 0.992 0.2592   0.724086
 C 0.0595 0.0649 0.2183   -0.202162
 C 0.1329 0.0453 0.1795   0.023988
 C 0.1602 0.1129 0.1469   -0.206563
 C 0.4091 0.5058 0.4912   0.138668
 C 0.473 0.4227 0.4997   -0.153546
 C 0.4382 0.5805 0.4925   -0.155514
 C 0.2858 0.5635 0.4411   0.180721
 C 0.1912 0.6066 0.4425   -0.209432
 C 0.1575 0.6562 0.3999   -0.002577
 C 0.3115 0.6314 0.3555   0.023314
 C 0.3442 0.5809 0.3977   -0.216971
 C 0.181 0.7177 0.3118   0.743185
 C 0.219 0.6687 0.3562   -0.19097
 C 0.2615 0.233 0.9654   0.134292
 C 0.1869 0.1963 0.9893   -0.162876
 C 0.1507 0.2109 0.038   -0.135172
 C 0.1828 0.2557 0.0668   0.123051
 C 0.2594 0.2883 0.043   -0.135711
 C 0.2978 0.2763 0.9945   -0.158272
 C 0.4205 0.2974 0.8658   -0.195349
 C 0.3996 0.2226 0.8967   0.168766
 C 0.4709 0.1562 0.9119   -0.191462
 C 0.1158 0.1986 0.1528   0.195277
 C 0.0389 0.2222 0.1918   -0.210509
 C 0.0111 0.1547 0.2259   -0.016259
 N 0.861 0.7297 0.8818   -0.15062
 N 0.697 0.779 0.0872   -0.149045
 N 0.6779 0.4884 0.5173   -0.105924
 N 0.139 0.2703 0.1182   -0.15062
 N 0.303 0.221 0.9128   -0.149045
 N 0.3221 0.5116 0.4827   -0.105924
 O 0.8545 0.3911 0.7736   -0.671679
 O 0.8896 0.3241 0.8505   -0.70235
 O 0.8415 0.8959 0.2656   -0.682445
 O 0.9644 0.7904 0.2395   -0.822304
 O 0.9264 0.7603 0.4083   -0.765925
 O 0.867 0.741 0.3454   -0.660177
 O 0.9278 0.0904 0.75111   -0.870862
 O 0.0425 0.9878 0.7076   -0.678436
 O 0.2563 0.8434 0.1625   -0.740787
 O 0.296 0.6962 0.1644   -0.647307
 O 0.9028 0.2616 0.6913   -0.817639
 O 0.7613 0.2646 0.7282   -0.667029
 O 0.1455 0.6089 0.2264   -0.671679
 O 0.1104 0.6759 0.1495   -0.70235
 O 0.1585 0.1041 0.7344   -0.682445
 O 0.0356 0.2096 0.7605   -0.822304
 O 0.0736 0.2397 0.5917   -0.765925
 O 0.133 0.259 0.6546   -0.660177
 O 0.0722 0.9096 0.24889   -0.870862
 O 0.9575 0.0122 0.2924   -0.678436
 O 0.7437 0.1566 0.8375   -0.740787
 O 0.704 0.3038 0.8356   -0.647307
 O 0.0972 0.7384 0.3087   -0.817639
 O 0.2387 0.7354 0.2718   -0.667029
