{'_ref': 'TBD', '_srcid': 'CAKYAQ_clean', 'submitters': [{'name': 'Dalar Nazarian Jeff Camp and David Sholl', 'email': 'dalar@gatech.edu jcamp6@gatech.edu'}], '_method': 'VASP DFT with PBE;DDEC'}
data_NiH7C9NO5
_symmetry_space_group_name_H-M   'P 1'
_cell_length_a   9.35490000
_cell_length_b   10.88300000
_cell_length_c   13.10400026
_cell_angle_alpha   113.08000021
_cell_angle_beta   90.00000000
_cell_angle_gamma   90.00000000
_symmetry_Int_Tables_number   1
_chemical_formula_structural   NiH7C9NO5
_chemical_formula_sum   'Ni4 H28 C36 N4 O20'
_cell_volume   1227.32578038
_cell_formula_units_Z   4
loop_
 _symmetry_equiv_pos_site_id
 _symmetry_equiv_pos_as_xyz
  1  'x, y, z'
loop_
 _atom_site_label
 _atom_site_fract_x
 _atom_site_fract_y
 _atom_site_fract_z
 _atom_site_charge
 Ni 0.76161 0.80666 0.57437   0.970659
 Ni 0.26161 0.69334 0.42563   0.970659
 Ni 0.23839 0.19334 0.42563   0.970659
 Ni 0.73839 0.30666 0.57437   0.970659
 H 0.6203 0.503 0.353   0.090651
 H 0.8441 0.495 0.2827   0.137495
 H 0.8538 0.4186 0.3617   0.158112
 H 0.8937 0.7069 0.7311   0.080507
 H 0.9918 0.7766 0.904   0.130118
 H 0.9265 0.152 0.9364   0.12771
 H 0.8357 0.0718 0.7598   0.08166
 H 0.1203 0.997 0.647   0.090651
 H 0.3441 0.005 0.7173   0.137495
 H 0.3538 0.0814 0.6383   0.158112
 H 0.3937 0.7931 0.2689   0.080507
 H 0.4918 0.7234 0.096   0.130118
 H 0.4265 0.348 0.0636   0.127711
 H 0.3357 0.4282 0.2402   0.08166
 H 0.3797 0.497 0.647   0.090651
 H 0.1559 0.505 0.7173   0.137505
 H 0.1462 0.5814 0.6383   0.158113
 H 0.1063 0.2931 0.2689   0.080505
 H 0.0082 0.2234 0.096   0.130139
 H 0.0735 0.848 0.0636   0.127726
 H 0.1643 0.9282 0.2402   0.081658
 H 0.8797 0.003 0.353   0.090651
 H 0.6559 0.995 0.2827   0.137505
 H 0.6462 0.9186 0.3617   0.158113
 H 0.6063 0.2069 0.7311   0.080505
 H 0.5082 0.2766 0.904   0.130139
 H 0.5735 0.652 0.9364   0.127727
 H 0.6643 0.5718 0.7598   0.081658
 C 0.668 0.5478 0.518   0.631484
 C 0.6925 0.5573 0.4056   0.096773
 C 0.8406 0.506 0.3598   -0.384219
 C 0.9636 0.5945 0.4207   0.730217
 C 0.8996 0.7982 0.7733   0.194118
 C 0.9587 0.8391 0.8774   -0.203843
 C 0.9684 0.9753 0.9427   0.088695
 C 0.921 0.0603 0.8962   -0.202274
 C 0.8647 0.0114 0.79   0.176071
 C 0.168 0.9522 0.482   0.631484
 C 0.1925 0.9427 0.5944   0.096773
 C 0.3406 0.994 0.6402   -0.384219
 C 0.4636 0.9055 0.5793   0.730216
 C 0.3996 0.7018 0.2267   0.194118
 C 0.4587 0.6609 0.1226   -0.203843
 C 0.4684 0.5247 0.0573   0.088695
 C 0.421 0.4397 0.1038   -0.202274
 C 0.3647 0.4886 0.21   0.176071
 C 0.332 0.4522 0.482   0.631484
 C 0.3075 0.4427 0.5944   0.096773
 C 0.1594 0.494 0.6402   -0.384223
 C 0.0364 0.4055 0.5793   0.730217
 C 0.1004 0.2018 0.2267   0.194121
 C 0.0413 0.1609 0.1226   -0.20385
 C 0.0316 0.0247 0.0573   0.088692
 C 0.079 0.9397 0.1038   -0.202279
 C 0.1353 0.9886 0.21   0.176073
 C 0.832 0.0478 0.518   0.631484
 C 0.8075 0.0573 0.4056   0.096773
 C 0.6594 0.006 0.3598   -0.384223
 C 0.5364 0.0945 0.4207   0.730217
 C 0.6004 0.2982 0.7733   0.194121
 C 0.5413 0.3391 0.8774   -0.20385
 C 0.5316 0.4753 0.9427   0.088692
 C 0.579 0.5603 0.8962   -0.202279
 C 0.6353 0.5114 0.79   0.176073
 N 0.8506 0.8806 0.7291   -0.294644
 N 0.3506 0.6194 0.2709   -0.294644
 N 0.1494 0.1194 0.2709   -0.294645
 N 0.6494 0.3806 0.7291   -0.294645
 O 0.669 0.6538 0.6038   -0.540723
 O 0.6455 0.4326 0.5138   -0.550779
 O 0.6809 0.6933 0.4146   -0.407119
 O 0.9424 0.6856 0.5159   -0.532392
 O 0.0844 0.5712 0.3745   -0.578294
 O 0.169 0.8462 0.3962   -0.540723
 O 0.1455 0.0674 0.4862   -0.550779
 O 0.1809 0.8067 0.5854   -0.407118
 O 0.4424 0.8144 0.4841   -0.532392
 O 0.5844 0.9288 0.6255   -0.578294
 O 0.331 0.3462 0.3962   -0.540723
 O 0.3545 0.5674 0.4862   -0.550778
 O 0.3191 0.3067 0.5854   -0.407118
 O 0.0576 0.3144 0.4841   -0.532392
 O 0.9156 0.4288 0.6255   -0.578294
 O 0.831 0.1538 0.6038   -0.540723
 O 0.8545 0.9326 0.5138   -0.550778
 O 0.8191 0.1933 0.4146   -0.407118
 O 0.5576 0.1856 0.5159   -0.532391
 O 0.4156 0.0712 0.3745   -0.578294
