{'_ref': 'TBD', '_srcid': 'CAKYAQ_clean', 'submitters': [{'name': 'Dalar Nazarian Jeff Camp and David Sholl', 'email': 'dalar@gatech.edu jcamp6@gatech.edu'}], '_method': 'VASP DFT with PBE;DDEC'}
data_NdH21(C7O4)2
_symmetry_space_group_name_H-M   'P 1'
_cell_length_a   8.64630000
_cell_length_b   9.08049962
_cell_length_c   11.88800000
_cell_angle_alpha   110.25000130
_cell_angle_beta   90.00000000
_cell_angle_gamma   90.00000000
_symmetry_Int_Tables_number   1
_chemical_formula_structural   NdH21(C7O4)2
_chemical_formula_sum   'Nd2 H42 C28 O16'
_cell_volume   875.669565128
_cell_formula_units_Z   2
loop_
 _symmetry_equiv_pos_site_id
 _symmetry_equiv_pos_as_xyz
  1  'x, y, z'
loop_
 _atom_site_label
 _atom_site_fract_x
 _atom_site_fract_y
 _atom_site_fract_z
 _atom_site_charge
 Nd 0.74888 0.52559 0.98773   2.34559
 Nd 0.24888 0.47441 0.01227   2.345588
 H 0.6262 0.1292 0.5815   0.065998
 H 0.5901 0.2778 0.542   0.065608
 H 0.3581 0.3292 0.6617   0.142645
 H 0.394 0.1807 0.7011   0.150715
 H 0.5957 0.0733 0.3202   0.065159
 H 0.6204 0.9345 0.3727   0.056259
 H 0.3721 0.8303 0.2837   0.124859
 H 0.378 0.9547 0.2159   0.139351
 H 0.1556 0.5882 0.6324   0.134986
 H 0.9763 0.6365 0.6432   0.125565
 H 0.3626 0.1553 0.439   0.081434
 H 0.3809 0.013 0.4886   0.07097
 H 0.0646 0.1367 0.3713   0.066444
 H 0.8822 0.1689 0.3828   0.058985
 H 0.1145 0.4126 0.4237   0.081002
 H 0.9325 0.4479 0.4282   0.074084
 H 0.0822 0.3157 0.5883   0.076293
 H 0.9034 0.3653 0.5959   0.080659
 H 0.8884 0.2554 0.2168   0.112777
 H 0.9503 0.0795 0.1793   0.127157
 H 0.912 0.713 0.788   0.403993
 H 0.1262 0.8708 0.4185   0.065995
 H 0.0901 0.7222 0.458   0.065605
 H 0.8581 0.6708 0.3383   0.142644
 H 0.894 0.8193 0.2989   0.150713
 H 0.0957 0.9267 0.6798   0.065156
 H 0.1204 0.0655 0.6273   0.056256
 H 0.8721 0.1697 0.7163   0.124857
 H 0.878 0.0453 0.7841   0.139351
 H 0.6556 0.4118 0.3676   0.13498
 H 0.4763 0.3635 0.3568   0.125561
 H 0.8626 0.8447 0.561   0.081433
 H 0.8809 0.987 0.5114   0.070968
 H 0.5646 0.8633 0.6287   0.066442
 H 0.3822 0.8311 0.6172   0.058983
 H 0.6145 0.5874 0.5763   0.081001
 H 0.4325 0.5521 0.5718   0.074079
 H 0.5822 0.6843 0.4117   0.076291
 H 0.4034 0.6347 0.4041   0.080658
 H 0.3884 0.7446 0.7832   0.112776
 H 0.4503 0.9205 0.8207   0.127157
 H 0.412 0.287 0.212   0.403991
 C 0.5358 0.7764 0.1504   0.802806
 C 0.5424 0.1933 0.5651   -0.083767
 C 0.442 0.2657 0.6787   -0.370689
 C 0.5415 0.9972 0.3491   -0.057734
 C 0.4425 0.8901 0.2497   -0.369313
 C 0.0525 0.5738 0.7869   0.758918
 C 0.052 0.5614 0.6551   -0.380903
 C 0.4386 0.0889 0.4616   -0.166069
 C 0.131 0.24 0.172   0.714672
 C 0.981 0.205 0.3598   -0.072526
 C 0.012 0.378 0.4427   -0.155779
 C 0.008 0.391 0.5748   -0.05677
 C 0.975 0.19 0.2273   -0.328087
 C 0.5393 0.3675 0.7809   0.806522
 C 0.0358 0.2236 0.8496   0.802805
 C 0.0424 0.8067 0.4349   -0.083766
 C 0.942 0.7343 0.3213   -0.370688
 C 0.0415 0.0028 0.6509   -0.057732
 C 0.9425 0.1099 0.7503   -0.369313
 C 0.5525 0.4262 0.2131   0.758917
 C 0.552 0.4386 0.3449   -0.3809
 C 0.9386 0.9111 0.5384   -0.166068
 C 0.631 0.76 0.828   0.714672
 C 0.481 0.795 0.6402   -0.072525
 C 0.512 0.622 0.5573   -0.155777
 C 0.508 0.609 0.4252   -0.05677
 C 0.475 0.81 0.7727   -0.328087
 C 0.0393 0.6325 0.2191   0.806521
 O 0.4696 0.4233 0.8853   -0.892554
 O 0.9383 0.6324 0.8497   -0.602739
 O 0.1164 0.268 0.0817   -0.607107
 O 0.6759 0.7977 0.1321   -0.66088
 O 0.6787 0.3997 0.7756   -0.6824
 O 0.1701 0.5214 0.8233   -0.700553
 O 0.4693 0.6458 0.0839   -0.89647
 O 0.261 0.2349 0.231   -0.649098
 O 0.9696 0.5767 0.1147   -0.892553
 O 0.4383 0.3676 0.1503   -0.602738
 O 0.6164 0.732 0.9183   -0.607104
 O 0.1759 0.2023 0.8679   -0.660878
 O 0.1787 0.6003 0.2244   -0.682399
 O 0.6701 0.4786 0.1767   -0.700553
 O 0.9693 0.3542 0.9161   -0.896469
 O 0.761 0.7651 0.769   -0.649097
