{'_ref': 'TBD', '_srcid': 'CAKYAQ_clean', 'submitters': [{'name': 'Dalar Nazarian Jeff Camp and David Sholl', 'email': 'dalar@gatech.edu jcamp6@gatech.edu'}], '_method': 'VASP DFT with PBE;DDEC'}
data_LaCr(CN)6
_symmetry_space_group_name_H-M   'P 1'
_cell_length_a   7.70530000
_cell_length_b   7.70530040
_cell_length_c   14.81550000
_cell_angle_alpha   90.00000000
_cell_angle_beta   90.00000000
_cell_angle_gamma   119.99999830
_symmetry_Int_Tables_number   1
_chemical_formula_structural   LaCr(CN)6
_chemical_formula_sum   'La2 Cr2 C12 N12'
_cell_volume   761.773882647
_cell_formula_units_Z   2
loop_
 _symmetry_equiv_pos_site_id
 _symmetry_equiv_pos_as_xyz
  1  'x, y, z'
loop_
 _atom_site_label
 _atom_site_fract_x
 _atom_site_fract_y
 _atom_site_fract_z
 _atom_site_charge
 La 0.66667 0.33334 0.75   2.16258
 La 0.33333 0.66666 0.25   2.162581
 Cr 0.0 0.0 0.5   0.075317
 Cr 0.0 0.0 0.0   0.075317
 C 0.2516 0.1092 0.5807   0.18357
 C 0.8576 0.7484 0.5807   0.183552
 C 0.8908 0.1424 0.5807   0.183572
 C 0.7484 0.8908 0.0807   0.18357
 C 0.1424 0.2516 0.0807   0.183552
 C 0.1092 0.8576 0.0807   0.183572
 C 0.7484 0.8908 0.4193   0.18357
 C 0.1424 0.2516 0.4193   0.183552
 C 0.1092 0.8576 0.4193   0.183573
 C 0.2516 0.1092 0.9193   0.18357
 C 0.8576 0.7484 0.9193   0.183552
 C 0.8908 0.1424 0.9193   0.183573
 N 0.3897 0.1698 0.6254   -0.556565
 N 0.7801 0.6103 0.6254   -0.556513
 N 0.8302 0.2199 0.6254   -0.556565
 N 0.6103 0.8302 0.1254   -0.556565
 N 0.2199 0.3897 0.1254   -0.556513
 N 0.1698 0.7801 0.1254   -0.556565
 N 0.6103 0.8302 0.3746   -0.556565
 N 0.2199 0.3897 0.3746   -0.556513
 N 0.1698 0.7801 0.3746   -0.556565
 N 0.3897 0.1698 0.8746   -0.556565
 N 0.7801 0.6103 0.8746   -0.556513
 N 0.8302 0.2199 0.8746   -0.556565
