{'_ref': 'TBD', '_srcid': 'CAKYAQ_clean', 'submitters': [{'name': 'Dalar Nazarian Jeff Camp and David Sholl', 'email': 'dalar@gatech.edu jcamp6@gatech.edu'}], '_method': 'VASP DFT with PBE;DDEC'}
data_Cu4H48C24N3Cl4
_symmetry_space_group_name_H-M   'P 1'
_cell_length_a   13.02600000
_cell_length_b   14.63899992
_cell_length_c   25.77800000
_cell_angle_alpha   90.00000000
_cell_angle_beta   90.00000000
_cell_angle_gamma   110.10800128
_symmetry_Int_Tables_number   1
_chemical_formula_structural   Cu4H48C24N3Cl4
_chemical_formula_sum   'Cu16 H192 C96 N12 Cl16'
_cell_volume   4615.92437548
_cell_formula_units_Z   4
loop_
 _symmetry_equiv_pos_site_id
 _symmetry_equiv_pos_as_xyz
  1  'x, y, z'
loop_
 _atom_site_label
 _atom_site_fract_x
 _atom_site_fract_y
 _atom_site_fract_z
 _atom_site_charge
 Cu 0.2213 0.6783 0.642   0.342313
 Cu 0.1713 0.6904 0.522   0.330024
 Cu 0.4735 0.8949 0.8125   0.306984
 Cu 0.0334 0.7564 0.6071   0.261071
 Cu 0.2787 0.3217 0.142   0.342313
 Cu 0.3287 0.3096 0.022   0.330024
 Cu 0.0265 0.1051 0.3125   0.306984
 Cu 0.4666 0.2436 0.1071   0.261071
 Cu 0.7787 0.3217 0.358   0.342313
 Cu 0.8287 0.3096 0.478   0.330024
 Cu 0.5265 0.1051 0.1875   0.306984
 Cu 0.9666 0.2436 0.3929   0.261071
 Cu 0.7213 0.6783 0.858   0.342313
 Cu 0.6713 0.6904 0.978   0.330024
 Cu 0.9735 0.8949 0.6875   0.306984
 Cu 0.5334 0.7564 0.8929   0.261071
 H 0.3967 0.7289 0.7701   0.067281
 H 0.0072 0.4449 0.4483   0.075375
 H 0.2651 0.8354 0.7021   0.095526
 H 0.3893 0.5734 0.7451   0.048521
 H 0.466 0.52 0.681   0.057326
 H 0.2044 0.4772 0.676   0.045844
 H 0.1632 0.52 0.4005   0.054728
 H 0.223 0.6542 0.3508   0.04747
 H 0.3365 0.6553 0.4657   0.042902
 H 0.2838 0.9805 0.7184   0.067846
 H 0.2796 0.0827 0.7858   0.044472
 H 0.5293 0.0784 0.7434   0.053556
 H 0.3218 0.4877 0.6152   0.104866
 H 0.367 0.613 0.6006   0.094821
 H 0.454 0.5455 0.5897   0.109198
 H 0.564 0.6833 0.7103   0.099063
 H 0.5984 0.6618 0.6464   0.116364
 H 0.5115 0.7294 0.6573   0.112692
 H 0.2096 0.3331 0.726   0.11594
 H 0.333 0.3887 0.6922   0.11508
 H 0.3262 0.4081 0.7595   0.112004
 H 0.0943 0.4313 0.7511   0.112959
 H 0.2013 0.5099 0.7888   0.095933
 H 0.1398 0.5578 0.7398   0.100023
 H 0.3345 0.7704 0.4161   0.106387
 H 0.2535 0.8201 0.3785   0.101776
 H 0.2145 0.7813 0.4426   0.107877
 H 0.0679 0.7121 0.3479   0.10755
 H 0.0273 0.585 0.3562   0.101228
 H 0.0262 0.6603 0.4095   0.119205
 H 0.2411 0.4943 0.5067   0.105982
 H 0.2736 0.4374 0.4519   0.102745
 H 0.3788 0.5118 0.4921   0.106156
 H 0.3928 0.6626 0.3753   0.094012
 H 0.4681 0.61 0.4147   0.120916
 H 0.3629 0.5356 0.3746   0.09903
 H 0.1415 0.9194 0.7868   0.104457
 H 0.1695 0.9697 0.8496   0.13219
 H 0.2239 0.8804 0.8295   0.112143
 H 0.4754 0.0834 0.8461   0.166594
 H 0.3591 0.9767 0.8449   0.075476
 H 0.3475 0.0873 0.8661   0.129092
 H 0.4876 0.9635 0.6711   0.100771
 H 0.5382 0.0844 0.6484   0.114247
 H 0.3971 0.0172 0.6448   0.123936
 H 0.5013 0.2191 0.7007   0.107447
 H 0.4147 0.1843 0.7553   0.10388
 H 0.3612 0.1519 0.6924   0.117542
 H 0.1033 0.2711 0.2701   0.067281
 H 0.4928 0.5551 0.9483   0.075375
 H 0.2349 0.1646 0.2021   0.095526
 H 0.1107 0.4266 0.2451   0.048521
 H 0.034 0.48 0.181   0.057326
 H 0.2956 0.5228 0.176   0.045844
 H 0.3368 0.48 0.9005   0.054728
 H 0.277 0.3458 0.8508   0.04747
 H 0.1635 0.3447 0.9657   0.042902
 H 0.2162 0.0195 0.2184   0.067846
 H 0.2204 0.9173 0.2858   0.044472
 H 0.9707 0.9216 0.2434   0.053556
 H 0.1782 0.5123 0.1152   0.104866
 H 0.133 0.387 0.1006   0.094821
 H 0.046 0.4545 0.0897   0.109198
 H 0.936 0.3167 0.2103   0.099063
 H 0.9016 0.3382 0.1464   0.116364
 H 0.9885 0.2706 0.1573   0.112692
 H 0.2904 0.6669 0.226   0.11594
 H 0.167 0.6113 0.1922   0.11508
 H 0.1738 0.5919 0.2595   0.112004
 H 0.4057 0.5687 0.2511   0.112959
 H 0.2987 0.4901 0.2888   0.095934
 H 0.3602 0.4422 0.2398   0.100023
 H 0.1655 0.2296 0.9161   0.106387
 H 0.2465 0.1799 0.8785   0.101776
 H 0.2855 0.2187 0.9426   0.107877
 H 0.4321 0.2879 0.8479   0.107551
 H 0.4727 0.415 0.8562   0.101228
 H 0.4738 0.3397 0.9095   0.119205
 H 0.2589 0.5057 0.0067   0.105982
 H 0.2264 0.5626 0.9519   0.102745
 H 0.1212 0.4882 0.9921   0.106156
 H 0.1072 0.3374 0.8753   0.094012
 H 0.0319 0.39 0.9147   0.120916
 H 0.1371 0.4644 0.8746   0.09903
 H 0.3585 0.0806 0.2868   0.104457
 H 0.3305 0.0303 0.3496   0.132189
 H 0.2761 0.1196 0.3295   0.112143
 H 0.0246 0.9166 0.3461   0.166595
 H 0.1409 0.0233 0.3449   0.075476
 H 0.1525 0.9127 0.3661   0.129092
 H 0.0124 0.0365 0.1711   0.100771
 H 0.9618 0.9156 0.1484   0.114247
 H 0.1029 0.9828 0.1448   0.123936
 H 0.9987 0.7809 0.2007   0.107447
 H 0.0853 0.8157 0.2553   0.10388
 H 0.1388 0.8481 0.1924   0.117542
 H 0.6033 0.2711 0.2299   0.067281
 H 0.9928 0.5551 0.5517   0.075375
 H 0.7349 0.1646 0.2979   0.095526
 H 0.6107 0.4266 0.2549   0.048521
 H 0.534 0.48 0.319   0.057326
 H 0.7956 0.5228 0.324   0.045844
 H 0.8368 0.48 0.5995   0.054728
 H 0.777 0.3458 0.6492   0.04747
 H 0.6635 0.3447 0.5343   0.042902
 H 0.7162 0.0195 0.2816   0.067846
 H 0.7204 0.9173 0.2142   0.044472
 H 0.4707 0.9216 0.2566   0.053556
 H 0.6782 0.5123 0.3848   0.104866
 H 0.633 0.387 0.3994   0.094821
 H 0.546 0.4545 0.4103   0.109198
 H 0.436 0.3167 0.2897   0.099063
 H 0.4016 0.3382 0.3536   0.116364
 H 0.4885 0.2706 0.3427   0.112692
 H 0.7904 0.6669 0.274   0.115941
 H 0.667 0.6113 0.3078   0.11508
 H 0.6738 0.5919 0.2405   0.112004
 H 0.9057 0.5687 0.2489   0.112959
 H 0.7987 0.4901 0.2112   0.095933
 H 0.8602 0.4422 0.2602   0.100023
 H 0.6655 0.2296 0.5839   0.106387
 H 0.7465 0.1799 0.6215   0.101776
 H 0.7855 0.2187 0.5574   0.107877
 H 0.9321 0.2879 0.6521   0.10755
 H 0.9727 0.415 0.6438   0.101228
 H 0.9738 0.3397 0.5905   0.119205
 H 0.7589 0.5057 0.4933   0.105982
 H 0.7264 0.5626 0.5481   0.102745
 H 0.6212 0.4882 0.5079   0.106156
 H 0.6072 0.3374 0.6247   0.094012
 H 0.5319 0.39 0.5853   0.120915
 H 0.6371 0.4644 0.6254   0.09903
 H 0.8585 0.0806 0.2132   0.104456
 H 0.8305 0.0303 0.1504   0.132189
 H 0.7761 0.1196 0.1705   0.112143
 H 0.5246 0.9166 0.1539   0.166595
 H 0.6409 0.0233 0.1551   0.075476
 H 0.6525 0.9127 0.1339   0.129092
 H 0.5124 0.0365 0.3289   0.100771
 H 0.4618 0.9156 0.3516   0.114247
 H 0.6029 0.9828 0.3552   0.123936
 H 0.4987 0.7809 0.2993   0.107448
 H 0.5853 0.8157 0.2447   0.10388
 H 0.6388 0.8481 0.3076   0.117542
 H 0.8967 0.7289 0.7299   0.067281
 H 0.5072 0.4449 0.0517   0.075375
 H 0.7651 0.8354 0.7979   0.095526
 H 0.8893 0.5734 0.7549   0.048521
 H 0.966 0.52 0.819   0.057326
 H 0.7044 0.4772 0.824   0.045844
 H 0.6632 0.52 0.0995   0.054728
 H 0.723 0.6542 0.1492   0.04747
 H 0.8365 0.6553 0.0343   0.042902
 H 0.7838 0.9805 0.7816   0.067846
 H 0.7796 0.0827 0.7142   0.044472
 H 0.0293 0.0784 0.7566   0.053556
 H 0.8218 0.4877 0.8848   0.104866
 H 0.867 0.613 0.8994   0.094821
 H 0.954 0.5455 0.9103   0.109198
 H 0.064 0.6833 0.7897   0.099063
 H 0.0984 0.6618 0.8536   0.116364
 H 0.0115 0.7294 0.8427   0.112692
 H 0.7096 0.3331 0.774   0.115941
 H 0.833 0.3887 0.8078   0.11508
 H 0.8262 0.4081 0.7405   0.112004
 H 0.5943 0.4313 0.7489   0.112959
 H 0.7013 0.5099 0.7112   0.095934
 H 0.6398 0.5578 0.7602   0.100023
 H 0.8345 0.7704 0.0839   0.106387
 H 0.7535 0.8201 0.1215   0.101776
 H 0.7145 0.7813 0.0574   0.107877
 H 0.5679 0.7121 0.1521   0.107551
 H 0.5273 0.585 0.1438   0.101228
 H 0.5262 0.6603 0.0905   0.119205
 H 0.7411 0.4943 0.9933   0.105982
 H 0.7736 0.4374 0.0481   0.102745
 H 0.8788 0.5118 0.0079   0.106156
 H 0.8928 0.6626 0.1247   0.094012
 H 0.9681 0.61 0.0853   0.120915
 H 0.8629 0.5356 0.1254   0.09903
 H 0.6415 0.9194 0.7132   0.104456
 H 0.6695 0.9697 0.6504   0.132189
 H 0.7239 0.8804 0.6705   0.112143
 H 0.9754 0.0834 0.6539   0.166596
 H 0.8591 0.9767 0.6551   0.075476
 H 0.8475 0.0873 0.6339   0.129092
 H 0.9876 0.9635 0.8289   0.100771
 H 0.0382 0.0844 0.8516   0.114247
 H 0.8971 0.0172 0.8552   0.123936
 H 0.0013 0.2191 0.7993   0.107448
 H 0.9147 0.1843 0.7447   0.10388
 H 0.8612 0.1519 0.8076   0.117542
 C 0.35 0.7367 0.7369   0.068929
 C 0.0311 0.502 0.4771   0.108205
 C 0.3248 0.8297 0.7298   0.107149
 C 0.3489 0.5756 0.7088   0.062353
 C 0.4372 0.5779 0.6694   0.085164
 C 0.2468 0.4865 0.7127   0.081312
 C 0.1921 0.5848 0.4241   0.055021
 C 0.1859 0.6643 0.3868   0.081462
 C 0.3066 0.5899 0.4425   0.073254
 C 0.3485 0.9909 0.7464   0.039198
 C 0.3025 0.0211 0.7967   0.094877
 C 0.4562 0.0681 0.7209   0.075604
 C 0.5346 0.6694 0.6709   -0.371848
 C 0.3916 0.5542 0.6148   -0.373791
 C 0.2817 0.3974 0.7233   -0.375465
 C 0.1647 0.4972 0.7507   -0.363648
 C 0.252 0.7667 0.4076   -0.366309
 C 0.0682 0.6548 0.3742   -0.370873
 C 0.2994 0.502 0.4757   -0.357019
 C 0.3885 0.6001 0.3985   -0.358241
 C 0.2022 0.9419 0.8171   -0.364708
 C 0.3883 0.0546 0.8393   -0.446991
 C 0.4705 0.0303 0.6674   -0.371189
 C 0.4315 0.1628 0.717   -0.370246
 C 0.15 0.2633 0.2369   0.068929
 C 0.4689 0.498 0.9771   0.108205
 C 0.1752 0.1703 0.2298   0.107149
 C 0.1511 0.4244 0.2088   0.062353
 C 0.0628 0.4221 0.1694   0.085164
 C 0.2532 0.5135 0.2127   0.081312
 C 0.3079 0.4152 0.9241   0.055021
 C 0.3141 0.3357 0.8868   0.081462
 C 0.1934 0.4101 0.9425   0.073254
 C 0.1515 0.0091 0.2464   0.039198
 C 0.1975 0.9789 0.2967   0.094877
 C 0.0438 0.9319 0.2209   0.075604
 C 0.9654 0.3306 0.1709   -0.371848
 C 0.1084 0.4458 0.1148   -0.373791
 C 0.2183 0.6026 0.2233   -0.375465
 C 0.3353 0.5028 0.2507   -0.363648
 C 0.248 0.2333 0.9076   -0.366309
 C 0.4318 0.3452 0.8742   -0.370873
 C 0.2006 0.498 0.9757   -0.357019
 C 0.1115 0.3999 0.8985   -0.358242
 C 0.2978 0.0581 0.3171   -0.364708
 C 0.1117 0.9454 0.3393   -0.446991
 C 0.0295 0.9697 0.1674   -0.371189
 C 0.0685 0.8372 0.217   -0.370246
 C 0.65 0.2633 0.2631   0.068929
 C 0.9689 0.498 0.5229   0.108209
 C 0.6752 0.1703 0.2702   0.107149
 C 0.6511 0.4244 0.2912   0.062353
 C 0.5628 0.4221 0.3306   0.085164
 C 0.7532 0.5135 0.2873   0.081312
 C 0.8079 0.4152 0.5759   0.055021
 C 0.8141 0.3357 0.6132   0.081462
 C 0.6934 0.4101 0.5575   0.073254
 C 0.6515 0.0091 0.2536   0.039198
 C 0.6975 0.9789 0.2033   0.094877
 C 0.5438 0.9319 0.2791   0.075604
 C 0.4654 0.3306 0.3291   -0.371848
 C 0.6084 0.4458 0.3852   -0.373792
 C 0.7183 0.6026 0.2767   -0.375465
 C 0.8353 0.5028 0.2493   -0.363648
 C 0.748 0.2333 0.5924   -0.366309
 C 0.9318 0.3452 0.6258   -0.370873
 C 0.7006 0.498 0.5243   -0.357019
 C 0.6115 0.3999 0.6015   -0.358241
 C 0.7978 0.0581 0.1829   -0.364708
 C 0.6117 0.9454 0.1607   -0.446991
 C 0.5295 0.9697 0.3326   -0.371189
 C 0.5685 0.8372 0.283   -0.370246
 C 0.85 0.7367 0.7631   0.068929
 C 0.5311 0.502 0.0229   0.108209
 C 0.8248 0.8297 0.7702   0.107149
 C 0.8489 0.5756 0.7912   0.062353
 C 0.9372 0.5779 0.8306   0.085164
 C 0.7468 0.4865 0.7873   0.081312
 C 0.6921 0.5848 0.0759   0.055021
 C 0.6859 0.6643 0.1132   0.081462
 C 0.8066 0.5899 0.0575   0.073254
 C 0.8485 0.9909 0.7536   0.039198
 C 0.8025 0.0211 0.7033   0.094877
 C 0.9562 0.0681 0.7791   0.075604
 C 0.0346 0.6694 0.8291   -0.371848
 C 0.8916 0.5542 0.8852   -0.373792
 C 0.7817 0.3974 0.7767   -0.375465
 C 0.6647 0.4972 0.7493   -0.363648
 C 0.752 0.7667 0.0924   -0.366309
 C 0.5682 0.6548 0.1258   -0.370873
 C 0.7994 0.502 0.0243   -0.357019
 C 0.8885 0.6001 0.1015   -0.358241
 C 0.7022 0.9419 0.6829   -0.364708
 C 0.8883 0.0546 0.6607   -0.446991
 C 0.9705 0.0303 0.8326   -0.371189
 C 0.9315 0.1628 0.783   -0.370246
 N 0.3168 0.6665 0.7023   -0.23537
 N 0.1194 0.5789 0.4728   -0.25014
 N 0.3792 0.9004 0.7589   -0.235141
 N 0.1832 0.3335 0.2023   -0.23537
 N 0.3806 0.4211 0.9728   -0.25014
 N 0.1208 0.0996 0.2589   -0.235141
 N 0.6832 0.3335 0.2977   -0.23537
 N 0.8806 0.4211 0.5272   -0.250141
 N 0.6208 0.0996 0.2411   -0.235141
 N 0.8168 0.6665 0.7977   -0.23537
 N 0.6194 0.5789 0.0272   -0.250141
 N 0.8792 0.9004 0.7411   -0.235141
 Cl 0.6214 0.9152 0.8548   -0.358435
 Cl 0.3056 0.7725 0.5736   -0.392135
 Cl 0.0251 0.7605 0.5184   -0.446921
 Cl 0.039 0.627 0.6548   -0.414881
 Cl 0.8786 0.0848 0.3548   -0.358436
 Cl 0.1944 0.2275 0.0736   -0.392135
 Cl 0.4749 0.2395 0.0184   -0.446921
 Cl 0.461 0.373 0.1548   -0.414881
 Cl 0.3786 0.0848 0.1452   -0.358436
 Cl 0.6944 0.2275 0.4264   -0.392135
 Cl 0.9749 0.2395 0.4816   -0.446922
 Cl 0.961 0.373 0.3452   -0.414881
 Cl 0.1214 0.9152 0.6452   -0.358436
 Cl 0.8056 0.7725 0.9264   -0.392135
 Cl 0.5251 0.7605 0.9816   -0.446922
 Cl 0.539 0.627 0.8452   -0.414881
