{'_ref': 'TBD', '_srcid': 'CAKYAQ_clean', 'submitters': [{'name': 'Dalar Nazarian Jeff Camp and David Sholl', 'email': 'dalar@gatech.edu jcamp6@gatech.edu'}], '_method': 'VASP DFT with PBE;DDEC'}
data_Cu2H9C14N5O
_symmetry_space_group_name_H-M   'P 1'
_cell_length_a   7.35780000
_cell_length_b   20.34470000
_cell_length_c   21.99690000
_cell_angle_alpha   90.00000000
_cell_angle_beta   90.00000000
_cell_angle_gamma   90.00000000
_symmetry_Int_Tables_number   1
_chemical_formula_structural   Cu2H9C14N5O
_chemical_formula_sum   'Cu16 H72 C112 N40 O8'
_cell_volume   3292.7650946
_cell_formula_units_Z   8
loop_
 _symmetry_equiv_pos_site_id
 _symmetry_equiv_pos_as_xyz
  1  'x, y, z'
loop_
 _atom_site_label
 _atom_site_fract_x
 _atom_site_fract_y
 _atom_site_fract_z
 _atom_site_charge
 Cu 0.57112 0.67419 0.58738   0.492053
 Cu 0.42888 0.67419 0.91262   0.492053
 Cu 0.57112 0.82581 0.41262   0.49201
 Cu 0.42888 0.82581 0.08738   0.49201
 Cu 0.42888 0.32581 0.41262   0.492053
 Cu 0.57112 0.32581 0.08738   0.492053
 Cu 0.42888 0.17419 0.58738   0.49201
 Cu 0.57112 0.17419 0.91262   0.49201
 Cu 0.5 0.5 0.5   0.654335
 Cu 0.5 0.5 0.0   0.654335
 Cu 0.5 0.0 0.5   0.654335
 Cu 0.5 0.0 0.0   0.654335
 Cu 0.0 0.18 0.75   0.127313
 Cu 0.0 0.32 0.25   0.12731
 Cu 0.0 0.82 0.25   0.127313
 Cu 0.0 0.68 0.75   0.12731
 H 0.2049 0.6991 0.5318   0.079312
 H 0.9318 0.6481 0.5152   0.124527
 H 0.1082 0.4983 0.6167   0.129728
 H 0.3729 0.5544 0.6319   0.09069
 H 0.4709 0.376 0.569   0.100311
 H 0.4653 0.2981 0.6515   0.123415
 H 0.6136 0.2256 0.7118   0.073403
 H 0.0806 0.2948 0.6643   0.079066
 H 0.9465 0.375 0.6052   0.126653
 H 0.7951 0.6991 0.9682   0.079312
 H 0.0682 0.6481 0.9848   0.124527
 H 0.8918 0.4983 0.8833   0.129728
 H 0.6271 0.5544 0.8681   0.090688
 H 0.5291 0.376 0.931   0.100311
 H 0.5347 0.2981 0.8485   0.123415
 H 0.3864 0.2256 0.7882   0.073403
 H 0.9194 0.2948 0.8357   0.079066
 H 0.0535 0.375 0.8948   0.126653
 H 0.2049 0.8009 0.4682   0.079313
 H 0.9318 0.8519 0.4848   0.124524
 H 0.1082 0.0017 0.3833   0.129728
 H 0.3729 0.9456 0.3681   0.09069
 H 0.4709 0.124 0.431   0.10031
 H 0.4653 0.2019 0.3485   0.123416
 H 0.6136 0.2744 0.2882   0.073403
 H 0.0806 0.2052 0.3357   0.079066
 H 0.9465 0.125 0.3948   0.126654
 H 0.7951 0.8009 0.0318   0.079313
 H 0.0682 0.8519 0.0152   0.124524
 H 0.8918 0.0017 0.1167   0.129728
 H 0.6271 0.9456 0.1319   0.090689
 H 0.5291 0.124 0.069   0.10031
 H 0.5347 0.2019 0.1515   0.123416
 H 0.3864 0.2744 0.2118   0.073403
 H 0.9194 0.2052 0.1643   0.079066
 H 0.0535 0.125 0.1052   0.126654
 H 0.7951 0.3009 0.4682   0.079312
 H 0.0682 0.3519 0.4848   0.124528
 H 0.8918 0.5017 0.3833   0.129728
 H 0.6271 0.4456 0.3681   0.09069
 H 0.5291 0.624 0.431   0.100311
 H 0.5347 0.7019 0.3485   0.123415
 H 0.3864 0.7744 0.2882   0.073403
 H 0.9194 0.7052 0.3357   0.079066
 H 0.0535 0.625 0.3948   0.126654
 H 0.2049 0.3009 0.0318   0.079312
 H 0.9318 0.3519 0.0152   0.124528
 H 0.1082 0.5017 0.1167   0.129728
 H 0.3729 0.4456 0.1319   0.090688
 H 0.4709 0.624 0.069   0.100311
 H 0.4653 0.7019 0.1515   0.123415
 H 0.6136 0.7744 0.2118   0.073403
 H 0.0806 0.7052 0.1643   0.079066
 H 0.9465 0.625 0.1052   0.126654
 H 0.7951 0.1991 0.5318   0.079313
 H 0.0682 0.1481 0.5152   0.124525
 H 0.8918 0.9983 0.6167   0.129728
 H 0.6271 0.0544 0.6319   0.09069
 H 0.5291 0.876 0.569   0.10031
 H 0.5347 0.7981 0.6515   0.123416
 H 0.3864 0.7256 0.7118   0.073403
 H 0.9194 0.7948 0.6643   0.079066
 H 0.0535 0.875 0.6052   0.126654
 H 0.2049 0.1991 0.9682   0.079313
 H 0.9318 0.1481 0.9848   0.124525
 H 0.1082 0.9983 0.8833   0.129728
 H 0.3729 0.0544 0.8681   0.090689
 H 0.4709 0.876 0.931   0.10031
 H 0.4653 0.7981 0.8485   0.123416
 H 0.6136 0.7256 0.7882   0.073403
 H 0.0806 0.7948 0.8357   0.079066
 H 0.9465 0.875 0.8948   0.126654
 C 0.5961 0.73185 0.52022   -0.428694
 C 0.1849 0.65806 0.54919   0.150026
 C 0.0205 0.62755 0.5385   -0.132557
 C 0.9895 0.56633 0.56282   0.023078
 C 0.1249 0.5392 0.59875   -0.129915
 C 0.2836 0.5732 0.60759   0.100145
 C 0.8155 0.53092 0.55033   0.478974
 C 0.5846 0.39107 0.58116   0.109253
 C 0.6871 0.34608 0.62169   0.080601
 C 0.5914 0.29954 0.65401   -0.189364
 C 0.6816 0.25566 0.68959   0.130451
 C 0.9544 0.2966 0.6624   0.129603
 C 0.8754 0.3447 0.626   -0.164858
 C 0.1871 0.1529 0.69635   -0.0425
 C 0.4039 0.73185 0.97978   -0.428694
 C 0.8151 0.65806 0.95081   0.150026
 C 0.9795 0.62755 0.9615   -0.132557
 C 0.0105 0.56633 0.93718   0.023078
 C 0.8751 0.5392 0.90125   -0.129915
 C 0.7164 0.5732 0.89241   0.100145
 C 0.1845 0.53092 0.94967   0.478974
 C 0.4154 0.39107 0.91884   0.109253
 C 0.3129 0.34608 0.87831   0.080601
 C 0.4086 0.29954 0.84599   -0.189368
 C 0.3184 0.25566 0.81041   0.130452
 C 0.0456 0.2966 0.8376   0.1296
 C 0.1246 0.3447 0.874   -0.164858
 C 0.8129 0.1529 0.80365   -0.0425
 C 0.5961 0.76815 0.47978   -0.428459
 C 0.1849 0.84194 0.45081   0.150022
 C 0.0205 0.87245 0.4615   -0.132555
 C 0.9895 0.93367 0.43718   0.023077
 C 0.1249 0.9608 0.40125   -0.129915
 C 0.2836 0.9268 0.39241   0.100144
 C 0.8155 0.96908 0.44967   0.478975
 C 0.5846 0.10893 0.41884   0.109252
 C 0.6871 0.15392 0.37831   0.080602
 C 0.5914 0.20046 0.34599   -0.189363
 C 0.6816 0.24434 0.31041   0.130449
 C 0.9544 0.2034 0.3376   0.129603
 C 0.8754 0.1553 0.374   -0.164858
 C 0.1871 0.3471 0.30365   -0.042494
 C 0.4039 0.76815 0.02022   -0.428459
 C 0.8151 0.84194 0.04919   0.150022
 C 0.9795 0.87245 0.0385   -0.132555
 C 0.0105 0.93367 0.06282   0.023077
 C 0.8751 0.9608 0.09875   -0.129915
 C 0.7164 0.9268 0.10759   0.100144
 C 0.1845 0.96908 0.05033   0.478975
 C 0.4154 0.10893 0.08116   0.109252
 C 0.3129 0.15392 0.12169   0.080602
 C 0.4086 0.20046 0.15401   -0.189367
 C 0.3184 0.24434 0.18959   0.13045
 C 0.0456 0.2034 0.1624   0.1296
 C 0.1246 0.1553 0.126   -0.164858
 C 0.8129 0.3471 0.19635   -0.042494
 C 0.4039 0.26815 0.47978   -0.428693
 C 0.8151 0.34194 0.45081   0.150027
 C 0.9795 0.37245 0.4615   -0.132557
 C 0.0105 0.43367 0.43718   0.023078
 C 0.8751 0.4608 0.40125   -0.129915
 C 0.7164 0.4268 0.39241   0.100145
 C 0.1845 0.46908 0.44967   0.478974
 C 0.4154 0.60893 0.41884   0.109253
 C 0.3129 0.65392 0.37831   0.080601
 C 0.4086 0.70046 0.34599   -0.189364
 C 0.3184 0.74434 0.31041   0.130451
 C 0.0456 0.7034 0.3376   0.129604
 C 0.1246 0.6553 0.374   -0.164858
 C 0.8129 0.8471 0.30365   -0.042501
 C 0.5961 0.26815 0.02022   -0.428693
 C 0.1849 0.34194 0.04919   0.150027
 C 0.0205 0.37245 0.0385   -0.132557
 C 0.9895 0.43367 0.06282   0.023078
 C 0.1249 0.4608 0.09875   -0.129915
 C 0.2836 0.4268 0.10759   0.100145
 C 0.8155 0.46908 0.05033   0.478974
 C 0.5846 0.60893 0.08116   0.109253
 C 0.6871 0.65392 0.12169   0.080601
 C 0.5914 0.70046 0.15401   -0.189368
 C 0.6816 0.74434 0.18959   0.130452
 C 0.9544 0.7034 0.1624   0.129601
 C 0.8754 0.6553 0.126   -0.164858
 C 0.1871 0.8471 0.19635   -0.042501
 C 0.4039 0.23185 0.52022   -0.428458
 C 0.8151 0.15806 0.54919   0.150023
 C 0.9795 0.12755 0.5385   -0.132555
 C 0.0105 0.06633 0.56282   0.023077
 C 0.8751 0.0392 0.59875   -0.129915
 C 0.7164 0.0732 0.60759   0.100144
 C 0.1845 0.03092 0.55033   0.478975
 C 0.4154 0.89107 0.58116   0.109252
 C 0.3129 0.84608 0.62169   0.080601
 C 0.4086 0.79954 0.65401   -0.189363
 C 0.3184 0.75566 0.68959   0.130449
 C 0.0456 0.7966 0.6624   0.129604
 C 0.1246 0.8447 0.626   -0.164858
 C 0.8129 0.6529 0.69635   -0.042495
 C 0.5961 0.23185 0.97978   -0.428458
 C 0.1849 0.15806 0.95081   0.150023
 C 0.0205 0.12755 0.9615   -0.132555
 C 0.9895 0.06633 0.93718   0.023077
 C 0.1249 0.0392 0.90125   -0.129915
 C 0.2836 0.0732 0.89241   0.100144
 C 0.8155 0.03092 0.94967   0.478975
 C 0.5846 0.89107 0.91884   0.109252
 C 0.6871 0.84608 0.87831   0.080602
 C 0.5914 0.79954 0.84599   -0.189367
 C 0.6816 0.75566 0.81041   0.13045
 C 0.9544 0.7966 0.8376   0.129601
 C 0.8754 0.8447 0.874   -0.164858
 C 0.1871 0.6529 0.80365   -0.042495
 N 0.3163 0.63211 0.583   -0.295834
 N 0.7944 0.47465 0.57789   -0.404206
 N 0.6295 0.44704 0.56065   -0.102738
 N 0.8613 0.2534 0.69432   -0.213729
 N 0.2885 0.15319 0.65671   -0.381155
 N 0.6837 0.63211 0.917   -0.295835
 N 0.2056 0.47465 0.92211   -0.404206
 N 0.3705 0.44704 0.93935   -0.102738
 N 0.1387 0.2534 0.80568   -0.213729
 N 0.7115 0.15319 0.84329   -0.381156
 N 0.3163 0.86789 0.417   -0.295826
 N 0.7944 0.02535 0.42211   -0.404207
 N 0.6295 0.05296 0.43935   -0.102738
 N 0.8613 0.2466 0.30568   -0.213728
 N 0.2885 0.34681 0.34329   -0.381168
 N 0.6837 0.86789 0.083   -0.295826
 N 0.2056 0.02535 0.07789   -0.404207
 N 0.3705 0.05296 0.06065   -0.102738
 N 0.1387 0.2466 0.19432   -0.213728
 N 0.7115 0.34681 0.15671   -0.381168
 N 0.6837 0.36789 0.417   -0.295834
 N 0.2056 0.52535 0.42211   -0.404206
 N 0.3705 0.55296 0.43935   -0.102738
 N 0.1387 0.7466 0.30568   -0.213729
 N 0.7115 0.84681 0.34329   -0.381155
 N 0.3163 0.36789 0.083   -0.295835
 N 0.7944 0.52535 0.07789   -0.404206
 N 0.6295 0.55296 0.06065   -0.102738
 N 0.8613 0.7466 0.19432   -0.213729
 N 0.2885 0.84681 0.15671   -0.381155
 N 0.6837 0.13211 0.583   -0.295826
 N 0.2056 0.97465 0.57789   -0.404207
 N 0.3705 0.94704 0.56065   -0.102738
 N 0.1387 0.7534 0.69432   -0.213729
 N 0.7115 0.65319 0.65671   -0.381168
 N 0.3163 0.13211 0.917   -0.295826
 N 0.7944 0.97465 0.92211   -0.404207
 N 0.6295 0.94704 0.93935   -0.102738
 N 0.8613 0.7534 0.80568   -0.213728
 N 0.2885 0.65319 0.84329   -0.381168
 O 0.7042 0.55688 0.51255   -0.526653
 O 0.2958 0.55688 0.98745   -0.526653
 O 0.7042 0.94312 0.48745   -0.526652
 O 0.2958 0.94312 0.01255   -0.526652
 O 0.2958 0.44312 0.48745   -0.526653
 O 0.7042 0.44312 0.01255   -0.526653
 O 0.2958 0.05688 0.51255   -0.526652
 O 0.7042 0.05688 0.98745   -0.526652
