{'_ref': 'TBD', '_srcid': 'CAKYAQ_clean', 'submitters': [{'name': 'Dalar Nazarian Jeff Camp and David Sholl', 'email': 'dalar@gatech.edu jcamp6@gatech.edu'}], '_method': 'VASP DFT with PBE;DDEC'}
data_Zn3H16C23SN3O10
_symmetry_space_group_name_H-M   'P 1'
_cell_length_a   10.54820000
_cell_length_b   23.14510000
_cell_length_c   27.39760000
_cell_angle_alpha   90.00000000
_cell_angle_beta   90.00000000
_cell_angle_gamma   90.00000000
_symmetry_Int_Tables_number   1
_chemical_formula_structural   Zn3H16C23SN3O10
_chemical_formula_sum   'Zn24 H128 C184 S8 N24 O80'
_cell_volume   6688.82660672
_cell_formula_units_Z   8
loop_
 _symmetry_equiv_pos_site_id
 _symmetry_equiv_pos_as_xyz
  1  'x, y, z'
loop_
 _atom_site_label
 _atom_site_fract_x
 _atom_site_fract_y
 _atom_site_fract_z
 _atom_site_charge
 Zn 0.41321 0.19572 0.95855   1.019608
 Zn 0.56242 0.26938 0.04152   0.98792
 Zn 0.24291 0.22913 0.04411   0.988631
 Zn 0.91321 0.30428 0.04145   1.019608
 Zn 0.06242 0.23062 0.95848   0.98792
 Zn 0.74291 0.27087 0.95589   0.988631
 Zn 0.58679 0.80428 0.45855   1.019608
 Zn 0.43758 0.73062 0.54152   0.98792
 Zn 0.75709 0.77087 0.54411   0.988631
 Zn 0.08679 0.69572 0.54145   1.019608
 Zn 0.93758 0.76938 0.45848   0.98792
 Zn 0.25709 0.72913 0.45589   0.988631
 Zn 0.58679 0.80428 0.04145   1.019608
 Zn 0.43758 0.73062 0.95848   0.98792
 Zn 0.75709 0.77087 0.95589   0.988631
 Zn 0.08679 0.69572 0.95855   1.019608
 Zn 0.93758 0.76938 0.04152   0.98792
 Zn 0.25709 0.72913 0.04411   0.988631
 Zn 0.41321 0.19572 0.54145   1.019608
 Zn 0.56242 0.26938 0.45848   0.98792
 Zn 0.24291 0.22913 0.45589   0.988631
 Zn 0.91321 0.30428 0.45855   1.019608
 Zn 0.06242 0.23062 0.54152   0.98792
 Zn 0.74291 0.27087 0.54411   0.988631
 H 0.505 0.296 0.951   0.417609
 H 0.0493 0.9562 0.0831   0.103878
 H 0.2793 0.018 0.949   0.100427
 H 0.5608 0.1876 0.1299   0.098548
 H 0.2083 0.1529 0.129   0.100868
 H 0.0995 0.0527 0.0743   0.095103
 H 0.4158 0.1087 0.8721   0.107468
 H 0.588 0.3554 0.1278   0.094531
 H 0.5918 0.3587 0.2122   0.129599
 H 0.3944 0.2792 0.7873   0.136882
 H 0.5575 0.186 0.2133   0.135411
 H 0.2541 0.3197 0.129   0.091553
 H 0.4209 0.1051 0.7885   0.136262
 H 0.3929 0.2772 0.8704   0.091095
 H 0.2002 0.1513 0.2123   0.131101
 H 0.2527 0.3221 0.2126   0.125362
 H 0.005 0.204 0.049   0.417609
 H 0.5493 0.5438 0.9169   0.103878
 H 0.7793 0.482 0.051   0.100427
 H 0.0608 0.3124 0.8701   0.098548
 H 0.7083 0.3471 0.871   0.100868
 H 0.5995 0.4473 0.9257   0.095103
 H 0.9158 0.3913 0.1279   0.107468
 H 0.088 0.1446 0.8722   0.094531
 H 0.0918 0.1413 0.7878   0.129599
 H 0.8944 0.2208 0.2127   0.136882
 H 0.0575 0.314 0.7867   0.135411
 H 0.7541 0.1803 0.871   0.091553
 H 0.9209 0.3949 0.2115   0.136263
 H 0.8929 0.2228 0.1296   0.091095
 H 0.7002 0.3487 0.7877   0.131101
 H 0.7527 0.1779 0.7874   0.125362
 H 0.495 0.704 0.451   0.417609
 H 0.9507 0.0438 0.5831   0.103878
 H 0.7207 0.982 0.449   0.100427
 H 0.4392 0.8124 0.6299   0.098548
 H 0.7917 0.8471 0.629   0.100868
 H 0.9005 0.9473 0.5743   0.095103
 H 0.5842 0.8913 0.3721   0.107468
 H 0.412 0.6446 0.6278   0.094531
 H 0.4082 0.6413 0.7122   0.129599
 H 0.6056 0.7208 0.2873   0.136882
 H 0.4425 0.814 0.7133   0.135411
 H 0.7459 0.6803 0.629   0.091553
 H 0.5791 0.8949 0.2885   0.136262
 H 0.6071 0.7228 0.3704   0.091095
 H 0.7998 0.8487 0.7123   0.131101
 H 0.7473 0.6779 0.7126   0.125362
 H 0.995 0.796 0.549   0.417609
 H 0.4507 0.4562 0.4169   0.103878
 H 0.2207 0.518 0.551   0.100427
 H 0.9392 0.6876 0.3701   0.098548
 H 0.2917 0.6529 0.371   0.100868
 H 0.4005 0.5527 0.4257   0.095103
 H 0.0842 0.6087 0.6279   0.107468
 H 0.912 0.8554 0.3722   0.094531
 H 0.9082 0.8587 0.2878   0.129599
 H 0.1056 0.7792 0.7127   0.136882
 H 0.9425 0.686 0.2867   0.135411
 H 0.2459 0.8197 0.371   0.091553
 H 0.0791 0.6051 0.7115   0.136262
 H 0.1071 0.7772 0.6296   0.091095
 H 0.2998 0.6513 0.2877   0.131101
 H 0.2473 0.8221 0.2874   0.125362
 H 0.495 0.704 0.049   0.417609
 H 0.9507 0.0438 0.9169   0.103877
 H 0.7207 0.982 0.051   0.100427
 H 0.4392 0.8124 0.8701   0.098548
 H 0.7917 0.8471 0.871   0.100868
 H 0.9005 0.9473 0.9257   0.095103
 H 0.5842 0.8913 0.1279   0.107468
 H 0.412 0.6446 0.8722   0.094531
 H 0.4082 0.6413 0.7878   0.1296
 H 0.6056 0.7208 0.2127   0.136883
 H 0.4425 0.814 0.7867   0.13541
 H 0.7459 0.6803 0.871   0.091553
 H 0.5791 0.8949 0.2115   0.136263
 H 0.6071 0.7228 0.1296   0.091095
 H 0.7998 0.8487 0.7877   0.131099
 H 0.7473 0.6779 0.7874   0.125362
 H 0.995 0.796 0.951   0.417609
 H 0.4507 0.4562 0.0831   0.103877
 H 0.2207 0.518 0.949   0.100427
 H 0.9392 0.6876 0.1299   0.098548
 H 0.2917 0.6529 0.129   0.100868
 H 0.4005 0.5527 0.0743   0.095103
 H 0.0842 0.6087 0.8721   0.107468
 H 0.912 0.8554 0.1278   0.094531
 H 0.9082 0.8587 0.2122   0.1296
 H 0.1056 0.7792 0.7873   0.136883
 H 0.9425 0.686 0.2133   0.135411
 H 0.2459 0.8197 0.129   0.091553
 H 0.0791 0.6051 0.7885   0.136263
 H 0.1071 0.7772 0.8704   0.091095
 H 0.2998 0.6513 0.2123   0.131099
 H 0.2473 0.8221 0.2126   0.125362
 H 0.505 0.296 0.549   0.417609
 H 0.0493 0.9562 0.4169   0.103877
 H 0.2793 0.018 0.551   0.100427
 H 0.5608 0.1876 0.3701   0.098548
 H 0.2083 0.1529 0.371   0.100868
 H 0.0995 0.0527 0.4257   0.095103
 H 0.4158 0.1087 0.6279   0.107468
 H 0.588 0.3554 0.3722   0.094531
 H 0.5918 0.3587 0.2878   0.1296
 H 0.3944 0.2792 0.7127   0.136883
 H 0.5575 0.186 0.2867   0.13541
 H 0.2541 0.3197 0.371   0.091553
 H 0.4209 0.1051 0.7115   0.136263
 H 0.3929 0.2772 0.6296   0.091095
 H 0.2002 0.1513 0.2877   0.131099
 H 0.2527 0.3221 0.2874   0.125362
 H 0.005 0.204 0.451   0.417609
 H 0.5493 0.5438 0.5831   0.103877
 H 0.7793 0.482 0.449   0.100427
 H 0.0608 0.3124 0.6299   0.098548
 H 0.7083 0.3471 0.629   0.100868
 H 0.5995 0.4473 0.5743   0.095103
 H 0.9158 0.3913 0.3721   0.107468
 H 0.088 0.1446 0.6278   0.094531
 H 0.0918 0.1413 0.7122   0.1296
 H 0.8944 0.2208 0.2873   0.136883
 H 0.0575 0.314 0.7133   0.135411
 H 0.7541 0.1803 0.629   0.091553
 H 0.9209 0.3949 0.2885   0.136263
 H 0.8929 0.2228 0.3704   0.091095
 H 0.7002 0.3487 0.7123   0.131099
 H 0.7527 0.1779 0.7126   0.125362
 C 0.1119 0.8647 0.0334   0.661689
 C 0.199 0.0446 0.0116   -0.141621
 C 0.2038 0.9471 0.9807   -0.215747
 C 0.4083 0.1921 0.7763   0.086126
 C 0.1394 0.9273 0.0227   -0.009193
 C 0.2295 0.2366 0.2232   0.088466
 C 0.5754 0.2727 0.2234   0.08613
 C 0.241 0.1073 0.0075   0.707237
 C 0.0982 0.9681 0.0563   -0.128149
 C 0.234 0.0052 0.9765   0.022178
 C 0.5652 0.2229 0.1467   0.183558
 C 0.2189 0.1878 0.146   0.188441
 C 0.1279 0.0259 0.051   -0.017434
 C 0.412 0.1436 0.8547   0.167688
 C 0.5818 0.3205 0.1452   0.169995
 C 0.5842 0.3229 0.1963   -0.220907
 C 0.3995 0.2435 0.8035   -0.206615
 C 0.5649 0.2215 0.1969   -0.207474
 C 0.2462 0.2847 0.1462   0.166914
 C 0.4147 0.1411 0.8043   -0.206691
 C 0.3983 0.2419 0.8536   0.195549
 C 0.2141 0.1865 0.1962   -0.20507
 C 0.2441 0.2865 0.1964   -0.210996
 C 0.6119 0.6353 0.9666   0.661689
 C 0.699 0.4554 0.9884   -0.141621
 C 0.7038 0.5529 0.0193   -0.215747
 C 0.9083 0.3079 0.2237   0.086126
 C 0.6394 0.5727 0.9773   -0.009193
 C 0.7295 0.2634 0.7768   0.088466
 C 0.0754 0.2273 0.7766   0.08613
 C 0.741 0.3927 0.9925   0.707237
 C 0.5982 0.5319 0.9437   -0.128149
 C 0.734 0.4948 0.0235   0.022178
 C 0.0652 0.2771 0.8533   0.183558
 C 0.7189 0.3122 0.854   0.188441
 C 0.6279 0.4741 0.949   -0.017434
 C 0.912 0.3564 0.1453   0.167689
 C 0.0818 0.1795 0.8548   0.169995
 C 0.0842 0.1771 0.8037   -0.220907
 C 0.8995 0.2565 0.1965   -0.206615
 C 0.0649 0.2785 0.8031   -0.207474
 C 0.7462 0.2153 0.8538   0.166914
 C 0.9147 0.3589 0.1957   -0.206691
 C 0.8983 0.2581 0.1464   0.195549
 C 0.7141 0.3135 0.8038   -0.20507
 C 0.7441 0.2135 0.8036   -0.210996
 C 0.8881 0.1353 0.5334   0.661689
 C 0.801 0.9554 0.5116   -0.141621
 C 0.7962 0.0529 0.4807   -0.215747
 C 0.5917 0.8079 0.2763   0.086126
 C 0.8606 0.0727 0.5227   -0.009193
 C 0.7705 0.7634 0.7232   0.088466
 C 0.4246 0.7273 0.7234   0.08613
 C 0.759 0.8927 0.5075   0.707237
 C 0.9018 0.0319 0.5563   -0.128149
 C 0.766 0.9948 0.4765   0.022178
 C 0.4348 0.7771 0.6467   0.183558
 C 0.7811 0.8122 0.646   0.188441
 C 0.8721 0.9741 0.551   -0.017434
 C 0.588 0.8564 0.3547   0.167688
 C 0.4182 0.6795 0.6452   0.169995
 C 0.4158 0.6771 0.6963   -0.220907
 C 0.6005 0.7565 0.3035   -0.206615
 C 0.4351 0.7785 0.6969   -0.207474
 C 0.7538 0.7153 0.6462   0.166914
 C 0.5853 0.8589 0.3043   -0.206691
 C 0.6017 0.7581 0.3536   0.195549
 C 0.7859 0.8135 0.6962   -0.20507
 C 0.7559 0.7135 0.6964   -0.210996
 C 0.3881 0.3647 0.4666   0.661689
 C 0.301 0.5446 0.4884   -0.141621
 C 0.2962 0.4471 0.5193   -0.215747
 C 0.0917 0.6921 0.7237   0.086126
 C 0.3606 0.4273 0.4773   -0.009193
 C 0.2705 0.7366 0.2768   0.088466
 C 0.9246 0.7727 0.2766   0.08613
 C 0.259 0.6073 0.4925   0.707237
 C 0.4018 0.4681 0.4437   -0.128149
 C 0.266 0.5052 0.5235   0.022178
 C 0.9348 0.7229 0.3533   0.183558
 C 0.2811 0.6878 0.354   0.188441
 C 0.3721 0.5259 0.449   -0.017434
 C 0.088 0.6436 0.6453   0.167689
 C 0.9182 0.8205 0.3548   0.169995
 C 0.9158 0.8229 0.3037   -0.220907
 C 0.1005 0.7435 0.6965   -0.206615
 C 0.9351 0.7215 0.3031   -0.207474
 C 0.2538 0.7847 0.3538   0.166914
 C 0.0853 0.6411 0.6957   -0.206691
 C 0.1017 0.7419 0.6464   0.195549
 C 0.2859 0.6865 0.3038   -0.20507
 C 0.2559 0.7865 0.3036   -0.210996
 C 0.8881 0.1353 0.9666   0.661689
 C 0.801 0.9554 0.9884   -0.141621
 C 0.7962 0.0529 0.0193   -0.215747
 C 0.5917 0.8079 0.2237   0.086127
 C 0.8606 0.0727 0.9773   -0.009193
 C 0.7705 0.7634 0.7768   0.088465
 C 0.4246 0.7273 0.7766   0.086129
 C 0.759 0.8927 0.9925   0.707237
 C 0.9018 0.0319 0.9437   -0.128149
 C 0.766 0.9948 0.0235   0.022178
 C 0.4348 0.7771 0.8533   0.183558
 C 0.7811 0.8122 0.854   0.188441
 C 0.8721 0.9741 0.949   -0.017434
 C 0.588 0.8564 0.1453   0.167689
 C 0.4182 0.6795 0.8548   0.169995
 C 0.4158 0.6771 0.8037   -0.220907
 C 0.6005 0.7565 0.1965   -0.206616
 C 0.4351 0.7785 0.8031   -0.207474
 C 0.7538 0.7153 0.8538   0.166914
 C 0.5853 0.8589 0.1957   -0.206691
 C 0.6017 0.7581 0.1464   0.195549
 C 0.7859 0.8135 0.8038   -0.205069
 C 0.7559 0.7135 0.8036   -0.210996
 C 0.3881 0.3647 0.0334   0.661689
 C 0.301 0.5446 0.0116   -0.141621
 C 0.2962 0.4471 0.9807   -0.215747
 C 0.0917 0.6921 0.7763   0.086127
 C 0.3606 0.4273 0.0227   -0.009193
 C 0.2705 0.7366 0.2232   0.088466
 C 0.9246 0.7727 0.2234   0.08613
 C 0.259 0.6073 0.0075   0.707237
 C 0.4018 0.4681 0.0563   -0.128149
 C 0.266 0.5052 0.9765   0.022178
 C 0.9348 0.7229 0.1467   0.183558
 C 0.2811 0.6878 0.146   0.188441
 C 0.3721 0.5259 0.051   -0.017434
 C 0.088 0.6436 0.8547   0.167689
 C 0.9182 0.8205 0.1452   0.169995
 C 0.9158 0.8229 0.1963   -0.220907
 C 0.1005 0.7435 0.8035   -0.206615
 C 0.9351 0.7215 0.1969   -0.207474
 C 0.2538 0.7847 0.1462   0.166914
 C 0.0853 0.6411 0.8043   -0.206691
 C 0.1017 0.7419 0.8536   0.19555
 C 0.2859 0.6865 0.1962   -0.205069
 C 0.2559 0.7865 0.1964   -0.210995
 C 0.1119 0.8647 0.4666   0.661689
 C 0.199 0.0446 0.4884   -0.141621
 C 0.2038 0.9471 0.5193   -0.215747
 C 0.4083 0.1921 0.7237   0.086127
 C 0.1394 0.9273 0.4773   -0.009193
 C 0.2295 0.2366 0.2768   0.088465
 C 0.5754 0.2727 0.2766   0.086129
 C 0.241 0.1073 0.4925   0.707237
 C 0.0982 0.9681 0.4437   -0.128149
 C 0.234 0.0052 0.5235   0.022178
 C 0.5652 0.2229 0.3533   0.183558
 C 0.2189 0.1878 0.354   0.188441
 C 0.1279 0.0259 0.449   -0.017434
 C 0.412 0.1436 0.6453   0.167689
 C 0.5818 0.3205 0.3548   0.169995
 C 0.5842 0.3229 0.3037   -0.220907
 C 0.3995 0.2435 0.6965   -0.206616
 C 0.5649 0.2215 0.3031   -0.207474
 C 0.2462 0.2847 0.3538   0.166914
 C 0.4147 0.1411 0.6957   -0.206691
 C 0.3983 0.2419 0.6464   0.195549
 C 0.2141 0.1865 0.3038   -0.205069
 C 0.2441 0.2865 0.3036   -0.210996
 C 0.6119 0.6353 0.5334   0.661689
 C 0.699 0.4554 0.5116   -0.141621
 C 0.7038 0.5529 0.4807   -0.215747
 C 0.9083 0.3079 0.2763   0.086127
 C 0.6394 0.5727 0.5227   -0.009193
 C 0.7295 0.2634 0.7232   0.088466
 C 0.0754 0.2273 0.7234   0.08613
 C 0.741 0.3927 0.5075   0.707237
 C 0.5982 0.5319 0.5563   -0.128149
 C 0.734 0.4948 0.4765   0.022178
 C 0.0652 0.2771 0.6467   0.183558
 C 0.7189 0.3122 0.646   0.188441
 C 0.6279 0.4741 0.551   -0.017434
 C 0.912 0.3564 0.3547   0.167689
 C 0.0818 0.1795 0.6452   0.169995
 C 0.0842 0.1771 0.6963   -0.220907
 C 0.8995 0.2565 0.3035   -0.206615
 C 0.0649 0.2785 0.6969   -0.207474
 C 0.7462 0.2153 0.6462   0.166914
 C 0.9147 0.3589 0.3043   -0.206691
 C 0.8983 0.2581 0.3536   0.19555
 C 0.7141 0.3135 0.6962   -0.205069
 C 0.7441 0.2135 0.6964   -0.210995
 S 0.2472 0.9001 0.93232   1.30228
 S 0.7472 0.5999 0.06768   1.30228
 S 0.7528 0.0999 0.43232   1.30228
 S 0.2528 0.4001 0.56768   1.30228
 S 0.7528 0.0999 0.06768   1.30228
 S 0.2528 0.4001 0.93232   1.30228
 S 0.2472 0.9001 0.56768   1.30228
 S 0.7472 0.5999 0.43232   1.30228
 N 0.2375 0.2354 0.1206   -0.304406
 N 0.4043 0.1932 0.8804   -0.344445
 N 0.5715 0.2719 0.1201   -0.323956
 N 0.7375 0.2646 0.8794   -0.304406
 N 0.9043 0.3068 0.1196   -0.344445
 N 0.0715 0.2281 0.8799   -0.323956
 N 0.7625 0.7646 0.6206   -0.304406
 N 0.5957 0.8068 0.3804   -0.344445
 N 0.4285 0.7281 0.6201   -0.323956
 N 0.2625 0.7354 0.3794   -0.304406
 N 0.0957 0.6932 0.6196   -0.344445
 N 0.9285 0.7719 0.3799   -0.323956
 N 0.7625 0.7646 0.8794   -0.304405
 N 0.5957 0.8068 0.1196   -0.344445
 N 0.4285 0.7281 0.8799   -0.323956
 N 0.2625 0.7354 0.1206   -0.304405
 N 0.0957 0.6932 0.8804   -0.344445
 N 0.9285 0.7719 0.1201   -0.323956
 N 0.2375 0.2354 0.3794   -0.304405
 N 0.4043 0.1932 0.6196   -0.344445
 N 0.5715 0.2719 0.3799   -0.323956
 N 0.7375 0.2646 0.6206   -0.304405
 N 0.9043 0.3068 0.3804   -0.344445
 N 0.0715 0.2281 0.6201   -0.323956
 O 0.432 0.2082 0.03793   -0.660769
 O 0.2463 0.2433 0.96909   -0.661276
 O 0.2097 0.1398 0.04253   -0.582729
 O 0.9969 0.8514 0.03727   -0.585866
 O 0.2026 0.8312 0.04066   -0.587075
 O 0.3039 0.1209 0.97017   -0.602193
 O 0.5479 0.2612 0.9616   -0.882259
 O 0.2451 0.9356 0.8885   -0.641101
 O 0.3749 0.8795 0.9428   -0.571643
 O 0.1544 0.8543 0.9316   -0.600493
 O 0.932 0.2918 0.96207   -0.660769
 O 0.7463 0.2567 0.03091   -0.661276
 O 0.7097 0.3602 0.95747   -0.582729
 O 0.4969 0.6486 0.96273   -0.585866
 O 0.7026 0.6688 0.95934   -0.587075
 O 0.8039 0.3791 0.02983   -0.602193
 O 0.0479 0.2388 0.0384   -0.882259
 O 0.7451 0.5644 0.1115   -0.641101
 O 0.8749 0.6205 0.0572   -0.571643
 O 0.6544 0.6457 0.0684   -0.600493
 O 0.568 0.7918 0.53793   -0.660769
 O 0.7537 0.7567 0.46909   -0.661276
 O 0.7903 0.8602 0.54253   -0.582729
 O 0.0031 0.1486 0.53727   -0.585866
 O 0.7974 0.1688 0.54066   -0.587075
 O 0.6961 0.8791 0.47017   -0.602193
 O 0.4521 0.7388 0.4616   -0.882259
 O 0.7549 0.0644 0.3885   -0.641101
 O 0.6251 0.1205 0.4428   -0.571643
 O 0.8456 0.1457 0.4316   -0.600493
 O 0.068 0.7082 0.46207   -0.660769
 O 0.2537 0.7433 0.53091   -0.661276
 O 0.2903 0.6398 0.45747   -0.582729
 O 0.5031 0.3514 0.46273   -0.585866
 O 0.2974 0.3312 0.45934   -0.587075
 O 0.1961 0.6209 0.52983   -0.602193
 O 0.9521 0.7612 0.5384   -0.882259
 O 0.2549 0.4356 0.6115   -0.641101
 O 0.1251 0.3795 0.5572   -0.571643
 O 0.3456 0.3543 0.5684   -0.600493
 O 0.568 0.7918 0.96207   -0.660769
 O 0.7537 0.7567 0.03091   -0.661276
 O 0.7903 0.8602 0.95747   -0.582729
 O 0.0031 0.1486 0.96273   -0.585866
 O 0.7974 0.1688 0.95934   -0.587075
 O 0.6961 0.8791 0.02983   -0.602193
 O 0.4521 0.7388 0.0384   -0.882259
 O 0.7549 0.0644 0.1115   -0.641101
 O 0.6251 0.1205 0.0572   -0.571643
 O 0.8456 0.1457 0.0684   -0.600493
 O 0.068 0.7082 0.03793   -0.660769
 O 0.2537 0.7433 0.96909   -0.661276
 O 0.2903 0.6398 0.04253   -0.582729
 O 0.5031 0.3514 0.03727   -0.585866
 O 0.2974 0.3312 0.04066   -0.587075
 O 0.1961 0.6209 0.97017   -0.602193
 O 0.9521 0.7612 0.9616   -0.882259
 O 0.2549 0.4356 0.8885   -0.641101
 O 0.1251 0.3795 0.9428   -0.571643
 O 0.3456 0.3543 0.9316   -0.600493
 O 0.432 0.2082 0.46207   -0.660769
 O 0.2463 0.2433 0.53091   -0.661276
 O 0.2097 0.1398 0.45747   -0.582729
 O 0.9969 0.8514 0.46273   -0.585866
 O 0.2026 0.8312 0.45934   -0.587075
 O 0.3039 0.1209 0.52983   -0.602193
 O 0.5479 0.2612 0.5384   -0.882259
 O 0.2451 0.9356 0.6115   -0.641101
 O 0.3749 0.8795 0.5572   -0.571643
 O 0.1544 0.8543 0.5684   -0.600493
 O 0.932 0.2918 0.53793   -0.660769
 O 0.7463 0.2567 0.46909   -0.661276
 O 0.7097 0.3602 0.54253   -0.582729
 O 0.4969 0.6486 0.53727   -0.585866
 O 0.7026 0.6688 0.54066   -0.587075
 O 0.8039 0.3791 0.47017   -0.602193
 O 0.0479 0.2388 0.4616   -0.882259
 O 0.7451 0.5644 0.3885   -0.641101
 O 0.8749 0.6205 0.4428   -0.571643
 O 0.6544 0.6457 0.4316   -0.600493
