{'_ref': 'TBD', '_srcid': 'CAKYAQ_clean', 'submitters': [{'name': 'Dalar Nazarian Jeff Camp and David Sholl', 'email': 'dalar@gatech.edu jcamp6@gatech.edu'}], '_method': 'VASP DFT with PBE;DDEC'}
data_MnH2(CO2)2
_symmetry_space_group_name_H-M   'P 1'
_cell_length_a   10.13090000
_cell_length_b   11.68290042
_cell_length_c   14.89520000
_cell_angle_alpha   91.62499837
_cell_angle_beta   90.00000000
_cell_angle_gamma   90.00000000
_symmetry_Int_Tables_number   1
_chemical_formula_structural   MnH2(CO2)2
_chemical_formula_sum   'Mn12 H24 C24 O48'
_cell_volume   1762.26148862
_cell_formula_units_Z   12
loop_
 _symmetry_equiv_pos_site_id
 _symmetry_equiv_pos_as_xyz
  1  'x, y, z'
loop_
 _atom_site_label
 _atom_site_fract_x
 _atom_site_fract_y
 _atom_site_fract_z
 _atom_site_charge
 Mn 0.10133 0.7605 0.18548   1.142395
 Mn 0.58347 0.24323 0.869   1.157969
 Mn 0.60133 0.7395 0.31452   1.142395
 Mn 0.08347 0.25677 0.631   1.157969
 Mn 0.89867 0.2395 0.81452   1.142395
 Mn 0.41653 0.75677 0.131   1.157969
 Mn 0.39867 0.2605 0.68548   1.142395
 Mn 0.91653 0.74323 0.369   1.157969
 Mn 0.5 0.0 0.0   1.165726
 Mn 0.0 0.5 0.5   1.165726
 Mn 0.5 0.5 0.0   1.157425
 Mn 0.0 0.0 0.5   1.157425
 H 0.2482 0.8619 0.3706   0.005368
 H 0.8856 0.4467 0.9572   0.010067
 H 0.3402 0.3085 0.0761   0.014837
 H 0.2033 0.995 0.0103   0.012963
 H 0.3094 0.0241 0.7671   0.000822
 H 0.4813 0.519 0.7332   0.00922
 H 0.7482 0.6381 0.1294   0.005368
 H 0.3856 0.0533 0.5428   0.010067
 H 0.8402 0.1915 0.4239   0.014837
 H 0.7033 0.505 0.4897   0.012962
 H 0.8094 0.4759 0.7329   0.000821
 H 0.9813 0.981 0.7668   0.009218
 H 0.7518 0.1381 0.6294   0.005368
 H 0.1144 0.5533 0.0428   0.010063
 H 0.6598 0.6915 0.9239   0.014834
 H 0.7967 0.005 0.9897   0.012962
 H 0.6906 0.9759 0.2329   0.000821
 H 0.5187 0.481 0.2668   0.009218
 H 0.2518 0.3619 0.8706   0.005368
 H 0.6144 0.9467 0.4572   0.010063
 H 0.1598 0.8085 0.5761   0.014834
 H 0.2967 0.495 0.5103   0.012962
 H 0.1906 0.5241 0.2671   0.00082
 H 0.0187 0.019 0.2332   0.009216
 C 0.3693 0.0521 0.81413   0.680917
 C 0.3198 0.8298 0.32965   0.668934
 C 0.7904 0.4263 0.94936   0.666328
 C 0.2196 0.9345 0.05405   0.680186
 C 0.4886 0.4804 0.78916   0.679515
 C 0.3993 0.2578 0.0328   0.66808
 C 0.8693 0.4479 0.68587   0.680917
 C 0.8198 0.6702 0.17035   0.668934
 C 0.2904 0.0737 0.55064   0.666328
 C 0.7196 0.5655 0.44595   0.680186
 C 0.9886 0.0196 0.71084   0.679516
 C 0.8993 0.2422 0.4672   0.66808
 C 0.6307 0.9479 0.18587   0.680916
 C 0.6802 0.1702 0.67035   0.668933
 C 0.2096 0.5737 0.05064   0.666329
 C 0.7804 0.0655 0.94595   0.680185
 C 0.5114 0.5196 0.21084   0.679515
 C 0.6007 0.7422 0.9672   0.66808
 C 0.1307 0.5521 0.31413   0.680917
 C 0.1802 0.3298 0.82965   0.668933
 C 0.7096 0.9263 0.44936   0.666328
 C 0.2804 0.4345 0.55405   0.680186
 C 0.0114 0.9804 0.28916   0.679516
 C 0.1007 0.7578 0.5328   0.66808
 O 0.47178 0.31387 0.97893   -0.672929
 O 0.29441 0.80685 0.24786   -0.661597
 O 0.76207 0.34655 0.8932   -0.664853
 O 0.33845 0.9014 0.06071   -0.659914
 O 0.49899 0.37271 0.78123   -0.674403
 O 0.5007 0.53766 0.85892   -0.59602
 O 0.12276 0.89304 0.09201   -0.59688
 O 0.389 0.9878 0.87648   -0.590846
 O 0.42314 0.14863 0.80294   -0.672689
 O 0.42699 0.81516 0.36791   -0.596994
 O 0.71152 0.48132 0.99666   -0.584243
 O 0.39461 0.1537 0.03742   -0.587799
 O 0.97178 0.18613 0.52107   -0.672929
 O 0.79441 0.69315 0.25214   -0.661597
 O 0.26207 0.15345 0.6068   -0.664853
 O 0.83845 0.5986 0.43929   -0.659914
 O 0.99899 0.12729 0.71877   -0.674403
 O 0.000700000000002 0.96234 0.64108   -0.59602
 O 0.62276 0.60696 0.40799   -0.59688
 O 0.889 0.5122 0.62352   -0.590847
 O 0.92314 0.35137 0.69706   -0.672689
 O 0.92699 0.68484 0.13209   -0.596994
 O 0.21152 0.01868 0.50334   -0.584243
 O 0.89461 0.3463 0.46258   -0.587799
 O 0.52822 0.68613 0.02107   -0.672929
 O 0.70559 0.19315 0.75214   -0.661597
 O 0.23793 0.65345 0.1068   -0.664854
 O 0.66155 0.0986 0.93929   -0.659914
 O 0.50101 0.62729 0.21877   -0.674403
 O 0.4993 0.46234 0.14108   -0.59602
 O 0.87724 0.10696 0.90799   -0.59688
 O 0.611 0.0122 0.12352   -0.590846
 O 0.57686 0.85137 0.19706   -0.672689
 O 0.57301 0.18484 0.63209   -0.596994
 O 0.28848 0.51868 0.00334   -0.584243
 O 0.60539 0.8463 0.96258   -0.587799
 O 0.02822 0.81387 0.47893   -0.672929
 O 0.20559 0.30685 0.74786   -0.661596
 O 0.73793 0.84655 0.3932   -0.664854
 O 0.16155 0.4014 0.56071   -0.659914
 O 0.00101 0.87271 0.28123   -0.674403
 O 0.9993 0.03766 0.35892   -0.59602
 O 0.37724 0.39304 0.59201   -0.59688
 O 0.111 0.4878 0.37648   -0.590847
 O 0.07686 0.64863 0.30294   -0.672689
 O 0.07301 0.31516 0.86791   -0.596994
 O 0.78848 0.98132 0.49666   -0.584243
 O 0.10539 0.6537 0.53742   -0.587799
