{'_ref': 'TBD', '_srcid': 'CAKYAQ_clean', 'submitters': [{'name': 'Dalar Nazarian Jeff Camp and David Sholl', 'email': 'dalar@gatech.edu jcamp6@gatech.edu'}], '_method': 'VASP DFT with PBE;DDEC'}
data_Sm2H9C24(NO6)3
_symmetry_space_group_name_H-M   'P 1'
_cell_length_a   13.72169961
_cell_length_b   13.72170039
_cell_length_c   16.41990000
_cell_angle_alpha   67.08039988
_cell_angle_beta   67.08039850
_cell_angle_gamma   75.65020122
_symmetry_Int_Tables_number   1
_chemical_formula_structural   Sm2H9C24(NO6)3
_chemical_formula_sum   'Sm4 H18 C48 N6 O36'
_cell_volume   2605.82770216
_cell_formula_units_Z   2
loop_
 _symmetry_equiv_pos_site_id
 _symmetry_equiv_pos_as_xyz
  1  'x, y, z'
loop_
 _atom_site_label
 _atom_site_fract_x
 _atom_site_fract_y
 _atom_site_fract_z
 _atom_site_charge
 Sm 0.16744 0.45402 0.99825   2.26604
 Sm 0.54598 0.83256 0.50175   2.26604
 Sm 0.83256 0.54598 0.00175   2.26604
 Sm 0.45402 0.16744 0.49825   2.26604
 H 0.3369 0.2215 0.246   0.120318
 H 0.4536 0.9172 0.2832   0.10444
 H 0.3439 0.0801 0.0702   0.121266
 H 0.0723 0.1245 0.1561   0.104209
 H 0.7785 0.6631 0.254   0.120318
 H 0.0828 0.5464 0.2168   0.10444
 H 0.9199 0.6561 0.4298   0.121266
 H 0.8755 0.9277 0.3439   0.104209
 H 0.6631 0.7785 0.754   0.120318
 H 0.5464 0.0828 0.7168   0.10444
 H 0.6561 0.9199 0.9298   0.121266
 H 0.9277 0.8755 0.8439   0.104209
 H 0.2215 0.3369 0.746   0.120318
 H 0.9172 0.4536 0.7832   0.10444
 H 0.0801 0.3439 0.5702   0.121266
 H 0.1245 0.0723 0.6561   0.104209
 H 0.7702 0.2298 0.25   0.102667
 H 0.2298 0.7702 0.75   0.102667
 C 0.42707 0.06371 0.35894   0.828426
 C 0.40134 0.06856 0.27614   -0.188104
 C 0.33345 0.16839 0.14715   -0.129925
 C 0.2813 0.26906 0.09214   0.682217
 C 0.35811 0.07853 0.12004   0.015666
 C 0.92674 0.19704 0.18991   -0.180022
 C 0.95022 0.30776 0.12307   0.830641
 C 0.00971 0.11491 0.19103   0.034649
 C 0.355 0.16262 0.22498   0.029735
 C 0.42348 0.97806 0.25064   0.007648
 C 0.40121 0.98581 0.17291   -0.035933
 C 0.93629 0.57293 0.14106   0.828427
 C 0.93144 0.59866 0.22386   -0.188103
 C 0.83161 0.66655 0.35285   -0.129925
 C 0.73094 0.7187 0.40786   0.682217
 C 0.92147 0.64189 0.37996   0.015665
 C 0.80296 0.07326 0.31009   -0.180024
 C 0.69224 0.04978 0.37693   0.830648
 C 0.88509 0.99029 0.30897   0.034649
 C 0.83738 0.645 0.27502   0.029735
 C 0.02194 0.57652 0.24936   0.007647
 C 0.01419 0.59879 0.32709   -0.035931
 C 0.57293 0.93629 0.64106   0.828426
 C 0.59866 0.93144 0.72386   -0.188104
 C 0.66655 0.83161 0.85285   -0.129925
 C 0.7187 0.73094 0.90786   0.682217
 C 0.64189 0.92147 0.87996   0.015666
 C 0.07326 0.80296 0.81009   -0.180022
 C 0.04978 0.69224 0.87693   0.830641
 C 0.99029 0.88509 0.80897   0.034649
 C 0.645 0.83738 0.77502   0.029735
 C 0.57652 0.02194 0.74936   0.007648
 C 0.59879 0.01419 0.82709   -0.035933
 C 0.06371 0.42707 0.85894   0.828427
 C 0.06856 0.40134 0.77614   -0.188104
 C 0.16839 0.33345 0.64715   -0.129925
 C 0.26906 0.2813 0.59214   0.682217
 C 0.07853 0.35811 0.62004   0.015665
 C 0.19704 0.92674 0.68991   -0.180024
 C 0.30776 0.95022 0.62307   0.830648
 C 0.11491 0.00971 0.69103   0.034649
 C 0.16262 0.355 0.72498   0.029735
 C 0.97806 0.42348 0.75064   0.007647
 C 0.98581 0.40121 0.67291   -0.035931
 C 0.82408 0.17592 0.25   0.04816
 C 0.98656 0.01344 0.25   -0.074211
 C 0.17592 0.82408 0.75   0.04816
 C 0.01344 0.98656 0.75   -0.07421
 N 0.42351 0.88981 0.14563   0.616111
 N 0.11019 0.57649 0.35437   0.61611
 N 0.57649 0.11019 0.85437   0.616111
 N 0.88981 0.42351 0.64563   0.61611
 N 0.07394 0.92606 0.25   0.614468
 N 0.92606 0.07394 0.75   0.614468
 O 0.04634 0.32388 0.08672   -0.711398
 O 0.4067 0.14802 0.37879   -0.712576
 O 0.2729 0.27152 0.01779   -0.667472
 O 0.87253 0.37467 0.10943   -0.80911
 O 0.46806 0.97628 0.40228   -0.826912
 O 0.24678 0.34664 0.12286   -0.731916
 O 0.44207 0.80387 0.20143   -0.373754
 O 0.42199 0.90149 0.06874   -0.37485
 O 0.1652 0.94862 0.2088   -0.364935
 O 0.67612 0.95366 0.41328   -0.711403
 O 0.85198 0.5933 0.12121   -0.712576
 O 0.72848 0.7271 0.48221   -0.667473
 O 0.62533 0.12747 0.39057   -0.809111
 O 0.02372 0.53194 0.09772   -0.826913
 O 0.65336 0.75322 0.37714   -0.731916
 O 0.19613 0.55793 0.29857   -0.373754
 O 0.09851 0.57801 0.43126   -0.37485
 O 0.05138 0.8348 0.2912   -0.364935
 O 0.95366 0.67612 0.91328   -0.711398
 O 0.5933 0.85198 0.62121   -0.712576
 O 0.7271 0.72848 0.98221   -0.667472
 O 0.12747 0.62533 0.89057   -0.80911
 O 0.53194 0.02372 0.59772   -0.826912
 O 0.75322 0.65336 0.87714   -0.731916
 O 0.55793 0.19613 0.79857   -0.373754
 O 0.57801 0.09851 0.93126   -0.37485
 O 0.8348 0.05138 0.7912   -0.364935
 O 0.32388 0.04634 0.58672   -0.711403
 O 0.14802 0.4067 0.87879   -0.712576
 O 0.27152 0.2729 0.51779   -0.667473
 O 0.37467 0.87253 0.60943   -0.809111
 O 0.97628 0.46806 0.90228   -0.826913
 O 0.34664 0.24678 0.62286   -0.731916
 O 0.80387 0.44207 0.70143   -0.373754
 O 0.90149 0.42199 0.56874   -0.37485
 O 0.94862 0.1652 0.7088   -0.364935
