{'_ref': 'TBD', '_srcid': 'CAKYAQ_clean', 'submitters': [{'name': 'Dalar Nazarian Jeff Camp and David Sholl', 'email': 'dalar@gatech.edu jcamp6@gatech.edu'}], '_method': 'VASP DFT with PBE;DDEC'}
data_Ni2H28C40N4O9
_symmetry_space_group_name_H-M   'P 1'
_cell_length_a   14.02429997
_cell_length_b   14.02430033
_cell_length_c   17.91780000
_cell_angle_alpha   103.78700169
_cell_angle_beta   103.78700204
_cell_angle_gamma   113.01999996
_symmetry_Int_Tables_number   1
_chemical_formula_structural   Ni2H28C40N4O9
_chemical_formula_sum   'Ni4 H56 C80 N8 O18'
_cell_volume   2925.36360935
_cell_formula_units_Z   2
loop_
 _symmetry_equiv_pos_site_id
 _symmetry_equiv_pos_as_xyz
  1  'x, y, z'
loop_
 _atom_site_label
 _atom_site_fract_x
 _atom_site_fract_y
 _atom_site_fract_z
 _atom_site_charge
 Ni 0.19918 0.2181 0.19506   0.839531
 Ni 0.99588 0.97696 0.19506   0.838145
 Ni 0.9681 0.44918 0.69506   0.839535
 Ni 0.72696 0.24588 0.69506   0.838145
 H 0.0238 0.2756 0.2424   0.09237
 H 0.0105 0.4249 0.3114   0.135749
 H 0.3306 0.6192 0.3558   0.121022
 H 0.3365 0.4663 0.2822   0.076914
 H 0.0871 0.6201 0.387   0.090443
 H 0.3025 0.6803 0.499   0.094368
 H 0.1809 0.4893 0.5046   0.148991
 H 0.0771 0.4055 0.5734   0.092586
 H 0.0465 0.6677 0.6682   0.099667
 H 0.1449 0.7603 0.5976   0.132906
 H 0.3152 0.0476 0.0502   0.09438
 H 0.3514 0.953 0.9438   0.097039
 H 0.2176 0.7732 0.8526   0.085219
 H 0.0111 0.7823 0.974   0.093228
 H 0.2186 0.9668 0.2424   0.090941
 H 0.3009 0.8865 0.3114   0.134836
 H 0.0252 0.7366 0.3558   0.121687
 H 0.9457 0.8159 0.2822   0.077177
 H 0.2999 0.7669 0.387   0.090752
 H 0.1965 0.8187 0.499   0.09462
 H 0.3237 0.0153 0.5046   0.148247
 H 0.4963 0.1679 0.5734   0.091884
 H 0.6217 0.000500000000002 0.6682   0.098707
 H 0.4527 0.8373 0.5976   0.132133
 H 0.735 0.0026 0.0502   0.093694
 H 0.5924 0.9908 0.9438   0.098038
 H 0.635 0.0794 0.8526   0.087395
 H 0.9629 0.1917 0.974   0.094081
 H 0.0256 0.2738 0.7424   0.092371
 H 0.1749 0.2605 0.8114   0.135749
 H 0.3692 0.5806 0.8558   0.121021
 H 0.2163 0.5865 0.7822   0.076915
 H 0.3701 0.3371 0.887   0.090443
 H 0.4303 0.5525 0.999   0.094368
 H 0.2393 0.4309 0.0046   0.148991
 H 0.1555 0.3271 0.0734   0.092586
 H 0.4177 0.2965 0.1682   0.099666
 H 0.5103 0.3949 0.0976   0.132906
 H 0.7976 0.5652 0.5502   0.09438
 H 0.703 0.6014 0.4438   0.097038
 H 0.5232 0.4676 0.3526   0.085218
 H 0.5323 0.2611 0.474   0.093228
 H 0.7168 0.4686 0.7424   0.090941
 H 0.6365 0.5509 0.8114   0.134836
 H 0.4866 0.2752 0.8558   0.121686
 H 0.5659 0.1957 0.7822   0.077176
 H 0.5169 0.5499 0.887   0.090752
 H 0.5687 0.4465 0.999   0.09462
 H 0.7653 0.5737 0.0046   0.148247
 H 0.9179 0.7463 0.0734   0.091884
 H 0.7505 0.8717 0.1682   0.098707
 H 0.5873 0.7027 0.0976   0.132133
 H 0.7526 0.985 0.5502   0.093694
 H 0.7408 0.8424 0.4438   0.098036
 H 0.8294 0.885 0.3526   0.087395
 H 0.9417 0.2129 0.474   0.094081
 C 0.0871 0.3463 0.2652   0.203776
 C 0.0791 0.4353 0.3072   -0.220618
 C 0.1712 0.5418 0.3446   0.121776
 C 0.2662 0.5494 0.333   -0.233179
 C 0.2693 0.4571 0.2886   0.166008
 C 0.1658 0.6388 0.3968   -0.066335
 C 0.2329 0.6861 0.4898   -0.072973
 C 0.1746 0.6364 0.5418   0.117058
 C 0.1536 0.5276 0.5366   -0.223869
 C 0.0929 0.4791 0.579   0.162933
 C 0.0737 0.6317 0.6344   0.17546
 C 0.1331 0.6877 0.592   -0.247475
 C 0.1596 0.924 0.0222   -0.147229
 C 0.2612 0.975 0.0134   -0.03965
 C 0.2828 0.9186 0.95   -0.143927
 C 0.203 0.8114 0.8956   -0.047306
 C 0.1013 0.7603 0.9044   -0.134711
 C 0.0797 0.8167 0.9678   0.000774
 C 0.1406 0.9886 0.0926   0.665522
 C 0.0203 0.6415 0.8464   0.643469
 C 0.1781 0.9189 0.2652   0.205917
 C 0.2281 0.8719 0.3072   -0.220399
 C 0.1734 0.8028 0.3446   0.123238
 C 0.0668 0.7836 0.333   -0.235549
 C 0.0193 0.8315 0.2886   0.168178
 C 0.231 0.758 0.3968   -0.066506
 C 0.2569 0.8037 0.4898   -0.074683
 C 0.3672 0.9054 0.5418   0.115734
 C 0.383 0.009 0.5366   -0.222697
 C 0.4861 0.0999 0.579   0.165181
 C 0.5607 0.0027 0.6344   0.177925
 C 0.4589 0.9043 0.592   -0.247888
 C 0.8626 0.0982 0.0222   -0.146008
 C 0.7522 0.0384 0.0134   -0.038119
 C 0.6672 0.0314 0.95   -0.145623
 C 0.6926 0.0842 0.8956   -0.05064
 C 0.8031 0.1441 0.9044   -0.129846
 C 0.8881 0.1511 0.9678   -0.003236
 C 0.952 0.104 0.0926   0.66249
 C 0.8261 0.2049 0.8464   0.641149
 C 0.0963 0.3371 0.7652   0.20377
 C 0.1853 0.3291 0.8072   -0.220617
 C 0.2918 0.4212 0.8446   0.121775
 C 0.2994 0.5162 0.833   -0.233177
 C 0.2071 0.5193 0.7886   0.166
 C 0.3888 0.4158 0.8968   -0.066334
 C 0.4361 0.4829 0.9898   -0.072973
 C 0.3864 0.4246 0.0418   0.117058
 C 0.2776 0.4036 0.0366   -0.223869
 C 0.2291 0.3429 0.079   0.162933
 C 0.3817 0.3237 0.1344   0.175459
 C 0.4377 0.3831 0.092   -0.247475
 C 0.674 0.4096 0.5222   -0.147229
 C 0.725 0.5112 0.5134   -0.03965
 C 0.6686 0.5328 0.45   -0.143926
 C 0.5614 0.453 0.3956   -0.047306
 C 0.5103 0.3513 0.4044   -0.134711
 C 0.5667 0.3297 0.4678   0.000773
 C 0.7386 0.3906 0.5926   0.665522
 C 0.3915 0.2703 0.3464   0.643469
 C 0.6689 0.4281 0.7652   0.205917
 C 0.6219 0.4781 0.8072   -0.220399
 C 0.5528 0.4234 0.8446   0.123238
 C 0.5336 0.3168 0.833   -0.235549
 C 0.5815 0.2693 0.7886   0.168179
 C 0.508 0.481 0.8968   -0.066506
 C 0.5537 0.5069 0.9898   -0.074683
 C 0.6554 0.6172 0.0418   0.115734
 C 0.759 0.633 0.0366   -0.222697
 C 0.8499 0.7361 0.079   0.165181
 C 0.7527 0.8107 0.1344   0.177925
 C 0.6543 0.7089 0.092   -0.247888
 C 0.8482 0.1126 0.5222   -0.146008
 C 0.7884 0.0022 0.5134   -0.038121
 C 0.7814 0.9172 0.45   -0.145617
 C 0.8342 0.9426 0.3956   -0.050643
 C 0.8941 0.0531 0.4044   -0.129845
 C 0.9011 0.1381 0.4678   -0.003236
 C 0.854 0.202 0.5926   0.66249
 C 0.9549 0.0761 0.3464   0.641149
 N 0.1811 0.3543 0.2542   -0.28955
 N 0.05489 0.52929 0.62798   -0.278666
 N 0.0731 0.8999 0.2542   -0.291308
 N 0.57309 0.09869 0.62798   -0.279691
 N 0.1043 0.4311 0.7542   -0.28954
 N 0.27929 0.30489 0.12798   -0.278665
 N 0.6499 0.3231 0.7542   -0.291308
 N 0.84869 0.82309 0.12798   -0.279691
 O 0.2171 0.0847 0.1372   -0.552556
 O 0.05025 0.93805 0.1009   -0.56529
 O 0.93637 0.58697 0.86214   -0.527957
 O 0.0433 0.6059 0.785   -0.566356
 O 0.9201 0.0525 0.1372   -0.551108
 O 0.05065 0.16285 0.1009   -0.56417
 O 0.92577 0.27517 0.86214   -0.528305
 O 0.7417 0.1791 0.785   -0.564826
 O 0.8347 0.4671 0.6372   -0.552557
 O 0.68805 0.30025 0.6009   -0.56529
 O 0.33697 0.18637 0.36214   -0.527957
 O 0.3559 0.2933 0.285   -0.566354
 O 0.8025 0.1701 0.6372   -0.551108
 O 0.91285 0.30065 0.6009   -0.56417
 O 0.02517 0.17577 0.36214   -0.528306
 O 0.9291 0.9917 0.285   -0.564826
 O 0.1341 0.1341 0.2682   -0.385086
 O 0.8841 0.3841 0.7682   -0.385087
