{'_ref': 'TBD', '_srcid': 'CAKYAQ_clean', 'submitters': [{'name': 'Dalar Nazarian Jeff Camp and David Sholl', 'email': 'dalar@gatech.edu jcamp6@gatech.edu'}], '_method': 'VASP DFT with PBE;DDEC'}
data_Zn3H28(C2N)12
_symmetry_space_group_name_H-M   'P 1'
_cell_length_a   14.81530033
_cell_length_b   14.81530013
_cell_length_c   14.81530000
_cell_angle_alpha   109.47100169
_cell_angle_beta   109.47100141
_cell_angle_gamma   109.47099925
_symmetry_Int_Tables_number   1
_chemical_formula_structural   Zn3H28(C2N)12
_chemical_formula_sum   'Zn6 H56 C48 N24'
_cell_volume   2503.30062594
_cell_formula_units_Z   2
loop_
 _symmetry_equiv_pos_site_id
 _symmetry_equiv_pos_as_xyz
  1  'x, y, z'
loop_
 _atom_site_label
 _atom_site_fract_x
 _atom_site_fract_y
 _atom_site_fract_z
 _atom_site_charge
 Zn 0.25 0.75 0.5   0.787071
 Zn 0.75 0.25 0.5   0.803671
 Zn 0.5 0.75 0.25   0.797723
 Zn 0.5 0.25 0.75   0.775879
 Zn 0.75 0.5 0.25   0.766461
 Zn 0.25 0.5 0.75   0.784525
 H 0.47488 0.71911 0.57827   0.10668
 H 0.52512 0.10339 0.24422   0.121592
 H 0.85917 0.28089 0.75578   0.108246
 H 0.75578 0.85917 0.28089   0.110884
 H 0.42173 0.14083 0.89661   0.106333
 H 0.57827 0.47488 0.71911   0.109977
 H 0.71911 0.57827 0.47488   0.107482
 H 0.89661 0.42173 0.14083   0.102909
 H 0.28089 0.75578 0.85917   0.112157
 H 0.10339 0.24422 0.52512   0.121731
 H 0.71911 0.47488 0.57827   0.109264
 H 0.28089 0.85917 0.75578   0.109203
 H 0.10339 0.52512 0.24422   0.106033
 H 0.14083 0.42173 0.89661   0.119997
 H 0.47488 0.57827 0.71911   0.109104
 H 0.52512 0.24422 0.10339   0.108846
 H 0.85917 0.75578 0.28089   0.111646
 H 0.24422 0.10339 0.52512   0.121016
 H 0.75578 0.28089 0.85917   0.106386
 H 0.57827 0.71911 0.47488   0.105095
 H 0.54494 0.03429 0.70858   0.143305
 H 0.44672 0.91187 0.70271   0.137314
 H 0.49412 0.05384 0.80894   0.128933
 H 0.2027 0.66771 0.21232   0.122296
 H 0.32184 0.79067 0.24053   0.133327
 H 0.25524 0.80717 0.32692   0.136198
 H 0.80884 0.05221 0.49283   0.127028
 H 0.70139 0.91163 0.4474   0.137902
 H 0.70999 0.03615 0.54555   0.142596
 H 0.47108 0.15688 0.46791   0.147016
 H 0.56111 0.2915 0.48579   0.13464
 H 0.48203 0.28606 0.56051   0.135094
 H 0.43889 0.73039 0.92469   0.135677
 H 0.52892 0.6858 0.99683   0.144516
 H 0.51797 0.80403 0.07848   0.135429
 H 0.55329 0.46515 0.25599   0.134596
 H 0.45506 0.48936 0.16364   0.141731
 H 0.50587 0.55971 0.31481   0.127221
 H 0.67816 0.46883 0.91869   0.135374
 H 0.7973 0.46501 0.00963   0.120142
 H 0.74476 0.55194 0.07168   0.140412
 H 0.29861 0.21024 0.746   0.136309
 H 0.19116 0.24337 0.68399   0.129493
 H 0.29001 0.32616 0.83556   0.145276
 H 0.71302 0.27365 0.19567   0.135096
 H 0.70939 0.19455 0.27042   0.134643
 H 0.84315 0.31157 0.31369   0.143399
 H 0.91165 0.69033 0.45481   0.134065
 H 0.03604 0.80629 0.48105   0.121514
 H 0.05231 0.72361 0.54992   0.139019
 H 0.29061 0.48516 0.56103   0.132668
 H 0.28698 0.56063 0.48265   0.135968
 H 0.15685 0.46843 0.47054   0.144478
 H 0.95557 0.44251 0.76352   0.128251
 H 0.95557 0.50359 0.6722   0.145298
 H 0.08885 0.53968 0.7845   0.139138
 C 0.22447 0.94373 0.50042   0.026676
 C 0.44331 0.72405 0.49958   -0.072629
 C 0.55669 0.05627 0.28074   -0.110937
 C 0.77553 0.27595 0.71926   -0.07859
 C 0.28074 0.55669 0.05627   0.035169
 C 0.71926 0.77553 0.27595   -0.066285
 C 0.50042 0.22447 0.94373   -0.073343
 C 0.49958 0.44331 0.72405   -0.07935
 C 0.72405 0.49958 0.44331   -0.063933
 C 0.94373 0.50042 0.22447   -0.072842
 C 0.27595 0.71926 0.77553   -0.075572
 C 0.05627 0.28074 0.55669   -0.11957
 C 0.72405 0.44331 0.49958   -0.080333
 C 0.94373 0.22447 0.50042   0.033055
 C 0.27595 0.77553 0.71926   -0.068852
 C 0.05627 0.55669 0.28074   -0.065015
 C 0.22447 0.50042 0.94373   -0.119988
 C 0.44331 0.49958 0.72405   -0.06601
 C 0.55669 0.28074 0.05627   -0.070384
 C 0.77553 0.71926 0.27595   -0.075402
 C 0.28074 0.05627 0.55669   -0.109936
 C 0.71926 0.27595 0.77553   -0.064225
 C 0.50042 0.94373 0.22447   0.027852
 C 0.49958 0.72405 0.44331   -0.068906
 C 0.37546 0.0 0.6419   0.468554
 C 0.47108 0.0 0.72026   -0.479113
 C 0.3581 0.73356 0.3581   0.471444
 C 0.27974 0.75082 0.27974   -0.4605
 C 0.6419 0.0 0.37546   0.477164
 C 0.72026 0.0 0.47108   -0.475533
 C 0.62454 0.26644 0.62454   0.466753
 C 0.52892 0.24918 0.52892   -0.487553
 C 0.37546 0.6419 0.0   0.474527
 C 0.47108 0.72026 0.0   -0.484792
 C 0.62454 0.62454 0.26644   0.465202
 C 0.52892 0.52892 0.24918   -0.477071
 C 0.6419 0.37546 0.0   0.463973
 C 0.72026 0.47108 0.0   -0.461851
 C 0.3581 0.3581 0.73356   0.467424
 C 0.27974 0.27974 0.75082   -0.478955
 C 0.73356 0.3581 0.3581   0.468653
 C 0.75082 0.27974 0.27974   -0.486538
 C 0.0 0.6419 0.37546   0.463666
 C 0.0 0.72026 0.47108   -0.465822
 C 0.26644 0.62454 0.62454   0.468479
 C 0.24918 0.52892 0.52892   -0.485587
 C 0.0 0.37546 0.6419   0.46916
 C 0.0 0.47108 0.72026   -0.476616
 N 0.28571 0.90729 0.55512   -0.445042
 N 0.35217 0.73059 0.44488   -0.427641
 N 0.64783 0.09271 0.37842   -0.407752
 N 0.71429 0.26941 0.62158   -0.42894
 N 0.37842 0.64783 0.09271   -0.44979
 N 0.62158 0.71429 0.26941   -0.432656
 N 0.55512 0.28571 0.90729   -0.423103
 N 0.44488 0.35217 0.73059   -0.425876
 N 0.73059 0.44488 0.35217   -0.424362
 N 0.90729 0.55512 0.28571   -0.419161
 N 0.26941 0.62158 0.71429   -0.429069
 N 0.09271 0.37842 0.64783   -0.39537
 N 0.73059 0.35217 0.44488   -0.434045
 N 0.90729 0.28571 0.55512   -0.448834
 N 0.26941 0.71429 0.62158   -0.431023
 N 0.09271 0.64783 0.37842   -0.427633
 N 0.28571 0.55512 0.90729   -0.406232
 N 0.35217 0.44488 0.73059   -0.427405
 N 0.64783 0.37842 0.09271   -0.421117
 N 0.71429 0.62158 0.26941   -0.426846
 N 0.37842 0.09271 0.64783   -0.401699
 N 0.62158 0.26941 0.71429   -0.426243
 N 0.55512 0.90729 0.28571   -0.45277
 N 0.44488 0.73059 0.35217   -0.428389
