{'_ref': 'TBD', '_srcid': 'CAKYAQ_clean', 'submitters': [{'name': 'Dalar Nazarian Jeff Camp and David Sholl', 'email': 'dalar@gatech.edu jcamp6@gatech.edu'}], '_method': 'VASP DFT with PBE;DDEC'}
data_ZnH9C16NO4F
_symmetry_space_group_name_H-M   'P 1'
_cell_length_a   10.88500047
_cell_length_b   10.93000008
_cell_length_c   18.51800000
_cell_angle_alpha   87.42000038
_cell_angle_beta   84.98999920
_cell_angle_gamma   70.56999795
_symmetry_Int_Tables_number   1
_chemical_formula_structural   ZnH9C16NO4F
_chemical_formula_sum   'Zn4 H36 C64 N4 O16 F4'
_cell_volume   2069.43432304
_cell_formula_units_Z   4
loop_
 _symmetry_equiv_pos_site_id
 _symmetry_equiv_pos_as_xyz
  1  'x, y, z'
loop_
 _atom_site_label
 _atom_site_fract_x
 _atom_site_fract_y
 _atom_site_fract_z
 _atom_site_charge
 Zn 0.34332 0.24176 0.57692   0.919235
 Zn 0.31858 0.23809 0.73963   0.925874
 Zn 0.65668 0.75824 0.42308   0.919235
 Zn 0.68142 0.76191 0.26037   0.925874
 H 0.7601 0.2103 0.5517   0.102022
 H 0.9595 0.2435 0.5573   0.111328
 H 0.9092 0.2498 0.7746   0.101053
 H 0.7115 0.2141 0.7691   0.092793
 H 0.3606 0.6332 0.5449   0.106523
 H 0.3665 0.8435 0.546   0.098723
 H 0.3215 0.8394 0.7649   0.099011
 H 0.309 0.6288 0.763   0.104572
 H 0.3501 0.0695 0.4538   0.091168
 H 0.3386 0.0754 0.3318   0.131564
 H 0.3044 0.4547 0.3306   0.130245
 H 0.3167 0.4376 0.4537   0.089363
 H 0.4479 0.087 0.2178   0.1196
 H 0.4421 0.0846 0.0945   0.09245
 H 0.506 0.1614 0.9809   0.143202
 H 0.5018 0.153 0.8568   0.089968
 H 0.1289 0.3469 0.866   0.096054
 H 0.1219 0.3636 0.9899   0.136503
 H 0.2399 0.7897 0.4483   0.102021
 H 0.0405 0.7565 0.4427   0.111329
 H 0.0908 0.7502 0.2254   0.101053
 H 0.2885 0.7859 0.2309   0.092793
 H 0.6394 0.3668 0.4551   0.106523
 H 0.6335 0.1565 0.454   0.098722
 H 0.6785 0.1606 0.2351   0.09901
 H 0.691 0.3712 0.237   0.104572
 H 0.6499 0.9305 0.5462   0.091168
 H 0.6614 0.9246 0.6682   0.131564
 H 0.6956 0.5453 0.6694   0.130245
 H 0.6833 0.5624 0.5463   0.089363
 H 0.5521 0.913 0.7822   0.1196
 H 0.5579 0.9154 0.9055   0.092451
 H 0.494 0.8386 0.0191   0.143201
 H 0.4982 0.847 0.1432   0.089968
 H 0.8711 0.6531 0.134   0.096054
 H 0.8781 0.6364 0.0101   0.136502
 C 0.7138 0.2124 0.6599   -0.128975
 C 0.7891 0.219 0.5963   -0.06289
 C 0.909 0.2388 0.5998   -0.054875
 C 0.9532 0.2514 0.6658   -0.112588
 C 0.8794 0.2423 0.73   -0.071883
 C 0.7605 0.2217 0.7265   -0.07101
 C 0.5803 0.1987 0.657   0.659182
 C 0.0846 0.2708 0.6691   0.671788
 C 0.332 0.6125 0.6543   -0.117656
 C 0.3512 0.6753 0.5887   -0.065492
 C 0.3558 0.8009 0.5894   -0.050813
 C 0.3447 0.8634 0.655   -0.137285
 C 0.3279 0.7988 0.721   -0.069683
 C 0.321 0.6719 0.7199   -0.074031
 C 0.3209 0.4774 0.6536   0.677627
 C 0.3492 0.000500000000002 0.6556   0.662302
 C 0.3407 0.1475 0.4288   0.190181
 C 0.3347 0.1502 0.3553   -0.195491
 C 0.3226 0.2648 0.3151   0.124331
 C 0.3143 0.3756 0.3544   -0.193537
 C 0.321 0.3645 0.4284   0.174603
 C 0.3201 0.2673 0.2349   -0.039717
 C 0.3946 0.1598 0.1943   -0.079318
 C 0.3914 0.1584 0.1196   -0.099222
 C 0.3141 0.2653 0.081   -0.075725
 C 0.2404 0.3729 0.1216   0.159981
 C 0.2449 0.3759 0.1961   0.154146
 C 0.311 0.2599 0.0011   0.147975
 C 0.4279 0.1983 0.9591   -0.2292
 C 0.4241 0.1937 0.8842   0.16738
 C 0.2049 0.308 0.8894   0.180728
 C 0.2 0.3179 0.9644   -0.217183
 C 0.2862 0.7876 0.3401   -0.128976
 C 0.2109 0.781 0.4037   -0.06289
 C 0.091 0.7612 0.4002   -0.054875
 C 0.0468 0.7486 0.3342   -0.112588
 C 0.1206 0.7577 0.27   -0.071883
 C 0.2395 0.7783 0.2735   -0.07101
 C 0.4197 0.8013 0.343   0.659182
 C 0.9154 0.7292 0.3309   0.671788
 C 0.668 0.3875 0.3457   -0.117656
 C 0.6488 0.3247 0.4113   -0.065492
 C 0.6442 0.1991 0.4106   -0.050813
 C 0.6553 0.1366 0.345   -0.137285
 C 0.6721 0.2012 0.279   -0.069683
 C 0.679 0.3281 0.2801   -0.074031
 C 0.6791 0.5226 0.3464   0.677627
 C 0.6508 0.9995 0.3444   0.662302
 C 0.6593 0.8525 0.5712   0.190181
 C 0.6653 0.8498 0.6447   -0.195491
 C 0.6774 0.7352 0.6849   0.124332
 C 0.6857 0.6244 0.6456   -0.193536
 C 0.679 0.6355 0.5716   0.174603
 C 0.6799 0.7327 0.7651   -0.039717
 C 0.6054 0.8402 0.8057   -0.079318
 C 0.6086 0.8416 0.8804   -0.099222
 C 0.6859 0.7347 0.919   -0.075725
 C 0.7596 0.6271 0.8784   0.159981
 C 0.7551 0.6241 0.8039   0.154146
 C 0.689 0.7401 0.9989   0.147975
 C 0.5721 0.8017 0.0409   -0.2292
 C 0.5759 0.8063 0.1158   0.16738
 C 0.7951 0.692 0.1106   0.180728
 C 0.8 0.6821 0.0356   -0.217184
 N 0.3338 0.2517 0.4669   -0.315242
 N 0.3149 0.2445 0.8495   -0.294759
 N 0.6662 0.7483 0.5331   -0.315242
 N 0.6851 0.7555 0.1505   -0.294759
 O 0.5395 0.1975 0.5957   -0.566732
 O 0.5172 0.1948 0.7177   -0.620276
 O 0.1236 0.274 0.7313   -0.603461
 O 0.1454 0.2816 0.6092   -0.598252
 O 0.3309 0.4275 0.5922   -0.584626
 O 0.3048 0.4247 0.7135   -0.60058
 O 0.3422 0.0501 0.7162   -0.593771
 O 0.3588 0.0527 0.5942   -0.573999
 O 0.4605 0.8025 0.4043   -0.566732
 O 0.4828 0.8052 0.2823   -0.620276
 O 0.8764 0.726 0.2687   -0.603461
 O 0.8546 0.7184 0.3908   -0.598252
 O 0.6691 0.5725 0.4078   -0.584626
 O 0.6952 0.5753 0.2865   -0.60058
 O 0.6578 0.9499 0.2838   -0.593771
 O 0.6412 0.9473 0.4058   -0.573999
 F 0.1674 0.4846 0.2309   -0.107464
 F 0.1643 0.4838 0.0889   -0.145736
 F 0.8326 0.5154 0.7691   -0.107464
 F 0.8357 0.5162 0.9111   -0.145736
