{'_ref': 'TBD', '_srcid': 'CAKYAQ_clean', 'submitters': [{'name': 'Dalar Nazarian Jeff Camp and David Sholl', 'email': 'dalar@gatech.edu jcamp6@gatech.edu'}], '_method': 'VASP DFT with PBE;DDEC'}
data_ZnH9C16NO4F
_symmetry_space_group_name_H-M   'P 1'
_cell_length_a   10.86499993
_cell_length_b   10.96000006
_cell_length_c   15.27200000
_cell_angle_alpha   79.28000124
_cell_angle_beta   83.74999781
_cell_angle_gamma   84.50000113
_symmetry_Int_Tables_number   1
_chemical_formula_structural   ZnH9C16NO4F
_chemical_formula_sum   'Zn4 H36 C64 N4 O16 F4'
_cell_volume   1770.90887119
_cell_formula_units_Z   4
loop_
 _symmetry_equiv_pos_site_id
 _symmetry_equiv_pos_as_xyz
  1  'x, y, z'
loop_
 _atom_site_label
 _atom_site_fract_x
 _atom_site_fract_y
 _atom_site_fract_z
 _atom_site_charge
 Zn 0.95372 0.84171 0.69636   0.941162
 Zn 0.94538 0.78765 0.89703   0.942671
 Zn 0.04628 0.15829 0.30364   0.941162
 Zn 0.05462 0.21235 0.10297   0.94267
 H 0.8735 0.3939 0.9247   0.108516
 H 0.8728 0.1805 0.9235   0.10784
 H 0.0233 0.2396 0.6658   0.094359
 H 0.0253 0.4491 0.6704   0.099227
 H 0.5669 0.792 0.9191   0.09758
 H 0.3534 0.7702 0.9442   0.112118
 H 0.3333 0.8211 0.6759   0.091963
 H 0.5443 0.8439 0.6513   0.097807
 H 0.7907 0.6104 0.0278   0.092518
 H 0.644 0.6119 0.1485   0.142213
 H 0.7297 0.9593 0.1574   0.126
 H 0.8733 0.9467 0.037   0.089177
 H 0.4318 0.7309 0.1796   0.120916
 H 0.269 0.7512 0.2892   0.102821
 H 0.1794 0.6833 0.4323   0.131407
 H 0.0206 0.6971 0.5444   0.093251
 H 0.1254 0.0123 0.5817   0.082971
 H 0.2946 0.0026 0.4757   0.131224
 H 0.1265 0.6061 0.0753   0.108513
 H 0.1272 0.8195 0.0765   0.10784
 H 0.9767 0.7604 0.3342   0.094357
 H 0.9747 0.5509 0.3296   0.099223
 H 0.4331 0.208 0.0809   0.09758
 H 0.6466 0.2298 0.0558   0.112114
 H 0.6667 0.1789 0.3241   0.091963
 H 0.4557 0.1561 0.3487   0.097808
 H 0.2093 0.3896 0.9722   0.092517
 H 0.356 0.3881 0.8515   0.142213
 H 0.2703 0.0407 0.8426   0.126
 H 0.1267 0.0533 0.963   0.089179
 H 0.5682 0.2691 0.8204   0.120916
 H 0.731 0.2488 0.7108   0.102821
 H 0.8206 0.3167 0.5677   0.131403
 H 0.9794 0.3029 0.4556   0.093244
 H 0.8746 0.9877 0.4183   0.082971
 H 0.7054 0.9974 0.5243   0.131225
 C 0.9471 0.4432 0.7977   -0.117734
 C 0.9033 0.3628 0.8731   -0.059644
 C 0.9033 0.2338 0.8727   -0.054972
 C 0.9495 0.1867 0.7952   -0.139199
 C 0.9941 0.2695 0.7179   -0.075751
 C 0.9939 0.3954 0.7207   -0.069195
 C 0.9479 0.5796 0.799   0.67559
 C 0.9513 0.0525 0.7916   0.670672
 C 0.5788 0.8195 0.7809   -0.118177
 C 0.5198 0.7978 0.8709   -0.065603
 C 0.3917 0.7855 0.8862   -0.081585
 C 0.3211 0.7967 0.8113   -0.12687
 C 0.3797 0.8164 0.7243   -0.05338
 C 0.5069 0.829 0.7096   -0.06816
 C 0.7171 0.8325 0.7677   0.663003
 C 0.1831 0.7915 0.8266   0.659618
 C 0.7773 0.6811 0.0541   0.184185
 C 0.6884 0.6813 0.1265   -0.214413
 C 0.667 0.7872 0.1657   0.135856
 C 0.7397 0.888 0.1317   -0.197833
 C 0.8261 0.8794 0.0594   0.189554
 C 0.565 0.7968 0.2385   -0.05344
 C 0.4454 0.7626 0.2298   -0.107044
 C 0.3465 0.7759 0.296   -0.073438
 C 0.3629 0.8264 0.3732   -0.059269
 C 0.4842 0.8581 0.3809   0.150503
 C 0.58 0.8432 0.3159   0.14778
 C 0.2595 0.8393 0.4431   0.14705
 C 0.1727 0.7493 0.4634   -0.20091
 C 0.0762 0.7588 0.5306   0.159956
 C 0.1386 0.9434 0.5534   0.181542
 C 0.2407 0.9393 0.4882   -0.179555
 C 0.0529 0.5568 0.2023   -0.117735
 C 0.0967 0.6372 0.1269   -0.059643
 C 0.0967 0.7662 0.1273   -0.054973
 C 0.0505 0.8133 0.2048   -0.139199
 C 0.0059 0.7305 0.2821   -0.07575
 C 0.0061 0.6046 0.2793   -0.069193
 C 0.0521 0.4204 0.201   0.67559
 C 0.0487 0.9475 0.2084   0.670674
 C 0.4212 0.1805 0.2191   -0.118175
 C 0.4802 0.2022 0.1291   -0.065608
 C 0.6083 0.2145 0.1138   -0.081585
 C 0.6789 0.2033 0.1887   -0.126871
 C 0.6203 0.1836 0.2757   -0.053379
 C 0.4931 0.171 0.2904   -0.068162
 C 0.2829 0.1675 0.2323   0.663004
 C 0.8169 0.2085 0.1734   0.659618
 C 0.2227 0.3189 0.9459   0.184186
 C 0.3116 0.3187 0.8735   -0.214413
 C 0.333 0.2128 0.8343   0.135857
 C 0.2603 0.112 0.8683   -0.197835
 C 0.1739 0.1206 0.9406   0.189553
 C 0.435 0.2032 0.7615   -0.053438
 C 0.5546 0.2374 0.7702   -0.107046
 C 0.6535 0.2241 0.704   -0.073434
 C 0.6371 0.1736 0.6268   -0.059267
 C 0.5158 0.1419 0.6191   0.150505
 C 0.42 0.1568 0.6841   0.14778
 C 0.7405 0.1607 0.5569   0.147049
 C 0.8273 0.2507 0.5366   -0.200907
 C 0.9238 0.2412 0.4694   0.159958
 C 0.8614 0.0566 0.4466   0.181542
 C 0.7593 0.0607 0.5118   -0.179555
 N 0.8453 0.7791 0.0198   -0.331562
 N 0.0605 0.8549 0.5764   -0.335662
 N 0.1547 0.2209 0.9802   -0.331562
 N 0.9395 0.1451 0.4236   -0.335663
 O 0.9528 0.6518 0.7233   -0.600666
 O 0.9451 0.6116 0.8752   -0.580507
 O 0.9522 0.9779 0.8682   -0.595725
 O 0.9535 0.0198 0.7165   -0.57712
 O 0.7671 0.8546 0.6869   -0.588693
 O 0.7749 0.8214 0.8359   -0.610673
 O 0.1322 0.7719 0.9082   -0.589203
 O 0.1251 0.8082 0.7598   -0.600277
 O 0.0472 0.3482 0.2767   -0.600666
 O 0.0549 0.3884 0.1248   -0.580507
 O 0.0478 0.0221 0.1318   -0.595725
 O 0.0465 0.9802 0.2835   -0.57712
 O 0.2329 0.1454 0.3131   -0.588693
 O 0.2251 0.1786 0.1641   -0.610673
 O 0.8678 0.2281 0.0918   -0.589203
 O 0.8749 0.1918 0.2402   -0.600277
 F 0.5073 0.8992 0.4548   -0.112916
 F 0.6945 0.8755 0.329   -0.131869
 F 0.4927 0.1008 0.5452   -0.112916
 F 0.3055 0.1245 0.671   -0.131869
