{'_ref': 'TBD', '_srcid': 'CAKYAQ_clean', 'submitters': [{'name': 'Dalar Nazarian Jeff Camp and David Sholl', 'email': 'dalar@gatech.edu jcamp6@gatech.edu'}], '_method': 'VASP DFT with PBE;DDEC'}
data_CuH3C7NO4
_symmetry_space_group_name_H-M   'P 1'
_cell_length_a   13.45660000
_cell_length_b   18.99750034
_cell_length_c   18.99750000
_cell_angle_alpha   119.99999941
_cell_angle_beta   90.00000000
_cell_angle_gamma   90.00000000
_symmetry_Int_Tables_number   1
_chemical_formula_structural   CuH3C7NO4
_chemical_formula_sum   'Cu12 H36 C84 N12 O48'
_cell_volume   4205.89950492
_cell_formula_units_Z   12
loop_
 _symmetry_equiv_pos_site_id
 _symmetry_equiv_pos_as_xyz
  1  'x, y, z'
loop_
 _atom_site_label
 _atom_site_fract_x
 _atom_site_fract_y
 _atom_site_fract_z
 _atom_site_charge
 Cu 0.73874 0.62278 0.81139   0.892581
 Cu 0.9066 0.70732 0.85366   0.812095
 Cu 0.73874 0.18861 0.37722   0.892582
 Cu 0.9066 0.14634 0.29268   0.812095
 Cu 0.73874 0.18861 0.81139   0.892581
 Cu 0.9066 0.14634 0.85366   0.812095
 Cu 0.23874 0.37722 0.18861   0.892581
 Cu 0.4066 0.29268 0.14634   0.812095
 Cu 0.23874 0.81139 0.62278   0.892582
 Cu 0.4066 0.85366 0.70732   0.812095
 Cu 0.23874 0.81139 0.18861   0.892581
 Cu 0.4066 0.85366 0.14634   0.812095
 H 0.0394 0.5916 0.6134   0.081
 H 0.5714 0.7751 0.7554   0.086135
 H 0.0394 0.0218 0.4084   0.080998
 H 0.5714 0.9803 0.2249   0.086135
 H 0.0394 0.3866 0.9782   0.081
 H 0.5714 0.2446 0.0197   0.086135
 H 0.5394 0.4084 0.3866   0.081
 H 0.0714 0.2249 0.2446   0.086135
 H 0.5394 0.9782 0.5916   0.080998
 H 0.0714 0.0197 0.7751   0.086135
 H 0.5394 0.6134 0.0218   0.081
 H 0.0714 0.7554 0.9803   0.086135
 H 0.0394 0.0218 0.6134   0.080998
 H 0.5714 0.9803 0.7554   0.086135
 H 0.0394 0.3866 0.4084   0.081
 H 0.5714 0.2446 0.2249   0.086135
 H 0.0394 0.5916 0.9782   0.081
 H 0.5714 0.7751 0.0197   0.086135
 H 0.5394 0.9782 0.3866   0.080998
 H 0.0714 0.0197 0.2446   0.086135
 H 0.5394 0.6134 0.5916   0.081
 H 0.0714 0.7554 0.7751   0.086135
 H 0.5394 0.4084 0.0218   0.081
 H 0.0714 0.2249 0.9803   0.086135
 H 0.821 0.43135 0.56865   0.12189
 H 0.821 0.1373 0.56865   0.12189
 H 0.821 0.43135 0.8627   0.12189
 H 0.321 0.56865 0.43135   0.12189
 H 0.321 0.8627 0.43135   0.12189
 H 0.321 0.56865 0.1373   0.12189
 H 0.8249 0.89965 0.7993   0.113646
 H 0.8249 0.89965 0.10035   0.113646
 H 0.8249 0.2007 0.10035   0.113646
 H 0.3249 0.10035 0.2007   0.113646
 H 0.3249 0.10035 0.89965   0.113646
 H 0.3249 0.7993 0.89965   0.113646
 C 0.0113 0.5408 0.5797   0.234101
 C 0.9306 0.518 0.6072   -0.213819
 C 0.8882 0.5715 0.691   0.679123
 C 0.6055 0.8205 0.7619   0.218255
 C 0.7059 0.8266 0.7801   -0.219225
 C 0.7551 0.7638 0.7928   0.687289
 C 0.0113 0.0389 0.4592   0.23411
 C 0.9306 0.0892 0.482   -0.213829
 C 0.8882 0.1195 0.4285   0.679124
 C 0.6055 0.9414 0.1795   0.218255
 C 0.7059 0.9535 0.1734   -0.219225
 C 0.7551 0.029 0.2362   0.687289
 C 0.0113 0.4203 0.9611   0.234102
 C 0.9306 0.3928 0.9108   -0.213819
 C 0.8882 0.309 0.8805   0.679123
 C 0.6055 0.2381 0.0586   0.218255
 C 0.7059 0.2199 0.0465   -0.219225
 C 0.7551 0.2072 0.971   0.687289
 C 0.5113 0.4592 0.4203   0.234101
 C 0.4306 0.482 0.3928   -0.213819
 C 0.3882 0.4285 0.309   0.679123
 C 0.1055 0.1795 0.2381   0.218255
 C 0.2059 0.1734 0.2199   -0.219225
 C 0.2551 0.2362 0.2072   0.687289
 C 0.5113 0.9611 0.5408   0.23411
 C 0.4306 0.9108 0.518   -0.213829
 C 0.3882 0.8805 0.5715   0.679124
 C 0.1055 0.0586 0.8205   0.218255
 C 0.2059 0.0465 0.8266   -0.219225
 C 0.2551 0.971 0.7638   0.687289
 C 0.5113 0.5797 0.0389   0.234102
 C 0.4306 0.6072 0.0892   -0.213819
 C 0.3882 0.691 0.1195   0.679123
 C 0.1055 0.7619 0.9414   0.218255
 C 0.2059 0.7801 0.9535   -0.219225
 C 0.2551 0.7928 0.029   0.687289
 C 0.0113 0.0389 0.5797   0.234111
 C 0.9306 0.0892 0.6072   -0.213829
 C 0.8882 0.1195 0.691   0.679124
 C 0.6055 0.9414 0.7619   0.218256
 C 0.7059 0.9535 0.7801   -0.219225
 C 0.7551 0.029 0.7928   0.687289
 C 0.0113 0.4203 0.4592   0.234102
 C 0.9306 0.3928 0.482   -0.213819
 C 0.8882 0.309 0.4285   0.679123
 C 0.6055 0.2381 0.1795   0.218256
 C 0.7059 0.2199 0.1734   -0.219225
 C 0.7551 0.2072 0.2362   0.687289
 C 0.0113 0.5408 0.9611   0.234102
 C 0.9306 0.518 0.9108   -0.213819
 C 0.8882 0.5715 0.8805   0.679123
 C 0.6055 0.8205 0.0586   0.218256
 C 0.7059 0.8266 0.0465   -0.219225
 C 0.7551 0.7638 0.971   0.687289
 C 0.5113 0.9611 0.4203   0.234111
 C 0.4306 0.9108 0.3928   -0.213829
 C 0.3882 0.8805 0.309   0.679124
 C 0.1055 0.0586 0.2381   0.218256
 C 0.2059 0.0465 0.2199   -0.219225
 C 0.2551 0.971 0.2072   0.687289
 C 0.5113 0.5797 0.5408   0.234102
 C 0.4306 0.6072 0.518   -0.213819
 C 0.3882 0.691 0.5715   0.679123
 C 0.1055 0.7619 0.8205   0.218256
 C 0.2059 0.7801 0.8266   -0.219225
 C 0.2551 0.7928 0.7638   0.687289
 C 0.5113 0.4592 0.0389   0.234102
 C 0.4306 0.482 0.0892   -0.213819
 C 0.3882 0.4285 0.1195   0.679123
 C 0.1055 0.1795 0.9414   0.218256
 C 0.2059 0.1734 0.9535   -0.219225
 C 0.2551 0.2362 0.029   0.687289
 C 0.8844 0.444 0.556   0.063336
 C 0.8844 0.112 0.556   0.063341
 C 0.8844 0.444 0.888   0.063336
 C 0.3844 0.556 0.444   0.063336
 C 0.3844 0.888 0.444   0.063341
 C 0.3844 0.556 0.112   0.063336
 C 0.7571 0.8942 0.7884   0.079705
 C 0.7571 0.8942 0.1058   0.079705
 C 0.7571 0.2116 0.1058   0.079705
 C 0.2571 0.1058 0.2116   0.079705
 C 0.2571 0.1058 0.8942   0.079705
 C 0.2571 0.7884 0.8942   0.079705
 N 0.0514 0.49345 0.50655   -0.418898
 N 0.0514 0.0131 0.50655   -0.418902
 N 0.0514 0.49345 0.9869   -0.418899
 N 0.5514 0.50655 0.49345   -0.418898
 N 0.5514 0.9869 0.49345   -0.418902
 N 0.5514 0.50655 0.0131   -0.418899
 N 0.5545 0.87653 0.75306   -0.341287
 N 0.5545 0.87653 0.12347   -0.341287
 N 0.5545 0.24694 0.12347   -0.341287
 N 0.0545 0.12347 0.24694   -0.341287
 N 0.0545 0.12347 0.87653   -0.341287
 N 0.0545 0.75306 0.87653   -0.341287
 O 0.8024 0.5557 0.7057   -0.553355
 O 0.9427 0.6289 0.7411   -0.549789
 O 0.7023 0.7038 0.7804   -0.578265
 O 0.8434 0.7758 0.8156   -0.532985
 O 0.8024 0.15 0.4443   -0.553355
 O 0.9427 0.1122 0.3711   -0.549788
 O 0.7023 0.0766 0.2962   -0.578265
 O 0.8434 0.0398 0.2242   -0.532985
 O 0.8024 0.2943 0.85   -0.553355
 O 0.9427 0.2589 0.8878   -0.549789
 O 0.7023 0.2196 0.9234   -0.578265
 O 0.8434 0.1844 0.9602   -0.532985
 O 0.3024 0.4443 0.2943   -0.553355
 O 0.4427 0.3711 0.2589   -0.549789
 O 0.2023 0.2962 0.2196   -0.578265
 O 0.3434 0.2242 0.1844   -0.532985
 O 0.3024 0.85 0.5557   -0.553355
 O 0.4427 0.8878 0.6289   -0.549788
 O 0.2023 0.9234 0.7038   -0.578265
 O 0.3434 0.9602 0.7758   -0.532985
 O 0.3024 0.7057 0.15   -0.553355
 O 0.4427 0.7411 0.1122   -0.549789
 O 0.2023 0.7804 0.0766   -0.578265
 O 0.3434 0.8156 0.0398   -0.532985
 O 0.8024 0.15 0.7057   -0.553355
 O 0.9427 0.1122 0.7411   -0.549788
 O 0.7023 0.0766 0.7804   -0.578265
 O 0.8434 0.0398 0.8156   -0.532985
 O 0.8024 0.2943 0.4443   -0.553355
 O 0.9427 0.2589 0.3711   -0.549789
 O 0.7023 0.2196 0.2962   -0.578265
 O 0.8434 0.1844 0.2242   -0.532985
 O 0.8024 0.5557 0.85   -0.553355
 O 0.9427 0.6289 0.8878   -0.549789
 O 0.7023 0.7038 0.9234   -0.578265
 O 0.8434 0.7758 0.9602   -0.532985
 O 0.3024 0.85 0.2943   -0.553355
 O 0.4427 0.8878 0.2589   -0.549788
 O 0.2023 0.9234 0.2196   -0.578265
 O 0.3434 0.9602 0.1844   -0.532985
 O 0.3024 0.7057 0.5557   -0.553355
 O 0.4427 0.7411 0.6289   -0.549789
 O 0.2023 0.7804 0.7038   -0.578265
 O 0.3434 0.8156 0.7758   -0.532985
 O 0.3024 0.4443 0.15   -0.553355
 O 0.4427 0.3711 0.1122   -0.549789
 O 0.2023 0.2962 0.0766   -0.578265
 O 0.3434 0.2242 0.0398   -0.532985
