{'_ref': 'TBD', '_srcid': 'CAKYAQ_clean', 'submitters': [{'name': 'Dalar Nazarian Jeff Camp and David Sholl', 'email': 'dalar@gatech.edu jcamp6@gatech.edu'}], '_method': 'VASP DFT with PBE;DDEC'}
data_K2ZnH2(C5O4)2
_symmetry_space_group_name_H-M   'P 1'
_cell_length_a   9.55449980
_cell_length_b   9.55449976
_cell_length_c   11.10850000
_cell_angle_alpha   90.82929911
_cell_angle_beta   90.82929910
_cell_angle_gamma   107.22250264
_symmetry_Int_Tables_number   1
_chemical_formula_structural   K2ZnH2(C5O4)2
_chemical_formula_sum   'K4 Zn2 H4 C20 O16'
_cell_volume   968.3205562
_cell_formula_units_Z   2
loop_
 _symmetry_equiv_pos_site_id
 _symmetry_equiv_pos_as_xyz
  1  'x, y, z'
loop_
 _atom_site_label
 _atom_site_fract_x
 _atom_site_fract_y
 _atom_site_fract_z
 _atom_site_charge
 K 0.64219 0.78981 0.49244   0.944747
 K 0.21019 0.35781 0.00756   0.944748
 K 0.35781 0.21019 0.50756   0.944747
 K 0.78981 0.64219 0.99244   0.944748
 Zn 0.49675 0.50325 0.25   1.065367
 Zn 0.50325 0.49675 0.75   1.065367
 H 0.5436 0.0522 0.2028   0.104029
 H 0.9478 0.4564 0.2972   0.104029
 H 0.4564 0.9478 0.7972   0.104028
 H 0.0522 0.5436 0.7028   0.104028
 C 0.5527 0.2945 0.0994   0.750736
 C 0.4893 0.2273 0.8325   0.706634
 C 0.5227 0.1431 0.0439   -0.078917
 C 0.4958 0.1114 0.9212   -0.133308
 C 0.5262 0.0312 0.121   -0.054833
 C 0.7055 0.4473 0.4006   0.750736
 C 0.7727 0.5107 0.6675   0.706634
 C 0.8569 0.4773 0.4561   -0.078917
 C 0.8886 0.5042 0.5788   -0.133308
 C 0.9688 0.4738 0.379   -0.054833
 C 0.4473 0.7055 0.9006   0.750736
 C 0.5107 0.7727 0.1675   0.706634
 C 0.4773 0.8569 0.9561   -0.078918
 C 0.5042 0.8886 0.0788   -0.133305
 C 0.4738 0.9688 0.879   -0.05483
 C 0.2945 0.5527 0.5994   0.750736
 C 0.2273 0.4893 0.3325   0.706634
 C 0.1431 0.5227 0.5439   -0.078918
 C 0.1114 0.4958 0.4212   -0.133305
 C 0.0312 0.5262 0.621   -0.05483
 O 0.44421 0.31999 0.1521   -0.740873
 O 0.6775 0.3801 0.099   -0.666596
 O 0.47222 0.34538 0.8749   -0.684918
 O 0.5003 0.2045 0.7237   -0.679387
 O 0.68001 0.55579 0.3479   -0.740873
 O 0.6199 0.3225 0.401   -0.666596
 O 0.65462 0.52778 0.6251   -0.684918
 O 0.7955 0.4997 0.7763   -0.679387
 O 0.55579 0.68001 0.8479   -0.740873
 O 0.3225 0.6199 0.901   -0.666596
 O 0.52778 0.65462 0.1251   -0.684918
 O 0.4997 0.7955 0.2763   -0.679387
 O 0.31999 0.44421 0.6521   -0.740873
 O 0.3801 0.6775 0.599   -0.666595
 O 0.34538 0.47222 0.3749   -0.684918
 O 0.2045 0.5003 0.2237   -0.679387
