{'_ref': 'TBD', '_srcid': 'CAKYAQ_clean', 'submitters': [{'name': 'Dalar Nazarian Jeff Camp and David Sholl', 'email': 'dalar@gatech.edu jcamp6@gatech.edu'}], '_method': 'VASP DFT with PBE;DDEC'}
data_CdH8C15O4
_symmetry_space_group_name_H-M   'P 1'
_cell_length_a   11.41370021
_cell_length_b   16.59200000
_cell_length_c   26.04100000
_cell_angle_alpha   90.00000000
_cell_angle_beta   95.29000188
_cell_angle_gamma   90.00000000
_symmetry_Int_Tables_number   1
_chemical_formula_structural   CdH8C15O4
_chemical_formula_sum   'Cd8 H64 C120 O32'
_cell_volume   4910.53896157
_cell_formula_units_Z   8
loop_
 _symmetry_equiv_pos_site_id
 _symmetry_equiv_pos_as_xyz
  1  'x, y, z'
loop_
 _atom_site_label
 _atom_site_fract_x
 _atom_site_fract_y
 _atom_site_fract_z
 _atom_site_charge
 Cd 0.88591 0.05887 0.96078   1.108619
 Cd 0.83183 0.26612 0.96307   1.117661
 Cd 0.11409 0.55887 0.53922   1.108619
 Cd 0.16817 0.76612 0.53693   1.117661
 Cd 0.11409 0.94113 0.03922   1.108619
 Cd 0.16817 0.73388 0.03693   1.11766
 Cd 0.88591 0.44113 0.46078   1.108619
 Cd 0.83183 0.23388 0.46307   1.11766
 H 0.2504 0.0883 0.7786   0.111166
 H 0.1432 0.0781 0.8499   0.10568
 H 0.0484 0.3116 0.8326   0.105121
 H 0.1557 0.3209 0.7612   0.112509
 H 0.318 0.1251 0.6213   0.104941
 H 0.4103 0.1203 0.5453   0.115937
 H 0.683 0.2473 0.6145   0.10358
 H 0.593 0.2468 0.6905   0.103247
 H 0.4449 0.2701 0.7988   0.115703
 H 0.5809 0.2407 0.8688   0.102368
 H 0.6457 0.026 0.8038   0.105338
 H 0.5127 0.0586 0.7338   0.114908
 H 0.064 0.173 0.6681   0.120465
 H 0.9532 0.2338 0.5995   0.103009
 H 0.2072 0.4013 0.5904   0.081512
 H 0.3212 0.339 0.6583   0.119795
 H 0.7496 0.5883 0.7214   0.111167
 H 0.8568 0.5781 0.6501   0.10568
 H 0.9516 0.8116 0.6674   0.105121
 H 0.8443 0.8209 0.7388   0.112509
 H 0.682 0.6251 0.8787   0.104941
 H 0.5897 0.6203 0.9547   0.115937
 H 0.317 0.7473 0.8855   0.10358
 H 0.407 0.7468 0.8095   0.103247
 H 0.5551 0.7701 0.7012   0.115704
 H 0.4191 0.7407 0.6312   0.102368
 H 0.3543 0.526 0.6962   0.105338
 H 0.4873 0.5586 0.7662   0.114909
 H 0.936 0.673 0.8319   0.120465
 H 0.0468 0.7338 0.9005   0.103009
 H 0.7928 0.9013 0.9096   0.081512
 H 0.6788 0.839 0.8417   0.119795
 H 0.7496 0.9117 0.2214   0.111166
 H 0.8568 0.9219 0.1501   0.10568
 H 0.9516 0.6884 0.1674   0.105121
 H 0.8443 0.6791 0.2388   0.112509
 H 0.682 0.8749 0.3787   0.104941
 H 0.5897 0.8797 0.4547   0.115937
 H 0.317 0.7527 0.3855   0.10358
 H 0.407 0.7532 0.3095   0.103247
 H 0.5551 0.7299 0.2012   0.115703
 H 0.4191 0.7593 0.1312   0.102368
 H 0.3543 0.974 0.1962   0.105338
 H 0.4873 0.9414 0.2662   0.114908
 H 0.936 0.827 0.3319   0.120465
 H 0.0468 0.7662 0.4005   0.103009
 H 0.7928 0.5987 0.4096   0.081512
 H 0.6788 0.661 0.3417   0.119795
 H 0.2504 0.4117 0.2786   0.111167
 H 0.1432 0.4219 0.3499   0.10568
 H 0.0484 0.1884 0.3326   0.105121
 H 0.1557 0.1791 0.2612   0.112509
 H 0.318 0.3749 0.1213   0.104941
 H 0.4103 0.3797 0.0453   0.115937
 H 0.683 0.2527 0.1145   0.10358
 H 0.593 0.2532 0.1905   0.103247
 H 0.4449 0.2299 0.2988   0.115704
 H 0.5809 0.2593 0.3688   0.102368
 H 0.6457 0.474 0.3038   0.105338
 H 0.5127 0.4414 0.2338   0.114909
 H 0.064 0.327 0.1681   0.120465
 H 0.9532 0.2662 0.0995   0.103009
 H 0.2072 0.0987 0.0904   0.081512
 H 0.3212 0.161 0.1583   0.119795
 C 0.3875 0.1897 0.7124   -0.026361
 C 0.2749 0.2121 0.7145   -0.065107
 C 0.2117 0.2055 0.7619   0.087048
 C 0.2086 0.1339 0.7894   -0.154905
 C 0.1459 0.1279 0.8321   -0.020931
 C 0.0868 0.1942 0.8491   -0.15676
 C 0.0899 0.2659 0.8219   -0.023864
 C 0.153 0.2711 0.7791   -0.154824
 C 0.445 0.188 0.6633   0.06025
 C 0.3928 0.1499 0.62   -0.149005
 C 0.4475 0.1471 0.5747   -0.028273
 C 0.5564 0.1833 0.572   -0.111337
 C 0.609 0.2215 0.6157   -0.054395
 C 0.5544 0.2222 0.6606   -0.150984
 C 0.4667 0.1674 0.7591   0.089095
 C 0.4868 0.2206 0.7995   -0.148997
 C 0.5676 0.203 0.8414   -0.017442
 C 0.6281 0.1316 0.8434   -0.154927
 C 0.6061 0.0764 0.8028   -0.033119
 C 0.5263 0.0959 0.7614   -0.152114
 C 0.204 0.2495 0.6696   0.095535
 C 0.0937 0.2192 0.6521   -0.154254
 C 0.0275 0.2557 0.6117   -0.020998
 C 0.0683 0.3241 0.5887   -0.192378
 C 0.1783 0.3547 0.6062   0.007619
 C 0.2462 0.3177 0.6466   -0.145627
 C 0.9963 0.3655 0.5461   0.739569
 C 0.7161 0.1113 0.887   0.687834
 C 0.0162 0.1867 0.8947   0.720386
 C 0.6186 0.1796 0.5236   0.680413
 C 0.6125 0.6897 0.7876   -0.026361
 C 0.7251 0.7121 0.7855   -0.065107
 C 0.7883 0.7055 0.7381   0.087049
 C 0.7914 0.6339 0.7106   -0.154905
 C 0.8541 0.6279 0.6679   -0.020931
 C 0.9132 0.6942 0.6509   -0.15676
 C 0.9101 0.7659 0.6781   -0.023864
 C 0.847 0.7711 0.7209   -0.154824
 C 0.555 0.688 0.8367   0.06025
 C 0.6072 0.6499 0.88   -0.149005
 C 0.5525 0.6471 0.9253   -0.028273
 C 0.4436 0.6833 0.928   -0.111337
 C 0.391 0.7215 0.8843   -0.054395
 C 0.4456 0.7222 0.8394   -0.150984
 C 0.5333 0.6674 0.7409   0.089095
 C 0.5132 0.7206 0.7005   -0.148997
 C 0.4324 0.703 0.6586   -0.017442
 C 0.3719 0.6316 0.6566   -0.154927
 C 0.3939 0.5764 0.6972   -0.033119
 C 0.4737 0.5959 0.7386   -0.152115
 C 0.796 0.7495 0.8304   0.095535
 C 0.9063 0.7192 0.8479   -0.154254
 C 0.9725 0.7557 0.8883   -0.020998
 C 0.9317 0.8241 0.9113   -0.192378
 C 0.8217 0.8547 0.8938   0.007619
 C 0.7538 0.8177 0.8534   -0.145627
 C 0.0037 0.8655 0.9539   0.739569
 C 0.2839 0.6113 0.613   0.687834
 C 0.9838 0.6867 0.6053   0.720386
 C 0.3814 0.6796 0.9764   0.680413
 C 0.6125 0.8103 0.2876   -0.026361
 C 0.7251 0.7879 0.2855   -0.065107
 C 0.7883 0.7945 0.2381   0.087048
 C 0.7914 0.8661 0.2106   -0.154905
 C 0.8541 0.8721 0.1679   -0.020931
 C 0.9132 0.8058 0.1509   -0.15676
 C 0.9101 0.7341 0.1781   -0.023864
 C 0.847 0.7289 0.2209   -0.154824
 C 0.555 0.812 0.3367   0.06025
 C 0.6072 0.8501 0.38   -0.149005
 C 0.5525 0.8529 0.4253   -0.028273
 C 0.4436 0.8167 0.428   -0.111337
 C 0.391 0.7785 0.3843   -0.054395
 C 0.4456 0.7778 0.3394   -0.150984
 C 0.5333 0.8326 0.2409   0.089095
 C 0.5132 0.7794 0.2005   -0.148997
 C 0.4324 0.797 0.1586   -0.017442
 C 0.3719 0.8684 0.1566   -0.154927
 C 0.3939 0.9236 0.1972   -0.033119
 C 0.4737 0.9041 0.2386   -0.152114
 C 0.796 0.7505 0.3304   0.095535
 C 0.9063 0.7808 0.3479   -0.154254
 C 0.9725 0.7443 0.3883   -0.020998
 C 0.9317 0.6759 0.4113   -0.192378
 C 0.8217 0.6453 0.3938   0.007619
 C 0.7538 0.6823 0.3534   -0.145627
 C 0.0037 0.6345 0.4539   0.739569
 C 0.2839 0.8887 0.113   0.687834
 C 0.9838 0.8133 0.1053   0.720386
 C 0.3814 0.8204 0.4764   0.680413
 C 0.3875 0.3103 0.2124   -0.026361
 C 0.2749 0.2879 0.2145   -0.065107
 C 0.2117 0.2945 0.2619   0.087049
 C 0.2086 0.3661 0.2894   -0.154905
 C 0.1459 0.3721 0.3321   -0.020931
 C 0.0868 0.3058 0.3491   -0.15676
 C 0.0899 0.2341 0.3219   -0.023864
 C 0.153 0.2289 0.2791   -0.154824
 C 0.445 0.312 0.1633   0.06025
 C 0.3928 0.3501 0.12   -0.149005
 C 0.4475 0.3529 0.0747   -0.028273
 C 0.5564 0.3167 0.072   -0.111337
 C 0.609 0.2785 0.1157   -0.054395
 C 0.5544 0.2778 0.1606   -0.150984
 C 0.4667 0.3326 0.2591   0.089095
 C 0.4868 0.2794 0.2995   -0.148997
 C 0.5676 0.297 0.3414   -0.017442
 C 0.6281 0.3684 0.3434   -0.154927
 C 0.6061 0.4236 0.3028   -0.033119
 C 0.5263 0.4041 0.2614   -0.152115
 C 0.204 0.2505 0.1696   0.095535
 C 0.0937 0.2808 0.1521   -0.154254
 C 0.0275 0.2443 0.1117   -0.020998
 C 0.0683 0.1759 0.0887   -0.192378
 C 0.1783 0.1453 0.1062   0.007619
 C 0.2462 0.1823 0.1466   -0.145627
 C 0.9963 0.1345 0.0461   0.739569
 C 0.7161 0.3887 0.387   0.687834
 C 0.0162 0.3133 0.3947   0.720386
 C 0.6186 0.3204 0.0236   0.680413
 O 0.7279 0.1579 0.92542   -0.664557
 O 0.7758 0.0481 0.88401   -0.573854
 O 0.0216 0.1219 0.91878   -0.615756
 O 0.9554 0.2485 0.90458   -0.638524
 O 0.7107 0.2192 0.52338   -0.619823
 O 0.574 0.1372 0.4875   -0.617584
 O 0.0198 0.4365 0.53498   -0.633835
 O 0.9118 0.3295 0.52229   -0.63877
 O 0.2721 0.6579 0.57458   -0.664557
 O 0.2242 0.5481 0.61599   -0.573854
 O 0.9784 0.6219 0.58122   -0.615756
 O 0.0446 0.7485 0.59542   -0.638524
 O 0.2893 0.7192 0.97662   -0.619823
 O 0.426 0.6372 0.0125   -0.617584
 O 0.9802 0.9365 0.96502   -0.633835
 O 0.0882 0.8295 0.97771   -0.63877
 O 0.2721 0.8421 0.07458   -0.664557
 O 0.2242 0.9519 0.11599   -0.573854
 O 0.9784 0.8781 0.08122   -0.615756
 O 0.0446 0.7515 0.09542   -0.638524
 O 0.2893 0.7808 0.47662   -0.619823
 O 0.426 0.8628 0.5125   -0.617584
 O 0.9802 0.5635 0.46502   -0.633835
 O 0.0882 0.6705 0.47771   -0.63877
 O 0.7279 0.3421 0.42542   -0.664557
 O 0.7758 0.4519 0.38401   -0.573854
 O 0.0216 0.3781 0.41878   -0.615756
 O 0.9554 0.2515 0.40458   -0.638524
 O 0.7107 0.2808 0.02338   -0.619823
 O 0.574 0.3628 0.9875   -0.617584
 O 0.0198 0.0635 0.03498   -0.633835
 O 0.9118 0.1705 0.02229   -0.63877
