{'_ref': 'TBD', '_srcid': 'CAKYAQ_clean', 'submitters': [{'name': 'Dalar Nazarian Jeff Camp and David Sholl', 'email': 'dalar@gatech.edu jcamp6@gatech.edu'}], '_method': 'VASP DFT with PBE;DDEC'}
data_NiH16C24N2O5
_symmetry_space_group_name_H-M   'P 1'
_cell_length_a   11.28450037
_cell_length_b   11.28450013
_cell_length_c   19.88500000
_cell_angle_alpha   85.32659854
_cell_angle_beta   85.32659864
_cell_angle_gamma   66.15780111
_symmetry_Int_Tables_number   1
_chemical_formula_structural   NiH16C24N2O5
_chemical_formula_sum   'Ni4 H64 C96 N8 O20'
_cell_volume   2305.0913309
_cell_formula_units_Z   4
loop_
 _symmetry_equiv_pos_site_id
 _symmetry_equiv_pos_as_xyz
  1  'x, y, z'
loop_
 _atom_site_label
 _atom_site_fract_x
 _atom_site_fract_y
 _atom_site_fract_z
 _atom_site_charge
 Ni 0.02562 0.85974 0.9253   0.846201
 Ni 0.14026 0.97438 0.5747   0.846201
 Ni 0.97438 0.14026 0.0747   0.846201
 Ni 0.85974 0.02562 0.4253   0.846201
 H 0.1993 0.9597 0.8355   0.098514
 H 0.401 0.9692 0.8315   0.125502
 H 0.4659 0.7627 0.0102   0.131189
 H 0.2606 0.7638 0.0103   0.081692
 H 0.6201 0.8081 0.0184   0.116367
 H 0.8251 0.8073 0.0174   0.079081
 H 0.8188 0.9074 0.8263   0.088297
 H 0.6114 0.9166 0.8227   0.12295
 H 0.6286 0.0602 0.5551   0.108148
 H 0.4339 0.1199 0.6204   0.136949
 H 0.6085 0.1795 0.7754   0.129575
 H 0.8021 0.1225 0.7096   0.097633
 H 0.2711 0.2215 0.8569   0.126035
 H 0.1632 0.4176 0.9081   0.094914
 H 0.2595 0.6055 0.7458   0.093911
 H 0.3747 0.4071 0.6961   0.133988
 H 0.0403 0.8007 0.6645   0.098515
 H 0.0308 0.599 0.6685   0.125502
 H 0.2373 0.5341 0.4898   0.131189
 H 0.2362 0.7394 0.4897   0.081692
 H 0.1919 0.3799 0.4816   0.116367
 H 0.1927 0.1749 0.4826   0.079081
 H 0.0926 0.1812 0.6737   0.088297
 H 0.0834 0.3886 0.6773   0.12295
 H 0.9398 0.3714 0.9449   0.108148
 H 0.8801 0.5661 0.8796   0.136949
 H 0.8205 0.3915 0.7246   0.129575
 H 0.8775 0.1979 0.7904   0.097634
 H 0.7785 0.7289 0.6431   0.126035
 H 0.5824 0.8368 0.5919   0.094914
 H 0.3945 0.7405 0.7542   0.09391
 H 0.5929 0.6253 0.8039   0.133988
 H 0.8007 0.0403 0.1645   0.098514
 H 0.599 0.0308 0.1685   0.125502
 H 0.5341 0.2373 0.9898   0.13119
 H 0.7394 0.2362 0.9897   0.081692
 H 0.3799 0.1919 0.9816   0.116367
 H 0.1749 0.1927 0.9826   0.079081
 H 0.1812 0.0926 0.1737   0.088297
 H 0.3886 0.0834 0.1773   0.12295
 H 0.3714 0.9398 0.4449   0.108148
 H 0.5661 0.8801 0.3796   0.136949
 H 0.3915 0.8205 0.2246   0.129576
 H 0.1979 0.8775 0.2904   0.097633
 H 0.7289 0.7785 0.1431   0.126035
 H 0.8368 0.5824 0.0919   0.094914
 H 0.7405 0.3945 0.2542   0.093911
 H 0.6253 0.5929 0.3039   0.133988
 H 0.9597 0.1993 0.3355   0.098515
 H 0.9692 0.401 0.3315   0.125502
 H 0.7627 0.4659 0.5102   0.13119
 H 0.7638 0.2606 0.5103   0.081692
 H 0.8081 0.6201 0.5184   0.116367
 H 0.8073 0.8251 0.5174   0.079081
 H 0.9074 0.8188 0.3263   0.088297
 H 0.9166 0.6114 0.3227   0.12295
 H 0.0602 0.6286 0.0551   0.108149
 H 0.1199 0.4339 0.1204   0.136949
 H 0.1795 0.6085 0.2754   0.129576
 H 0.1225 0.8021 0.2096   0.097634
 H 0.2215 0.2711 0.3569   0.126035
 H 0.4176 0.1632 0.4081   0.094915
 H 0.6055 0.2595 0.2458   0.09391
 H 0.4071 0.3747 0.1961   0.133988
 C 0.254 0.9204 0.872   0.163885
 C 0.375 0.9254 0.8688   -0.197493
 C 0.4581 0.8653 0.921   0.086382
 C 0.4126 0.805 0.9736   -0.202288
 C 0.2895 0.8059 0.9733   0.17324
 C 0.5907 0.8649 0.9202   0.099378
 C 0.6578 0.831 0.9777   -0.208024
 C 0.781 0.8302 0.9766   0.163407
 C 0.7775 0.8885 0.8668   0.163256
 C 0.6532 0.8932 0.8642   -0.198738
 C 0.7355 0.0827 0.6263   -0.18628
 C 0.6251 0.0839 0.6002   0.011405
 C 0.5093 0.1193 0.6388   -0.239618
 C 0.5046 0.1534 0.7038   0.287739
 C 0.6128 0.1548 0.7304   -0.255816
 C 0.7279 0.1203 0.6914   0.008752
 C 0.8616 0.0408 0.5846   0.658566
 C 0.3323 0.2981 0.7718   0.294689
 C 0.2696 0.2998 0.8346   -0.246434
 C 0.2051 0.4161 0.8646   -0.000676
 C 0.2002 0.5318 0.8319   -0.16239
 C 0.2627 0.5273 0.7689   0.006147
 C 0.3303 0.4095 0.739   -0.266213
 C 0.129 0.657 0.8653   0.619384
 C 0.0796 0.746 0.628   0.163885
 C 0.0746 0.625 0.6312   -0.197494
 C 0.1347 0.5419 0.579   0.086382
 C 0.195 0.5874 0.5264   -0.202288
 C 0.1941 0.7105 0.5267   0.17324
 C 0.1351 0.4093 0.5798   0.099378
 C 0.169 0.3422 0.5223   -0.208024
 C 0.1698 0.219 0.5234   0.163407
 C 0.1115 0.2225 0.6332   0.163256
 C 0.1068 0.3468 0.6358   -0.198738
 C 0.9173 0.2645 0.8737   -0.18628
 C 0.9161 0.3749 0.8998   0.011405
 C 0.8807 0.4907 0.8612   -0.239619
 C 0.8466 0.4954 0.7962   0.287739
 C 0.8452 0.3872 0.7696   -0.255816
 C 0.8797 0.2721 0.8086   0.008752
 C 0.9592 0.1384 0.9154   0.658566
 C 0.7019 0.6677 0.7282   0.294689
 C 0.7002 0.7304 0.6654   -0.246434
 C 0.5839 0.7949 0.6354   -0.000678
 C 0.4682 0.7998 0.6681   -0.162391
 C 0.4727 0.7373 0.7311   0.006147
 C 0.5905 0.6697 0.761   -0.266213
 C 0.343 0.871 0.6347   0.619384
 C 0.746 0.0796 0.128   0.163885
 C 0.625 0.0746 0.1312   -0.197493
 C 0.5419 0.1347 0.079   0.086382
 C 0.5874 0.195 0.0264   -0.202288
 C 0.7105 0.1941 0.0267   0.17324
 C 0.4093 0.1351 0.0798   0.099378
 C 0.3422 0.169 0.0223   -0.208024
 C 0.219 0.1698 0.0234   0.163407
 C 0.2225 0.1115 0.1332   0.163256
 C 0.3468 0.1068 0.1358   -0.198738
 C 0.2645 0.9173 0.3737   -0.18628
 C 0.3749 0.9161 0.3998   0.011405
 C 0.4907 0.8807 0.3612   -0.239618
 C 0.4954 0.8466 0.2962   0.28774
 C 0.3872 0.8452 0.2696   -0.255817
 C 0.2721 0.8797 0.3086   0.008753
 C 0.1384 0.9592 0.4154   0.658566
 C 0.6677 0.7019 0.2282   0.294689
 C 0.7304 0.7002 0.1654   -0.246434
 C 0.7949 0.5839 0.1354   -0.000676
 C 0.7998 0.4682 0.1681   -0.16239
 C 0.7373 0.4727 0.2311   0.006147
 C 0.6697 0.5905 0.261   -0.266213
 C 0.871 0.343 0.1347   0.619384
 C 0.9204 0.254 0.372   0.163885
 C 0.9254 0.375 0.3688   -0.197494
 C 0.8653 0.4581 0.421   0.086382
 C 0.805 0.4126 0.4736   -0.202288
 C 0.8059 0.2895 0.4733   0.17324
 C 0.8649 0.5907 0.4202   0.099378
 C 0.831 0.6578 0.4777   -0.208024
 C 0.8302 0.781 0.4766   0.163407
 C 0.8885 0.7775 0.3668   0.163256
 C 0.8932 0.6532 0.3642   -0.198738
 C 0.0827 0.7355 0.1263   -0.18628
 C 0.0839 0.6251 0.1002   0.011405
 C 0.1193 0.5093 0.1388   -0.239619
 C 0.1534 0.5046 0.2038   0.287739
 C 0.1548 0.6128 0.2304   -0.255817
 C 0.1203 0.7279 0.1914   0.008752
 C 0.0408 0.8616 0.0846   0.658566
 C 0.2981 0.3323 0.2718   0.294689
 C 0.2998 0.2696 0.3346   -0.246434
 C 0.4161 0.2051 0.3646   -0.000678
 C 0.5318 0.2002 0.3319   -0.162391
 C 0.5273 0.2627 0.2689   0.006147
 C 0.4095 0.3303 0.239   -0.266213
 C 0.657 0.129 0.3653   0.619384
 N 0.21022 0.86302 0.9238   -0.295481
 N 0.84056 0.85936 0.9223   -0.283427
 N 0.13698 0.78978 0.5762   -0.295481
 N 0.14064 0.15944 0.5777   -0.283427
 N 0.78978 0.13698 0.0762   -0.295481
 N 0.15944 0.14064 0.0777   -0.283427
 N 0.86302 0.21022 0.4238   -0.295481
 N 0.85936 0.84056 0.4223   -0.283427
 O 0.11247 0.65327 0.92968   -0.583495
 O 0.08856 0.76256 0.83151   -0.546015
 O 0.3909 0.1781 0.7437   -0.275559
 O 0.86507 0.99847 0.52775   -0.617917
 O 0.95518 0.05018 0.61052   -0.581312
 O 0.34673 0.88753 0.57032   -0.583494
 O 0.23744 0.91144 0.66849   -0.546015
 O 0.8219 0.6091 0.7563   -0.275559
 O 0.00153 0.13493 0.97225   -0.617917
 O 0.94982 0.04482 0.88948   -0.581311
 O 0.88753 0.34673 0.07032   -0.583495
 O 0.91144 0.23744 0.16849   -0.546015
 O 0.6091 0.8219 0.2563   -0.275559
 O 0.13493 0.00153 0.47225   -0.617918
 O 0.04482 0.94982 0.38948   -0.581312
 O 0.65327 0.11247 0.42968   -0.583494
 O 0.76256 0.08856 0.33151   -0.546015
 O 0.1781 0.3909 0.2437   -0.275559
 O 0.99847 0.86507 0.02775   -0.617918
 O 0.05018 0.95518 0.11052   -0.581311
