{'_ref': 'TBD', '_srcid': 'CAKYAQ_clean', 'submitters': [{'name': 'Dalar Nazarian Jeff Camp and David Sholl', 'email': 'dalar@gatech.edu jcamp6@gatech.edu'}], '_method': 'VASP DFT with PBE;DDEC'}
data_CoH2(CO2)2
_symmetry_space_group_name_H-M   'P 1'
_cell_length_a   9.88390000
_cell_length_b   18.08180000
_cell_length_c   18.23700000
_cell_angle_alpha   90.00000000
_cell_angle_beta   90.00000000
_cell_angle_gamma   90.00000000
_symmetry_Int_Tables_number   1
_chemical_formula_structural   CoH2(CO2)2
_chemical_formula_sum   'Co24 H48 C48 O96'
_cell_volume   3259.29298698
_cell_formula_units_Z   24
loop_
 _symmetry_equiv_pos_site_id
 _symmetry_equiv_pos_as_xyz
  1  'x, y, z'
loop_
 _atom_site_label
 _atom_site_fract_x
 _atom_site_fract_y
 _atom_site_fract_z
 _atom_site_charge
 Co 0.42178 0.9391 0.8211   1.121026
 Co 0.61238 0.03512 0.71671   1.106596
 Co 0.07822 0.4391 0.6789   1.121026
 Co 0.88762 0.53512 0.78329   1.106596
 Co 0.57822 0.5609 0.8211   1.121026
 Co 0.38762 0.46488 0.71671   1.106596
 Co 0.92178 0.0609 0.6789   1.121026
 Co 0.11238 0.96488 0.78329   1.106596
 Co 0.57822 0.0609 0.1789   1.121026
 Co 0.38762 0.96488 0.28329   1.106596
 Co 0.92178 0.5609 0.3211   1.121026
 Co 0.11238 0.46488 0.21671   1.106596
 Co 0.42178 0.4391 0.1789   1.121026
 Co 0.61238 0.53512 0.28329   1.106596
 Co 0.07822 0.9391 0.3211   1.121026
 Co 0.88762 0.03512 0.21671   1.106596
 Co 0.5 0.75 0.81263   1.133257
 Co 0.0 0.25 0.68737   1.133257
 Co 0.5 0.25 0.18737   1.133257
 Co 0.0 0.75 0.31263   1.133257
 Co 0.5 0.0 0.0   1.135621
 Co 0.0 0.5 0.5   1.135621
 Co 0.5 0.5 0.0   1.135621
 Co 0.0 0.0 0.5   1.135621
 H 0.124 0.985 0.955   0.012146
 H 0.667 0.8678 0.966   0.008347
 H 0.205 0.7609 0.8117   0.012604
 H 0.259 0.0053 0.6335   0.011633
 H 0.712 0.879 0.678   0.014875
 H 0.531 0.142 0.846   0.00152
 H 0.376 0.485 0.545   0.012146
 H 0.833 0.3678 0.534   0.008347
 H 0.295 0.2609 0.6883   0.012605
 H 0.241 0.5053 0.8665   0.011633
 H 0.788 0.379 0.822   0.014875
 H 0.969 0.642 0.654   0.001521
 H 0.876 0.515 0.955   0.012146
 H 0.333 0.6322 0.966   0.008346
 H 0.795 0.7391 0.8117   0.012604
 H 0.741 0.4947 0.6335   0.011633
 H 0.288 0.621 0.678   0.014875
 H 0.469 0.358 0.846   0.001522
 H 0.624 0.015 0.545   0.012146
 H 0.167 0.1322 0.534   0.008346
 H 0.705 0.2391 0.6883   0.012604
 H 0.759 0.9947 0.8665   0.011633
 H 0.212 0.121 0.822   0.014875
 H 0.031 0.858 0.654   0.001522
 H 0.876 0.015 0.045   0.012147
 H 0.333 0.1322 0.034   0.008346
 H 0.795 0.2391 0.1883   0.012604
 H 0.741 0.9947 0.3665   0.011633
 H 0.288 0.121 0.322   0.014874
 H 0.469 0.858 0.154   0.00152
 H 0.624 0.515 0.455   0.012147
 H 0.167 0.6322 0.466   0.008346
 H 0.705 0.7391 0.3117   0.012605
 H 0.759 0.4947 0.1335   0.011633
 H 0.212 0.621 0.178   0.014874
 H 0.031 0.358 0.346   0.001521
 H 0.124 0.485 0.045   0.012147
 H 0.667 0.3678 0.034   0.008346
 H 0.205 0.2609 0.1883   0.012604
 H 0.259 0.5053 0.3665   0.011633
 H 0.712 0.379 0.322   0.014875
 H 0.531 0.642 0.154   0.001522
 H 0.376 0.985 0.455   0.012147
 H 0.833 0.8678 0.466   0.008346
 H 0.295 0.7609 0.3117   0.012604
 H 0.241 0.0053 0.1335   0.011633
 H 0.788 0.879 0.178   0.014874
 H 0.969 0.142 0.346   0.001522
 C 0.5158 0.0964 0.8614   0.708423
 C 0.2129 0.9877 0.94   0.685135
 C 0.6032 0.8634 0.928   0.700978
 C 0.2235 0.8117 0.8079   0.690716
 C 0.3309 0.000100000000003 0.67066   0.669661
 C 0.637 0.8668 0.718   0.644995
 C 0.9842 0.5964 0.6386   0.708423
 C 0.2871 0.4877 0.56   0.685135
 C 0.8968 0.3634 0.572   0.700978
 C 0.2765 0.3117 0.6921   0.690716
 C 0.1691 0.5001 0.82934   0.669661
 C 0.863 0.3668 0.782   0.644995
 C 0.4842 0.4036 0.8614   0.708422
 C 0.7871 0.5123 0.94   0.685135
 C 0.3968 0.6366 0.928   0.700978
 C 0.7765 0.6883 0.8079   0.690715
 C 0.6691 0.4999 0.67066   0.669662
 C 0.363 0.6332 0.718   0.644995
 C 0.0158 0.9036 0.6386   0.708422
 C 0.7129 0.0123 0.56   0.685135
 C 0.1032 0.1366 0.572   0.700978
 C 0.7235 0.1883 0.6921   0.690715
 C 0.8309 0.9999 0.82934   0.669662
 C 0.137 0.1332 0.782   0.644995
 C 0.4842 0.9036 0.1386   0.708423
 C 0.7871 0.0123 0.06   0.685134
 C 0.3968 0.1366 0.072   0.700978
 C 0.7765 0.1883 0.1921   0.690716
 C 0.6691 0.9999 0.32934   0.66966
 C 0.363 0.1332 0.282   0.644995
 C 0.0158 0.4036 0.3614   0.708422
 C 0.7129 0.5123 0.44   0.685134
 C 0.1032 0.6366 0.428   0.700978
 C 0.7235 0.6883 0.3079   0.690715
 C 0.8309 0.4999 0.17066   0.66966
 C 0.137 0.6332 0.218   0.644994
 C 0.5158 0.5964 0.1386   0.708422
 C 0.2129 0.4877 0.06   0.685134
 C 0.6032 0.3634 0.072   0.700978
 C 0.2235 0.3117 0.1921   0.690715
 C 0.3309 0.5001 0.32934   0.669662
 C 0.637 0.3668 0.282   0.644995
 C 0.9842 0.0964 0.3614   0.708422
 C 0.2871 0.9877 0.44   0.685134
 C 0.8968 0.8634 0.428   0.700978
 C 0.2765 0.8117 0.3079   0.690715
 C 0.1691 0.000100000000003 0.17066   0.669662
 C 0.863 0.8668 0.218   0.644995
 O 0.5056 0.04526 0.81485   -0.679749
 O 0.4995 0.09028 0.92815   -0.602299
 O 0.2924 0.99131 0.99265   -0.582803
 O 0.2447 0.97786 0.87313   -0.680597
 O 0.5265 0.91933 0.91618   -0.684232
 O 0.6103 0.80668 0.89168   -0.58453
 O 0.3463 0.83168 0.81364   -0.662176
 O 0.3019 0.96806 0.73037   -0.653111
 O 0.4425 0.0257 0.65292   -0.577649
 O 0.5849 0.92364 0.74869   -0.670298
 O 0.6115 0.80211 0.73154   -0.560364
 O 0.1245 0.85285 0.79711   -0.585288
 O 0.9944 0.54526 0.68515   -0.679749
 O 0.000500000000002 0.59028 0.57185   -0.602299
 O 0.2076 0.49131 0.50735   -0.582803
 O 0.2553 0.47786 0.62687   -0.680597
 O 0.9735 0.41933 0.58382   -0.684232
 O 0.8897 0.30668 0.60832   -0.58453
 O 0.1537 0.33168 0.68636   -0.662176
 O 0.1981 0.46806 0.76963   -0.653111
 O 0.0575 0.5257 0.84708   -0.577649
 O 0.9151 0.42364 0.75131   -0.670298
 O 0.8885 0.30211 0.76846   -0.560364
 O 0.3755 0.35285 0.70289   -0.585288
 O 0.4944 0.45474 0.81485   -0.679749
 O 0.5005 0.40972 0.92815   -0.602299
 O 0.7076 0.50869 0.99265   -0.582803
 O 0.7553 0.52214 0.87313   -0.680597
 O 0.4735 0.58067 0.91618   -0.684232
 O 0.3897 0.69332 0.89168   -0.58453
 O 0.6537 0.66832 0.81364   -0.662176
 O 0.6981 0.53194 0.73037   -0.653111
 O 0.5575 0.4743 0.65292   -0.577649
 O 0.4151 0.57636 0.74869   -0.670298
 O 0.3885 0.69789 0.73154   -0.560364
 O 0.8755 0.64715 0.79711   -0.585287
 O 0.0056 0.95474 0.68515   -0.679749
 O 0.9995 0.90972 0.57185   -0.602299
 O 0.7924 0.00869 0.50735   -0.582803
 O 0.7447 0.02214 0.62687   -0.680597
 O 0.0265 0.08067 0.58382   -0.684232
 O 0.1103 0.19332 0.60832   -0.58453
 O 0.8463 0.16832 0.68636   -0.662176
 O 0.8019 0.03194 0.76963   -0.653111
 O 0.9425 0.9743 0.84708   -0.577649
 O 0.0849 0.07636 0.75131   -0.670298
 O 0.1115 0.19789 0.76846   -0.560364
 O 0.6245 0.14715 0.70289   -0.585287
 O 0.4944 0.95474 0.18515   -0.679749
 O 0.5005 0.90972 0.07185   -0.602299
 O 0.7076 0.00869 0.00735   -0.582803
 O 0.7553 0.02214 0.12687   -0.680597
 O 0.4735 0.08067 0.08382   -0.684232
 O 0.3897 0.19332 0.10832   -0.58453
 O 0.6537 0.16832 0.18636   -0.662176
 O 0.6981 0.03194 0.26963   -0.653111
 O 0.5575 0.9743 0.34708   -0.577649
 O 0.4151 0.07636 0.25131   -0.670298
 O 0.3885 0.19789 0.26846   -0.560364
 O 0.8755 0.14715 0.20289   -0.585288
 O 0.0056 0.45474 0.31485   -0.679749
 O 0.9995 0.40972 0.42815   -0.602299
 O 0.7924 0.50869 0.49265   -0.582803
 O 0.7447 0.52214 0.37313   -0.680597
 O 0.0265 0.58067 0.41618   -0.684232
 O 0.1103 0.69332 0.39168   -0.58453
 O 0.8463 0.66832 0.31364   -0.662176
 O 0.8019 0.53194 0.23037   -0.653111
 O 0.9425 0.4743 0.15292   -0.577649
 O 0.0849 0.57636 0.24869   -0.670298
 O 0.1115 0.69789 0.23154   -0.560364
 O 0.6245 0.64715 0.29711   -0.585288
 O 0.5056 0.54526 0.18515   -0.679749
 O 0.4995 0.59028 0.07185   -0.602299
 O 0.2924 0.49131 0.00735   -0.582803
 O 0.2447 0.47786 0.12687   -0.680597
 O 0.5265 0.41933 0.08382   -0.684232
 O 0.6103 0.30668 0.10832   -0.58453
 O 0.3463 0.33168 0.18636   -0.662176
 O 0.3019 0.46806 0.26963   -0.653111
 O 0.4425 0.5257 0.34708   -0.577648
 O 0.5849 0.42364 0.25131   -0.670298
 O 0.6115 0.30211 0.26846   -0.560364
 O 0.1245 0.35285 0.20289   -0.585287
 O 0.9944 0.04526 0.31485   -0.679749
 O 0.000500000000002 0.09028 0.42815   -0.602299
 O 0.2076 0.99131 0.49265   -0.582803
 O 0.2553 0.97786 0.37313   -0.680597
 O 0.9735 0.91933 0.41618   -0.684232
 O 0.8897 0.80668 0.39168   -0.58453
 O 0.1537 0.83168 0.31364   -0.662176
 O 0.1981 0.96806 0.23037   -0.653111
 O 0.0575 0.0257 0.15292   -0.577648
 O 0.9151 0.92364 0.24869   -0.670298
 O 0.8885 0.80211 0.23154   -0.560364
 O 0.3755 0.85285 0.29711   -0.585287
