{'_ref': 'TBD', '_srcid': 'CAKYAQ_clean', 'submitters': [{'name': 'Dalar Nazarian Jeff Camp and David Sholl', 'email': 'dalar@gatech.edu jcamp6@gatech.edu'}], '_method': 'VASP DFT with PBE;DDEC'}
data_Mn3H26C24N6O19
_symmetry_space_group_name_H-M   'P 1'
_cell_length_a   9.55649998
_cell_length_b   12.47060000
_cell_length_c   22.75710000
_cell_angle_alpha   90.00000000
_cell_angle_beta   101.59400107
_cell_angle_gamma   90.00000000
_symmetry_Int_Tables_number   1
_chemical_formula_structural   Mn3H26C24N6O19
_chemical_formula_sum   'Mn6 H52 C48 N12 O38'
_cell_volume   2656.74740777
_cell_formula_units_Z   2
loop_
 _symmetry_equiv_pos_site_id
 _symmetry_equiv_pos_as_xyz
  1  'x, y, z'
loop_
 _atom_site_label
 _atom_site_fract_x
 _atom_site_fract_y
 _atom_site_fract_z
 _atom_site_charge
 Mn 0.94217 0.19349 0.30921   1.204392
 Mn 0.61508 0.35649 0.28271   1.180393
 Mn 0.21739 0.33013 0.27397   1.138282
 Mn 0.44217 0.80651 0.80921   1.204392
 Mn 0.11508 0.64351 0.78271   1.180393
 Mn 0.71739 0.66987 0.77397   1.138282
 H 0.4162 0.1942 0.2595   0.456131
 H 0.4431 0.219 0.3194   0.449761
 H 0.1493 0.9532 0.1383   0.081835
 H 0.2009 0.8813 0.197   0.075011
 H 0.9776 0.0382 0.1862   0.149313
 H 0.0337 0.9683 0.245   0.147025
 H 0.7458 0.5708 0.1861   0.085309
 H 0.8265 0.6376 0.243   0.091778
 H 0.0441 0.5498 0.2368   0.152179
 H 0.9618 0.4819 0.1806   0.148279
 H 0.7221 0.87 0.0018   0.088948
 H 0.634 0.7642 0.0114   0.07295
 H 0.8905 0.7698 0.9659   0.151079
 H 0.8217 0.6603 0.9829   0.151528
 H 0.647 0.1601 0.4953   0.074667
 H 0.7258 0.0509 0.4837   0.098457
 H 0.8396 0.2552 0.4598   0.158252
 H 0.8867 0.1415 0.4378   0.139812
 H 0.0398 0.3623 0.686   0.070362
 H 0.9159 0.4058 0.6336   0.091765
 H 0.8652 0.31 0.7397   0.157619
 H 0.7456 0.3623 0.6881   0.135542
 H 0.1966 0.9791 0.6087   0.079069
 H 0.2215 0.0263 0.6755   0.070178
 H 0.034 0.8615 0.6259   0.148113
 H 0.0086 0.924 0.684   0.154365
 H 0.9162 0.8058 0.7595   0.456132
 H 0.9431 0.781 0.8194   0.449761
 H 0.6493 0.0468 0.6383   0.081835
 H 0.7009 0.1187 0.697   0.075011
 H 0.4776 0.9618 0.6862   0.149313
 H 0.5337 0.0317 0.745   0.147025
 H 0.2458 0.4292 0.6861   0.085309
 H 0.3265 0.3624 0.743   0.091777
 H 0.5441 0.4502 0.7368   0.152179
 H 0.4618 0.5181 0.6806   0.148279
 H 0.2221 0.13 0.5018   0.088947
 H 0.134 0.2358 0.5114   0.07295
 H 0.3905 0.2302 0.4659   0.151078
 H 0.3217 0.3397 0.4829   0.151527
 H 0.147 0.8399 0.9953   0.074666
 H 0.2258 0.9491 0.9837   0.098456
 H 0.3396 0.7448 0.9598   0.158252
 H 0.3867 0.8585 0.9378   0.139812
 H 0.5398 0.6377 0.186   0.070362
 H 0.4159 0.5942 0.1336   0.091765
 H 0.3652 0.69 0.2397   0.157618
 H 0.2456 0.6377 0.1881   0.135542
 H 0.6966 0.0209 0.1087   0.079067
 H 0.7215 0.9737 0.1755   0.070178
 H 0.534 0.1385 0.1259   0.148113
 H 0.5086 0.076 0.184   0.154365
 C 0.97702 0.7623 0.18842   0.620695
 C 0.79154 0.6949 0.10754   0.618179
 C 0.92784 0.8552 0.09264   0.608056
 C 0.1176 0.9185 0.1725   0.076764
 C 0.0634 0.0041 0.2107   -0.410697
 C 0.1682 0.0892 0.2341   0.779142
 C 0.8383 0.6037 0.205   0.086986
 C 0.9512 0.5172 0.2184   -0.428208
 C 0.90924 0.434 0.26114   0.821495
 C 0.73097 0.793 0.01247   0.081266
 C 0.7991 0.734 0.9679   -0.396345
 C 0.71071 0.7272 0.90531   0.794804
 C 0.8267 0.2295 0.586   0.626972
 C 0.03791 0.1717 0.65761   0.633307
 C 0.94567 0.0653 0.56777   0.618304
 C 0.74077 0.1279 0.49357   0.083413
 C 0.8039 0.1837 0.4449   -0.415375
 C 0.70261 0.1969 0.38781   0.767582
 C 0.9394 0.3506 0.6653   0.084483
 C 0.8469 0.3672 0.7089   -0.382631
 C 0.8736 0.4759 0.7394   0.746301
 C 0.1483 0.9981 0.6419   0.097271
 C 0.0828 0.9011 0.6619   -0.407005
 C 0.1824 0.8245 0.7013   0.788083
 C 0.47702 0.2377 0.68842   0.620695
 C 0.29154 0.3051 0.60754   0.618179
 C 0.42784 0.1448 0.59264   0.608056
 C 0.6176 0.0815 0.6725   0.076764
 C 0.5634 0.9959 0.7107   -0.410697
 C 0.6682 0.9108 0.7341   0.779142
 C 0.3383 0.3963 0.705   0.086986
 C 0.4512 0.4828 0.7184   -0.428208
 C 0.40924 0.566 0.76114   0.821495
 C 0.23097 0.207 0.51247   0.081266
 C 0.2991 0.266 0.4679   -0.396345
 C 0.21071 0.2728 0.40531   0.794804
 C 0.3267 0.7705 0.086   0.626972
 C 0.53791 0.8283 0.15761   0.633307
 C 0.44567 0.9347 0.06777   0.618304
 C 0.24077 0.8721 0.99357   0.083413
 C 0.3039 0.8163 0.9449   -0.415375
 C 0.20261 0.8031 0.88781   0.767582
 C 0.4394 0.6494 0.1653   0.084483
 C 0.3469 0.6328 0.2089   -0.382631
 C 0.3736 0.5241 0.2394   0.746301
 C 0.6483 0.0019 0.1419   0.097271
 C 0.5828 0.0989 0.1619   -0.407005
 C 0.6824 0.1755 0.2013   0.788083
 N 0.00553 0.8403 0.15003   -0.314771
 N 0.87659 0.6863 0.16469   -0.324343
 N 0.8187 0.7807 0.0738   -0.327857
 N 0.83895 0.1394 0.55295   -0.319569
 N 0.92879 0.2442 0.63659   -0.335925
 N 0.04043 0.082 0.62143   -0.343537
 N 0.50553 0.1597 0.65003   -0.314771
 N 0.37659 0.3137 0.66469   -0.324343
 N 0.3187 0.2193 0.5738   -0.327857
 N 0.33895 0.8606 0.05295   -0.319569
 N 0.42879 0.7558 0.13659   -0.335925
 N 0.54043 0.918 0.12143   -0.343537
 O 0.03825 0.7576 0.24025   -0.502468
 O 0.6977 0.6319 0.0886   -0.510099
 O 0.95054 0.9286 0.06044   -0.498793
 O 0.12837 0.1614 0.26737   -0.720642
 O 0.28978 0.0864 0.22148   -0.604244
 O 0.79958 0.4485 0.28098   -0.612414
 O 0.99013 0.3522 0.27323   -0.704009
 O 0.76118 0.6715 0.86888   -0.63116
 O 0.59233 0.7774 0.89343   -0.665588
 O 0.73152 0.2941 0.56972   -0.524882
 O 0.12362 0.1864 0.70132   -0.488927
 O 0.96068 0.9892 0.53558   -0.514577
 O 0.74941 0.2361 0.34321   -0.751014
 O 0.57408 0.1718 0.38538   -0.57946
 O 0.98256 0.5269 0.73186   -0.620934
 O 0.78452 0.509 0.76992   -0.630459
 O 0.29797 0.8628 0.73017   -0.659301
 O 0.13974 0.7308 0.70544   -0.643954
 O 0.42739 0.2458 0.28439   -0.866305
 O 0.53825 0.2424 0.74025   -0.502468
 O 0.1977 0.3681 0.5886   -0.510099
 O 0.45054 0.0714 0.56044   -0.498793
 O 0.62837 0.8386 0.76737   -0.720642
 O 0.78978 0.9136 0.72148   -0.604244
 O 0.29958 0.5515 0.78098   -0.612414
 O 0.49013 0.6478 0.77323   -0.704009
 O 0.26118 0.3285 0.36888   -0.63116
 O 0.09233 0.2226 0.39343   -0.665588
 O 0.23152 0.7059 0.06972   -0.524882
 O 0.62362 0.8136 0.20132   -0.488927
 O 0.46068 0.0108 0.03558   -0.514577
 O 0.24941 0.7639 0.84321   -0.751014
 O 0.07408 0.8282 0.88538   -0.57946
 O 0.48256 0.4731 0.23186   -0.620934
 O 0.28452 0.491 0.26992   -0.630459
 O 0.79797 0.1372 0.23017   -0.659301
 O 0.63974 0.2692 0.20544   -0.643954
 O 0.92739 0.7542 0.78439   -0.866305
