{'_ref': 'TBD', '_srcid': 'CAKYAQ_clean', 'submitters': [{'name': 'Dalar Nazarian Jeff Camp and David Sholl', 'email': 'dalar@gatech.edu jcamp6@gatech.edu'}], '_method': 'VASP DFT with PBE;DDEC'}
data_CaH8C14SO6
_symmetry_space_group_name_H-M   'P 1'
_cell_length_a   5.54850000
_cell_length_b   11.87830016
_cell_length_c   22.79820000
_cell_angle_alpha   101.53499952
_cell_angle_beta   90.00000000
_cell_angle_gamma   90.00000000
_symmetry_Int_Tables_number   1
_chemical_formula_structural   CaH8C14SO6
_chemical_formula_sum   'Ca4 H32 C56 S4 O24'
_cell_volume   1472.20772807
_cell_formula_units_Z   4
loop_
 _symmetry_equiv_pos_site_id
 _symmetry_equiv_pos_as_xyz
  1  'x, y, z'
loop_
 _atom_site_label
 _atom_site_fract_x
 _atom_site_fract_y
 _atom_site_fract_z
 _atom_site_charge
 Ca 0.27084 0.89653 0.45683   1.593431
 Ca 0.77084 0.60347 0.04317   1.593431
 Ca 0.72916 0.10347 0.54317   1.593426
 Ca 0.22916 0.39653 0.95683   1.593426
 H 0.0273 0.6556 0.5318   0.094748
 H 0.3811 0.7814 0.5894   0.113969
 H 0.9344 0.4831 0.5591   0.099765
 H 0.2912 0.6109 0.6195   0.100027
 H 0.9211 0.3253 0.6677   0.102427
 H 0.2869 0.4813 0.7147   0.100089
 H 0.0032 0.3284 0.768   0.086136
 H 0.3664 0.4782 0.8145   0.106545
 H 0.5273 0.8444 0.9682   0.094748
 H 0.8811 0.7186 0.9106   0.113969
 H 0.4344 0.0169 0.9409   0.099765
 H 0.7912 0.8891 0.8805   0.100027
 H 0.4211 0.1747 0.8323   0.102427
 H 0.7869 0.0187 0.7853   0.100089
 H 0.5032 0.1716 0.732   0.086136
 H 0.8664 0.0218 0.6855   0.106545
 H 0.9727 0.3444 0.4682   0.094748
 H 0.6189 0.2186 0.4106   0.113969
 H 0.0656 0.5169 0.4409   0.099765
 H 0.7088 0.3891 0.3805   0.100027
 H 0.0789 0.6747 0.3323   0.102428
 H 0.7131 0.5187 0.2853   0.100089
 H 0.9968 0.6716 0.232   0.086136
 H 0.6336 0.5218 0.1855   0.106545
 H 0.4727 0.1556 0.0318   0.094748
 H 0.1189 0.2814 0.0894   0.113969
 H 0.5656 0.9831 0.0591   0.099765
 H 0.2088 0.1109 0.1195   0.100027
 H 0.5789 0.8253 0.1677   0.102428
 H 0.2131 0.9813 0.2147   0.100089
 H 0.4968 0.8284 0.268   0.086136
 H 0.1336 0.9782 0.3145   0.106545
 C 0.7715 0.8428 0.53451   0.759388
 C 0.7115 0.73459 0.55617   -0.120868
 C 0.8774 0.6459 0.54835   -0.034136
 C 0.4919 0.7215 0.58312   -0.045377
 C 0.8231 0.5428 0.56489   -0.030658
 C 0.437 0.6194 0.60071   -0.041226
 C 0.6015 0.53025 0.59006   -0.210201
 C 0.5949 0.40178 0.6823   -0.221972
 C 0.8104 0.3562 0.69715   -0.019626
 C 0.429 0.4491 0.72543   -0.039744
 C 0.8579 0.3576 0.75715   -0.046482
 C 0.4778 0.4479 0.7851   -0.049831
 C 0.6913 0.40185 0.80096   -0.116104
 C 0.7384 0.39402 0.8656   0.777227
 C 0.2715 0.6572 0.96549   0.759388
 C 0.2115 0.76541 0.94383   -0.120868
 C 0.3774 0.8541 0.95165   -0.034136
 C 0.9919 0.7785 0.91688   -0.045377
 C 0.3231 0.9572 0.93511   -0.030658
 C 0.937 0.8806 0.89929   -0.041226
 C 0.1015 0.96975 0.90994   -0.210201
 C 0.0949 0.09822 0.8177   -0.221972
 C 0.3104 0.1438 0.80285   -0.019626
 C 0.929 0.0509 0.77457   -0.039745
 C 0.3579 0.1424 0.74285   -0.046482
 C 0.9778 0.0521 0.7149   -0.049831
 C 0.1913 0.09815 0.69904   -0.116104
 C 0.2384 0.10598 0.6344   0.777227
 C 0.2285 0.1572 0.46549   0.759388
 C 0.2885 0.26541 0.44383   -0.120868
 C 0.1226 0.3541 0.45165   -0.034136
 C 0.5081 0.2785 0.41688   -0.045377
 C 0.1769 0.4572 0.43511   -0.030658
 C 0.563 0.3806 0.39929   -0.041226
 C 0.3985 0.46975 0.40994   -0.210201
 C 0.4051 0.59822 0.3177   -0.221972
 C 0.1896 0.6438 0.30285   -0.019626
 C 0.571 0.5509 0.27457   -0.039744
 C 0.1421 0.6424 0.24285   -0.046482
 C 0.5222 0.5521 0.2149   -0.049831
 C 0.3087 0.59815 0.19904   -0.116104
 C 0.2616 0.60598 0.1344   0.777227
 C 0.7285 0.3428 0.03451   0.759388
 C 0.7885 0.23459 0.05617   -0.120868
 C 0.6226 0.1459 0.04835   -0.034136
 C 0.0081 0.2215 0.08312   -0.045377
 C 0.6769 0.0428 0.06489   -0.030658
 C 0.063 0.1194 0.10071   -0.041226
 C 0.8985 0.03025 0.09006   -0.210201
 C 0.9051 0.90178 0.1823   -0.221972
 C 0.6896 0.8562 0.19715   -0.019626
 C 0.071 0.9491 0.22543   -0.039745
 C 0.6421 0.8576 0.25715   -0.046482
 C 0.0222 0.9479 0.2851   -0.049831
 C 0.8087 0.90185 0.30096   -0.116104
 C 0.7616 0.89402 0.3656   0.777227
 S 0.52162 0.39565 0.6064   1.154897
 S 0.02162 0.10435 0.8936   1.154897
 S 0.47838 0.60435 0.3936   1.154897
 S 0.97838 0.89565 0.1064   1.154897
 O 0.9884 0.86426 0.52738   -0.706993
 O 0.6775 0.3115 0.57006   -0.629302
 O 0.2653 0.38333 0.60016   -0.533226
 O 0.5584 0.39514 0.89789   -0.733098
 O 0.9523 0.38495 0.8805   -0.72746
 O 0.599 0.90677 0.52579   -0.782345
 O 0.4884 0.63574 0.97262   -0.706993
 O 0.1775 0.1885 0.92994   -0.629302
 O 0.7653 0.11667 0.89984   -0.533226
 O 0.0584 0.10486 0.60211   -0.733098
 O 0.4523 0.11505 0.6195   -0.72746
 O 0.099 0.59323 0.97421   -0.782345
 O 0.0116 0.13574 0.47262   -0.706993
 O 0.3225 0.6885 0.42994   -0.629302
 O 0.7347 0.61667 0.39984   -0.533226
 O 0.4416 0.60486 0.10211   -0.733099
 O 0.0477 0.61505 0.1195   -0.72746
 O 0.401 0.09323 0.47421   -0.782345
 O 0.5116 0.36426 0.02738   -0.706993
 O 0.8225 0.8115 0.07006   -0.629302
 O 0.2347 0.88333 0.10016   -0.533226
 O 0.9416 0.89514 0.39789   -0.733099
 O 0.5477 0.88495 0.3805   -0.72746
 O 0.901 0.40677 0.02579   -0.782345
