{'_ref': 'TBD', '_srcid': 'CAKYAQ_clean', 'submitters': [{'name': 'Dalar Nazarian Jeff Camp and David Sholl', 'email': 'dalar@gatech.edu jcamp6@gatech.edu'}], '_method': 'VASP DFT with PBE;DDEC'}
data_CaH8C14SO6
_symmetry_space_group_name_H-M   'P 1'
_cell_length_a   5.54990000
_cell_length_b   11.73610006
_cell_length_c   22.81900000
_cell_angle_alpha   100.99899806
_cell_angle_beta   90.00000000
_cell_angle_gamma   90.00000000
_symmetry_Int_Tables_number   1
_chemical_formula_structural   CaH8C14SO6
_chemical_formula_sum   'Ca4 H32 C56 S4 O24'
_cell_volume   1458.9943911
_cell_formula_units_Z   4
loop_
 _symmetry_equiv_pos_site_id
 _symmetry_equiv_pos_as_xyz
  1  'x, y, z'
loop_
 _atom_site_label
 _atom_site_fract_x
 _atom_site_fract_y
 _atom_site_fract_z
 _atom_site_charge
 Ca 0.25892 0.86429 0.77776   1.592118
 Ca 0.75892 0.63571 0.72224   1.592107
 Ca 0.74108 0.13571 0.22224   1.592118
 Ca 0.24108 0.36429 0.27776   1.592107
 H 0.6223 0.2699 0.0956   0.113815
 H 0.7059 0.229 0.9941   0.099015
 H 0.0552 0.0817 0.9628   0.097384
 H 0.9708 0.1266 0.0638   0.094583
 H 0.7011 0.3112 0.8825   0.097915
 H 0.6206 0.4592 0.8313   0.106546
 H 0.9806 0.3156 0.7809   0.086454
 H 0.0654 0.1628 0.8288   0.101863
 H 0.1223 0.2301 0.4044   0.113815
 H 0.2059 0.271 0.5059   0.099015
 H 0.5552 0.4183 0.5372   0.097383
 H 0.4708 0.3734 0.4362   0.094583
 H 0.2011 0.1888 0.6175   0.097915
 H 0.1206 0.0408 0.6687   0.106546
 H 0.4806 0.1844 0.7191   0.086454
 H 0.5654 0.3372 0.6712   0.101863
 H 0.3777 0.7301 0.9044   0.113815
 H 0.2941 0.771 0.0059   0.099015
 H 0.9448 0.9183 0.0372   0.097384
 H 0.0292 0.8734 0.9362   0.094583
 H 0.2989 0.6888 0.1175   0.097915
 H 0.3794 0.5408 0.1687   0.106546
 H 0.0194 0.6844 0.2191   0.086454
 H 0.9346 0.8372 0.1712   0.101863
 H 0.8777 0.7699 0.5956   0.113815
 H 0.7941 0.729 0.4941   0.099015
 H 0.4448 0.5817 0.4628   0.097384
 H 0.5292 0.6266 0.5638   0.094583
 H 0.7989 0.8112 0.3825   0.097915
 H 0.8794 0.9592 0.3313   0.106546
 H 0.5194 0.8156 0.2809   0.086454
 H 0.4346 0.6628 0.3288   0.101863
 C 0.2361 0.2229 0.15514   0.7567
 C 0.2897 0.1997 0.08968   -0.110053
 C 0.5089 0.2315 0.06887   -0.050862
 C 0.5599 0.2065 0.00839   -0.036792
 C 0.3917 0.1479 0.96959   -0.211971
 C 0.1697 0.1188 0.98955   -0.028023
 C 0.1203 0.1455 0.04991   -0.038664
 C 0.3923 0.2223 0.85909   -0.228333
 C 0.5584 0.3114 0.86113   -0.031695
 C 0.5089 0.4001 0.8311   -0.057792
 C 0.2937 0.4015 0.80058   -0.108411
 C 0.1269 0.3135 0.80052   -0.047601
 C 0.176 0.2225 0.82939   -0.017116
 C 0.2445 0.4951 0.76489   0.770252
 C 0.7361 0.2771 0.34486   0.7567
 C 0.7897 0.3003 0.41032   -0.110053
 C 0.0089 0.2685 0.43113   -0.050862
 C 0.0599 0.2935 0.49161   -0.036792
 C 0.8917 0.3521 0.53041   -0.211971
 C 0.6697 0.3812 0.51045   -0.028023
 C 0.6203 0.3545 0.45009   -0.038664
 C 0.8923 0.2777 0.64091   -0.228333
 C 0.0584 0.1886 0.63887   -0.031695
 C 0.0089 0.0999 0.6689   -0.057792
 C 0.7937 0.0985 0.69942   -0.108411
 C 0.6269 0.1865 0.69948   -0.047601
 C 0.676 0.2775 0.67061   -0.017116
 C 0.7445 0.0049 0.73511   0.770253
 C 0.7639 0.7771 0.84486   0.756701
 C 0.7103 0.8003 0.91032   -0.110053
 C 0.4911 0.7685 0.93113   -0.050862
 C 0.4401 0.7935 0.99161   -0.036792
 C 0.6083 0.8521 0.03041   -0.211971
 C 0.8303 0.8812 0.01045   -0.028023
 C 0.8797 0.8545 0.95009   -0.038664
 C 0.6077 0.7777 0.14091   -0.228333
 C 0.4416 0.6886 0.13887   -0.031695
 C 0.4911 0.5999 0.1689   -0.057792
 C 0.7063 0.5985 0.19942   -0.108411
 C 0.8731 0.6865 0.19948   -0.047601
 C 0.824 0.7775 0.17061   -0.017116
 C 0.7555 0.5049 0.23511   0.770252
 C 0.2639 0.7229 0.65514   0.7567
 C 0.2103 0.6997 0.58968   -0.110053
 C 0.9911 0.7315 0.56887   -0.050862
 C 0.9401 0.7065 0.50839   -0.036792
 C 0.1083 0.6479 0.46959   -0.211971
 C 0.3303 0.6188 0.48955   -0.028023
 C 0.3797 0.6455 0.54991   -0.038664
 C 0.1077 0.7223 0.35909   -0.228333
 C 0.9416 0.8114 0.36113   -0.031695
 C 0.9911 0.9001 0.3311   -0.057792
 C 0.2063 0.9015 0.30058   -0.108411
 C 0.3731 0.8135 0.30052   -0.047601
 C 0.324 0.7225 0.32939   -0.017116
 C 0.2555 0.9951 0.26489   0.770253
 S 0.4661 0.10494 0.89348   1.157181
 S 0.9661 0.39506 0.60652   1.15718
 S 0.5339 0.89506 0.10652   1.157181
 S 0.0339 0.60494 0.39348   1.15718
 O 0.4117 0.23746 0.19088   -0.784866
 O 0.0214 0.23116 0.17178   -0.712836
 O 0.0281 0.51512 0.75567   -0.736833
 O 0.3087 0.00881 0.86962   -0.626194
 O 0.4225 0.54184 0.74633   -0.712512
 O 0.7218 0.08874 0.88972   -0.533269
 O 0.9117 0.26254 0.30912   -0.784865
 O 0.5214 0.26884 0.32822   -0.712835
 O 0.5281 0.98488 0.74433   -0.736834
 O 0.8087 0.49119 0.63038   -0.626193
 O 0.9225 0.95816 0.75367   -0.712512
 O 0.2218 0.41126 0.61028   -0.533269
 O 0.5883 0.76254 0.80912   -0.784867
 O 0.9786 0.76884 0.82822   -0.712836
 O 0.9719 0.48488 0.24433   -0.736833
 O 0.6913 0.99119 0.13038   -0.626194
 O 0.5775 0.45816 0.25367   -0.712512
 O 0.2782 0.91126 0.11028   -0.533269
 O 0.0883 0.73746 0.69088   -0.784866
 O 0.4786 0.73116 0.67178   -0.712835
 O 0.4719 0.01512 0.25567   -0.736834
 O 0.1913 0.50881 0.36962   -0.626193
 O 0.0775 0.04184 0.24633   -0.712513
 O 0.7782 0.58874 0.38972   -0.533269
