{'_ref': 'TBD', '_srcid': 'CAKYAQ_clean', 'submitters': [{'name': 'Dalar Nazarian Jeff Camp and David Sholl', 'email': 'dalar@gatech.edu jcamp6@gatech.edu'}], '_method': 'VASP DFT with PBE;DDEC'}
data_CaH3C7NO4
_symmetry_space_group_name_H-M   'P 1'
_cell_length_a   12.05010019
_cell_length_b   13.96379970
_cell_length_c   14.70730000
_cell_angle_alpha   98.25700182
_cell_angle_beta   111.86299923
_cell_angle_gamma   107.78500029
_symmetry_Int_Tables_number   1
_chemical_formula_structural   CaH3C7NO4
_chemical_formula_sum   'Ca6 H18 C42 N6 O24'
_cell_volume   2092.18207984
_cell_formula_units_Z   6
loop_
 _symmetry_equiv_pos_site_id
 _symmetry_equiv_pos_as_xyz
  1  'x, y, z'
loop_
 _atom_site_label
 _atom_site_fract_x
 _atom_site_fract_y
 _atom_site_fract_z
 _atom_site_charge
 Ca 0.7008 0.58044 0.57721   1.544517
 Ca 0.46179 0.93829 0.13771   1.548988
 Ca 0.2992 0.41956 0.42279   1.544514
 Ca 0.53821 0.06171 0.86229   1.548988
 Ca 0.0 0.0 0.5   1.707328
 Ca 0.0 0.5 0.0   1.708917
 H 0.9635 0.7936 0.6206   0.048398
 H 0.5095 0.6034 0.3666   0.06732
 H 0.9334 0.6495 0.8232   0.049524
 H 0.2539 0.9045 0.9043   0.077656
 H 0.6754 0.8669 0.3086   0.049176
 H 0.3015 0.7067 0.1523   0.04733
 H 0.5723 0.7977 0.7911   0.09547
 H 0.3112 0.6549 0.8839   0.062382
 H 0.3385 0.4938 0.661   0.047546
 H 0.0365 0.2064 0.3794   0.048398
 H 0.4905 0.3966 0.6334   0.06732
 H 0.0666 0.3505 0.1768   0.049524
 H 0.7461 0.0955 0.0957   0.077656
 H 0.3246 0.1331 0.6914   0.049176
 H 0.6985 0.2933 0.8477   0.04733
 H 0.4277 0.2023 0.2089   0.09547
 H 0.6888 0.3451 0.1161   0.062383
 H 0.6615 0.5062 0.339   0.047547
 C 0.12223 0.86161 0.75603   -0.284325
 C 0.1015 0.7748 0.8816   -0.279923
 C 0.9987 0.78814 0.68671   0.26675
 C 0.3853 0.64082 0.25606   -0.28681
 C 0.5041 0.65253 0.33042   0.121282
 C 0.6148 0.7376 0.35077   -0.280861
 C 0.9807 0.70418 0.80618   0.275965
 C 0.1729 0.8553 0.85559   0.120534
 C 0.7446 0.75566 0.43424   0.847252
 C 0.5313 0.63339 0.64668   0.736221
 C 0.4482 0.74227 0.85135   -0.263775
 C 0.4658 0.64348 0.7143   -0.25205
 C 0.6015 0.80923 0.29502   0.274307
 C 0.3811 0.71512 0.20325   0.272797
 C 0.1968 0.94164 0.71908   0.848192
 C 0.4923 0.84198 0.93334   0.792927
 C 0.2627 0.55182 0.23577   0.850296
 C 0.15 0.7613 0.98811   0.847023
 C 0.5067 0.73801 0.78634   0.076152
 C 0.3505 0.6517 0.8404   0.248655
 C 0.3664 0.5571 0.7097   0.235781
 C 0.87777 0.13839 0.24397   -0.284325
 C 0.8985 0.2252 0.1184   -0.279923
 C 0.0013 0.21186 0.31329   0.26675
 C 0.6147 0.35918 0.74394   -0.286811
 C 0.4959 0.34747 0.66958   0.121281
 C 0.3852 0.2624 0.64923   -0.280861
 C 0.0193 0.29582 0.19382   0.275965
 C 0.8271 0.1447 0.14441   0.120533
 C 0.2554 0.24434 0.56576   0.847252
 C 0.4687 0.36661 0.35332   0.736221
 C 0.5518 0.25773 0.14865   -0.263775
 C 0.5342 0.35652 0.2857   -0.25205
 C 0.3985 0.19077 0.70498   0.274307
 C 0.6189 0.28488 0.79675   0.272797
 C 0.8032 0.05836 0.28092   0.848191
 C 0.5077 0.15802 0.06666   0.792926
 C 0.7373 0.44818 0.76423   0.850296
 C 0.85 0.2387 0.01189   0.847022
 C 0.4933 0.26199 0.21366   0.076152
 C 0.6495 0.3483 0.1596   0.248653
 C 0.6336 0.4429 0.2903   0.23578
 N 0.92826 0.71013 0.71031   -0.512748
 N 0.48709 0.79884 0.22257   -0.519442
 N 0.3086 0.55969 0.7713   -0.461569
 N 0.07174 0.28987 0.28969   -0.512748
 N 0.51291 0.20116 0.77743   -0.519442
 N 0.6914 0.44031 0.2287   -0.461569
 O 0.2418 0.83813 0.05908   -0.726518
 O 0.7476 0.68842 0.48166   -0.717176
 O 0.47615 0.55388 0.56963   -0.794852
 O 0.3164 0.98678 0.77356   -0.734834
 O 0.13578 0.95615 0.6362   -0.808532
 O 0.15985 0.53943 0.16311   -0.797283
 O 0.27315 0.49686 0.29543   -0.724045
 O 0.84004 0.83504 0.45082   -0.79857
 O 0.09383 0.67493 0.99774   -0.80279
 O 0.5583 0.92591 0.92593   -0.75202
 O 0.6404 0.70139 0.67092   -0.649927
 O 0.4597 0.832 0.00358   -0.712509
 O 0.7582 0.16187 0.94092   -0.726518
 O 0.2524 0.31158 0.51834   -0.717176
 O 0.52385 0.44612 0.43037   -0.794852
 O 0.6836 0.01322 0.22644   -0.734834
 O 0.86422 0.04385 0.3638   -0.808532
 O 0.84015 0.46057 0.83689   -0.797283
 O 0.72685 0.50314 0.70457   -0.724046
 O 0.15996 0.16496 0.54918   -0.79857
 O 0.90617 0.32507 0.00226   -0.80279
 O 0.4417 0.07409 0.07407   -0.75202
 O 0.3596 0.29861 0.32908   -0.649927
 O 0.5403 0.168 0.99642   -0.712509
