{'_ref': 'TBD', '_srcid': 'CAKYAQ_clean', 'submitters': [{'name': 'Dalar Nazarian Jeff Camp and David Sholl', 'email': 'dalar@gatech.edu jcamp6@gatech.edu'}], '_method': 'VASP DFT with PBE;DDEC'}
data_ZnH3C9O4
_symmetry_space_group_name_H-M   'P 1'
_cell_length_a   15.33009958
_cell_length_b   15.33009969
_cell_length_c   15.33010000
_cell_angle_alpha   102.03799858
_cell_angle_beta   102.03799866
_cell_angle_gamma   102.03800131
_symmetry_Int_Tables_number   1
_chemical_formula_structural   ZnH3C9O4
_chemical_formula_sum   'Zn6 H18 C54 O24'
_cell_volume   3324.24170453
_cell_formula_units_Z   6
loop_
 _symmetry_equiv_pos_site_id
 _symmetry_equiv_pos_as_xyz
  1  'x, y, z'
loop_
 _atom_site_label
 _atom_site_fract_x
 _atom_site_fract_y
 _atom_site_fract_z
 _atom_site_charge
 Zn 0.02298 0.02298 0.41653   1.167779
 Zn 0.41653 0.02298 0.02298   1.167779
 Zn 0.02298 0.41653 0.02298   1.167779
 Zn 0.97702 0.97702 0.58347   1.167779
 Zn 0.97702 0.58347 0.97702   1.167779
 Zn 0.58347 0.97702 0.97702   1.167779
 H 0.3037 0.0142 0.4938   0.124558
 H 0.4938 0.3037 0.0142   0.124558
 H 0.0142 0.4938 0.3037   0.124557
 H 0.9858 0.6963 0.5062   0.124558
 H 0.6963 0.5062 0.9858   0.124558
 H 0.5062 0.9858 0.6963   0.124557
 H 0.6963 0.9858 0.5062   0.124554
 H 0.5062 0.6963 0.9858   0.124554
 H 0.9858 0.5062 0.6963   0.124553
 H 0.0142 0.3037 0.4938   0.124555
 H 0.3037 0.4938 0.0142   0.124552
 H 0.4938 0.0142 0.3037   0.124553
 H 0.25925 0.0 0.74075   0.105605
 H 0.74075 0.25925 0.0   0.105605
 H 0.0 0.74075 0.25925   0.105605
 H 0.74075 0.0 0.25925   0.105605
 H 0.25925 0.74075 0.0   0.105605
 H 0.0 0.25925 0.74075   0.105605
 C 0.26686 0.00639 0.61237   -0.153723
 C 0.32398 0.00806 0.55319   -0.055965
 C 0.16914 0.01267 0.5782   0.739376
 C 0.61237 0.26686 0.00639   -0.153729
 C 0.55319 0.32398 0.00806   -0.055961
 C 0.5782 0.16914 0.01267   0.739377
 C 0.00639 0.61237 0.26686   -0.153725
 C 0.00806 0.55319 0.32398   -0.055963
 C 0.01267 0.5782 0.16914   0.739376
 C 0.99361 0.73314 0.38763   -0.153724
 C 0.99194 0.67602 0.44681   -0.055965
 C 0.98733 0.83086 0.4218   0.739377
 C 0.73314 0.38763 0.99361   -0.153729
 C 0.67602 0.44681 0.99194   -0.055964
 C 0.83086 0.4218 0.98733   0.739377
 C 0.38763 0.99361 0.73314   -0.153725
 C 0.44681 0.99194 0.67602   -0.055963
 C 0.4218 0.98733 0.83086   0.739376
 C 0.73314 0.99361 0.38763   -0.153721
 C 0.67602 0.99194 0.44681   -0.055959
 C 0.83086 0.98733 0.4218   0.739376
 C 0.38763 0.73314 0.99361   -0.153723
 C 0.44681 0.67602 0.99194   -0.055947
 C 0.4218 0.83086 0.98733   0.739376
 C 0.99361 0.38763 0.73314   -0.153723
 C 0.99194 0.44681 0.67602   -0.055957
 C 0.98733 0.4218 0.83086   0.739375
 C 0.00639 0.26686 0.61237   -0.153721
 C 0.00806 0.32398 0.55319   -0.055959
 C 0.01267 0.16914 0.5782   0.739376
 C 0.26686 0.61237 0.00639   -0.153726
 C 0.32398 0.55319 0.00806   -0.055945
 C 0.16914 0.5782 0.01267   0.739376
 C 0.61237 0.00639 0.26686   -0.153723
 C 0.55319 0.00806 0.32398   -0.055957
 C 0.5782 0.01267 0.16914   0.739375
 C 0.41357 0.0 0.58643   0.070936
 C 0.29829 0.0 0.70171   0.010769
 C 0.47598 0.0 0.52403   -0.097103
 C 0.58643 0.41357 0.0   0.070978
 C 0.70171 0.29829 0.0   0.01077
 C 0.52403 0.47597 0.0   -0.097155
 C 0.0 0.58643 0.41357   0.070936
 C 0.0 0.70171 0.29829   0.010769
 C 0.0 0.52402 0.47597   -0.097102
 C 0.58643 0.0 0.41357   0.07088
 C 0.70171 0.0 0.29829   0.010769
 C 0.52402 0.0 0.47597   -0.096776
 C 0.41357 0.58643 0.0   0.070872
 C 0.29829 0.70171 0.0   0.010771
 C 0.47597 0.52402 0.0   -0.096777
 C 0.0 0.41357 0.58643   0.07088
 C 0.0 0.29829 0.70171   0.010769
 C 0.0 0.47598 0.52403   -0.096777
 O 0.14651 0.02603 0.49972   -0.657986
 O 0.11697 0.99754 0.62837   -0.625322
 O 0.49972 0.14651 0.02603   -0.657986
 O 0.62837 0.11697 0.99754   -0.625322
 O 0.02603 0.49972 0.14651   -0.657986
 O 0.99754 0.62837 0.11697   -0.625322
 O 0.97397 0.85349 0.50028   -0.657986
 O 0.00246 0.88303 0.37163   -0.625322
 O 0.85349 0.50028 0.97397   -0.657987
 O 0.88303 0.37163 0.00246   -0.625322
 O 0.50028 0.97397 0.85349   -0.657986
 O 0.37163 0.00246 0.88303   -0.625322
 O 0.85349 0.97397 0.50028   -0.657985
 O 0.88303 0.00246 0.37163   -0.625322
 O 0.50028 0.85349 0.97397   -0.657985
 O 0.37163 0.88303 0.00246   -0.625322
 O 0.97397 0.50028 0.85349   -0.657985
 O 0.00246 0.37163 0.88303   -0.625322
 O 0.02603 0.14651 0.49972   -0.657985
 O 0.99754 0.11697 0.62837   -0.625322
 O 0.14651 0.49972 0.02603   -0.657985
 O 0.11697 0.62837 0.99754   -0.625322
 O 0.49972 0.02603 0.14651   -0.657985
 O 0.62837 0.99754 0.11697   -0.625322
