{'_ref': 'TBD', '_srcid': 'CAKYAQ_clean', 'submitters': [{'name': 'Dalar Nazarian Jeff Camp and David Sholl', 'email': 'dalar@gatech.edu jcamp6@gatech.edu'}], '_method': 'VASP DFT with PBE;DDEC'}
data_Gd2CoH8(C6O5)4
_symmetry_space_group_name_H-M   'P 1'
_cell_length_a   10.76079991
_cell_length_b   11.63509979
_cell_length_c   16.85380000
_cell_angle_alpha   84.96620129
_cell_angle_beta   79.06210224
_cell_angle_gamma   62.45609858
_symmetry_Int_Tables_number   1
_chemical_formula_structural   Gd2CoH8(C6O5)4
_chemical_formula_sum   'Gd4 Co2 H16 C48 O40'
_cell_volume   1836.98601715
_cell_formula_units_Z   2
loop_
 _symmetry_equiv_pos_site_id
 _symmetry_equiv_pos_as_xyz
  1  'x, y, z'
loop_
 _atom_site_label
 _atom_site_fract_x
 _atom_site_fract_y
 _atom_site_fract_z
 _atom_site_charge
 Gd 0.74409 0.17086 0.05143   2.16568
 Gd 0.08505 0.17086 0.44857   2.165295
 Gd 0.25591 0.82914 0.94857   2.16568
 Gd 0.91495 0.82914 0.55143   2.165297
 Co 0.5 0.5 0.0   1.234192
 Co 0.0 0.5 0.5   1.234647
 H 0.6814 0.537 0.8263   0.147216
 H 0.585 0.713 0.191   0.152217
 H 0.9734 0.4142 0.069   0.135002
 H 0.1683 0.472 0.0788   0.137942
 H 0.7816 0.537 0.6737   0.147929
 H 0.702 0.713 0.309   0.151442
 H 0.6124 0.4142 0.431   0.135033
 H 0.3597 0.472 0.4212   0.138288
 H 0.3186 0.463 0.1737   0.147215
 H 0.415 0.287 0.809   0.152217
 H 0.0266 0.5858 0.931   0.135002
 H 0.8317 0.528 0.9212   0.137941
 H 0.2184 0.463 0.3263   0.147928
 H 0.298 0.287 0.691   0.151442
 H 0.3876 0.5858 0.569   0.135033
 H 0.6403 0.528 0.5788   0.138288
 C 0.7877 0.3396 0.815   0.057952
 C 0.739 0.4652 0.7933   -0.146316
 C 0.7709 0.2774 0.8927   0.667624
 C 0.6459 0.6408 0.2173   -0.157664
 C 0.6878 0.5156 0.2012   0.024537
 C 0.6523 0.4534 0.1408   0.712505
 C 0.4521 0.262 0.0275   0.633442
 C 0.0832 0.1488 0.0077   0.811981
 C 0.1351 0.2404 0.0234   0.020727
 C 0.0707 0.3622 0.0542   -0.132794
 C 0.1798 0.3948 0.0592   -0.136566
 C 0.3031 0.2938 0.0306   0.054976
 C 0.8727 0.3396 0.685   0.057463
 C 0.7958 0.4652 0.7067   -0.146897
 C 0.9517 0.2774 0.6073   0.668778
 C 0.7133 0.6408 0.2827   -0.156391
 C 0.7966 0.5156 0.2988   0.023717
 C 0.8943 0.4534 0.3592   0.712795
 C 0.2859 0.262 0.4725   0.632464
 C 0.768 0.1488 0.4923   0.8133
 C 0.6245 0.2404 0.4766   0.018785
 C 0.5671 0.3622 0.4458   -0.132255
 C 0.4254 0.3948 0.4408   -0.137351
 C 0.4031 0.2938 0.4694   0.055523
 C 0.2123 0.6604 0.185   0.057953
 C 0.261 0.5348 0.2067   -0.146313
 C 0.2291 0.7226 0.1073   0.667624
 C 0.3541 0.3592 0.7827   -0.157659
 C 0.3122 0.4844 0.7988   0.024537
 C 0.3477 0.5466 0.8592   0.712506
 C 0.5479 0.738 0.9725   0.633442
 C 0.9168 0.8512 0.9923   0.811981
 C 0.8649 0.7596 0.9766   0.020729
 C 0.9293 0.6378 0.9458   -0.132793
 C 0.8202 0.6052 0.9408   -0.136564
 C 0.6969 0.7062 0.9694   0.054977
 C 0.1273 0.6604 0.315   0.057464
 C 0.2042 0.5348 0.2933   -0.146895
 C 0.0483 0.7226 0.3927   0.668778
 C 0.2867 0.3592 0.7173   -0.156387
 C 0.2034 0.4844 0.7012   0.023717
 C 0.1057 0.5466 0.6408   0.712796
 C 0.7141 0.738 0.5275   0.632464
 C 0.232 0.8512 0.5077   0.8133
 C 0.3755 0.7596 0.5234   0.018787
 C 0.4329 0.6378 0.5542   -0.132254
 C 0.5746 0.6052 0.5592   -0.137349
 C 0.5969 0.7062 0.5306   0.055524
 O 0.825 0.1578 0.8994   -0.599936
 O 0.7024 0.351 0.954   -0.735333
 O 0.1693 0.0432 0.9791   -0.766524
 O 0.9508 0.191 0.0241   -0.74793
 O 0.2789 0.196 0.0083   -0.091305
 O 0.4781 0.3438 0.0596   -0.754575
 O 0.5513 0.16 0.9964   -0.599195
 O 0.7027 0.3324 0.1422   -0.747369
 O 0.5737 0.5312 0.094   -0.611145
 O 0.0172 0.1578 0.6006   -0.599911
 O 0.9466 0.351 0.546   -0.736175
 O 0.7875 0.0432 0.5209   -0.766949
 O 0.8582 0.191 0.4759   -0.74818
 O 0.5251 0.196 0.4917   -0.090269
 O 0.1781 0.3438 0.4404   -0.754458
 O 0.2887 0.16 0.5036   -0.598495
 O 0.9649 0.3324 0.3578   -0.746923
 O 0.8951 0.5312 0.406   -0.61127
 O 0.175 0.8422 0.1006   -0.599936
 O 0.2976 0.649 0.046   -0.735333
 O 0.8307 0.9568 0.0209   -0.766524
 O 0.0492 0.809 0.9759   -0.74793
 O 0.7211 0.804 0.9917   -0.091305
 O 0.5219 0.6562 0.9404   -0.754575
 O 0.4487 0.84 0.0036   -0.599195
 O 0.2973 0.6676 0.8578   -0.747369
 O 0.4263 0.4688 0.906   -0.611145
 O 0.9828 0.8422 0.3994   -0.599911
 O 0.0534 0.649 0.454   -0.736176
 O 0.2125 0.9568 0.4791   -0.766949
 O 0.1418 0.809 0.5241   -0.74818
 O 0.4749 0.804 0.5083   -0.09027
 O 0.8219 0.6562 0.5596   -0.754458
 O 0.7113 0.84 0.4964   -0.598496
 O 0.0351 0.6676 0.6422   -0.746923
 O 0.1049 0.4688 0.594   -0.61127
 O 0.8703 0.2594 0.75   -0.127948
 O 0.1297 0.7406 0.25   -0.127948
 O 0.7817 0.4366 0.25   -0.096924
 O 0.2183 0.5634 0.75   -0.096923
