{'_ref': 'TBD', '_srcid': 'CAKYAQ_clean', 'submitters': [{'name': 'Dalar Nazarian Jeff Camp and David Sholl', 'email': 'dalar@gatech.edu jcamp6@gatech.edu'}], '_method': 'VASP DFT with PBE;DDEC'}
data_AgH3(CO)4
_symmetry_space_group_name_H-M   'P 1'
_cell_length_a   6.36320046
_cell_length_b   9.49060022
_cell_length_c   15.10020000
_cell_angle_alpha   96.57500103
_cell_angle_beta   93.09400047
_cell_angle_gamma   100.22099876
_symmetry_Int_Tables_number   1
_chemical_formula_structural   AgH3(CO)4
_chemical_formula_sum   'Ag6 H18 C24 O24'
_cell_volume   888.958151303
_cell_formula_units_Z   6
loop_
 _symmetry_equiv_pos_site_id
 _symmetry_equiv_pos_as_xyz
  1  'x, y, z'
loop_
 _atom_site_label
 _atom_site_fract_x
 _atom_site_fract_y
 _atom_site_fract_z
 _atom_site_charge
 Ag 0.62477 0.1398 0.98749   0.554307
 Ag 0.13808 0.58685 0.57397   0.517966
 Ag 0.4451 0.59046 0.41613   0.556465
 Ag 0.37523 0.8602 0.01251   0.554302
 Ag 0.86192 0.41315 0.42603   0.517966
 Ag 0.5549 0.40954 0.58387   0.556465
 H 0.178 0.601 0.201   0.438793
 H 0.549 0.11 0.423   0.390745
 H 0.114 0.115 0.1   0.403754
 H 0.7698 0.0032 0.2653   0.130437
 H 0.7776 0.7694 0.2578   0.13557
 H 0.8674 0.9058 0.3901   0.119288
 H 0.1858 0.0066 0.4565   0.123695
 H 0.000500000000002 0.1367 0.3809   0.110895
 H 0.0143 0.1897 0.2421   0.131533
 H 0.822 0.399 0.799   0.438793
 H 0.451 0.89 0.577   0.390745
 H 0.886 0.885 0.9   0.403754
 H 0.2302 0.9968 0.7347   0.130437
 H 0.2224 0.2306 0.7422   0.13557
 H 0.1326 0.0942 0.6099   0.119288
 H 0.8142 0.9934 0.5435   0.123695
 H 0.9995 0.8633 0.6191   0.110895
 H 0.9857 0.8103 0.7579   0.131533
 C 0.8834 0.9746 0.2298   -0.154651
 C 0.918 0.8333 0.264   -0.169251
 C 0.9856 0.8648 0.3651   -0.141308
 C 0.181 0.9854 0.3913   -0.194525
 C 0.1341 0.1228 0.3547   -0.144715
 C 0.0722 0.1039 0.2534   -0.193748
 C 0.7838 0.9527 0.1345   0.672796
 C 0.0617 0.7571 0.207   0.676424
 C 0.9861 0.7312 0.4119   0.66664
 C 0.3935 0.9368 0.3716   0.666107
 C 0.2877 0.2632 0.3889   0.667174
 C 0.2688 0.1077 0.2004   0.661728
 C 0.1166 0.0254 0.7702   -0.154651
 C 0.082 0.1667 0.736   -0.169251
 C 0.0144 0.1352 0.6349   -0.141308
 C 0.819 0.0146 0.6087   -0.194525
 C 0.8659 0.8772 0.6453   -0.144715
 C 0.9278 0.8961 0.7466   -0.193748
 C 0.2162 0.0473 0.8655   0.672796
 C 0.9383 0.2429 0.793   0.676425
 C 0.0139 0.2688 0.5881   0.666639
 C 0.6065 0.0632 0.6284   0.666107
 C 0.7123 0.7368 0.6111   0.667173
 C 0.7312 0.8923 0.7996   0.661728
 O 0.8339 0.0522 0.086   -0.603704
 O 0.6465 0.8402 0.11   -0.563559
 O 0.1505 0.8093 0.1468   -0.522639
 O 0.0695 0.6246 0.225   -0.533196
 O 0.1215 0.7393 0.4764   -0.563276
 O 0.8393 0.625 0.3866   -0.575593
 O 0.4058 0.8207 0.3327   -0.493733
 O 0.5698 0.0256 0.4073   -0.516249
 O 0.4348 0.2621 0.4479   -0.612714
 O 0.2493 0.3763 0.3601   -0.595819
 O 0.4452 0.1151 0.2362   -0.504737
 O 0.2454 0.1182 0.1144   -0.540898
 O 0.1661 0.9478 0.914   -0.603704
 O 0.3535 0.1598 0.89   -0.563559
 O 0.8495 0.1907 0.8532   -0.52264
 O 0.9305 0.3754 0.775   -0.533196
 O 0.8785 0.2607 0.5236   -0.563276
 O 0.1607 0.375 0.6134   -0.575593
 O 0.5942 0.1793 0.6673   -0.493733
 O 0.4302 0.9744 0.5927   -0.516249
 O 0.5652 0.7379 0.5521   -0.612714
 O 0.7507 0.6237 0.6399   -0.595819
 O 0.5548 0.8849 0.7638   -0.504737
 O 0.7546 0.8818 0.8856   -0.540897
