{'_ref': 'TBD', '_srcid': 'CAKYAQ_clean', 'submitters': [{'name': 'Dalar Nazarian Jeff Camp and David Sholl', 'email': 'dalar@gatech.edu jcamp6@gatech.edu'}], '_method': 'VASP DFT with PBE;DDEC'}
data_CdH8C12(NO2)2
_symmetry_space_group_name_H-M   'P 1'
_cell_length_a   12.69100000
_cell_length_b   15.54500000
_cell_length_c   18.34200000
_cell_angle_alpha   90.00000000
_cell_angle_beta   90.00000000
_cell_angle_gamma   90.00000000
_symmetry_Int_Tables_number   1
_chemical_formula_structural   CdH8C12(NO2)2
_chemical_formula_sum   'Cd8 H64 C96 N16 O32'
_cell_volume   3618.53901549
_cell_formula_units_Z   8
loop_
 _symmetry_equiv_pos_site_id
 _symmetry_equiv_pos_as_xyz
  1  'x, y, z'
loop_
 _atom_site_label
 _atom_site_fract_x
 _atom_site_fract_y
 _atom_site_fract_z
 _atom_site_charge
 Cd 0.18286 0.71257 0.68312   0.947743
 Cd 0.31714 0.28743 0.18312   0.947743
 Cd 0.81714 0.21257 0.81688   0.947743
 Cd 0.68286 0.78743 0.31688   0.947743
 Cd 0.81714 0.28743 0.31688   0.947743
 Cd 0.68286 0.71257 0.81688   0.947743
 Cd 0.18286 0.78743 0.18312   0.947743
 Cd 0.31714 0.21257 0.68312   0.947743
 H 0.09874 0.41824 0.67664   0.127733
 H 0.00172 0.27896 0.70985   0.097025
 H 0.77583 0.41588 0.83282   0.098935
 H 0.86612 0.55871 0.8058   0.140725
 H 0.91317 0.61237 0.46776   0.133015
 H 0.04532 0.5944 0.5702   0.087265
 H 0.1203 0.85956 0.56727   0.08005
 H 0.98185 0.88869 0.46924   0.139309
 H 0.40126 0.58176 0.17664   0.127733
 H 0.49828 0.72104 0.20985   0.097025
 H 0.72417 0.58412 0.33282   0.098935
 H 0.63388 0.44129 0.3058   0.140725
 H 0.58683 0.38763 0.96776   0.133015
 H 0.45468 0.4056 0.0702   0.087265
 H 0.3797 0.14044 0.06727   0.08005
 H 0.51815 0.11131 0.96924   0.139309
 H 0.90126 0.91824 0.82336   0.127733
 H 0.99828 0.77896 0.79015   0.097025
 H 0.22417 0.91588 0.66718   0.098935
 H 0.13388 0.05871 0.6942   0.140725
 H 0.08683 0.11237 0.03224   0.133014
 H 0.95468 0.0944 0.9298   0.087265
 H 0.8797 0.35956 0.93273   0.08005
 H 0.01815 0.38869 0.03076   0.139309
 H 0.59874 0.08176 0.32336   0.127733
 H 0.50172 0.22104 0.29015   0.097025
 H 0.27583 0.08412 0.16718   0.098935
 H 0.36612 0.94129 0.1942   0.140725
 H 0.41317 0.88763 0.53224   0.133014
 H 0.54532 0.9056 0.4298   0.087265
 H 0.6203 0.64044 0.43273   0.08005
 H 0.48185 0.61131 0.53076   0.139309
 H 0.90126 0.58176 0.32336   0.127733
 H 0.99828 0.72104 0.29015   0.097025
 H 0.22417 0.58412 0.16718   0.098935
 H 0.13388 0.44129 0.1942   0.140725
 H 0.08683 0.38763 0.53224   0.133015
 H 0.95468 0.4056 0.4298   0.087265
 H 0.8797 0.14044 0.43273   0.08005
 H 0.01815 0.11131 0.53076   0.139309
 H 0.59874 0.41824 0.82336   0.127733
 H 0.50172 0.27896 0.79015   0.097025
 H 0.27583 0.41588 0.66718   0.098935
 H 0.36612 0.55871 0.6942   0.140725
 H 0.41317 0.61237 0.03224   0.133015
 H 0.54532 0.5944 0.9298   0.087265
 H 0.6203 0.85956 0.93273   0.08005
 H 0.48185 0.88869 0.03076   0.139309
 H 0.09874 0.08176 0.17664   0.127733
 H 0.00172 0.22104 0.20985   0.097025
 H 0.77583 0.08412 0.33282   0.098934
 H 0.86612 0.94129 0.3058   0.140725
 H 0.91317 0.88763 0.96776   0.133014
 H 0.04532 0.9056 0.0702   0.087265
 H 0.1203 0.64044 0.06727   0.08005
 H 0.98185 0.61131 0.96924   0.139309
 H 0.40126 0.91824 0.67664   0.127733
 H 0.49828 0.77896 0.70985   0.097025
 H 0.72417 0.91588 0.83282   0.098934
 H 0.63388 0.05871 0.8058   0.140725
 H 0.58683 0.11237 0.46776   0.133014
 H 0.45468 0.0944 0.5702   0.087265
 H 0.3797 0.35956 0.56727   0.08005
 H 0.51815 0.38869 0.46924   0.139309
 C 0.0488 0.5785 0.7245   0.608019
 C 0.9889 0.4957 0.7408   0.023678
 C 0.026 0.4189 0.7131   -0.171175
 C 0.9723 0.3436 0.731   0.13317
 C 0.8501 0.4179 0.7979   0.124309
 C 0.8986 0.4956 0.7835   -0.155379
 C 0.8521 0.7669 0.4081   0.613659
 C 0.9366 0.7519 0.4642   0.03301
 C 0.9566 0.6703 0.4912   -0.174008
 C 0.0292 0.6608 0.5463   0.133549
 C 0.0691 0.805 0.5456   0.131703
 C 0.9953 0.8211 0.4915   -0.169245
 C 0.4512 0.4215 0.2245   0.608019
 C 0.5111 0.5043 0.2408   0.023678
 C 0.474 0.5811 0.2131   -0.171175
 C 0.5277 0.6564 0.231   0.13317
 C 0.6499 0.5821 0.2979   0.124309
 C 0.6014 0.5044 0.2835   -0.155379
 C 0.6479 0.2331 0.9081   0.613659
 C 0.5634 0.2481 0.9642   0.03301
 C 0.5434 0.3297 0.9912   -0.174008
 C 0.4708 0.3392 0.0463   0.133549
 C 0.4309 0.195 0.0456   0.131703
 C 0.5047 0.1789 0.9915   -0.169245
 C 0.9512 0.0785 0.7755   0.608019
 C 0.0111 0.9957 0.7592   0.023678
 C 0.974 0.9189 0.7869   -0.171175
 C 0.0277 0.8436 0.769   0.13317
 C 0.1499 0.9179 0.7021   0.124309
 C 0.1014 0.9956 0.7165   -0.155379
 C 0.1479 0.2669 0.0919   0.613658
 C 0.0634 0.2519 0.0358   0.03301
 C 0.0434 0.1703 0.0088   -0.174008
 C 0.9708 0.1608 0.9537   0.133549
 C 0.9309 0.305 0.9544   0.131703
 C 0.0047 0.3211 0.0085   -0.169245
 C 0.5488 0.9215 0.2755   0.608019
 C 0.4889 0.0043 0.2592   0.023678
 C 0.526 0.0811 0.2869   -0.171175
 C 0.4723 0.1564 0.269   0.13317
 C 0.3501 0.0821 0.2021   0.124309
 C 0.3986 0.0044 0.2165   -0.155379
 C 0.3521 0.7331 0.5919   0.613658
 C 0.4366 0.7481 0.5358   0.03301
 C 0.4566 0.8297 0.5088   -0.174008
 C 0.5292 0.8392 0.4537   0.133549
 C 0.5691 0.695 0.4544   0.131703
 C 0.4953 0.6789 0.5085   -0.169245
 C 0.9512 0.4215 0.2755   0.608019
 C 0.0111 0.5043 0.2592   0.023678
 C 0.974 0.5811 0.2869   -0.171175
 C 0.0277 0.6564 0.269   0.13317
 C 0.1499 0.5821 0.2021   0.124309
 C 0.1014 0.5044 0.2165   -0.155379
 C 0.1479 0.2331 0.5919   0.613659
 C 0.0634 0.2481 0.5358   0.03301
 C 0.0434 0.3297 0.5088   -0.174008
 C 0.9708 0.3392 0.4537   0.133549
 C 0.9309 0.195 0.4544   0.131703
 C 0.0047 0.1789 0.5085   -0.169245
 C 0.5488 0.5785 0.7755   0.608019
 C 0.4889 0.4957 0.7592   0.023678
 C 0.526 0.4189 0.7869   -0.171175
 C 0.4723 0.3436 0.769   0.13317
 C 0.3501 0.4179 0.7021   0.124309
 C 0.3986 0.4956 0.7165   -0.155379
 C 0.3521 0.7669 0.0919   0.613659
 C 0.4366 0.7519 0.0358   0.03301
 C 0.4566 0.6703 0.0088   -0.174008
 C 0.5292 0.6608 0.9537   0.133549
 C 0.5691 0.805 0.9544   0.131703
 C 0.4953 0.8211 0.0085   -0.169245
 C 0.0488 0.9215 0.2245   0.608019
 C 0.9889 0.0043 0.2408   0.023678
 C 0.026 0.0811 0.2131   -0.171175
 C 0.9723 0.1564 0.231   0.13317
 C 0.8501 0.0821 0.2979   0.124309
 C 0.8986 0.0044 0.2835   -0.155379
 C 0.8521 0.7331 0.9081   0.613658
 C 0.9366 0.7481 0.9642   0.03301
 C 0.9566 0.8297 0.9912   -0.174008
 C 0.0292 0.8392 0.0463   0.133549
 C 0.0691 0.695 0.0456   0.131703
 C 0.9953 0.6789 0.9915   -0.169245
 C 0.4512 0.0785 0.7245   0.608019
 C 0.5111 0.9957 0.7408   0.023678
 C 0.474 0.9189 0.7131   -0.171175
 C 0.5277 0.8436 0.731   0.13317
 C 0.6499 0.9179 0.7979   0.124309
 C 0.6014 0.9956 0.7835   -0.155379
 C 0.6479 0.2669 0.4081   0.613658
 C 0.5634 0.2519 0.4642   0.03301
 C 0.5434 0.1703 0.4912   -0.174008
 C 0.4708 0.1608 0.5463   0.133549
 C 0.4309 0.305 0.5456   0.131703
 C 0.5047 0.3211 0.4915   -0.169245
 N 0.8858 0.3424 0.7727   -0.336685
 N 0.0839 0.727 0.5745   -0.305522
 N 0.6142 0.6576 0.2727   -0.336685
 N 0.4161 0.273 0.0745   -0.305522
 N 0.1142 0.8424 0.7273   -0.336685
 N 0.9161 0.227 0.9255   -0.305522
 N 0.3858 0.1576 0.2273   -0.336685
 N 0.5839 0.773 0.4255   -0.305522
 N 0.1142 0.6576 0.2273   -0.336685
 N 0.9161 0.273 0.4255   -0.305522
 N 0.3858 0.3424 0.7273   -0.336685
 N 0.5839 0.727 0.9255   -0.305522
 N 0.8858 0.1576 0.2727   -0.336685
 N 0.0839 0.773 0.0745   -0.305522
 N 0.6142 0.8424 0.7727   -0.336685
 N 0.4161 0.227 0.5745   -0.305522
 O 0.0055 0.6494 0.7394   -0.605665
 O 0.1377 0.5716 0.6967   -0.565749
 O 0.823 0.8428 0.3951   -0.575793
 O 0.8117 0.7026 0.3784   -0.593673
 O 0.4945 0.3506 0.2394   -0.605665
 O 0.3623 0.4284 0.1967   -0.565749
 O 0.677 0.1572 0.8951   -0.575793
 O 0.6883 0.2974 0.8784   -0.593673
 O 0.9945 0.1494 0.7606   -0.605665
 O 0.8623 0.0716 0.8033   -0.565749
 O 0.177 0.3428 0.1049   -0.575793
 O 0.1883 0.2026 0.1216   -0.593673
 O 0.5055 0.8506 0.2606   -0.605665
 O 0.6377 0.9284 0.3033   -0.565749
 O 0.323 0.6572 0.6049   -0.575793
 O 0.3117 0.7974 0.6216   -0.593673
 O 0.9945 0.3506 0.2606   -0.605665
 O 0.8623 0.4284 0.3033   -0.565749
 O 0.177 0.1572 0.6049   -0.575793
 O 0.1883 0.2974 0.6216   -0.593673
 O 0.5055 0.6494 0.7606   -0.605665
 O 0.6377 0.5716 0.8033   -0.565749
 O 0.323 0.8428 0.1049   -0.575793
 O 0.3117 0.7026 0.1216   -0.593673
 O 0.0055 0.8506 0.2394   -0.605665
 O 0.1377 0.9284 0.1967   -0.565749
 O 0.823 0.6572 0.8951   -0.575793
 O 0.8117 0.7974 0.8784   -0.593673
 O 0.4945 0.1494 0.7394   -0.605665
 O 0.3623 0.0716 0.6967   -0.565749
 O 0.677 0.3428 0.3951   -0.575793
 O 0.6883 0.2026 0.3784   -0.593673
