{'_ref': 'TBD', '_srcid': 'CAKYAQ_clean', 'submitters': [{'name': 'Dalar Nazarian Jeff Camp and David Sholl', 'email': 'dalar@gatech.edu jcamp6@gatech.edu'}], '_method': 'VASP DFT with PBE;DDEC'}
data_CdH8C12(NO2)2
_symmetry_space_group_name_H-M   'P 1'
_cell_length_a   12.08100000
_cell_length_b   15.32300000
_cell_length_c   19.70500000
_cell_angle_alpha   90.00000000
_cell_angle_beta   90.00000000
_cell_angle_gamma   90.00000000
_symmetry_Int_Tables_number   1
_chemical_formula_structural   CdH8C12(NO2)2
_chemical_formula_sum   'Cd8 H64 C96 N16 O32'
_cell_volume   3647.73369691
_cell_formula_units_Z   8
loop_
 _symmetry_equiv_pos_site_id
 _symmetry_equiv_pos_as_xyz
  1  'x, y, z'
loop_
 _atom_site_label
 _atom_site_fract_x
 _atom_site_fract_y
 _atom_site_fract_z
 _atom_site_charge
 Cd 0.68885 0.27225 0.17872   0.948817
 Cd 0.81115 0.72775 0.67872   0.948817
 Cd 0.31115 0.77225 0.32128   0.948817
 Cd 0.18885 0.22775 0.82128   0.948817
 Cd 0.31115 0.72775 0.82128   0.948817
 Cd 0.18885 0.27225 0.32128   0.948817
 Cd 0.68885 0.22775 0.67872   0.948817
 Cd 0.81115 0.77225 0.17872   0.948817
 H 0.39306 0.42385 0.31886   0.143152
 H 0.30153 0.56597 0.35472   0.098816
 H 0.48037 0.70895 0.20791   0.091248
 H 0.58181 0.57168 0.1688   0.133856
 H 0.3973 0.39525 0.98904   0.130864
 H 0.52379 0.3985 0.09175   0.085199
 H 0.64873 0.14767 0.04477   0.084014
 H 0.52368 0.13566 0.94305   0.134194
 H 0.10694 0.57615 0.81886   0.143152
 H 0.19847 0.43403 0.85472   0.098816
 H 0.01963 0.29105 0.70791   0.091248
 H 0.91819 0.42832 0.6688   0.133856
 H 0.1027 0.60475 0.48904   0.130864
 H 0.97621 0.6015 0.59175   0.085199
 H 0.85127 0.85233 0.54477   0.084014
 H 0.97632 0.86434 0.44305   0.134194
 H 0.60694 0.92385 0.18114   0.143152
 H 0.69847 0.06597 0.14528   0.098815
 H 0.51963 0.20895 0.29209   0.091248
 H 0.41819 0.07168 0.3312   0.133856
 H 0.6027 0.89525 0.51096   0.130864
 H 0.47621 0.8985 0.40825   0.085199
 H 0.35127 0.64767 0.45523   0.084014
 H 0.47632 0.63566 0.55695   0.134194
 H 0.89306 0.07615 0.68114   0.143152
 H 0.80153 0.93403 0.64528   0.098815
 H 0.98037 0.79105 0.79209   0.091248
 H 0.08181 0.92832 0.8312   0.133856
 H 0.8973 0.10475 0.01096   0.130864
 H 0.02379 0.1015 0.90825   0.085199
 H 0.14873 0.35233 0.95523   0.084014
 H 0.02368 0.36434 0.05695   0.134194
 H 0.60694 0.57615 0.68114   0.143152
 H 0.69847 0.43403 0.64528   0.098816
 H 0.51963 0.29105 0.79209   0.091248
 H 0.41819 0.42832 0.8312   0.133856
 H 0.6027 0.60475 0.01096   0.130864
 H 0.47621 0.6015 0.90825   0.085199
 H 0.35127 0.85233 0.95523   0.084014
 H 0.47632 0.86434 0.05695   0.134194
 H 0.89306 0.42385 0.18114   0.143152
 H 0.80153 0.56597 0.14528   0.098815
 H 0.98037 0.70895 0.29209   0.091248
 H 0.08181 0.57168 0.3312   0.133856
 H 0.8973 0.39525 0.51096   0.130864
 H 0.02379 0.3985 0.40825   0.085199
 H 0.14873 0.14767 0.45523   0.084014
 H 0.02368 0.13566 0.55695   0.134194
 H 0.39306 0.07615 0.81886   0.143152
 H 0.30153 0.93403 0.85472   0.098815
 H 0.48037 0.79105 0.70791   0.091248
 H 0.58181 0.92832 0.6688   0.133856
 H 0.3973 0.10475 0.48904   0.130864
 H 0.52379 0.1015 0.59175   0.085199
 H 0.64873 0.35233 0.54477   0.084014
 H 0.52368 0.36434 0.44305   0.134194
 H 0.10694 0.92385 0.31886   0.143152
 H 0.19847 0.06597 0.35472   0.098815
 H 0.01963 0.20895 0.20791   0.091248
 H 0.91819 0.07168 0.1688   0.133856
 H 0.1027 0.89525 0.98904   0.130864
 H 0.97621 0.8985 0.09175   0.085199
 H 0.85127 0.64767 0.04477   0.084014
 H 0.97632 0.63566 0.94305   0.134194
 C 0.555 0.40857 0.22136   0.609239
 C 0.4937 0.49003 0.24227   0.032061
 C 0.4154 0.48827 0.29337   -0.164735
 C 0.3658 0.56552 0.31236   0.136691
 C 0.4629 0.64345 0.23317   0.132011
 C 0.5179 0.56885 0.21131   -0.181764
 C 0.365 0.2556 0.90507   0.609262
 C 0.4499 0.26403 0.96059   0.033662
 C 0.4523 0.3369 0.00135   -0.177097
 C 0.522 0.3387 0.05735   0.137436
 C 0.589 0.2029 0.03207   0.124033
 C 0.5212 0.1965 0.97631   -0.168871
 C 0.945 0.59143 0.72136   0.609239
 C 0.0063 0.50997 0.74227   0.032061
 C 0.0846 0.51173 0.79337   -0.164735
 C 0.1342 0.43448 0.81236   0.136691
 C 0.0371 0.35655 0.73317   0.132011
 C 0.9821 0.43115 0.71131   -0.181764
 C 0.135 0.7444 0.40507   0.609262
 C 0.0501 0.73597 0.46059   0.033662
 C 0.0477 0.6631 0.50135   -0.177097
 C 0.978 0.6613 0.55735   0.137436
 C 0.911 0.7971 0.53207   0.124033
 C 0.9788 0.8035 0.47631   -0.168871
 C 0.445 0.90857 0.27864   0.609239
 C 0.5063 0.99003 0.25773   0.032061
 C 0.5846 0.98827 0.20663   -0.164735
 C 0.6342 0.06552 0.18764   0.136691
 C 0.5371 0.14345 0.26683   0.132011
 C 0.4821 0.06885 0.28869   -0.181764
 C 0.635 0.7556 0.59493   0.609261
 C 0.5501 0.76403 0.53941   0.033662
 C 0.5477 0.8369 0.49865   -0.177097
 C 0.478 0.8387 0.44265   0.137436
 C 0.411 0.7029 0.46793   0.124032
 C 0.4788 0.6965 0.52369   -0.168871
 C 0.055 0.09143 0.77864   0.609239
 C 0.9937 0.00997 0.75773   0.032061
 C 0.9154 0.01173 0.70663   -0.164735
 C 0.8658 0.93448 0.68764   0.136691
 C 0.9629 0.85655 0.76683   0.132011
 C 0.0179 0.93115 0.78869   -0.181764
 C 0.865 0.2444 0.09493   0.609261
 C 0.9499 0.23597 0.03941   0.033662
 C 0.9523 0.1631 0.99865   -0.177097
 C 0.022 0.1613 0.94265   0.137436
 C 0.089 0.2971 0.96793   0.124032
 C 0.0212 0.3035 0.02369   -0.168871
 C 0.445 0.59143 0.77864   0.609239
 C 0.5063 0.50997 0.75773   0.032061
 C 0.5846 0.51173 0.70663   -0.164735
 C 0.6342 0.43448 0.68764   0.136691
 C 0.5371 0.35655 0.76683   0.132011
 C 0.4821 0.43115 0.78869   -0.181764
 C 0.635 0.7444 0.09493   0.609262
 C 0.5501 0.73597 0.03941   0.033662
 C 0.5477 0.6631 0.99865   -0.177097
 C 0.478 0.6613 0.94265   0.137436
 C 0.411 0.7971 0.96793   0.124033
 C 0.4788 0.8035 0.02369   -0.168871
 C 0.055 0.40857 0.27864   0.609239
 C 0.9937 0.49003 0.25773   0.032061
 C 0.9154 0.48827 0.20663   -0.164735
 C 0.8658 0.56552 0.18764   0.136691
 C 0.9629 0.64345 0.26683   0.132011
 C 0.0179 0.56885 0.28869   -0.181764
 C 0.865 0.2556 0.59493   0.609262
 C 0.9499 0.26403 0.53941   0.033662
 C 0.9523 0.3369 0.49865   -0.177097
 C 0.022 0.3387 0.44265   0.137436
 C 0.089 0.2029 0.46793   0.124033
 C 0.0212 0.1965 0.52369   -0.168871
 C 0.555 0.09143 0.72136   0.609239
 C 0.4937 0.00997 0.74227   0.032061
 C 0.4154 0.01173 0.79337   -0.164735
 C 0.3658 0.93448 0.81236   0.136691
 C 0.4629 0.85655 0.73317   0.132011
 C 0.5179 0.93115 0.71131   -0.181764
 C 0.365 0.2444 0.40507   0.609261
 C 0.4499 0.23597 0.46059   0.033662
 C 0.4523 0.1631 0.50135   -0.177097
 C 0.522 0.1613 0.55735   0.137436
 C 0.589 0.2971 0.53207   0.124032
 C 0.5212 0.3035 0.47631   -0.168871
 C 0.945 0.90857 0.22136   0.609239
 C 0.0063 0.99003 0.24227   0.032061
 C 0.0846 0.98827 0.29337   -0.164735
 C 0.1342 0.06552 0.31236   0.136691
 C 0.0371 0.14345 0.23317   0.132011
 C 0.9821 0.06885 0.21131   -0.181764
 C 0.135 0.7556 0.90507   0.609261
 C 0.0501 0.76403 0.96059   0.033662
 C 0.0477 0.8369 0.00135   -0.177097
 C 0.978 0.8387 0.05735   0.137436
 C 0.911 0.7029 0.03207   0.124032
 C 0.9788 0.6965 0.97631   -0.168871
 N 0.3885 0.64256 0.28364   -0.330946
 N 0.589 0.27242 0.07367   -0.305739
 N 0.1115 0.35744 0.78364   -0.330946
 N 0.911 0.72758 0.57367   -0.305739
 N 0.6115 0.14256 0.21636   -0.330946
 N 0.411 0.77242 0.42633   -0.305739
 N 0.8885 0.85744 0.71636   -0.330946
 N 0.089 0.22758 0.92633   -0.305739
 N 0.6115 0.35744 0.71636   -0.330946
 N 0.411 0.72758 0.92633   -0.305739
 N 0.8885 0.64256 0.21636   -0.330946
 N 0.089 0.27242 0.42633   -0.305739
 N 0.3885 0.85744 0.78364   -0.330946
 N 0.589 0.22758 0.57367   -0.305739
 N 0.1115 0.14256 0.28364   -0.330946
 N 0.911 0.77242 0.07367   -0.305739
 O 0.5109 0.33596 0.23066   -0.6039
 O 0.64758 0.41786 0.19421   -0.572886
 O 0.31535 0.32266 0.886   -0.594655
 O 0.3447 0.18063 0.88302   -0.56396
 O 0.9891 0.66404 0.73066   -0.6039
 O 0.85242 0.58214 0.69421   -0.572886
 O 0.18465 0.67734 0.386   -0.594655
 O 0.1553 0.81937 0.38302   -0.56396
 O 0.4891 0.83596 0.26934   -0.6039
 O 0.35242 0.91786 0.30579   -0.572886
 O 0.68465 0.82266 0.614   -0.594655
 O 0.6553 0.68063 0.61698   -0.56396
 O 0.0109 0.16404 0.76934   -0.6039
 O 0.14758 0.08214 0.80579   -0.572886
 O 0.81535 0.17734 0.114   -0.594655
 O 0.8447 0.31937 0.11698   -0.56396
 O 0.4891 0.66404 0.76934   -0.6039
 O 0.35242 0.58214 0.80579   -0.572886
 O 0.68465 0.67734 0.114   -0.594655
 O 0.6553 0.81937 0.11698   -0.56396
 O 0.0109 0.33596 0.26934   -0.6039
 O 0.14758 0.41786 0.30579   -0.572886
 O 0.81535 0.32266 0.614   -0.594655
 O 0.8447 0.18063 0.61698   -0.56396
 O 0.5109 0.16404 0.73066   -0.6039
 O 0.64758 0.08214 0.69421   -0.572886
 O 0.31535 0.17734 0.386   -0.594655
 O 0.3447 0.31937 0.38302   -0.56396
 O 0.9891 0.83596 0.23066   -0.6039
 O 0.85242 0.91786 0.19421   -0.572886
 O 0.18465 0.82266 0.886   -0.594655
 O 0.1553 0.68063 0.88302   -0.56396
