{'_ref': 'TBD', '_srcid': 'CAKYAQ_clean', 'submitters': [{'name': 'Dalar Nazarian Jeff Camp and David Sholl', 'email': 'dalar@gatech.edu jcamp6@gatech.edu'}], '_method': 'VASP DFT with PBE;DDEC'}
data_PrH4C7(NO3)2
_symmetry_space_group_name_H-M   'P 1'
_cell_length_a   10.37789949
_cell_length_b   11.38290000
_cell_length_c   22.38780000
_cell_angle_alpha   90.00000000
_cell_angle_beta   97.39899924
_cell_angle_gamma   90.00000000
_symmetry_Int_Tables_number   1
_chemical_formula_structural   PrH4C7(NO3)2
_chemical_formula_sum   'Pr8 H32 C56 N16 O48'
_cell_volume   2622.66287614
_cell_formula_units_Z   8
loop_
 _symmetry_equiv_pos_site_id
 _symmetry_equiv_pos_as_xyz
  1  'x, y, z'
loop_
 _atom_site_label
 _atom_site_fract_x
 _atom_site_fract_y
 _atom_site_fract_z
 _atom_site_charge
 Pr 0.26224 0.08124 0.06469   2.168117
 Pr 0.89149 0.3085 0.27467   2.166962
 Pr 0.23776 0.58124 0.43531   2.168111
 Pr 0.60851 0.8085 0.22533   2.166955
 Pr 0.73776 0.91876 0.93531   2.167896
 Pr 0.10851 0.6915 0.72533   2.166929
 Pr 0.76224 0.41876 0.56469   2.16789
 Pr 0.39149 0.1915 0.77467   2.166923
 H 0.2043 0.2259 0.413   0.162768
 H 0.0933 0.1318 0.4094   0.182471
 H 0.2388 0.0929 0.424   0.149095
 H 0.8842 0.1759 0.731   0.128959
 H 0.9884 0.0891 0.7115   0.170354
 H 0.0143 0.2248 0.7121   0.174114
 H 0.3362 0.023 0.3361   0.340282
 H 0.8864 0.124 0.8383   0.303633
 H 0.2957 0.7259 0.087   0.162768
 H 0.4067 0.6318 0.0906   0.182471
 H 0.2612 0.5929 0.076   0.149095
 H 0.6158 0.6759 0.769   0.128959
 H 0.5116 0.5891 0.7885   0.170354
 H 0.4857 0.7248 0.7879   0.174114
 H 0.1638 0.523 0.1639   0.340282
 H 0.6136 0.624 0.6617   0.303633
 H 0.7957 0.7741 0.587   0.162761
 H 0.9067 0.8682 0.5906   0.182429
 H 0.7612 0.9071 0.576   0.149069
 H 0.1158 0.8241 0.269   0.128951
 H 0.0116 0.9109 0.2885   0.170337
 H 0.9857 0.7752 0.2879   0.174112
 H 0.6638 0.977 0.6639   0.340267
 H 0.1136 0.876 0.1617   0.303631
 H 0.7043 0.2741 0.913   0.162761
 H 0.5933 0.3682 0.9094   0.182429
 H 0.7388 0.4071 0.924   0.149069
 H 0.3842 0.3241 0.231   0.128951
 H 0.4884 0.4109 0.2115   0.170337
 H 0.5143 0.2752 0.2121   0.174113
 H 0.8362 0.477 0.8361   0.340267
 H 0.3864 0.376 0.3383   0.303631
 C 0.0831 0.1796 0.1807   0.732239
 C 0.1527 0.14 0.23868   0.015157
 C 0.2576 0.0654 0.25293   -0.080916
 C 0.3392 0.9887 0.21831   0.740978
 C 0.1881 0.1314 0.3362   0.470061
 C 0.1804 0.1469 0.4014   -0.459703
 C 0.3048 0.1517 0.91282   0.7874
 C 0.1728 0.1487 0.87724   0.049378
 C 0.0519 0.1306 0.89443   -0.076926
 C 0.9955 0.1172 0.95153   0.785577
 C 0.0373 0.1535 0.79542   0.481245
 C 0.9756 0.1616 0.7319   -0.477891
 C 0.7644 0.0409 0.28548   0.53878
 C 0.7038 0.087 0.22277   0.543368
 C 0.4169 0.6796 0.3193   0.732239
 C 0.3473 0.64 0.26132   0.015156
 C 0.2424 0.5654 0.24707   -0.080916
 C 0.1608 0.4887 0.28169   0.740977
 C 0.3119 0.6314 0.1638   0.470061
 C 0.3196 0.6469 0.0986   -0.459703
 C 0.1952 0.6517 0.58718   0.7874
 C 0.3272 0.6487 0.62276   0.049378
 C 0.4481 0.6306 0.60557   -0.076926
 C 0.5045 0.6172 0.54847   0.785577
 C 0.4627 0.6535 0.70458   0.481245
 C 0.5244 0.6616 0.7681   -0.477891
 C 0.7356 0.5409 0.21452   0.538779
 C 0.7962 0.587 0.27723   0.543367
 C 0.9169 0.8204 0.8193   0.732225
 C 0.8473 0.86 0.76132   0.015163
 C 0.7424 0.9346 0.74707   -0.080931
 C 0.6608 0.0113 0.78169   0.740977
 C 0.8119 0.8686 0.6638   0.470054
 C 0.8196 0.8531 0.5986   -0.459685
 C 0.6952 0.8483 0.08718   0.787394
 C 0.8272 0.8513 0.12276   0.04935
 C 0.9481 0.8694 0.10557   -0.076934
 C 0.0045 0.8828 0.04847   0.78558
 C 0.9627 0.8465 0.20458   0.481218
 C 0.0244 0.8384 0.2681   -0.477881
 C 0.2356 0.9591 0.71452   0.538748
 C 0.2962 0.913 0.77723   0.54335
 C 0.5831 0.3204 0.6807   0.732224
 C 0.6527 0.36 0.73868   0.015162
 C 0.7576 0.4346 0.75293   -0.08093
 C 0.8392 0.5113 0.71831   0.740976
 C 0.6881 0.3686 0.8362   0.470054
 C 0.6804 0.3531 0.9014   -0.459685
 C 0.8048 0.3483 0.41282   0.787394
 C 0.6728 0.3513 0.37724   0.04935
 C 0.5519 0.3694 0.39443   -0.076934
 C 0.4955 0.3828 0.45153   0.78558
 C 0.5373 0.3465 0.29542   0.481218
 C 0.4756 0.3384 0.2319   -0.477881
 C 0.2644 0.4591 0.78548   0.538747
 C 0.2038 0.413 0.72277   0.54335
 N 0.1102 0.1796 0.29132   -0.561031
 N 0.2768 0.0626 0.31455   -0.295772
 N 0.1623 0.1629 0.81567   -0.547226
 N 0.9692 0.1335 0.8415   -0.277669
 N 0.3898 0.6796 0.20868   -0.56103
 N 0.2232 0.5626 0.18545   -0.295772
 N 0.3377 0.6629 0.68433   -0.547226
 N 0.5308 0.6335 0.6585   -0.277669
 N 0.8898 0.8204 0.70868   -0.56103
 N 0.7232 0.9374 0.68545   -0.295773
 N 0.8377 0.8371 0.18433   -0.547222
 N 0.0308 0.8665 0.1585   -0.277674
 N 0.6102 0.3204 0.79132   -0.561029
 N 0.7768 0.4374 0.81455   -0.295773
 N 0.6623 0.3371 0.31567   -0.547222
 N 0.4692 0.3665 0.3415   -0.277674
 O 0.9788 0.2349 0.18248   -0.605663
 O 0.1281 0.1601 0.13268   -0.775926
 O 0.3144 0.9801 0.16217   -0.791684
 O 0.4262 0.9342 0.25037   -0.662092
 O 0.3992 0.1796 0.88507   -0.664907
 O 0.3195 0.1242 0.96708   -0.841073
 O 0.0628 0.1338 0.000830000000001   -0.699165
 O 0.8759 0.0919 0.94556   -0.749902
 O 0.8419 0.1082 0.31586   -0.641615
 O 0.732 0.9404 0.3008   -0.610565
 O 0.731 0.1896 0.20969   -0.611661
 O 0.6314 0.0179 0.19075   -0.659341
 O 0.5212 0.7349 0.31752   -0.605657
 O 0.3719 0.6601 0.36732   -0.775925
 O 0.1856 0.4801 0.33783   -0.791684
 O 0.0738 0.4342 0.24963   -0.662086
 O 0.1008 0.6796 0.61493   -0.664907
 O 0.1805 0.6242 0.53292   -0.841072
 O 0.4372 0.6338 0.49917   -0.699165
 O 0.6241 0.5919 0.55444   -0.749902
 O 0.6581 0.6082 0.18414   -0.641615
 O 0.768 0.4404 0.1992   -0.610559
 O 0.769 0.6896 0.29031   -0.611655
 O 0.8686 0.5179 0.30925   -0.659342
 O 0.0212 0.7651 0.81752   -0.605661
 O 0.8719 0.8399 0.86732   -0.775917
 O 0.6856 0.0199 0.83783   -0.791677
 O 0.5738 0.0658 0.74963   -0.66209
 O 0.6008 0.8204 0.11493   -0.664898
 O 0.6805 0.8758 0.03292   -0.841064
 O 0.9372 0.8662 0.99917   -0.69916
 O 0.1241 0.9081 0.05444   -0.749906
 O 0.1581 0.8918 0.68414   -0.641606
 O 0.268 0.0596 0.6992   -0.610562
 O 0.269 0.8104 0.79031   -0.611659
 O 0.3686 0.9821 0.80925   -0.659333
 O 0.4788 0.2651 0.68248   -0.605655
 O 0.6281 0.3399 0.63268   -0.775917
 O 0.8144 0.5199 0.66217   -0.791677
 O 0.9262 0.5658 0.75037   -0.662084
 O 0.8992 0.3204 0.38507   -0.664898
 O 0.8195 0.3758 0.46708   -0.841064
 O 0.5628 0.3662 0.50083   -0.69916
 O 0.3759 0.4081 0.44556   -0.749906
 O 0.3419 0.3918 0.81586   -0.641606
 O 0.232 0.5596 0.8008   -0.610556
 O 0.231 0.3104 0.70969   -0.611653
 O 0.1314 0.4821 0.69075   -0.659334
