{'_ref': 'TBD', '_srcid': 'CAKYAQ_clean', 'submitters': [{'name': 'Dalar Nazarian Jeff Camp and David Sholl', 'email': 'dalar@gatech.edu jcamp6@gatech.edu'}], '_method': 'VASP DFT with PBE;DDEC'}
data_CdH7C13NO4
_symmetry_space_group_name_H-M   'P 1'
_cell_length_a   9.23800000
_cell_length_b   9.74300004
_cell_length_c   18.22500000
_cell_angle_alpha   90.00000000
_cell_angle_beta   90.00000000
_cell_angle_gamma   104.93999760
_symmetry_Int_Tables_number   1
_chemical_formula_structural   CdH7C13NO4
_chemical_formula_sum   'Cd4 H28 C52 N4 O16'
_cell_volume   1584.90628717
_cell_formula_units_Z   4
loop_
 _symmetry_equiv_pos_site_id
 _symmetry_equiv_pos_as_xyz
  1  'x, y, z'
loop_
 _atom_site_label
 _atom_site_fract_x
 _atom_site_fract_y
 _atom_site_fract_z
 _atom_site_charge
 Cd 0.13315 0.43812 0.93392   1.002128
 Cd 0.86685 0.06188 0.43392   1.002128
 Cd 0.86685 0.56188 0.06608   1.002128
 Cd 0.13315 0.93812 0.56608   1.002127
 H 0.6328 0.8595 0.6667   0.104282
 H 0.9775 0.2022 0.6898   0.101942
 H 0.749 0.0226 0.8671   0.109651
 H 0.2163 0.607 0.7828   0.083109
 H 0.3959 0.7815 0.7259   0.137574
 H 0.6657 0.7765 0.8975   0.136102
 H 0.4755 0.606 0.9511   0.080201
 H 0.3672 0.6405 0.1667   0.104282
 H 0.0225 0.2978 0.1898   0.101942
 H 0.251 0.4774 0.3671   0.109651
 H 0.7837 0.893 0.2828   0.083109
 H 0.6041 0.7185 0.2259   0.137574
 H 0.3343 0.7235 0.3975   0.136102
 H 0.5245 0.894 0.4511   0.080201
 H 0.3672 0.1405 0.3333   0.104282
 H 0.0225 0.7978 0.3102   0.101942
 H 0.251 0.9774 0.1329   0.109651
 H 0.7837 0.393 0.2172   0.083109
 H 0.6041 0.2185 0.2741   0.137574
 H 0.3343 0.2235 0.1025   0.136102
 H 0.5245 0.394 0.0489   0.080201
 H 0.6328 0.3595 0.8333   0.104282
 H 0.9775 0.7022 0.8102   0.101942
 H 0.749 0.5226 0.6329   0.109651
 H 0.2163 0.107 0.7172   0.083109
 H 0.3959 0.2815 0.7741   0.137574
 H 0.6657 0.2765 0.6025   0.136102
 H 0.4755 0.106 0.5489   0.080201
 C 0.672 0.9195 0.7727   -0.019287
 C 0.6953 0.926 0.697   -0.049778
 C 0.8103 0.0303 0.6666   -0.142777
 C 0.9 0.1327 0.7105   -0.003168
 C 0.8754 0.1327 0.7856   -0.115026
 C 0.7634 0.0248 0.8166   -0.052501
 C 0.3071 0.6432 0.8066   0.198467
 C 0.415 0.7481 0.7718   -0.208511
 C 0.5529 0.8034 0.8063   0.133775
 C 0.5742 0.7457 0.8735   -0.213657
 C 0.4594 0.6418 0.9053   0.187219
 C 0.8372 0.0315 0.5844   0.646201
 C 0.9719 0.2487 0.8342   0.632114
 C 0.328 0.5805 0.2727   -0.019287
 C 0.3047 0.574 0.197   -0.049778
 C 0.1897 0.4697 0.1666   -0.142777
 C 0.1 0.3673 0.2105   -0.003168
 C 0.1246 0.3673 0.2856   -0.115026
 C 0.2366 0.4752 0.3166   -0.052501
 C 0.6929 0.8568 0.3066   0.198467
 C 0.585 0.7519 0.2718   -0.208511
 C 0.4471 0.6966 0.3063   0.133775
 C 0.4258 0.7543 0.3735   -0.213657
 C 0.5406 0.8582 0.4053   0.187219
 C 0.1628 0.4685 0.0844   0.646201
 C 0.0281 0.2513 0.3342   0.632114
 C 0.328 0.0805 0.2273   -0.019287
 C 0.3047 0.074 0.303   -0.049778
 C 0.1897 0.9697 0.3334   -0.142777
 C 0.1 0.8673 0.2895   -0.003168
 C 0.1246 0.8673 0.2144   -0.115026
 C 0.2366 0.9752 0.1834   -0.052501
 C 0.6929 0.3568 0.1934   0.198467
 C 0.585 0.2519 0.2282   -0.20851
 C 0.4471 0.1966 0.1937   0.133775
 C 0.4258 0.2543 0.1265   -0.213657
 C 0.5406 0.3582 0.0947   0.187219
 C 0.1628 0.9685 0.4156   0.646201
 C 0.0281 0.7513 0.1658   0.632114
 C 0.672 0.4195 0.7273   -0.019287
 C 0.6953 0.426 0.803   -0.049779
 C 0.8103 0.5303 0.8334   -0.142776
 C 0.9 0.6327 0.7895   -0.003168
 C 0.8754 0.6327 0.7144   -0.115026
 C 0.7634 0.5248 0.6834   -0.052501
 C 0.3071 0.1432 0.6934   0.198467
 C 0.415 0.2481 0.7282   -0.20851
 C 0.5529 0.3034 0.6937   0.133775
 C 0.5742 0.2457 0.6265   -0.213657
 C 0.4594 0.1418 0.5947   0.187219
 C 0.8372 0.5315 0.9156   0.646201
 C 0.9719 0.7487 0.6658   0.632114
 N 0.3266 0.5912 0.8727   -0.377017
 N 0.6734 0.9088 0.3727   -0.377017
 N 0.6734 0.4088 0.1273   -0.377017
 N 0.3266 0.0912 0.6273   -0.377017
 O 0.9681 0.0915 0.56146   -0.614982
 O 0.7316 0.976 0.543   -0.565609
 O 0.0773 0.3384 0.8058   -0.604405
 O 0.9382 0.2489 0.9007   -0.586047
 O 0.0319 0.4085 0.06146   -0.614982
 O 0.2684 0.524 0.043   -0.565609
 O 0.9227 0.1616 0.3058   -0.604405
 O 0.0618 0.2511 0.4007   -0.586048
 O 0.0319 0.9085 0.43854   -0.614982
 O 0.2684 0.024 0.457   -0.565609
 O 0.9227 0.6616 0.1942   -0.604405
 O 0.0618 0.7511 0.0993   -0.586048
 O 0.9681 0.5915 0.93854   -0.614982
 O 0.7316 0.476 0.957   -0.565609
 O 0.0773 0.8384 0.6942   -0.604405
 O 0.9382 0.7489 0.5993   -0.586048
