{'_ref': 'TBD', '_srcid': 'CAKYAQ_clean', 'submitters': [{'name': 'Dalar Nazarian Jeff Camp and David Sholl', 'email': 'dalar@gatech.edu jcamp6@gatech.edu'}], '_method': 'VASP DFT with PBE;DDEC'}
data_Dy2H18(C5O4)3
_symmetry_space_group_name_H-M   'P 1'
_cell_length_a   7.91800018
_cell_length_b   8.44190009
_cell_length_c   19.61700000
_cell_angle_alpha   87.81649820
_cell_angle_beta   85.33999818
_cell_angle_gamma   62.03249656
_symmetry_Int_Tables_number   1
_chemical_formula_structural   Dy2H18(C5O4)3
_chemical_formula_sum   'Dy4 H36 C30 O24'
_cell_volume   1154.29312561
_cell_formula_units_Z   2
loop_
 _symmetry_equiv_pos_site_id
 _symmetry_equiv_pos_as_xyz
  1  'x, y, z'
loop_
 _atom_site_label
 _atom_site_fract_x
 _atom_site_fract_y
 _atom_site_fract_z
 _atom_site_charge
 Dy 0.79437 0.9255 0.48756   2.292475
 Dy 0.28013 0.9255 0.01244   2.292074
 Dy 0.20563 0.0745 0.51244   2.292475
 Dy 0.71987 0.0745 0.98756   2.292074
 H 0.2468 0.5326 0.3219   0.122449
 H 0.0569 0.55 0.296   0.118607
 H 0.1843 0.8068 0.265   0.070868
 H 0.676 0.53 0.4621   0.146124
 H 0.8499 0.4416 0.4076   0.130107
 H 0.6399 0.4548 0.3265   0.070208
 H 0.4662 0.5466 0.3811   0.075602
 H 0.5075 0.757 0.3028   0.135864
 H 0.6986 0.7102 0.3366   0.120776
 H 0.2206 0.5326 0.1781   0.122672
 H 0.3931 0.55 0.204   0.118995
 H 0.0089 0.8068 0.235   0.070753
 H 0.794 0.53 0.0379   0.145816
 H 0.7085 0.4416 0.0924   0.129435
 H 0.9053 0.4548 0.1735   0.070195
 H 0.9872 0.5466 0.1189   0.074438
 H 0.7355 0.757 0.1972   0.135197
 H 0.5912 0.7102 0.1634   0.119897
 H 0.7532 0.4674 0.6781   0.122449
 H 0.9431 0.45 0.704   0.118607
 H 0.8157 0.1932 0.735   0.070868
 H 0.324 0.47 0.5379   0.146124
 H 0.1501 0.5584 0.5924   0.130107
 H 0.3601 0.5452 0.6735   0.070208
 H 0.5338 0.4534 0.6189   0.075602
 H 0.4925 0.243 0.6972   0.135864
 H 0.3014 0.2898 0.6634   0.120776
 H 0.7794 0.4674 0.8219   0.122672
 H 0.6069 0.45 0.796   0.118995
 H 0.9911 0.1932 0.765   0.070753
 H 0.206 0.47 0.9621   0.145816
 H 0.2915 0.5584 0.9076   0.129435
 H 0.0947 0.5452 0.8265   0.070195
 H 0.0128 0.4534 0.8811   0.074438
 H 0.2645 0.243 0.8028   0.135197
 H 0.4088 0.2898 0.8366   0.119897
 C 0.0082 0.7252 0.3725   0.726799
 C 0.1187 0.6178 0.3101   -0.337692
 C 0.7529 0.269 0.4444   0.820516
 C 0.7259 0.4508 0.4227   -0.368717
 C 0.5916 0.534 0.3659   -0.007493
 C 0.5722 0.7186 0.3449   -0.352616
 C 0.4605 0.8534 0.4001   0.823372
 C 0.2666 0.7252 0.1275   0.727176
 C 0.2635 0.6178 0.1899   -0.338866
 C 0.9781 0.269 0.0556   0.820681
 C 0.8233 0.4508 0.0773   -0.367639
 C 0.8744 0.534 0.1341   -0.006524
 C 0.7092 0.7186 0.1551   -0.35001
 C 0.6861 0.8534 0.0999   0.821451
 C 0.9918 0.2748 0.6275   0.726799
 C 0.8813 0.3822 0.6899   -0.337692
 C 0.2471 0.731 0.5556   0.820516
 C 0.2741 0.5492 0.5773   -0.368717
 C 0.4084 0.466 0.6341   -0.007493
 C 0.4278 0.2814 0.6551   -0.352616
 C 0.5395 0.1466 0.5999   0.823372
 C 0.7334 0.2748 0.8725   0.727176
 C 0.7365 0.3822 0.8101   -0.338866
 C 0.0219 0.731 0.9444   0.820681
 C 0.1767 0.5492 0.9227   -0.367639
 C 0.1256 0.466 0.8659   -0.006524
 C 0.2908 0.2814 0.8449   -0.35001
 C 0.3139 0.1466 0.9001   0.821451
 C 0.1346 0.7308 0.25   -0.016978
 C 0.8654 0.2692 0.75   -0.016978
 O 0.9092 0.8926 0.36961   -0.679982
 O 0.011 0.6448 0.42902   -0.755221
 O 0.9096 0.1556 0.46698   -0.868853
 O 0.6194 0.2262 0.44192   -0.685317
 O 0.2849 0.907 0.40909   -0.688641
 O 0.5413 0.9102 0.43924   -0.900536
 O 0.1982 0.8926 0.13039   -0.680151
 O 0.3442 0.6448 0.07098   -0.755153
 O 0.9348 0.1556 0.03302   -0.868604
 O 0.1544 0.2262 0.05808   -0.68548
 O 0.8081 0.907 0.09091   -0.687824
 O 0.5485 0.9102 0.06076   -0.900249
 O 0.0908 0.1074 0.63039   -0.679982
 O 0.989 0.3552 0.57098   -0.755221
 O 0.0904 0.8444 0.53302   -0.868853
 O 0.3806 0.7738 0.55808   -0.685317
 O 0.7151 0.093 0.59091   -0.688641
 O 0.4587 0.0898 0.56076   -0.900536
 O 0.8018 0.1074 0.86961   -0.680151
 O 0.6558 0.3552 0.92902   -0.755153
 O 0.0652 0.8444 0.96698   -0.868605
 O 0.8456 0.7738 0.94192   -0.68548
 O 0.1919 0.093 0.90909   -0.687824
 O 0.4515 0.0898 0.93924   -0.900249
