{'_ref': 'TBD', '_srcid': 'CAKYAQ_clean', 'submitters': [{'name': 'Dalar Nazarian Jeff Camp and David Sholl', 'email': 'dalar@gatech.edu jcamp6@gatech.edu'}], '_method': 'VASP DFT with PBE;DDEC'}
data_LaH3C7NO4
_symmetry_space_group_name_H-M   'P 1'
_cell_length_a   15.64600027
_cell_length_b   17.27619994
_cell_length_c   17.88608911
_cell_angle_alpha   79.25018278
_cell_angle_beta   64.06327282
_cell_angle_gamma   63.07529989
_symmetry_Int_Tables_number   1
_chemical_formula_structural   LaH3C7NO4
_chemical_formula_sum   'La8 H24 C56 N8 O32'
_cell_volume   3876.0290559
_cell_formula_units_Z   8
loop_
 _symmetry_equiv_pos_site_id
 _symmetry_equiv_pos_as_xyz
  1  'x, y, z'
loop_
 _atom_site_label
 _atom_site_fract_x
 _atom_site_fract_y
 _atom_site_fract_z
 _atom_site_charge
 La 0.69846 0.04998 0.82868   1.916142
 La 0.2153 0.32428 0.98662   1.971675
 La 0.07712 0.45002 0.67132   1.916344
 La 0.0262 0.17572 0.51338   1.972204
 La 0.30154 0.95002 0.17132   1.916142
 La 0.7847 0.67572 0.01338   1.971674
 La 0.92288 0.54998 0.32868   1.916344
 La 0.9738 0.82428 0.48662   1.972203
 H 0.6267 0.0082 0.568   0.107406
 H 0.4656 0.1286 0.5962   0.08975
 H 0.3847 0.2052 0.7194   0.10745
 H 0.0202 0.2205 0.8553   0.115145
 H 0.0118 0.1014 0.9396   0.09365
 H 0.0872 0.0604 0.0372   0.106592
 H 0.7029 0.4918 0.932   0.107022
 H 0.6904 0.3714 0.9038   0.092124
 H 0.8093 0.2948 0.7806   0.106735
 H 0.596 0.2795 0.6447   0.112344
 H 0.5528 0.3986 0.5604   0.095655
 H 0.6848 0.4396 0.4628   0.105114
 H 0.3733 0.9918 0.432   0.107406
 H 0.5344 0.8714 0.4038   0.08975
 H 0.6153 0.7948 0.2806   0.10745
 H 0.9798 0.7795 0.1447   0.115145
 H 0.9882 0.8986 0.0604   0.09365
 H 0.9128 0.9396 0.9628   0.106593
 H 0.2971 0.5082 0.068   0.107022
 H 0.3096 0.6286 0.0962   0.092124
 H 0.1907 0.7052 0.2194   0.106735
 H 0.404 0.7205 0.3553   0.112344
 H 0.4472 0.6014 0.4396   0.095655
 H 0.3152 0.5604 0.5372   0.105114
 C 0.7488 0.955 0.6544   0.70444
 C 0.6398 0.0216 0.6716   0.074119
 C 0.5938 0.0414 0.6162   -0.11175
 C 0.4973 0.1122 0.6336   -0.095803
 C 0.4492 0.1576 0.7066   -0.11724
 C 0.4978 0.1318 0.7604   0.102458
 C 0.4478 0.1719 0.8451   0.695379
 C 0.1057 0.3263 0.8547   0.691155
 C 0.095 0.2499 0.9061   0.108657
 C 0.0481 0.204 0.8952   -0.131348
 C 0.0437 0.1328 0.9452   -0.0921
 C 0.0876 0.1087 0.0041   -0.125177
 C 0.1316 0.1599 0.0115   0.070245
 C 0.185 0.1384 0.069   0.692263
 C 0.8582 0.545 0.8456   0.705709
 C 0.833 0.4784 0.8284   0.075419
 C 0.7514 0.4586 0.8838   -0.110858
 C 0.7431 0.3878 0.8664   -0.101116
 C 0.8134 0.3424 0.7934   -0.113113
 C 0.89 0.3682 0.7396   0.098857
 C 0.9648 0.3281 0.6549   0.692742
 C 0.7867 0.1737 0.6453   0.69332
 C 0.751 0.2501 0.5939   0.106103
 C 0.6473 0.296 0.6048   -0.124865
 C 0.6217 0.3672 0.5548   -0.099794
 C 0.7004 0.3913 0.4959   -0.119788
 C 0.803 0.3401 0.4885   0.069678
 C 0.8924 0.3616 0.431   0.693201
 C 0.2512 0.045 0.3456   0.70444
 C 0.3602 0.9784 0.3284   0.074119
 C 0.4062 0.9586 0.3838   -0.11175
 C 0.5027 0.8878 0.3664   -0.095803
 C 0.5508 0.8424 0.2934   -0.11724
 C 0.5022 0.8682 0.2396   0.102458
 C 0.5522 0.8281 0.1549   0.695379
 C 0.8943 0.6737 0.1453   0.691155
 C 0.905 0.7501 0.0939   0.108657
 C 0.9519 0.796 0.1048   -0.131348
 C 0.9563 0.8672 0.0548   -0.0921
 C 0.9124 0.8913 0.9959   -0.125177
 C 0.8684 0.8401 0.9885   0.070245
 C 0.815 0.8616 0.931   0.692263
 C 0.1418 0.455 0.1544   0.705709
 C 0.167 0.5216 0.1716   0.075419
 C 0.2486 0.5414 0.1162   -0.110858
 C 0.2569 0.6122 0.1336   -0.101116
 C 0.1866 0.6576 0.2066   -0.113113
 C 0.11 0.6318 0.2604   0.098857
 C 0.0352 0.6719 0.3451   0.692742
 C 0.2133 0.8263 0.3547   0.69332
 C 0.249 0.7499 0.4061   0.106103
 C 0.3527 0.704 0.3952   -0.124864
 C 0.3783 0.6328 0.4452   -0.099794
 C 0.2996 0.6087 0.5041   -0.119788
 C 0.197 0.6599 0.5115   0.069678
 C 0.1076 0.6384 0.569   0.693201
 N 0.5919 0.0668 0.7432   -0.510826
 N 0.1339 0.2302 0.9642   -0.527045
 N 0.9019 0.4332 0.7568   -0.509969
 N 0.8283 0.2698 0.5358   -0.525362
 N 0.4081 0.9332 0.2568   -0.510826
 N 0.8661 0.7698 0.0358   -0.527045
 N 0.0981 0.5668 0.2432   -0.509969
 N 0.1717 0.7302 0.4642   -0.525362
 O 0.7872 0.9521 0.7047   -0.706846
 O 0.7956 0.9084 0.5906   -0.789362
 O 0.5072 0.1502 0.8832   -0.785966
 O 0.3548 0.2221 0.8721   -0.691794
 O 0.1431 0.3672 0.8742   -0.779351
 O 0.0815 0.3439 0.7941   -0.701086
 O 0.1895 0.0709 0.1117   -0.76773
 O 0.2251 0.1869 0.0697   -0.71345
 O 0.944 0.5479 0.7953   -0.70712
 O 0.7946 0.5916 0.9094   -0.789643
 O 0.0406 0.3498 0.6168   -0.785283
 O 0.949 0.2779 0.6279   -0.689806
 O 0.8845 0.1328 0.6258   -0.781441
 O 0.7195 0.1561 0.7059   -0.700691
 O 0.8721 0.4291 0.3883   -0.769085
 O 0.9817 0.3131 0.4303   -0.71429
 O 0.2128 0.0479 0.2953   -0.706846
 O 0.2044 0.0916 0.4094   -0.789362
 O 0.4928 0.8498 0.1168   -0.785966
 O 0.6452 0.7779 0.1279   -0.691794
 O 0.8569 0.6328 0.1258   -0.779351
 O 0.9185 0.6561 0.2059   -0.701086
 O 0.8105 0.9291 0.8883   -0.76773
 O 0.7749 0.8131 0.9303   -0.71345
 O 0.056 0.4521 0.2047   -0.70712
 O 0.2054 0.4084 0.0906   -0.789643
 O 0.9594 0.6502 0.3832   -0.785283
 O 0.051 0.7221 0.3721   -0.689806
 O 0.1155 0.8672 0.3742   -0.781441
 O 0.2805 0.8439 0.2941   -0.700691
 O 0.1279 0.5709 0.6117   -0.769085
 O 0.0183 0.6869 0.5697   -0.714289
