{'_ref': 'TBD', '_srcid': 'CAKYAQ_clean', 'submitters': [{'name': 'Dalar Nazarian Jeff Camp and David Sholl', 'email': 'dalar@gatech.edu jcamp6@gatech.edu'}], '_method': 'VASP DFT with PBE;DDEC'}
data_ZnH11C19(NO2)2
_symmetry_space_group_name_H-M   'P 1'
_cell_length_a   11.44140000
_cell_length_b   15.13090000
_cell_length_c   18.08550000
_cell_angle_alpha   90.00000000
_cell_angle_beta   90.00000000
_cell_angle_gamma   90.00000000
_symmetry_Int_Tables_number   1
_chemical_formula_structural   ZnH11C19(NO2)2
_chemical_formula_sum   'Zn4 H44 C76 N8 O16'
_cell_volume   3130.93787376
_cell_formula_units_Z   4
loop_
 _symmetry_equiv_pos_site_id
 _symmetry_equiv_pos_as_xyz
  1  'x, y, z'
loop_
 _atom_site_label
 _atom_site_fract_x
 _atom_site_fract_y
 _atom_site_fract_z
 _atom_site_charge
 Zn 0.5 0.55213 0.09842   0.900274
 Zn 0.5 0.44787 0.90158   0.900273
 Zn 0.5 0.94787 0.59842   0.900274
 Zn 0.5 0.05213 0.40158   0.900273
 H 0.7106 0.667 0.0503   0.085315
 H 0.912 0.671 0.0516   0.122274
 H 0.908 0.4358 0.1369   0.11944
 H 0.7145 0.4404 0.1401   0.08167
 H 0.7106 0.333 0.9497   0.085315
 H 0.912 0.329 0.9484   0.122275
 H 0.908 0.5642 0.8631   0.119441
 H 0.7145 0.5596 0.8599   0.08167
 H 0.2894 0.833 0.5503   0.085315
 H 0.088 0.829 0.5516   0.122274
 H 0.092 0.0642 0.6369   0.11944
 H 0.2855 0.0596 0.6401   0.08167
 H 0.2894 0.167 0.4497   0.085315
 H 0.088 0.171 0.4484   0.122275
 H 0.092 0.9358 0.3631   0.119441
 H 0.2855 0.9404 0.3599   0.08167
 H 0.2894 0.333 0.9497   0.085315
 H 0.088 0.329 0.9484   0.122276
 H 0.092 0.5642 0.8631   0.119442
 H 0.2855 0.5596 0.8599   0.08167
 H 0.2894 0.667 0.0503   0.085315
 H 0.088 0.671 0.0516   0.122276
 H 0.092 0.4358 0.1369   0.119442
 H 0.2855 0.4404 0.1401   0.08167
 H 0.7106 0.167 0.4497   0.085315
 H 0.912 0.171 0.4484   0.122276
 H 0.908 0.9358 0.3631   0.119442
 H 0.7145 0.9404 0.3599   0.08167
 H 0.7106 0.833 0.5503   0.085315
 H 0.912 0.829 0.5516   0.122276
 H 0.908 0.0642 0.6369   0.119442
 H 0.7145 0.0596 0.6401   0.08167
 H 0.5 0.9618 0.8365   0.11684
 H 0.5 0.7966 0.0122   0.121464
 H 0.5 0.6996 0.805   0.105199
 H 0.5 0.0382 0.1635   0.116838
 H 0.5 0.2034 0.9878   0.121462
 H 0.5 0.3004 0.195   0.105199
 H 0.5 0.5382 0.3365   0.11684
 H 0.5 0.7034 0.5122   0.121464
 H 0.5 0.8004 0.305   0.105199
 H 0.5 0.4618 0.6635   0.116838
 H 0.5 0.2966 0.4878   0.121462
 H 0.5 0.1996 0.695   0.105199
 C 0.7508 0.6189 0.0697   0.180143
 C 0.8737 0.6217 0.0705   -0.205559
 C 0.9354 0.5556 0.0977   0.105827
 C 0.8704 0.4867 0.1204   -0.206177
 C 0.7536 0.4887 0.1202   0.180959
 C 0.7508 0.3811 0.9303   0.180143
 C 0.8737 0.3783 0.9295   -0.205559
 C 0.9354 0.4444 0.9023   0.105827
 C 0.8704 0.5133 0.8796   -0.206177
 C 0.7536 0.5113 0.8798   0.180959
 C 0.2492 0.8811 0.5697   0.180143
 C 0.1263 0.8783 0.5705   -0.205559
 C 0.0646 0.9444 0.5977   0.105827
 C 0.1296 0.0133 0.6204   -0.206177
 C 0.2464 0.0113 0.6202   0.180959
 C 0.2492 0.1189 0.4303   0.180143
 C 0.1263 0.1217 0.4295   -0.205559
 C 0.0646 0.0556 0.4023   0.105827
 C 0.1296 0.9867 0.3796   -0.206177
 C 0.2464 0.9887 0.3798   0.180959
 C 0.2492 0.3811 0.9303   0.180143
 C 0.1263 0.3783 0.9295   -0.20556
 C 0.0646 0.4444 0.9023   0.105828
 C 0.1296 0.5133 0.8796   -0.206177
 C 0.2464 0.5113 0.8798   0.180959
 C 0.2492 0.6189 0.0697   0.180143
 C 0.1263 0.6217 0.0705   -0.20556
 C 0.0646 0.5556 0.0977   0.105828
 C 0.1296 0.4867 0.1204   -0.206178
 C 0.2464 0.4887 0.1202   0.180959
 C 0.7508 0.1189 0.4303   0.180143
 C 0.8737 0.1217 0.4295   -0.20556
 C 0.9354 0.0556 0.4023   0.105828
 C 0.8704 0.9867 0.3796   -0.206177
 C 0.7536 0.9887 0.3798   0.180959
 C 0.7508 0.8811 0.5697   0.180143
 C 0.8737 0.8783 0.5705   -0.20556
 C 0.9354 0.9444 0.5977   0.105828
 C 0.8704 0.0133 0.6204   -0.206178
 C 0.7536 0.0113 0.6202   0.180959
 C 0.5 0.8339 0.8084   -0.144321
 C 0.5 0.9048 0.8557   -0.059786
 C 0.5 0.8925 0.9339   0.067763
 C 0.5 0.806 0.9614   -0.068167
 C 0.5 0.7349 0.9142   -0.187022
 C 0.5 0.7479 0.8368   -0.009977
 C 0.5 0.849 0.7262   0.686327
 C 0.5 0.6431 0.9447   0.681292
 C 0.5 0.9672 0.9813   -0.09695
 C 0.5 0.1661 0.1916   -0.14432
 C 0.5 0.0952 0.1443   -0.059783
 C 0.5 0.1075 0.0661   0.067735
 C 0.5 0.194 0.0386   -0.068164
 C 0.5 0.2651 0.0858   -0.187021
 C 0.5 0.2521 0.1632   -0.009977
 C 0.5 0.151 0.2738   0.686327
 C 0.5 0.3569 0.0553   0.681292
 C 0.5 0.0328 0.0187   -0.096797
 C 0.5 0.6661 0.3084   -0.144321
 C 0.5 0.5952 0.3557   -0.059786
 C 0.5 0.6075 0.4339   0.067763
 C 0.5 0.694 0.4614   -0.068167
 C 0.5 0.7651 0.4142   -0.187022
 C 0.5 0.7521 0.3368   -0.009977
 C 0.5 0.651 0.2262   0.686327
 C 0.5 0.8569 0.4447   0.681292
 C 0.5 0.5328 0.4813   -0.09695
 C 0.5 0.3339 0.6916   -0.14432
 C 0.5 0.4048 0.6443   -0.059783
 C 0.5 0.3925 0.5661   0.067735
 C 0.5 0.306 0.5386   -0.068164
 C 0.5 0.2349 0.5858   -0.187021
 C 0.5 0.2479 0.6632   -0.009977
 C 0.5 0.349 0.7738   0.686327
 C 0.5 0.1431 0.5553   0.681292
 C 0.5 0.4672 0.5187   -0.096797
 N 0.6908 0.5527 0.0945   -0.301273
 N 0.6908 0.4473 0.9055   -0.301274
 N 0.3092 0.9473 0.5945   -0.301273
 N 0.3092 0.0527 0.4055   -0.301274
 N 0.3092 0.4473 0.9055   -0.301274
 N 0.3092 0.5527 0.0945   -0.301274
 N 0.6908 0.0527 0.4055   -0.301274
 N 0.6908 0.9473 0.5945   -0.301274
 O 0.5 0.6359 0.0135   -0.610168
 O 0.5 0.5804 0.8998   -0.585901
 O 0.5 0.9282 0.7064   -0.630871
 O 0.5 0.7884 0.6842   -0.611301
 O 0.5 0.3641 0.9865   -0.610168
 O 0.5 0.4196 0.1002   -0.585901
 O 0.5 0.0718 0.2936   -0.63087
 O 0.5 0.2116 0.3158   -0.611301
 O 0.5 0.8641 0.5135   -0.610168
 O 0.5 0.9196 0.3998   -0.585901
 O 0.5 0.5718 0.2064   -0.630871
 O 0.5 0.7116 0.1842   -0.611301
 O 0.5 0.1359 0.4865   -0.610168
 O 0.5 0.0804 0.6002   -0.585901
 O 0.5 0.4282 0.7936   -0.63087
 O 0.5 0.2884 0.8158   -0.611301
