{'_ref': 'TBD', '_srcid': 'CAKYAQ_clean', 'submitters': [{'name': 'Dalar Nazarian Jeff Camp and David Sholl', 'email': 'dalar@gatech.edu jcamp6@gatech.edu'}], '_method': 'VASP DFT with PBE;DDEC'}
data_ZnH6C8NO4
_symmetry_space_group_name_H-M   'P 1'
_cell_length_a   7.31900000
_cell_length_b   14.61000000
_cell_length_c   20.56400000
_cell_angle_alpha   90.00000000
_cell_angle_beta   90.00000000
_cell_angle_gamma   90.00000000
_symmetry_Int_Tables_number   1
_chemical_formula_structural   ZnH6C8NO4
_chemical_formula_sum   'Zn8 H48 C64 N8 O32'
_cell_volume   2198.92065276
_cell_formula_units_Z   8
loop_
 _symmetry_equiv_pos_site_id
 _symmetry_equiv_pos_as_xyz
  1  'x, y, z'
loop_
 _atom_site_label
 _atom_site_fract_x
 _atom_site_fract_y
 _atom_site_fract_z
 _atom_site_charge
 Zn 0.2499 0.12516 0.12156   1.000519
 Zn 0.7626 0.37438 0.04537   0.986587
 Zn 0.7501 0.87484 0.62156   1.000519
 Zn 0.2374 0.62562 0.54537   0.986587
 Zn 0.2501 0.62516 0.12156   1.000519
 Zn 0.7374 0.87438 0.04537   0.986587
 Zn 0.7499 0.37484 0.62156   1.000519
 Zn 0.2626 0.12562 0.54537   0.986587
 H 0.259 0.2724 0.9432   0.166251
 H 0.2618 0.1693 0.9644   0.1676
 H 0.7483 0.5238 0.2225   0.176238
 H 0.7541 0.4209 0.2008   0.180915
 H 0.1143 0.135 0.2637   0.070034
 H 0.0932 0.2323 0.3509   0.134589
 H 0.2888 0.4303 0.2353   0.126527
 H 0.3097 0.3253 0.1541   0.084193
 H 0.1191 0.5229 0.3121   0.133687
 H 0.1382 0.6198 0.3986   0.076174
 H 0.2816 0.4181 0.5139   0.09133
 H 0.2645 0.3167 0.4292   0.126165
 H 0.741 0.7276 0.4432   0.166251
 H 0.7382 0.8307 0.4644   0.1676
 H 0.2517 0.4762 0.7225   0.176238
 H 0.2459 0.5791 0.7008   0.180915
 H 0.8857 0.865 0.7637   0.070034
 H 0.9068 0.7677 0.8509   0.134589
 H 0.7112 0.5697 0.7353   0.126527
 H 0.6903 0.6747 0.6541   0.084193
 H 0.8809 0.4771 0.8121   0.133687
 H 0.8618 0.3802 0.8986   0.076174
 H 0.7184 0.5819 0.0139   0.09133
 H 0.7355 0.6833 0.9292   0.126165
 H 0.241 0.7724 0.9432   0.16625
 H 0.2382 0.6693 0.9644   0.1676
 H 0.7517 0.0238 0.2225   0.176238
 H 0.7459 0.9209 0.2008   0.180915
 H 0.3857 0.635 0.2637   0.070032
 H 0.4068 0.7323 0.3509   0.134588
 H 0.2112 0.9303 0.2353   0.126527
 H 0.1903 0.8253 0.1541   0.084193
 H 0.3809 0.0229 0.3121   0.133686
 H 0.3618 0.1198 0.3986   0.076173
 H 0.2184 0.9181 0.5139   0.09133
 H 0.2355 0.8167 0.4292   0.126164
 H 0.759 0.2276 0.4432   0.16625
 H 0.7618 0.3307 0.4644   0.1676
 H 0.2483 0.9762 0.7225   0.176238
 H 0.2541 0.0791 0.7008   0.180915
 H 0.6143 0.365 0.7637   0.070032
 H 0.5932 0.2677 0.8509   0.134588
 H 0.7888 0.0697 0.7353   0.126527
 H 0.8097 0.1747 0.6541   0.084193
 H 0.6191 0.9771 0.8121   0.133686
 H 0.6382 0.8802 0.8986   0.076173
 H 0.7816 0.0819 0.0139   0.09133
 H 0.7645 0.1833 0.9292   0.126164
 C 0.4337 0.2495 0.021   0.771463
 C 0.2594 0.2317 0.9805   -0.555697
 C 0.0827 0.2466 0.0199   0.779644
 C 0.5844 0.4978 0.145   0.77414
 C 0.7522 0.4835 0.185   -0.570192
 C 0.9229 0.5015 0.1476   0.775233
 C 0.1531 0.1952 0.2586   0.188554
 C 0.1387 0.2533 0.3114   -0.219962
 C 0.1935 0.3439 0.3043   0.097841
 C 0.2552 0.3699 0.2431   -0.194786
 C 0.2663 0.3066 0.1945   0.183995
 C 0.194 0.4079 0.3602   0.102929
 C 0.1539 0.5004 0.3525   -0.211595
 C 0.1658 0.5583 0.4049   0.173308
 C 0.2501 0.4398 0.4729   0.179355
 C 0.2401 0.3783 0.4219   -0.198476
 C 0.5663 0.7505 0.521   0.771463
 C 0.7406 0.7683 0.4805   -0.555696
 C 0.9173 0.7534 0.5199   0.779644
 C 0.4156 0.5022 0.645   0.77414
 C 0.2478 0.5165 0.685   -0.570192
 C 0.0771 0.4985 0.6476   0.775233
 C 0.8469 0.8048 0.7586   0.188554
 C 0.8613 0.7467 0.8114   -0.219962
 C 0.8065 0.6561 0.8043   0.097841
 C 0.7448 0.6301 0.7431   -0.194786
 C 0.7337 0.6934 0.6945   0.183995
 C 0.806 0.5921 0.8602   0.102929
 C 0.8461 0.4996 0.8525   -0.211595
 C 0.8342 0.4417 0.9049   0.173308
 C 0.7499 0.5602 0.9729   0.179355
 C 0.7599 0.6217 0.9219   -0.198476
 C 0.0663 0.7495 0.021   0.771462
 C 0.2406 0.7317 0.9805   -0.555696
 C 0.4173 0.7466 0.0199   0.779644
 C 0.9156 0.9978 0.145   0.77414
 C 0.7478 0.9835 0.185   -0.570192
 C 0.5771 0.0015 0.1476   0.775233
 C 0.3469 0.6952 0.2586   0.188554
 C 0.3613 0.7533 0.3114   -0.219962
 C 0.3065 0.8439 0.3043   0.097841
 C 0.2448 0.8699 0.2431   -0.194786
 C 0.2337 0.8066 0.1945   0.183995
 C 0.306 0.9079 0.3602   0.102929
 C 0.3461 0.000399999999999 0.3525   -0.211595
 C 0.3342 0.0583 0.4049   0.173308
 C 0.2499 0.9398 0.4729   0.179355
 C 0.2599 0.8783 0.4219   -0.198476
 C 0.9337 0.2505 0.521   0.771462
 C 0.7594 0.2683 0.4805   -0.555696
 C 0.5827 0.2534 0.5199   0.779644
 C 0.0844 0.0022 0.645   0.77414
 C 0.2522 0.0165 0.685   -0.570192
 C 0.4229 0.9985 0.6476   0.775233
 C 0.6531 0.3048 0.7586   0.188554
 C 0.6387 0.2467 0.8114   -0.219962
 C 0.6935 0.1561 0.8043   0.097841
 C 0.7552 0.1301 0.7431   -0.194786
 C 0.7663 0.1934 0.6945   0.183995
 C 0.694 0.0921 0.8602   0.102929
 C 0.6539 0.9996 0.8525   -0.211595
 C 0.6658 0.9417 0.9049   0.173308
 C 0.7501 0.0602 0.9729   0.179355
 C 0.7401 0.1217 0.9219   -0.198476
 N 0.2183 0.2199 0.202   -0.314989
 N 0.2157 0.5308 0.4656   -0.319114
 N 0.7817 0.7801 0.702   -0.314989
 N 0.7843 0.4692 0.9656   -0.319114
 N 0.2817 0.7199 0.202   -0.314989
 N 0.2843 0.0308 0.4656   -0.319114
 N 0.7183 0.2801 0.702   -0.314989
 N 0.7157 0.9692 0.9656   -0.319114
 O 0.4487 0.2082 0.0746   -0.644308
 O 0.5465 0.3046 0.9988   -0.600586
 O 0.0574 0.2011 0.0703   -0.638028
 O 0.9753 0.3053 0.9989   -0.595224
 O 0.565 0.4558 0.0912   -0.627943
 O 0.4616 0.55 0.1679   -0.605951
 O 0.9551 0.4559 0.0967   -0.633517
 O 0.0335 0.561 0.1706   -0.6169
 O 0.5513 0.7918 0.5746   -0.644308
 O 0.4535 0.6954 0.4988   -0.600586
 O 0.9426 0.7989 0.5703   -0.638028
 O 0.0247 0.6947 0.4989   -0.595224
 O 0.435 0.5442 0.5912   -0.627943
 O 0.5384 0.45 0.6679   -0.605951
 O 0.0449 0.5441 0.5967   -0.633517
 O 0.9665 0.439 0.6706   -0.6169
 O 0.0513 0.7082 0.0746   -0.644308
 O 0.9535 0.8046 0.9988   -0.600586
 O 0.4426 0.7011 0.0703   -0.638028
 O 0.5247 0.8053 0.9989   -0.595224
 O 0.935 0.9558 0.0912   -0.627943
 O 0.0384 0.05 0.1679   -0.605951
 O 0.5449 0.9559 0.0967   -0.633517
 O 0.4665 0.061 0.1706   -0.616899
 O 0.9487 0.2918 0.5746   -0.644308
 O 0.0465 0.1954 0.4988   -0.600586
 O 0.5574 0.2989 0.5703   -0.638028
 O 0.4753 0.1947 0.4989   -0.595224
 O 0.065 0.0442 0.5912   -0.627943
 O 0.9616 0.95 0.6679   -0.605951
 O 0.4551 0.0441 0.5967   -0.633517
 O 0.5335 0.939 0.6706   -0.616899
