{'_ref': 'TBD', '_srcid': 'CAKYAQ_clean', 'submitters': [{'name': 'Dalar Nazarian Jeff Camp and David Sholl', 'email': 'dalar@gatech.edu jcamp6@gatech.edu'}], '_method': 'VASP DFT with PBE;DDEC'}
data_ZnH8C9NO4
_symmetry_space_group_name_H-M   'P 1'
_cell_length_a   7.24900000
_cell_length_b   7.41899969
_cell_length_c   23.93000000
_cell_angle_alpha   90.00000000
_cell_angle_beta   90.00000000
_cell_angle_gamma   90.36999632
_symmetry_Int_Tables_number   1
_chemical_formula_structural   ZnH8C9NO4
_chemical_formula_sum   'Zn4 H32 C36 N4 O16'
_cell_volume   1286.9364332
_cell_formula_units_Z   4
loop_
 _symmetry_equiv_pos_site_id
 _symmetry_equiv_pos_as_xyz
  1  'x, y, z'
loop_
 _atom_site_label
 _atom_site_fract_x
 _atom_site_fract_y
 _atom_site_fract_z
 _atom_site_charge
 Zn 0.42856 0.42295 0.78196   0.995513
 Zn 0.07144 0.07705 0.28196   0.995513
 Zn 0.57144 0.57705 0.21804   0.995514
 Zn 0.92856 0.92295 0.71804   0.995514
 H 0.4271 0.5029 0.649   0.169763
 H 0.4298 0.7067 0.6268   0.164723
 H 0.3801 0.6089 0.9849   0.127794
 H 0.3923 0.4195 0.9086   0.075178
 H 0.4517 0.8309 0.8065   0.09163
 H 0.4416 0.0329 0.8799   0.135394
 H 0.3353 0.0812 0.9797   0.098101
 H 0.339 0.9138 0.0218   0.097931
 H 0.0729 0.9971 0.149   0.169764
 H 0.0702 0.7933 0.1268   0.164724
 H 0.1199 0.8911 0.4849   0.127793
 H 0.1077 0.0805 0.4086   0.075178
 H 0.0483 0.6691 0.3065   0.09163
 H 0.0584 0.4671 0.3799   0.135394
 H 0.1647 0.4188 0.4797   0.098101
 H 0.161 0.5862 0.5218   0.097932
 H 0.5729 0.4971 0.351   0.169763
 H 0.5702 0.2933 0.3732   0.164724
 H 0.6199 0.3911 0.0151   0.127792
 H 0.6077 0.5805 0.0914   0.075177
 H 0.5483 0.1691 0.1935   0.09163
 H 0.5584 0.9671 0.1201   0.135393
 H 0.6647 0.9188 0.0203   0.098101
 H 0.661 0.0862 0.9782   0.097931
 H 0.9271 0.0029 0.851   0.169764
 H 0.9298 0.2067 0.8732   0.164724
 H 0.8801 0.1089 0.5151   0.127792
 H 0.8923 0.9195 0.5914   0.075177
 H 0.9517 0.3309 0.6935   0.09163
 H 0.9416 0.5329 0.6201   0.135393
 H 0.8353 0.5812 0.5203   0.098101
 H 0.839 0.4138 0.4782   0.097932
 C 0.6015 0.6686 0.69511   0.772295
 C 0.4284 0.6308 0.66081   -0.563455
 C 0.2548 0.6702 0.69464   0.77123
 C 0.3954 0.6583 0.9485   -0.265398
 C 0.4028 0.5458 0.90271   0.183239
 C 0.4374 0.7854 0.84333   0.188059
 C 0.4314 0.9072 0.887   -0.236408
 C 0.4102 0.8444 0.94153   0.156745
 C 0.4051 0.9723 0.99042   -0.162873
 C 0.8985 0.8314 0.19511   0.772295
 C 0.0716 0.8692 0.16081   -0.563456
 C 0.2452 0.8298 0.19464   0.77123
 C 0.1046 0.8417 0.4485   -0.265398
 C 0.0972 0.9542 0.40271   0.183239
 C 0.0626 0.7146 0.34333   0.188059
 C 0.0686 0.5928 0.387   -0.236408
 C 0.0898 0.6556 0.44153   0.156745
 C 0.0949 0.5277 0.49042   -0.162873
 C 0.3985 0.3314 0.30489   0.772294
 C 0.5716 0.3692 0.33919   -0.563455
 C 0.7452 0.3298 0.30536   0.771229
 C 0.6046 0.3417 0.0515   -0.265397
 C 0.5972 0.4542 0.09729   0.183239
 C 0.5626 0.2146 0.15667   0.188059
 C 0.5686 0.0928 0.113   -0.236408
 C 0.5898 0.1556 0.05847   0.156745
 C 0.5949 0.0277 0.00958   -0.162875
 C 0.1015 0.1686 0.80489   0.772294
 C 0.9284 0.1308 0.83919   -0.563456
 C 0.7548 0.1702 0.80536   0.77123
 C 0.8954 0.1583 0.5515   -0.265397
 C 0.9028 0.0458 0.59729   0.183239
 C 0.9374 0.2854 0.65667   0.188059
 C 0.9314 0.4072 0.613   -0.236408
 C 0.9102 0.3444 0.55847   0.156745
 C 0.9051 0.4723 0.50958   -0.162875
 N 0.424 0.6062 0.8503   -0.316075
 N 0.076 0.8938 0.3503   -0.316075
 N 0.576 0.3938 0.1497   -0.316075
 N 0.924 0.1062 0.6497   -0.316075
 O 0.6255 0.582 0.7398   -0.632265
 O 0.7123 0.7858 0.67674   -0.604906
 O 0.2304 0.5829 0.73975   -0.640904
 O 0.1459 0.786 0.67593   -0.605311
 O 0.8745 0.918 0.2398   -0.632265
 O 0.7877 0.7142 0.17674   -0.604906
 O 0.2696 0.9171 0.23975   -0.640904
 O 0.3541 0.714 0.17593   -0.605311
 O 0.3745 0.418 0.2602   -0.632264
 O 0.2877 0.2142 0.32326   -0.604905
 O 0.7696 0.4171 0.26025   -0.640903
 O 0.8541 0.214 0.32407   -0.60531
 O 0.1255 0.082 0.7602   -0.632264
 O 0.2123 0.2858 0.82326   -0.604905
 O 0.7304 0.0829 0.76025   -0.640903
 O 0.6459 0.286 0.82407   -0.60531
