{'_ref': 'TBD', '_srcid': 'CAKYAQ_clean', 'submitters': [{'name': 'Dalar Nazarian Jeff Camp and David Sholl', 'email': 'dalar@gatech.edu jcamp6@gatech.edu'}], '_method': 'VASP DFT with PBE;DDEC'}
data_La(CO2)4
_symmetry_space_group_name_H-M   'P 1'
_cell_length_a   10.01600042
_cell_length_b   11.38000032
_cell_length_c   12.82100000
_cell_angle_alpha   80.38999863
_cell_angle_beta   80.65000025
_cell_angle_gamma   66.33999785
_symmetry_Int_Tables_number   1
_chemical_formula_structural   La(CO2)4
_chemical_formula_sum   'La4 C16 O32'
_cell_volume   1312.3475113
_cell_formula_units_Z   4
loop_
 _symmetry_equiv_pos_site_id
 _symmetry_equiv_pos_as_xyz
  1  'x, y, z'
loop_
 _atom_site_label
 _atom_site_fract_x
 _atom_site_fract_y
 _atom_site_fract_z
 _atom_site_charge
 La 0.69862 0.89186 0.78818   2.017601
 La 0.38025 0.51211 0.74961   2.014852
 La 0.30138 0.10814 0.21182   2.017601
 La 0.61975 0.48789 0.25039   2.014848
 C 0.547 0.6766 0.8265   0.543932
 C 0.5196 0.7398 0.7162   0.571701
 C 0.6001 0.2061 0.7893   0.469766
 C 0.508 0.2018 0.7137   0.570907
 C 0.0567 0.7369 0.8034   0.517601
 C 0.02 0.6379 0.7592   0.567621
 C 0.58 0.4657 0.5098   0.546894
 C 0.4322 0.0298 0.9668   0.528962
 C 0.453 0.3234 0.1735   0.543932
 C 0.4804 0.2602 0.2838   0.571701
 C 0.3999 0.7939 0.2107   0.469766
 C 0.492 0.7982 0.2863   0.570907
 C 0.9433 0.2631 0.1966   0.5176
 C 0.98 0.3621 0.2408   0.56762
 C 0.42 0.5343 0.4902   0.546894
 C 0.5678 0.9702 0.0332   0.528963
 O 0.4506 0.6983 0.6676   -0.539625
 O 0.5653 0.8265 0.6816   -0.534961
 O 0.6076 0.717 0.881   -0.528927
 O 0.5091 0.5811 0.8622   -0.544723
 O 0.3982 0.3001 0.6962   -0.527801
 O 0.58 0.3105 0.8264   -0.483647
 O 0.5415 0.0928 0.6891   -0.538934
 O 0.7112 0.1003 0.8184   -0.497479
 O 0.9514 0.8402 0.8291   -0.527476
 O 0.8883 0.6719 0.7481   -0.560862
 O 0.1222 0.5363 0.7417   -0.518995
 O 0.1867 0.7165 0.8066   -0.516077
 O 0.5994 0.4394 0.6097   -0.517877
 O 0.6777 0.4344 0.4355   -0.522072
 O 0.4477 0.0087 0.8749   -0.488862
 O 0.3157 0.1034 0.0159   -0.501514
 O 0.5494 0.3017 0.3324   -0.539625
 O 0.4347 0.1735 0.3184   -0.534961
 O 0.3924 0.283 0.119   -0.528927
 O 0.4909 0.4189 0.1378   -0.544723
 O 0.6018 0.6999 0.3038   -0.527801
 O 0.42 0.6895 0.1736   -0.483647
 O 0.4585 0.9072 0.3109   -0.538934
 O 0.2888 0.8997 0.1816   -0.497479
 O 0.0486 0.1598 0.1709   -0.527476
 O 0.1117 0.3281 0.2519   -0.560862
 O 0.8778 0.4637 0.2583   -0.518995
 O 0.8133 0.2835 0.1934   -0.516077
 O 0.4006 0.5606 0.3903   -0.517877
 O 0.3223 0.5656 0.5645   -0.522072
 O 0.5523 0.9913 0.1251   -0.488862
 O 0.6843 0.8966 0.9841   -0.501514
