{'_ref': 'TBD', '_srcid': 'CAKYAQ_clean', 'submitters': [{'name': 'Dalar Nazarian Jeff Camp and David Sholl', 'email': 'dalar@gatech.edu jcamp6@gatech.edu'}], '_method': 'VASP DFT with PBE;DDEC'}
data_MgH8(C7O2)2
_symmetry_space_group_name_H-M   'P 1'
_cell_length_a   12.19480000
_cell_length_b   13.78350016
_cell_length_c   18.38400000
_cell_angle_alpha   90.00000000
_cell_angle_beta   90.00000000
_cell_angle_gamma   113.95999796
_symmetry_Int_Tables_number   1
_chemical_formula_structural   MgH8(C7O2)2
_chemical_formula_sum   'Mg6 H48 C84 O24'
_cell_volume   2823.83451904
_cell_formula_units_Z   6
loop_
 _symmetry_equiv_pos_site_id
 _symmetry_equiv_pos_as_xyz
  1  'x, y, z'
loop_
 _atom_site_label
 _atom_site_fract_x
 _atom_site_fract_y
 _atom_site_fract_z
 _atom_site_charge
 Mg 0.68007 0.91583 0.52072   1.620004
 Mg 0.81993 0.08417 0.02072   1.620004
 Mg 0.31993 0.08417 0.47928   1.620003
 Mg 0.18007 0.91583 0.97928   1.620003
 Mg 0.0 0.0 0.5   1.565568
 Mg 0.5 0.0 0.0   1.565568
 H 0.6588 0.7098 0.6985   0.098186
 H 0.6381 0.5652 0.7719   0.096388
 H 0.9485 0.5688 0.6905   0.10231
 H 0.9733 0.7185 0.6213   0.07846
 H 0.588 0.3761 0.7578   0.105984
 H 0.5538 0.2205 0.822   0.108855
 H 0.906 0.333 0.8743   0.102341
 H 0.9419 0.4873 0.8081   0.10169
 H 0.000599999999999 0.2267 0.5542   0.097469
 H 0.0889 0.4111 0.5632   0.098245
 H 0.8412 0.43 0.4242   0.105781
 H 0.7484 0.2454 0.4188   0.102878
 H 0.8412 0.2902 0.1985   0.098186
 H 0.8619 0.4348 0.2719   0.096388
 H 0.5515 0.4312 0.1905   0.10231
 H 0.5267 0.2815 0.1213   0.07846
 H 0.912 0.6239 0.2578   0.105984
 H 0.9462 0.7795 0.322   0.108855
 H 0.594 0.667 0.3743   0.102341
 H 0.5581 0.5127 0.3081   0.10169
 H 0.4994 0.7733 0.0542   0.097469
 H 0.4111 0.5889 0.0632   0.098245
 H 0.6588 0.57 0.9242   0.10578
 H 0.7516 0.7546 0.9188   0.102878
 H 0.3412 0.2902 0.3015   0.098186
 H 0.3619 0.4348 0.2281   0.096388
 H 0.0515 0.4312 0.3095   0.102309
 H 0.0267 0.2815 0.3787   0.07846
 H 0.412 0.6239 0.2422   0.105984
 H 0.4462 0.7795 0.178   0.108855
 H 0.094 0.667 0.1257   0.102341
 H 0.0581 0.5127 0.1919   0.10169
 H 0.9994 0.7733 0.4458   0.097469
 H 0.9111 0.5889 0.4368   0.098245
 H 0.1588 0.57 0.5758   0.105781
 H 0.2516 0.7546 0.5812   0.102878
 H 0.1588 0.7098 0.8015   0.098186
 H 0.1381 0.5652 0.7281   0.096388
 H 0.4485 0.5688 0.8095   0.102309
 H 0.4733 0.7185 0.8787   0.07846
 H 0.088 0.3761 0.7422   0.105984
 H 0.0538 0.2205 0.678   0.108855
 H 0.406 0.333 0.6257   0.102341
 H 0.4419 0.4873 0.6919   0.10169
 H 0.5006 0.2267 0.9458   0.097469
 H 0.5889 0.4111 0.9368   0.098245
 H 0.3412 0.43 0.0758   0.10578
 H 0.2484 0.2454 0.0812   0.102878
 C 0.82699 0.81854 0.60149   0.807016
 C 0.81701 0.72754 0.65119   -0.161436
 C 0.71797 0.68153 0.69681   -0.027859
 C 0.70497 0.59437 0.74005   -0.159253
 C 0.78895 0.5493 0.73714   0.056782
 C 0.8893 0.59712 0.69241   -0.149586
 C 0.90366 0.68604 0.65052   -0.016652
 C 0.76851 0.44997 0.77771   0.053332
 C 0.65292 0.36814 0.78171   -0.153504
 C 0.63235 0.27534 0.82035   -0.025496
 C 0.72563 0.26213 0.85648   -0.16719
 C 0.84112 0.3418 0.85101   -0.024844
 C 0.86242 0.43426 0.81177   -0.157993
 C 0.70196 0.16665 0.90495   0.789997
 C 0.80335 0.09949 0.48659   0.744245
 C 0.86487 0.21764 0.48666   -0.142974
 C 0.96668 0.26779 0.52872   -0.005325
 C 0.01951 0.37797 0.53384   -0.132763
 C 0.97248 0.44105 0.49652   0.053069
 C 0.87249 0.3891 0.45217   -0.133346
 C 0.81788 0.27893 0.44802   -0.039766
 C 0.67301 0.18146 0.10149   0.807016
 C 0.68299 0.27246 0.15119   -0.161436
 C 0.78203 0.31847 0.19681   -0.027859
 C 0.79503 0.40563 0.24005   -0.159253
 C 0.71105 0.4507 0.23714   0.056782
 C 0.6107 0.40288 0.19241   -0.149586
 C 0.59634 0.31396 0.15052   -0.016652
 C 0.73149 0.55003 0.27771   0.053332
 C 0.84708 0.63186 0.28171   -0.153504
 C 0.86765 0.72466 0.32035   -0.025496
 C 0.77437 0.73787 0.35648   -0.16719
 C 0.65888 0.6582 0.35101   -0.024844
 C 0.63758 0.56574 0.31177   -0.157993
 C 0.79804 0.83335 0.40495   0.789997
 C 0.69665 0.90051 0.98659   0.744245
 C 0.63513 0.78236 0.98666   -0.142974
 C 0.53332 0.73221 0.02872   -0.005325
 C 0.48049 0.62203 0.03384   -0.132763
 C 0.52752 0.55895 0.99652   0.053069
 C 0.62751 0.6109 0.95217   -0.133346
 C 0.68212 0.72107 0.94802   -0.039766
 C 0.17301 0.18146 0.39851   0.807016
 C 0.18299 0.27246 0.34881   -0.161436
 C 0.28203 0.31847 0.30319   -0.027859
 C 0.29503 0.40563 0.25995   -0.159253
 C 0.21105 0.4507 0.26286   0.056782
 C 0.1107 0.40288 0.30759   -0.149586
 C 0.09634 0.31396 0.34948   -0.016652
 C 0.23149 0.55003 0.22229   0.053332
 C 0.34708 0.63186 0.21829   -0.153504
 C 0.36765 0.72466 0.17965   -0.025496
 C 0.27437 0.73787 0.14352   -0.16719
 C 0.15888 0.6582 0.14899   -0.024844
 C 0.13758 0.56574 0.18823   -0.157993
 C 0.29804 0.83335 0.09505   0.789997
 C 0.19665 0.90051 0.51341   0.744245
 C 0.13513 0.78236 0.51334   -0.142974
 C 0.03332 0.73221 0.47128   -0.005325
 C 0.98049 0.62203 0.46616   -0.132762
 C 0.02752 0.55895 0.50348   0.053069
 C 0.12751 0.6109 0.54783   -0.133346
 C 0.18212 0.72107 0.55198   -0.039766
 C 0.32699 0.81854 0.89851   0.807015
 C 0.31701 0.72754 0.84881   -0.161436
 C 0.21797 0.68153 0.80319   -0.027859
 C 0.20497 0.59437 0.75995   -0.159253
 C 0.28895 0.5493 0.76286   0.056782
 C 0.3893 0.59712 0.80759   -0.149586
 C 0.40366 0.68604 0.84948   -0.016652
 C 0.26851 0.44997 0.72229   0.053332
 C 0.15292 0.36814 0.71829   -0.153504
 C 0.13235 0.27534 0.67965   -0.025496
 C 0.22563 0.26213 0.64352   -0.16719
 C 0.34112 0.3418 0.64899   -0.024844
 C 0.36242 0.43426 0.68823   -0.157993
 C 0.20196 0.16665 0.59505   0.789997
 C 0.30335 0.09949 0.01341   0.744245
 C 0.36487 0.21764 0.01334   -0.142974
 C 0.46668 0.26779 0.97128   -0.005325
 C 0.51951 0.37797 0.96616   -0.132762
 C 0.47248 0.44105 0.00348   0.053069
 C 0.37249 0.3891 0.04783   -0.133345
 C 0.31788 0.27893 0.05198   -0.039766
 O 0.92845 0.87694 0.57684   -0.689793
 O 0.7296 0.82622 0.58845   -0.839465
 O 0.59418 0.10621 0.91731   -0.703621
 O 0.79311 0.15751 0.93   -0.808252
 O 0.69754 0.05575 0.46414   -0.730371
 O 0.85629 0.045 0.51447   -0.836326
 O 0.57155 0.12306 0.07684   -0.689793
 O 0.7704 0.17378 0.08845   -0.839465
 O 0.90582 0.89379 0.41731   -0.703621
 O 0.70689 0.84249 0.43   -0.808252
 O 0.80246 0.94425 0.96414   -0.730371
 O 0.64371 0.955 0.01447   -0.836326
 O 0.07155 0.12306 0.42316   -0.689793
 O 0.2704 0.17378 0.41155   -0.839464
 O 0.40582 0.89379 0.08269   -0.703621
 O 0.20689 0.84249 0.07   -0.808251
 O 0.30246 0.94425 0.53586   -0.73037
 O 0.14371 0.955 0.48553   -0.836326
 O 0.42845 0.87694 0.92316   -0.689793
 O 0.2296 0.82622 0.91155   -0.839464
 O 0.09418 0.10621 0.58269   -0.703621
 O 0.29311 0.15751 0.57   -0.808251
 O 0.19754 0.05575 0.03586   -0.73037
 O 0.35629 0.045 0.98553   -0.836326
