{'_ref': 'TBD', '_srcid': 'CAKYAQ_clean', 'submitters': [{'name': 'Dalar Nazarian Jeff Camp and David Sholl', 'email': 'dalar@gatech.edu jcamp6@gatech.edu'}], '_method': 'VASP DFT with PBE;DDEC'}
data_Ni2H33C48(N2O5)2
_symmetry_space_group_name_H-M   'P 1'
_cell_length_a   11.27500010
_cell_length_b   13.28799953
_cell_length_c   18.77400000
_cell_angle_alpha   92.21099822
_cell_angle_beta   100.98799819
_cell_angle_gamma   104.96000009
_symmetry_Int_Tables_number   1
_chemical_formula_structural   Ni2H33C48(N2O5)2
_chemical_formula_sum   'Ni4 H66 C96 N8 O20'
_cell_volume   2656.15710516
_cell_formula_units_Z   2
loop_
 _symmetry_equiv_pos_site_id
 _symmetry_equiv_pos_as_xyz
  1  'x, y, z'
loop_
 _atom_site_label
 _atom_site_fract_x
 _atom_site_fract_y
 _atom_site_fract_z
 _atom_site_charge
 Ni 0.04928 0.60947 0.92827   0.825907
 Ni 0.95072 0.39053 0.07173   0.825908
 Ni 0.5 0.5 0.5   0.600832
 Ni 0.5 0.0 0.0   0.004368
 H 0.8474 0.2643 0.4251   0.437374
 H 0.6353 0.064 0.3375   0.087284
 H 0.4462 0.9415 0.2927   0.129627
 H 0.2988 0.0526 0.4466   0.129464
 H 0.4881 0.1732 0.4913   0.100657
 H 0.2187 0.9585 0.2105   0.125297
 H 0.1528 0.8407 0.1066   0.100784
 H 0.1026 0.6028 0.2312   0.113016
 H 0.1793 0.7195 0.3349   0.155908
 H 0.8931 0.6995 0.0162   0.080901
 H 0.6913 0.6898 0.0209   0.124184
 H 0.5835 0.5084 0.834   0.130871
 H 0.7902 0.5222 0.8354   0.086619
 H 0.1367 0.9396 0.8246   0.088345
 H 0.1051 0.0413 0.7283   0.132988
 H 0.9024 0.7841 0.6006   0.123728
 H 0.9335 0.6827 0.6955   0.106846
 H 0.211 0.0304 0.6006   0.120612
 H 0.327 0.1874 0.5693   0.095281
 H 0.0239 0.2955 0.5405   0.092043
 H 0.9087 0.1397 0.5721   0.121026
 H 0.6848 0.6629 0.6163   0.081065
 H 0.6941 0.7684 0.7177   0.127243
 H 0.331 0.625 0.7068   0.137039
 H 0.332 0.5304 0.6031   0.088803
 H 0.6928 0.8044 0.8389   0.13355
 H 0.6842 0.9053 0.939   0.088368
 H 0.3315 0.8815 0.8637   0.076235
 H 0.3295 0.7769 0.7632   0.133761
 H 0.3903 0.4925 0.8406   0.127353
 H 0.5132 0.6895 0.0199   0.119061
 H 0.1926 0.5006 0.8433   0.094159
 H 0.3114 0.6922 0.0179   0.084068
 H 0.1526 0.7357 0.5749   0.437354
 H 0.3647 0.936 0.6625   0.087282
 H 0.5538 0.0585 0.7073   0.129619
 H 0.7012 0.9474 0.5534   0.129466
 H 0.5119 0.8268 0.5087   0.100656
 H 0.7813 0.0415 0.7895   0.125294
 H 0.8472 0.1593 0.8934   0.100765
 H 0.8974 0.3972 0.7688   0.112992
 H 0.8207 0.2805 0.6651   0.155896
 H 0.1069 0.3005 0.9838   0.0809
 H 0.3087 0.3102 0.9791   0.124175
 H 0.4165 0.4916 0.166   0.130867
 H 0.2098 0.4778 0.1646   0.086615
 H 0.8633 0.0604 0.1754   0.088329
 H 0.8949 0.9587 0.2717   0.13298
 H 0.0976 0.2159 0.3994   0.123728
 H 0.0665 0.3173 0.3045   0.106826
 H 0.789 0.9696 0.3994   0.120612
 H 0.673 0.8126 0.4307   0.095277
 H 0.9761 0.7045 0.4595   0.09203
 H 0.0913 0.8603 0.4279   0.121028
 H 0.3152 0.3371 0.3837   0.081066
 H 0.3059 0.2316 0.2823   0.127243
 H 0.669 0.375 0.2932   0.137032
 H 0.668 0.4696 0.3969   0.088797
 H 0.3072 0.1956 0.1611   0.133548
 H 0.3158 0.0947 0.061   0.088343
 H 0.6685 0.1185 0.1363   0.076235
 H 0.6705 0.2231 0.2368   0.133761
 H 0.6097 0.5075 0.1594   0.127352
 H 0.4868 0.3105 0.9801   0.119058
 H 0.8074 0.4994 0.1567   0.094154
 H 0.6886 0.3078 0.9821   0.084067
 C 0.69734 0.2157 0.4467   0.652695
 C 0.58047 0.13158 0.41838   -0.236146
 C 0.56739 0.06171 0.35942   0.028672
 C 0.45469 0.98852 0.33257   -0.270887
 C 0.3543 0.98564 0.36538   0.306368
 C 0.36668 0.05488 0.42465   -0.232616
 C 0.47938 0.12695 0.45105   0.028759
 C 0.20709 0.8488 0.28129   0.279131
 C 0.1979 0.88681 0.21452   -0.243287
 C 0.15664 0.81593 0.15246   -0.012022
 C 0.12169 0.7104 0.15799   -0.179457
 C 0.12828 0.67427 0.22682   -0.005448
 C 0.17278 0.74374 0.28885   -0.222926
 C 0.07538 0.63364 0.09199   0.65988
 C 0.82984 0.65938 0.97901   0.176246
 C 0.70828 0.65422 0.98203   -0.209166
 C 0.61058 0.59701 0.92823   0.082599
 C 0.6448 0.5476 0.8724   -0.205111
 C 0.76997 0.55635 0.87366   0.172236
 C 0.05483 0.73466 0.83113   0.62553
 C 0.03806 0.80174 0.77074   -0.197669
 C 0.08901 0.90787 0.7795   0.004144
 C 0.07047 0.96919 0.72181   -0.264984
 C 0.000709999999998 0.92185 0.65563   0.298352
 C 0.94962 0.81541 0.64582   -0.226324
 C 0.96788 0.75484 0.70252   0.004173
 C 0.04854 0.07045 0.58695   0.278596
 C 0.17318 0.08336 0.58763   -0.24417
 C 0.24196 0.1773 0.56853   -0.00509
 C 0.18629 0.25616 0.54837   -0.170537
 C 0.0617 0.24189 0.55141   0.001037
 C 0.99272 0.14894 0.57047   -0.228399
 C 0.25731 0.35419 0.52123   0.64254
 C 0.61186 0.65707 0.63389   0.172061
 C 0.61904 0.72012 0.69568   -0.207489
 C 0.51229 0.71018 0.72435   0.086509
 C 0.40422 0.63602 0.68873   -0.212378
 C 0.40605 0.5788 0.62655   0.179149
 C 0.51167 0.77782 0.78911   0.085131
 C 0.61751 0.81834 0.84285   -0.194047
 C 0.61208 0.87991 0.90287   0.125423
 C 0.40531 0.86544 0.85887   0.1477
 C 0.40339 0.80249 0.79799   -0.180807
 C 0.4784 0.59366 0.92892   0.080923
 C 0.37736 0.53526 0.87711   -0.205459
 C 0.44943 0.65088 0.9824   -0.204076
 C 0.25834 0.54012 0.87938   0.159909
 C 0.32724 0.65179 0.98113   0.166355
 C 0.30266 0.7843 0.5533   0.652694
 C 0.41953 0.86842 0.58162   -0.236145
 C 0.43261 0.93829 0.64058   0.02867
 C 0.54531 0.01148 0.66743   -0.270883
 C 0.6457 0.01436 0.63462   0.306368
 C 0.63332 0.94512 0.57535   -0.232615
 C 0.52062 0.87305 0.54895   0.028758
 C 0.79291 0.1512 0.71871   0.279131
 C 0.8021 0.11319 0.78548   -0.243291
 C 0.84336 0.18407 0.84754   -0.012015
 C 0.87831 0.2896 0.84201   -0.179463
 C 0.87172 0.32573 0.77318   -0.005442
 C 0.82722 0.25626 0.71115   -0.222929
 C 0.92462 0.36636 0.90801   0.659884
 C 0.17016 0.34062 0.02099   0.176246
 C 0.29172 0.34578 0.01797   -0.209157
 C 0.38942 0.40299 0.07177   0.082598
 C 0.3552 0.4524 0.1276   -0.205104
 C 0.23003 0.44365 0.12634   0.172241
 C 0.94517 0.26534 0.16887   0.62553
 C 0.96194 0.19826 0.22926   -0.197672
 C 0.91099 0.09213 0.2205   0.004147
 C 0.92953 0.03081 0.27819   -0.264983
 C 0.99929 0.07815 0.34437   0.298353
 C 0.05038 0.18459 0.35418   -0.226325
 C 0.03212 0.24516 0.29748   0.00418
 C 0.95146 0.92955 0.41305   0.278597
 C 0.82682 0.91664 0.41237   -0.244169
 C 0.75804 0.8227 0.43147   -0.005089
 C 0.81371 0.74384 0.45163   -0.170538
 C 0.9383 0.75811 0.44859   0.001037
 C 0.00728 0.85106 0.42953   -0.2284
 C 0.74269 0.64581 0.47877   0.642541
 C 0.38814 0.34293 0.36611   0.17206
 C 0.38096 0.27988 0.30432   -0.207489
 C 0.48771 0.28982 0.27565   0.086508
 C 0.59578 0.36398 0.31127   -0.212377
 C 0.59395 0.4212 0.37345   0.179149
 C 0.48833 0.22218 0.21089   0.085131
 C 0.38249 0.18166 0.15715   -0.194049
 C 0.38792 0.12009 0.09713   0.125429
 C 0.59469 0.13456 0.14113   0.1477
 C 0.59661 0.19751 0.20201   -0.180807
 C 0.5216 0.40634 0.07108   0.080926
 C 0.62264 0.46474 0.12289   -0.205458
 C 0.55057 0.34912 0.0176   -0.204072
 C 0.74166 0.45988 0.12062   0.159915
 C 0.67276 0.34821 0.01887   0.166362
 N 0.50682 0.5883 0.59787   -0.269146
 N 0.50716 0.90409 0.91082   -0.239301
 N 0.86265 0.61065 0.92631   -0.298362
 N 0.23097 0.59795 0.9301   -0.289811
 N 0.49318 0.4117 0.40213   -0.269146
 N 0.49284 0.09591 0.08918   -0.239303
 N 0.13735 0.38935 0.07369   -0.298363
 N 0.76903 0.40205 0.0699   -0.289813
 O 0.78021 0.22453 0.40412   -0.569747
 O 0.71552 0.27322 0.50092   -0.508123
 O 0.23966 0.91596 0.34477   -0.231909
 O 0.10278 0.66426 0.03366   -0.578839
 O 0.00945 0.54564 0.10021   -0.604736
 O 0.02292 0.63602 0.81726   -0.576685
 O 0.097 0.77349 0.89569   -0.580676
 O 0.97 0.97503 0.5966   -0.247559
 O 0.19448 0.41009 0.48906   -0.614409
 O 0.37448 0.37254 0.53011   -0.578309
 O 0.21979 0.77547 0.59588   -0.569741
 O 0.28448 0.72678 0.49908   -0.508129
 O 0.76034 0.08404 0.65523   -0.231908
 O 0.89722 0.33574 0.96634   -0.578839
 O 0.99055 0.45436 0.89979   -0.604736
 O 0.97708 0.36398 0.18274   -0.576685
 O 0.903 0.22651 0.10431   -0.580676
 O 0.03 0.02497 0.4034   -0.247558
 O 0.80552 0.58991 0.51094   -0.614415
 O 0.62552 0.62746 0.46989   -0.578309
