{'_ref': 'TBD', '_srcid': 'CAKYAQ_clean', 'submitters': [{'name': 'Dalar Nazarian Jeff Camp and David Sholl', 'email': 'dalar@gatech.edu jcamp6@gatech.edu'}], '_method': 'VASP DFT with PBE;DDEC'}
data_ZnH13C10N2O3
_symmetry_space_group_name_H-M   'P 1'
_cell_length_a   10.43500000
_cell_length_b   17.48069976
_cell_length_c   17.48070000
_cell_angle_alpha   120.00000045
_cell_angle_beta   90.00000000
_cell_angle_gamma   90.00000000
_symmetry_Int_Tables_number   1
_chemical_formula_structural   ZnH13C10N2O3
_chemical_formula_sum   'Zn6 H78 C60 N12 O18'
_cell_volume   2761.47246003
_cell_formula_units_Z   6
loop_
 _symmetry_equiv_pos_site_id
 _symmetry_equiv_pos_as_xyz
  1  'x, y, z'
loop_
 _atom_site_label
 _atom_site_fract_x
 _atom_site_fract_y
 _atom_site_fract_z
 _atom_site_charge
 Zn 0.91201 0.53519 0.07126   0.288838
 Zn 0.57868 0.53607 0.46481   0.288044
 Zn 0.24534 0.92874 0.46393   0.287935
 Zn 0.41201 0.46481 0.92874   0.288838
 Zn 0.07868 0.46393 0.53519   0.288044
 Zn 0.74534 0.07126 0.53607   0.287935
 H 0.9258 0.3475 0.9264   0.320466
 H 0.009 0.47 0.9193   0.248553
 H 0.2037 0.4695 0.6924   0.076002
 H 0.1664 0.5168 0.8386   0.092214
 H 0.8246 0.6075 0.8163   0.131615
 H 0.873 0.561 0.671   0.066931
 H 0.0287 0.6207 0.9758   0.100224
 H 0.8821 0.6237 0.9572   0.090959
 H 0.8089 0.4736 0.8453   0.103295
 H 0.7819 0.3175 0.821   0.025954
 H 0.901 0.3692 0.7266   0.109138
 H 0.8938 0.2693 0.7   0.103804
 H 0.0144 0.3257 0.75   0.124081
 H 0.59247 0.5789 0.6525   0.32097
 H 0.67567 0.4493 0.53   0.249427
 H 0.87037 0.2229 0.5305   0.075444
 H 0.83307 0.3218 0.4832   0.091781
 H 0.49127 0.2088 0.3925   0.130638
 H 0.53967 0.11 0.439   0.066653
 H 0.69537 0.3551 0.3793   0.099957
 H 0.54877 0.3335 0.3763   0.090569
 H 0.47557 0.3717 0.5264   0.102843
 H 0.44857 0.5035 0.6825   0.026061
 H 0.56767 0.3574 0.6308   0.108971
 H 0.56047 0.4307 0.7307   0.103822
 H 0.68107 0.4243 0.6743   0.124247
 H 0.25913 0.0736 0.4211   0.320071
 H 0.34233 0.0807 0.5507   0.248239
 H 0.53703 0.3076 0.7771   0.076124
 H 0.49973 0.1614 0.6782   0.091285
 H 0.15793 0.1837 0.7912   0.131113
 H 0.20633 0.329 0.89   0.067113
 H 0.36203 0.0242 0.6449   0.100147
 H 0.21543 0.0428 0.6665   0.090604
 H 0.14223 0.1547 0.6283   0.102869
 H 0.11523 0.179 0.4965   0.025995
 H 0.23433 0.2734 0.6426   0.109233
 H 0.22713 0.3 0.5693   0.103365
 H 0.34773 0.25 0.5757   0.124128
 H 0.4258 0.6525 0.0736   0.320466
 H 0.509 0.53 0.0807   0.248553
 H 0.7037 0.5305 0.3076   0.076002
 H 0.6664 0.4832 0.1614   0.092214
 H 0.3246 0.3925 0.1837   0.131615
 H 0.373 0.439 0.329   0.066931
 H 0.5287 0.3793 0.0242   0.100224
 H 0.3821 0.3763 0.0428   0.09096
 H 0.3089 0.5264 0.1547   0.103295
 H 0.2819 0.6825 0.179   0.025954
 H 0.401 0.6308 0.2734   0.109138
 H 0.3938 0.7307 0.3   0.103804
 H 0.5144 0.6743 0.25   0.124081
 H 0.09247 0.4211 0.3475   0.32097
 H 0.17567 0.5507 0.47   0.249427
 H 0.37037 0.7771 0.4695   0.075444
 H 0.33307 0.6782 0.5168   0.091781
 H 0.99127 0.7912 0.6075   0.130638
 H 0.03967 0.89 0.561   0.066653
 H 0.19537 0.6449 0.6207   0.099958
 H 0.04877 0.6665 0.6237   0.09057
 H 0.97557 0.6283 0.4736   0.102843
 H 0.94857 0.4965 0.3175   0.026061
 H 0.06767 0.6426 0.3692   0.108971
 H 0.06047 0.5693 0.2693   0.103822
 H 0.18107 0.5757 0.3257   0.124247
 H 0.75913 0.9264 0.5789   0.320071
 H 0.84233 0.9193 0.4493   0.248239
 H 0.03703 0.6924 0.2229   0.076124
 H 0.99973 0.8386 0.3218   0.091286
 H 0.65793 0.8163 0.2088   0.131113
 H 0.70633 0.671 0.11   0.067114
 H 0.86203 0.9758 0.3551   0.100148
 H 0.71543 0.9572 0.3335   0.090604
 H 0.64223 0.8453 0.3717   0.102869
 H 0.61523 0.821 0.5035   0.025995
 H 0.73433 0.7266 0.3574   0.109233
 H 0.72713 0.7 0.4307   0.103365
 H 0.84773 0.75 0.4243   0.124128
 C 0.1264 0.4974 0.7175   0.123024
 C 0.1043 0.5252 0.8053   -0.207374
 C 0.9892 0.5657 0.844   0.067406
 C 0.9022 0.5794 0.7926   -0.229845
 C 0.9318 0.5507 0.7048   0.123785
 C 0.9586 0.5874 0.937   -0.023538
 C 0.8281 0.4529 0.8869   -0.176868
 C 0.7089 0.4689 0.9439   0.610005
 C 0.8603 0.3522 0.8312   0.309167
 C 0.9231 0.3268 0.7441   -0.379721
 C 0.79307 0.2201 0.5026   0.124746
 C 0.77097 0.2801 0.4748   -0.206815
 C 0.65587 0.2783 0.4343   0.065905
 C 0.56887 0.2132 0.4206   -0.227858
 C 0.59847 0.1541 0.4493   0.124303
 C 0.62527 0.3496 0.4126   -0.022456
 C 0.49477 0.434 0.5471   -0.174939
 C 0.37557 0.475 0.5311   0.608328
 C 0.52697 0.479 0.6478   0.309987
 C 0.58977 0.4173 0.6732   -0.380227
 C 0.45973 0.2825 0.7799   0.121605
 C 0.43763 0.1947 0.7199   -0.205153
 C 0.32253 0.156 0.7217   0.065461
 C 0.23553 0.2074 0.7868   -0.227496
 C 0.26513 0.2952 0.8459   0.122917
 C 0.29193 0.063 0.6504   -0.022814
 C 0.16143 0.1131 0.566   -0.176708
 C 0.04223 0.0561 0.525   0.60853
 C 0.19363 0.1688 0.521   0.309308
 C 0.25643 0.2559 0.5827   -0.379678
 C 0.6264 0.5026 0.2825   0.123024
 C 0.6043 0.4748 0.1947   -0.207374
 C 0.4892 0.4343 0.156   0.067406
 C 0.4022 0.4206 0.2074   -0.229845
 C 0.4318 0.4493 0.2952   0.123785
 C 0.4586 0.4126 0.063   -0.023538
 C 0.3281 0.5471 0.1131   -0.176868
 C 0.2089 0.5311 0.0561   0.610005
 C 0.3603 0.6478 0.1688   0.309167
 C 0.4231 0.6732 0.2559   -0.379721
 C 0.29307 0.7799 0.4974   0.124746
 C 0.27097 0.7199 0.5252   -0.206815
 C 0.15587 0.7217 0.5657   0.065905
 C 0.06887 0.7868 0.5794   -0.227858
 C 0.09847 0.8459 0.5507   0.124303
 C 0.12527 0.6504 0.5874   -0.022456
 C 0.99477 0.566 0.4529   -0.174939
 C 0.87557 0.525 0.4689   0.608328
 C 0.02697 0.521 0.3522   0.309987
 C 0.08977 0.5827 0.3268   -0.380227
 C 0.95973 0.7175 0.2201   0.121605
 C 0.93763 0.8053 0.2801   -0.205153
 C 0.82253 0.844 0.2783   0.065461
 C 0.73553 0.7926 0.2132   -0.227496
 C 0.76513 0.7048 0.1541   0.122917
 C 0.79193 0.937 0.3496   -0.022815
 C 0.66143 0.8869 0.434   -0.176708
 C 0.54223 0.9439 0.475   0.60853
 C 0.69363 0.8312 0.479   0.309308
 C 0.75643 0.7441 0.4173   -0.379678
 N 0.041 0.5088 0.6665   -0.244004
 N 0.9375 0.504 0.9406   -0.260086
 N 0.70767 0.1577 0.4912   -0.245404
 N 0.60417 0.4366 0.496   -0.261782
 N 0.37433 0.3335 0.8423   -0.243977
 N 0.27083 0.0594 0.5634   -0.259136
 N 0.541 0.4912 0.3335   -0.244004
 N 0.4375 0.496 0.0594   -0.260086
 N 0.20767 0.8423 0.5088   -0.245404
 N 0.10417 0.5634 0.504   -0.261782
 N 0.87433 0.6665 0.1577   -0.243977
 N 0.77083 0.9406 0.4366   -0.259136
 O 0.7191 0.5095 0.0259   -0.502115
 O 0.6069 0.4395 0.901   -0.539812
 O 0.9498 0.3293 0.8754   -0.551891
 O 0.38577 0.5164 0.4905   -0.501372
 O 0.27357 0.4615 0.5605   -0.539372
 O 0.61647 0.5461 0.6707   -0.552585
 O 0.05243 0.9741 0.4836   -0.501273
 O 0.94023 0.099 0.5385   -0.538834
 O 0.28313 0.1246 0.4539   -0.551065
 O 0.2191 0.4905 0.9741   -0.502115
 O 0.1069 0.5605 0.099   -0.539812
 O 0.4498 0.6707 0.1246   -0.551891
 O 0.88577 0.4836 0.5095   -0.501372
 O 0.77357 0.5385 0.4395   -0.539372
 O 0.11647 0.4539 0.3293   -0.552585
 O 0.55243 0.0259 0.5164   -0.501273
 O 0.44023 0.901 0.4615   -0.538834
 O 0.78313 0.8754 0.5461   -0.551065
