{'_ref': 'TBD', '_srcid': 'CAKYAQ_clean', 'submitters': [{'name': 'Dalar Nazarian Jeff Camp and David Sholl', 'email': 'dalar@gatech.edu jcamp6@gatech.edu'}], '_method': 'VASP DFT with PBE;DDEC'}
data_NdH12(C5O3)3
_symmetry_space_group_name_H-M   'P 1'
_cell_length_a   8.95290000
_cell_length_b   12.22030011
_cell_length_c   16.73380000
_cell_angle_alpha   90.00000000
_cell_angle_beta   90.00000000
_cell_angle_gamma   110.00900229
_symmetry_Int_Tables_number   1
_chemical_formula_structural   NdH12(C5O3)3
_chemical_formula_sum   'Nd4 H48 C60 O36'
_cell_volume   1720.28797548
_cell_formula_units_Z   4
loop_
 _symmetry_equiv_pos_site_id
 _symmetry_equiv_pos_as_xyz
  1  'x, y, z'
loop_
 _atom_site_label
 _atom_site_fract_x
 _atom_site_fract_y
 _atom_site_fract_z
 _atom_site_charge
 Nd 0.56367 0.04773 0.88303   2.302135
 Nd 0.93633 0.95227 0.38303   2.302135
 Nd 0.43633 0.95227 0.11697   2.302134
 Nd 0.06367 0.04773 0.61697   2.302134
 H 0.0881 0.2741 0.8222   0.104371
 H 0.1699 0.1799 0.8335   0.111139
 H 0.4048 0.3456 0.805   0.134606
 H 0.5967 0.5248 0.7729   0.119314
 H 0.3664 0.531 0.568   0.100164
 H 0.1741 0.357 0.6031   0.11272
 H 0.5262 0.7097 0.5654   0.091511
 H 0.6218 0.6329 0.5329   0.0871
 H 0.872 0.8628 0.9834   0.133921
 H 0.7327 0.7944 0.9263   0.094701
 H 0.5047 0.6608 0.926   0.118502
 H 0.7085 0.5102 0.0831   0.118075
 H 0.4119 0.7259 0.3222   0.104371
 H 0.3301 0.8201 0.3335   0.111139
 H 0.0952 0.6544 0.305   0.134606
 H 0.9033 0.4752 0.2729   0.119314
 H 0.1336 0.469 0.068   0.100164
 H 0.3259 0.643 0.1031   0.11272
 H 0.9738 0.2903 0.0654   0.091511
 H 0.8782 0.3671 0.0329   0.0871
 H 0.628 0.1372 0.4834   0.133921
 H 0.7673 0.2056 0.4263   0.094701
 H 0.9953 0.3392 0.426   0.118502
 H 0.7915 0.4898 0.5831   0.118075
 H 0.9119 0.7259 0.1778   0.104371
 H 0.8301 0.8201 0.1665   0.111139
 H 0.5952 0.6544 0.195   0.134606
 H 0.4033 0.4752 0.2271   0.119314
 H 0.6336 0.469 0.432   0.100164
 H 0.8259 0.643 0.3969   0.112719
 H 0.4738 0.2903 0.4346   0.091511
 H 0.3782 0.3671 0.4671   0.0871
 H 0.128 0.1372 0.0166   0.133923
 H 0.2673 0.2056 0.0737   0.094701
 H 0.4953 0.3392 0.074   0.118502
 H 0.2915 0.4898 0.9169   0.118075
 H 0.5881 0.2741 0.6778   0.104371
 H 0.6699 0.1799 0.6665   0.111139
 H 0.9048 0.3456 0.695   0.134606
 H 0.0967 0.5248 0.7271   0.119314
 H 0.8664 0.531 0.932   0.100164
 H 0.6741 0.357 0.8969   0.112719
 H 0.0262 0.7097 0.9346   0.091511
 H 0.1218 0.6329 0.9671   0.0871
 H 0.372 0.8628 0.5166   0.133923
 H 0.2327 0.7944 0.5737   0.094701
 H 0.0047 0.6608 0.574   0.118502
 H 0.2085 0.5102 0.4169   0.118075
 C 0.9381 0.109 0.7975   0.763919
 C 0.0979 0.2036 0.8   -0.078094
 C 0.2754 0.3352 0.7055   0.239268
 C 0.3981 0.3832 0.7575   -0.177148
 C 0.5135 0.49 0.7378   -0.176232
 C 0.5046 0.5441 0.6666   0.244497
 C 0.3752 0.4942 0.6155   -0.213855
 C 0.2612 0.3902 0.6363   -0.131452
 C 0.6231 0.6919 0.5719   -0.06086
 C 0.7664 0.8019 0.5559   0.7651
 C 0.6555 0.8587 0.0245   0.726125
 C 0.7646 0.807 0.9819   -0.081213
 C 0.6296 0.6022 0.0062   0.22338
 C 0.5032 0.5962 0.9558   -0.184491
 C 0.6243 0.5064 0.0494   -0.140453
 C 0.5619 0.891 0.2975   0.763919
 C 0.4021 0.7964 0.3   -0.078094
 C 0.2246 0.6648 0.2055   0.239268
 C 0.1019 0.6168 0.2575   -0.177148
 C 0.9865 0.51 0.2378   -0.176232
 C 0.9954 0.4559 0.1666   0.244497
 C 0.1248 0.5058 0.1155   -0.213855
 C 0.2388 0.6098 0.1363   -0.131452
 C 0.8769 0.3081 0.0719   -0.06086
 C 0.7336 0.1981 0.0559   0.7651
 C 0.8445 0.1413 0.5245   0.726125
 C 0.7354 0.193 0.4819   -0.081213
 C 0.8704 0.3978 0.5062   0.22338
 C 0.9968 0.4038 0.4558   -0.184491
 C 0.8757 0.4936 0.5494   -0.140453
 C 0.0619 0.891 0.2025   0.763918
 C 0.9021 0.7964 0.2   -0.078094
 C 0.7246 0.6648 0.2945   0.239268
 C 0.6019 0.6168 0.2425   -0.177148
 C 0.4865 0.51 0.2622   -0.176232
 C 0.4954 0.4559 0.3334   0.244497
 C 0.6248 0.5058 0.3845   -0.213855
 C 0.7388 0.6098 0.3637   -0.131452
 C 0.3769 0.3081 0.4281   -0.060859
 C 0.2336 0.1981 0.4441   0.7651
 C 0.3445 0.1413 0.9755   0.726125
 C 0.2354 0.193 0.0181   -0.081213
 C 0.3704 0.3978 0.9938   0.223378
 C 0.4968 0.4038 0.0442   -0.184484
 C 0.3757 0.4936 0.9506   -0.140446
 C 0.4381 0.109 0.7025   0.763918
 C 0.5979 0.2036 0.7   -0.078094
 C 0.7754 0.3352 0.7945   0.239268
 C 0.8981 0.3832 0.7425   -0.177148
 C 0.0135 0.49 0.7622   -0.176232
 C 0.0046 0.5441 0.8334   0.244497
 C 0.8752 0.4942 0.8845   -0.213855
 C 0.7612 0.3902 0.8637   -0.131452
 C 0.1231 0.6919 0.9281   -0.060859
 C 0.2664 0.8019 0.9441   0.7651
 C 0.1555 0.8587 0.4755   0.726125
 C 0.2646 0.807 0.5181   -0.081213
 C 0.1296 0.6022 0.4938   0.223378
 C 0.0032 0.5962 0.5442   -0.184484
 C 0.1243 0.5064 0.4506   -0.140446
 O 0.8494 0.0982 0.857   -0.750126
 O 0.9027 0.0452 0.7364   -0.749379
 O 0.1592 0.2249 0.7199   -0.387899
 O 0.6263 0.6473 0.6494   -0.257479
 O 0.8342 0.8659 0.6133   -0.732488
 O 0.7989 0.816 0.4838   -0.717586
 O 0.6279 0.9419 0.9912   -0.855109
 O 0.6 0.8225 0.0915   -0.64076
 O 0.7651 0.7018 0.0145   -0.25593
 O 0.6506 0.9018 0.357   -0.750126
 O 0.5973 0.9548 0.2364   -0.74938
 O 0.3408 0.7751 0.2199   -0.387899
 O 0.8737 0.3527 0.1494   -0.257479
 O 0.6658 0.1341 0.1133   -0.732488
 O 0.7011 0.184 0.9838   -0.717586
 O 0.8721 0.0581 0.4912   -0.855109
 O 0.9 0.1775 0.5915   -0.64076
 O 0.7349 0.2982 0.5145   -0.25593
 O 0.1506 0.9018 0.143   -0.750125
 O 0.0973 0.9548 0.2636   -0.749379
 O 0.8408 0.7751 0.2801   -0.387899
 O 0.3737 0.3527 0.3506   -0.257479
 O 0.1658 0.1341 0.3867   -0.732488
 O 0.2011 0.184 0.5162   -0.717586
 O 0.3721 0.0581 0.0088   -0.855109
 O 0.4 0.1775 0.9085   -0.64076
 O 0.2349 0.2982 0.9855   -0.255929
 O 0.3494 0.0982 0.643   -0.750126
 O 0.4027 0.0452 0.7636   -0.74938
 O 0.6592 0.2249 0.7801   -0.387899
 O 0.1263 0.6473 0.8506   -0.257479
 O 0.3342 0.8659 0.8867   -0.732488
 O 0.2989 0.816 0.0162   -0.717586
 O 0.1279 0.9419 0.5088   -0.855109
 O 0.1 0.8225 0.4085   -0.64076
 O 0.2651 0.7018 0.4855   -0.255929
