{'_ref': 'TBD', '_srcid': 'CAKYAQ_clean', 'submitters': [{'name': 'Dalar Nazarian Jeff Camp and David Sholl', 'email': 'dalar@gatech.edu jcamp6@gatech.edu'}], '_method': 'VASP DFT with PBE;DDEC'}
data_Ag2H3C5(NO)2
_symmetry_space_group_name_H-M   'P 1'
_cell_length_a   5.98040000
_cell_length_b   8.82630025
_cell_length_c   15.30320000
_cell_angle_alpha   93.47999679
_cell_angle_beta   90.00000000
_cell_angle_gamma   90.00000000
_symmetry_Int_Tables_number   1
_chemical_formula_structural   Ag2H3C5(NO)2
_chemical_formula_sum   'Ag8 H12 C20 N8 O8'
_cell_volume   806.286944618
_cell_formula_units_Z   4
loop_
 _symmetry_equiv_pos_site_id
 _symmetry_equiv_pos_as_xyz
  1  'x, y, z'
loop_
 _atom_site_label
 _atom_site_fract_x
 _atom_site_fract_y
 _atom_site_fract_z
 _atom_site_charge
 Ag 0.68473 0.63623 0.18764   0.336701
 Ag 0.45752 0.74945 0.81972   0.177329
 Ag 0.18473 0.36377 0.31236   0.336697
 Ag 0.95752 0.25055 0.68028   0.177195
 Ag 0.31527 0.36377 0.81236   0.335978
 Ag 0.54248 0.25055 0.18028   0.176668
 Ag 0.81527 0.63623 0.68764   0.335974
 Ag 0.04248 0.74945 0.31972   0.176544
 H 0.4005 0.6167 0.000300000000003   0.080886
 H 0.9546 0.889 0.9035   0.054632
 H 0.723 0.8528 0.0203   0.086671
 H 0.9005 0.3833 0.4997   0.080886
 H 0.4546 0.111 0.5965   0.054633
 H 0.223 0.1472 0.4797   0.086672
 H 0.5995 0.3833 0.9997   0.080895
 H 0.0454 0.111 0.0965   0.054633
 H 0.277 0.1472 0.9797   0.086661
 H 0.0995 0.6167 0.5003   0.080895
 H 0.5454 0.889 0.4035   0.054634
 H 0.777 0.8528 0.5203   0.086661
 C 0.1134 0.6342 0.0699   -0.024718
 C 0.2578 0.6641 0.0023   0.111726
 C 0.0017 0.8236 0.947   0.054218
 C 0.8608 0.7993 0.0159   0.067378
 C 0.1851 0.5214 0.1354   0.556512
 C 0.6134 0.3658 0.4301   -0.024719
 C 0.7578 0.3359 0.4977   0.111724
 C 0.5017 0.1764 0.553   0.054216
 C 0.3608 0.2007 0.4841   0.067379
 C 0.6851 0.4786 0.3646   0.55651
 C 0.8866 0.3658 0.9301   -0.024709
 C 0.7422 0.3359 0.9977   0.111717
 C 0.9983 0.1764 0.053   0.054268
 C 0.1392 0.2007 0.9841   0.067388
 C 0.8149 0.4786 0.8646   0.556516
 C 0.3866 0.6342 0.5699   -0.02471
 C 0.2422 0.6641 0.5023   0.111715
 C 0.4983 0.8236 0.447   0.054266
 C 0.6392 0.7993 0.5159   0.067388
 C 0.3149 0.5214 0.6354   0.556514
 N 0.9128 0.7015 0.0776   -0.273672
 N 0.2037 0.7577 0.9394   -0.260774
 N 0.4128 0.2985 0.4224   -0.273673
 N 0.7037 0.2423 0.5606   -0.260766
 N 0.0872 0.2985 0.9224   -0.273618
 N 0.7963 0.2423 0.0606   -0.260741
 N 0.5872 0.7015 0.5776   -0.273618
 N 0.2963 0.7577 0.4394   -0.260734
 O 0.0552 0.4992 0.1981   -0.472612
 O 0.3689 0.4573 0.12   -0.493627
 O 0.5552 0.5008 0.3019   -0.472613
 O 0.8689 0.5427 0.38   -0.493621
 O 0.9448 0.5008 0.8019   -0.472562
 O 0.6311 0.5427 0.88   -0.493618
 O 0.4448 0.4992 0.6981   -0.472564
 O 0.1311 0.4573 0.62   -0.493612
