{'_ref': 'TBD', '_srcid': 'CAKYAQ_clean', 'submitters': [{'name': 'Dalar Nazarian Jeff Camp and David Sholl', 'email': 'dalar@gatech.edu jcamp6@gatech.edu'}], '_method': 'VASP DFT with PBE;DDEC'}
data_CuPH4C5NO3
_symmetry_space_group_name_H-M   'P 1'
_cell_length_a   7.45639962
_cell_length_b   9.18450017
_cell_length_c   11.58200000
_cell_angle_alpha   100.84200261
_cell_angle_beta   104.30300269
_cell_angle_gamma   94.77399906
_symmetry_Int_Tables_number   1
_chemical_formula_structural   CuPH4C5NO3
_chemical_formula_sum   'Cu4 P4 H16 C20 N4 O12'
_cell_volume   747.82549019
_cell_formula_units_Z   4
loop_
 _symmetry_equiv_pos_site_id
 _symmetry_equiv_pos_as_xyz
  1  'x, y, z'
loop_
 _atom_site_label
 _atom_site_fract_x
 _atom_site_fract_y
 _atom_site_fract_z
 _atom_site_charge
 Cu 0.16072 0.12101 0.01208   1.114756
 Cu 0.36183 0.9196 0.77591   1.032165
 Cu 0.83928 0.87899 0.98792   1.114756
 Cu 0.63817 0.0804 0.22409   1.032165
 P 0.3523 0.83722 0.02408   1.532009
 P 0.0337 0.08259 0.24017   1.439113
 P 0.6477 0.16278 0.97592   1.53201
 P 0.9663 0.91741 0.75983   1.439113
 H 0.1592 0.415 0.1741   0.101735
 H 0.2258 0.6643 0.1789   0.115588
 H 0.3165 0.5567 0.8487   0.128676
 H 0.2493 0.3078 0.8505   0.094572
 H 0.1999 0.766 0.5233   0.092975
 H 0.0745 0.8171 0.3362   0.117665
 H 0.285 0.248 0.4751   0.123416
 H 0.4075 0.1863 0.6603   0.092863
 H 0.8408 0.585 0.8259   0.101736
 H 0.7742 0.3357 0.8211   0.115586
 H 0.6835 0.4433 0.1513   0.128676
 H 0.7507 0.6922 0.1495   0.09457
 H 0.8001 0.234 0.4767   0.092982
 H 0.9255 0.1829 0.6638   0.117663
 H 0.715 0.752 0.5249   0.123425
 H 0.5925 0.8137 0.3397   0.092861
 C 0.1921 0.4437 0.1084   0.141496
 C 0.2325 0.5937 0.1116   -0.084042
 C 0.2831 0.6408 0.0156   -0.218745
 C 0.2865 0.5302 0.9159   -0.088651
 C 0.2451 0.3805 0.9172   0.14323
 C 0.2146 0.8644 0.514   0.132781
 C 0.1383 0.8947 0.4011   -0.080757
 C 0.1563 0.0404 0.3839   -0.194421
 C 0.2631 0.1498 0.4833   -0.102992
 C 0.3369 0.112 0.5949   0.157292
 C 0.8079 0.5563 0.8916   0.141491
 C 0.7675 0.4063 0.8884   -0.084043
 C 0.7169 0.3592 0.9844   -0.218749
 C 0.7135 0.4698 0.0841   -0.088656
 C 0.7549 0.6195 0.0828   0.143226
 C 0.7854 0.1356 0.486   0.132777
 C 0.8617 0.1053 0.5989   -0.080757
 C 0.8437 0.9596 0.6161   -0.194421
 C 0.7369 0.8502 0.5167   -0.102996
 C 0.6631 0.888 0.4051   0.157292
 N 0.199 0.3373 0.0124   -0.341422
 N 0.3093 0.9714 0.6111   -0.376962
 N 0.801 0.6627 0.9876   -0.341421
 N 0.6907 0.0286 0.3889   -0.376962
 O 0.1822 0.1533 0.1897   -0.810371
 O 0.1742 0.9074 0.0056   -0.895812
 O 0.9272 0.9318 0.1667   -0.851777
 O 0.4838 0.8904 0.1515   -0.824167
 O 0.4502 0.845 0.9245   -0.88696
 O 0.8992 0.192 0.2705   -0.803245
 O 0.8178 0.8467 0.8103   -0.810371
 O 0.8258 0.0926 0.9944   -0.895812
 O 0.0728 0.0682 0.8333   -0.851777
 O 0.5162 0.1096 0.8485   -0.824167
 O 0.5498 0.155 0.0755   -0.88696
 O 0.1008 0.808 0.7295   -0.803245
