{'_ref': 'TBD', '_srcid': 'CAKYAQ_clean', 'submitters': [{'name': 'Dalar Nazarian Jeff Camp and David Sholl', 'email': 'dalar@gatech.edu jcamp6@gatech.edu'}], '_method': 'VASP DFT with PBE;DDEC'}
data_ErH14C24(NO3)2
_symmetry_space_group_name_H-M   'P 1'
_cell_length_a   10.06909960
_cell_length_b   10.94909992
_cell_length_c   13.22110000
_cell_angle_alpha   99.75499830
_cell_angle_beta   110.24500167
_cell_angle_gamma   107.79300256
_symmetry_Int_Tables_number   1
_chemical_formula_structural   ErH14C24(NO3)2
_chemical_formula_sum   'Er2 H28 C48 N4 O12'
_cell_volume   1238.81802579
_cell_formula_units_Z   2
loop_
 _symmetry_equiv_pos_site_id
 _symmetry_equiv_pos_as_xyz
  1  'x, y, z'
loop_
 _atom_site_label
 _atom_site_fract_x
 _atom_site_fract_y
 _atom_site_fract_z
 _atom_site_charge
 Er 0.84506 0.29349 0.80419   1.257446
 Er 0.15494 0.70651 0.19581   1.257446
 H 0.2757 0.381 0.837   0.102938
 H 0.4961 0.6322 0.1545   0.106509
 H 0.1629 0.0846 0.6894   0.106862
 H 0.7749 0.0323 0.436   0.092691
 H 0.7664 0.5902 0.5741   0.111569
 H 0.3734 0.3302 0.5577   0.10603
 H 0.0365 0.3585 0.0868   0.06169
 H 0.098 0.2661 0.2301   0.125179
 H 0.9768 0.0345 0.1913   0.103024
 H 0.7965 0.8096 0.0437   0.11508
 H 0.6109 0.6885 0.864   0.105247
 H 0.4586 0.6846 0.6646   0.096398
 H 0.3995 0.8057 0.5416   0.132241
 H 0.5351 0.0348 0.5998   0.070952
 H 0.7243 0.619 0.163   0.102937
 H 0.5039 0.3678 0.8455   0.106506
 H 0.8371 0.9154 0.3106   0.106857
 H 0.2251 0.9677 0.564   0.092687
 H 0.2336 0.4098 0.4259   0.111577
 H 0.6266 0.6698 0.4423   0.10603
 H 0.9635 0.6415 0.9132   0.06169
 H 0.902 0.7339 0.7699   0.125179
 H 0.0232 0.9655 0.8087   0.103023
 H 0.2035 0.1904 0.9563   0.115079
 H 0.3891 0.3115 0.136   0.105247
 H 0.5414 0.3154 0.3354   0.0964
 H 0.6005 0.1943 0.4584   0.132241
 H 0.4649 0.9652 0.4002   0.070947
 C 0.2127 0.5144 0.9891   0.679007
 C 0.3626 0.508 0.9948   -0.134591
 C 0.366 0.4291 0.9028   -0.057296
 C 0.4972 0.579 0.0923   -0.059946
 C 0.9231 0.1487 0.6574   0.607094
 C 0.9613 0.0702 0.5758   -0.101113
 C 0.0962 0.0504 0.6127   -0.071883
 C 0.8665 0.0194 0.4627   -0.05004
 C 0.6743 0.3993 0.6637   0.6057
 C 0.5842 0.4524 0.5792   -0.106137
 C 0.6595 0.554 0.5443   -0.068433
 C 0.4241 0.3984 0.5345   -0.070623
 C 0.9891 0.2655 0.0696   0.221975
 C 0.0266 0.2114 0.1573   -0.181082
 C 0.9554 0.0744 0.1342   -0.003603
 C 0.8499 0.9961 0.0224   -0.025669
 C 0.7723 0.8542 0.9904   -0.082436
 C 0.6622 0.7811 0.8821   -0.071498
 C 0.6259 0.8453 0.7975   -0.035445
 C 0.5112 0.7777 0.6878   -0.001833
 C 0.4768 0.8491 0.6148   -0.175502
 C 0.5589 0.9877 0.6511   0.204727
 C 0.7043 0.9873 0.8268   0.165804
 C 0.8221 0.0623 0.942   0.171307
 C 0.7873 0.4856 0.0109   0.679009
 C 0.6374 0.492 0.0052   -0.134591
 C 0.634 0.5709 0.0972   -0.057299
 C 0.5028 0.421 0.9077   -0.059948
 C 0.0769 0.8513 0.3426   0.607095
 C 0.0387 0.9298 0.4242   -0.101118
 C 0.9038 0.9496 0.3873   -0.071874
 C 0.1335 0.9806 0.5373   -0.05003
 C 0.3257 0.6007 0.3363   0.605699
 C 0.4158 0.5476 0.4208   -0.106134
 C 0.3405 0.446 0.4557   -0.068442
 C 0.5759 0.6016 0.4655   -0.070633
 C 0.0109 0.7345 0.9304   0.221976
 C 0.9734 0.7886 0.8427   -0.181079
 C 0.0446 0.9256 0.8658   -0.003603
 C 0.1501 0.0039 0.9776   -0.025669
 C 0.2277 0.1458 0.0096   -0.082437
 C 0.3378 0.2189 0.1179   -0.071498
 C 0.3741 0.1547 0.2025   -0.035444
 C 0.4888 0.2223 0.3122   -0.00183
 C 0.5232 0.1509 0.3852   -0.175504
 C 0.4411 0.0123 0.3489   0.204729
 C 0.2957 0.0127 0.1732   0.165805
 C 0.1779 0.9377 0.058   0.171307
 N 0.8912 0.196 0.9629   -0.372374
 N 0.6686 0.057 0.754   -0.372611
 N 0.1088 0.804 0.0371   -0.372374
 N 0.3314 0.943 0.246   -0.372612
 O 0.0912 0.4403 0.9041   -0.554841
 O 0.2193 0.5931 0.0736   -0.564792
 O 0.9882 0.1659 0.7618   -0.550175
 O 0.8239 0.1989 0.6196   -0.555939
 O 0.819 0.4623 0.7173   -0.536488
 O 0.606 0.2911 0.6794   -0.545116
 O 0.9088 0.5597 0.0959   -0.554842
 O 0.7807 0.4069 0.9264   -0.564793
 O 0.0118 0.8341 0.2382   -0.550175
 O 0.1761 0.8011 0.3804   -0.555939
 O 0.181 0.5377 0.2827   -0.536488
 O 0.394 0.7089 0.3206   -0.545116
