{'_ref': 'TBD', '_srcid': 'CAKYAQ_clean', 'submitters': [{'name': 'Dalar Nazarian Jeff Camp and David Sholl', 'email': 'dalar@gatech.edu jcamp6@gatech.edu'}], '_method': 'VASP DFT with PBE;DDEC'}
data_TmH18(C3O)6
_symmetry_space_group_name_H-M   'P 1'
_cell_length_a   9.95500007
_cell_length_b   12.79499972
_cell_length_c   13.80100000
_cell_angle_alpha   69.41500048
_cell_angle_beta   82.56200178
_cell_angle_gamma   83.11699839
_symmetry_Int_Tables_number   1
_chemical_formula_structural   TmH18(C3O)6
_chemical_formula_sum   'Tm2 H36 C36 O12'
_cell_volume   1626.56647425
_cell_formula_units_Z   2
loop_
 _symmetry_equiv_pos_site_id
 _symmetry_equiv_pos_as_xyz
  1  'x, y, z'
loop_
 _atom_site_label
 _atom_site_fract_x
 _atom_site_fract_y
 _atom_site_fract_z
 _atom_site_charge
 Tm 0.53019 0.64035 0.37481   2.076121
 Tm 0.46981 0.35965 0.62519   2.076119
 H 0.1897 0.938 0.4865   0.116828
 H 0.2614 0.9545 0.3746   0.120199
 H 0.2855 0.8405 0.465   0.115693
 H 0.6893 0.7669 0.6176   0.115427
 H 0.7949 0.8578 0.5747   0.114681
 H 0.7052 0.8458 0.6796   0.124164
 H 0.2683 0.4359 0.3534   0.126432
 H 0.1459 0.406 0.3098   0.11918
 H 0.1837 0.5304 0.273   0.133501
 H 0.1793 0.6472 0.5872   0.12426
 H 0.0298 0.6718 0.6303   0.12497
 H 0.1146 0.5613 0.6894   0.117425
 H 0.2751 0.8961 0.202   0.130341
 H 0.2542 0.0253 0.1813   0.116382
 H 0.1861 0.9735 0.1142   0.116448
 H 0.7152 0.7753 0.0941   0.110046
 H 0.7805 0.8342 0.9809   0.115195
 H 0.8036 0.8764 0.0708   0.114149
 H 0.8103 0.062 0.5135   0.116804
 H 0.7386 0.0455 0.6254   0.12018
 H 0.7145 0.1595 0.535   0.115683
 H 0.3107 0.2331 0.3824   0.115413
 H 0.2051 0.1422 0.4253   0.114658
 H 0.2948 0.1542 0.3204   0.124141
 H 0.7317 0.5641 0.6466   0.126439
 H 0.8541 0.594 0.6902   0.119285
 H 0.8163 0.4696 0.727   0.133539
 H 0.8207 0.3528 0.4128   0.12427
 H 0.9702 0.3282 0.3697   0.125005
 H 0.8854 0.4387 0.3106   0.117535
 H 0.7249 0.1039 0.798   0.130342
 H 0.7458 0.9747 0.8187   0.116382
 H 0.8139 0.0265 0.8858   0.116468
 H 0.2848 0.2247 0.9059   0.11008
 H 0.2195 0.1658 0.0191   0.115252
 H 0.1964 0.1236 0.9292   0.114158
 C 0.4744 0.7642 0.5563   0.764111
 C 0.4886 0.8881 0.5265   -0.176245
 C 0.3875 0.9625 0.4736   0.091127
 C 0.2709 0.9202 0.4477   -0.332306
 C 0.6008 0.9236 0.5532   0.068029
 C 0.7071 0.8411 0.6115   -0.332686
 C 0.2683 0.573 0.4515   0.79487
 C 0.1284 0.5343 0.4781   -0.249932
 C 0.0851 0.4801 0.4183   0.082098
 C 0.1793 0.4614 0.3307   -0.354162
 C 0.0456 0.5556 0.5596   0.064909
 C 0.0969 0.6142 0.6222   -0.339348
 C 0.5052 0.8175 0.1937   0.72283
 C 0.5018 0.9131 0.092   -0.187135
 C 0.387 0.9861 0.0736   0.078027
 C 0.2649 0.9687 0.1495   -0.339992
 C 0.6139 0.926 0.0208   0.066264
 C 0.7399 0.8456 0.0437   -0.3352
 C 0.5256 0.2358 0.4437   0.76409
 C 0.5114 0.1119 0.4735   -0.17614
 C 0.6125 0.0375 0.5264   0.090741
 C 0.7291 0.0798 0.5523   -0.332244
 C 0.3992 0.0764 0.4468   0.067641
 C 0.2929 0.1589 0.3885   -0.332623
 C 0.7317 0.427 0.5485   0.794876
 C 0.8716 0.4657 0.5219   -0.249952
 C 0.9149 0.5199 0.5817   0.082169
 C 0.8207 0.5386 0.6693   -0.354219
 C 0.9544 0.4444 0.4404   0.06498
 C 0.9031 0.3858 0.3778   -0.339407
 C 0.4948 0.1825 0.8063   0.72283
 C 0.4982 0.0869 0.908   -0.187137
 C 0.613 0.0139 0.9264   0.077993
 C 0.7351 0.0313 0.8505   -0.339995
 C 0.3861 0.074 0.9792   0.066233
 C 0.2601 0.1544 0.9563   -0.33523
 O 0.5285 0.7151 0.4944   -0.807998
 O 0.4107 0.7156 0.6387   -0.548643
 O 0.2897 0.6641 0.3825   -0.637906
 O 0.3668 0.5131 0.4967   -0.901323
 O 0.5079 0.8364 0.2765   -0.680547
 O 0.5057 0.7194 0.1964   -0.740113
 O 0.4715 0.2849 0.5056   -0.807998
 O 0.5893 0.2844 0.3613   -0.548642
 O 0.7103 0.3359 0.6175   -0.637907
 O 0.6332 0.4869 0.5033   -0.901323
 O 0.4921 0.1636 0.7235   -0.680547
 O 0.4943 0.2806 0.8036   -0.740113
