{'_ref': 'TBD', '_srcid': 'CAKYAQ_clean', 'submitters': [{'name': 'Dalar Nazarian Jeff Camp and David Sholl', 'email': 'dalar@gatech.edu jcamp6@gatech.edu'}], '_method': 'VASP DFT with PBE;DDEC'}
data_TmH6(C2O)6
_symmetry_space_group_name_H-M   'P 1'
_cell_length_a   10.86390000
_cell_length_b   18.66699980
_cell_length_c   19.84000000
_cell_angle_alpha   98.03500059
_cell_angle_beta   96.53500062
_cell_angle_gamma   106.18499867
_symmetry_Int_Tables_number   1
_chemical_formula_structural   TmH6(C2O)6
_chemical_formula_sum   'Tm8 H48 C96 O48'
_cell_volume   3776.38592075
_cell_formula_units_Z   8
loop_
 _symmetry_equiv_pos_site_id
 _symmetry_equiv_pos_as_xyz
  1  'x, y, z'
loop_
 _atom_site_label
 _atom_site_fract_x
 _atom_site_fract_y
 _atom_site_fract_z
 _atom_site_charge
 Tm 0.17663 0.89198 0.79485   2.279303
 Tm 0.17254 0.59916 0.79775   2.217907
 Tm 0.23634 0.38973 0.72845   2.197413
 Tm 0.24913 0.10152 0.72591   2.233493
 Tm 0.82337 0.10802 0.20515   2.279303
 Tm 0.82746 0.40084 0.20225   2.217905
 Tm 0.76366 0.61027 0.27155   2.19741
 Tm 0.75087 0.89848 0.27409   2.233493
 H 0.5562 0.9044 0.793   0.107309
 H 0.7639 0.8987 0.8043   0.107568
 H 0.8686 0.0912 0.7282   0.117451
 H 0.665 0.0983 0.7245   0.10575
 H 0.0531 0.7798 0.5711   0.119782
 H 0.9722 0.7273 0.4564   0.107283
 H 0.0401 0.9365 0.4118   0.111964
 H 0.1172 0.9861 0.523   0.087926
 H 0.4333 0.7277 0.9684   0.102633
 H 0.5622 0.7853 0.0735   0.125804
 H 0.62 0.9839 0.0109   0.100082
 H 0.4786 0.9268 0.9098   0.0969
 H 0.8362 0.5694 0.7026   0.105986
 H 0.6171 0.5149 0.6987   0.09938
 H 0.5842 0.7087 0.7959   0.117628
 H 0.8018 0.7636 0.8022   0.103479
 H 0.8398 0.2736 0.7837   0.116833
 H 0.6214 0.2237 0.7895   0.111099
 H 0.577 0.4298 0.799   0.09828
 H 0.7996 0.4817 0.8037   0.088916
 H 0.4322 0.4035 0.9058   0.1107
 H 0.4244 0.604 0.0034   0.107129
 H 0.0926 0.4078 0.5207   0.102426
 H 0.9966 0.5902 0.5919   0.124083
 H 0.4438 0.0956 0.207   0.10731
 H 0.2361 0.1013 0.1957   0.107568
 H 0.1314 0.9088 0.2718   0.117398
 H 0.335 0.9017 0.2755   0.105744
 H 0.9469 0.2202 0.4289   0.119775
 H 0.0278 0.2727 0.5436   0.107137
 H 0.9599 0.0635 0.5882   0.111895
 H 0.8828 0.0139 0.477   0.087902
 H 0.5667 0.2723 0.0316   0.102632
 H 0.4378 0.2147 0.9265   0.125765
 H 0.38 0.0161 0.9891   0.100059
 H 0.5214 0.0732 0.0902   0.096876
 H 0.1638 0.4306 0.2974   0.105989
 H 0.3829 0.4851 0.3013   0.099385
 H 0.4158 0.2913 0.2041   0.117629
 H 0.1982 0.2364 0.1978   0.103472
 H 0.1602 0.7264 0.2163   0.116821
 H 0.3786 0.7763 0.2105   0.111084
 H 0.423 0.5702 0.201   0.098289
 H 0.2004 0.5183 0.1963   0.088913
 H 0.5678 0.5965 0.0942   0.110727
 H 0.5756 0.396 0.9966   0.107189
 H 0.9074 0.5922 0.4793   0.102335
 H 0.0034 0.4098 0.4081   0.124144
 C 0.4485 0.0034 0.7509   0.810024
 C 0.5878 0.000100000000003 0.7562   -0.130076
 C 0.6204 0.9424 0.7804   -0.059438
 C 0.7437 0.9385 0.7868   -0.046515
 C 0.8408 0.9949 0.7668   -0.151664
 C 0.9763 0.9903 0.7706   0.815927
 C 0.8062 0.0535 0.7424   -0.048764
 C 0.6849 0.057 0.7389   -0.05845
 C 0.1361 0.9218 0.6347   0.820801
 C 0.091 0.8888 0.5595   -0.146411
 C 0.048 0.8111 0.5389   -0.055545
 C 0.9975 0.7796 0.4708   -0.055603
 C 0.9849 0.8271 0.4241   -0.1471
 C 0.9137 0.7938 0.3506   0.816038
 C 0.038 0.9048 0.4442   -0.065023
 C 0.0858 0.9336 0.5097   -0.027961
 C 0.3382 0.784 0.8654   0.842486
 C 0.4358 0.821 0.929   -0.16268
 C 0.4679 0.7803 0.9778   -0.037439
 C 0.5492 0.814 0.0402   -0.045821
 C 0.609 0.8893 0.0512   -0.145725
 C 0.6894 0.9296 0.1162   0.829336
 C 0.5808 0.9317 0.0025   -0.041624
 C 0.4955 0.8975 0.942   -0.058647
 C 0.9857 0.709 0.7584   0.832867
 C 0.843 0.6723 0.753   -0.165725
 C 0.7865 0.5976 0.722   -0.059628
 C 0.6556 0.5652 0.72   -0.054439
 C 0.5798 0.6056 0.7491   -0.134679
 C 0.4339 0.5629 0.744   0.809684
 C 0.6351 0.6804 0.7782   -0.04693
 C 0.7645 0.7131 0.7811   -0.049278
 C 0.9807 0.4164 0.783   0.831145
 C 0.8432 0.3849 0.7935   -0.145685
 C 0.7877 0.3054 0.788   -0.056051
 C 0.656 0.2751 0.7889   -0.052983
 C 0.5769 0.3208 0.789   -0.164895
 C 0.4319 0.2874 0.7778   0.844041
 C 0.6299 0.3983 0.796   -0.060486
 C 0.7642 0.4294 0.7985   -0.032922
 C 0.3156 0.509 0.8855   0.805366
 C 0.4101 0.5048 0.9456   -0.13773
 C 0.4591 0.4424 0.944   -0.053925
 C 0.454 0.5617 0.0018   -0.05303
 C 0.1101 0.4963 0.6387   0.790326
 C 0.0537 0.4983 0.5657   -0.124038
 C 0.0552 0.4456 0.5125   -0.049342
 C 0.9986 0.5538 0.5553   -0.062078
 C 0.5515 0.9966 0.2491   0.809968
 C 0.4122 0.9999 0.2438   -0.130083
 C 0.3796 0.0576 0.2196   -0.059437
 C 0.2563 0.0615 0.2132   -0.04652
 C 0.1592 0.0051 0.2332   -0.151633
 C 0.0237 0.0097 0.2294   0.815946
 C 0.1938 0.9465 0.2576   -0.048726
 C 0.3151 0.943 0.2611   -0.058388
 C 0.8639 0.0782 0.3653   0.820804
 C 0.909 0.1112 0.4405   -0.14642
 C 0.952 0.1889 0.4611   -0.055566
 C 0.0025 0.2204 0.5292   -0.055407
 C 0.0151 0.1729 0.5759   -0.147149
 C 0.0863 0.2062 0.6494   0.816061
 C 0.962 0.0952 0.5558   -0.064992
 C 0.9142 0.0664 0.4903   -0.027878
 C 0.6618 0.216 0.1346   0.842509
 C 0.5642 0.179 0.071   -0.16267
 C 0.5321 0.2197 0.0222   -0.037393
 C 0.4508 0.186 0.9598   -0.045764
 C 0.391 0.1107 0.9488   -0.145748
 C 0.3106 0.0704 0.8838   0.829355
 C 0.4192 0.0683 0.9975   -0.04162
 C 0.5045 0.1025 0.058   -0.058644
 C 0.0143 0.291 0.2416   0.832871
 C 0.157 0.3277 0.247   -0.165739
 C 0.2135 0.4024 0.278   -0.059623
 C 0.3444 0.4348 0.28   -0.054413
 C 0.4202 0.3944 0.2509   -0.13468
 C 0.5661 0.4371 0.256   0.809684
 C 0.3649 0.3196 0.2218   -0.04694
 C 0.2355 0.2869 0.2189   -0.049203
 C 0.0193 0.5836 0.217   0.831151
 C 0.1568 0.6151 0.2065   -0.14571
 C 0.2123 0.6946 0.212   -0.05592
 C 0.344 0.7249 0.2111   -0.052955
 C 0.4231 0.6792 0.211   -0.164893
 C 0.5681 0.7126 0.2222   0.844071
 C 0.3701 0.6017 0.204   -0.06053
 C 0.2358 0.5706 0.2015   -0.032898
 C 0.6844 0.491 0.1145   0.805325
 C 0.5899 0.4952 0.0544   -0.137435
 C 0.5409 0.5576 0.056   -0.054677
 C 0.546 0.4383 0.9982   -0.053895
 C 0.8899 0.5037 0.3613   0.790287
 C 0.9463 0.5017 0.4343   -0.123742
 C 0.9448 0.5544 0.4875   -0.049986
 C 0.0014 0.4462 0.4447   -0.062834
 O 0.3681 0.9475 0.7606   -0.74639
 O 0.43 0.0625 0.7378   -0.765791
 O 0.000799999999998 0.9346 0.7911   -0.777514
 O 0.0584 0.043 0.7538   -0.746219
 O 0.1285 0.8787 0.6784   -0.725936
 O 0.1832 0.9928 0.6509   -0.822226
 O 0.8913 0.7244 0.333   -0.746523
 O 0.8835 0.8381 0.3147   -0.803023
 O 0.3064 0.8249 0.8283   -0.788307
 O 0.2969 0.713 0.8534   -0.766476
 O 0.7139 0.8897 0.159   -0.725687
 O 0.734 0.9995 0.1275   -0.817502
 O 0.0228 0.7789 0.7649   -0.759732
 O 0.0572 0.6671 0.7527   -0.789963
 O 0.3983 0.4946 0.7241   -0.772642
 O 0.3703 0.6039 0.7686   -0.736231
 O 0.0262 0.4848 0.791   -0.817307
 O 0.0417 0.3701 0.7685   -0.706497
 O 0.3888 0.2195 0.7686   -0.756557
 O 0.3637 0.3308 0.7796   -0.810183
 O 0.2708 0.5637 0.891   -0.741082
 O 0.2858 0.4569 0.8367   -0.758665
 O 0.1274 0.5546 0.6831   -0.721542
 O 0.1309 0.4355 0.6481   -0.761129
 O 0.6319 0.0525 0.2394   -0.746382
 O 0.57 0.9375 0.2622   -0.765785
 O 0.9992 0.0654 0.2089   -0.777515
 O 0.9416 0.957 0.2462   -0.746229
 O 0.8715 0.1213 0.3216   -0.725934
 O 0.8168 0.0072 0.3491   -0.822227
 O 0.1087 0.2756 0.667   -0.746545
 O 0.1165 0.1619 0.6853   -0.803029
 O 0.6936 0.1751 0.1717   -0.788309
 O 0.7031 0.287 0.1466   -0.76648
 O 0.2861 0.1103 0.841   -0.725703
 O 0.266 0.000500000000002 0.8725   -0.817501
 O 0.9772 0.2211 0.2351   -0.759733
 O 0.9428 0.3329 0.2473   -0.789962
 O 0.6017 0.5054 0.2759   -0.772644
 O 0.6297 0.3961 0.2314   -0.736232
 O 0.9738 0.5152 0.209   -0.817309
 O 0.9583 0.6299 0.2315   -0.706521
 O 0.6112 0.7805 0.2314   -0.756571
 O 0.6363 0.6692 0.2204   -0.810183
 O 0.7292 0.4363 0.109   -0.741072
 O 0.7142 0.5431 0.1633   -0.758653
 O 0.8726 0.4454 0.3169   -0.721531
 O 0.8691 0.5645 0.3519   -0.76112
