{'_ref': 'TBD', '_srcid': 'CAKYAQ_clean', 'submitters': [{'name': 'Dalar Nazarian Jeff Camp and David Sholl', 'email': 'dalar@gatech.edu jcamp6@gatech.edu'}], '_method': 'VASP DFT with PBE;DDEC'}
data_CeH7C19(O4F3)2
_symmetry_space_group_name_H-M   'P 1'
_cell_length_a   7.35240000
_cell_length_b   23.17499964
_cell_length_c   29.16420000
_cell_angle_alpha   90.00000000
_cell_angle_beta   90.00000000
_cell_angle_gamma   90.77199963
_symmetry_Int_Tables_number   1
_chemical_formula_structural   CeH7C19(O4F3)2
_chemical_formula_sum   'Ce8 H56 C152 O64 F48'
_cell_volume   4968.89142093
_cell_formula_units_Z   8
loop_
 _symmetry_equiv_pos_site_id
 _symmetry_equiv_pos_as_xyz
  1  'x, y, z'
loop_
 _atom_site_label
 _atom_site_fract_x
 _atom_site_fract_y
 _atom_site_fract_z
 _atom_site_charge
 Ce 0.79029 0.66691 0.2985   2.259594
 Ce 0.29337 0.73903 0.26366   2.302439
 Ce 0.20971 0.83309 0.7985   2.259594
 Ce 0.70663 0.76097 0.76366   2.302439
 Ce 0.20971 0.33309 0.7015   2.259594
 Ce 0.70663 0.26097 0.73634   2.302439
 Ce 0.79029 0.16691 0.2015   2.259594
 Ce 0.29337 0.23903 0.23634   2.302439
 H 0.9148 0.6199 0.5796   0.455865
 H 0.8992 0.3429 0.2922   0.4007
 H 0.5903 0.7374 0.4511   0.094531
 H 0.9748 0.7664 0.433   0.115417
 H 0.119 0.7972 0.4994   0.105582
 H 0.2221 0.7084 0.5529   0.108949
 H 0.2362 0.8492 0.6662   0.109301
 H 0.4208 0.8588 0.6024   0.089855
 H 0.9725 0.5343 0.1771   0.099481
 H 0.596 0.5537 0.1711   0.109415
 H 0.4459 0.5008 0.1158   0.085781
 H 0.1239 0.4171 0.1795   0.121628
 H 0.5757 0.3604 0.1144   0.100164
 H 0.7546 0.4305 0.0789   0.100739
 H 0.0852 0.8801 0.0796   0.455865
 H 0.1008 0.1571 0.7922   0.4007
 H 0.4097 0.7626 0.9511   0.094531
 H 0.0252 0.7336 0.933   0.115417
 H 0.881 0.7028 0.9994   0.105582
 H 0.7779 0.7916 0.0529   0.108949
 H 0.7638 0.6508 0.1662   0.109301
 H 0.5792 0.6412 0.1024   0.089855
 H 0.0275 0.9657 0.6771   0.099481
 H 0.404 0.9463 0.6711   0.109415
 H 0.5541 0.9992 0.6158   0.085781
 H 0.8761 0.0829 0.6795   0.121628
 H 0.4243 0.1396 0.6144   0.100164
 H 0.2454 0.0695 0.5789   0.100739
 H 0.0852 0.3801 0.4204   0.455864
 H 0.1008 0.6571 0.7078   0.4007
 H 0.4097 0.2626 0.5489   0.094531
 H 0.0252 0.2336 0.567   0.115417
 H 0.881 0.2028 0.5006   0.105582
 H 0.7779 0.2916 0.4471   0.108949
 H 0.7638 0.1508 0.3338   0.109301
 H 0.5792 0.1412 0.3976   0.089855
 H 0.0275 0.4657 0.8229   0.099481
 H 0.404 0.4463 0.8289   0.109415
 H 0.5541 0.4992 0.8842   0.085781
 H 0.8761 0.5829 0.8205   0.121628
 H 0.4243 0.6396 0.8856   0.100164
 H 0.2454 0.5695 0.9211   0.100739
 H 0.9148 0.1199 0.9204   0.455864
 H 0.8992 0.8429 0.2078   0.4007
 H 0.5903 0.2374 0.0489   0.094531
 H 0.9748 0.2664 0.067   0.115417
 H 0.119 0.2972 0.000599999999999   0.105582
 H 0.2221 0.2084 0.9471   0.108949
 H 0.2362 0.3492 0.8338   0.109301
 H 0.4208 0.3588 0.8976   0.089855
 H 0.9725 0.0343 0.3229   0.099481
 H 0.596 0.0537 0.3289   0.109415
 H 0.4459 0.000799999999998 0.3842   0.085781
 H 0.1239 0.9171 0.3205   0.121628
 H 0.5757 0.8604 0.3856   0.100164
 H 0.7546 0.9305 0.4211   0.100739
 C 0.4645 0.789 0.5283   -0.282418
 C 0.3716 0.7684 0.4833   0.031027
 C 0.4662 0.7432 0.4476   -0.073413
 C 0.3839 0.7262 0.4072   -0.115717
 C 0.1939 0.733 0.40208   -0.021186
 C 0.0987 0.7601 0.4366   -0.076016
 C 0.185 0.7784 0.4768   -0.102344
 C 0.4975 0.7021 0.3695   0.702565
 C 0.088 0.7078 0.3626   0.722543
 C 0.3386 0.7858 0.5703   0.061278
 C 0.2253 0.7366 0.5756   -0.093336
 C 0.1181 0.7301 0.6148   -0.120579
 C 0.1206 0.7724 0.649   -0.04424
 C 0.2339 0.8208 0.6437   -0.035676
 C 0.3435 0.8269 0.6051   -0.1004
 C 0.0077 0.6761 0.6178   0.672829
 C 0.9976 0.772 0.6902   0.708645
 C 0.5345 0.8515 0.5194   0.679112
 C 0.6289 0.7503 0.5402   0.678441
 C 0.0769 0.479 0.1038   -0.284064
 C 0.1915 0.5128 0.13893   0.042129
 C 0.0978 0.5397 0.1749   -0.072764
 C 0.1853 0.5738 0.207   -0.119522
 C 0.3763 0.579 0.206   -0.02154
 C 0.4698 0.551 0.1719   -0.067831
 C 0.3792 0.5188 0.1387   -0.095439
 C 0.0745 0.6035 0.2424   0.700824
 C 0.4848 0.612 0.2418   0.725469
 C 0.9552 0.433 0.1271   0.063594
 C 0.0109 0.4073 0.1672   -0.083677
 C 0.9006 0.367 0.1898   -0.077982
 C 0.7327 0.3504 0.1705   -0.076078
 C 0.6826 0.3731 0.1284   -0.026466
 C 0.791 0.4148 0.1067   -0.131577
 C 0.9624 0.347 0.2362   0.732826
 C 0.605 0.308 0.1918   0.717276
 C 0.196 0.4467 0.0685   0.680098
 C 0.9594 0.5245 0.0776   0.680008
 C 0.5355 0.711 0.0283   -0.282418
 C 0.6284 0.7316 0.9833   0.031027
 C 0.5338 0.7568 0.9476   -0.073413
 C 0.6161 0.7738 0.9072   -0.115717
 C 0.8061 0.767 0.90208   -0.021186
 C 0.9013 0.7399 0.9366   -0.076016
 C 0.815 0.7216 0.9768   -0.102344
 C 0.5025 0.7979 0.8695   0.702565
 C 0.912 0.7922 0.8626   0.722543
 C 0.6614 0.7142 0.0703   0.061278
 C 0.7747 0.7634 0.0756   -0.093336
 C 0.8819 0.7699 0.1148   -0.120579
 C 0.8794 0.7276 0.149   -0.04424
 C 0.7661 0.6792 0.1437   -0.035676
 C 0.6565 0.6731 0.1051   -0.1004
 C 0.9923 0.8239 0.1178   0.672829
 C 0.0024 0.728 0.1902   0.708645
 C 0.4655 0.6485 0.0194   0.679112
 C 0.3711 0.7497 0.0402   0.678441
 C 0.9231 0.021 0.6038   -0.284064
 C 0.8085 0.9872 0.63893   0.042129
 C 0.9022 0.9603 0.6749   -0.072764
 C 0.8147 0.9262 0.707   -0.119522
 C 0.6237 0.921 0.706   -0.02154
 C 0.5302 0.949 0.6719   -0.067831
 C 0.6208 0.9812 0.6387   -0.095439
 C 0.9255 0.8965 0.7424   0.700824
 C 0.5152 0.888 0.7418   0.725469
 C 0.0448 0.067 0.6271   0.063594
 C 0.9891 0.0927 0.6672   -0.083677
 C 0.0994 0.133 0.6898   -0.077982
 C 0.2673 0.1496 0.6705   -0.076078
 C 0.3174 0.1269 0.6284   -0.026466
 C 0.209 0.0852 0.6067   -0.131577
 C 0.0376 0.153 0.7362   0.732826
 C 0.395 0.192 0.6918   0.717276
 C 0.804 0.0533 0.5685   0.680098
 C 0.0406 0.9755 0.5776   0.680008
 C 0.5355 0.211 0.4717   -0.282418
 C 0.6284 0.2316 0.5167   0.031027
 C 0.5338 0.2568 0.5524   -0.073413
 C 0.6161 0.2738 0.5928   -0.115717
 C 0.8061 0.267 0.59792   -0.021186
 C 0.9013 0.2399 0.5634   -0.076016
 C 0.815 0.2216 0.5232   -0.102344
 C 0.5025 0.2979 0.6305   0.702565
 C 0.912 0.2922 0.6374   0.722543
 C 0.6614 0.2142 0.4297   0.061278
 C 0.7747 0.2634 0.4244   -0.093336
 C 0.8819 0.2699 0.3852   -0.120579
 C 0.8794 0.2276 0.351   -0.04424
 C 0.7661 0.1792 0.3563   -0.035676
 C 0.6565 0.1731 0.3949   -0.1004
 C 0.9923 0.3239 0.3822   0.672828
 C 0.0024 0.228 0.3098   0.708645
 C 0.4655 0.1485 0.4806   0.679112
 C 0.3711 0.2497 0.4598   0.678441
 C 0.9231 0.521 0.8962   -0.284064
 C 0.8085 0.4872 0.86107   0.042129
 C 0.9022 0.4603 0.8251   -0.072764
 C 0.8147 0.4262 0.793   -0.119522
 C 0.6237 0.421 0.794   -0.02154
 C 0.5302 0.449 0.8281   -0.067831
 C 0.6208 0.4812 0.8613   -0.095439
 C 0.9255 0.3965 0.7576   0.700824
 C 0.5152 0.388 0.7582   0.725469
 C 0.0448 0.567 0.8729   0.063594
 C 0.9891 0.5927 0.8328   -0.083676
 C 0.0994 0.633 0.8102   -0.077982
 C 0.2673 0.6496 0.8295   -0.076078
 C 0.3174 0.6269 0.8716   -0.026466
 C 0.209 0.5852 0.8933   -0.131577
 C 0.0376 0.653 0.7638   0.732826
 C 0.395 0.692 0.8082   0.717276
 C 0.804 0.5533 0.9315   0.680098
 C 0.0406 0.4755 0.9224   0.680008
 C 0.4645 0.289 0.9717   -0.282418
 C 0.3716 0.2684 0.0167   0.031027
 C 0.4662 0.2432 0.0524   -0.073413
 C 0.3839 0.2262 0.0928   -0.115717
 C 0.1939 0.233 0.09792   -0.021186
 C 0.0987 0.2601 0.0634   -0.076016
 C 0.185 0.2784 0.0232   -0.102344
 C 0.4975 0.2021 0.1305   0.702565
 C 0.088 0.2078 0.1374   0.722543
 C 0.3386 0.2858 0.9297   0.061278
 C 0.2253 0.2366 0.9244   -0.093336
 C 0.1181 0.2301 0.8852   -0.120579
 C 0.1206 0.2724 0.851   -0.04424
 C 0.2339 0.3208 0.8563   -0.035676
 C 0.3435 0.3269 0.8949   -0.1004
 C 0.0077 0.1761 0.8822   0.672828
 C 0.9976 0.272 0.8098   0.708645
 C 0.5345 0.3515 0.9806   0.679112
 C 0.6289 0.2503 0.9598   0.678441
 C 0.0769 0.979 0.3962   -0.284064
 C 0.1915 0.0128 0.36107   0.042129
 C 0.0978 0.0397 0.3251   -0.072764
 C 0.1853 0.0738 0.293   -0.119522
 C 0.3763 0.079 0.294   -0.02154
 C 0.4698 0.051 0.3281   -0.067831
 C 0.3792 0.0188 0.3613   -0.095439
 C 0.0745 0.1035 0.2576   0.700824
 C 0.4848 0.112 0.2582   0.725469
 C 0.9552 0.933 0.3729   0.063594
 C 0.0109 0.9073 0.3328   -0.083676
 C 0.9006 0.867 0.3102   -0.077982
 C 0.7327 0.8504 0.3295   -0.076078
 C 0.6826 0.8731 0.3716   -0.026466
 C 0.791 0.9148 0.3933   -0.131577
 C 0.9624 0.847 0.2638   0.732826
 C 0.605 0.808 0.3082   0.717276
 C 0.196 0.9467 0.4315   0.680098
 C 0.9594 0.0245 0.4224   0.680008
 O 0.6667 0.7002 0.37547   -0.658533
 O 0.4223 0.68629 0.33239   -0.753693
 O 0.0605 0.73882 0.32641   -0.828196
 O 0.0182 0.65916 0.36689   -0.619145
 O 0.9814 0.6509 0.65524   -0.556038
 O 0.9452 0.6571 0.57994   -0.518039
 O 0.0678 0.7803 0.72945   -0.769033
 O 0.8306 0.7661 0.684   -0.681565
 O 0.1505 0.63811 0.27032   -0.74203
 O 0.9034 0.5945 0.24232   -0.66798
 O 0.5131 0.66596 0.23559   -0.840085
 O 0.5537 0.5855 0.27405   -0.616729
 O 0.1167 0.3308 0.2423   -0.625148
 O 0.8428 0.3526 0.26924   -0.481209
 O 0.6659 0.26418 0.2121   -0.803565
 O 0.4381 0.3166 0.18825   -0.656637
 O 0.3333 0.7998 0.87547   -0.658533
 O 0.5777 0.81371 0.83239   -0.753693
 O 0.9395 0.76118 0.82641   -0.828196
 O 0.9818 0.84084 0.86689   -0.619145
 O 0.0186 0.8491 0.15524   -0.556038
 O 0.0548 0.8429 0.07994   -0.518039
 O 0.9322 0.7197 0.22945   -0.769033
 O 0.1694 0.7339 0.184   -0.681565
 O 0.8495 0.86189 0.77032   -0.74203
 O 0.0966 0.9055 0.74232   -0.66798
 O 0.4869 0.83404 0.73559   -0.840085
 O 0.4463 0.9145 0.77405   -0.616729
 O 0.8833 0.1692 0.7423   -0.625148
 O 0.1572 0.1474 0.76924   -0.481209
 O 0.3341 0.23582 0.7121   -0.803565
 O 0.5619 0.1834 0.68825   -0.656637
 O 0.3333 0.2998 0.62453   -0.658533
 O 0.5777 0.31371 0.66761   -0.753693
 O 0.9395 0.26118 0.67359   -0.828196
 O 0.9818 0.34084 0.63311   -0.619145
 O 0.0186 0.3491 0.34476   -0.556037
 O 0.0548 0.3429 0.42006   -0.518038
 O 0.9322 0.2197 0.27055   -0.769033
 O 0.1694 0.2339 0.316   -0.681565
 O 0.8495 0.36189 0.72968   -0.74203
 O 0.0966 0.4055 0.75768   -0.66798
 O 0.4869 0.33404 0.76441   -0.840085
 O 0.4463 0.4145 0.72595   -0.616729
 O 0.8833 0.6692 0.7577   -0.625148
 O 0.1572 0.6474 0.73076   -0.481209
 O 0.3341 0.73582 0.7879   -0.803565
 O 0.5619 0.6834 0.81175   -0.656637
 O 0.6667 0.2002 0.12453   -0.658533
 O 0.4223 0.18629 0.16761   -0.753693
 O 0.0605 0.23882 0.17359   -0.828196
 O 0.0182 0.15916 0.13311   -0.619145
 O 0.9814 0.1509 0.84476   -0.556037
 O 0.9452 0.1571 0.92006   -0.518038
 O 0.0678 0.2803 0.77055   -0.769033
 O 0.8306 0.2661 0.816   -0.681565
 O 0.1505 0.13811 0.22968   -0.74203
 O 0.9034 0.0945 0.25768   -0.66798
 O 0.5131 0.16596 0.26441   -0.840085
 O 0.5537 0.0855 0.22595   -0.616729
 O 0.1167 0.8308 0.2577   -0.625148
 O 0.8428 0.8526 0.23076   -0.481209
 O 0.6659 0.76418 0.2879   -0.803565
 O 0.4381 0.8166 0.31175   -0.656637
 F 0.3985 0.88759 0.51848   -0.18831
 F 0.6511 0.8692 0.55164   -0.191973
 F 0.6216 0.8548 0.4794   -0.192889
 F 0.7741 0.7589 0.51294   -0.194777
 F 0.5819 0.6943 0.53703   -0.201931
 F 0.6856 0.76 0.58299   -0.188564
 F 0.2999 0.48326 0.04387   -0.203237
 F 0.3067 0.41109 0.09008   -0.177506
 F 0.0961 0.41547 0.03954   -0.194201
 F 0.0575 0.57044 0.06576   -0.199083
 F 0.8856 0.50364 0.03899   -0.205457
 F 0.822 0.54229 0.1033   -0.180285
 F 0.6015 0.61241 0.01848   -0.188311
 F 0.3489 0.6308 0.05164   -0.191973
 F 0.3784 0.6452 0.9794   -0.192889
 F 0.2259 0.7411 0.01294   -0.194777
 F 0.4181 0.8057 0.03703   -0.201931
 F 0.3144 0.74 0.08299   -0.188564
 F 0.7001 0.01674 0.54387   -0.203238
 F 0.6933 0.08891 0.59008   -0.177506
 F 0.9039 0.08453 0.53954   -0.194201
 F 0.9425 0.92956 0.56576   -0.199083
 F 0.1144 0.99636 0.53899   -0.205457
 F 0.178 0.95771 0.6033   -0.180285
 F 0.6015 0.11241 0.48152   -0.188311
 F 0.3489 0.1308 0.44836   -0.191973
 F 0.3784 0.1452 0.5206   -0.192889
 F 0.2259 0.2411 0.48706   -0.194777
 F 0.4181 0.3057 0.46297   -0.201931
 F 0.3144 0.24 0.41701   -0.188564
 F 0.7001 0.51674 0.95613   -0.203238
 F 0.6933 0.58891 0.90992   -0.177506
 F 0.9039 0.58453 0.96046   -0.194201
 F 0.9425 0.42956 0.93424   -0.199083
 F 0.1144 0.49636 0.96101   -0.205458
 F 0.178 0.45771 0.8967   -0.180285
 F 0.3985 0.38759 0.98152   -0.188311
 F 0.6511 0.3692 0.94836   -0.191973
 F 0.6216 0.3548 0.0206   -0.192889
 F 0.7741 0.2589 0.98706   -0.194777
 F 0.5819 0.1943 0.96297   -0.201931
 F 0.6856 0.26 0.91701   -0.188564
 F 0.2999 0.98326 0.45613   -0.203238
 F 0.3067 0.91109 0.40992   -0.177506
 F 0.0961 0.91547 0.46046   -0.194201
 F 0.0575 0.07044 0.43424   -0.199083
 F 0.8856 0.00364 0.46101   -0.205458
 F 0.822 0.04229 0.3967   -0.180285
