{'_ref': 'TBD', '_srcid': 'CAKYAQ_clean', 'submitters': [{'name': 'Dalar Nazarian Jeff Camp and David Sholl', 'email': 'dalar@gatech.edu jcamp6@gatech.edu'}], '_method': 'VASP DFT with PBE;DDEC'}
data_Y4H18C57(O4F3)6
_symmetry_space_group_name_H-M   'P 1'
_cell_length_a   8.09539992
_cell_length_b   21.25899979
_cell_length_c   22.81490000
_cell_angle_alpha   82.51999951
_cell_angle_beta   82.39399762
_cell_angle_gamma   79.97199996
_symmetry_Int_Tables_number   1
_chemical_formula_structural   Y4H18C57(O4F3)6
_chemical_formula_sum   'Y8 H36 C114 O48 F36'
_cell_volume   3809.28791413
_cell_formula_units_Z   2
loop_
 _symmetry_equiv_pos_site_id
 _symmetry_equiv_pos_as_xyz
  1  'x, y, z'
loop_
 _atom_site_label
 _atom_site_fract_x
 _atom_site_fract_y
 _atom_site_fract_z
 _atom_site_charge
 Y 0.80207 0.4246 0.284   2.131579
 Y 0.38643 0.47118 0.43309   2.045699
 Y 0.46433 0.24909 0.09561   2.171779
 Y 0.23957 0.0934 0.03635   2.113119
 Y 0.19793 0.5754 0.716   2.131579
 Y 0.61357 0.52882 0.56691   2.045699
 Y 0.53567 0.75091 0.90439   2.171779
 Y 0.76043 0.9066 0.96365   2.113119
 H 0.5592 0.6459 0.2534   0.106341
 H 0.5334 0.7145 0.4379   0.100052
 H 0.4431 0.7858 0.3606   0.111478
 H 0.4026 0.7694 0.1255   0.108494
 H 0.9684 0.7479 0.1513   0.097312
 H 0.7677 0.7463 0.233   0.10796
 H 0.3388 0.2823 0.4307   0.113293
 H 0.3366 0.1864 0.2603   0.103713
 H 0.2369 0.1373 0.3515   0.106599
 H 0.9798 0.2706 0.4159   0.109086
 H 0.9819 0.3109 0.6097   0.107543
 H 0.1375 0.2172 0.5774   0.111383
 H 0.6492 0.0897 0.2168   0.107019
 H 0.8444 0.8856 0.1637   0.101418
 H 0.8988 0.9121 0.2532   0.103562
 H 0.0326 0.0729 0.2149   0.096758
 H 0.7741 0.2456 0.3141   0.109037
 H 0.7186 0.144 0.3505   0.108471
 H 0.4408 0.3541 0.7466   0.106341
 H 0.4666 0.2855 0.5621   0.100052
 H 0.5569 0.2142 0.6394   0.111478
 H 0.5974 0.2306 0.8745   0.108494
 H 0.0316 0.2521 0.8487   0.097312
 H 0.2323 0.2537 0.767   0.10796
 H 0.6612 0.7177 0.5693   0.113293
 H 0.6634 0.8136 0.7397   0.103713
 H 0.7631 0.8627 0.6485   0.106599
 H 0.0202 0.7294 0.5841   0.109086
 H 0.0181 0.6891 0.3903   0.107543
 H 0.8625 0.7828 0.4226   0.111382
 H 0.3508 0.9103 0.7832   0.107019
 H 0.1556 0.1144 0.8363   0.101418
 H 0.1012 0.0879 0.7468   0.103562
 H 0.9674 0.9271 0.7851   0.096758
 H 0.2259 0.7544 0.6859   0.109037
 H 0.2814 0.856 0.6495   0.108471
 C 0.4338 0.76889 0.24398   -0.288431
 C 0.4912 0.72384 0.29796   0.077647
 C 0.5491 0.65931 0.29105   -0.114086
 C 0.5924 0.61438 0.33877   -0.044254
 C 0.5844 0.63558 0.39496   -0.10791
 C 0.5334 0.7001 0.40117   -0.00968
 C 0.4832 0.74318 0.35456   -0.133078
 C 0.654 0.54608 0.32638   0.763205
 C 0.62 0.5913 0.44975   0.706294
 C 0.563 0.76097 0.18803   0.034775
 C 0.5156 0.76678 0.13079   -0.071771
 C 0.6373 0.76859 0.08142   -0.112191
 C 0.8063 0.7644 0.08852   -0.055694
 C 0.8545 0.754 0.14598   -0.061135
 C 0.734 0.75275 0.195   -0.105076
 C 0.583 0.77226 0.02079   0.747197
 C 0.9414 0.77349 0.03703   0.719306
 C 0.2576 0.75557 0.23478   0.687394
 C 0.4157 0.84134 0.25399   0.682318
 C 0.1986 0.17963 0.46351   -0.299182
 C 0.2724 0.20541 0.40102   0.066793
 C 0.3363 0.26337 0.39636   -0.106154
 C 0.3953 0.29278 0.34206   -0.084631
 C 0.3905 0.26496 0.28947   -0.101291
 C 0.3345 0.20635 0.29442   -0.027737
 C 0.2749 0.17648 0.34933   -0.13465
 C 0.4668 0.35392 0.34109   0.805834
 C 0.4246 0.30184 0.22914   0.759143
 C 0.0834 0.23576 0.49174   0.075523
 C 0.9827 0.27924 0.45465   -0.102112
 C 0.8873 0.33464 0.47402   -0.083228
 C 0.8933 0.3482 0.5321   -0.068876
 C 0.984 0.30329 0.57036   -0.02917
 C 0.0783 0.24705 0.55103   -0.135365
 C 0.7817 0.37841 0.43079   0.804125
 C 0.8195 0.41271 0.54991   0.647596
 C 0.3496 0.15049 0.49878   0.691403
 C 0.0916 0.12664 0.46294   0.696478
 C 0.8259 0.02835 0.30055   -0.289145
 C 0.7854 0.00474 0.24372   0.047388
 C 0.6906 0.04877 0.20576   -0.054986
 C 0.6555 0.0334 0.15132   -0.177417
 C 0.7166 0.97138 0.13536   -0.003793
 C 0.8059 0.92704 0.17396   -0.075669
 C 0.8395 0.94296 0.22768   -0.096138
 C 0.5679 0.08525 0.11053   0.799351
 C 0.7167 0.9541 0.07354   0.679345
 C 0.8644 0.09714 0.28499   0.056589
 C 0.9783 0.10778 0.23445   -0.083241
 C 0.013 0.16835 0.21258   -0.132674
 C 0.9285 0.22195 0.24101   -0.065961
 C 0.8236 0.21098 0.29332   -0.034176
 C 0.7901 0.14982 0.31553   -0.113002
 C 0.1452 0.17311 0.15982   0.839105
 C 0.9301 0.28994 0.213   0.750939
 C 0.671 0.02264 0.34703   0.688485
 C 0.9821 0.98676 0.32643   0.691144
 C 0.5662 0.23111 0.75602   -0.288431
 C 0.5088 0.27616 0.70204   0.077647
 C 0.4509 0.34069 0.70895   -0.114086
 C 0.4076 0.38562 0.66123   -0.044254
 C 0.4156 0.36442 0.60504   -0.10791
 C 0.4666 0.2999 0.59883   -0.00968
 C 0.5168 0.25682 0.64544   -0.133078
 C 0.346 0.45392 0.67362   0.763205
 C 0.38 0.4087 0.55025   0.706294
 C 0.437 0.23903 0.81197   0.034775
 C 0.4844 0.23322 0.86921   -0.071771
 C 0.3627 0.23141 0.91858   -0.112191
 C 0.1937 0.2356 0.91148   -0.055694
 C 0.1455 0.246 0.85402   -0.061135
 C 0.266 0.24725 0.805   -0.105076
 C 0.417 0.22774 0.97921   0.747197
 C 0.0586 0.22651 0.96297   0.719306
 C 0.7424 0.24443 0.76522   0.687394
 C 0.5843 0.15866 0.74601   0.682318
 C 0.8014 0.82037 0.53649   -0.299182
 C 0.7276 0.79459 0.59898   0.066793
 C 0.6637 0.73663 0.60364   -0.106154
 C 0.6047 0.70722 0.65794   -0.084631
 C 0.6095 0.73504 0.71053   -0.101291
 C 0.6655 0.79365 0.70558   -0.027737
 C 0.7251 0.82352 0.65067   -0.13465
 C 0.5332 0.64608 0.65891   0.805834
 C 0.5754 0.69816 0.77086   0.759143
 C 0.9166 0.76424 0.50826   0.075523
 C 0.0173 0.72076 0.54535   -0.102112
 C 0.1127 0.66536 0.52598   -0.083228
 C 0.1067 0.6518 0.4679   -0.068876
 C 0.016 0.69671 0.42964   -0.029171
 C 0.9217 0.75295 0.44897   -0.135365
 C 0.2183 0.62159 0.56921   0.804125
 C 0.1805 0.58729 0.45009   0.647596
 C 0.6504 0.84951 0.50122   0.691403
 C 0.9084 0.87336 0.53706   0.696478
 C 0.1741 0.97165 0.69945   -0.289145
 C 0.2146 0.99526 0.75628   0.047388
 C 0.3094 0.95123 0.79424   -0.054986
 C 0.3445 0.9666 0.84868   -0.177417
 C 0.2834 0.02862 0.86464   -0.003793
 C 0.1941 0.07296 0.82604   -0.075669
 C 0.1605 0.05704 0.77232   -0.096138
 C 0.4321 0.91475 0.88947   0.799351
 C 0.2833 0.0459 0.92646   0.679345
 C 0.1356 0.90286 0.71501   0.056589
 C 0.0217 0.89222 0.76555   -0.083241
 C 0.987 0.83165 0.78742   -0.132674
 C 0.0715 0.77805 0.75899   -0.065961
 C 0.1764 0.78902 0.70668   -0.034176
 C 0.2099 0.85018 0.68447   -0.113002
 C 0.8548 0.82689 0.84018   0.839105
 C 0.0699 0.71006 0.787   0.750939
 C 0.329 0.97736 0.65297   0.688485
 C 0.0179 0.01324 0.67357   0.691144
 O 0.7948 0.53492 0.29527   -0.703157
 O 0.5693 0.50121 0.34328   -0.752637
 O 0.5641 0.53809 0.45804   -0.723692
 O 0.6927 0.60869 0.48866   -0.613321
 O 0.6493 0.80696 0.97741   -0.802644
 O 0.4781 0.73791 0.0118   -0.67223
 O 0.9437 0.83099 0.01364   -0.760737
 O 0.0465 0.72685 0.02234   -0.586585
 O 0.6117 0.35561 0.3138   -0.726743
 O 0.3791 0.39708 0.3693   -0.70064
 O 0.4978 0.27081 0.18704   -0.806
 O 0.3716 0.36114 0.22423   -0.637586
 O 0.8572 0.39305 0.37919   -0.749323
 O 0.6301 0.39627 0.44702   -0.661787
 O 0.7495 0.42058 0.60213   -0.666472
 O 0.8261 0.46054 0.51004   -0.642967
 O 0.5598 0.14208 0.12065   -0.716643
 O 0.5094 0.06772 0.06669   -0.716484
 O 0.6125 0.92123 0.06125   -0.673184
 O 0.8344 0.96965 0.03539   -0.676284
 O 0.2361 0.21498 0.15628   -0.697021
 O 0.1597 0.13119 0.12429   -0.772158
 O 0.9314 0.33255 0.24645   -0.810026
 O 0.9207 0.30079 0.15755   -0.626836
 O 0.2052 0.46508 0.70473   -0.703157
 O 0.4307 0.49879 0.65672   -0.752637
 O 0.4359 0.46191 0.54196   -0.723692
 O 0.3073 0.39131 0.51134   -0.613321
 O 0.3507 0.19304 0.02259   -0.802644
 O 0.5219 0.26209 0.9882   -0.67223
 O 0.0563 0.16901 0.98636   -0.760737
 O 0.9535 0.27315 0.97766   -0.586587
 O 0.3883 0.64439 0.6862   -0.726743
 O 0.6209 0.60292 0.6307   -0.70064
 O 0.5022 0.72919 0.81296   -0.806
 O 0.6284 0.63886 0.77577   -0.637587
 O 0.1428 0.60695 0.62081   -0.749323
 O 0.3699 0.60373 0.55298   -0.661787
 O 0.2505 0.57942 0.39787   -0.666472
 O 0.1739 0.53946 0.48996   -0.642967
 O 0.4402 0.85792 0.87935   -0.716643
 O 0.4906 0.93228 0.93331   -0.716484
 O 0.3875 0.07877 0.93875   -0.673184
 O 0.1656 0.03035 0.96461   -0.676284
 O 0.7639 0.78502 0.84372   -0.697021
 O 0.8403 0.86881 0.87571   -0.772158
 O 0.0686 0.66745 0.75355   -0.810026
 O 0.0793 0.69921 0.84245   -0.626838
 F 0.1571 0.75166 0.28639   -0.204385
 F 0.1746 0.80169 0.19822   -0.196501
 F 0.2688 0.70045 0.21171   -0.18736
 F 0.2862 0.85767 0.29536   -0.211966
 F 0.5546 0.85336 0.27275   -0.185947
 F 0.3888 0.87998 0.20452   -0.195479
 F 0.4325 0.19634 0.51006   -0.195997
 F 0.462 0.10964 0.46802   -0.211597
 F 0.305 0.11863 0.55104   -0.200084
 F 0.0105 0.11249 0.51656   -0.209518
 F 0.1828 0.07203 0.44591   -0.194576
 F 0.9731 0.14578 0.42573   -0.199839
 F 0.6247 0.96465 0.3516   -0.209133
 F 0.537 0.06551 0.33118   -0.196607
 F 0.6965 0.03277 0.40144   -0.190467
 F 0.9556 0.92763 0.34957   -0.194741
 F 0.1129 0.97973 0.28402   -0.202338
 F 0.0305 0.01432 0.3689   -0.205473
 F 0.8429 0.24834 0.71361   -0.204385
 F 0.8254 0.19831 0.80178   -0.196501
 F 0.7312 0.29955 0.78829   -0.18736
 F 0.7138 0.14233 0.70464   -0.211966
 F 0.4454 0.14664 0.72725   -0.185947
 F 0.6112 0.12002 0.79548   -0.195479
 F 0.5675 0.80366 0.48994   -0.195997
 F 0.538 0.89036 0.53198   -0.211597
 F 0.695 0.88137 0.44896   -0.200083
 F 0.9895 0.88751 0.48344   -0.209517
 F 0.8172 0.92797 0.55409   -0.194575
 F 0.0269 0.85422 0.57427   -0.199839
 F 0.3753 0.03535 0.6484   -0.209133
 F 0.463 0.93449 0.66882   -0.196607
 F 0.3035 0.96723 0.59856   -0.190467
 F 0.0444 0.07237 0.65043   -0.194741
 F 0.8871 0.02027 0.71598   -0.202338
 F 0.9695 0.98568 0.6311   -0.205473
