{'_ref': 'TBD', '_srcid': 'CAKYAQ_clean', 'submitters': [{'name': 'Dalar Nazarian Jeff Camp and David Sholl', 'email': 'dalar@gatech.edu jcamp6@gatech.edu'}], '_method': 'VASP DFT with PBE;DDEC'}
data_CaH6(C3O)4
_symmetry_space_group_name_H-M   'P 1'
_cell_length_a   6.70170000
_cell_length_b   14.39580000
_cell_length_c   14.94050000
_cell_angle_alpha   90.00000000
_cell_angle_beta   90.00000000
_cell_angle_gamma   90.00000000
_symmetry_Int_Tables_number   1
_chemical_formula_structural   CaH6(C3O)4
_chemical_formula_sum   'Ca4 H24 C48 O16'
_cell_volume   1441.40465109
_cell_formula_units_Z   4
loop_
 _symmetry_equiv_pos_site_id
 _symmetry_equiv_pos_as_xyz
  1  'x, y, z'
loop_
 _atom_site_label
 _atom_site_fract_x
 _atom_site_fract_y
 _atom_site_fract_z
 _atom_site_charge
 Ca 0.86327 0.80386 0.45807   1.609486
 Ca 0.63673 0.19614 0.95807   1.609486
 Ca 0.13673 0.30386 0.04193   1.609489
 Ca 0.36327 0.69614 0.54193   1.609489
 H 0.8534 0.6602 0.7512   0.107102
 H 0.8913 0.5486 0.8625   0.096818
 H 0.8649 0.2675 0.7101   0.102068
 H 0.8687 0.2263 0.5636   0.099739
 H 0.8784 0.3388 0.4517   0.099552
 H 0.8758 0.4931 0.4882   0.113416
 H 0.6466 0.3398 0.2512   0.107102
 H 0.6087 0.4514 0.3625   0.096818
 H 0.6351 0.7325 0.2101   0.102068
 H 0.6313 0.7737 0.0636   0.099739
 H 0.6216 0.6612 0.9517   0.099552
 H 0.6242 0.5069 0.9882   0.113416
 H 0.1466 0.1602 0.7488   0.107102
 H 0.1087 0.0486 0.6375   0.096819
 H 0.1351 0.7675 0.7899   0.102068
 H 0.1313 0.7263 0.9364   0.09974
 H 0.1216 0.8388 0.0483   0.099551
 H 0.1242 0.9931 0.0118   0.113416
 H 0.3534 0.8398 0.2488   0.107103
 H 0.3913 0.9514 0.1375   0.096819
 H 0.3649 0.2325 0.2899   0.102068
 H 0.3687 0.2737 0.4364   0.09974
 H 0.3784 0.1612 0.5483   0.099552
 H 0.3758 0.0069 0.5118   0.113416
 C 0.8632 0.6491 0.57878   0.773196
 C 0.8656 0.57299 0.64792   -0.188823
 C 0.8647 0.59784 0.73556   -0.075356
 C 0.8806 0.52986 0.80306   -0.058705
 C 0.8809 0.43773 0.78351   -0.143777
 C 0.8725 0.40853 0.69253   0.061047
 C 0.8722 0.47751 0.62367   0.051963
 C 0.8687 0.31344 0.66638   -0.120521
 C 0.8705 0.28883 0.57912   -0.084229
 C 0.875 0.35666 0.51151   -0.085017
 C 0.8746 0.44867 0.53344   -0.134883
 C 0.8914 0.37012 0.86171   0.783587
 C 0.6368 0.3509 0.07878   0.773196
 C 0.6344 0.42701 0.14792   -0.188823
 C 0.6353 0.40216 0.23556   -0.075356
 C 0.6194 0.47014 0.30306   -0.058705
 C 0.6191 0.56227 0.28351   -0.143777
 C 0.6275 0.59147 0.19253   0.061047
 C 0.6278 0.52249 0.12367   0.051963
 C 0.6313 0.68656 0.16638   -0.120521
 C 0.6295 0.71117 0.07912   -0.084229
 C 0.625 0.64334 0.01151   -0.085017
 C 0.6254 0.55133 0.03344   -0.134883
 C 0.6086 0.62988 0.36171   0.783587
 C 0.1368 0.1491 0.92122   0.773196
 C 0.1344 0.07299 0.85208   -0.188823
 C 0.1353 0.09784 0.76444   -0.075356
 C 0.1194 0.02986 0.69694   -0.058706
 C 0.1191 0.93773 0.71649   -0.143777
 C 0.1275 0.90853 0.80747   0.061047
 C 0.1278 0.97751 0.87633   0.051963
 C 0.1313 0.81344 0.83362   -0.12052
 C 0.1295 0.78883 0.92088   -0.084229
 C 0.125 0.85666 0.98849   -0.085017
 C 0.1254 0.94867 0.96656   -0.134883
 C 0.1086 0.87012 0.63829   0.783587
 C 0.3632 0.8509 0.42122   0.773196
 C 0.3656 0.92701 0.35208   -0.188823
 C 0.3647 0.90216 0.26444   -0.075356
 C 0.3806 0.97014 0.19694   -0.058706
 C 0.3809 0.06227 0.21649   -0.143777
 C 0.3725 0.09147 0.30747   0.061047
 C 0.3722 0.02249 0.37633   0.051963
 C 0.3687 0.18656 0.33362   -0.12052
 C 0.3705 0.21117 0.42088   -0.084229
 C 0.375 0.14334 0.48849   -0.085017
 C 0.3746 0.05133 0.46656   -0.134883
 C 0.3914 0.12988 0.13829   0.783588
 O 0.71874 0.70453 0.57848   -0.765401
 O 0.00807 0.65653 0.52528   -0.756522
 O 0.7828 0.29948 0.85891   -0.745782
 O 0.0076 0.3913 0.92411   -0.738962
 O 0.78126 0.29547 0.07848   -0.765401
 O 0.49193 0.34347 0.02528   -0.756522
 O 0.7172 0.70052 0.35891   -0.745782
 O 0.4924 0.6087 0.42411   -0.738962
 O 0.28126 0.20453 0.92152   -0.765401
 O 0.99193 0.15653 0.97472   -0.756522
 O 0.2172 0.79948 0.64109   -0.745782
 O 0.9924 0.8913 0.57589   -0.738962
 O 0.21874 0.79547 0.42152   -0.765401
 O 0.50807 0.84347 0.47472   -0.756522
 O 0.2828 0.20052 0.14109   -0.745782
 O 0.5076 0.1087 0.07589   -0.738962
