{'_ref': 'TBD', '_srcid': 'CAKYAQ_clean', 'submitters': [{'name': 'Dalar Nazarian Jeff Camp and David Sholl', 'email': 'dalar@gatech.edu jcamp6@gatech.edu'}], '_method': 'VASP DFT with PBE;DDEC'}
data_Ni2H22C39N4(O4F3)2
_symmetry_space_group_name_H-M   'P 1'
_cell_length_a   8.19840000
_cell_length_b   11.30700000
_cell_length_c   24.09400000
_cell_angle_alpha   90.00000000
_cell_angle_beta   90.00000000
_cell_angle_gamma   90.00000000
_symmetry_Int_Tables_number   1
_chemical_formula_structural   Ni2H22C39N4(O4F3)2
_chemical_formula_sum   'Ni4 H44 C78 N8 O16 F12'
_cell_volume   2233.49714623
_cell_formula_units_Z   2
loop_
 _symmetry_equiv_pos_site_id
 _symmetry_equiv_pos_as_xyz
  1  'x, y, z'
loop_
 _atom_site_label
 _atom_site_fract_x
 _atom_site_fract_y
 _atom_site_fract_z
 _atom_site_charge
 Ni 0.90934 0.4706 0.815   0.861654
 Ni 0.09066 0.4706 0.185   0.861654
 Ni 0.40934 0.5294 0.685   0.861654
 Ni 0.59066 0.5294 0.315   0.861654
 H 0.4003 0.7429 0.8188   0.072083
 H 0.3764 0.8646 0.8949   0.095881
 H 0.657 0.64 0.9821   0.125186
 H 0.7123 0.2622 0.77   0.075762
 H 0.7078 0.061 0.7684   0.116537
 H 0.0907 0.0611 0.8714   0.12961
 H 0.0846 0.2632 0.8698   0.100608
 H 0.8209 0.8818 0.739   0.119992
 H 0.8318 0.6794 0.7379   0.089676
 H 0.0095 0.6734 0.8879   0.096856
 H 0.0013 0.8746 0.8931   0.121658
 H 0.5997 0.7429 0.1812   0.072083
 H 0.6236 0.8646 0.1051   0.095881
 H 0.343 0.64 0.0179   0.125188
 H 0.2877 0.2622 0.23   0.075762
 H 0.2922 0.061 0.2316   0.116537
 H 0.9093 0.0611 0.1286   0.12961
 H 0.9154 0.2632 0.1302   0.100608
 H 0.1791 0.8818 0.261   0.119992
 H 0.1682 0.6794 0.2621   0.089676
 H 0.9905 0.6734 0.1121   0.096858
 H 0.9987 0.8746 0.1069   0.121658
 H 0.9003 0.2571 0.6812   0.072083
 H 0.8764 0.1354 0.6051   0.095882
 H 0.157 0.36 0.5179   0.125186
 H 0.2123 0.7378 0.73   0.075762
 H 0.2078 0.939 0.7316   0.116537
 H 0.5907 0.9389 0.6286   0.12961
 H 0.5846 0.7368 0.6302   0.100609
 H 0.3209 0.1182 0.761   0.119993
 H 0.3318 0.3206 0.7621   0.089677
 H 0.5095 0.3266 0.6121   0.096856
 H 0.5013 0.1254 0.6069   0.121658
 H 0.0997 0.2571 0.3188   0.072083
 H 0.1236 0.1354 0.3949   0.095882
 H 0.843 0.36 0.4821   0.125188
 H 0.7877 0.7378 0.27   0.075762
 H 0.7922 0.939 0.2684   0.116537
 H 0.4093 0.9389 0.3714   0.12961
 H 0.4154 0.7368 0.3698   0.100609
 H 0.6791 0.1182 0.239   0.119993
 H 0.6682 0.3206 0.2379   0.089677
 H 0.4905 0.3266 0.3879   0.096858
 H 0.4987 0.1254 0.3931   0.121658
 C 0.6187 0.5872 0.903   -0.012511
 C 0.54 0.6172 0.85384   -0.159655
 C 0.4512 0.7217 0.85178   -0.008513
 C 0.4362 0.7949 0.89729   -0.188957
 C 0.5122 0.7632 0.94724   0.079191
 C 0.6042 0.6604 0.94932   -0.137133
 C 0.7103 0.4712 0.911   0.652699
 C 0.5479 0.5406 0.80254   0.655245
 C 0.6558 0.9193 0.000100000000003   0.7005
 C 0.7903 0.2211 0.79042   0.195765
 C 0.787 0.1001 0.78903   -0.200229
 C 0.9027 0.0356 0.81871   0.094891
 C 0.0132 0.0999 0.8499   -0.191819
 C 0.0082 0.2218 0.8489   0.170157
 C 0.9074 0.9041 0.81691   0.094485
 C 0.8585 0.8414 0.77011   -0.203863
 C 0.8654 0.7192 0.76965   0.187771
 C 0.9696 0.7159 0.8578   0.18123
 C 0.9652 0.837 0.86104   -0.181955
 C 0.3813 0.5872 0.097   -0.01251
 C 0.46 0.6172 0.14616   -0.159655
 C 0.5488 0.7217 0.14822   -0.008513
 C 0.5638 0.7949 0.10271   -0.188957
 C 0.4878 0.7632 0.05276   0.079192
 C 0.3958 0.6604 0.05068   -0.137133
 C 0.2897 0.4712 0.089   0.652699
 C 0.4521 0.5406 0.19746   0.655245
 C 0.3442 0.9193 0.9999   0.700499
 C 0.2097 0.2211 0.20958   0.195765
 C 0.213 0.1001 0.21097   -0.200229
 C 0.0973 0.0356 0.18129   0.094891
 C 0.9868 0.0999 0.1501   -0.191819
 C 0.9918 0.2218 0.1511   0.170156
 C 0.0926 0.9041 0.18309   0.094485
 C 0.1415 0.8414 0.22989   -0.203863
 C 0.1346 0.7192 0.23035   0.187771
 C 0.0304 0.7159 0.1422   0.18123
 C 0.0348 0.837 0.13896   -0.181955
 C 0.1187 0.4128 0.597   -0.012511
 C 0.04 0.3828 0.64616   -0.159655
 C 0.9512 0.2783 0.64822   -0.008513
 C 0.9362 0.2051 0.60271   -0.188958
 C 0.0122 0.2368 0.55276   0.079191
 C 0.1042 0.3396 0.55068   -0.137133
 C 0.2103 0.5288 0.589   0.652699
 C 0.0479 0.4594 0.69746   0.655245
 C 0.1558 0.0807 0.4999   0.7005
 C 0.2903 0.7789 0.70958   0.195765
 C 0.287 0.8999 0.71097   -0.200229
 C 0.4027 0.9644 0.68129   0.094891
 C 0.5132 0.9001 0.6501   -0.191819
 C 0.5082 0.7782 0.6511   0.170157
 C 0.4074 0.0959 0.68309   0.094485
 C 0.3585 0.1586 0.72989   -0.203863
 C 0.3654 0.2808 0.73035   0.187771
 C 0.4696 0.2841 0.6422   0.18123
 C 0.4652 0.163 0.63896   -0.181955
 C 0.8813 0.4128 0.403   -0.01251
 C 0.96 0.3828 0.35384   -0.159655
 C 0.0488 0.2783 0.35178   -0.008513
 C 0.0638 0.2051 0.39729   -0.188958
 C 0.9878 0.2368 0.44724   0.079192
 C 0.8958 0.3396 0.44932   -0.137134
 C 0.7897 0.5288 0.411   0.652699
 C 0.9521 0.4594 0.30254   0.655245
 C 0.8442 0.0807 0.5001   0.700499
 C 0.7097 0.7789 0.29042   0.195765
 C 0.713 0.8999 0.28903   -0.200229
 C 0.5973 0.9644 0.31871   0.094891
 C 0.4868 0.9001 0.3499   -0.191819
 C 0.4918 0.7782 0.3489   0.170156
 C 0.5926 0.0959 0.31691   0.094485
 C 0.6415 0.1586 0.27011   -0.203863
 C 0.6346 0.2808 0.26965   0.187771
 C 0.5304 0.2841 0.3578   0.18123
 C 0.5348 0.163 0.36104   -0.181955
 C 0.5 0.8414 0.0   -0.304018
 C 0.0 0.1586 0.5   -0.304018
 N 0.8992 0.2836 0.81938   -0.303037
 N 0.9183 0.6562 0.81271   -0.352285
 N 0.1008 0.2836 0.18062   -0.303037
 N 0.0817 0.6562 0.18729   -0.352285
 N 0.3992 0.7164 0.68062   -0.303037
 N 0.4183 0.3438 0.68729   -0.352285
 N 0.6008 0.7164 0.31938   -0.303037
 N 0.5817 0.3438 0.31271   -0.352285
 O 0.6331 0.3881 0.93072   -0.535888
 O 0.8621 0.4709 0.89922   -0.644708
 O 0.6646 0.4715 0.79484   -0.552514
 O 0.4297 0.5518 0.76938   -0.580787
 O 0.3669 0.3881 0.06928   -0.535891
 O 0.1379 0.4709 0.10078   -0.644708
 O 0.3354 0.4715 0.20516   -0.552514
 O 0.5703 0.5518 0.23062   -0.580787
 O 0.1331 0.6119 0.56928   -0.535888
 O 0.3621 0.5291 0.60078   -0.644708
 O 0.1646 0.5285 0.70516   -0.552514
 O 0.9297 0.4482 0.73062   -0.580787
 O 0.8669 0.6119 0.43072   -0.535891
 O 0.6379 0.5291 0.39922   -0.644708
 O 0.8354 0.5285 0.29484   -0.552514
 O 0.0703 0.4482 0.26938   -0.580787
 F 0.6755 0.9719 0.95036   -0.218812
 F 0.7885 0.8569 0.01029   -0.190617
 F 0.6496 0.007 0.03729   -0.202146
 F 0.3245 0.9719 0.04964   -0.218813
 F 0.2115 0.8569 0.98971   -0.190616
 F 0.3504 0.007 0.96271   -0.202148
 F 0.1755 0.0281 0.54964   -0.218812
 F 0.2885 0.1431 0.48971   -0.190617
 F 0.1496 0.993 0.46271   -0.202146
 F 0.8245 0.0281 0.45036   -0.218813
 F 0.7115 0.1431 0.51029   -0.190616
 F 0.8504 0.993 0.53729   -0.202148
