{'_ref': 'TBD', '_srcid': 'CAKYAQ_clean', 'submitters': [{'name': 'Dalar Nazarian Jeff Camp and David Sholl', 'email': 'dalar@gatech.edu jcamp6@gatech.edu'}], '_method': 'VASP DFT with PBE;DDEC'}
data_La2Cu3H30C24(NO4)6
_symmetry_space_group_name_H-M   'P 1'
_cell_length_a   13.43860000
_cell_length_b   13.43860001
_cell_length_c   14.88800000
_cell_angle_alpha   90.00000000
_cell_angle_beta   90.00000000
_cell_angle_gamma   119.99999998
_symmetry_Int_Tables_number   1
_chemical_formula_structural   La2Cu3H30C24(NO4)6
_chemical_formula_sum   'La4 Cu6 H60 C48 N12 O48'
_cell_volume   2328.49359068
_cell_formula_units_Z   2
loop_
 _symmetry_equiv_pos_site_id
 _symmetry_equiv_pos_as_xyz
  1  'x, y, z'
loop_
 _atom_site_label
 _atom_site_fract_x
 _atom_site_fract_y
 _atom_site_fract_z
 _atom_site_charge
 La 0.66667 0.33334 0.32984   2.149489
 La 0.33333 0.66666 0.17016   2.149491
 La 0.33333 0.66666 0.67016   2.14949
 La 0.66667 0.33334 0.82984   2.149491
 Cu 0.5 0.5 0.5   0.792851
 Cu 0.0 0.5 0.5   0.792855
 Cu 0.5 0.0 0.5   0.792869
 Cu 0.0 0.5 0.0   0.79285
 Cu 0.5 0.5 0.0   0.792856
 Cu 0.5 0.0 0.0   0.792869
 H 0.2853 0.2456 0.4567   0.145447
 H 0.3414 0.1995 0.5348   0.108225
 H 0.398 0.3335 0.685   0.143782
 H 0.4606 0.2741 0.6201   0.144858
 H 0.3283 0.3535 0.5757   0.257323
 H 0.9603 0.7147 0.4567   0.14545
 H 0.8581 0.6586 0.5348   0.108224
 H 0.9355 0.602 0.685   0.143783
 H 0.8135 0.5394 0.6201   0.144855
 H 0.0252 0.6717 0.5757   0.257322
 H 0.7544 0.0397 0.4567   0.145444
 H 0.8005 0.1419 0.5348   0.10822
 H 0.6665 0.0645 0.685   0.143783
 H 0.7259 0.1865 0.6201   0.144853
 H 0.6465 0.9748 0.5757   0.257324
 H 0.0397 0.7544 0.0433   0.145447
 H 0.1419 0.8005 0.9652   0.108225
 H 0.0645 0.6665 0.815   0.143784
 H 0.1865 0.7259 0.8799   0.144858
 H 0.9748 0.6465 0.9243   0.257323
 H 0.2456 0.2853 0.0433   0.14545
 H 0.1995 0.3414 0.9652   0.108224
 H 0.3335 0.398 0.815   0.143785
 H 0.2741 0.4606 0.8799   0.144855
 H 0.3535 0.3283 0.9243   0.257322
 H 0.7147 0.9603 0.0433   0.145445
 H 0.6586 0.8581 0.9652   0.10822
 H 0.602 0.9355 0.815   0.143784
 H 0.5394 0.8135 0.8799   0.144853
 H 0.6717 0.0252 0.9243   0.257324
 H 0.7147 0.7544 0.5433   0.145449
 H 0.6586 0.8005 0.4652   0.108227
 H 0.602 0.6665 0.315   0.143782
 H 0.5394 0.7259 0.3799   0.144858
 H 0.6717 0.6465 0.4243   0.257323
 H 0.0397 0.2853 0.5433   0.145453
 H 0.1419 0.3414 0.4652   0.108226
 H 0.0645 0.398 0.315   0.143783
 H 0.1865 0.4606 0.3799   0.144855
 H 0.9748 0.3283 0.4243   0.257323
 H 0.2456 0.9603 0.5433   0.145447
 H 0.1995 0.8581 0.4652   0.108222
 H 0.3335 0.9355 0.315   0.143782
 H 0.2741 0.8135 0.3799   0.144853
 H 0.3535 0.0252 0.4243   0.257324
 H 0.9603 0.2456 0.9567   0.145449
 H 0.8581 0.1995 0.0348   0.108227
 H 0.9355 0.3335 0.185   0.143784
 H 0.8135 0.2741 0.1201   0.144858
 H 0.0252 0.3535 0.0757   0.257323
 H 0.7544 0.7147 0.9567   0.145453
 H 0.8005 0.6586 0.0348   0.108226
 H 0.6665 0.602 0.185   0.143785
 H 0.7259 0.5394 0.1201   0.144855
 H 0.6465 0.6717 0.0757   0.257323
 H 0.2853 0.0397 0.9567   0.145447
 H 0.3414 0.1419 0.0348   0.108221
 H 0.398 0.0645 0.185   0.143784
 H 0.4606 0.1865 0.1201   0.144853
 H 0.3283 0.9748 0.0757   0.257324
 C 0.4489 0.2699 0.4325   0.700643
 C 0.3499 0.2557 0.4914   -0.205841
 C 0.4453 0.334 0.6363   -0.240648
 C 0.5611 0.4387 0.6558   0.741376
 C 0.821 0.5511 0.4325   0.70064
 C 0.9058 0.6501 0.4914   -0.205841
 C 0.8887 0.5547 0.6363   -0.240656
 C 0.8776 0.4389 0.6558   0.741371
 C 0.7301 0.179 0.4325   0.700638
 C 0.7443 0.0942 0.4914   -0.205838
 C 0.666 0.1113 0.6363   -0.240649
 C 0.5613 0.1224 0.6558   0.741365
 C 0.179 0.7301 0.0675   0.700643
 C 0.0942 0.7443 0.0086   -0.205841
 C 0.1113 0.666 0.8637   -0.24065
 C 0.1224 0.5613 0.8442   0.741376
 C 0.2699 0.4489 0.0675   0.70064
 C 0.2557 0.3499 0.0086   -0.205841
 C 0.334 0.4453 0.8637   -0.240657
 C 0.4387 0.5611 0.8442   0.741371
 C 0.5511 0.821 0.0675   0.700638
 C 0.6501 0.9058 0.0086   -0.205838
 C 0.5547 0.8887 0.8637   -0.240649
 C 0.4389 0.8776 0.8442   0.741366
 C 0.5511 0.7301 0.5675   0.700643
 C 0.6501 0.7443 0.5086   -0.205842
 C 0.5547 0.666 0.3637   -0.240648
 C 0.4389 0.5613 0.3442   0.741376
 C 0.179 0.4489 0.5675   0.70064
 C 0.0942 0.3499 0.5086   -0.205843
 C 0.1113 0.4453 0.3637   -0.240656
 C 0.1224 0.5611 0.3442   0.741371
 C 0.2699 0.821 0.5675   0.700638
 C 0.2557 0.9058 0.5086   -0.20584
 C 0.334 0.8887 0.3637   -0.240649
 C 0.4387 0.8776 0.3442   0.741365
 C 0.821 0.2699 0.9325   0.700643
 C 0.9058 0.2557 0.9914   -0.205842
 C 0.8887 0.334 0.1363   -0.24065
 C 0.8776 0.4387 0.1558   0.741376
 C 0.7301 0.5511 0.9325   0.70064
 C 0.7443 0.6501 0.9914   -0.205842
 C 0.666 0.5547 0.1363   -0.240657
 C 0.5613 0.4389 0.1558   0.741371
 C 0.4489 0.179 0.9325   0.700638
 C 0.3499 0.0942 0.9914   -0.20584
 C 0.4453 0.1113 0.1363   -0.240649
 C 0.5611 0.1224 0.1558   0.741366
 N 0.3885 0.349 0.5577   -0.276724
 N 0.9605 0.6115 0.5577   -0.276719
 N 0.651 0.0395 0.5577   -0.276725
 N 0.0395 0.651 0.9423   -0.276724
 N 0.349 0.3885 0.9423   -0.276719
 N 0.6115 0.9605 0.9423   -0.276725
 N 0.6115 0.651 0.4423   -0.276724
 N 0.0395 0.3885 0.4423   -0.276719
 N 0.349 0.9605 0.4423   -0.276725
 N 0.9605 0.349 0.0577   -0.276724
 N 0.651 0.6115 0.0577   -0.276718
 N 0.3885 0.0395 0.0577   -0.276725
 O 0.5437 0.3622 0.4408   -0.713555
 O 0.4337 0.1933 0.3787   -0.646785
 O 0.5999 0.5218 0.6026   -0.563942
 O 0.6137 0.4358 0.7238   -0.707085
 O 0.8185 0.4563 0.4408   -0.713548
 O 0.7596 0.5663 0.3787   -0.646796
 O 0.9219 0.4001 0.6026   -0.563941
 O 0.8221 0.3863 0.7238   -0.707078
 O 0.6378 0.1815 0.4408   -0.713534
 O 0.8067 0.2404 0.3787   -0.646796
 O 0.4782 0.0781 0.6026   -0.563948
 O 0.5642 0.1779 0.7238   -0.707061
 O 0.1815 0.6378 0.0592   -0.713554
 O 0.2404 0.8067 0.1213   -0.646785
 O 0.0781 0.4782 0.8974   -0.563942
 O 0.1779 0.5642 0.7762   -0.707085
 O 0.3622 0.5437 0.0592   -0.713548
 O 0.1933 0.4337 0.1213   -0.646796
 O 0.5218 0.5999 0.8974   -0.563941
 O 0.4358 0.6137 0.7762   -0.707078
 O 0.4563 0.8185 0.0592   -0.713534
 O 0.5663 0.7596 0.1213   -0.646797
 O 0.4001 0.9219 0.8974   -0.563948
 O 0.3863 0.8221 0.7762   -0.707061
 O 0.4563 0.6378 0.5592   -0.713555
 O 0.5663 0.8067 0.6213   -0.646785
 O 0.4001 0.4782 0.3974   -0.563942
 O 0.3863 0.5642 0.2762   -0.707085
 O 0.1815 0.5437 0.5592   -0.713548
 O 0.2404 0.4337 0.6213   -0.646796
 O 0.0781 0.5999 0.3974   -0.563941
 O 0.1779 0.6137 0.2762   -0.707078
 O 0.3622 0.8185 0.5592   -0.713534
 O 0.1933 0.7596 0.6213   -0.646796
 O 0.5218 0.9219 0.3974   -0.563948
 O 0.4358 0.8221 0.2762   -0.707061
 O 0.8185 0.3622 0.9408   -0.713554
 O 0.7596 0.1933 0.8787   -0.646785
 O 0.9219 0.5218 0.1026   -0.563942
 O 0.8221 0.4358 0.2238   -0.707085
 O 0.6378 0.4563 0.9408   -0.713548
 O 0.8067 0.5663 0.8787   -0.646796
 O 0.4782 0.4001 0.1026   -0.563941
 O 0.5642 0.3863 0.2238   -0.707078
 O 0.5437 0.1815 0.9408   -0.713534
 O 0.4337 0.2404 0.8787   -0.646797
 O 0.5999 0.0781 0.1026   -0.563948
 O 0.6137 0.1779 0.2238   -0.707061
