{'_ref': 'TBD', '_srcid': 'CAKYAQ_clean', 'submitters': [{'name': 'Dalar Nazarian Jeff Camp and David Sholl', 'email': 'dalar@gatech.edu jcamp6@gatech.edu'}], '_method': 'VASP DFT with PBE;DDEC'}
data_La2Cu3H30C24(NO4)6
_symmetry_space_group_name_H-M   'P 1'
_cell_length_a   13.51360000
_cell_length_b   13.51360009
_cell_length_c   14.79500000
_cell_angle_alpha   90.00000000
_cell_angle_beta   90.00000000
_cell_angle_gamma   119.99999978
_symmetry_Int_Tables_number   1
_chemical_formula_structural   La2Cu3H30C24(NO4)6
_chemical_formula_sum   'La4 Cu6 H60 C48 N12 O48'
_cell_volume   2339.84842352
_cell_formula_units_Z   2
loop_
 _symmetry_equiv_pos_site_id
 _symmetry_equiv_pos_as_xyz
  1  'x, y, z'
loop_
 _atom_site_label
 _atom_site_fract_x
 _atom_site_fract_y
 _atom_site_fract_z
 _atom_site_charge
 La 0.66667 0.33334 0.333   2.14224
 La 0.33333 0.66666 0.167   2.142241
 La 0.33333 0.66666 0.667   2.14224
 La 0.66667 0.33334 0.833   2.142241
 Cu 0.5 0.0 0.5   0.796504
 Cu 0.5 0.5 0.5   0.796477
 Cu 0.0 0.5 0.5   0.796459
 Cu 0.5 0.0 0.0   0.796504
 Cu 0.0 0.5 0.0   0.796478
 Cu 0.5 0.5 0.0   0.79646
 H 0.7998 0.1399 0.5348   0.106278
 H 0.753 0.0419 0.455   0.144146
 H 0.7251 0.1886 0.6216   0.142531
 H 0.6705 0.0687 0.6861   0.140153
 H 0.647 0.9752 0.5775   0.262161
 H 0.3401 0.2002 0.5348   0.106283
 H 0.2889 0.247 0.455   0.144149
 H 0.4635 0.2749 0.6216   0.142536
 H 0.3982 0.3295 0.6861   0.140154
 H 0.3282 0.353 0.5775   0.26216
 H 0.8601 0.6599 0.5348   0.106282
 H 0.9581 0.7111 0.455   0.14415
 H 0.8114 0.5365 0.6216   0.142532
 H 0.9313 0.6018 0.6861   0.140154
 H 0.0248 0.6718 0.5775   0.262162
 H 0.6599 0.8601 0.9652   0.106278
 H 0.7111 0.9581 0.045   0.144146
 H 0.5365 0.8114 0.8784   0.142531
 H 0.6018 0.9313 0.8139   0.140155
 H 0.6718 0.0248 0.9225   0.262161
 H 0.1399 0.7998 0.9652   0.106283
 H 0.0419 0.753 0.045   0.144149
 H 0.1886 0.7251 0.8784   0.142536
 H 0.0687 0.6705 0.8139   0.140156
 H 0.9752 0.647 0.9225   0.26216
 H 0.2002 0.3401 0.9652   0.106282
 H 0.247 0.2889 0.045   0.14415
 H 0.2749 0.4635 0.8784   0.142532
 H 0.3295 0.3982 0.8139   0.140156
 H 0.353 0.3282 0.9225   0.262162
 H 0.2002 0.8601 0.4652   0.106279
 H 0.247 0.9581 0.545   0.144148
 H 0.2749 0.8114 0.3784   0.142531
 H 0.3295 0.9313 0.3139   0.140153
 H 0.353 0.0248 0.4225   0.262161
 H 0.6599 0.7998 0.4652   0.106285
 H 0.7111 0.753 0.545   0.14415
 H 0.5365 0.7251 0.3784   0.142536
 H 0.6018 0.6705 0.3139   0.140154
 H 0.6718 0.647 0.4225   0.26216
 H 0.1399 0.3401 0.4652   0.106284
 H 0.0419 0.2889 0.545   0.144152
 H 0.1886 0.4635 0.3784   0.142532
 H 0.0687 0.3982 0.3139   0.140154
 H 0.9752 0.3282 0.4225   0.262162
 H 0.3401 0.1399 0.0348   0.106279
 H 0.2889 0.0419 0.955   0.144148
 H 0.4635 0.1886 0.1216   0.142531
 H 0.3982 0.0687 0.1861   0.140154
 H 0.3282 0.9752 0.0775   0.262161
 H 0.8601 0.2002 0.0348   0.106285
 H 0.9581 0.247 0.955   0.14415
 H 0.8114 0.2749 0.1216   0.142536
 H 0.9313 0.3295 0.1861   0.140155
 H 0.0248 0.353 0.0775   0.26216
 H 0.7998 0.6599 0.0348   0.106284
 H 0.753 0.7111 0.955   0.144152
 H 0.7251 0.5365 0.1216   0.142532
 H 0.6705 0.6018 0.1861   0.140156
 H 0.647 0.6718 0.0775   0.262162
 C 0.7266 0.1802 0.4353   0.690251
 C 0.7431 0.0947 0.4915   -0.194109
 C 0.6661 0.1129 0.6377   -0.229765
 C 0.5591 0.1202 0.6585   0.732391
 C 0.4536 0.2734 0.4353   0.690238
 C 0.3516 0.2569 0.4915   -0.194108
 C 0.4468 0.3339 0.6377   -0.229766
 C 0.5611 0.4409 0.6585   0.732397
 C 0.8198 0.5464 0.4353   0.69023
 C 0.9053 0.6484 0.4915   -0.194112
 C 0.8871 0.5532 0.6377   -0.229773
 C 0.8798 0.4389 0.6585   0.732387
 C 0.5464 0.8198 0.0647   0.690251
 C 0.6484 0.9053 0.0085   -0.194109
 C 0.5532 0.8871 0.8623   -0.229765
 C 0.4389 0.8798 0.8415   0.732391
 C 0.1802 0.7266 0.0647   0.690238
 C 0.0947 0.7431 0.0085   -0.194108
 C 0.1129 0.6661 0.8623   -0.229767
 C 0.1202 0.5591 0.8415   0.732397
 C 0.2734 0.4536 0.0647   0.69023
 C 0.2569 0.3516 0.0085   -0.194112
 C 0.3339 0.4468 0.8623   -0.229774
 C 0.4409 0.5611 0.8415   0.732387
 C 0.2734 0.8198 0.5647   0.690251
 C 0.2569 0.9053 0.5085   -0.19411
 C 0.3339 0.8871 0.3623   -0.229765
 C 0.4409 0.8798 0.3415   0.732391
 C 0.5464 0.7266 0.5647   0.690238
 C 0.6484 0.7431 0.5085   -0.194109
 C 0.5532 0.6661 0.3623   -0.229766
 C 0.4389 0.5591 0.3415   0.732397
 C 0.1802 0.4536 0.5647   0.69023
 C 0.0947 0.3516 0.5085   -0.194113
 C 0.1129 0.4468 0.3623   -0.229773
 C 0.1202 0.5611 0.3415   0.732387
 C 0.4536 0.1802 0.9353   0.690252
 C 0.3516 0.0947 0.9915   -0.19411
 C 0.4468 0.1129 0.1377   -0.229765
 C 0.5611 0.1202 0.1585   0.732391
 C 0.8198 0.2734 0.9353   0.690239
 C 0.9053 0.2569 0.9915   -0.194109
 C 0.8871 0.3339 0.1377   -0.229766
 C 0.8798 0.4409 0.1585   0.732397
 C 0.7266 0.5464 0.9353   0.69023
 C 0.7431 0.6484 0.9915   -0.194113
 C 0.6661 0.5532 0.1377   -0.229773
 C 0.5591 0.4389 0.1585   0.732387
 N 0.6499 0.0388 0.5589   -0.29224
 N 0.3889 0.3501 0.5589   -0.292237
 N 0.9612 0.6111 0.5589   -0.292231
 N 0.6111 0.9612 0.9411   -0.29224
 N 0.0388 0.6499 0.9411   -0.292237
 N 0.3501 0.3889 0.9411   -0.292231
 N 0.3501 0.9612 0.4411   -0.29224
 N 0.6111 0.6499 0.4411   -0.292237
 N 0.0388 0.3889 0.4411   -0.292231
 N 0.3889 0.0388 0.0589   -0.29224
 N 0.9612 0.3501 0.0589   -0.292237
 N 0.6499 0.6111 0.0589   -0.292231
 O 0.6362 0.1841 0.4473   -0.698601
 O 0.8002 0.2406 0.378   -0.653335
 O 0.4745 0.0703 0.6068   -0.566709
 O 0.5621 0.1761 0.7261   -0.695517
 O 0.5479 0.3638 0.4473   -0.698583
 O 0.4404 0.1998 0.378   -0.653314
 O 0.5958 0.5255 0.6068   -0.566701
 O 0.614 0.4379 0.7261   -0.695524
 O 0.8159 0.4521 0.4473   -0.698539
 O 0.7594 0.5596 0.378   -0.653315
 O 0.9297 0.4042 0.6068   -0.566698
 O 0.8239 0.386 0.7261   -0.695516
 O 0.4521 0.8159 0.0527   -0.698601
 O 0.5596 0.7594 0.122   -0.653335
 O 0.4042 0.9297 0.8932   -0.566708
 O 0.386 0.8239 0.7739   -0.695516
 O 0.1841 0.6362 0.0527   -0.698583
 O 0.2406 0.8002 0.122   -0.653314
 O 0.0703 0.4745 0.8932   -0.5667
 O 0.1761 0.5621 0.7739   -0.695524
 O 0.3638 0.5479 0.0527   -0.698539
 O 0.1998 0.4404 0.122   -0.653315
 O 0.5255 0.5958 0.8932   -0.566698
 O 0.4379 0.614 0.7739   -0.695515
 O 0.3638 0.8159 0.5527   -0.698601
 O 0.1998 0.7594 0.622   -0.653335
 O 0.5255 0.9297 0.3932   -0.566709
 O 0.4379 0.8239 0.2739   -0.695517
 O 0.4521 0.6362 0.5527   -0.698583
 O 0.5596 0.8002 0.622   -0.653314
 O 0.4042 0.4745 0.3932   -0.566701
 O 0.386 0.5621 0.2739   -0.695524
 O 0.1841 0.5479 0.5527   -0.698539
 O 0.2406 0.4404 0.622   -0.653315
 O 0.0703 0.5958 0.3932   -0.566698
 O 0.1761 0.614 0.2739   -0.695516
 O 0.5479 0.1841 0.9473   -0.698601
 O 0.4404 0.2406 0.878   -0.653335
 O 0.5958 0.0703 0.1068   -0.566708
 O 0.614 0.1761 0.2261   -0.695516
 O 0.8159 0.3638 0.9473   -0.698583
 O 0.7594 0.1998 0.878   -0.653314
 O 0.9297 0.5255 0.1068   -0.5667
 O 0.8239 0.4379 0.2261   -0.695524
 O 0.6362 0.4521 0.9473   -0.698539
 O 0.8002 0.5596 0.878   -0.653315
 O 0.4745 0.4042 0.1068   -0.566698
 O 0.5621 0.386 0.2261   -0.695515
