{'_ref': 'TBD', '_srcid': 'CAKYAQ_clean', 'submitters': [{'name': 'Dalar Nazarian Jeff Camp and David Sholl', 'email': 'dalar@gatech.edu jcamp6@gatech.edu'}], '_method': 'VASP DFT with PBE;DDEC'}
data_MnH7C14N3O8
_symmetry_space_group_name_H-M   'P 1'
_cell_length_a   7.52400000
_cell_length_b   18.32590000
_cell_length_c   25.30000000
_cell_angle_alpha   90.00000000
_cell_angle_beta   90.00000000
_cell_angle_gamma   90.00000000
_symmetry_Int_Tables_number   1
_chemical_formula_structural   MnH7C14N3O8
_chemical_formula_sum   'Mn8 H56 C112 N24 O64'
_cell_volume   3488.46701148
_cell_formula_units_Z   8
loop_
 _symmetry_equiv_pos_site_id
 _symmetry_equiv_pos_as_xyz
  1  'x, y, z'
loop_
 _atom_site_label
 _atom_site_fract_x
 _atom_site_fract_y
 _atom_site_fract_z
 _atom_site_charge
 Mn 0.26448 0.90073 0.51713   1.200679
 Mn 0.26448 0.09927 0.48287   1.200679
 Mn 0.76448 0.09927 0.51713   1.200679
 Mn 0.76448 0.90073 0.48287   1.200679
 Mn 0.76448 0.40073 0.01713   1.200679
 Mn 0.76448 0.59927 0.98287   1.200679
 Mn 0.26448 0.59927 0.01713   1.200679
 Mn 0.26448 0.40073 0.98287   1.200679
 H 0.8297 0.7226 0.5851   0.122354
 H 0.8297 0.2774 0.4149   0.122354
 H 0.3297 0.2774 0.5851   0.122354
 H 0.3297 0.7226 0.4149   0.122354
 H 0.3297 0.2226 0.0851   0.122354
 H 0.3297 0.7774 0.9149   0.122354
 H 0.8297 0.7774 0.0851   0.122354
 H 0.8297 0.2226 0.9149   0.122354
 H 0.3493 0.7618 0.6496   0.115165
 H 0.3493 0.2382 0.3504   0.115165
 H 0.8493 0.2382 0.6496   0.115165
 H 0.8493 0.7618 0.3504   0.115165
 H 0.8493 0.2618 0.1496   0.115165
 H 0.8493 0.7382 0.8504   0.115165
 H 0.3493 0.7382 0.1496   0.115165
 H 0.3493 0.2618 0.8504   0.115165
 H 0.5394 0.6614 0.8762   0.102942
 H 0.5394 0.3386 0.1238   0.102942
 H 0.0394 0.3386 0.8762   0.102942
 H 0.0394 0.6614 0.1238   0.102942
 H 0.0394 0.1614 0.3762   0.102942
 H 0.0394 0.8386 0.6238   0.102942
 H 0.5394 0.8386 0.3762   0.102942
 H 0.5394 0.1614 0.6238   0.102942
 H 0.6272 0.6746 0.7884   0.120485
 H 0.6272 0.3254 0.2116   0.120485
 H 0.1272 0.3254 0.7884   0.120485
 H 0.1272 0.6746 0.2116   0.120485
 H 0.1272 0.1746 0.2884   0.120485
 H 0.1272 0.8254 0.7116   0.120485
 H 0.6272 0.8254 0.2884   0.120485
 H 0.6272 0.1746 0.7116   0.120485
 H 0.5307 0.459 0.763   0.118185
 H 0.5307 0.541 0.237   0.118185
 H 0.0307 0.541 0.763   0.118185
 H 0.0307 0.459 0.237   0.118185
 H 0.0307 0.959 0.263   0.118185
 H 0.0307 0.041 0.737   0.118185
 H 0.5307 0.041 0.263   0.118185
 H 0.5307 0.959 0.737   0.118185
 H 0.4322 0.4474 0.8495   0.096813
 H 0.4322 0.5526 0.1505   0.096813
 H 0.9322 0.5526 0.8495   0.096813
 H 0.9322 0.4474 0.1505   0.096813
 H 0.9322 0.9474 0.3495   0.096813
 H 0.9322 0.0526 0.6505   0.096813
 H 0.4322 0.0526 0.3495   0.096813
 H 0.4322 0.9474 0.6505   0.096813
 H 0.733 0.536 0.711   0.297242
 H 0.733 0.464 0.289   0.297242
 H 0.233 0.464 0.711   0.297242
 H 0.233 0.536 0.289   0.297242
 H 0.233 0.036 0.211   0.297242
 H 0.233 0.964 0.789   0.297242
 H 0.733 0.964 0.211   0.297242
 H 0.733 0.036 0.789   0.297242
 C 0.5834 0.751 0.611   -0.173978
 C 0.5834 0.249 0.389   -0.173978
 C 0.0834 0.249 0.611   -0.173978
 C 0.0834 0.751 0.389   -0.173978
 C 0.0834 0.251 0.111   -0.173978
 C 0.0834 0.749 0.889   -0.173978
 C 0.5834 0.749 0.111   -0.173978
 C 0.5834 0.251 0.889   -0.173978
 C 0.7385 0.7102 0.6095   0.00716
 C 0.7385 0.2898 0.3905   0.00716
 C 0.2385 0.2898 0.6095   0.00716
 C 0.2385 0.7102 0.3905   0.00716
 C 0.2385 0.2102 0.1095   0.00716
 C 0.2385 0.7898 0.8905   0.00716
 C 0.7385 0.7898 0.1095   0.00716
 C 0.7385 0.2102 0.8905   0.00716
 C 0.7613 0.6516 0.6434   -0.121078
 C 0.7613 0.3484 0.3566   -0.121078
 C 0.2613 0.3484 0.6434   -0.121078
 C 0.2613 0.6516 0.3566   -0.121078
 C 0.2613 0.1516 0.1434   -0.121078
 C 0.2613 0.8484 0.8566   -0.121078
 C 0.7613 0.8484 0.1434   -0.121078
 C 0.7613 0.1516 0.8566   -0.121078
 C 0.6325 0.6307 0.6813   0.245707
 C 0.6325 0.3693 0.3187   0.245707
 C 0.1325 0.3693 0.6813   0.245707
 C 0.1325 0.6307 0.3187   0.245707
 C 0.1325 0.1307 0.1813   0.245707
 C 0.1325 0.8693 0.8187   0.245707
 C 0.6325 0.8693 0.1813   0.245707
 C 0.6325 0.1307 0.8187   0.245707
 C 0.48 0.6761 0.6815   -0.110545
 C 0.48 0.3239 0.3185   -0.110545
 C 0.98 0.3239 0.6815   -0.110545
 C 0.98 0.6761 0.3185   -0.110545
 C 0.98 0.1761 0.1815   -0.110545
 C 0.98 0.8239 0.8185   -0.110545
 C 0.48 0.8239 0.1815   -0.110545
 C 0.48 0.1761 0.8185   -0.110545
 C 0.4552 0.7337 0.6477   0.022021
 C 0.4552 0.2663 0.3523   0.022021
 C 0.9552 0.2663 0.6477   0.022021
 C 0.9552 0.7337 0.3523   0.022021
 C 0.9552 0.2337 0.1477   0.022021
 C 0.9552 0.7663 0.8523   0.022021
 C 0.4552 0.7663 0.1477   0.022021
 C 0.4552 0.2337 0.8523   0.022021
 C 0.5538 0.8109 0.5707   0.729063
 C 0.5538 0.1891 0.4293   0.729063
 C 0.0538 0.1891 0.5707   0.729063
 C 0.0538 0.8109 0.4293   0.729063
 C 0.0538 0.3109 0.0707   0.729063
 C 0.0538 0.6891 0.9293   0.729063
 C 0.5538 0.6891 0.0707   0.729063
 C 0.5538 0.3109 0.9293   0.729063
 C 0.4792 0.5531 0.87209   -0.185839
 C 0.4792 0.4469 0.12791   -0.185839
 C 0.9792 0.4469 0.87209   -0.185839
 C 0.9792 0.5531 0.12791   -0.185839
 C 0.9792 0.0531 0.37209   -0.185839
 C 0.9792 0.9469 0.62791   -0.185839
 C 0.4792 0.9469 0.37209   -0.185839
 C 0.4792 0.0531 0.62791   -0.185839
 C 0.5368 0.6204 0.8532   0.007054
 C 0.5368 0.3796 0.1468   0.007054
 C 0.0368 0.3796 0.8532   0.007054
 C 0.0368 0.6204 0.1468   0.007054
 C 0.0368 0.1204 0.3532   0.007054
 C 0.0368 0.8796 0.6468   0.007054
 C 0.5368 0.8796 0.3532   0.007054
 C 0.5368 0.1204 0.6468   0.007054
 C 0.5903 0.6282 0.8011   -0.208227
 C 0.5903 0.3718 0.1989   -0.208227
 C 0.0903 0.3718 0.8011   -0.208227
 C 0.0903 0.6282 0.1989   -0.208227
 C 0.0903 0.1282 0.3011   -0.208227
 C 0.0903 0.8718 0.6989   -0.208227
 C 0.5903 0.8718 0.3011   -0.208227
 C 0.5903 0.1282 0.6989   -0.208227
 C 0.5902 0.5679 0.76694   0.213133
 C 0.5902 0.4321 0.23306   0.213133
 C 0.0902 0.4321 0.76694   0.213133
 C 0.0902 0.5679 0.23306   0.213133
 C 0.0902 0.0679 0.26694   0.213133
 C 0.0902 0.9321 0.73306   0.213133
 C 0.5902 0.9321 0.26694   0.213133
 C 0.5902 0.0679 0.73306   0.213133
 C 0.5315 0.5002 0.78583   -0.188849
 C 0.5315 0.4998 0.21417   -0.188849
 C 0.0315 0.4998 0.78583   -0.188849
 C 0.0315 0.5002 0.21417   -0.188849
 C 0.0315 0.0002 0.28583   -0.188849
 C 0.0315 0.9998 0.71417   -0.188849
 C 0.5315 0.9998 0.28583   -0.188849
 C 0.5315 0.0002 0.71417   -0.188849
 C 0.4748 0.4932 0.83731   0.018477
 C 0.4748 0.5068 0.16269   0.018477
 C 0.9748 0.5068 0.83731   0.018477
 C 0.9748 0.4932 0.16269   0.018477
 C 0.9748 0.9932 0.33731   0.018477
 C 0.9748 0.0068 0.66269   0.018477
 C 0.4748 0.0068 0.33731   0.018477
 C 0.4748 0.9932 0.66269   0.018477
 C 0.4215 0.5448 0.92669   0.734623
 C 0.4215 0.4552 0.07331   0.734623
 C 0.9215 0.4552 0.92669   0.734623
 C 0.9215 0.5448 0.07331   0.734623
 C 0.9215 0.0448 0.42669   0.734623
 C 0.9215 0.9552 0.57331   0.734623
 C 0.4215 0.9552 0.42669   0.734623
 C 0.4215 0.0448 0.57331   0.734623
 N 0.9267 0.6099 0.6377   0.620992
 N 0.9267 0.3901 0.3623   0.620992
 N 0.4267 0.3901 0.6377   0.620992
 N 0.4267 0.6099 0.3623   0.620992
 N 0.4267 0.1099 0.1377   0.620992
 N 0.4267 0.8901 0.8623   0.620992
 N 0.9267 0.8901 0.1377   0.620992
 N 0.9267 0.1099 0.8623   0.620992
 N 0.3232 0.6559 0.7134   0.603335
 N 0.3232 0.3441 0.2866   0.603335
 N 0.8232 0.3441 0.7134   0.603335
 N 0.8232 0.6559 0.2866   0.603335
 N 0.8232 0.1559 0.2134   0.603335
 N 0.8232 0.8441 0.7866   0.603335
 N 0.3232 0.8441 0.2134   0.603335
 N 0.3232 0.1559 0.7866   0.603335
 N 0.6558 0.5734 0.7154   -0.348486
 N 0.6558 0.4266 0.2846   -0.348486
 N 0.1558 0.4266 0.7154   -0.348486
 N 0.1558 0.5734 0.2846   -0.348486
 N 0.1558 0.0734 0.2154   -0.348486
 N 0.1558 0.9266 0.7846   -0.348486
 N 0.6558 0.9266 0.2154   -0.348486
 N 0.6558 0.0734 0.7846   -0.348486
 O 0.0557 0.6439 0.6205   -0.391606
 O 0.0557 0.3561 0.3795   -0.391606
 O 0.5557 0.3561 0.6205   -0.391606
 O 0.5557 0.6439 0.3795   -0.391606
 O 0.5557 0.1439 0.1205   -0.391606
 O 0.5557 0.8561 0.8795   -0.391606
 O 0.0557 0.8561 0.1205   -0.391606
 O 0.0557 0.1439 0.8795   -0.391606
 O 0.9302 0.5469 0.651   -0.345842
 O 0.9302 0.4531 0.349   -0.345842
 O 0.4302 0.4531 0.651   -0.345842
 O 0.4302 0.5469 0.349   -0.345842
 O 0.4302 0.0469 0.151   -0.345842
 O 0.4302 0.9531 0.849   -0.345842
 O 0.9302 0.9531 0.151   -0.345842
 O 0.9302 0.0469 0.849   -0.345842
 O 0.2788 0.5925 0.7141   -0.332771
 O 0.2788 0.4075 0.2859   -0.332771
 O 0.7788 0.4075 0.7141   -0.332771
 O 0.7788 0.5925 0.2859   -0.332771
 O 0.7788 0.0925 0.2141   -0.332771
 O 0.7788 0.9075 0.7859   -0.332771
 O 0.2788 0.9075 0.2141   -0.332771
 O 0.2788 0.0925 0.7859   -0.332771
 O 0.2461 0.7051 0.7363   -0.373459
 O 0.2461 0.2949 0.2637   -0.373459
 O 0.7461 0.2949 0.7363   -0.373459
 O 0.7461 0.7051 0.2637   -0.373459
 O 0.7461 0.2051 0.2363   -0.373459
 O 0.7461 0.7949 0.7637   -0.373459
 O 0.2461 0.7949 0.2363   -0.373459
 O 0.2461 0.2051 0.7637   -0.373459
 O 0.401 0.8383 0.571   -0.62894
 O 0.401 0.1617 0.429   -0.62894
 O 0.901 0.1617 0.571   -0.62894
 O 0.901 0.8383 0.429   -0.62894
 O 0.901 0.3383 0.071   -0.62894
 O 0.901 0.6617 0.929   -0.62894
 O 0.401 0.6617 0.071   -0.62894
 O 0.401 0.3383 0.929   -0.62894
 O 0.6785 0.8269 0.5406   -0.617196
 O 0.6785 0.1731 0.4594   -0.617196
 O 0.1785 0.1731 0.5406   -0.617196
 O 0.1785 0.8269 0.4594   -0.617196
 O 0.1785 0.3269 0.0406   -0.617196
 O 0.1785 0.6731 0.9594   -0.617196
 O 0.6785 0.6731 0.0406   -0.617196
 O 0.6785 0.3269 0.9594   -0.617196
 O 0.4904 0.5856 0.9624   -0.692324
 O 0.4904 0.4144 0.0376   -0.692324
 O 0.9904 0.4144 0.9624   -0.692324
 O 0.9904 0.5856 0.0376   -0.692324
 O 0.9904 0.0856 0.4624   -0.692324
 O 0.9904 0.9144 0.5376   -0.692324
 O 0.4904 0.9144 0.4624   -0.692324
 O 0.4904 0.0856 0.5376   -0.692324
 O 0.2988 0.501 0.93867   -0.656291
 O 0.2988 0.499 0.06133   -0.656291
 O 0.7988 0.499 0.93867   -0.656291
 O 0.7988 0.501 0.06133   -0.656291
 O 0.7988 0.000999999999998 0.43867   -0.656291
 O 0.7988 0.999 0.56133   -0.656291
 O 0.2988 0.999 0.43867   -0.656291
 O 0.2988 0.000999999999998 0.56133   -0.656291
