{'_ref': 'TBD', '_srcid': 'CAKYAQ_clean', 'submitters': [{'name': 'Dalar Nazarian Jeff Camp and David Sholl', 'email': 'dalar@gatech.edu jcamp6@gatech.edu'}], '_method': 'VASP DFT with PBE;DDEC'}
data_Zn2H6C5N8O3
_symmetry_space_group_name_H-M   'P 1'
_cell_length_a   9.35310000
_cell_length_b   9.80550000
_cell_length_c   16.19410000
_cell_angle_alpha   90.00000000
_cell_angle_beta   90.00000000
_cell_angle_gamma   90.00000000
_symmetry_Int_Tables_number   1
_chemical_formula_structural   Zn2H6C5N8O3
_chemical_formula_sum   'Zn8 H24 C20 N32 O12'
_cell_volume   1485.19041746
_cell_formula_units_Z   4
loop_
 _symmetry_equiv_pos_site_id
 _symmetry_equiv_pos_as_xyz
  1  'x, y, z'
loop_
 _atom_site_label
 _atom_site_fract_x
 _atom_site_fract_y
 _atom_site_fract_z
 _atom_site_charge
 Zn 0.9405 0.12002 0.58234   0.847918
 Zn 0.4405 0.37998 0.41766   0.847918
 Zn 0.0595 0.87998 0.08234   0.847918
 Zn 0.5595 0.62002 0.91766   0.847918
 Zn 0.0595 0.87998 0.41766   0.847918
 Zn 0.5595 0.62002 0.58234   0.847918
 Zn 0.9405 0.12002 0.91766   0.847918
 Zn 0.4405 0.37998 0.08234   0.847918
 H 0.6704 0.0213 0.6648   0.37024
 H 0.5812 0.8956 0.6683   0.36522
 H 0.8274 0.6708 0.4681   0.088343
 H 0.1704 0.4787 0.3352   0.37024
 H 0.0812 0.6044 0.3317   0.36522
 H 0.3274 0.8292 0.5319   0.088343
 H 0.3296 0.9787 0.1648   0.37024
 H 0.4188 0.1044 0.1683   0.36522
 H 0.1726 0.3292 0.9681   0.088343
 H 0.8296 0.5213 0.8352   0.37024
 H 0.9188 0.3956 0.8317   0.36522
 H 0.6726 0.1708 0.0319   0.088343
 H 0.3296 0.9787 0.3352   0.37024
 H 0.4188 0.1044 0.3317   0.365218
 H 0.1726 0.3292 0.5319   0.088343
 H 0.8296 0.5213 0.6648   0.37024
 H 0.9188 0.3956 0.6683   0.365219
 H 0.6726 0.1708 0.4681   0.088343
 H 0.6704 0.0213 0.8352   0.37024
 H 0.5812 0.8956 0.8317   0.365218
 H 0.8274 0.6708 0.0319   0.088343
 H 0.1704 0.4787 0.1648   0.37024
 H 0.0812 0.6044 0.1683   0.365219
 H 0.3274 0.8292 0.9681   0.088343
 C 0.7403 0.879 0.5932   0.65663
 C 0.8176 0.7458 0.5028   0.280398
 C 0.2403 0.621 0.4068   0.65663
 C 0.3176 0.7542 0.4972   0.280399
 C 0.2597 0.121 0.0932   0.65663
 C 0.1824 0.2542 0.0028   0.280398
 C 0.7597 0.379 0.9068   0.65663
 C 0.6824 0.2458 0.9972   0.280399
 C 0.2597 0.121 0.4068   0.656629
 C 0.1824 0.2542 0.4972   0.280398
 C 0.7597 0.379 0.5932   0.65663
 C 0.6824 0.2458 0.5028   0.280399
 C 0.7403 0.879 0.9068   0.656629
 C 0.8176 0.7458 0.9972   0.280398
 C 0.2403 0.621 0.0932   0.65663
 C 0.3176 0.7542 0.0028   0.280399
 C 0.9753 0.1404 0.75   1.003053
 C 0.4753 0.3596 0.25   1.003053
 C 0.0247 0.8596 0.25   1.003053
 C 0.5247 0.6404 0.75   1.003053
 N 0.8545 0.9391 0.5598   -0.401043
 N 0.9024 0.8487 0.5011   -0.256285
 N 0.7137 0.7572 0.5592   -0.567993
 N 0.6534 0.9392 0.6488   -0.764419
 N 0.3545 0.5609 0.4402   -0.401043
 N 0.4024 0.6513 0.4989   -0.256285
 N 0.2137 0.7428 0.4408   -0.567993
 N 0.1534 0.5608 0.3512   -0.764419
 N 0.1455 0.0609 0.0598   -0.401043
 N 0.0976 0.1513 0.0011   -0.256285
 N 0.2863 0.2428 0.0592   -0.567993
 N 0.3466 0.0608 0.1488   -0.764419
 N 0.6455 0.4391 0.9402   -0.401043
 N 0.5976 0.3487 0.9989   -0.256285
 N 0.7863 0.2572 0.9408   -0.567993
 N 0.8466 0.4392 0.8512   -0.764419
 N 0.1455 0.0609 0.4402   -0.401043
 N 0.0976 0.1513 0.4989   -0.256285
 N 0.2863 0.2428 0.4408   -0.567993
 N 0.3466 0.0608 0.3512   -0.764419
 N 0.6455 0.4391 0.5598   -0.401043
 N 0.5976 0.3487 0.5011   -0.256285
 N 0.7863 0.2572 0.5592   -0.567993
 N 0.8466 0.4392 0.6488   -0.764419
 N 0.8545 0.9391 0.9402   -0.401043
 N 0.9024 0.8487 0.9989   -0.256285
 N 0.7137 0.7572 0.9408   -0.567993
 N 0.6534 0.9392 0.8512   -0.764419
 N 0.3545 0.5609 0.0598   -0.401043
 N 0.4024 0.6513 0.0011   -0.256285
 N 0.2137 0.7428 0.0592   -0.567993
 N 0.1534 0.5608 0.1488   -0.764419
 O 0.0418 0.1622 0.682   -0.739282
 O 0.5418 0.3378 0.318   -0.739282
 O 0.9582 0.8378 0.182   -0.739282
 O 0.4582 0.6622 0.818   -0.739282
 O 0.9582 0.8378 0.318   -0.739284
 O 0.4582 0.6622 0.682   -0.739284
 O 0.0418 0.1622 0.818   -0.739284
 O 0.5418 0.3378 0.182   -0.739284
 O 0.8498 0.1099 0.75   -0.762505
 O 0.3498 0.3901 0.25   -0.762505
 O 0.1502 0.8901 0.25   -0.762505
 O 0.6502 0.6099 0.75   -0.762505
