{'_ref': 'TBD', '_srcid': 'CAKYAQ_clean', 'submitters': [{'name': 'Dalar Nazarian Jeff Camp and David Sholl', 'email': 'dalar@gatech.edu jcamp6@gatech.edu'}], '_method': 'VASP DFT with PBE;DDEC'}
data_Zn4H12C11N16O7
_symmetry_space_group_name_H-M   'P 1'
_cell_length_a   9.04360048
_cell_length_b   9.73080005
_cell_length_c   17.39160000
_cell_angle_alpha   94.43090099
_cell_angle_beta   105.07000228
_cell_angle_gamma   90.00000044
_symmetry_Int_Tables_number   1
_chemical_formula_structural   Zn4H12C11N16O7
_chemical_formula_sum   'Zn8 H24 C22 N32 O14'
_cell_volume   1473.11350043
_cell_formula_units_Z   2
loop_
 _symmetry_equiv_pos_site_id
 _symmetry_equiv_pos_as_xyz
  1  'x, y, z'
loop_
 _atom_site_label
 _atom_site_fract_x
 _atom_site_fract_y
 _atom_site_fract_z
 _atom_site_charge
 Zn 0.78166 0.75961 0.16426   0.855268
 Zn 0.96659 0.55304 0.34292   0.806243
 Zn 0.6174 0.74039 0.83574   0.854893
 Zn 0.62367 0.94696 0.65708   0.806056
 Zn 0.21834 0.24039 0.83574   0.855268
 Zn 0.03341 0.44696 0.65708   0.806243
 Zn 0.3826 0.25961 0.16426   0.854893
 Zn 0.37633 0.05304 0.34292   0.806056
 H 0.4799 0.64 0.0692   0.365136
 H 0.3792 0.518 0.0674   0.368099
 H 0.1322 0.0476 0.1842   0.349459
 H 0.992 0.9679 0.1388   0.360171
 H 0.6983 0.3348 0.282   0.0875
 H 0.2267 0.789 0.3994   0.089479
 H 0.4107 0.86 0.9308   0.364477
 H 0.3118 0.982 0.9326   0.366664
 H 0.948 0.4524 0.8158   0.349397
 H 0.8532 0.5321 0.8612   0.35941
 H 0.4163 0.1652 0.718   0.087582
 H 0.8273 0.711 0.6006   0.088839
 H 0.5201 0.36 0.9308   0.365136
 H 0.6208 0.482 0.9326   0.368099
 H 0.8678 0.9524 0.8158   0.349459
 H 0.008 0.0321 0.8612   0.36017
 H 0.3017 0.6652 0.718   0.0875
 H 0.7733 0.211 0.6006   0.089479
 H 0.5893 0.14 0.0692   0.364477
 H 0.6882 0.018 0.0674   0.366663
 H 0.052 0.5476 0.1842   0.349397
 H 0.1468 0.4679 0.1388   0.359409
 H 0.5837 0.8348 0.282   0.087582
 H 0.1727 0.289 0.3994   0.088839
 C 0.5674 0.5189 0.1522   0.649395
 C 0.67725 0.4034 0.2465   0.29072
 C 0.08394 0.8966 0.24188   0.639781
 C 0.16648 0.8068 0.34916   0.292079
 C 0.93174 0.4512 0.48648   0.518266
 C 0.4152 0.9811 0.8478   0.647031
 C 0.43075 0.0966 0.7535   0.28957
 C 0.84206 0.6034 0.75812   0.639061
 C 0.81732 0.6932 0.65084   0.29264
 C 0.44526 0.0488 0.51352   0.51961
 C 0.4326 0.4811 0.8478   0.649395
 C 0.32275 0.5966 0.7535   0.290722
 C 0.91606 0.1034 0.75812   0.639783
 C 0.83352 0.1932 0.65084   0.292079
 C 0.06826 0.5488 0.51352   0.518264
 C 0.5848 0.0189 0.1522   0.647032
 C 0.56925 0.9034 0.2465   0.289572
 C 0.15794 0.3966 0.24188   0.639063
 C 0.18268 0.3068 0.34916   0.29264
 C 0.55474 0.9512 0.48648   0.519609
 C 0.7368 0.75 0.0   0.958276
 C 0.2632 0.25 0.0   0.958276
 N 0.69888 0.5841 0.18836   -0.410713
 N 0.76849 0.5069 0.25058   -0.254944
 N 0.54913 0.4035 0.18646   -0.566693
 N 0.46259 0.5646 0.08838   -0.770269
 N 0.98807 0.7934 0.24094   -0.411366
 N 0.04413 0.7338 0.31126   -0.267333
 N 0.19628 0.9104 0.30796   -0.53238
 N 0.06733 0.9812 0.18066   -0.773851
 N 0.51052 0.9159 0.81164   -0.409869
 N 0.51791 0.9931 0.74942   -0.255194
 N 0.36267 0.0965 0.81354   -0.564351
 N 0.37421 0.9354 0.91162   -0.766957
 N 0.74713 0.7066 0.75906   -0.410109
 N 0.73287 0.7662 0.68874   -0.26766
 N 0.88832 0.5896 0.69204   -0.532343
 N 0.88667 0.5188 0.81934   -0.772782
 N 0.30112 0.4159 0.81164   -0.410713
 N 0.23151 0.4931 0.74942   -0.254944
 N 0.45087 0.5965 0.81354   -0.566694
 N 0.53741 0.4354 0.91162   -0.770269
 N 0.01193 0.2066 0.75906   -0.411366
 N 0.95587 0.2662 0.68874   -0.267333
 N 0.80372 0.0896 0.69204   -0.53238
 N 0.93267 0.0188 0.81934   -0.773851
 N 0.48948 0.0841 0.18836   -0.409869
 N 0.48209 0.0069 0.25058   -0.255194
 N 0.63733 0.9035 0.18646   -0.564351
 N 0.62579 0.0646 0.08838   -0.766957
 N 0.25287 0.2934 0.24094   -0.41011
 N 0.26713 0.2338 0.31126   -0.26766
 N 0.11168 0.4104 0.30796   -0.532343
 N 0.11333 0.4812 0.18066   -0.772782
 O 0.84255 0.7592 0.0657   -0.712514
 O 0.87747 0.4244 0.41374   -0.534413
 O 0.88703 0.3975 0.54006   -0.538869
 O 0.77685 0.7408 0.9343   -0.713673
 O 0.46373 0.0756 0.58626   -0.535154
 O 0.34697 0.1025 0.45994   -0.539669
 O 0.15745 0.2408 0.9343   -0.712514
 O 0.12253 0.5756 0.58626   -0.534413
 O 0.11297 0.6025 0.45994   -0.538869
 O 0.22315 0.2592 0.0657   -0.713673
 O 0.53627 0.9244 0.41374   -0.535154
 O 0.65303 0.8975 0.54006   -0.539669
 O 0.598 0.75 0.0   -0.753997
 O 0.402 0.25 0.0   -0.753997
