{'_ref': 'TBD', '_srcid': 'CAKYAQ_clean', 'submitters': [{'name': 'Dalar Nazarian Jeff Camp and David Sholl', 'email': 'dalar@gatech.edu jcamp6@gatech.edu'}], '_method': 'VASP DFT with PBE;DDEC'}
data_CdNiH21C13N6
_symmetry_space_group_name_H-M   'P 1'
_cell_length_a   7.32500009
_cell_length_b   11.61850005
_cell_length_c   14.04800000
_cell_angle_alpha   114.06500056
_cell_angle_beta   91.49999884
_cell_angle_gamma   103.55999932
_symmetry_Int_Tables_number   1
_chemical_formula_structural   CdNiH21C13N6
_chemical_formula_sum   'Cd2 Ni2 H42 C26 N12'
_cell_volume   1051.18248278
_cell_formula_units_Z   2
loop_
 _symmetry_equiv_pos_site_id
 _symmetry_equiv_pos_as_xyz
  1  'x, y, z'
loop_
 _atom_site_label
 _atom_site_fract_x
 _atom_site_fract_y
 _atom_site_fract_z
 _atom_site_charge
 Cd 0.0 0.0 0.0   0.995147
 Cd 0.0 0.0 0.5   0.977739
 Ni 0.51634 0.07716 0.2673   -0.001737
 Ni 0.48366 0.92284 0.7327   -0.001737
 H 0.2143 0.1681 0.9311   0.295655
 H 0.1148 0.2688 0.0377   0.288019
 H 0.0394 0.2897 0.8775   0.029707
 H 0.6819 0.2282 0.8699   0.091605
 H 0.707 0.1456 0.9498   0.103494
 H 0.8816 0.3483 0.091   0.068168
 H 0.8676 0.4326 0.0112   0.040565
 H 0.5099 0.3593 0.9923   0.059622
 H 0.5292 0.2824 0.0773   0.091292
 H 0.6989 0.4994 0.2209   0.062703
 H 0.6713 0.5748 0.1357   0.04484
 H 0.3182 0.4886 0.1171   0.055264
 H 0.3494 0.4191 0.2062   0.082307
 H 0.4944 0.6338 0.3458   0.077725
 H 0.4854 0.7077 0.2575   0.064462
 H 0.1247 0.619 0.2263   0.06378
 H 0.1434 0.562 0.3251   0.070775
 H 0.2913 0.8423 0.3566   0.070516
 H 0.2916 0.7821 0.4545   0.073617
 H 0.9436 0.7153 0.4269   0.300367
 H 0.9433 0.7755 0.329   0.274556
 H 0.7857 0.8319 0.0689   0.295656
 H 0.8852 0.7312 0.9623   0.288019
 H 0.9606 0.7103 0.1225   0.029709
 H 0.3181 0.7718 0.1301   0.091607
 H 0.293 0.8544 0.0502   0.103494
 H 0.1184 0.6517 0.909   0.068168
 H 0.1324 0.5674 0.9888   0.040566
 H 0.4901 0.6407 0.0077   0.059625
 H 0.4708 0.7176 0.9227   0.091292
 H 0.3011 0.5006 0.7791   0.062703
 H 0.3287 0.4252 0.8643   0.044844
 H 0.6818 0.5114 0.8829   0.055265
 H 0.6506 0.5809 0.7938   0.082307
 H 0.5056 0.3662 0.6542   0.077726
 H 0.5146 0.2923 0.7425   0.064465
 H 0.8753 0.381 0.7737   0.06378
 H 0.8566 0.438 0.6749   0.070777
 H 0.7087 0.1577 0.6434   0.070516
 H 0.7084 0.2179 0.5455   0.073617
 H 0.0564 0.2847 0.5731   0.300369
 H 0.0567 0.2245 0.671   0.274556
 C 0.6844 0.0202 0.3281   0.114433
 C 0.6688 0.0687 0.1628   0.130767
 C 0.3573 0.0838 0.3703   0.109423
 C 0.3441 0.1206 0.1982   0.133243
 C 0.9625 0.2055 0.8888   0.122738
 C 0.7777 0.2252 0.9295   -0.231848
 C 0.7932 0.3502 0.0275   -0.074705
 C 0.6012 0.3644 0.0586   -0.139533
 C 0.6051 0.4906 0.1538   -0.106488
 C 0.4113 0.4998 0.1852   -0.136933
 C 0.4132 0.6261 0.2755   -0.10437
 C 0.2115 0.6376 0.2987   -0.192272
 C 0.2101 0.7679 0.3815   0.07654
 C 0.3156 0.9798 0.6719   0.114433
 C 0.3312 0.9313 0.8372   0.130767
 C 0.6427 0.9162 0.6297   0.109424
 C 0.6559 0.8794 0.8018   0.133242
 C 0.0375 0.7945 0.1112   0.122739
 C 0.2223 0.7748 0.0705   -0.231848
 C 0.2068 0.6498 0.9725   -0.074705
 C 0.3988 0.6356 0.9414   -0.139533
 C 0.3949 0.5094 0.8462   -0.10649
 C 0.5887 0.5002 0.8148   -0.136933
 C 0.5868 0.3739 0.7245   -0.104371
 C 0.7885 0.3624 0.7013   -0.192272
 C 0.7899 0.2321 0.6185   0.07654
 N 0.7863 0.9836 0.3636   -0.434568
 N 0.7646 0.0636 0.1   -0.424515
 N 0.2538 0.083 0.4293   -0.427263
 N 0.231 0.1341 0.1486   -0.46107
 N 0.0811 0.1812 0.9612   -0.623985
 N 0.0221 0.7882 0.402   -0.623346
 N 0.2137 0.0164 0.6364   -0.434568
 N 0.2354 0.9364 0.9   -0.424516
 N 0.7462 0.917 0.5707   -0.427263
 N 0.769 0.8659 0.8514   -0.46107
 N 0.9189 0.8188 0.0388   -0.623985
 N 0.9779 0.2118 0.598   -0.623347
