{'_ref': 'TBD', '_srcid': 'CAKYAQ_clean', 'submitters': [{'name': 'Dalar Nazarian Jeff Camp and David Sholl', 'email': 'dalar@gatech.edu jcamp6@gatech.edu'}], '_method': 'VASP DFT with PBE;DDEC'}
data_Dy2Cu3H30C24(NO4)6
_symmetry_space_group_name_H-M   'P 1'
_cell_length_a   13.35030000
_cell_length_b   13.35030004
_cell_length_c   14.38530000
_cell_angle_alpha   90.00000000
_cell_angle_beta   90.00000000
_cell_angle_gamma   119.99999989
_symmetry_Int_Tables_number   1
_chemical_formula_structural   Dy2Cu3H30C24(NO4)6
_chemical_formula_sum   'Dy4 Cu6 H60 C48 N12 O48'
_cell_volume   2220.40198569
_cell_formula_units_Z   2
loop_
 _symmetry_equiv_pos_site_id
 _symmetry_equiv_pos_as_xyz
  1  'x, y, z'
loop_
 _atom_site_label
 _atom_site_fract_x
 _atom_site_fract_y
 _atom_site_fract_z
 _atom_site_charge
 Dy 0.33333 0.66666 0.8325   2.296276
 Dy 0.66667 0.33334 0.6675   2.296276
 Dy 0.66667 0.33334 0.1675   2.296276
 Dy 0.33333 0.66666 0.3325   2.296276
 Cu 0.0 0.5 0.0   0.823886
 Cu 0.5 0.0 0.0   0.823884
 Cu 0.5 0.5 0.0   0.823901
 Cu 0.5 0.5 0.5   0.823885
 Cu 0.5 0.0 0.5   0.823884
 Cu 0.0 0.5 0.5   0.823901
 H 0.9762 0.6498 0.0784   0.255896
 H 0.138 0.8202 0.0219   0.106929
 H 0.0398 0.747 0.95   0.125064
 H 0.0858 0.6876 0.1944   0.138348
 H 0.194 0.7343 0.129   0.136724
 H 0.6736 0.0238 0.0784   0.255895
 H 0.6822 0.862 0.0219   0.106926
 H 0.7072 0.9602 0.95   0.125066
 H 0.6018 0.9142 0.1944   0.138346
 H 0.5403 0.806 0.129   0.136719
 H 0.3502 0.3264 0.0784   0.255898
 H 0.1798 0.3178 0.0219   0.106931
 H 0.253 0.2928 0.95   0.125069
 H 0.3124 0.3982 0.1944   0.138348
 H 0.2657 0.4597 0.129   0.136722
 H 0.3264 0.3502 0.4216   0.255896
 H 0.3178 0.1798 0.4781   0.106929
 H 0.2928 0.253 0.55   0.125065
 H 0.3982 0.3124 0.3056   0.138348
 H 0.4597 0.2657 0.371   0.136724
 H 0.6498 0.9762 0.4216   0.255895
 H 0.8202 0.138 0.4781   0.106926
 H 0.747 0.0398 0.55   0.125066
 H 0.6876 0.0858 0.3056   0.138347
 H 0.7343 0.194 0.371   0.136719
 H 0.0238 0.6736 0.4216   0.255898
 H 0.862 0.6822 0.4781   0.106931
 H 0.9602 0.7072 0.55   0.12507
 H 0.9142 0.6018 0.3056   0.138349
 H 0.806 0.5403 0.371   0.136723
 H 0.0238 0.3502 0.9216   0.255896
 H 0.862 0.1798 0.9781   0.106928
 H 0.9602 0.253 0.05   0.125064
 H 0.9142 0.3124 0.8056   0.138348
 H 0.806 0.2657 0.871   0.136725
 H 0.3264 0.9762 0.9216   0.255895
 H 0.3178 0.138 0.9781   0.106925
 H 0.2928 0.0398 0.05   0.125066
 H 0.3982 0.0858 0.8056   0.138347
 H 0.4597 0.194 0.871   0.13672
 H 0.6498 0.6736 0.9216   0.255898
 H 0.8202 0.6822 0.9781   0.10693
 H 0.747 0.7072 0.05   0.125069
 H 0.6876 0.6018 0.8056   0.138348
 H 0.7343 0.5403 0.871   0.136723
 H 0.6736 0.6498 0.5784   0.255896
 H 0.6822 0.8202 0.5219   0.106928
 H 0.7072 0.747 0.45   0.125065
 H 0.6018 0.6876 0.6944   0.138349
 H 0.5403 0.7343 0.629   0.136725
 H 0.3502 0.0238 0.5784   0.255895
 H 0.1798 0.862 0.5219   0.106926
 H 0.253 0.9602 0.45   0.125066
 H 0.3124 0.9142 0.6944   0.138347
 H 0.2657 0.806 0.629   0.13672
 H 0.9762 0.3264 0.5784   0.255898
 H 0.138 0.3178 0.5219   0.10693
 H 0.0398 0.2928 0.45   0.12507
 H 0.0858 0.3982 0.6944   0.138349
 H 0.194 0.4597 0.629   0.136723
 C 0.185 0.7317 0.9301   0.700968
 C 0.0982 0.7465 0.9898   -0.183817
 C 0.1263 0.5629 0.1609   0.759973
 C 0.1172 0.6693 0.1405   -0.224451
 C 0.5467 0.815 0.9301   0.700962
 C 0.6483 0.9018 0.9898   -0.18382
 C 0.4366 0.8737 0.1609   0.759945
 C 0.5521 0.8828 0.1405   -0.224445
 C 0.2683 0.4533 0.9301   0.700962
 C 0.2535 0.3517 0.9898   -0.183817
 C 0.4371 0.5634 0.1609   0.759961
 C 0.3307 0.4479 0.1405   -0.224452
 C 0.4533 0.2683 0.5699   0.700968
 C 0.3517 0.2535 0.5102   -0.183818
 C 0.5634 0.4371 0.3391   0.759973
 C 0.4479 0.3307 0.3595   -0.224452
 C 0.7317 0.185 0.5699   0.700962
 C 0.7465 0.0982 0.5102   -0.18382
 C 0.5629 0.1263 0.3391   0.759945
 C 0.6693 0.1172 0.3595   -0.224445
 C 0.815 0.5467 0.5699   0.700963
 C 0.9018 0.6483 0.5102   -0.183818
 C 0.8737 0.4366 0.3391   0.759961
 C 0.8828 0.5521 0.3595   -0.224452
 C 0.815 0.2683 0.0699   0.700968
 C 0.9018 0.2535 0.0102   -0.183817
 C 0.8737 0.4371 0.8391   0.759973
 C 0.8828 0.3307 0.8595   -0.224451
 C 0.4533 0.185 0.0699   0.700962
 C 0.3517 0.0982 0.0102   -0.18382
 C 0.5634 0.1263 0.8391   0.759945
 C 0.4479 0.1172 0.8595   -0.224445
 C 0.7317 0.5467 0.0699   0.700962
 C 0.7465 0.6483 0.0102   -0.183817
 C 0.5629 0.4366 0.8391   0.759961
 C 0.6693 0.5521 0.8595   -0.224452
 C 0.5467 0.7317 0.4301   0.700968
 C 0.6483 0.7465 0.4898   -0.183817
 C 0.4366 0.5629 0.6609   0.759973
 C 0.5521 0.6693 0.6405   -0.224452
 C 0.2683 0.815 0.4301   0.700962
 C 0.2535 0.9018 0.4898   -0.18382
 C 0.4371 0.8737 0.6609   0.759945
 C 0.3307 0.8828 0.6405   -0.224445
 C 0.185 0.4533 0.4301   0.700963
 C 0.0982 0.3517 0.4898   -0.183818
 C 0.1263 0.5634 0.6609   0.759961
 C 0.1172 0.4479 0.6405   -0.224452
 N 0.0422 0.6526 0.0582   -0.281159
 N 0.6104 0.9578 0.0582   -0.28116
 N 0.3474 0.3896 0.0582   -0.281163
 N 0.3896 0.3474 0.4418   -0.281159
 N 0.6526 0.0422 0.4418   -0.28116
 N 0.9578 0.6104 0.4418   -0.281163
 N 0.9578 0.3474 0.9418   -0.281159
 N 0.3896 0.0422 0.9418   -0.28116
 N 0.6526 0.6104 0.9418   -0.281163
 N 0.6104 0.6526 0.5582   -0.281159
 N 0.3474 0.9578 0.5582   -0.28116
 N 0.0422 0.3896 0.5582   -0.281163
 O 0.1888 0.6399 0.9405   -0.744384
 O 0.2457 0.8065 0.872   -0.656961
 O 0.1845 0.5654 0.2295   -0.743049
 O 0.0751 0.4768 0.1082   -0.567462
 O 0.4511 0.8112 0.9405   -0.74434
 O 0.5608 0.7543 0.872   -0.65698
 O 0.3809 0.8155 0.2295   -0.742998
 O 0.4017 0.9249 0.1082   -0.567462
 O 0.3601 0.5489 0.9405   -0.744378
 O 0.1935 0.4392 0.872   -0.656971
 O 0.4346 0.6191 0.2295   -0.743035
 O 0.5232 0.5983 0.1082   -0.56746
 O 0.5489 0.3601 0.5595   -0.744383
 O 0.4392 0.1935 0.628   -0.656962
 O 0.6191 0.4346 0.2705   -0.743049
 O 0.5983 0.5232 0.3918   -0.567462
 O 0.6399 0.1888 0.5595   -0.744341
 O 0.8065 0.2457 0.628   -0.656979
 O 0.5654 0.1845 0.2705   -0.742999
 O 0.4768 0.0751 0.3918   -0.567463
 O 0.8112 0.4511 0.5595   -0.744378
 O 0.7543 0.5608 0.628   -0.656971
 O 0.8155 0.3809 0.2705   -0.743036
 O 0.9249 0.4017 0.3918   -0.56746
 O 0.8112 0.3601 0.0595   -0.744384
 O 0.7543 0.1935 0.128   -0.656961
 O 0.8155 0.4346 0.7705   -0.743049
 O 0.9249 0.5232 0.8918   -0.567462
 O 0.5489 0.1888 0.0595   -0.74434
 O 0.4392 0.2457 0.128   -0.65698
 O 0.6191 0.1845 0.7705   -0.742998
 O 0.5983 0.0751 0.8918   -0.567462
 O 0.6399 0.4511 0.0595   -0.744378
 O 0.8065 0.5608 0.128   -0.656971
 O 0.5654 0.3809 0.7705   -0.743035
 O 0.4768 0.4017 0.8918   -0.56746
 O 0.4511 0.6399 0.4405   -0.744383
 O 0.5608 0.8065 0.372   -0.656962
 O 0.3809 0.5654 0.7295   -0.743049
 O 0.4017 0.4768 0.6082   -0.567462
 O 0.3601 0.8112 0.4405   -0.744341
 O 0.1935 0.7543 0.372   -0.656979
 O 0.4346 0.8155 0.7295   -0.742999
 O 0.5232 0.9249 0.6082   -0.567463
 O 0.1888 0.5489 0.4405   -0.744378
 O 0.2457 0.4392 0.372   -0.656971
 O 0.1845 0.6191 0.7295   -0.743036
 O 0.0751 0.5983 0.6082   -0.56746
