{'_ref': 'TBD', '_srcid': 'CAKYAQ_clean', 'submitters': [{'name': 'Dalar Nazarian Jeff Camp and David Sholl', 'email': 'dalar@gatech.edu jcamp6@gatech.edu'}], '_method': 'VASP DFT with PBE;DDEC'}
data_YbH9(C3O2)3
_symmetry_space_group_name_H-M   'P 1'
_cell_length_a   8.57730000
_cell_length_b   12.13969964
_cell_length_c   16.72810000
_cell_angle_alpha   90.00000000
_cell_angle_beta   90.00000000
_cell_angle_gamma   93.03600091
_symmetry_Int_Tables_number   1
_chemical_formula_structural   YbH9(C3O2)3
_chemical_formula_sum   'Yb4 H36 C36 O24'
_cell_volume   1739.38282284
_cell_formula_units_Z   4
loop_
 _symmetry_equiv_pos_site_id
 _symmetry_equiv_pos_as_xyz
  1  'x, y, z'
loop_
 _atom_site_label
 _atom_site_fract_x
 _atom_site_fract_y
 _atom_site_fract_z
 _atom_site_charge
 Yb 0.4816 0.06883 0.90197   1.479761
 Yb 0.0184 0.43117 0.40197   1.479761
 Yb 0.5184 0.93117 0.09803   1.479761
 Yb 0.9816 0.56883 0.59803   1.479761
 H 0.8493 0.8111 0.7932   0.094533
 H 0.7358 0.7119 0.8187   0.09448
 H 0.771 0.755 0.953   0.097801
 H 0.9381 0.9048 0.9943   0.083147
 H 0.9797 0.9346 0.9053   0.098476
 H 0.076 0.74 0.986   0.104616
 H 0.1991 0.693 0.8669   0.090757
 H 0.144 0.7997 0.8248   0.106175
 H 0.942 0.619 0.873   0.096178
 H 0.6507 0.6889 0.2932   0.094533
 H 0.7642 0.7881 0.3187   0.09448
 H 0.729 0.745 0.453   0.097801
 H 0.5619 0.5952 0.4943   0.083147
 H 0.5203 0.5654 0.4053   0.098476
 H 0.424 0.76 0.486   0.104616
 H 0.3009 0.807 0.3669   0.090757
 H 0.356 0.7003 0.3248   0.106175
 H 0.558 0.881 0.373   0.096178
 H 0.1507 0.1889 0.2068   0.094533
 H 0.2642 0.2881 0.1813   0.09448
 H 0.229 0.245 0.047   0.0978
 H 0.0619 0.0952 0.0057   0.083148
 H 0.0203 0.0654 0.0947   0.098476
 H 0.924 0.26 0.014   0.104616
 H 0.8009 0.307 0.1331   0.090757
 H 0.856 0.2003 0.1752   0.106175
 H 0.058 0.381 0.127   0.096178
 H 0.3493 0.3111 0.7068   0.094533
 H 0.2358 0.2119 0.6813   0.09448
 H 0.271 0.255 0.547   0.0978
 H 0.4381 0.4048 0.5057   0.083148
 H 0.4797 0.4346 0.5947   0.098476
 H 0.576 0.24 0.514   0.104616
 H 0.6991 0.193 0.6331   0.090757
 H 0.644 0.2997 0.6752   0.106175
 H 0.442 0.119 0.627   0.096178
 C 0.8298 0.755 0.8337   -0.133368
 C 0.8032 0.8106 0.9134   -0.145711
 C 0.9549 0.874 0.9417   -0.129755
 C 0.095 0.7972 0.9451   -0.147278
 C 0.1149 0.7432 0.8638   -0.125239
 C 0.9668 0.6796 0.8358   -0.128406
 C 0.6795 0.8949 0.9077   0.702069
 C 0.2403 0.8686 0.9667   0.708803
 C 0.9824 0.6323 0.7521   0.630232
 C 0.6702 0.745 0.3337   -0.133368
 C 0.6968 0.6894 0.4134   -0.145711
 C 0.5451 0.626 0.4417   -0.129755
 C 0.405 0.7028 0.4451   -0.147278
 C 0.3851 0.7568 0.3638   -0.125239
 C 0.5332 0.8204 0.3358   -0.128406
 C 0.8205 0.6051 0.4077   0.702069
 C 0.2597 0.6314 0.4667   0.708803
 C 0.5176 0.8677 0.2521   0.630232
 C 0.1702 0.245 0.1663   -0.133368
 C 0.1968 0.1894 0.0866   -0.145711
 C 0.0451 0.126 0.0583   -0.129756
 C 0.905 0.2028 0.0549   -0.147278
 C 0.8851 0.2568 0.1362   -0.125239
 C 0.0332 0.3204 0.1642   -0.128406
 C 0.3205 0.1051 0.0923   0.702069
 C 0.7597 0.1314 0.0333   0.708803
 C 0.0176 0.3677 0.2479   0.630232
 C 0.3298 0.255 0.6663   -0.133368
 C 0.3032 0.3106 0.5866   -0.145711
 C 0.4549 0.374 0.5583   -0.129756
 C 0.595 0.2972 0.5549   -0.147278
 C 0.6149 0.2432 0.6362   -0.125239
 C 0.4668 0.1796 0.6642   -0.128406
 C 0.1795 0.3949 0.5923   0.702069
 C 0.7403 0.3686 0.5333   0.708803
 C 0.4824 0.1323 0.7479   0.630232
 O 0.6618 0.949 0.8463   -0.558056
 O 0.5946 0.913 0.969   -0.741067
 O 0.2863 0.9397 0.916   -0.604593
 O 0.303 0.8539 0.0343   -0.573669
 O 0.8968 0.5502 0.7321   -0.532211
 O 0.0732 0.6805 0.7021   -0.567674
 O 0.8382 0.551 0.3463   -0.558056
 O 0.9054 0.587 0.469   -0.741067
 O 0.2137 0.5603 0.416   -0.604593
 O 0.197 0.6461 0.5343   -0.573669
 O 0.6032 0.9498 0.2321   -0.532211
 O 0.4268 0.8195 0.2021   -0.567674
 O 0.3382 0.051 0.1537   -0.558056
 O 0.4054 0.087 0.031   -0.741067
 O 0.7137 0.0603 0.084   -0.604593
 O 0.697 0.1461 0.9657   -0.573669
 O 0.1032 0.4498 0.2679   -0.532211
 O 0.9268 0.3195 0.2979   -0.567674
 O 0.1618 0.449 0.6537   -0.558056
 O 0.0946 0.413 0.531   -0.741067
 O 0.7863 0.4397 0.584   -0.604593
 O 0.803 0.3539 0.4657   -0.573669
 O 0.3968 0.0502 0.7679   -0.532211
 O 0.5732 0.1805 0.7979   -0.567674
