{'_ref': 'TBD', '_srcid': 'CAKYAQ_clean', 'submitters': [{'name': 'Dalar Nazarian Jeff Camp and David Sholl', 'email': 'dalar@gatech.edu jcamp6@gatech.edu'}], '_method': 'VASP DFT with PBE;DDEC'}
data_Cu2H4C8SO8
_symmetry_space_group_name_H-M   'P 1'
_cell_length_a   10.89080000
_cell_length_b   11.55370000
_cell_length_c   16.77930000
_cell_angle_alpha   90.00000000
_cell_angle_beta   90.00000000
_cell_angle_gamma   90.00000000
_symmetry_Int_Tables_number   1
_chemical_formula_structural   Cu2H4C8SO8
_chemical_formula_sum   'Cu8 H16 C32 S4 O32'
_cell_volume   2111.32314308
_cell_formula_units_Z   4
loop_
 _symmetry_equiv_pos_site_id
 _symmetry_equiv_pos_as_xyz
  1  'x, y, z'
loop_
 _atom_site_label
 _atom_site_fract_x
 _atom_site_fract_y
 _atom_site_fract_z
 _atom_site_charge
 Cu 0.0 0.82138 0.86466   1.0269
 Cu 0.0 0.17862 0.13534   1.026911
 Cu 0.13798 0.0 0.0   1.114174
 Cu 0.86202 0.0 0.0   1.114174
 Cu 0.5 0.67862 0.36466   1.026899
 Cu 0.5 0.32138 0.63534   1.02691
 Cu 0.36202 0.5 0.5   1.114173
 Cu 0.63798 0.5 0.5   1.114173
 H 0.3139 0.2934 0.2316   0.118614
 H 0.3139 0.7066 0.7684   0.118614
 H 0.6861 0.7066 0.7684   0.118614
 H 0.6861 0.2934 0.2316   0.118614
 H 0.0 0.84 0.997   0.459216
 H 0.0 0.16 0.003   0.459217
 H 0.5 0.1094 0.0654   0.117636
 H 0.5 0.8906 0.9346   0.117631
 H 0.1861 0.2066 0.7316   0.118614
 H 0.1861 0.7934 0.2684   0.118614
 H 0.8139 0.7934 0.2684   0.118614
 H 0.8139 0.2066 0.7316   0.118614
 H 0.0 0.3906 0.5654   0.117636
 H 0.0 0.6094 0.4346   0.117631
 H 0.5 0.66 0.497   0.459216
 H 0.5 0.34 0.503   0.459216
 C 0.2683 0.1567 0.1075   0.735323
 C 0.2683 0.8433 0.8925   0.735324
 C 0.3887 0.1947 0.1432   -0.165802
 C 0.3893 0.2677 0.2093   0.044277
 C 0.3887 0.8053 0.8568   -0.165799
 C 0.3893 0.7323 0.7907   0.044278
 C 0.7317 0.8433 0.8925   0.735323
 C 0.7317 0.1567 0.1075   0.735324
 C 0.6113 0.8053 0.8568   -0.165803
 C 0.6107 0.7323 0.7907   0.044277
 C 0.6113 0.1947 0.1432   -0.165799
 C 0.6107 0.2677 0.2093   0.044278
 C 0.5 0.1589 0.1105   0.023065
 C 0.5 0.303 0.2427   -0.217778
 C 0.5 0.8411 0.8895   0.023066
 C 0.5 0.697 0.7573   -0.217778
 C 0.1113 0.3053 0.6432   -0.165803
 C 0.1107 0.2323 0.7093   0.044277
 C 0.1113 0.6947 0.3568   -0.1658
 C 0.1107 0.7677 0.2907   0.044278
 C 0.2317 0.3433 0.6075   0.735325
 C 0.2317 0.6567 0.3925   0.735325
 C 0.8887 0.6947 0.3568   -0.165804
 C 0.8893 0.7677 0.2907   0.044277
 C 0.8887 0.3053 0.6432   -0.1658
 C 0.8893 0.2323 0.7093   0.044278
 C 0.7683 0.6567 0.3925   0.735325
 C 0.7683 0.3433 0.6075   0.735325
 C 0.0 0.3411 0.6105   0.023065
 C 0.0 0.197 0.7427   -0.217778
 C 0.0 0.6589 0.3895   0.023067
 C 0.0 0.803 0.2573   -0.217778
 S 0.5 0.39953 0.32572   1.380837
 S 0.5 0.60047 0.67428   1.380837
 S 0.0 0.10047 0.82572   1.380837
 S 0.0 0.89953 0.17428   1.380837
 O 0.2705 0.0859 0.0517   -0.541258
 O 0.1751 0.797 0.8617   -0.621767
 O 0.2705 0.9141 0.9483   -0.541258
 O 0.1751 0.203 0.1383   -0.621767
 O 0.3893 0.3784 0.3702   -0.682161
 O 0.3893 0.6216 0.6298   -0.682161
 O 0.7295 0.9141 0.9483   -0.541257
 O 0.8249 0.203 0.1383   -0.621767
 O 0.7295 0.0859 0.0517   -0.541258
 O 0.8249 0.797 0.8617   -0.621767
 O 0.6107 0.6216 0.6298   -0.682161
 O 0.6107 0.3784 0.3702   -0.682161
 O 0.0 0.8984 0.9671   -0.978944
 O 0.0 0.1016 0.0329   -0.978945
 O 0.5 0.5137 0.2896   -0.699564
 O 0.5 0.4863 0.7104   -0.699564
 O 0.1107 0.1216 0.8702   -0.682162
 O 0.1107 0.8784 0.1298   -0.682162
 O 0.2295 0.4141 0.5517   -0.541258
 O 0.3249 0.703 0.3617   -0.621767
 O 0.2295 0.5859 0.4483   -0.541258
 O 0.3249 0.297 0.6383   -0.621768
 O 0.8893 0.8784 0.1298   -0.682162
 O 0.8893 0.1216 0.8702   -0.682162
 O 0.7705 0.5859 0.4483   -0.541258
 O 0.6751 0.297 0.6383   -0.621768
 O 0.7705 0.4141 0.5517   -0.541258
 O 0.6751 0.703 0.3617   -0.621767
 O 0.0 0.9863 0.7896   -0.699565
 O 0.0 0.0137 0.2104   -0.699566
 O 0.5 0.6016 0.4671   -0.978944
 O 0.5 0.3984 0.5329   -0.978945
