{'_ref': 'TBD', '_srcid': 'CAKYAQ_clean', 'submitters': [{'name': 'Dalar Nazarian Jeff Camp and David Sholl', 'email': 'dalar@gatech.edu jcamp6@gatech.edu'}], '_method': 'VASP DFT with PBE;DDEC'}
data_Cu5H18C26I5N4
_symmetry_space_group_name_H-M   'P 1'
_cell_length_a   10.16520047
_cell_length_b   14.63419999
_cell_length_c   15.28290000
_cell_angle_alpha   117.53799917
_cell_angle_beta   96.14099892
_cell_angle_gamma   104.33800172
_symmetry_Int_Tables_number   1
_chemical_formula_structural   Cu5H18C26I5N4
_chemical_formula_sum   'Cu10 H36 C52 I10 N8'
_cell_volume   1887.09395215
_cell_formula_units_Z   2
loop_
 _symmetry_equiv_pos_site_id
 _symmetry_equiv_pos_as_xyz
  1  'x, y, z'
loop_
 _atom_site_label
 _atom_site_fract_x
 _atom_site_fract_y
 _atom_site_fract_z
 _atom_site_charge
 Cu 0.9399 0.57547 0.53369   0.131898
 Cu 0.94159 0.61651 0.74524   0.073564
 Cu 0.73569 0.72646 0.78185   0.127298
 Cu 0.67206 0.51081 0.7543   0.125557
 Cu 0.84793 0.68552 0.91457   0.12939
 Cu 0.0601 0.42453 0.46631   0.131903
 Cu 0.05841 0.38349 0.25476   0.073564
 Cu 0.26431 0.27354 0.21815   0.127298
 Cu 0.32794 0.48919 0.2457   0.125558
 Cu 0.15207 0.31448 0.08543   0.129392
 H 0.1124 0.8137 0.6734   0.056324
 H 0.2974 0.9359 0.6707   0.133523
 H 0.1872 0.7519 0.3658   0.113388
 H 0.0031 0.6344 0.3766   0.052844
 H 0.2754 0.9423 0.4021   0.102627
 H 0.4325 0.7569 0.5305   0.115801
 H 0.5117 0.6779 0.6155   0.053054
 H 0.7781 0.9593 0.8264   0.069201
 H 0.707 0.0446 0.748   0.13113
 H 0.0909 0.0927 0.9159   0.05332
 H 0.0624 0.996 0.7447   0.119049
 H 0.0848 0.2702 0.7389   0.131961
 H 0.1096 0.3572 0.9121   0.07131
 H 0.8821 0.9345 0.5901   0.107182
 H 0.1965 0.2715 0.5288   0.117203
 H 0.4028 0.4157 0.6033   0.055902
 H 0.5529 0.2993 0.7556   0.070335
 H 0.3501 0.157 0.6935   0.125423
 H 0.8876 0.1863 0.3266   0.056324
 H 0.7026 0.0641 0.3293   0.133523
 H 0.8128 0.2481 0.6342   0.113388
 H 0.9969 0.3656 0.6234   0.052843
 H 0.7246 0.0577 0.5979   0.102629
 H 0.5675 0.2431 0.4695   0.115801
 H 0.4883 0.3221 0.3845   0.053054
 H 0.2219 0.0407 0.1736   0.069201
 H 0.293 0.9554 0.252   0.131133
 H 0.9091 0.9073 0.0841   0.05332
 H 0.9376 0.004 0.2553   0.119049
 H 0.9152 0.7298 0.2611   0.13196
 H 0.8904 0.6428 0.0879   0.07131
 H 0.1179 0.0655 0.4099   0.107184
 H 0.8035 0.7285 0.4712   0.117205
 H 0.5972 0.5843 0.3967   0.055902
 H 0.4471 0.7007 0.2444   0.070336
 H 0.6499 0.843 0.3065   0.125423
 C 0.1289 0.8004 0.6106   0.15759
 C 0.2398 0.8746 0.6098   -0.210116
 C 0.2661 0.8571 0.5157   0.11186
 C 0.1747 0.766 0.4297   -0.201182
 C 0.0644 0.6948 0.4365   0.161497
 C 0.3895 0.9289 0.5089   0.011989
 C 0.3657 0.9666 0.4424   -0.133691
 C 0.525 0.9597 0.565   0.001821
 C 0.564 0.9104 0.627   0.103942
 C 0.5049 0.8 0.5901   -0.194677
 C 0.553 0.7526 0.6415   0.15253
 C 0.709 0.9174 0.7649   0.150828
 C 0.6665 0.9692 0.7181   -0.208845
 C 0.089 0.129 0.8796   0.164362
 C 0.0715 0.0698 0.7766   -0.211806
 C 0.0677 0.1216 0.7208   0.102452
 C 0.0844 0.2317 0.7732   -0.211026
 C 0.1004 0.2834 0.8776   0.157725
 C 0.0404 0.0585 0.6061   0.002077
 C 0.9291 0.9615 0.5534   -0.12989
 C 0.1155 0.0972 0.5521   0.011174
 C 0.2475 0.196 0.603   0.104948
 C 0.2669 0.2758 0.5763   -0.191327
 C 0.3921 0.3619 0.621   0.154414
 C 0.4792 0.295 0.7105   0.158028
 C 0.3581 0.208 0.6725   -0.206503
 C 0.8711 0.1996 0.3894   0.15759
 C 0.7602 0.1254 0.3902   -0.210116
 C 0.7339 0.1429 0.4843   0.11186
 C 0.8253 0.234 0.5703   -0.201181
 C 0.9356 0.3052 0.5635   0.161498
 C 0.6105 0.0711 0.4911   0.011988
 C 0.6343 0.0334 0.5576   -0.133685
 C 0.475 0.0403 0.435   0.001826
 C 0.436 0.0896 0.373   0.103942
 C 0.4951 0.2 0.4099   -0.194675
 C 0.447 0.2474 0.3585   0.15253
 C 0.291 0.0826 0.2351   0.150829
 C 0.3335 0.0308 0.2819   -0.208846
 C 0.911 0.871 0.1204   0.164362
 C 0.9285 0.9302 0.2234   -0.211806
 C 0.9323 0.8784 0.2792   0.102452
 C 0.9156 0.7683 0.2268   -0.211025
 C 0.8996 0.7166 0.1224   0.157725
 C 0.9596 0.9415 0.3939   0.002077
 C 0.0709 0.0385 0.4466   -0.12989
 C 0.8845 0.9028 0.4479   0.011175
 C 0.7525 0.804 0.397   0.104948
 C 0.7331 0.7242 0.4237   -0.191326
 C 0.6079 0.6381 0.379   0.154415
 C 0.5208 0.705 0.2895   0.15803
 C 0.6419 0.792 0.3275   -0.206502
 I 0.70964 0.53856 0.59101   -0.175549
 I 0.15471 0.58763 0.66458   -0.215788
 I 0.00517 0.83281 0.87158   -0.255706
 I 0.89734 0.49791 0.84273   -0.262169
 I 0.56825 0.66219 0.87407   -0.269212
 I 0.29036 0.46144 0.40899   -0.175549
 I 0.84529 0.41237 0.33542   -0.215787
 I 0.99483 0.16719 0.12842   -0.255708
 I 0.10266 0.50209 0.15727   -0.262191
 I 0.43175 0.33781 0.12593   -0.269221
 N 0.0423 0.7095 0.5265   -0.251243
 N 0.6566 0.8108 0.727   -0.214416
 N 0.1033 0.2337 0.9317   -0.213791
 N 0.4991 0.3728 0.6882   -0.217585
 N 0.9577 0.2905 0.4735   -0.251243
 N 0.3434 0.1892 0.273   -0.214417
 N 0.8967 0.7663 0.0683   -0.213791
 N 0.5009 0.6272 0.3118   -0.217585
