{'_ref': 'TBD', '_srcid': 'CAKYAQ_clean', 'submitters': [{'name': 'Dalar Nazarian Jeff Camp and David Sholl', 'email': 'dalar@gatech.edu jcamp6@gatech.edu'}], '_method': 'VASP DFT with PBE;DDEC'}
data_CaH8(C2O)8
_symmetry_space_group_name_H-M   'P 1'
_cell_length_a   10.14300001
_cell_length_b   12.70900000
_cell_length_c   16.79500000
_cell_angle_alpha   90.00000000
_cell_angle_beta   107.03599892
_cell_angle_gamma   90.00000000
_symmetry_Int_Tables_number   1
_chemical_formula_structural   CaH8(C2O)8
_chemical_formula_sum   'Ca4 H32 C64 O32'
_cell_volume   2070.00127064
_cell_formula_units_Z   4
loop_
 _symmetry_equiv_pos_site_id
 _symmetry_equiv_pos_as_xyz
  1  'x, y, z'
loop_
 _atom_site_label
 _atom_site_fract_x
 _atom_site_fract_y
 _atom_site_fract_z
 _atom_site_charge
 Ca 0.93138 0.23201 0.71281   1.604216
 Ca 0.06862 0.73201 0.78719   1.604216
 Ca 0.06862 0.76799 0.28719   1.604216
 Ca 0.93138 0.26799 0.21281   1.604216
 H 0.2691 0.3252 0.7811   0.099052
 H 0.4578 0.4155 0.7666   0.107351
 H 0.6664 0.3273 0.7856   0.083238
 H 0.4983 0.064 0.8436   0.099038
 H 0.8038 0.6415 0.8583   0.078881
 H 0.7457 0.4782 0.899   0.105249
 H 0.8056 0.4345 0.038   0.075229
 H 0.9802 0.7167 0.0979   0.081714
 H 0.7309 0.8252 0.7189   0.099052
 H 0.5422 0.9155 0.7334   0.107351
 H 0.3336 0.8273 0.7144   0.083238
 H 0.5017 0.564 0.6564   0.099038
 H 0.1962 0.1415 0.6417   0.078881
 H 0.2543 0.9782 0.601   0.105249
 H 0.1944 0.9345 0.462   0.075229
 H 0.0198 0.2167 0.4021   0.081714
 H 0.7309 0.6748 0.2189   0.099052
 H 0.5422 0.5845 0.2334   0.107351
 H 0.3336 0.6727 0.2144   0.083238
 H 0.5017 0.936 0.1564   0.099038
 H 0.1962 0.3585 0.1417   0.078881
 H 0.2543 0.5218 0.101   0.105249
 H 0.1944 0.5655 0.962   0.075229
 H 0.0198 0.2833 0.9021   0.081714
 H 0.2691 0.1748 0.2811   0.099052
 H 0.4578 0.0845 0.2666   0.107351
 H 0.6664 0.1727 0.2856   0.083238
 H 0.4983 0.436 0.3436   0.099038
 H 0.8038 0.8585 0.3583   0.078881
 H 0.7457 0.0218 0.399   0.105249
 H 0.8056 0.0655 0.538   0.075229
 H 0.9802 0.7833 0.5979   0.081714
 C 0.2468 0.1291 0.8341   0.664714
 C 0.7349 0.1289 0.8276   0.643484
 C 0.3665 0.1867 0.8176   -0.176596
 C 0.3537 0.2913 0.7916   0.000837
 C 0.4654 0.3448 0.7813   -0.102129
 C 0.5909 0.2917 0.7931   -0.024847
 C 0.6032 0.1877 0.8156   -0.180637
 C 0.4903 0.1345 0.8282   0.010776
 C 0.9432 0.8008 0.9474   0.646291
 C 0.9451 0.5393 0.173   0.77142
 C 0.8997 0.6948 0.9732   -0.154342
 C 0.8286 0.6239 0.9145   -0.012921
 C 0.7937 0.5261 0.9388   -0.108319
 C 0.83 0.5 0.0219   0.011743
 C 0.9024 0.5701 0.0818   -0.214646
 C 0.9349 0.6681 0.0578   0.032857
 C 0.7532 0.6291 0.6659   0.664714
 C 0.2651 0.6289 0.6724   0.643484
 C 0.6335 0.6867 0.6824   -0.176596
 C 0.6463 0.7913 0.7084   0.000837
 C 0.5346 0.8448 0.7187   -0.102129
 C 0.4091 0.7917 0.7069   -0.024847
 C 0.3968 0.6877 0.6844   -0.180637
 C 0.5097 0.6345 0.6718   0.010776
 C 0.0568 0.3008 0.5526   0.646291
 C 0.0549 0.0393 0.327   0.77142
 C 0.1003 0.1948 0.5268   -0.154342
 C 0.1714 0.1239 0.5855   -0.012921
 C 0.2063 0.0261 0.5612   -0.108318
 C 0.17 0.0 0.4781   0.011743
 C 0.0976 0.0701 0.4182   -0.214646
 C 0.0651 0.1681 0.4422   0.032857
 C 0.7532 0.8709 0.1659   0.664714
 C 0.2651 0.8711 0.1724   0.643484
 C 0.6335 0.8133 0.1824   -0.176596
 C 0.6463 0.7087 0.2084   0.000837
 C 0.5346 0.6552 0.2187   -0.102129
 C 0.4091 0.7083 0.2069   -0.024847
 C 0.3968 0.8123 0.1844   -0.180637
 C 0.5097 0.8655 0.1718   0.010776
 C 0.0568 0.1992 0.0526   0.646291
 C 0.0549 0.4607 0.827   0.77142
 C 0.1003 0.3052 0.0268   -0.154342
 C 0.1714 0.3761 0.0855   -0.012922
 C 0.2063 0.4739 0.0612   -0.108319
 C 0.17 0.5 0.9781   0.011742
 C 0.0976 0.4299 0.9182   -0.214647
 C 0.0651 0.3319 0.9422   0.032857
 C 0.2468 0.3709 0.3341   0.664714
 C 0.7349 0.3711 0.3276   0.643484
 C 0.3665 0.3133 0.3176   -0.176596
 C 0.3537 0.2087 0.2916   0.000837
 C 0.4654 0.1552 0.2813   -0.102129
 C 0.5909 0.2083 0.2931   -0.024847
 C 0.6032 0.3123 0.3156   -0.180637
 C 0.4903 0.3655 0.3282   0.010776
 C 0.9432 0.6992 0.4474   0.646291
 C 0.9451 0.9607 0.673   0.77142
 C 0.8997 0.8052 0.4732   -0.154342
 C 0.8286 0.8761 0.4145   -0.012922
 C 0.7937 0.9739 0.4388   -0.108319
 C 0.83 0.0 0.5219   0.011742
 C 0.9024 0.9299 0.5818   -0.214647
 C 0.9349 0.8319 0.5578   0.032857
 O 0.2693 0.0455 0.8735   -0.37366
 O 0.1293 0.1699 0.8092   -0.578417
 O 0.7449 0.0351 0.8494   -0.334595
 O 0.8364 0.1792 0.8152   -0.606159
 O 0.9565 0.8043 0.8749   -0.645647
 O 0.9651 0.8759 0.9963   -0.269713
 O 0.9123 0.4493 0.1908   -0.676592
 O 0.0118 0.6035 0.2269   -0.656866
 O 0.7307 0.5455 0.6265   -0.37366
 O 0.8707 0.6699 0.6908   -0.578417
 O 0.2551 0.5351 0.6506   -0.334595
 O 0.1636 0.6792 0.6848   -0.606159
 O 0.0435 0.3043 0.6251   -0.645647
 O 0.0349 0.3759 0.5037   -0.269713
 O 0.0877 0.9493 0.3092   -0.676592
 O 0.9882 0.1035 0.2731   -0.656866
 O 0.7307 0.9545 0.1265   -0.37366
 O 0.8707 0.8301 0.1908   -0.578417
 O 0.2551 0.9649 0.1506   -0.334595
 O 0.1636 0.8208 0.1848   -0.60616
 O 0.0435 0.1957 0.1251   -0.645647
 O 0.0349 0.1241 0.0037   -0.269713
 O 0.0877 0.5507 0.8092   -0.676592
 O 0.9882 0.3965 0.7731   -0.656866
 O 0.2693 0.4545 0.3735   -0.37366
 O 0.1293 0.3301 0.3092   -0.578417
 O 0.7449 0.4649 0.3494   -0.334595
 O 0.8364 0.3208 0.3152   -0.60616
 O 0.9565 0.6957 0.3749   -0.645647
 O 0.9651 0.6241 0.4963   -0.269713
 O 0.9123 0.0507 0.6908   -0.676592
 O 0.0118 0.8965 0.7269   -0.656866
