{'_ref': 'TBD', '_srcid': 'CAKYAQ_clean', 'submitters': [{'name': 'Dalar Nazarian Jeff Camp and David Sholl', 'email': 'dalar@gatech.edu jcamp6@gatech.edu'}], '_method': 'VASP DFT with PBE;DDEC'}
data_CaH8Pb(C8O5)2
_symmetry_space_group_name_H-M   'P 1'
_cell_length_a   9.40919960
_cell_length_b   15.65628135
_cell_length_c   15.65629967
_cell_angle_alpha   84.81940160
_cell_angle_beta   72.51290015
_cell_angle_gamma   72.51291492
_symmetry_Int_Tables_number   1
_chemical_formula_structural   CaH8Pb(C8O5)2
_chemical_formula_sum   'Ca4 H32 Pb4 C64 O40'
_cell_volume   2098.12374555
_cell_formula_units_Z   4
loop_
 _symmetry_equiv_pos_site_id
 _symmetry_equiv_pos_as_xyz
  1  'x, y, z'
loop_
 _atom_site_label
 _atom_site_fract_x
 _atom_site_fract_y
 _atom_site_fract_z
 _atom_site_charge
 Ca 0.2669 0.3581 0.8581   1.67063
 Ca 0.4831 0.6419 0.1419   1.670629
 Ca 0.875 0.8581 0.6419   1.670603
 Ca 0.375 0.1419 0.3581   1.670507
 H 0.7635 0.553 0.725   0.407311
 H 0.1382 0.6979 0.6985   0.057622
 H 0.5744 0.714 0.591   0.121606
 H 0.4819 0.5404 0.7922   0.130221
 H 0.0415 0.447 0.275   0.407077
 H 0.5346 0.3021 0.3015   0.058573
 H 0.8794 0.286 0.409   0.120494
 H 0.8145 0.4596 0.2078   0.130583
 H 0.5115 0.725 0.447   0.40672
 H 0.1633 0.6985 0.3021   0.058084
 H 0.8346 0.591 0.286   0.120706
 H 0.7259 0.7922 0.4596   0.13169
 H 0.6835 0.275 0.553   0.407101
 H 0.1639 0.3015 0.6979   0.05814
 H 0.7116 0.409 0.714   0.121161
 H 0.9777 0.2078 0.5404   0.130063
 H 0.9865 0.775 0.947   0.407308
 H 0.6118 0.8015 0.8021   0.057626
 H 0.1756 0.909 0.786   0.121606
 H 0.2681 0.7078 0.9596   0.130217
 H 0.7085 0.225 0.053   0.407077
 H 0.2154 0.1985 0.1979   0.058575
 H 0.8706 0.091 0.214   0.120493
 H 0.9355 0.2922 0.0404   0.130584
 H 0.2385 0.053 0.775   0.406719
 H 0.5867 0.1979 0.8015   0.058083
 H 0.9154 0.214 0.909   0.120707
 H 0.0241 0.0404 0.7078   0.13169
 H 0.0665 0.947 0.225   0.407105
 H 0.5861 0.8021 0.1985   0.058146
 H 0.0384 0.786 0.091   0.121162
 H 0.7723 0.9596 0.2922   0.130064
 Pb 0.875 0.554 0.946   1.135212
 Pb 0.375 0.446 0.054   1.135917
 Pb 0.179 0.946 0.446   1.135536
 Pb 0.571 0.054 0.554   1.135536
 C 0.17793 0.57404 0.8205   0.699893
 C 0.28581 0.79355 0.57735   0.744632
 C 0.45692 0.74558 0.8873   -0.122006
 C 0.24273 0.67904 0.69658   -0.027057
 C 0.34667 0.71742 0.63606   -0.151973
 C 0.5035 0.68938 0.63262   -0.16172
 C 0.55271 0.62377 0.69261   0.363923
 C 0.44815 0.58472 0.75308   -0.18974
 C 0.57247 0.42596 0.1795   0.699702
 C 0.65671 0.20645 0.42265   0.745558
 C 0.0898 0.25442 0.1127   -0.118578
 C 0.61835 0.32096 0.30342   -0.02952
 C 0.70015 0.28258 0.36394   -0.151947
 C 0.8255 0.31062 0.36738   -0.159903
 C 0.86909 0.37623 0.30739   0.364235
 C 0.78595 0.41528 0.24692   -0.19287
 C 0.00157 0.8205 0.42596   0.699969
 C 0.13684 0.57735 0.20645   0.74464
 C 0.65578 0.8873 0.25442   -0.120246
 C 0.06069 0.69658 0.32096   -0.028516
 C 0.01727 0.63606 0.28258   -0.151942
 C 0.86388 0.63262 0.31062   -0.160967
 C 0.75468 0.69261 0.37623   0.36415
 C 0.79877 0.75308 0.41528   -0.193336
 C 0.24803 0.1795 0.57404   0.700344
 C 0.92064 0.42265 0.79355   0.745197
 C 0.7975 0.1127 0.74558   -0.11867
 C 0.07823 0.30342 0.67904   -0.027256
 C 0.93591 0.36394 0.71742   -0.153217
 C 0.80712 0.36738 0.68938   -0.161022
 C 0.82352 0.30739 0.62377   0.363984
 C 0.96713 0.24692 0.58472   -0.190684
 C 0.57207 0.6795 0.92596   0.699895
 C 0.46419 0.92265 0.70645   0.744624
 C 0.29308 0.6127 0.75442   -0.121997
 C 0.50727 0.80342 0.82096   -0.027066
 C 0.40333 0.86394 0.78258   -0.151975
 C 0.2465 0.86738 0.81062   -0.161716
 C 0.19729 0.80739 0.87623   0.363918
 C 0.30185 0.74692 0.91528   -0.189717
 C 0.17753 0.3205 0.07404   0.699706
 C 0.09329 0.07735 0.29355   0.745562
 C 0.6602 0.3873 0.24558   -0.118594
 C 0.13165 0.19658 0.17904   -0.029535
 C 0.04985 0.13606 0.21742   -0.151942
 C 0.9245 0.13262 0.18938   -0.159886
 C 0.88091 0.19261 0.12377   0.364213
 C 0.96405 0.25308 0.08472   -0.192872
 C 0.74843 0.07404 0.6795   0.699967
 C 0.61316 0.29355 0.92265   0.744641
 C 0.09422 0.24558 0.6127   -0.120242
 C 0.68931 0.17904 0.80342   -0.028515
 C 0.73273 0.21742 0.86394   -0.151953
 C 0.88612 0.18938 0.86738   -0.160967
 C 0.99532 0.12377 0.80739   0.364152
 C 0.95123 0.08472 0.74692   -0.19334
 C 0.50197 0.92596 0.3205   0.700349
 C 0.82936 0.70645 0.07735   0.745199
 C 0.9525 0.75442 0.3873   -0.118676
 C 0.67177 0.82096 0.19658   -0.02726
 C 0.81409 0.78258 0.13606   -0.153216
 C 0.94288 0.81062 0.13262   -0.161022
 C 0.92648 0.87623 0.19261   0.363985
 C 0.78287 0.91528 0.25308   -0.190682
 O 0.22496 0.51094 0.87102   -0.781498
 O 0.03643 0.60722 0.82328   -0.540167
 O 0.14123 0.83072 0.59838   -0.802643
 O 0.37867 0.81699 0.51049   -0.577935
 O 0.70486 0.60113 0.69127   -0.573109
 O 0.60692 0.48906 0.12898   -0.781867
 O 0.46693 0.39278 0.17672   -0.541258
 O 0.57033 0.16928 0.40162   -0.802825
 O 0.70615 0.18301 0.48951   -0.578377
 O 0.99726 0.39887 0.30873   -0.572377
 O 0.90402 0.87102 0.48906   -0.782169
 O 0.14029 0.82328 0.39278   -0.540492
 O 0.26039 0.59838 0.16928   -0.802101
 O 0.11084 0.51049 0.18301   -0.578464
 O 0.60387 0.69127 0.39887   -0.572298
 O 0.2641 0.12898 0.51094   -0.78231
 O 0.35635 0.17672 0.60722   -0.540822
 O 0.02805 0.40162 0.83072   -0.801989
 O 0.80434 0.48951 0.81699   -0.579258
 O 0.69401 0.30873 0.60113   -0.572529
 O 0.52504 0.62898 0.98906   -0.781503
 O 0.71357 0.67672 0.89278   -0.540167
 O 0.60877 0.90162 0.66928   -0.802639
 O 0.37133 0.98951 0.68301   -0.577931
 O 0.04514 0.80873 0.89887   -0.573106
 O 0.14308 0.37102 0.01094   -0.78187
 O 0.28307 0.32328 0.10722   -0.541264
 O 0.17967 0.09838 0.33072   -0.802828
 O 0.04385 0.01049 0.31699   -0.578376
 O 0.75274 0.19127 0.10113   -0.572374
 O 0.84598 0.01094 0.62898   -0.782166
 O 0.60971 0.10722 0.67672   -0.540492
 O 0.48961 0.33072 0.90162   -0.802096
 O 0.63916 0.31699 0.98951   -0.578465
 O 0.14613 0.10113 0.80873   -0.572295
 O 0.4859 0.98906 0.37102   -0.782308
 O 0.39365 0.89278 0.32328   -0.540826
 O 0.72195 0.66928 0.09838   -0.801989
 O 0.94566 0.68301 0.01049   -0.579258
 O 0.05599 0.89887 0.19127   -0.572537
