{'_ref': 'TBD', '_srcid': 'CAKYAQ_clean', 'submitters': [{'name': 'Dalar Nazarian Jeff Camp and David Sholl', 'email': 'dalar@gatech.edu jcamp6@gatech.edu'}], '_method': 'VASP DFT with PBE;DDEC'}
data_Zn7H28C44(N9O8)2
_symmetry_space_group_name_H-M   'P 1'
_cell_length_a   9.78099991
_cell_length_b   11.90499973
_cell_length_c   15.22000000
_cell_angle_alpha   96.49999889
_cell_angle_beta   99.07000019
_cell_angle_gamma   112.41000227
_symmetry_Int_Tables_number   1
_chemical_formula_structural   Zn7H28C44(N9O8)2
_chemical_formula_sum   'Zn7 H28 C44 N18 O16'
_cell_volume   1588.51218402
_cell_formula_units_Z   1
loop_
 _symmetry_equiv_pos_site_id
 _symmetry_equiv_pos_as_xyz
  1  'x, y, z'
loop_
 _atom_site_label
 _atom_site_fract_x
 _atom_site_fract_y
 _atom_site_fract_z
 _atom_site_charge
 Zn 0.98873 0.57029 0.29485   0.852744
 Zn 0.89069 0.68827 0.67022   0.820753
 Zn 0.43913 0.60484 0.07046   0.779234
 Zn 0.01127 0.42971 0.70515   0.852743
 Zn 0.10931 0.31173 0.32978   0.820753
 Zn 0.56087 0.39516 0.92954   0.779234
 Zn 0.5 0.5 0.5   1.03754
 H 0.308 0.9987 0.8236   0.103724
 H 0.7231 0.0396 0.9425   0.099049
 H 0.6563 0.8318 0.8958   0.100762
 H 0.4203 0.7081 0.8055   0.076173
 H 0.804 0.0114 0.6651   0.103755
 H 0.4605 0.1139 0.6003   0.09162
 H 0.2915 0.9111 0.5772   0.102597
 H 0.377 0.7556 0.5895   0.079701
 H 0.1725 0.6331 0.1462   0.094759
 H 0.348 0.403 0.2037   0.083623
 H 0.0714 0.6784 0.514   0.104875
 H 0.6874 0.4619 0.3574   0.076068
 H 0.7085 0.6504 0.2354   0.099623
 H 0.8285 0.4305 0.0911   0.096145
 H 0.692 0.0013 0.1764   0.103724
 H 0.2769 0.9604 0.0575   0.099048
 H 0.3437 0.1682 0.1042   0.100761
 H 0.5797 0.2919 0.1945   0.076173
 H 0.196 0.9886 0.3349   0.103755
 H 0.5395 0.8861 0.3997   0.091621
 H 0.7085 0.0889 0.4228   0.102597
 H 0.623 0.2444 0.4105   0.079701
 H 0.8275 0.3669 0.8538   0.094759
 H 0.652 0.597 0.7963   0.083623
 H 0.9286 0.3216 0.486   0.104875
 H 0.3126 0.5381 0.6426   0.076068
 H 0.2915 0.3496 0.7646   0.099624
 H 0.1715 0.5695 0.9089   0.096145
 C 0.3396 0.8407 0.8061   -0.171577
 C 0.379 0.9655 0.8371   0.017417
 C 0.522 0.0409 0.8877   -0.165018
 C 0.6262 0.9897 0.9087   0.007317
 C 0.5869 0.8658 0.8798   -0.117963
 C 0.4449 0.7913 0.8269   -0.018548
 C 0.1871 0.761 0.7479   0.673867
 C 0.5645 0.1754 0.9166   0.672453
 C 0.6001 0.8685 0.6281   -0.206467
 C 0.7011 0.991 0.6454   0.019383
 C 0.6515 0.0843 0.6341   -0.161764
 C 0.4958 0.0526 0.6078   -0.00142
 C 0.395 0.9312 0.593   -0.112512
 C 0.4458 0.8379 0.6015   0.00992
 C 0.6575 0.7695 0.6369   0.709191
 C 0.7616 0.2151 0.6459   0.666219
 C 0.1931 0.5721 0.1712   0.280486
 C 0.2881 0.4478 0.2024   0.25509
 C 0.9685 0.6299 0.4923   0.276851
 C 0.7608 0.5134 0.4078   0.296583
 C 0.7116 0.5959 0.1877   0.24981
 C 0.7764 0.4766 0.1096   0.262691
 C 0.6604 0.1593 0.1939   -0.171577
 C 0.621 0.0345 0.1629   0.017417
 C 0.478 0.9591 0.1123   -0.165019
 C 0.3738 0.0103 0.0913   0.007317
 C 0.4131 0.1342 0.1202   -0.117963
 C 0.5551 0.2087 0.1731   -0.018548
 C 0.8129 0.239 0.2521   0.673867
 C 0.4355 0.8246 0.0834   0.672453
 C 0.3999 0.1315 0.3719   -0.206467
 C 0.2989 0.009 0.3546   0.019383
 C 0.3485 0.9157 0.3659   -0.161764
 C 0.5042 0.9474 0.3922   -0.00142
 C 0.605 0.0688 0.407   -0.112512
 C 0.5542 0.1621 0.3985   0.00992
 C 0.3425 0.2305 0.3631   0.709191
 C 0.2384 0.7849 0.3541   0.666219
 C 0.8069 0.4279 0.8288   0.280486
 C 0.7119 0.5522 0.7976   0.25509
 C 0.0315 0.3701 0.5077   0.27685
 C 0.2392 0.4866 0.5922   0.296583
 C 0.2884 0.4041 0.8123   0.24981
 C 0.2236 0.5234 0.8904   0.262691
 N 0.1834 0.4321 0.2497   -0.256347
 N 0.1212 0.5139 0.2285   -0.231925
 N 0.2999 0.5347 0.1521   -0.437869
 N 0.8668 0.6147 0.5418   -0.2313
 N 0.7299 0.5391 0.4857   -0.315744
 N 0.9075 0.5677 0.4072   -0.416522
 N 0.8161 0.5492 0.1911   -0.403813
 N 0.655 0.4777 0.0582   -0.254087
 N 0.6121 0.5557 0.1084   -0.251082
 N 0.8166 0.5679 0.7503   -0.256347
 N 0.8788 0.4861 0.7715   -0.231925
 N 0.7001 0.4653 0.8479   -0.437869
 N 0.1332 0.3853 0.4582   -0.2313
 N 0.2701 0.4609 0.5143   -0.315744
 N 0.0925 0.4323 0.5928   -0.416522
 N 0.1839 0.4508 0.8089   -0.403813
 N 0.345 0.5223 0.9418   -0.254087
 N 0.3879 0.4443 0.8916   -0.251082
 O 0.1538 0.6512 0.7182   -0.640121
 O 0.094 0.812 0.7304   -0.580079
 O 0.4631 0.2159 0.8943   -0.612347
 O 0.6941 0.2454 0.9574   -0.60849
 O 0.5709 0.6582 0.6148   -0.67972
 O 0.7985 0.807 0.6687   -0.546442
 O 0.893 0.2449 0.6958   -0.628806
 O 0.7276 0.2904 0.6079   -0.631291
 O 0.8462 0.3488 0.2818   -0.640121
 O 0.906 0.188 0.2696   -0.580079
 O 0.5369 0.7841 0.1057   -0.612347
 O 0.3059 0.7546 0.0426   -0.60849
 O 0.4291 0.3418 0.3852   -0.67972
 O 0.2015 0.193 0.3313   -0.546442
 O 0.107 0.7551 0.3042   -0.628806
 O 0.2724 0.7096 0.3921   -0.631291
