{'_ref': 'TBD', '_srcid': 'CAKYAQ_clean', 'submitters': [{'name': 'Dalar Nazarian Jeff Camp and David Sholl', 'email': 'dalar@gatech.edu jcamp6@gatech.edu'}], '_method': 'VASP DFT with PBE;DDEC'}
data_Zn5H14C26(NO)12
_symmetry_space_group_name_H-M   'P 1'
_cell_length_a   12.83770052
_cell_length_b   12.83770011
_cell_length_c   19.04570000
_cell_angle_alpha   83.77659805
_cell_angle_beta   83.77659825
_cell_angle_gamma   68.74459818
_symmetry_Int_Tables_number   1
_chemical_formula_structural   Zn5H14C26(NO)12
_chemical_formula_sum   'Zn10 H28 C52 N24 O24'
_cell_volume   2899.99069627
_cell_formula_units_Z   2
loop_
 _symmetry_equiv_pos_site_id
 _symmetry_equiv_pos_as_xyz
  1  'x, y, z'
loop_
 _atom_site_label
 _atom_site_fract_x
 _atom_site_fract_y
 _atom_site_fract_z
 _atom_site_charge
 Zn 0.72382 0.9357 0.77443   0.85821
 Zn 0.10791 0.71295 0.56022   0.990927
 Zn 0.0643 0.27618 0.72557   0.85821
 Zn 0.28705 0.89209 0.93978   0.990927
 Zn 0.27618 0.0643 0.22557   0.85821
 Zn 0.89209 0.28705 0.43978   0.990927
 Zn 0.9357 0.72382 0.27443   0.85821
 Zn 0.71295 0.10791 0.06022   0.990927
 Zn 0.89308 0.10692 0.75   0.763263
 Zn 0.10692 0.89308 0.25   0.763263
 H 0.6483 0.3203 0.623   0.092069
 H 0.513 0.4672 0.567   0.114882
 H 0.4134 0.199 0.7108   0.095376
 H 0.8554 0.1478 0.9174   0.089239
 H 0.6701 0.9641 0.9453   0.105284
 H 0.0778 0.9274 0.6442   0.09369
 H 0.8805 0.7565 0.6624   0.110247
 H 0.6797 0.3517 0.877   0.092069
 H 0.5328 0.487 0.933   0.114882
 H 0.801 0.5866 0.7892   0.095376
 H 0.8522 0.1446 0.5826   0.089239
 H 0.0359 0.3299 0.5547   0.105284
 H 0.0726 0.9222 0.8558   0.09369
 H 0.2435 0.1195 0.8376   0.110247
 H 0.3517 0.6797 0.377   0.092069
 H 0.487 0.5328 0.433   0.114882
 H 0.5866 0.801 0.2892   0.095376
 H 0.1446 0.8522 0.0826   0.089239
 H 0.3299 0.0359 0.0547   0.105286
 H 0.9222 0.0726 0.3558   0.09369
 H 0.1195 0.2435 0.3376   0.110247
 H 0.3203 0.6483 0.123   0.092069
 H 0.4672 0.513 0.067   0.114882
 H 0.199 0.4134 0.2108   0.095376
 H 0.1478 0.8554 0.4174   0.089239
 H 0.9641 0.6701 0.4453   0.105286
 H 0.9274 0.0778 0.1442   0.09369
 H 0.7565 0.8805 0.1624   0.110248
 C 0.63418 0.14512 0.7053   0.682582
 C 0.54502 0.24306 0.6716   -0.17209
 C 0.57388 0.32508 0.62901   -0.02379
 C 0.49275 0.41315 0.59572   -0.109777
 C 0.38072 0.42206 0.60456   -0.007338
 C 0.35044 0.34246 0.64902   -0.144937
 C 0.43329 0.25287 0.68176   0.003565
 C 0.29551 0.52093 0.56758   0.686492
 C 0.23147 0.34641 0.66002   0.689889
 C 0.81778 0.10102 0.90937   0.26615
 C 0.7173 0.00116 0.92468   0.306141
 C 0.01816 0.90316 0.65815   0.24727
 C 0.91113 0.81029 0.66788   0.284783
 C 0.85488 0.36582 0.7947   0.682582
 C 0.75694 0.45498 0.8284   -0.17209
 C 0.67492 0.42612 0.87099   -0.02379
 C 0.58685 0.50725 0.90428   -0.109776
 C 0.57794 0.61928 0.89544   -0.007338
 C 0.65754 0.64956 0.85098   -0.144937
 C 0.74713 0.56671 0.81824   0.003565
 C 0.47907 0.70449 0.93242   0.686492
 C 0.65359 0.76853 0.83998   0.689889
 C 0.89898 0.18222 0.59063   0.26615
 C 0.99884 0.2827 0.57532   0.30614
 C 0.09684 0.98184 0.84185   0.247271
 C 0.18971 0.08887 0.83212   0.284783
 C 0.36582 0.85488 0.2947   0.682582
 C 0.45498 0.75694 0.3284   -0.17209
 C 0.42612 0.67492 0.37099   -0.02379
 C 0.50725 0.58685 0.40428   -0.109777
 C 0.61928 0.57794 0.39544   -0.007338
 C 0.64956 0.65754 0.35098   -0.144937
 C 0.56671 0.74713 0.31824   0.003564
 C 0.70449 0.47907 0.43242   0.686492
 C 0.76853 0.65359 0.33998   0.689889
 C 0.18222 0.89898 0.09063   0.26615
 C 0.2827 0.99884 0.07532   0.30614
 C 0.98184 0.09684 0.34185   0.24727
 C 0.08887 0.18971 0.33212   0.284783
 C 0.14512 0.63418 0.2053   0.682582
 C 0.24306 0.54502 0.1716   -0.17209
 C 0.32508 0.57388 0.12901   -0.02379
 C 0.41315 0.49275 0.09572   -0.109776
 C 0.42206 0.38072 0.10456   -0.007338
 C 0.34246 0.35044 0.14902   -0.144937
 C 0.25287 0.43329 0.18176   0.003564
 C 0.52093 0.29551 0.06758   0.686492
 C 0.34641 0.23147 0.16002   0.689889
 C 0.10102 0.81778 0.40937   0.26615
 C 0.00116 0.7173 0.42468   0.30614
 C 0.90316 0.01816 0.15815   0.247271
 C 0.81029 0.91113 0.16788   0.284783
 N 0.82058 0.06352 0.84724   -0.208895
 N 0.75523 0.99787 0.85775   -0.259391
 N 0.75465 0.06449 0.95999   -0.52213
 N 0.93579 0.95213 0.7047   -0.24385
 N 0.86586 0.89172 0.71085   -0.238213
 N 0.00676 0.81402 0.63287   -0.500431
 N 0.93648 0.17942 0.65276   -0.208895
 N 0.00213 0.24477 0.64225   -0.259391
 N 0.93551 0.24535 0.54001   -0.52213
 N 0.04787 0.06421 0.7953   -0.243851
 N 0.10828 0.13414 0.78915   -0.238212
 N 0.18598 0.99324 0.86713   -0.500431
 N 0.17942 0.93648 0.15276   -0.208895
 N 0.24477 0.00213 0.14225   -0.259391
 N 0.24535 0.93551 0.04001   -0.52213
 N 0.06421 0.04787 0.2953   -0.24385
 N 0.13414 0.10828 0.28915   -0.238213
 N 0.99324 0.18598 0.36713   -0.500431
 N 0.06352 0.82058 0.34724   -0.208895
 N 0.99787 0.75523 0.35775   -0.25939
 N 0.06449 0.75465 0.45999   -0.52213
 N 0.95213 0.93579 0.2047   -0.243851
 N 0.89172 0.86586 0.21085   -0.238212
 N 0.81402 0.00676 0.13287   -0.500431
 O 0.7274 0.15154 0.70886   -0.597056
 O 0.60699 0.05997 0.72772   -0.593407
 O 0.23286 0.59614 0.60641   -0.63656
 O 0.29329 0.52513 0.50279   -0.592852
 O 0.16561 0.39267 0.6142   -0.620974
 O 0.20721 0.29665 0.71722   -0.626737
 O 0.84846 0.2726 0.79114   -0.597056
 O 0.94003 0.39301 0.77228   -0.593407
 O 0.40386 0.76714 0.89359   -0.63656
 O 0.47487 0.70671 0.99721   -0.592852
 O 0.60733 0.83439 0.8858   -0.620974
 O 0.70335 0.79279 0.78278   -0.626737
 O 0.2726 0.84846 0.29114   -0.597056
 O 0.39301 0.94003 0.27228   -0.593407
 O 0.76714 0.40386 0.39359   -0.63656
 O 0.70671 0.47487 0.49721   -0.592852
 O 0.83439 0.60733 0.3858   -0.620974
 O 0.79279 0.70335 0.28278   -0.626737
 O 0.15154 0.7274 0.20886   -0.597056
 O 0.05997 0.60699 0.22772   -0.593407
 O 0.59614 0.23286 0.10641   -0.63656
 O 0.52513 0.29329 0.00279   -0.592852
 O 0.39267 0.16561 0.1142   -0.620974
 O 0.29665 0.20721 0.21722   -0.626737
