{'_ref': 'TBD', '_srcid': 'CAKYAQ_clean', 'submitters': [{'name': 'Dalar Nazarian Jeff Camp and David Sholl', 'email': 'dalar@gatech.edu jcamp6@gatech.edu'}], '_method': 'VASP DFT with PBE;DDEC'}
data_YH6(C2O)6
_symmetry_space_group_name_H-M   'P 1'
_cell_length_a   9.81960044
_cell_length_b   10.34209996
_cell_length_c   11.01330000
_cell_angle_alpha   77.27800103
_cell_angle_beta   76.39799852
_cell_angle_gamma   65.79299846
_symmetry_Int_Tables_number   1
_chemical_formula_structural   YH6(C2O)6
_chemical_formula_sum   'Y2 H12 C24 O12'
_cell_volume   981.78690203
_cell_formula_units_Z   2
loop_
 _symmetry_equiv_pos_site_id
 _symmetry_equiv_pos_as_xyz
  1  'x, y, z'
loop_
 _atom_site_label
 _atom_site_fract_x
 _atom_site_fract_y
 _atom_site_fract_z
 _atom_site_charge
 Y 0.94387 0.22767 0.82406   2.02802
 Y 0.05613 0.77233 0.17594   2.028015
 H 0.6497 0.8597 0.1516   0.096085
 H 0.5993 0.1178 0.8193   0.109923
 H 0.4345 0.4163 0.7095   0.10702
 H 0.7417 0.5001 0.4235   0.117351
 H 0.3091 0.9212 0.5039   0.115062
 H 0.4531 0.187 0.6074   0.086969
 H 0.3503 0.1403 0.8484   0.096085
 H 0.4007 0.8822 0.1807   0.109922
 H 0.5655 0.5837 0.2905   0.10702
 H 0.2583 0.4999 0.5765   0.117351
 H 0.6909 0.0788 0.4961   0.115062
 H 0.5469 0.813 0.3926   0.086969
 C 0.6495 0.9866 0.9822   -0.167093
 C 0.5895 0.9158 0.0911   -0.040757
 C 0.5592 0.0707 0.8916   -0.032002
 C 0.8089 0.977 0.9667   0.80553
 C 0.6076 0.4485 0.5806   -0.109198
 C 0.4606 0.4498 0.6253   -0.066651
 C 0.645 0.4999 0.4542   -0.048153
 C 0.7228 0.3894 0.6666   0.68114
 C 0.3558 0.066 0.5672   -0.110713
 C 0.3855 0.9529 0.5023   -0.060896
 C 0.4719 0.1121 0.5642   -0.061058
 C 0.2039 0.1326 0.646   0.676568
 C 0.3505 0.0134 0.0178   -0.167096
 C 0.4105 0.0842 0.9089   -0.040747
 C 0.4408 0.9293 0.1084   -0.031993
 C 0.1911 0.023 0.0333   0.80553
 C 0.3924 0.5515 0.4194   -0.109199
 C 0.5394 0.5502 0.3747   -0.06665
 C 0.355 0.5001 0.5458   -0.048153
 C 0.2772 0.6106 0.3334   0.681139
 C 0.6442 0.934 0.4328   -0.110713
 C 0.6145 0.0471 0.4977   -0.060898
 C 0.5281 0.8879 0.4358   -0.061058
 C 0.7961 0.8674 0.354   0.676568
 O 0.8579 0.0464 0.8704   -0.678541
 O 0.8843 0.8997 0.052   -0.776226
 O 0.8585 0.3751 0.6249   -0.652072
 O 0.6841 0.3498 0.7821   -0.725124
 O 0.1699 0.2497 0.684   -0.653453
 O 0.1153 0.0647 0.6775   -0.641735
 O 0.1421 0.9536 0.1296   -0.67854
 O 0.1157 0.1003 0.948   -0.776227
 O 0.1415 0.6249 0.3751   -0.652071
 O 0.3159 0.6502 0.2179   -0.725123
 O 0.8301 0.7503 0.316   -0.653453
 O 0.8847 0.9353 0.3225   -0.641735
