{'_ref': 'TBD', '_srcid': 'CAKYAQ_clean', 'submitters': [{'name': 'Dalar Nazarian Jeff Camp and David Sholl', 'email': 'dalar@gatech.edu jcamp6@gatech.edu'}], '_method': 'VASP DFT with PBE;DDEC'}
data_YH6(C2O)6
_symmetry_space_group_name_H-M   'P 1'
_cell_length_a   9.62920000
_cell_length_b   11.10060020
_cell_length_c   16.02630000
_cell_angle_alpha   91.06599958
_cell_angle_beta   90.00000000
_cell_angle_gamma   90.00000000
_symmetry_Int_Tables_number   1
_chemical_formula_structural   YH6(C2O)6
_chemical_formula_sum   'Y4 H24 C48 O24'
_cell_volume   1712.75311504
_cell_formula_units_Z   4
loop_
 _symmetry_equiv_pos_site_id
 _symmetry_equiv_pos_as_xyz
  1  'x, y, z'
loop_
 _atom_site_label
 _atom_site_fract_x
 _atom_site_fract_y
 _atom_site_fract_z
 _atom_site_charge
 Y 0.78942 0.50488 0.00966   2.072673
 Y 0.28942 0.99512 0.49034   2.072673
 Y 0.21058 0.49512 0.99034   2.072672
 Y 0.71058 0.00488 0.50966   2.072672
 H 0.1618 0.3702 0.772   0.081652
 H 0.1862 0.2525 0.6528   0.100259
 H 0.7805 0.2824 0.6073   0.08855
 H 0.754 0.3993 0.727   0.107772
 H 0.2028 0.1024 0.0326   0.112669
 H 0.7931 0.1047 0.9845   0.10866
 H 0.6618 0.1298 0.728   0.081653
 H 0.6862 0.2475 0.8472   0.100259
 H 0.2805 0.2176 0.8927   0.08855
 H 0.254 0.1007 0.773   0.107772
 H 0.7028 0.3976 0.4674   0.112669
 H 0.2931 0.3953 0.5155   0.10866
 H 0.8382 0.6298 0.228   0.081652
 H 0.8138 0.7475 0.3472   0.100259
 H 0.2195 0.7176 0.3927   0.08855
 H 0.246 0.6007 0.273   0.107772
 H 0.7972 0.8976 0.9674   0.112669
 H 0.2069 0.8953 0.0155   0.10866
 H 0.3382 0.8702 0.272   0.081653
 H 0.3138 0.7525 0.1528   0.100259
 H 0.7195 0.7824 0.1073   0.08855
 H 0.746 0.8993 0.227   0.107772
 H 0.2972 0.6024 0.5326   0.112669
 H 0.7069 0.6047 0.4845   0.10866
 C 0.9548 0.3927 0.7644   -0.142091
 C 0.0841 0.3509 0.74   -0.047222
 C 0.0988 0.2808 0.6684   -0.037189
 C 0.9842 0.2524 0.6196   -0.151747
 C 0.857 0.2984 0.6412   -0.063322
 C 0.8409 0.3684 0.713   -0.040379
 C 0.9309 0.4535 0.848   0.75559
 C 0.9983 0.1651 0.5467   0.783658
 C 0.9986 0.1249 0.0094   -0.142119
 C 0.1214 0.0612 0.0193   -0.060712
 C 0.876 0.0628 0.9905   -0.057306
 C 0.9987 0.2604 0.0189   0.764434
 C 0.4548 0.1073 0.7356   -0.142091
 C 0.5841 0.1491 0.76   -0.047222
 C 0.5988 0.2192 0.8316   -0.037189
 C 0.4842 0.2476 0.8804   -0.151747
 C 0.357 0.2016 0.8588   -0.063322
 C 0.3409 0.1316 0.787   -0.040379
 C 0.4309 0.0465 0.652   0.75559
 C 0.4983 0.3349 0.9533   0.783658
 C 0.4986 0.3751 0.4906   -0.142119
 C 0.6214 0.4388 0.4807   -0.060712
 C 0.376 0.4372 0.5095   -0.057306
 C 0.4987 0.2396 0.4811   0.764434
 C 0.0452 0.6073 0.2356   -0.142091
 C 0.9159 0.6491 0.26   -0.047222
 C 0.9012 0.7192 0.3316   -0.037189
 C 0.0158 0.7476 0.3804   -0.151747
 C 0.143 0.7016 0.3588   -0.063322
 C 0.1591 0.6316 0.287   -0.040379
 C 0.0691 0.5465 0.152   0.755589
 C 0.0017 0.8349 0.4533   0.783658
 C 0.0014 0.8751 0.9906   -0.142121
 C 0.8786 0.9388 0.9807   -0.060707
 C 0.124 0.9372 0.0095   -0.057301
 C 0.0013 0.7396 0.9811   0.764434
 C 0.5452 0.8927 0.2644   -0.142091
 C 0.4159 0.8509 0.24   -0.047222
 C 0.4012 0.7808 0.1684   -0.037189
 C 0.5158 0.7524 0.1196   -0.151747
 C 0.643 0.7984 0.1412   -0.063322
 C 0.6591 0.8684 0.213   -0.040379
 C 0.5691 0.9535 0.348   0.755589
 C 0.5017 0.6651 0.0467   0.783658
 C 0.5014 0.6249 0.5094   -0.142121
 C 0.3786 0.5612 0.5193   -0.060707
 C 0.624 0.5628 0.4905   -0.057301
 C 0.5013 0.7604 0.5189   0.764434
 O 0.8104 0.4875 0.8653   -0.625932
 O 0.0297 0.4628 0.8987   -0.789501
 O 0.8912 0.136 0.5075   -0.712405
 O 0.1171 0.1266 0.5302   -0.70374
 O 0.8806 0.3117 0.021   -0.72047
 O 0.1133 0.3117 0.0221   -0.681787
 O 0.3104 0.0125 0.6347   -0.625932
 O 0.5297 0.0372 0.6013   -0.789501
 O 0.3912 0.364 0.9925   -0.712405
 O 0.6171 0.3734 0.9698   -0.70374
 O 0.3806 0.1883 0.479   -0.72047
 O 0.6133 0.1883 0.4779   -0.681787
 O 0.1896 0.5125 0.1347   -0.625932
 O 0.9703 0.5372 0.1013   -0.789501
 O 0.1088 0.864 0.4925   -0.712405
 O 0.8829 0.8734 0.4698   -0.70374
 O 0.1194 0.6883 0.979   -0.72047
 O 0.8867 0.6883 0.9779   -0.681787
 O 0.6896 0.9875 0.3653   -0.625932
 O 0.4703 0.9628 0.3987   -0.789501
 O 0.6088 0.636 0.0075   -0.712405
 O 0.3829 0.6266 0.0302   -0.70374
 O 0.6194 0.8117 0.521   -0.72047
 O 0.3867 0.8117 0.5221   -0.681787
