{'_ref': 'TBD', '_srcid': 'CAKYAQ_clean', 'submitters': [{'name': 'Dalar Nazarian Jeff Camp and David Sholl', 'email': 'dalar@gatech.edu jcamp6@gatech.edu'}], '_method': 'VASP DFT with PBE;DDEC'}
data_YH6(C2O)6
_symmetry_space_group_name_H-M   'P 1'
_cell_length_a   9.36590001
_cell_length_b   10.56620025
_cell_length_c   11.07810000
_cell_angle_alpha   98.84100233
_cell_angle_beta   112.93700137
_cell_angle_gamma   113.84400002
_symmetry_Int_Tables_number   1
_chemical_formula_structural   YH6(C2O)6
_chemical_formula_sum   'Y2 H12 C24 O12'
_cell_volume   858.107322261
_cell_formula_units_Z   2
loop_
 _symmetry_equiv_pos_site_id
 _symmetry_equiv_pos_as_xyz
  1  'x, y, z'
loop_
 _atom_site_label
 _atom_site_fract_x
 _atom_site_fract_y
 _atom_site_fract_z
 _atom_site_charge
 Y 0.30239 0.9895 0.02367   2.086171
 Y 0.69761 0.0105 0.97633   2.086173
 H 0.7894 0.3599 0.9929   0.079164
 H 0.951 0.5992 0.0091   0.086034
 H 0.4941 0.5976 0.7959   0.098053
 H 0.3326 0.3646 0.7959   0.108736
 H 0.909 0.6071 0.6311   0.112662
 H 0.3008 0.6119 0.563   0.10897
 H 0.2106 0.6401 0.0071   0.079163
 H 0.049 0.4008 0.9909   0.086033
 H 0.5059 0.4024 0.2041   0.098053
 H 0.6674 0.6354 0.2041   0.108736
 H 0.091 0.3929 0.3689   0.11266
 H 0.6992 0.3881 0.437   0.108967
 C 0.5438 0.3374 0.8944   -0.14584
 C 0.7295 0.4084 0.9558   -0.051243
 C 0.8258 0.55 0.9621   -0.043546
 C 0.7379 0.6202 0.8992   -0.143028
 C 0.5539 0.5506 0.8372   -0.041845
 C 0.4571 0.4103 0.8362   -0.04423
 C 0.4426 0.1902 0.9043   0.732095
 C 0.8477 0.7761 0.9083   0.815772
 C 0.1266 0.63 0.6184   -0.142994
 C 0.9459 0.5638 0.5789   -0.056082
 C 0.1799 0.5666 0.5381   -0.059792
 C 0.2627 0.7712 0.7457   0.76118
 C 0.4562 0.6626 0.1056   -0.14584
 C 0.2705 0.5916 0.0442   -0.051244
 C 0.1742 0.45 0.0379   -0.043546
 C 0.2621 0.3798 0.1008   -0.143028
 C 0.4461 0.4494 0.1628   -0.041845
 C 0.5429 0.5897 0.1638   -0.04423
 C 0.5574 0.8098 0.0957   0.732095
 C 0.1523 0.2239 0.0917   0.815772
 C 0.8734 0.37 0.3816   -0.142994
 C 0.0541 0.4362 0.4211   -0.056084
 C 0.8201 0.4334 0.4619   -0.059793
 C 0.7373 0.2288 0.2543   0.76118
 O 0.5245 0.1207 0.9437   -0.818969
 O 0.2885 0.1453 0.8847   -0.595748
 O 0.0055 0.8215 0.9351   -0.724044
 O 0.7736 0.8532 0.8854   -0.730528
 O 0.2001 0.8284 0.8049   -0.687036
 O 0.4253 0.8197 0.7851   -0.703907
 O 0.4755 0.8793 0.0563   -0.818969
 O 0.7115 0.8547 0.1153   -0.595749
 O 0.9945 0.1785 0.0649   -0.724045
 O 0.2264 0.1468 0.1146   -0.730528
 O 0.7999 0.1716 0.1951   -0.687036
 O 0.5747 0.1803 0.2149   -0.703906
