{'_ref': 'TBD', '_srcid': 'CAKYAQ_clean', 'submitters': [{'name': 'Dalar Nazarian Jeff Camp and David Sholl', 'email': 'dalar@gatech.edu jcamp6@gatech.edu'}], '_method': 'VASP DFT with PBE;DDEC'}
data_GdH6(C2O)6
_symmetry_space_group_name_H-M   'P 1'
_cell_length_a   9.87389994
_cell_length_b   10.47669985
_cell_length_c   11.07350000
_cell_angle_alpha   77.22999735
_cell_angle_beta   76.42100023
_cell_angle_gamma   66.16600186
_symmetry_Int_Tables_number   1
_chemical_formula_structural   GdH6(C2O)6
_chemical_formula_sum   'Gd2 H12 C24 O12'
_cell_volume   1008.22420112
_cell_formula_units_Z   2
loop_
 _symmetry_equiv_pos_site_id
 _symmetry_equiv_pos_as_xyz
  1  'x, y, z'
loop_
 _atom_site_label
 _atom_site_fract_x
 _atom_site_fract_y
 _atom_site_fract_z
 _atom_site_charge
 Gd 0.94445 0.2275 0.82279   2.110002
 Gd 0.05555 0.7725 0.17721   2.109999
 H 0.6483 0.8607 0.1503   0.098875
 H 0.5999 0.1168 0.8216   0.110115
 H 0.4358 0.4145 0.7076   0.108668
 H 0.7378 0.5028 0.4251   0.1174
 H 0.31 0.9215 0.506   0.115981
 H 0.455 0.1836 0.6062   0.088396
 H 0.3517 0.1393 0.8497   0.098875
 H 0.4001 0.8832 0.1784   0.110114
 H 0.5642 0.5855 0.2924   0.108668
 H 0.2622 0.4972 0.5749   0.1174
 H 0.69 0.0785 0.494   0.115981
 H 0.545 0.8164 0.3938   0.088396
 C 0.6484 0.9863 0.9824   -0.163557
 C 0.5888 0.9163 0.0901   -0.042377
 C 0.5597 0.0699 0.8931   -0.033856
 C 0.8084 0.9755 0.9661   0.825845
 C 0.6071 0.4486 0.5801   -0.104041
 C 0.4619 0.4486 0.6241   -0.067899
 C 0.6422 0.5013 0.4554   -0.051596
 C 0.7209 0.3897 0.6654   0.688941
 C 0.3573 0.0652 0.5667   -0.104783
 C 0.386 0.9535 0.5034   -0.064037
 C 0.4728 0.11 0.5632   -0.059615
 C 0.2067 0.1302 0.6442   0.681307
 C 0.3516 0.0137 0.0176   -0.163559
 C 0.4112 0.0837 0.9099   -0.042371
 C 0.4403 0.9301 0.1069   -0.033851
 C 0.1916 0.0245 0.0339   0.825845
 C 0.3929 0.5514 0.4199   -0.104042
 C 0.5381 0.5514 0.3759   -0.067895
 C 0.3578 0.4987 0.5446   -0.051592
 C 0.2791 0.6103 0.3346   0.688941
 C 0.6427 0.9348 0.4333   -0.104783
 C 0.614 0.0465 0.4966   -0.064034
 C 0.5272 0.89 0.4368   -0.059611
 C 0.7933 0.8698 0.3558   0.681307
 O 0.8564 0.0457 0.8713   -0.708705
 O 0.8827 0.8971 0.0498   -0.81005
 O 0.8547 0.3784 0.624   -0.669074
 O 0.6831 0.3492 0.7797   -0.742459
 O 0.1723 0.2469 0.6804   -0.671243
 O 0.1181 0.064 0.6763   -0.652248
 O 0.1436 0.9543 0.1287   -0.708705
 O 0.1173 0.1029 0.9502   -0.81005
 O 0.1453 0.6216 0.376   -0.669074
 O 0.3169 0.6508 0.2203   -0.742459
 O 0.8277 0.7531 0.3196   -0.671243
 O 0.8819 0.936 0.3237   -0.652248
