{'_ref': 'TBD', '_srcid': 'CAKYAQ_clean', 'submitters': [{'name': 'Dalar Nazarian Jeff Camp and David Sholl', 'email': 'dalar@gatech.edu jcamp6@gatech.edu'}], '_method': 'VASP DFT with PBE;DDEC'}
data_YH4(C3O2)3
_symmetry_space_group_name_H-M   'P 1'
_cell_length_a   9.65200000
_cell_length_b   14.06700023
_cell_length_c   16.21200000
_cell_angle_alpha   90.00000000
_cell_angle_beta   90.00000000
_cell_angle_gamma   106.57999819
_symmetry_Int_Tables_number   1
_chemical_formula_structural   YH4(C3O2)3
_chemical_formula_sum   'Y4 H16 C36 O24'
_cell_volume   2109.65913222
_cell_formula_units_Z   4
loop_
 _symmetry_equiv_pos_site_id
 _symmetry_equiv_pos_as_xyz
  1  'x, y, z'
loop_
 _atom_site_label
 _atom_site_fract_x
 _atom_site_fract_y
 _atom_site_fract_z
 _atom_site_charge
 Y 0.82691 0.55258 0.01748   2.024259
 Y 0.67309 0.94742 0.51748   2.024259
 Y 0.17309 0.44742 0.98252   2.024259
 Y 0.32691 0.05258 0.48252   2.024259
 H 0.2972 0.6339 0.806   0.103575
 H 0.4139 0.729 0.7009   0.100707
 H 0.1075 0.869 0.6904   0.102463
 H 0.9947 0.7788 0.7999   0.110356
 H 0.2028 0.8661 0.306   0.103575
 H 0.0861 0.771 0.2009   0.100707
 H 0.3925 0.631 0.1904   0.102463
 H 0.5053 0.7212 0.2999   0.110356
 H 0.7028 0.3661 0.194   0.103575
 H 0.5861 0.271 0.2991   0.100707
 H 0.8925 0.131 0.3096   0.102463
 H 0.0053 0.2212 0.2001   0.110356
 H 0.7972 0.1339 0.694   0.103575
 H 0.9139 0.229 0.7991   0.100707
 H 0.6075 0.369 0.8096   0.102463
 H 0.4947 0.2788 0.7001   0.110356
 C 0.1355 0.6965 0.8152   -0.131819
 C 0.26 0.6826 0.7838   -0.050679
 C 0.329 0.7388 0.7212   -0.033348
 C 0.276 0.8115 0.6859   -0.159492
 C 0.147 0.8232 0.7152   -0.053084
 C 0.079 0.7687 0.7793   -0.060156
 C 0.055 0.6331 0.8896   0.751137
 C 0.35 0.8761 0.6136   0.784153
 C 0.5088 0.5346 0.9633   0.537165
 C 0.3645 0.8035 0.3152   -0.131819
 C 0.24 0.8174 0.2838   -0.050679
 C 0.171 0.7612 0.2212   -0.033348
 C 0.224 0.6885 0.1859   -0.159492
 C 0.353 0.6768 0.2152   -0.053084
 C 0.421 0.7313 0.2793   -0.060156
 C 0.445 0.8669 0.3896   0.751137
 C 0.15 0.6239 0.1136   0.784153
 C 0.9912 0.9654 0.4633   0.537165
 C 0.8645 0.3035 0.1848   -0.131819
 C 0.74 0.3174 0.2162   -0.050678
 C 0.671 0.2612 0.2788   -0.033348
 C 0.724 0.1885 0.3141   -0.159492
 C 0.853 0.1768 0.2848   -0.053084
 C 0.921 0.2313 0.2207   -0.060155
 C 0.945 0.3669 0.1104   0.751137
 C 0.65 0.1239 0.3864   0.784153
 C 0.4912 0.4654 0.0367   0.537163
 C 0.6355 0.1965 0.6848   -0.131818
 C 0.76 0.1826 0.7162   -0.050678
 C 0.829 0.2388 0.7788   -0.033348
 C 0.776 0.3115 0.8141   -0.159491
 C 0.647 0.3232 0.7848   -0.053084
 C 0.579 0.2687 0.7207   -0.060155
 C 0.555 0.1331 0.6104   0.751137
 C 0.85 0.3761 0.8864   0.784153
 C 0.0088 0.0346 0.5367   0.537163
 O 0.9465 0.6577 0.9144   -0.665805
 O 0.1043 0.5686 0.9145   -0.721229
 O 0.2934 0.9344 0.5836   -0.658739
 O 0.4732 0.8619 0.5923   -0.767824
 O 0.3939 0.5447 0.9305   -0.622155
 O 0.6344 0.5781 0.9402   -0.589487
 O 0.5535 0.8423 0.4144   -0.665805
 O 0.3957 0.9314 0.4145   -0.72123
 O 0.2066 0.5656 0.0836   -0.658739
 O 0.0268 0.6381 0.0923   -0.767824
 O 0.1061 0.9553 0.4305   -0.622155
 O 0.8656 0.9219 0.4402   -0.589487
 O 0.0535 0.3423 0.0856   -0.665805
 O 0.8957 0.4314 0.0855   -0.72123
 O 0.7066 0.0656 0.4164   -0.658739
 O 0.5268 0.1381 0.4077   -0.767824
 O 0.6061 0.4553 0.0695   -0.622154
 O 0.3656 0.4219 0.0598   -0.589486
 O 0.4465 0.1577 0.5856   -0.665805
 O 0.6043 0.0686 0.5855   -0.72123
 O 0.7934 0.4344 0.9164   -0.658739
 O 0.9732 0.3619 0.9077   -0.767824
 O 0.8939 0.0447 0.5695   -0.622154
 O 0.1344 0.0781 0.5598   -0.589486
