{'_ref': 'TBD', '_srcid': 'CAKYAQ_clean', 'submitters': [{'name': 'Dalar Nazarian Jeff Camp and David Sholl', 'email': 'dalar@gatech.edu jcamp6@gatech.edu'}], '_method': 'VASP DFT with PBE;DDEC'}
data_TiH4C4NO8
_symmetry_space_group_name_H-M   'P 1'
_cell_length_a   8.93500000
_cell_length_b   8.93500001
_cell_length_c   10.87800000
_cell_angle_alpha   90.00000000
_cell_angle_beta   90.00000000
_cell_angle_gamma   119.99999994
_symmetry_Int_Tables_number   1
_chemical_formula_structural   TiH4C4NO8
_chemical_formula_sum   'Ti3 H12 C12 N3 O24'
_cell_volume   752.088245059
_cell_formula_units_Z   3
loop_
 _symmetry_equiv_pos_site_id
 _symmetry_equiv_pos_as_xyz
  1  'x, y, z'
loop_
 _atom_site_label
 _atom_site_fract_x
 _atom_site_fract_y
 _atom_site_fract_z
 _atom_site_charge
 Ti 0.5 0.0 0.66667   1.594284
 Ti 0.5 0.5 0.0   1.594365
 Ti 0.0 0.5 0.33333   1.594284
 H 0.0282 0.1097 0.9494   0.412191
 H 0.9718 0.8903 0.9494   0.412191
 H 0.1097 0.0282 0.0506   0.41219
 H 0.8903 0.9718 0.0506   0.41219
 H 0.0815 0.9718 0.28273   0.412185
 H 0.9185 0.0282 0.28273   0.412185
 H 0.9185 0.8903 0.38393   0.412229
 H 0.0815 0.1097 0.38393   0.412229
 H 0.8903 0.9185 0.61607   0.41223
 H 0.1097 0.0815 0.61607   0.41223
 H 0.9718 0.0815 0.71727   0.412184
 H 0.0282 0.9185 0.71727   0.412184
 C 0.308 0.692 0.5   0.534377
 C 0.21045 0.78955 0.5   0.551468
 C 0.384 0.692 0.83333   0.534497
 C 0.5791 0.78955 0.83333   0.551371
 C 0.308 0.616 0.16667   0.534496
 C 0.21045 0.4209 0.16667   0.551371
 C 0.692 0.308 0.5   0.534377
 C 0.78955 0.21045 0.5   0.551468
 C 0.616 0.308 0.83333   0.534497
 C 0.4209 0.21045 0.83333   0.551371
 C 0.692 0.384 0.16667   0.534495
 C 0.78955 0.5791 0.16667   0.551371
 N 0.0 0.0 0.0   -0.776228
 N 0.0 0.0 0.33333   -0.776309
 N 0.0 0.0 0.66667   -0.776309
 O 0.4489 0.7629 0.557   -0.567168
 O 0.0768 0.7273 0.4372   -0.592442
 O 0.314 0.5511 0.89033   -0.567238
 O 0.6505 0.9232 0.77053   -0.592437
 O 0.2371 0.686 0.22367   -0.567214
 O 0.2727 0.3495 0.10387   -0.59242
 O 0.5511 0.2371 0.557   -0.567168
 O 0.9232 0.2727 0.4372   -0.592442
 O 0.686 0.4489 0.89033   -0.567238
 O 0.3495 0.0768 0.77053   -0.592437
 O 0.7629 0.314 0.22367   -0.567214
 O 0.7273 0.6505 0.10387   -0.59242
 O 0.686 0.2371 0.77633   -0.567214
 O 0.3495 0.2727 0.89613   -0.592419
 O 0.7629 0.4489 0.443   -0.567167
 O 0.7273 0.0768 0.5628   -0.592441
 O 0.5511 0.314 0.10967   -0.567237
 O 0.9232 0.6505 0.22947   -0.592436
 O 0.314 0.7629 0.77633   -0.567214
 O 0.6505 0.7273 0.89613   -0.592419
 O 0.2371 0.5511 0.443   -0.567168
 O 0.2727 0.9232 0.5628   -0.592441
 O 0.4489 0.686 0.10967   -0.567237
 O 0.0768 0.3495 0.22947   -0.592436
