{'_ref': 'TBD', '_srcid': 'CAKYAQ_clean', 'submitters': [{'name': 'Dalar Nazarian Jeff Camp and David Sholl', 'email': 'dalar@gatech.edu jcamp6@gatech.edu'}], '_method': 'VASP DFT with PBE;DDEC'}
data_TiH4C4NO8
_symmetry_space_group_name_H-M   'P 1'
_cell_length_a   8.94700000
_cell_length_b   8.94699975
_cell_length_c   10.89800000
_cell_angle_alpha   90.00000000
_cell_angle_beta   90.00000000
_cell_angle_gamma   120.00000092
_symmetry_Int_Tables_number   1
_chemical_formula_structural   TiH4C4NO8
_chemical_formula_sum   'Ti3 H12 C12 N3 O24'
_cell_volume   755.496216638
_cell_formula_units_Z   3
loop_
 _symmetry_equiv_pos_site_id
 _symmetry_equiv_pos_as_xyz
  1  'x, y, z'
loop_
 _atom_site_label
 _atom_site_fract_x
 _atom_site_fract_y
 _atom_site_fract_z
 _atom_site_charge
 Ti 0.0 0.5 0.16667   1.596506
 Ti 0.5 0.0 0.83333   1.596506
 Ti 0.5 0.5 0.5   1.596589
 H 0.89529 0.9103 0.88284   0.420234
 H 0.10471 0.0897 0.88284   0.420234
 H 0.98499 0.0897 0.78383   0.420176
 H 0.01501 0.9103 0.78383   0.420176
 H 0.01501 0.10471 0.54951   0.420207
 H 0.98499 0.89529 0.54951   0.420207
 H 0.10471 0.01501 0.45049   0.420205
 H 0.89529 0.98499 0.45049   0.420205
 H 0.0897 0.98499 0.21617   0.420178
 H 0.9103 0.01501 0.21617   0.420178
 H 0.9103 0.89529 0.11716   0.420233
 H 0.0897 0.10471 0.11716   0.420233
 C 0.30847 0.61694 0.33333   0.538498
 C 0.21052 0.42104 0.33333   0.536883
 C 0.30847 0.69153 0.0   0.538482
 C 0.21052 0.78948 0.0   0.536809
 C 0.38306 0.69153 0.66667   0.538494
 C 0.57896 0.78948 0.66667   0.536883
 C 0.69153 0.38306 0.33333   0.538497
 C 0.78948 0.57896 0.33333   0.536883
 C 0.69153 0.30847 0.0   0.538482
 C 0.78948 0.21052 0.0   0.536809
 C 0.61694 0.30847 0.66667   0.538494
 C 0.42104 0.21052 0.66667   0.536883
 N 0.0 0.0 0.83333   -0.796002
 N 0.0 0.0 0.5   -0.796012
 N 0.0 0.0 0.16667   -0.796002
 O 0.2371 0.686 0.27629   -0.569146
 O 0.0761 0.3485 0.26999   -0.588891
 O 0.4489 0.7629 0.94296   -0.569149
 O 0.2724 0.9239 0.93666   -0.588804
 O 0.314 0.5511 0.60962   -0.569216
 O 0.6515 0.7276 0.60332   -0.588835
 O 0.7629 0.314 0.27629   -0.569145
 O 0.9239 0.6515 0.26999   -0.58889
 O 0.5511 0.2371 0.94296   -0.569148
 O 0.7276 0.0761 0.93666   -0.588803
 O 0.686 0.4489 0.60962   -0.569215
 O 0.3485 0.2724 0.60332   -0.588834
 O 0.5511 0.314 0.39038   -0.569217
 O 0.7276 0.6515 0.39668   -0.588834
 O 0.686 0.2371 0.72371   -0.569146
 O 0.3485 0.0761 0.73001   -0.58889
 O 0.7629 0.4489 0.05704   -0.569149
 O 0.9239 0.2724 0.06334   -0.588804
 O 0.4489 0.686 0.39038   -0.569216
 O 0.2724 0.3485 0.39668   -0.588833
 O 0.314 0.7629 0.72371   -0.569145
 O 0.6515 0.9239 0.73001   -0.588889
 O 0.2371 0.5511 0.05704   -0.569148
 O 0.0761 0.7276 0.06334   -0.588803
