{'_ref': 'TBD', '_srcid': 'CAKYAQ_clean', 'submitters': [{'name': 'Dalar Nazarian Jeff Camp and David Sholl', 'email': 'dalar@gatech.edu jcamp6@gatech.edu'}], '_method': 'VASP DFT with PBE;DDEC'}
data_SmH2C8NO6
_symmetry_space_group_name_H-M   'P 1'
_cell_length_a   6.90820000
_cell_length_b   18.42599987
_cell_length_c   18.58300000
_cell_angle_alpha   111.97999974
_cell_angle_beta   90.00000000
_cell_angle_gamma   90.00000000
_symmetry_Int_Tables_number   1
_chemical_formula_structural   SmH2C8NO6
_chemical_formula_sum   'Sm8 H16 C64 N8 O48'
_cell_volume   2193.50623294
_cell_formula_units_Z   8
loop_
 _symmetry_equiv_pos_site_id
 _symmetry_equiv_pos_as_xyz
  1  'x, y, z'
loop_
 _atom_site_label
 _atom_site_fract_x
 _atom_site_fract_y
 _atom_site_fract_z
 _atom_site_charge
 Sm 0.77722 0.62669 0.62188   2.240103
 Sm 0.74997 0.62503 0.10328   2.252156
 Sm 0.27722 0.87331 0.87812   2.240102
 Sm 0.24997 0.87497 0.39672   2.252155
 Sm 0.22278 0.37331 0.37812   2.240103
 Sm 0.25003 0.37497 0.89672   2.252157
 Sm 0.72278 0.12669 0.12188   2.240102
 Sm 0.75003 0.12503 0.60328   2.252156
 H 0.5139 0.6265 0.8977   0.133678
 H 0.7293 0.416 0.7623   0.134022
 H 0.5983 0.7274 0.4112   0.106868
 H 0.7996 0.5062 0.3301   0.110684
 H 0.0139 0.8735 0.6023   0.133678
 H 0.2293 0.084 0.7377   0.134022
 H 0.0983 0.7726 0.0888   0.106868
 H 0.2996 0.9938 0.1699   0.110684
 H 0.4861 0.3735 0.1023   0.133678
 H 0.2707 0.584 0.2377   0.134022
 H 0.4017 0.2726 0.5888   0.106868
 H 0.2004 0.4938 0.6699   0.110684
 H 0.9861 0.1265 0.3977   0.133678
 H 0.7707 0.916 0.2623   0.134022
 H 0.9017 0.2274 0.9112   0.106868
 H 0.7004 0.0062 0.8301   0.110684
 C 0.5895 0.61645 0.78853   0.157329
 C 0.5677 0.59306 0.85123   -0.062115
 C 0.629 0.51824 0.84226   -0.059602
 C 0.6971 0.46754 0.77052   -0.070958
 C 0.7154 0.49643 0.71141   0.143891
 C 0.536 0.69681 0.79036   0.719529
 C 0.6281 0.49203 0.91041   0.818302
 C 0.7918 0.44914 0.63164   0.643108
 C 0.6506 0.68065 0.29489   0.094556
 C 0.6412 0.68283 0.37069   -0.047613
 C 0.6977 0.61665 0.38386   -0.003097
 C 0.764 0.55144 0.32249   -0.057611
 C 0.7758 0.55539 0.24927   0.12264
 C 0.5854 0.74769 0.27195   0.762762
 C 0.6962 0.61688 0.46533   0.65551
 C 0.8539 0.4904 0.17767   0.625492
 C 0.0895 0.88355 0.71147   0.157329
 C 0.0677 0.90694 0.64877   -0.062115
 C 0.129 0.98176 0.65774   -0.059602
 C 0.1971 0.03246 0.72948   -0.070958
 C 0.2154 0.00357 0.78859   0.14389
 C 0.036 0.80319 0.70964   0.719529
 C 0.1281 0.00797 0.58959   0.818301
 C 0.2918 0.05086 0.86836   0.643108
 C 0.1506 0.81935 0.20511   0.094556
 C 0.1412 0.81717 0.12931   -0.047613
 C 0.1977 0.88335 0.11614   -0.003097
 C 0.264 0.94856 0.17751   -0.057611
 C 0.2758 0.94461 0.25073   0.12264
 C 0.0854 0.75231 0.22805   0.762762
 C 0.1962 0.88312 0.03467   0.65551
 C 0.3539 0.0096 0.32233   0.625492
 C 0.4105 0.38355 0.21147   0.157329
 C 0.4323 0.40694 0.14877   -0.062115
 C 0.371 0.48176 0.15774   -0.059602
 C 0.3029 0.53246 0.22948   -0.070959
 C 0.2846 0.50357 0.28859   0.14389
 C 0.464 0.30319 0.20964   0.719529
 C 0.3719 0.50797 0.08959   0.818302
 C 0.2082 0.55086 0.36836   0.643108
 C 0.3494 0.31935 0.70511   0.094556
 C 0.3588 0.31717 0.62931   -0.047613
 C 0.3023 0.38335 0.61614   -0.003097
 C 0.236 0.44856 0.67751   -0.057611
 C 0.2242 0.44461 0.75073   0.12264
 C 0.4146 0.25231 0.72805   0.762762
 C 0.3038 0.38312 0.53467   0.65551
 C 0.1461 0.5096 0.82233   0.625491
 C 0.9105 0.11645 0.28853   0.157329
 C 0.9323 0.09306 0.35123   -0.062115
 C 0.871 0.01824 0.34226   -0.059602
 C 0.8029 0.96754 0.27052   -0.070959
 C 0.7846 0.99643 0.21141   0.14389
 C 0.964 0.19681 0.29036   0.719529
 C 0.8719 0.99203 0.41041   0.818301
 C 0.7082 0.94914 0.13164   0.643108
 C 0.8494 0.18065 0.79489   0.094556
 C 0.8588 0.18283 0.87069   -0.047613
 C 0.8023 0.11665 0.88386   -0.003097
 C 0.736 0.05144 0.82249   -0.057611
 C 0.7242 0.05539 0.74927   0.12264
 C 0.9146 0.24769 0.77195   0.762762
 C 0.8038 0.11688 0.96533   0.65551
 C 0.6461 0.9904 0.67767   0.625491
 N 0.6678 0.57004 0.72198   -0.551803
 N 0.7178 0.61853 0.23634   -0.479446
 N 0.1678 0.92996 0.77802   -0.551803
 N 0.2178 0.88147 0.26366   -0.479446
 N 0.3322 0.42996 0.27802   -0.551803
 N 0.2822 0.38147 0.76366   -0.479446
 N 0.8322 0.07004 0.22198   -0.551803
 N 0.7822 0.11853 0.73634   -0.479446
 O 0.4281 0.73956 0.84193   -0.673669
 O 0.6088 0.71382 0.73573   -0.758266
 O 0.684 0.54062 0.97329   -0.785391
 O 0.5764 0.42263 0.89722   -0.730355
 O 0.8148 0.37866 0.61193   -0.561987
 O 0.8284 0.4889 0.58931   -0.773463
 O 0.5185 0.8068 0.32417   -0.756642
 O 0.605 0.73825 0.20205   -0.691149
 O 0.7168 0.55342 0.47496   -0.679933
 O 0.6827 0.68102 0.52152   -0.679359
 O 0.912 0.42888 0.18212   -0.551665
 O 0.8533 0.50542 0.1161   -0.746504
 O 0.9281 0.76044 0.65807   -0.67367
 O 0.1088 0.78618 0.76427   -0.758266
 O 0.184 0.95938 0.52671   -0.785391
 O 0.0764 0.07737 0.60278   -0.730355
 O 0.3148 0.12134 0.88807   -0.561987
 O 0.3284 0.0111 0.91069   -0.773463
 O 0.0185 0.6932 0.17583   -0.756643
 O 0.105 0.76175 0.29795   -0.691149
 O 0.2168 0.94658 0.02504   -0.679933
 O 0.1827 0.81898 0.97848   -0.679359
 O 0.412 0.07112 0.31788   -0.551665
 O 0.3533 0.99458 0.3839   -0.746504
 O 0.5719 0.26044 0.15807   -0.673669
 O 0.3912 0.28618 0.26427   -0.758266
 O 0.316 0.45938 0.02671   -0.785391
 O 0.4236 0.57737 0.10278   -0.730355
 O 0.1852 0.62134 0.38807   -0.561987
 O 0.1716 0.5111 0.41069   -0.773463
 O 0.4815 0.1932 0.67583   -0.756642
 O 0.395 0.26175 0.79795   -0.691148
 O 0.2832 0.44658 0.52504   -0.679933
 O 0.3173 0.31898 0.47848   -0.679359
 O 0.088 0.57112 0.81788   -0.551665
 O 0.1467 0.49458 0.8839   -0.746503
 O 0.0719 0.23956 0.34193   -0.67367
 O 0.8912 0.21382 0.23573   -0.758266
 O 0.816 0.04062 0.47329   -0.785391
 O 0.9236 0.92263 0.39722   -0.730355
 O 0.6852 0.87866 0.11193   -0.561987
 O 0.6716 0.9889 0.08931   -0.773463
 O 0.9815 0.3068 0.82417   -0.756642
 O 0.895 0.23825 0.70205   -0.691148
 O 0.7832 0.05342 0.97496   -0.679933
 O 0.8173 0.18102 0.02152   -0.679359
 O 0.588 0.92888 0.68212   -0.551665
 O 0.6467 0.00542 0.6161   -0.746503
