{'_ref': 'TBD', '_srcid': 'CAKYAQ_clean', 'submitters': [{'name': 'Dalar Nazarian Jeff Camp and David Sholl', 'email': 'dalar@gatech.edu jcamp6@gatech.edu'}], '_method': 'VASP DFT with PBE;DDEC'}
data_CdC6(NO2)2
_symmetry_space_group_name_H-M   'P 1'
_cell_length_a   6.50800000
_cell_length_b   16.31800000
_cell_length_c   16.31800000
_cell_angle_alpha   90.00000000
_cell_angle_beta   90.00000000
_cell_angle_gamma   90.00000000
_symmetry_Int_Tables_number   1
_chemical_formula_structural   CdC6(NO2)2
_chemical_formula_sum   'Cd8 C48 N16 O32'
_cell_volume   1732.93152299
_cell_formula_units_Z   8
loop_
 _symmetry_equiv_pos_site_id
 _symmetry_equiv_pos_as_xyz
  1  'x, y, z'
loop_
 _atom_site_label
 _atom_site_fract_x
 _atom_site_fract_y
 _atom_site_fract_z
 _atom_site_charge
 Cd 0.25 0.95538 0.45538   1.06685
 Cd 0.25 0.54462 0.04462   1.06685
 Cd 0.75 0.04462 0.95538   1.06685
 Cd 0.75 0.45538 0.54462   1.06685
 Cd 0.75 0.04462 0.54462   1.06685
 Cd 0.75 0.45538 0.95538   1.06685
 Cd 0.25 0.95538 0.04462   1.06685
 Cd 0.25 0.54462 0.45538   1.06685
 C 0.3884 0.9654 0.6478   0.584733
 C 0.5398 0.996 0.7078   0.099382
 C 0.3884 0.5346 0.8522   0.584733
 C 0.5398 0.504 0.7922   0.099382
 C 0.8884 0.8522 0.9654   0.584733
 C 0.0398 0.7922 0.996   0.099382
 C 0.8884 0.6478 0.5346   0.584733
 C 0.0398 0.7078 0.504   0.099382
 C 0.6116 0.0346 0.1478   0.584733
 C 0.4602 0.004 0.2078   0.099382
 C 0.6116 0.4654 0.3522   0.584733
 C 0.4602 0.496 0.2922   0.099382
 C 0.1116 0.1478 0.4654   0.584733
 C 0.9602 0.2078 0.496   0.099382
 C 0.1116 0.3522 0.0346   0.584733
 C 0.9602 0.2922 0.004   0.099382
 C 0.6116 0.0346 0.3522   0.584732
 C 0.4602 0.004 0.2922   0.099393
 C 0.6116 0.4654 0.1478   0.584732
 C 0.4602 0.496 0.2078   0.099393
 C 0.1116 0.1478 0.0346   0.584732
 C 0.9602 0.2078 0.004   0.099393
 C 0.1116 0.3522 0.4654   0.584732
 C 0.9602 0.2922 0.496   0.099393
 C 0.3884 0.9654 0.8522   0.584732
 C 0.5398 0.996 0.7922   0.099393
 C 0.3884 0.5346 0.6478   0.584732
 C 0.5398 0.504 0.7078   0.099393
 C 0.8884 0.8522 0.5346   0.584732
 C 0.0398 0.7922 0.504   0.099393
 C 0.8884 0.6478 0.9654   0.584732
 C 0.0398 0.7078 0.996   0.099393
 C 0.8122 0.0584 0.75   0.371154
 C 0.0071 0.1084 0.75   -0.088473
 C 0.8122 0.4416 0.75   0.371154
 C 0.0071 0.3916 0.75   -0.088469
 C 0.3122 0.75 0.0584   0.371154
 C 0.5071 0.75 0.1084   -0.088473
 C 0.3122 0.75 0.4416   0.371154
 C 0.5071 0.75 0.3916   -0.088469
 C 0.1878 0.9416 0.25   0.371155
 C 0.9929 0.8916 0.25   -0.088469
 C 0.1878 0.5584 0.25   0.371155
 C 0.9929 0.6084 0.25   -0.088465
 C 0.6878 0.25 0.5584   0.371155
 C 0.4929 0.25 0.6084   -0.088469
 C 0.6878 0.25 0.9416   0.371155
 C 0.4929 0.25 0.8916   -0.088465
 N 0.7125 0.0359 0.6814   -0.398926
 N 0.7125 0.4641 0.8186   -0.398926
 N 0.2125 0.8186 0.0359   -0.398926
 N 0.2125 0.6814 0.4641   -0.398926
 N 0.2875 0.9641 0.1814   -0.398926
 N 0.2875 0.5359 0.3186   -0.398926
 N 0.7875 0.1814 0.5359   -0.398926
 N 0.7875 0.3186 0.9641   -0.398926
 N 0.2875 0.9641 0.3186   -0.398927
 N 0.2875 0.5359 0.1814   -0.398927
 N 0.7875 0.1814 0.9641   -0.398927
 N 0.7875 0.3186 0.5359   -0.398927
 N 0.7125 0.0359 0.8186   -0.398927
 N 0.7125 0.4641 0.6814   -0.398927
 N 0.2125 0.8186 0.4641   -0.398927
 N 0.2125 0.6814 0.0359   -0.398927
 O 0.4232 0.98285 0.57314   -0.589256
 O 0.2329 0.9247 0.6707   -0.370703
 O 0.4232 0.51715 0.92686   -0.589256
 O 0.2329 0.5753 0.8293   -0.370703
 O 0.9232 0.92686 0.98285   -0.589256
 O 0.7329 0.8293 0.9247   -0.370703
 O 0.9232 0.57314 0.51715   -0.589256
 O 0.7329 0.6707 0.5753   -0.370703
 O 0.5768 0.01715 0.07314   -0.589256
 O 0.7671 0.0753 0.1707   -0.370703
 O 0.5768 0.48285 0.42686   -0.589256
 O 0.7671 0.4247 0.3293   -0.370703
 O 0.0768 0.07314 0.48285   -0.589256
 O 0.2671 0.1707 0.4247   -0.370703
 O 0.0768 0.42686 0.01715   -0.589256
 O 0.2671 0.3293 0.0753   -0.370703
 O 0.5768 0.01715 0.42686   -0.589256
 O 0.7671 0.0753 0.3293   -0.370707
 O 0.5768 0.48285 0.07314   -0.589255
 O 0.7671 0.4247 0.1707   -0.370707
 O 0.0768 0.07314 0.01715   -0.589255
 O 0.2671 0.1707 0.0753   -0.370707
 O 0.0768 0.42686 0.48285   -0.589256
 O 0.2671 0.3293 0.4247   -0.370707
 O 0.4232 0.98285 0.92686   -0.589256
 O 0.2329 0.9247 0.8293   -0.370707
 O 0.4232 0.51715 0.57314   -0.589255
 O 0.2329 0.5753 0.6707   -0.370707
 O 0.9232 0.92686 0.51715   -0.589255
 O 0.7329 0.8293 0.5753   -0.370707
 O 0.9232 0.57314 0.98285   -0.589256
 O 0.7329 0.6707 0.9247   -0.370707
