{'_ref': 'TBD', '_srcid': 'CAKYAQ_clean', 'submitters': [{'name': 'Dalar Nazarian Jeff Camp and David Sholl', 'email': 'dalar@gatech.edu jcamp6@gatech.edu'}], '_method': 'VASP DFT with PBE;DDEC'}
data_CoH5C10NO4
_symmetry_space_group_name_H-M   'P 1'
_cell_length_a   10.25370000
_cell_length_b   10.93199995
_cell_length_c   13.33830000
_cell_angle_alpha   90.00000000
_cell_angle_beta   90.00000000
_cell_angle_gamma   113.14899808
_symmetry_Int_Tables_number   1
_chemical_formula_structural   CoH5C10NO4
_chemical_formula_sum   'Co4 H20 C40 N4 O16'
_cell_volume   1374.75611894
_cell_formula_units_Z   4
loop_
 _symmetry_equiv_pos_site_id
 _symmetry_equiv_pos_as_xyz
  1  'x, y, z'
loop_
 _atom_site_label
 _atom_site_fract_x
 _atom_site_fract_y
 _atom_site_fract_z
 _atom_site_charge
 Co 0.28865 0.51223 0.16323   0.903423
 Co 0.21135 0.98777 0.66323   0.903423
 Co 0.71135 0.48777 0.83677   0.903423
 Co 0.78865 0.01223 0.33677   0.903423
 H 0.1552 0.6846 0.4176   0.124144
 H 0.9916 0.3156 0.1193   0.093956
 H 0.8707 0.1087 0.0569   0.11412
 H 0.239 0.0832 0.9975   0.114647
 H 0.3508 0.2955 0.0537   0.074821
 H 0.3448 0.8154 0.9176   0.124144
 H 0.5084 0.1844 0.6193   0.093956
 H 0.6293 0.3913 0.5569   0.114121
 H 0.261 0.4168 0.4975   0.114647
 H 0.1492 0.2045 0.5537   0.074821
 H 0.8448 0.3154 0.5824   0.124134
 H 0.0084 0.6844 0.8807   0.093947
 H 0.1293 0.8913 0.9431   0.114126
 H 0.761 0.9168 0.0025   0.114652
 H 0.6492 0.7045 0.9463   0.074819
 H 0.6552 0.1846 0.0824   0.124134
 H 0.4916 0.8156 0.3807   0.093947
 H 0.3707 0.6087 0.4431   0.114126
 H 0.739 0.5832 0.5025   0.114652
 H 0.8508 0.7955 0.4463   0.074819
 C 0.1176 0.4811 0.3043   0.646215
 C 0.0478 0.488 0.40323   -0.055071
 C 0.9524 0.3757 0.45331   -0.091153
 C 0.8945 0.2413 0.4043   0.637372
 C 0.0926 0.6097 0.45085   -0.068192
 C 0.0428 0.269 0.0934   0.19781
 C 0.9693 0.1436 0.0565   -0.17117
 C 0.0386 0.0684 0.0191   0.100978
 C 0.1855 0.1291 0.0206   -0.156759
 C 0.2522 0.2566 0.0562   0.165722
 C 0.3824 0.0189 0.8043   0.646215
 C 0.4522 0.012 0.90323   -0.055071
 C 0.5476 0.1243 0.95331   -0.091153
 C 0.6055 0.2587 0.9043   0.637368
 C 0.4074 0.8903 0.95085   -0.068192
 C 0.4572 0.231 0.5934   0.19781
 C 0.5307 0.3564 0.5565   -0.171174
 C 0.4614 0.4316 0.5191   0.100979
 C 0.3145 0.3709 0.5206   -0.156759
 C 0.2478 0.2434 0.5562   0.165722
 C 0.8824 0.5189 0.6957   0.646216
 C 0.9522 0.512 0.59677   -0.055076
 C 0.0476 0.6243 0.54669   -0.091149
 C 0.1055 0.7587 0.5957   0.637371
 C 0.9074 0.3903 0.54915   -0.068186
 C 0.9572 0.731 0.9066   0.197814
 C 0.0307 0.8564 0.9435   -0.171175
 C 0.9614 0.9316 0.9809   0.101012
 C 0.8145 0.8709 0.9794   -0.156768
 C 0.7478 0.7434 0.9438   0.165723
 C 0.6176 0.9811 0.1957   0.646216
 C 0.5478 0.988 0.09677   -0.055076
 C 0.4524 0.8757 0.04669   -0.091149
 C 0.3945 0.7413 0.0957   0.637367
 C 0.5926 0.1097 0.04915   -0.068186
 C 0.5428 0.769 0.4066   0.197814
 C 0.4693 0.6436 0.4435   -0.171179
 C 0.5386 0.5684 0.4809   0.101013
 C 0.6855 0.6291 0.4794   -0.156768
 C 0.7522 0.7566 0.4438   0.165723
 N 0.1842 0.328 0.09397   -0.364131
 N 0.3158 0.172 0.59397   -0.364131
 N 0.8158 0.672 0.90603   -0.364133
 N 0.6842 0.828 0.40603   -0.364133
 O 0.20929 0.43199 0.3063   -0.58899
 O 0.09651 0.53491 0.22746   -0.538234
 O 0.89803 0.23163 0.31097   -0.560908
 O 0.84095 0.13975 0.4584   -0.578602
 O 0.29071 0.06801 0.8063   -0.58899
 O 0.40349 0.96509 0.72746   -0.538235
 O 0.60197 0.26837 0.81097   -0.560907
 O 0.65905 0.36025 0.9584   -0.578602
 O 0.79071 0.56801 0.6937   -0.58899
 O 0.90349 0.46509 0.77254   -0.538237
 O 0.10197 0.76837 0.68903   -0.56091
 O 0.15905 0.86025 0.5416   -0.578602
 O 0.70929 0.93199 0.1937   -0.58899
 O 0.59651 0.03491 0.27254   -0.538237
 O 0.39803 0.73163 0.18903   -0.56091
 O 0.34095 0.63975 0.0416   -0.578603
