{'_ref': 'TBD', '_srcid': 'CAKYAQ_clean', 'submitters': [{'name': 'Dalar Nazarian Jeff Camp and David Sholl', 'email': 'dalar@gatech.edu jcamp6@gatech.edu'}], '_method': 'VASP DFT with PBE;DDEC'}
data_YbH3(C3O2)3
_symmetry_space_group_name_H-M   'P 1'
_cell_length_a   10.24000000
_cell_length_b   10.24000000
_cell_length_c   14.42000000
_cell_angle_alpha   90.00000000
_cell_angle_beta   90.00000000
_cell_angle_gamma   90.00000000
_symmetry_Int_Tables_number   1
_chemical_formula_structural   YbH3(C3O2)3
_chemical_formula_sum   'Yb4 H12 C36 O24'
_cell_volume   1512.046592
_cell_formula_units_Z   4
loop_
 _symmetry_equiv_pos_site_id
 _symmetry_equiv_pos_as_xyz
  1  'x, y, z'
loop_
 _atom_site_label
 _atom_site_fract_x
 _atom_site_fract_y
 _atom_site_fract_z
 _atom_site_charge
 Yb 0.35215 0.64785 0.875   1.532463
 Yb 0.64785 0.35215 0.375   1.532463
 Yb 0.35215 0.35215 0.625   1.532463
 Yb 0.64785 0.64785 0.125   1.532463
 H 0.4251 0.059 0.8709   0.111108
 H 0.5749 0.941 0.3709   0.111108
 H 0.941 0.4251 0.6209   0.111108
 H 0.059 0.5749 0.1209   0.111108
 H 0.5749 0.059 0.1291   0.111108
 H 0.4251 0.941 0.6291   0.111108
 H 0.059 0.4251 0.3791   0.111108
 H 0.941 0.5749 0.8791   0.111108
 H 0.5 0.3989 0.0   0.084988
 H 0.5 0.6011 0.5   0.084988
 H 0.6011 0.5 0.75   0.084988
 H 0.3989 0.5 0.25   0.084988
 C 0.411 0.3178 0.839   0.724417
 C 0.4554 0.1042 0.9225   0.032232
 C 0.4565 0.2398 0.9226   -0.16578
 C 0.589 0.6822 0.339   0.724417
 C 0.5446 0.8958 0.4225   0.032232
 C 0.5435 0.7602 0.4226   -0.16578
 C 0.6822 0.411 0.589   0.724417
 C 0.8958 0.4554 0.6725   0.032232
 C 0.7602 0.4565 0.6726   -0.16578
 C 0.3178 0.589 0.089   0.724417
 C 0.1042 0.5446 0.1725   0.032232
 C 0.2398 0.5435 0.1726   -0.16578
 C 0.589 0.3178 0.161   0.724417
 C 0.5446 0.1042 0.0775   0.032231
 C 0.5435 0.2398 0.0774   -0.16578
 C 0.411 0.6822 0.661   0.724417
 C 0.4554 0.8958 0.5775   0.032231
 C 0.4565 0.7602 0.5774   -0.16578
 C 0.3178 0.411 0.411   0.724417
 C 0.1042 0.4554 0.3275   0.032231
 C 0.2398 0.4565 0.3274   -0.16578
 C 0.6822 0.589 0.911   0.724417
 C 0.8958 0.5446 0.8275   0.032231
 C 0.7602 0.5435 0.8274   -0.16578
 C 0.5 0.8884 0.0   0.7351
 C 0.5 0.0357 0.0   -0.163496
 C 0.5 0.3081 0.0   0.035895
 C 0.5 0.1116 0.5   0.7351
 C 0.5 0.9643 0.5   -0.163496
 C 0.5 0.6919 0.5   0.035895
 C 0.1116 0.5 0.75   0.7351
 C 0.9643 0.5 0.75   -0.163497
 C 0.6919 0.5 0.75   0.035895
 C 0.8884 0.5 0.25   0.7351
 C 0.0357 0.5 0.25   -0.163497
 C 0.3081 0.5 0.25   0.035895
 O 0.4261 0.834 0.9414   -0.604611
 O 0.3876 0.4338 0.8502   -0.595855
 O 0.4049 0.2598 0.7624   -0.613986
 O 0.5739 0.166 0.4414   -0.604611
 O 0.6124 0.5662 0.3502   -0.595855
 O 0.5951 0.7402 0.2624   -0.613986
 O 0.166 0.4261 0.6914   -0.604611
 O 0.5662 0.3876 0.6002   -0.595855
 O 0.7402 0.4049 0.5124   -0.613986
 O 0.834 0.5739 0.1914   -0.604611
 O 0.4338 0.6124 0.1002   -0.595855
 O 0.2598 0.5951 0.0124   -0.613986
 O 0.5739 0.834 0.0586   -0.604611
 O 0.6124 0.4338 0.1498   -0.595855
 O 0.5951 0.2598 0.2376   -0.613986
 O 0.4261 0.166 0.5586   -0.604611
 O 0.3876 0.5662 0.6498   -0.595855
 O 0.4049 0.7402 0.7376   -0.613986
 O 0.834 0.4261 0.3086   -0.604611
 O 0.4338 0.3876 0.3998   -0.595855
 O 0.2598 0.4049 0.4876   -0.613986
 O 0.166 0.5739 0.8086   -0.604611
 O 0.5662 0.6124 0.8998   -0.595855
 O 0.7402 0.5951 0.9876   -0.613986
