{'_ref': 'TBD', '_srcid': 'CAKYAQ_clean', 'submitters': [{'name': 'Dalar Nazarian Jeff Camp and David Sholl', 'email': 'dalar@gatech.edu jcamp6@gatech.edu'}], '_method': 'VASP DFT with PBE;DDEC'}
data_ErH3(C3O2)3
_symmetry_space_group_name_H-M   'P 1'
_cell_length_a   10.26700000
_cell_length_b   10.26700000
_cell_length_c   14.46200000
_cell_angle_alpha   90.00000000
_cell_angle_beta   90.00000000
_cell_angle_gamma   90.00000000
_symmetry_Int_Tables_number   1
_chemical_formula_structural   ErH3(C3O2)3
_chemical_formula_sum   'Er4 H12 C36 O24'
_cell_volume   1524.45806152
_cell_formula_units_Z   4
loop_
 _symmetry_equiv_pos_site_id
 _symmetry_equiv_pos_as_xyz
  1  'x, y, z'
loop_
 _atom_site_label
 _atom_site_fract_x
 _atom_site_fract_y
 _atom_site_fract_z
 _atom_site_charge
 Er 0.85258 0.85258 0.875   1.533182
 Er 0.14741 0.14741 0.375   1.533179
 Er 0.14741 0.85258 0.125   1.533203
 Er 0.85258 0.14741 0.625   1.533203
 H 0.9254 0.4418 0.8714   0.10906
 H 0.0746 0.5582 0.3714   0.109062
 H 0.5582 0.9254 0.1214   0.109061
 H 0.4418 0.0746 0.6214   0.109061
 H 0.0746 0.4418 0.1286   0.109062
 H 0.9254 0.5582 0.6286   0.109062
 H 0.4418 0.9254 0.8786   0.10906
 H 0.5582 0.0746 0.3786   0.109063
 H 0.0 0.1025 0.0   0.08312
 H 0.0 0.8975 0.5   0.083113
 H 0.8975 0.0 0.25   0.083113
 H 0.1025 0.0 0.75   0.08312
 C 0.9556 0.3967 0.9229   0.037249
 C 0.9562 0.2608 0.9227   -0.173529
 C 0.9132 0.184 0.8395   0.722955
 C 0.0444 0.6033 0.4229   0.03725
 C 0.0438 0.7392 0.4227   -0.173534
 C 0.0868 0.816 0.3395   0.722961
 C 0.6033 0.9556 0.1729   0.03725
 C 0.7392 0.9562 0.1727   -0.173534
 C 0.816 0.9132 0.0895   0.722963
 C 0.3967 0.0444 0.6729   0.037249
 C 0.2608 0.0438 0.6727   -0.17353
 C 0.184 0.0868 0.5895   0.722942
 C 0.0444 0.3967 0.0771   0.037249
 C 0.0438 0.2608 0.0773   -0.17353
 C 0.0868 0.184 0.1605   0.722942
 C 0.9556 0.6033 0.5771   0.03725
 C 0.9562 0.7392 0.5773   -0.173534
 C 0.9132 0.816 0.6605   0.722963
 C 0.3967 0.9556 0.8271   0.037248
 C 0.2608 0.9562 0.8273   -0.173529
 C 0.184 0.9132 0.9105   0.722955
 C 0.6033 0.0444 0.3271   0.037249
 C 0.7392 0.0438 0.3273   -0.173533
 C 0.816 0.0868 0.4105   0.722961
 C 0.0 0.4651 0.0   -0.171656
 C 0.0 0.6106 0.0   0.745434
 C 0.0 0.193 0.0   0.038864
 C 0.0 0.5349 0.5   -0.171651
 C 0.0 0.3894 0.5   0.745413
 C 0.0 0.807 0.5   0.038865
 C 0.5349 0.0 0.25   -0.171651
 C 0.3894 0.0 0.25   0.745412
 C 0.807 0.0 0.25   0.038865
 C 0.4651 0.0 0.75   -0.171656
 C 0.6106 0.0 0.75   0.745434
 C 0.193 0.0 0.75   0.038864
 O 0.9057 0.2414 0.76286   -0.608745
 O 0.9281 0.6653 0.94175   -0.607031
 O 0.8884 0.068 0.8496   -0.594434
 O 0.0943 0.7586 0.26286   -0.60875
 O 0.0719 0.3347 0.44175   -0.607011
 O 0.1116 0.932 0.3496   -0.594443
 O 0.7586 0.9057 0.01286   -0.608744
 O 0.3347 0.9281 0.19175   -0.607009
 O 0.932 0.8884 0.0996   -0.594459
 O 0.2414 0.0943 0.51286   -0.608734
 O 0.6653 0.0719 0.69175   -0.607055
 O 0.068 0.1116 0.5996   -0.594407
 O 0.0943 0.2414 0.23714   -0.608734
 O 0.0719 0.6653 0.05825   -0.607055
 O 0.1116 0.068 0.1504   -0.594407
 O 0.9057 0.7586 0.73714   -0.608744
 O 0.9281 0.3347 0.55825   -0.607009
 O 0.8884 0.932 0.6504   -0.594459
 O 0.2414 0.9057 0.98714   -0.608745
 O 0.6653 0.9281 0.80825   -0.607032
 O 0.068 0.8884 0.9004   -0.594435
 O 0.7586 0.0943 0.48714   -0.60875
 O 0.3347 0.0719 0.30825   -0.607011
 O 0.932 0.1116 0.4004   -0.594443
