{'_ref': 'TBD', '_srcid': 'CAKYAQ_clean', 'submitters': [{'name': 'Dalar Nazarian Jeff Camp and David Sholl', 'email': 'dalar@gatech.edu jcamp6@gatech.edu'}], '_method': 'VASP DFT with PBE;DDEC'}
data_Zn4H12C24O13
_symmetry_space_group_name_H-M   'P 1'
_cell_length_a   18.31269964
_cell_length_b   18.31270001
_cell_length_c   18.31270000
_cell_angle_alpha   60.00000002
_cell_angle_beta   59.99999936
_cell_angle_gamma   60.00000024
_symmetry_Int_Tables_number   1
_chemical_formula_structural   Zn4H12C24O13
_chemical_formula_sum   'Zn8 H24 C48 O26'
_cell_volume   4342.52307814
_cell_formula_units_Z   2
loop_
 _symmetry_equiv_pos_site_id
 _symmetry_equiv_pos_as_xyz
  1  'x, y, z'
loop_
 _atom_site_label
 _atom_site_fract_x
 _atom_site_fract_y
 _atom_site_fract_z
 _atom_site_charge
 Zn 0.20666 0.38001 0.20666   1.118247
 Zn 0.38001 0.20666 0.20666   1.118227
 Zn 0.20667 0.20666 0.20666   1.118228
 Zn 0.20667 0.20666 0.38001   1.118247
 Zn 0.61999 0.79334 0.79334   1.118247
 Zn 0.79334 0.61999 0.79333   1.118227
 Zn 0.79334 0.79333 0.79334   1.118238
 Zn 0.79334 0.79333 0.61999   1.118237
 H 0.0452 0.5658 0.0452   0.116089
 H 0.5658 0.0452 0.3438   0.116089
 H 0.0452 0.3438 0.0452   0.11609
 H 0.3438 0.0452 0.5658   0.116087
 H 0.0452 0.0452 0.3438   0.116087
 H 0.5658 0.3438 0.0452   0.116087
 H 0.0452 0.0452 0.5658   0.116089
 H 0.3438 0.5658 0.0452   0.116088
 H 0.0452 0.3438 0.5658   0.11609
 H 0.5658 0.0452 0.0452   0.116089
 H 0.0452 0.5658 0.3438   0.11609
 H 0.3438 0.0452 0.0452   0.116088
 H 0.4342 0.9548 0.9548   0.116089
 H 0.9548 0.4342 0.6562   0.116087
 H 0.6562 0.9548 0.9548   0.116091
 H 0.9548 0.6562 0.4342   0.116087
 H 0.9548 0.9548 0.6562   0.116087
 H 0.6562 0.4342 0.9548   0.116087
 H 0.9548 0.9548 0.4342   0.116087
 H 0.4342 0.6562 0.9548   0.116087
 H 0.6562 0.9548 0.4342   0.116088
 H 0.9548 0.4342 0.9548   0.116089
 H 0.4342 0.9548 0.6562   0.116087
 H 0.9548 0.6562 0.9548   0.116086
 C 0.02688 0.5393 0.02688   -0.059608
 C 0.5393 0.02688 0.40694   -0.059607
 C 0.02688 0.40694 0.02688   -0.059608
 C 0.40694 0.02688 0.5393   -0.059612
 C 0.02688 0.02688 0.40694   -0.05961
 C 0.5393 0.40694 0.02688   -0.059609
 C 0.02688 0.02688 0.5393   -0.059608
 C 0.40694 0.5393 0.02688   -0.059608
 C 0.02688 0.40694 0.5393   -0.059605
 C 0.5393 0.02688 0.02688   -0.059609
 C 0.02688 0.5393 0.40694   -0.059605
 C 0.40694 0.02688 0.02688   -0.059608
 C 0.4607 0.97312 0.97312   -0.059615
 C 0.97312 0.4607 0.59306   -0.059618
 C 0.59306 0.97312 0.97312   -0.059611
 C 0.97312 0.59306 0.4607   -0.059617
 C 0.97312 0.97312 0.59306   -0.059617
 C 0.59306 0.4607 0.97312   -0.059616
 C 0.97312 0.97312 0.4607   -0.059615
 C 0.4607 0.59306 0.97312   -0.059616
 C 0.59306 0.97312 0.4607   -0.059615
 C 0.97312 0.4607 0.97312   -0.059613
 C 0.4607 0.97312 0.59306   -0.059613
 C 0.97312 0.59306 0.97312   -0.059617
 C 0.11142 0.38858 0.11142   0.71032
 C 0.05381 0.44619 0.05381   -0.126155
 C 0.38858 0.11142 0.38858   0.710321
 C 0.44619 0.05381 0.44619   -0.126159
 C 0.11142 0.11142 0.38858   0.710373
 C 0.05381 0.05381 0.44619   -0.126164
 C 0.38858 0.38858 0.11142   0.710373
 C 0.44619 0.44619 0.05381   -0.126164
 C 0.11142 0.38858 0.38858   0.710371
 C 0.05381 0.44619 0.44619   -0.126155
 C 0.38858 0.11142 0.11142   0.710268
 C 0.44619 0.05381 0.05381   -0.126152
 C 0.61142 0.88858 0.88858   0.710319
 C 0.55381 0.94619 0.94619   -0.126147
 C 0.88858 0.61142 0.61142   0.710269
 C 0.94619 0.55381 0.55381   -0.126153
 C 0.88858 0.88858 0.61142   0.710373
 C 0.94619 0.94619 0.55381   -0.126161
 C 0.61142 0.61142 0.88858   0.710372
 C 0.55381 0.55381 0.94619   -0.126162
 C 0.61142 0.88858 0.61142   0.710372
 C 0.55381 0.94619 0.55381   -0.126157
 C 0.88858 0.61142 0.88858   0.71032
 C 0.94619 0.55381 0.94619   -0.126153
 O 0.25 0.25 0.25   -1.274032
 O 0.75 0.75 0.75   -1.274032
 O 0.13369 0.42773 0.13369   -0.61506
 O 0.42773 0.13369 0.30489   -0.615175
 O 0.13369 0.30489 0.13369   -0.615174
 O 0.30489 0.13369 0.42773   -0.615061
 O 0.13369 0.13369 0.30489   -0.615196
 O 0.42773 0.30489 0.13369   -0.615195
 O 0.13369 0.13369 0.42773   -0.615196
 O 0.30489 0.42773 0.13369   -0.615196
 O 0.13369 0.30489 0.42773   -0.615192
 O 0.42773 0.13369 0.13369   -0.615039
 O 0.13369 0.42773 0.30489   -0.615193
 O 0.30489 0.13369 0.13369   -0.61504
 O 0.57227 0.86631 0.86631   -0.615058
 O 0.86631 0.57227 0.69511   -0.615041
 O 0.69511 0.86631 0.86631   -0.615172
 O 0.86631 0.69511 0.57227   -0.61504
 O 0.86631 0.86631 0.69511   -0.615196
 O 0.69511 0.57227 0.86631   -0.615195
 O 0.86631 0.86631 0.57227   -0.615195
 O 0.57227 0.69511 0.86631   -0.615196
 O 0.69511 0.86631 0.57227   -0.615193
 O 0.86631 0.57227 0.86631   -0.615173
 O 0.57227 0.86631 0.69511   -0.615195
 O 0.86631 0.69511 0.86631   -0.615061
