{'_ref': 'TBD', '_srcid': 'CAKYAQ_clean', 'submitters': [{'name': 'Dalar Nazarian Jeff Camp and David Sholl', 'email': 'dalar@gatech.edu jcamp6@gatech.edu'}], '_method': 'VASP DFT with PBE;DDEC'}
data_Zn4H12C24O13
_symmetry_space_group_name_H-M   'P 1'
_cell_length_a   18.29430039
_cell_length_b   18.29429981
_cell_length_c   18.29430000
_cell_angle_alpha   59.99999966
_cell_angle_beta   60.00000071
_cell_angle_gamma   59.99999838
_symmetry_Int_Tables_number   1
_chemical_formula_structural   Zn4H12C24O13
_chemical_formula_sum   'Zn8 H24 C48 O26'
_cell_volume   4329.44665453
_cell_formula_units_Z   2
loop_
 _symmetry_equiv_pos_site_id
 _symmetry_equiv_pos_as_xyz
  1  'x, y, z'
loop_
 _atom_site_label
 _atom_site_fract_x
 _atom_site_fract_y
 _atom_site_fract_z
 _atom_site_charge
 Zn 0.2066 0.3802 0.2066   1.119683
 Zn 0.3802 0.2066 0.2066   1.119683
 Zn 0.2066 0.2066 0.2066   1.119682
 Zn 0.2066 0.2066 0.3802   1.119683
 Zn 0.6198 0.7934 0.7934   1.119683
 Zn 0.7934 0.6198 0.7934   1.119683
 Zn 0.7934 0.7934 0.7934   1.119682
 Zn 0.7934 0.7934 0.6198   1.119683
 H 0.0451 0.5655 0.0451   0.114547
 H 0.5655 0.0451 0.3443   0.114547
 H 0.0451 0.3443 0.0451   0.114547
 H 0.3443 0.0451 0.5655   0.114547
 H 0.0451 0.0451 0.3443   0.114546
 H 0.5655 0.3443 0.0451   0.114546
 H 0.0451 0.0451 0.5655   0.114546
 H 0.3443 0.5655 0.0451   0.114546
 H 0.0451 0.3443 0.5655   0.114546
 H 0.5655 0.0451 0.0451   0.114546
 H 0.0451 0.5655 0.3443   0.114546
 H 0.3443 0.0451 0.0451   0.114546
 H 0.4345 0.9549 0.9549   0.114545
 H 0.9549 0.4345 0.6557   0.114545
 H 0.6557 0.9549 0.9549   0.114545
 H 0.9549 0.6557 0.4345   0.114545
 H 0.9549 0.9549 0.6557   0.114545
 H 0.6557 0.4345 0.9549   0.114544
 H 0.9549 0.9549 0.4345   0.114545
 H 0.4345 0.6557 0.9549   0.114544
 H 0.6557 0.9549 0.4345   0.114544
 H 0.9549 0.4345 0.9549   0.114544
 H 0.4345 0.9549 0.6557   0.114544
 H 0.9549 0.6557 0.9549   0.114544
 C 0.02675 0.53889 0.02675   -0.059643
 C 0.53889 0.02675 0.40761   -0.059643
 C 0.02675 0.40761 0.02675   -0.059644
 C 0.40761 0.02675 0.53889   -0.059644
 C 0.02675 0.02675 0.40761   -0.059644
 C 0.53889 0.40761 0.02675   -0.059644
 C 0.02675 0.02675 0.53889   -0.059644
 C 0.40761 0.53889 0.02675   -0.059644
 C 0.02675 0.40761 0.53889   -0.059644
 C 0.53889 0.02675 0.02675   -0.059644
 C 0.02675 0.53889 0.40761   -0.059644
 C 0.40761 0.02675 0.02675   -0.059644
 C 0.46111 0.97325 0.97325   -0.059644
 C 0.97325 0.46111 0.59239   -0.059644
 C 0.59239 0.97325 0.97325   -0.059644
 C 0.97325 0.59239 0.46111   -0.059644
 C 0.97325 0.97325 0.59239   -0.059644
 C 0.59239 0.46111 0.97325   -0.059644
 C 0.97325 0.97325 0.46111   -0.059644
 C 0.46111 0.59239 0.97325   -0.059644
 C 0.59239 0.97325 0.46111   -0.059644
 C 0.97325 0.46111 0.97325   -0.059644
 C 0.46111 0.97325 0.59239   -0.059644
 C 0.97325 0.59239 0.97325   -0.059644
 C 0.11147 0.38853 0.11147   0.712603
 C 0.05374 0.44626 0.05374   -0.124319
 C 0.38853 0.11147 0.38853   0.712603
 C 0.44626 0.05374 0.44626   -0.124319
 C 0.11147 0.11147 0.38853   0.712604
 C 0.05374 0.05374 0.44626   -0.124319
 C 0.38853 0.38853 0.11147   0.712604
 C 0.44626 0.44626 0.05374   -0.124319
 C 0.11147 0.38853 0.38853   0.712604
 C 0.05374 0.44626 0.44626   -0.124319
 C 0.38853 0.11147 0.11147   0.712604
 C 0.44626 0.05374 0.05374   -0.124319
 C 0.61147 0.88853 0.88853   0.712603
 C 0.55374 0.94626 0.94626   -0.124319
 C 0.88853 0.61147 0.61147   0.712603
 C 0.94626 0.55374 0.55374   -0.124319
 C 0.88853 0.88853 0.61147   0.712604
 C 0.94626 0.94626 0.55374   -0.124319
 C 0.61147 0.61147 0.88853   0.712604
 C 0.55374 0.55374 0.94626   -0.124319
 C 0.61147 0.88853 0.61147   0.712604
 C 0.55374 0.94626 0.55374   -0.124319
 C 0.88853 0.61147 0.88853   0.712604
 C 0.94626 0.55374 0.94626   -0.124319
 O 0.25 0.25 0.25   -1.276487
 O 0.75 0.75 0.75   -1.276487
 O 0.13372 0.42764 0.13372   -0.615898
 O 0.42764 0.13372 0.30492   -0.615898
 O 0.13372 0.30492 0.13372   -0.615897
 O 0.30492 0.13372 0.42764   -0.615898
 O 0.13372 0.13372 0.30492   -0.615897
 O 0.42764 0.30492 0.13372   -0.615898
 O 0.13372 0.13372 0.42764   -0.615898
 O 0.30492 0.42764 0.13372   -0.615898
 O 0.13372 0.30492 0.42764   -0.615898
 O 0.42764 0.13372 0.13372   -0.615898
 O 0.13372 0.42764 0.30492   -0.615898
 O 0.30492 0.13372 0.13372   -0.615897
 O 0.57236 0.86628 0.86628   -0.615898
 O 0.86628 0.57236 0.69508   -0.615898
 O 0.69508 0.86628 0.86628   -0.615897
 O 0.86628 0.69508 0.57236   -0.615898
 O 0.86628 0.86628 0.69508   -0.615897
 O 0.69508 0.57236 0.86628   -0.615898
 O 0.86628 0.86628 0.57236   -0.615898
 O 0.57236 0.69508 0.86628   -0.615898
 O 0.69508 0.86628 0.57236   -0.615898
 O 0.86628 0.57236 0.86628   -0.615898
 O 0.57236 0.86628 0.69508   -0.615898
 O 0.86628 0.69508 0.86628   -0.615897
