{'_ref': 'TBD', '_srcid': 'CAKYAQ_clean', 'submitters': [{'name': 'Dalar Nazarian Jeff Camp and David Sholl', 'email': 'dalar@gatech.edu jcamp6@gatech.edu'}], '_method': 'VASP DFT with PBE;DDEC'}
data_La2CuH14C30(NO8)2
_symmetry_space_group_name_H-M   'P 1'
_cell_length_a   8.01910000
_cell_length_b   17.30500000
_cell_length_c   23.30340000
_cell_angle_alpha   90.00000000
_cell_angle_beta   90.00000000
_cell_angle_gamma   90.00000000
_symmetry_Int_Tables_number   1
_chemical_formula_structural   La2CuH14C30(NO8)2
_chemical_formula_sum   'La8 Cu4 H56 C120 N8 O64'
_cell_volume   3233.82506394
_cell_formula_units_Z   4
loop_
 _symmetry_equiv_pos_site_id
 _symmetry_equiv_pos_as_xyz
  1  'x, y, z'
loop_
 _atom_site_label
 _atom_site_fract_x
 _atom_site_fract_y
 _atom_site_fract_z
 _atom_site_charge
 La 0.63702 0.89671 0.78241   2.234786
 La 0.86298 0.10329 0.28241   2.234786
 La 0.36298 0.39671 0.71759   2.234786
 La 0.13702 0.60329 0.21759   2.234786
 La 0.36298 0.10329 0.21759   2.234784
 La 0.13702 0.89671 0.71759   2.234784
 La 0.63702 0.60329 0.28241   2.234783
 La 0.86298 0.39671 0.78241   2.234783
 Cu 0.0 0.0 0.5   0.833827
 Cu 0.5 0.0 0.0   0.833827
 Cu 0.0 0.5 0.0   0.833827
 Cu 0.5 0.5 0.5   0.833827
 H 0.3728 0.8319 0.4923   0.096674
 H 0.6147 0.7578 0.4899   0.110982
 H 0.8129 0.7745 0.5605   0.092942
 H 0.7973 0.1629 0.6615   0.147105
 H 0.7816 0.069 0.5913   0.084936
 H 0.2496 0.1011 0.5509   0.072677
 H 0.2713 0.2012 0.6153   0.141015
 H 0.1272 0.1681 0.9923   0.096674
 H 0.8853 0.2422 0.9899   0.110982
 H 0.6871 0.2255 0.0605   0.092942
 H 0.7027 0.8371 0.1615   0.147105
 H 0.7184 0.931 0.0913   0.084936
 H 0.2504 0.8989 0.0509   0.072677
 H 0.2287 0.7988 0.1153   0.141015
 H 0.6272 0.3319 0.0077   0.096676
 H 0.3853 0.2578 0.0101   0.110984
 H 0.1871 0.2745 0.9395   0.092945
 H 0.2027 0.6629 0.8385   0.147105
 H 0.2184 0.569 0.9087   0.084936
 H 0.7504 0.6011 0.9491   0.072677
 H 0.7287 0.7012 0.8847   0.141015
 H 0.8728 0.6681 0.5077   0.096676
 H 0.1147 0.7422 0.5101   0.110984
 H 0.3129 0.7255 0.4395   0.092945
 H 0.2973 0.3371 0.3385   0.147105
 H 0.2816 0.431 0.4087   0.084936
 H 0.7496 0.3989 0.4491   0.072677
 H 0.7713 0.2988 0.3847   0.141015
 H 0.6272 0.1681 0.5077   0.096675
 H 0.3853 0.2422 0.5101   0.110983
 H 0.1871 0.2255 0.4395   0.092943
 H 0.2027 0.8371 0.3385   0.147105
 H 0.2184 0.931 0.4087   0.084936
 H 0.7504 0.8989 0.4491   0.072677
 H 0.7287 0.7988 0.3847   0.141017
 H 0.8728 0.8319 0.0077   0.096675
 H 0.1147 0.7578 0.0101   0.110983
 H 0.3129 0.7745 0.9395   0.092943
 H 0.2973 0.1629 0.8385   0.147105
 H 0.2816 0.069 0.9087   0.084936
 H 0.7496 0.1011 0.9491   0.072677
 H 0.7713 0.2012 0.8847   0.141017
 H 0.3728 0.6681 0.9923   0.096677
 H 0.6147 0.7422 0.9899   0.110985
 H 0.8129 0.7255 0.0605   0.092946
 H 0.7973 0.3371 0.1615   0.147105
 H 0.7816 0.431 0.0913   0.084936
 H 0.2496 0.3989 0.0509   0.072677
 H 0.2713 0.2988 0.1153   0.141017
 H 0.1272 0.3319 0.4923   0.096677
 H 0.8853 0.2578 0.4899   0.110985
 H 0.6871 0.2745 0.5605   0.092946
 H 0.7027 0.6629 0.6615   0.147105
 H 0.7184 0.569 0.5913   0.084936
 H 0.2504 0.6011 0.5509   0.072677
 H 0.2287 0.7012 0.6153   0.141017
 C 0.8257 0.85968 0.65114   0.696964
 C 0.5077 0.96262 0.65222   0.713191
 C 0.2597 0.93052 0.5677   0.7388
 C 0.6912 0.85586 0.60633   -0.155501
 C 0.5447 0.89966 0.60875   -0.007
 C 0.425 0.88914 0.56564   -0.151416
 C 0.4522 0.8373 0.52108   -0.007967
 C 0.5974 0.7934 0.51927   -0.128688
 C 0.7152 0.80338 0.56169   -0.028432
 C 0.0555 0.25691 0.68996   0.724279
 C 0.0363 0.19319 0.64606   -0.037621
 C 0.8896 0.15236 0.63862   -0.131955
 C 0.8814 0.0955 0.59671   0.159566
 C 0.1566 0.11519 0.57235   0.142688
 C 0.1714 0.1743 0.61176   -0.124329
 C 0.6743 0.14032 0.15114   0.696964
 C 0.9923 0.03738 0.15222   0.713191
 C 0.2403 0.06948 0.0677   0.7388
 C 0.8088 0.14414 0.10633   -0.155501
 C 0.9553 0.10034 0.10875   -0.007
 C 0.075 0.11086 0.06564   -0.151416
 C 0.0478 0.1627 0.02108   -0.007967
 C 0.9026 0.2066 0.01927   -0.128688
 C 0.7848 0.19662 0.06169   -0.028432
 C 0.4445 0.74309 0.18996   0.724279
 C 0.4637 0.80681 0.14606   -0.037621
 C 0.6104 0.84764 0.13862   -0.131955
 C 0.6186 0.9045 0.09671   0.159566
 C 0.3434 0.88481 0.07235   0.142688
 C 0.3286 0.8257 0.11176   -0.124329
 C 0.1743 0.35968 0.84886   0.696964
 C 0.4923 0.46262 0.84778   0.713191
 C 0.7403 0.43052 0.9323   0.7388
 C 0.3088 0.35586 0.89367   -0.155501
 C 0.4553 0.39966 0.89125   -0.007
 C 0.575 0.38914 0.93436   -0.151416
 C 0.5478 0.3373 0.97892   -0.007967
 C 0.4026 0.2934 0.98073   -0.128688
 C 0.2848 0.30338 0.93831   -0.028433
 C 0.9445 0.75691 0.81004   0.724279
 C 0.9637 0.69319 0.85394   -0.037621
 C 0.1104 0.65236 0.86138   -0.131955
 C 0.1186 0.5955 0.90329   0.159566
 C 0.8434 0.61519 0.92765   0.142688
 C 0.8286 0.6743 0.88824   -0.124329
 C 0.3257 0.64032 0.34886   0.696964
 C 0.0077 0.53738 0.34778   0.713191
 C 0.7597 0.56948 0.4323   0.7388
 C 0.1912 0.64414 0.39367   -0.155501
 C 0.0447 0.60034 0.39125   -0.007
 C 0.925 0.61086 0.43436   -0.151416
 C 0.9522 0.6627 0.47892   -0.007967
 C 0.0974 0.7066 0.48073   -0.128688
 C 0.2152 0.69662 0.43831   -0.028433
 C 0.5555 0.24309 0.31004   0.724279
 C 0.5363 0.30681 0.35394   -0.037621
 C 0.3896 0.34764 0.36138   -0.131955
 C 0.3814 0.4045 0.40329   0.159566
 C 0.6566 0.38481 0.42765   0.142688
 C 0.6714 0.3257 0.38824   -0.124329
 C 0.1743 0.14032 0.34886   0.696964
 C 0.4923 0.03738 0.34778   0.713191
 C 0.7403 0.06948 0.4323   0.7388
 C 0.3088 0.14414 0.39367   -0.155501
 C 0.4553 0.10034 0.39125   -0.007
 C 0.575 0.11086 0.43436   -0.151415
 C 0.5478 0.1627 0.47892   -0.007967
 C 0.4026 0.2066 0.48073   -0.128689
 C 0.2848 0.19662 0.43831   -0.028433
 C 0.9445 0.74309 0.31004   0.724278
 C 0.9637 0.80681 0.35394   -0.037621
 C 0.1104 0.84764 0.36138   -0.131955
 C 0.1186 0.9045 0.40329   0.159566
 C 0.8434 0.88481 0.42765   0.142689
 C 0.8286 0.8257 0.38824   -0.124329
 C 0.3257 0.85968 0.84886   0.696964
 C 0.0077 0.96262 0.84778   0.713191
 C 0.7597 0.93052 0.9323   0.7388
 C 0.1912 0.85586 0.89367   -0.155501
 C 0.0447 0.89966 0.89125   -0.007
 C 0.925 0.88914 0.93436   -0.151415
 C 0.9522 0.8373 0.97892   -0.007967
 C 0.0974 0.7934 0.98073   -0.128689
 C 0.2152 0.80338 0.93831   -0.028433
 C 0.5555 0.25691 0.81004   0.724278
 C 0.5363 0.19319 0.85394   -0.037621
 C 0.3896 0.15236 0.86138   -0.131955
 C 0.3814 0.0955 0.90329   0.159566
 C 0.6566 0.11519 0.92765   0.142689
 C 0.6714 0.1743 0.88824   -0.124329
 C 0.8257 0.64032 0.15114   0.696964
 C 0.5077 0.53738 0.15222   0.713191
 C 0.2597 0.56948 0.0677   0.7388
 C 0.6912 0.64414 0.10633   -0.155501
 C 0.5447 0.60034 0.10875   -0.007
 C 0.425 0.61086 0.06564   -0.151415
 C 0.4522 0.6627 0.02108   -0.007967
 C 0.5974 0.7066 0.01927   -0.128689
 C 0.7152 0.69662 0.06169   -0.028434
 C 0.0555 0.24309 0.18996   0.724278
 C 0.0363 0.30681 0.14606   -0.037621
 C 0.8896 0.34764 0.13862   -0.131955
 C 0.8814 0.4045 0.09671   0.159566
 C 0.1566 0.38481 0.07235   0.142689
 C 0.1714 0.3257 0.11176   -0.124329
 C 0.6743 0.35968 0.65114   0.696964
 C 0.9923 0.46262 0.65222   0.713191
 C 0.2403 0.43052 0.5677   0.7388
 C 0.8088 0.35586 0.60633   -0.155501
 C 0.9553 0.39966 0.60875   -0.007
 C 0.075 0.38914 0.56564   -0.151415
 C 0.0478 0.3373 0.52108   -0.007967
 C 0.9026 0.2934 0.51927   -0.128689
 C 0.7848 0.30338 0.56169   -0.028434
 C 0.4445 0.75691 0.68996   0.724278
 C 0.4637 0.69319 0.64606   -0.037621
 C 0.6104 0.65236 0.63862   -0.131955
 C 0.6186 0.5955 0.59671   0.159566
 C 0.3434 0.61519 0.57235   0.142689
 C 0.3286 0.6743 0.61176   -0.124329
 N 0.0127 0.07746 0.56386   -0.33609
 N 0.4873 0.92254 0.06386   -0.33609
 N 0.9873 0.57746 0.93614   -0.33609
 N 0.5127 0.42254 0.43614   -0.33609
 N 0.9873 0.92254 0.43614   -0.33609
 N 0.5127 0.07746 0.93614   -0.33609
 N 0.0127 0.42254 0.06386   -0.33609
 N 0.4873 0.57746 0.56386   -0.33609
 O 0.8121 0.90865 0.69232   -0.805959
 O 0.9495 0.81688 0.64711   -0.596197
 O 0.4508 0.94178 0.70133   -0.900818
 O 0.5283 0.02954 0.63601   -0.530967
 O 0.184 0.93672 0.61347   -0.707818
 O 0.2093 0.95423 0.51925   -0.571901
 O 0.1981 0.28571 0.6933   -0.693161
 O 0.9323 0.27655 0.71951   -0.657701
 O 0.6879 0.09135 0.19232   -0.805959
 O 0.5505 0.18312 0.14711   -0.596197
 O 0.0492 0.05822 0.20133   -0.900818
 O 0.9717 0.97046 0.13601   -0.530967
 O 0.316 0.06328 0.11347   -0.707818
 O 0.2907 0.04577 0.01925   -0.571901
 O 0.3019 0.71429 0.1933   -0.693161
 O 0.5677 0.72345 0.21951   -0.657701
 O 0.1879 0.40865 0.80768   -0.805959
 O 0.0505 0.31688 0.85289   -0.596197
 O 0.5492 0.44178 0.79867   -0.900818
 O 0.4717 0.52954 0.86399   -0.530967
 O 0.816 0.43672 0.88653   -0.707818
 O 0.7907 0.45423 0.98075   -0.571901
 O 0.8019 0.78571 0.8067   -0.693161
 O 0.0677 0.77655 0.78049   -0.657701
 O 0.3121 0.59135 0.30768   -0.805959
 O 0.4495 0.68312 0.35289   -0.596197
 O 0.9508 0.55822 0.29867   -0.900818
 O 0.0283 0.47046 0.36399   -0.530967
 O 0.684 0.56328 0.38653   -0.707818
 O 0.7093 0.54577 0.48075   -0.571901
 O 0.6981 0.21429 0.3067   -0.693161
 O 0.4323 0.22345 0.28049   -0.657701
 O 0.1879 0.09135 0.30768   -0.805959
 O 0.0505 0.18312 0.35289   -0.596197
 O 0.5492 0.05822 0.29867   -0.900818
 O 0.4717 0.97046 0.36399   -0.530967
 O 0.816 0.06328 0.38653   -0.707818
 O 0.7907 0.04577 0.48075   -0.571901
 O 0.8019 0.71429 0.3067   -0.693162
 O 0.0677 0.72345 0.28049   -0.657702
 O 0.3121 0.90865 0.80768   -0.805959
 O 0.4495 0.81688 0.85289   -0.596197
 O 0.9508 0.94178 0.79867   -0.900818
 O 0.0283 0.02954 0.86399   -0.530967
 O 0.684 0.93672 0.88653   -0.707818
 O 0.7093 0.95423 0.98075   -0.571901
 O 0.6981 0.28571 0.8067   -0.693162
 O 0.4323 0.27655 0.78049   -0.657702
 O 0.8121 0.59135 0.19232   -0.805959
 O 0.9495 0.68312 0.14711   -0.596197
 O 0.4508 0.55822 0.20133   -0.900818
 O 0.5283 0.47046 0.13601   -0.530967
 O 0.184 0.56328 0.11347   -0.707818
 O 0.2093 0.54577 0.01925   -0.571901
 O 0.1981 0.21429 0.1933   -0.693162
 O 0.9323 0.22345 0.21951   -0.657702
 O 0.6879 0.40865 0.69232   -0.805959
 O 0.5505 0.31688 0.64711   -0.596197
 O 0.0492 0.44178 0.70133   -0.900818
 O 0.9717 0.52954 0.63601   -0.530967
 O 0.316 0.43672 0.61347   -0.707818
 O 0.2907 0.45423 0.51925   -0.571901
 O 0.3019 0.78571 0.6933   -0.693162
 O 0.5677 0.77655 0.71951   -0.657702
