{'_ref': 'TBD', '_srcid': 'CAKYAQ_clean', 'submitters': [{'name': 'Dalar Nazarian Jeff Camp and David Sholl', 'email': 'dalar@gatech.edu jcamp6@gatech.edu'}], '_method': 'VASP DFT with PBE;DDEC'}
data_Ce2CuH14C30(NO8)2
_symmetry_space_group_name_H-M   'P 1'
_cell_length_a   7.99050000
_cell_length_b   17.24500000
_cell_length_c   23.29870000
_cell_angle_alpha   90.00000000
_cell_angle_beta   90.00000000
_cell_angle_gamma   90.00000000
_symmetry_Int_Tables_number   1
_chemical_formula_structural   Ce2CuH14C30(NO8)2
_chemical_formula_sum   'Ce8 Cu4 H56 C120 N8 O64'
_cell_volume   3210.47168423
_cell_formula_units_Z   4
loop_
 _symmetry_equiv_pos_site_id
 _symmetry_equiv_pos_as_xyz
  1  'x, y, z'
loop_
 _atom_site_label
 _atom_site_fract_x
 _atom_site_fract_y
 _atom_site_fract_z
 _atom_site_charge
 Ce 0.13837 0.89661 0.21803   2.333046
 Ce 0.36163 0.10339 0.71803   2.333046
 Ce 0.86163 0.39661 0.28197   2.333046
 Ce 0.63837 0.60339 0.78197   2.333046
 Ce 0.86163 0.10339 0.78197   2.333045
 Ce 0.63837 0.89661 0.28197   2.333045
 Ce 0.13837 0.60339 0.71803   2.333045
 Ce 0.36163 0.39661 0.21803   2.333045
 Cu 0.5 0.0 0.5   0.839755
 Cu 0.0 0.0 0.0   0.839755
 Cu 0.5 0.5 0.0   0.839755
 Cu 0.0 0.5 0.5   0.839755
 H 0.8749 0.831 0.5074   0.097145
 H 0.1177 0.7582 0.5098   0.109106
 H 0.3166 0.7743 0.439   0.094645
 H 0.7037 0.8368 0.6613   0.146802
 H 0.7201 0.9305 0.5917   0.084652
 H 0.2497 0.8981 0.5509   0.071979
 H 0.226 0.8001 0.6162   0.142569
 H 0.6251 0.169 0.0074   0.097145
 H 0.3823 0.2418 0.0098   0.109106
 H 0.1834 0.2257 0.939   0.094645
 H 0.7963 0.1632 0.1613   0.146802
 H 0.7799 0.0695 0.0917   0.084652
 H 0.2503 0.1019 0.0509   0.071979
 H 0.274 0.1999 0.1162   0.142569
 H 0.1251 0.331 0.9926   0.097146
 H 0.8823 0.2582 0.9902   0.109108
 H 0.6834 0.2743 0.061   0.094648
 H 0.2963 0.3368 0.8387   0.146802
 H 0.2799 0.4305 0.9083   0.084652
 H 0.7503 0.3981 0.9491   0.071979
 H 0.774 0.3001 0.8838   0.142569
 H 0.3749 0.669 0.4926   0.097146
 H 0.6177 0.7418 0.4902   0.109108
 H 0.8166 0.7257 0.561   0.094648
 H 0.2037 0.6632 0.3387   0.146802
 H 0.2201 0.5695 0.4083   0.084652
 H 0.7497 0.6019 0.4491   0.071979
 H 0.726 0.6999 0.3838   0.142569
 H 0.1251 0.169 0.4926   0.097145
 H 0.8823 0.2418 0.4902   0.109106
 H 0.6834 0.2257 0.561   0.094645
 H 0.2963 0.1632 0.3387   0.146802
 H 0.2799 0.0695 0.4083   0.084652
 H 0.7503 0.1019 0.4491   0.071979
 H 0.774 0.1999 0.3838   0.142569
 H 0.3749 0.831 0.9926   0.097145
 H 0.6177 0.7582 0.9902   0.109106
 H 0.8166 0.7743 0.061   0.094645
 H 0.2037 0.8368 0.8387   0.146802
 H 0.2201 0.9305 0.9083   0.084652
 H 0.7497 0.8981 0.9491   0.071979
 H 0.726 0.8001 0.8838   0.142569
 H 0.8749 0.669 0.0074   0.097146
 H 0.1177 0.7418 0.0098   0.109108
 H 0.3166 0.7257 0.939   0.094648
 H 0.7037 0.6632 0.1613   0.146802
 H 0.7201 0.5695 0.0917   0.084652
 H 0.2497 0.6019 0.0509   0.071979
 H 0.226 0.6999 0.1162   0.142569
 H 0.6251 0.331 0.5074   0.097146
 H 0.3823 0.2582 0.5098   0.109108
 H 0.1834 0.2743 0.439   0.094648
 H 0.7963 0.3368 0.6613   0.146802
 H 0.7799 0.4305 0.5917   0.084652
 H 0.2503 0.3981 0.5509   0.071979
 H 0.274 0.3001 0.6162   0.142569
 C 0.3284 0.8599 0.34833   0.699528
 C 0.0101 0.9623 0.34725   0.724803
 C 0.7604 0.9297 0.4318   0.743099
 C 0.1943 0.8555 0.39341   -0.152336
 C 0.0468 0.8997 0.39103   -0.010802
 C 0.9262 0.8883 0.43393   -0.148389
 C 0.9544 0.8366 0.47853   -0.008071
 C 0.0998 0.7935 0.48026   -0.127206
 C 0.2186 0.8033 0.43777   -0.028205
 C 0.4454 0.7424 0.69022   0.736078
 C 0.4631 0.8063 0.64652   -0.035955
 C 0.6109 0.8475 0.63856   -0.134766
 C 0.6197 0.9042 0.59709   0.160956
 C 0.3427 0.8844 0.57268   0.142158
 C 0.3272 0.8262 0.61225   -0.12299
 C 0.1716 0.1401 0.84833   0.699528
 C 0.4899 0.0377 0.84725   0.724803
 C 0.7396 0.0703 0.9318   0.743099
 C 0.3057 0.1445 0.89341   -0.152336
 C 0.4532 0.1003 0.89103   -0.010802
 C 0.5738 0.1117 0.93393   -0.148389
 C 0.5456 0.1634 0.97853   -0.008071
 C 0.4002 0.2065 0.98026   -0.127206
 C 0.2814 0.1967 0.93777   -0.028205
 C 0.0546 0.2576 0.19022   0.736078
 C 0.0369 0.1937 0.14652   -0.035955
 C 0.8891 0.1525 0.13856   -0.134766
 C 0.8803 0.0958 0.09709   0.160956
 C 0.1573 0.1156 0.07268   0.142158
 C 0.1728 0.1738 0.11225   -0.12299
 C 0.6716 0.3599 0.15167   0.699528
 C 0.9899 0.4623 0.15275   0.724803
 C 0.2396 0.4297 0.0682   0.743099
 C 0.8057 0.3555 0.10659   -0.152336
 C 0.9532 0.3997 0.10897   -0.010803
 C 0.0738 0.3883 0.06607   -0.148389
 C 0.0456 0.3366 0.02147   -0.008071
 C 0.9002 0.2935 0.01974   -0.127206
 C 0.7814 0.3033 0.06223   -0.028206
 C 0.5546 0.2424 0.80978   0.736078
 C 0.5369 0.3063 0.85348   -0.035955
 C 0.3891 0.3475 0.86144   -0.134766
 C 0.3803 0.4042 0.90291   0.160957
 C 0.6573 0.3844 0.92732   0.142158
 C 0.6728 0.3262 0.88775   -0.12299
 C 0.8284 0.6401 0.65167   0.699528
 C 0.5101 0.5377 0.65275   0.724803
 C 0.2604 0.5703 0.5682   0.743099
 C 0.6943 0.6445 0.60659   -0.152336
 C 0.5468 0.6003 0.60897   -0.010803
 C 0.4262 0.6117 0.56607   -0.148389
 C 0.4544 0.6634 0.52147   -0.008071
 C 0.5998 0.7065 0.51974   -0.127206
 C 0.7186 0.6967 0.56223   -0.028206
 C 0.9454 0.7576 0.30978   0.736078
 C 0.9631 0.6937 0.35348   -0.035955
 C 0.1109 0.6525 0.36144   -0.134766
 C 0.1197 0.5958 0.40291   0.160957
 C 0.8427 0.6156 0.42732   0.142158
 C 0.8272 0.6738 0.38775   -0.12299
 C 0.6716 0.1401 0.65167   0.699528
 C 0.9899 0.0377 0.65275   0.724803
 C 0.2396 0.0703 0.5682   0.743099
 C 0.8057 0.1445 0.60659   -0.152336
 C 0.9532 0.1003 0.60897   -0.010802
 C 0.0738 0.1117 0.56607   -0.148389
 C 0.0456 0.1634 0.52147   -0.008071
 C 0.9002 0.2065 0.51974   -0.127206
 C 0.7814 0.1967 0.56223   -0.028205
 C 0.5546 0.2576 0.30978   0.736078
 C 0.5369 0.1937 0.35348   -0.035955
 C 0.3891 0.1525 0.36144   -0.134766
 C 0.3803 0.0958 0.40291   0.160956
 C 0.6573 0.1156 0.42732   0.142158
 C 0.6728 0.1738 0.38775   -0.12299
 C 0.8284 0.8599 0.15167   0.699528
 C 0.5101 0.9623 0.15275   0.724803
 C 0.2604 0.9297 0.0682   0.743099
 C 0.6943 0.8555 0.10659   -0.152336
 C 0.5468 0.8997 0.10897   -0.010802
 C 0.4262 0.8883 0.06607   -0.148389
 C 0.4544 0.8366 0.02147   -0.008071
 C 0.5998 0.7935 0.01974   -0.127206
 C 0.7186 0.8033 0.06223   -0.028205
 C 0.9454 0.7424 0.80978   0.736078
 C 0.9631 0.8063 0.85348   -0.035955
 C 0.1109 0.8475 0.86144   -0.134766
 C 0.1197 0.9042 0.90291   0.160956
 C 0.8427 0.8844 0.92732   0.142158
 C 0.8272 0.8262 0.88775   -0.12299
 C 0.3284 0.6401 0.84833   0.699528
 C 0.0101 0.5377 0.84725   0.724803
 C 0.7604 0.5703 0.9318   0.743099
 C 0.1943 0.6445 0.89341   -0.152336
 C 0.0468 0.6003 0.89103   -0.010803
 C 0.9262 0.6117 0.93393   -0.148389
 C 0.9544 0.6634 0.97853   -0.008072
 C 0.0998 0.7065 0.98026   -0.127206
 C 0.2186 0.6967 0.93777   -0.028206
 C 0.4454 0.7576 0.19022   0.736078
 C 0.4631 0.6937 0.14652   -0.035955
 C 0.6109 0.6525 0.13856   -0.134766
 C 0.6197 0.5958 0.09709   0.160957
 C 0.3427 0.6156 0.07268   0.142158
 C 0.3272 0.6738 0.11225   -0.12299
 C 0.1716 0.3599 0.34833   0.699528
 C 0.4899 0.4623 0.34725   0.724803
 C 0.7396 0.4297 0.4318   0.743099
 C 0.3057 0.3555 0.39341   -0.152336
 C 0.4532 0.3997 0.39103   -0.010803
 C 0.5738 0.3883 0.43393   -0.148389
 C 0.5456 0.3366 0.47853   -0.008072
 C 0.4002 0.2935 0.48026   -0.127206
 C 0.2814 0.3033 0.43777   -0.028206
 C 0.0546 0.2424 0.69022   0.736078
 C 0.0369 0.3063 0.64652   -0.035955
 C 0.8891 0.3475 0.63856   -0.134766
 C 0.8803 0.4042 0.59709   0.160957
 C 0.1573 0.3844 0.57268   0.142158
 C 0.1728 0.3262 0.61225   -0.12299
 N 0.4874 0.92278 0.56404   -0.337644
 N 0.0126 0.07722 0.06404   -0.337644
 N 0.5126 0.42278 0.93596   -0.337644
 N 0.9874 0.57722 0.43596   -0.337644
 N 0.5126 0.07722 0.43596   -0.337644
 N 0.9874 0.92278 0.93596   -0.337644
 N 0.4874 0.57722 0.06404   -0.337644
 N 0.0126 0.42278 0.56404   -0.337644
 O 0.3142 0.90904 0.30702   -0.835738
 O 0.453 0.8164 0.35178   -0.606233
 O 0.9525 0.94211 0.29805   -0.937613
 O 0.0284 0.0296 0.36349   -0.531371
 O 0.6845 0.93651 0.38555   -0.727826
 O 0.7087 0.95312 0.48034   -0.573721
 O 0.3014 0.71335 0.69302   -0.720172
 O 0.5681 0.723 0.71981   -0.667406
 O 0.1858 0.09096 0.80702   -0.835738
 O 0.047 0.1836 0.85178   -0.606233
 O 0.5475 0.05789 0.79805   -0.937613
 O 0.4716 0.9704 0.86349   -0.531371
 O 0.8155 0.06349 0.88555   -0.727826
 O 0.7913 0.04688 0.98034   -0.573721
 O 0.1986 0.28665 0.19302   -0.720172
 O 0.9319 0.277 0.21981   -0.667406
 O 0.6858 0.40904 0.19298   -0.835738
 O 0.547 0.3164 0.14822   -0.606233
 O 0.0475 0.44211 0.20195   -0.937613
 O 0.9716 0.5296 0.13651   -0.531371
 O 0.3155 0.43651 0.11445   -0.727826
 O 0.2913 0.45312 0.01966   -0.573721
 O 0.6986 0.21335 0.80698   -0.720172
 O 0.4319 0.223 0.78019   -0.667406
 O 0.8142 0.59096 0.69298   -0.835738
 O 0.953 0.6836 0.64822   -0.606233
 O 0.4525 0.55789 0.70195   -0.937613
 O 0.5284 0.4704 0.63651   -0.531371
 O 0.1845 0.56349 0.61445   -0.727826
 O 0.2087 0.54688 0.51966   -0.573721
 O 0.8014 0.78665 0.30698   -0.720172
 O 0.0681 0.777 0.28019   -0.667406
 O 0.6858 0.09096 0.69298   -0.835738
 O 0.547 0.1836 0.64822   -0.606233
 O 0.0475 0.05789 0.70195   -0.937613
 O 0.9716 0.9704 0.63651   -0.531371
 O 0.3155 0.06349 0.61445   -0.727826
 O 0.2913 0.04688 0.51966   -0.573721
 O 0.6986 0.28665 0.30698   -0.720172
 O 0.4319 0.277 0.28019   -0.667407
 O 0.8142 0.90904 0.19298   -0.835738
 O 0.953 0.8164 0.14822   -0.606233
 O 0.4525 0.94211 0.20195   -0.937613
 O 0.5284 0.0296 0.13651   -0.531371
 O 0.1845 0.93651 0.11445   -0.727826
 O 0.2087 0.95312 0.01966   -0.573721
 O 0.8014 0.71335 0.80698   -0.720172
 O 0.0681 0.723 0.78019   -0.667407
 O 0.3142 0.59096 0.80702   -0.835738
 O 0.453 0.6836 0.85178   -0.606233
 O 0.9525 0.55789 0.79805   -0.937613
 O 0.0284 0.4704 0.86349   -0.531371
 O 0.6845 0.56349 0.88555   -0.727826
 O 0.7087 0.54688 0.98034   -0.573721
 O 0.3014 0.78665 0.19302   -0.720172
 O 0.5681 0.777 0.21981   -0.667407
 O 0.1858 0.40904 0.30702   -0.835738
 O 0.047 0.3164 0.35178   -0.606233
 O 0.5475 0.44211 0.29805   -0.937613
 O 0.4716 0.5296 0.36349   -0.531371
 O 0.8155 0.43651 0.38555   -0.727826
 O 0.7913 0.45312 0.48034   -0.573721
 O 0.1986 0.21335 0.69302   -0.720172
 O 0.9319 0.223 0.71981   -0.667407
