{'_ref': 'TBD', '_srcid': 'CAKYAQ_clean', 'submitters': [{'name': 'Dalar Nazarian Jeff Camp and David Sholl', 'email': 'dalar@gatech.edu jcamp6@gatech.edu'}], '_method': 'VASP DFT with PBE;DDEC'}
data_Cu2H19C19NO7
_symmetry_space_group_name_H-M   'P 1'
_cell_length_a   14.25299961
_cell_length_b   14.27900000
_cell_length_c   26.90300000
_cell_angle_alpha   90.00000000
_cell_angle_beta   97.89999975
_cell_angle_gamma   90.00000000
_symmetry_Int_Tables_number   1
_chemical_formula_structural   Cu2H19C19NO7
_chemical_formula_sum   'Cu16 H152 C152 N8 O56'
_cell_volume   5423.29723877
_cell_formula_units_Z   8
loop_
 _symmetry_equiv_pos_site_id
 _symmetry_equiv_pos_as_xyz
  1  'x, y, z'
loop_
 _atom_site_label
 _atom_site_fract_x
 _atom_site_fract_y
 _atom_site_fract_z
 _atom_site_charge
 Cu 0.0 0.0 0.5   1.087768
 Cu 0.0 0.0 0.0   1.087768
 Cu 0.5 0.5 0.5   1.087768
 Cu 0.5 0.5 0.0   1.087768
 Cu 0.95969 0.20346 0.5174   0.834422
 Cu 0.04031 0.20346 0.9826   0.834422
 Cu 0.45969 0.70346 0.5174   0.834422
 Cu 0.54031 0.70346 0.9826   0.834422
 Cu 0.04031 0.79654 0.4826   0.834422
 Cu 0.95969 0.79654 0.0174   0.834422
 Cu 0.54031 0.29654 0.4826   0.834422
 Cu 0.45969 0.29654 0.0174   0.834422
 Cu 0.75 0.25 0.5   1.052861
 Cu 0.25 0.25 0.0   1.052861
 Cu 0.25 0.75 0.5   1.052861
 Cu 0.75 0.75 0.0   1.052861
 H 0.9029 0.0048 0.3412   0.084946
 H 0.0971 0.0048 0.1588   0.084946
 H 0.4029 0.5048 0.3412   0.084946
 H 0.5971 0.5048 0.1588   0.084946
 H 0.0971 0.9952 0.6588   0.084946
 H 0.9029 0.9952 0.8412   0.084946
 H 0.5971 0.4952 0.6588   0.084946
 H 0.4029 0.4952 0.8412   0.084946
 H 0.8526 0.0295 0.2571   0.124245
 H 0.1474 0.0295 0.2429   0.124244
 H 0.3526 0.5295 0.2571   0.124245
 H 0.6474 0.5295 0.2429   0.124244
 H 0.1474 0.9705 0.7429   0.124245
 H 0.8526 0.9705 0.7571   0.124244
 H 0.6474 0.4705 0.7429   0.124245
 H 0.3526 0.4705 0.7571   0.124244
 H 0.7358 0.2684 0.2882   0.130259
 H 0.2642 0.2684 0.2118   0.130259
 H 0.2358 0.7684 0.2882   0.130259
 H 0.7642 0.7684 0.2118   0.130259
 H 0.2642 0.7316 0.7118   0.130259
 H 0.7358 0.7316 0.7882   0.130259
 H 0.7642 0.2316 0.7118   0.130259
 H 0.2358 0.2316 0.7882   0.130259
 H 0.7953 0.2522 0.3722   0.09344
 H 0.2047 0.2522 0.1278   0.09344
 H 0.2953 0.7522 0.3722   0.09344
 H 0.7047 0.7522 0.1278   0.09344
 H 0.2047 0.7478 0.6278   0.09344
 H 0.7953 0.7478 0.8722   0.09344
 H 0.7047 0.2478 0.6278   0.09344
 H 0.2953 0.2478 0.8722   0.09344
 H 0.6522 0.0297 0.1842   0.135518
 H 0.3478 0.0297 0.3158   0.135515
 H 0.1522 0.5297 0.1842   0.135518
 H 0.8478 0.5297 0.3158   0.135515
 H 0.3478 0.9703 0.8158   0.135518
 H 0.6522 0.9703 0.6842   0.135515
 H 0.8478 0.4703 0.8158   0.135518
 H 0.1522 0.4703 0.6842   0.135515
 H 0.6714 0.9251 0.1206   0.101359
 H 0.3286 0.9251 0.3794   0.101359
 H 0.1714 0.4251 0.1206   0.101359
 H 0.8286 0.4251 0.3794   0.101359
 H 0.3286 0.0749 0.8794   0.101359
 H 0.6714 0.0749 0.6206   0.101359
 H 0.8286 0.5749 0.8794   0.101359
 H 0.1714 0.5749 0.6206   0.101359
 H 0.9101 0.0528 0.1017   0.093884
 H 0.0899 0.0528 0.3983   0.093884
 H 0.4101 0.5528 0.1017   0.093884
 H 0.5899 0.5528 0.3983   0.093884
 H 0.0899 0.9472 0.8983   0.093884
 H 0.9101 0.9472 0.6017   0.093884
 H 0.5899 0.4472 0.8983   0.093884
 H 0.4101 0.4472 0.6017   0.093884
 H 0.8872 0.1598 0.1617   0.14235
 H 0.1128 0.1598 0.3383   0.14235
 H 0.3872 0.6598 0.1617   0.14235
 H 0.6128 0.6598 0.3383   0.14235
 H 0.1128 0.8402 0.8383   0.14235
 H 0.8872 0.8402 0.6617   0.14235
 H 0.6128 0.3402 0.8383   0.14235
 H 0.3872 0.3402 0.6617   0.14235
 H 0.8743 0.304 0.6036   0.026624
 H 0.1257 0.304 0.8964   0.026624
 H 0.3743 0.804 0.6036   0.026624
 H 0.6257 0.804 0.8964   0.026624
 H 0.1257 0.696 0.3964   0.026624
 H 0.8743 0.696 0.1036   0.026624
 H 0.6257 0.196 0.3964   0.026624
 H 0.3743 0.196 0.1036   0.026624
 H 0.8755 0.4032 0.5784   0.06625
 H 0.1245 0.4032 0.9216   0.06625
 H 0.3755 0.9032 0.5784   0.06625
 H 0.6245 0.9032 0.9216   0.06625
 H 0.1245 0.5968 0.4216   0.06625
 H 0.8755 0.5968 0.0784   0.06625
 H 0.6245 0.0968 0.4216   0.06625
 H 0.3755 0.0968 0.0784   0.06625
 H 0.0236 0.3586 0.623   0.07993
 H 0.9764 0.3586 0.877   0.07993
 H 0.5236 0.8586 0.623   0.07993
 H 0.4764 0.8586 0.877   0.07993
 H 0.9764 0.6414 0.377   0.07993
 H 0.0236 0.6414 0.123   0.07993
 H 0.4764 0.1414 0.377   0.07993
 H 0.5236 0.1414 0.123   0.07993
 H 0.0287 0.3876 0.5672   0.093567
 H 0.9713 0.3876 0.9328   0.093567
 H 0.5287 0.8876 0.5672   0.093567
 H 0.4713 0.8876 0.9328   0.093567
 H 0.9713 0.6124 0.4328   0.093568
 H 0.0287 0.6124 0.0672   0.093568
 H 0.4713 0.1124 0.4328   0.093568
 H 0.5287 0.1124 0.0672   0.093568
 H 0.2008 0.1489 0.5162   0.056413
 H 0.7992 0.1489 0.9838   0.056413
 H 0.7008 0.6489 0.5162   0.056413
 H 0.2992 0.6489 0.9838   0.056413
 H 0.7992 0.8511 0.4838   0.056414
 H 0.2008 0.8511 0.0162   0.056414
 H 0.2992 0.3511 0.4838   0.056414
 H 0.7008 0.3511 0.0162   0.056414
 H 0.1675 0.0963 0.5621   0.039717
 H 0.8325 0.0963 0.9379   0.039717
 H 0.6675 0.5963 0.5621   0.039717
 H 0.3325 0.5963 0.9379   0.039717
 H 0.8325 0.9037 0.4379   0.039717
 H 0.1675 0.9037 0.0621   0.039717
 H 0.3325 0.4037 0.4379   0.039717
 H 0.6675 0.4037 0.0621   0.039717
 H 0.1861 0.2451 0.5917   0.078374
 H 0.8139 0.2451 0.9083   0.078374
 H 0.6861 0.7451 0.5917   0.078374
 H 0.3139 0.7451 0.9083   0.078374
 H 0.8139 0.7549 0.4083   0.078374
 H 0.1861 0.7549 0.0917   0.078374
 H 0.3139 0.2549 0.4083   0.078374
 H 0.6861 0.2549 0.0917   0.078374
 H 0.1468 0.289 0.5395   0.081563
 H 0.8532 0.289 0.9605   0.081563
 H 0.6468 0.789 0.5395   0.081563
 H 0.3532 0.789 0.9605   0.081563
 H 0.8532 0.711 0.4605   0.081563
 H 0.1468 0.711 0.0395   0.081563
 H 0.3532 0.211 0.4605   0.081563
 H 0.6468 0.211 0.0395   0.081563
 H 0.9721 0.1902 0.6314   0.110499
 H 0.0279 0.1902 0.8686   0.110499
 H 0.4721 0.6902 0.6314   0.110499
 H 0.5279 0.6902 0.8686   0.110499
 H 0.0279 0.8098 0.3686   0.110499
 H 0.9721 0.8098 0.1314   0.110499
 H 0.5279 0.3098 0.3686   0.110499
 H 0.4721 0.3098 0.1314   0.110499
 H 0.0782 0.2116 0.6522   0.092135
 H 0.9218 0.2116 0.8478   0.092135
 H 0.5782 0.7116 0.6522   0.092135
 H 0.4218 0.7116 0.8478   0.092135
 H 0.9218 0.7884 0.3478   0.092135
 H 0.0782 0.7884 0.1522   0.092135
 H 0.4218 0.2884 0.3478   0.092135
 H 0.5782 0.2884 0.1522   0.092135
 H 0.0527 0.1247 0.6174   0.115187
 H 0.9473 0.1247 0.8826   0.115187
 H 0.5527 0.6247 0.6174   0.115187
 H 0.4473 0.6247 0.8826   0.115187
 H 0.9473 0.8753 0.3826   0.115187
 H 0.0527 0.8753 0.1174   0.115187
 H 0.4473 0.3753 0.3826   0.115187
 H 0.5527 0.3753 0.1174   0.115187
 C 0.8937 0.1135 0.4199   0.687023
 C 0.1063 0.1135 0.0801   0.687023
 C 0.3937 0.6135 0.4199   0.687023
 C 0.6063 0.6135 0.0801   0.687023
 C 0.1063 0.8865 0.5801   0.687023
 C 0.8937 0.8865 0.9199   0.687023
 C 0.6063 0.3865 0.5801   0.687023
 C 0.3937 0.3865 0.9199   0.687023
 C 0.857 0.1273 0.3659   -0.194681
 C 0.143 0.1273 0.1341   -0.194681
 C 0.357 0.6273 0.3659   -0.194681
 C 0.643 0.6273 0.1341   -0.194681
 C 0.143 0.8727 0.6341   -0.194681
 C 0.857 0.8727 0.8659   -0.194681
 C 0.643 0.3727 0.6341   -0.194681
 C 0.357 0.3727 0.8659   -0.194681
 C 0.8714 0.06 0.3309   0.019014
 C 0.1286 0.06 0.1691   0.019014
 C 0.3714 0.56 0.3309   0.019014
 C 0.6286 0.56 0.1691   0.019014
 C 0.1286 0.94 0.6691   0.019014
 C 0.8714 0.94 0.8309   0.019014
 C 0.6286 0.44 0.6691   0.019014
 C 0.3714 0.44 0.8309   0.019014
 C 0.8395 0.0738 0.2805   -0.27857
 C 0.1605 0.0738 0.2195   -0.278571
 C 0.3395 0.5738 0.2805   -0.27857
 C 0.6605 0.5738 0.2195   -0.278571
 C 0.1605 0.9262 0.7195   -0.27857
 C 0.8395 0.9262 0.7805   -0.278571
 C 0.6605 0.4262 0.7195   -0.27857
 C 0.3395 0.4262 0.7805   -0.278571
 C 0.79 0.1502 0.2653   0.325249
 C 0.21 0.1502 0.2347   0.325249
 C 0.29 0.6502 0.2653   0.325249
 C 0.71 0.6502 0.2347   0.325249
 C 0.21 0.8498 0.7347   0.325249
 C 0.79 0.8498 0.7653   0.325249
 C 0.71 0.3498 0.7347   0.325249
 C 0.29 0.3498 0.7653   0.325249
 C 0.7718 0.216 0.299   -0.261537
 C 0.2282 0.216 0.201   -0.261537
 C 0.2718 0.716 0.299   -0.261537
 C 0.7282 0.716 0.201   -0.261537
 C 0.2282 0.784 0.701   -0.261537
 C 0.7718 0.784 0.799   -0.261537
 C 0.7282 0.284 0.701   -0.261537
 C 0.2718 0.284 0.799   -0.261537
 C 0.8064 0.2057 0.3494   0.020683
 C 0.1936 0.2057 0.1506   0.020683
 C 0.3064 0.7057 0.3494   0.020683
 C 0.6936 0.7057 0.1506   0.020683
 C 0.1936 0.7943 0.6506   0.020683
 C 0.8064 0.7943 0.8494   0.020683
 C 0.6936 0.2943 0.6506   0.020683
 C 0.3064 0.2943 0.8494   0.020683
 C 0.7699 0.1031 0.1788   0.296244
 C 0.2301 0.1031 0.3212   0.296244
 C 0.2699 0.6031 0.1788   0.296244
 C 0.7301 0.6031 0.3212   0.296244
 C 0.2301 0.8969 0.8212   0.296244
 C 0.7699 0.8969 0.6788   0.296244
 C 0.7301 0.3969 0.8212   0.296244
 C 0.2699 0.3969 0.6788   0.296244
 C 0.7044 0.0343 0.1671   -0.255722
 C 0.2956 0.0343 0.3329   -0.255721
 C 0.2044 0.5343 0.1671   -0.255722
 C 0.7956 0.5343 0.3329   -0.255721
 C 0.2956 0.9657 0.8329   -0.255722
 C 0.7044 0.9657 0.6671   -0.255721
 C 0.7956 0.4657 0.8329   -0.255722
 C 0.2044 0.4657 0.6671   -0.255721
 C 0.7168 0.9712 0.1294   0.004667
 C 0.2832 0.9712 0.3706   0.004667
 C 0.2168 0.4712 0.1294   0.004667
 C 0.7832 0.4712 0.3706   0.004667
 C 0.2832 0.0288 0.8706   0.004667
 C 0.7168 0.0288 0.6294   0.004667
 C 0.7832 0.5288 0.8706   0.004667
 C 0.2168 0.5288 0.6294   0.004667
 C 0.7946 0.9758 0.1047   -0.174745
 C 0.2054 0.9758 0.3953   -0.174745
 C 0.2946 0.4758 0.1047   -0.174745
 C 0.7054 0.4758 0.3953   -0.174745
 C 0.2054 0.0242 0.8953   -0.174745
 C 0.7946 0.0242 0.6047   -0.174745
 C 0.7054 0.5242 0.8953   -0.174745
 C 0.2946 0.5242 0.6047   -0.174745
 C 0.8569 0.0474 0.1181   0.024025
 C 0.1431 0.0474 0.3819   0.024025
 C 0.3569 0.5474 0.1181   0.024025
 C 0.6431 0.5474 0.3819   0.024025
 C 0.1431 0.9526 0.8819   0.024025
 C 0.8569 0.9526 0.6181   0.024025
 C 0.6431 0.4526 0.8819   0.024025
 C 0.3569 0.4526 0.6181   0.024025
 C 0.8442 0.1112 0.1543   -0.247684
 C 0.1558 0.1112 0.3457   -0.247684
 C 0.3442 0.6112 0.1543   -0.247684
 C 0.6558 0.6112 0.3457   -0.247684
 C 0.1558 0.8888 0.8457   -0.247684
 C 0.8442 0.8888 0.6543   -0.247684
 C 0.6558 0.3888 0.8457   -0.247684
 C 0.3442 0.3888 0.6543   -0.247684
 C 0.8115 0.9079 0.0648   0.708449
 C 0.1885 0.9079 0.4352   0.708449
 C 0.3115 0.4079 0.0648   0.708449
 C 0.6885 0.4079 0.4352   0.708449
 C 0.1885 0.0921 0.9352   0.708449
 C 0.8115 0.0921 0.5648   0.708449
 C 0.6885 0.5921 0.9352   0.708449
 C 0.3115 0.5921 0.5648   0.708449
 C 0.8997 0.3398 0.5779   0.165715
 C 0.1003 0.3398 0.9221   0.165715
 C 0.3997 0.8398 0.5779   0.165715
 C 0.6003 0.8398 0.9221   0.165715
 C 0.1003 0.6602 0.4221   0.165715
 C 0.8997 0.6602 0.0779   0.165715
 C 0.6003 0.1602 0.4221   0.165715
 C 0.3997 0.1602 0.0779   0.165715
 C 0.0042 0.3411 0.5883   -0.107746
 C 0.9958 0.3411 0.9117   -0.107746
 C 0.5042 0.8411 0.5883   -0.107746
 C 0.4958 0.8411 0.9117   -0.107746
 C 0.9958 0.6589 0.4117   -0.107747
 C 0.0042 0.6589 0.0883   -0.107747
 C 0.4958 0.1589 0.4117   -0.107747
 C 0.5042 0.1589 0.0883   -0.107747
 C 0.1507 0.1445 0.5371   0.180722
 C 0.8493 0.1445 0.9629   0.180722
 C 0.6507 0.6445 0.5371   0.180722
 C 0.3493 0.6445 0.9629   0.180722
 C 0.8493 0.8555 0.4629   0.180722
 C 0.1507 0.8555 0.0371   0.180722
 C 0.3493 0.3555 0.4629   0.180722
 C 0.6507 0.3555 0.0371   0.180722
 C 0.138 0.2387 0.5626   -0.111336
 C 0.862 0.2387 0.9374   -0.111336
 C 0.638 0.7387 0.5626   -0.111336
 C 0.362 0.7387 0.9374   -0.111336
 C 0.862 0.7613 0.4374   -0.111336
 C 0.138 0.7613 0.0626   -0.111336
 C 0.362 0.2613 0.4374   -0.111336
 C 0.638 0.2613 0.0626   -0.111336
 C 0.0361 0.1882 0.624   -0.196716
 C 0.9639 0.1882 0.876   -0.196716
 C 0.5361 0.6882 0.624   -0.196716
 C 0.4639 0.6882 0.876   -0.196716
 C 0.9639 0.8118 0.376   -0.196716
 C 0.0361 0.8118 0.124   -0.196716
 C 0.4639 0.3118 0.376   -0.196716
 C 0.5361 0.3118 0.124   -0.196716
 N 0.0442 0.2477 0.5786   -0.085822
 N 0.9558 0.2477 0.9214   -0.085822
 N 0.5442 0.7477 0.5786   -0.085822
 N 0.4558 0.7477 0.9214   -0.085822
 N 0.9558 0.7523 0.4214   -0.085822
 N 0.0442 0.7523 0.0786   -0.085822
 N 0.4558 0.2523 0.4214   -0.085822
 N 0.5442 0.2523 0.0786   -0.085822
 O 0.8867 0.1845 0.44836   -0.621412
 O 0.1133 0.1845 0.05164   -0.621412
 O 0.3867 0.6845 0.44836   -0.621412
 O 0.6133 0.6845 0.05164   -0.621412
 O 0.1133 0.8155 0.55164   -0.621412
 O 0.8867 0.8155 0.94836   -0.621412
 O 0.6133 0.3155 0.55164   -0.621412
 O 0.3867 0.3155 0.94836   -0.621412
 O 0.9347 0.0387 0.43367   -0.585302
 O 0.0653 0.0387 0.06633   -0.585302
 O 0.4347 0.5387 0.43367   -0.585302
 O 0.5653 0.5387 0.06633   -0.585302
 O 0.0653 0.9613 0.56633   -0.585302
 O 0.9347 0.9613 0.93367   -0.585302
 O 0.5653 0.4613 0.56633   -0.585302
 O 0.4347 0.4613 0.93367   -0.585302
 O 0.7536 0.1701 0.21591   -0.314347
 O 0.2464 0.1701 0.28409   -0.314347
 O 0.2536 0.6701 0.21591   -0.314347
 O 0.7464 0.6701 0.28409   -0.314347
 O 0.2464 0.8299 0.78409   -0.314347
 O 0.7536 0.8299 0.71591   -0.314347
 O 0.7464 0.3299 0.78409   -0.314347
 O 0.2536 0.3299 0.71591   -0.314347
 O 0.8854 0.915 0.0463   -0.687531
 O 0.1146 0.915 0.4537   -0.687531
 O 0.3854 0.415 0.0463   -0.687531
 O 0.6146 0.415 0.4537   -0.687531
 O 0.1146 0.085 0.9537   -0.687531
 O 0.8854 0.085 0.5463   -0.687531
 O 0.6146 0.585 0.9537   -0.687531
 O 0.3854 0.585 0.5463   -0.687531
 O 0.7511 0.8468 0.05313   -0.591914
 O 0.2489 0.8468 0.44687   -0.591914
 O 0.2511 0.3468 0.05313   -0.591914
 O 0.7489 0.3468 0.44687   -0.591914
 O 0.2489 0.1532 0.94687   -0.591914
 O 0.7511 0.1532 0.55313   -0.591914
 O 0.7489 0.6532 0.94687   -0.591914
 O 0.2511 0.6532 0.55313   -0.591914
 O 0.8704 0.2982 0.52948   -0.675337
 O 0.1296 0.2982 0.97052   -0.675337
 O 0.3704 0.7982 0.52948   -0.675337
 O 0.6296 0.7982 0.97052   -0.675337
 O 0.1296 0.7018 0.47052   -0.675337
 O 0.8704 0.7018 0.02948   -0.675337
 O 0.6296 0.2018 0.47052   -0.675337
 O 0.3704 0.2018 0.02948   -0.675337
 O 0.0616 0.1222 0.5069   -0.692385
 O 0.9384 0.1222 0.9931   -0.692385
 O 0.5616 0.6222 0.5069   -0.692385
 O 0.4384 0.6222 0.9931   -0.692385
 O 0.9384 0.8778 0.4931   -0.692384
 O 0.0616 0.8778 0.0069   -0.692384
 O 0.4384 0.3778 0.4931   -0.692384
 O 0.5616 0.3778 0.0069   -0.692384
