{'_ref': 'TBD', '_srcid': 'CAKYAQ_clean', 'submitters': [{'name': 'Dalar Nazarian Jeff Camp and David Sholl', 'email': 'dalar@gatech.edu jcamp6@gatech.edu'}], '_method': 'VASP DFT with PBE;DDEC'}
data_CoH8C15(NO)4
_symmetry_space_group_name_H-M   'P 1'
_cell_length_a   8.02309960
_cell_length_b   9.53040014
_cell_length_c   15.47140000
_cell_angle_alpha   96.70900240
_cell_angle_beta   103.63699986
_cell_angle_gamma   99.06300105
_symmetry_Int_Tables_number   1
_chemical_formula_structural   CoH8C15(NO)4
_chemical_formula_sum   'Co2 H16 C30 N8 O8'
_cell_volume   1120.58667157
_cell_formula_units_Z   2
loop_
 _symmetry_equiv_pos_site_id
 _symmetry_equiv_pos_as_xyz
  1  'x, y, z'
loop_
 _atom_site_label
 _atom_site_fract_x
 _atom_site_fract_y
 _atom_site_fract_z
 _atom_site_charge
 Co 0.0 0.5 0.0   0.915906
 Co 0.0 0.0 0.5   0.982568
 H 0.445 0.7439 0.8339   0.116304
 H 0.1131 0.4665 0.6212   0.119744
 H 0.5243 0.3364 0.7779   0.114356
 H 0.1565 0.719 0.5594   0.125783
 H 0.2382 0.057 0.8889   0.129409
 H 0.2643 0.0405 0.044   0.143616
 H 0.1719 0.8244 0.0848   0.098058
 H 0.0337 0.6292 0.8327   0.081318
 H 0.555 0.2561 0.1661   0.116304
 H 0.8869 0.5335 0.3788   0.119744
 H 0.4757 0.6636 0.2221   0.114358
 H 0.8435 0.281 0.4406   0.125783
 H 0.7618 0.943 0.1111   0.12941
 H 0.7357 0.9595 0.956   0.143616
 H 0.8281 0.1756 0.9152   0.09806
 H 0.9663 0.3708 0.1673   0.081318
 C 0.6595 0.5722 0.9031   0.661391
 C 0.5048 0.543 0.8198   -0.085907
 C 0.4115 0.651 0.7981   -0.127889
 C 0.2677 0.6208 0.7229   0.094164
 C 0.2145 0.4859 0.6704   -0.141595
 C 0.3111 0.3785 0.6904   -0.066421
 C 0.4569 0.4084 0.7647   -0.022455
 C 0.2607 0.2337 0.6315   0.657364
 C 0.1381 0.7715 0.6113   0.162878
 C 0.1282 0.8393 0.7491   0.282068
 C 0.1383 0.8409 0.8454   -0.114036
 C 0.2039 0.9678 0.9075   0.022609
 C 0.217 0.9577 0.9991   -0.17083
 C 0.1614 0.8285 0.0227   0.176593
 C 0.0818 0.7141 0.8759   0.155989
 C 0.3405 0.4278 0.0969   0.66139
 C 0.4952 0.457 0.1802   -0.085907
 C 0.5885 0.349 0.2019   -0.127889
 C 0.7323 0.3792 0.2771   0.094163
 C 0.7855 0.5141 0.3296   -0.141594
 C 0.6889 0.6215 0.3096   -0.066421
 C 0.5431 0.5916 0.2353   -0.022456
 C 0.7393 0.7663 0.3685   0.657363
 C 0.8619 0.2285 0.3887   0.162878
 C 0.8718 0.1607 0.2509   0.282068
 C 0.8617 0.1591 0.1546   -0.114036
 C 0.7961 0.0322 0.0925   0.022608
 C 0.783 0.0423 0.000900000000001   -0.170831
 C 0.8386 0.1715 0.9773   0.176593
 C 0.9182 0.2859 0.1241   0.155989
 N 0.1773 0.7354 0.69608   -0.04834
 N 0.0721 0.8877 0.61204   -0.227371
 N 0.0641 0.9325 0.69959   -0.284062
 N 0.0919 0.7056 0.9629   -0.351805
 N 0.8227 0.2646 0.30392   -0.04834
 N 0.9279 0.1123 0.38796   -0.227371
 N 0.9359 0.0675 0.30041   -0.284062
 N 0.9081 0.2944 0.0371   -0.351804
 O 0.6736 0.6796 0.96138   -0.599381
 O 0.7615 0.4816 0.90682   -0.622143
 O 0.3778 0.1579 0.63272   -0.592131
 O 0.1047 0.1976 0.58259   -0.636515
 O 0.3264 0.3204 0.03862   -0.599381
 O 0.2385 0.5184 0.09318   -0.622143
 O 0.6222 0.8421 0.36728   -0.592131
 O 0.8953 0.8024 0.41741   -0.636515
