{'_ref': 'TBD', '_srcid': 'CAKYAQ_clean', 'submitters': [{'name': 'Dalar Nazarian Jeff Camp and David Sholl', 'email': 'dalar@gatech.edu jcamp6@gatech.edu'}], '_method': 'VASP DFT with PBE;DDEC'}
data_DyH11(C7O2)3
_symmetry_space_group_name_H-M   'P 1'
_cell_length_a   8.71589954
_cell_length_b   10.97370018
_cell_length_c   12.32300000
_cell_angle_alpha   68.44800188
_cell_angle_beta   86.19599871
_cell_angle_gamma   79.60500153
_symmetry_Int_Tables_number   1
_chemical_formula_structural   DyH11(C7O2)3
_chemical_formula_sum   'Dy2 H22 C42 O12'
_cell_volume   1078.24405769
_cell_formula_units_Z   2
loop_
 _symmetry_equiv_pos_site_id
 _symmetry_equiv_pos_as_xyz
  1  'x, y, z'
loop_
 _atom_site_label
 _atom_site_fract_x
 _atom_site_fract_y
 _atom_site_fract_z
 _atom_site_charge
 Dy 0.71289 0.9794 0.44408   2.341749
 Dy 0.28711 0.0206 0.55592   2.341749
 H 0.2183 0.6272 0.7621   0.11116
 H 0.0025 0.3136 0.8412   0.10235
 H 0.8661 0.6394 0.5611   0.103461
 H 0.9526 0.2265 0.6868   0.108941
 H 0.7823 0.1149 0.641   0.091082
 H 0.4334 0.418 0.6165   0.097443
 H 0.6069 0.5339 0.6537   0.119874
 H 0.0089 0.3314 0.025   0.103504
 H 0.1216 0.2153 0.2052   0.092701
 H 0.5341 0.3119 0.0725   0.09877
 H 0.4197 0.4314 0.8926   0.100782
 H 0.7817 0.3728 0.2379   0.111159
 H 0.9975 0.6864 0.1588   0.102352
 H 0.1339 0.3606 0.4389   0.103461
 H 0.0474 0.7735 0.3132   0.108941
 H 0.2177 0.8851 0.359   0.091081
 H 0.5666 0.582 0.3835   0.097444
 H 0.3931 0.4661 0.3463   0.119874
 H 0.9911 0.6686 0.975   0.103503
 H 0.8784 0.7847 0.7948   0.092699
 H 0.4659 0.6881 0.9275   0.09877
 H 0.5803 0.5686 0.1074   0.100782
 C 0.0564 0.7954 0.577   0.839638
 C 0.0447 0.6542 0.65   -0.169781
 C 0.1407 0.5872 0.7474   -0.059104
 C 0.1209 0.4604 0.8228   0.027492
 C 0.0117 0.4003 0.7939   -0.122055
 C 0.915 0.4643 0.6967   0.026465
 C 0.9312 0.5936 0.6253   -0.042913
 C 0.8002 0.3939 0.6724   0.070873
 C 0.8491 0.2667 0.67   -0.142339
 C 0.7469 0.1992 0.6431   -0.006431
 C 0.5915 0.2569 0.6192   -0.165514
 C 0.5386 0.3811 0.6273   -0.019779
 C 0.6424 0.4497 0.6514   -0.14348
 C 0.4843 0.1879 0.5819   0.7739
 C 0.2017 0.3918 0.9375   0.057707
 C 0.115 0.3275 0.0339   -0.14701
 C 0.1824 0.2578 0.1425   -0.019655
 C 0.3396 0.2511 0.1583   -0.176106
 C 0.4281 0.316 0.0632   -0.024964
 C 0.3596 0.3867 0.9547   -0.1433
 C 0.4079 0.1726 0.279   0.808046
 C 0.9436 0.2046 0.423   0.839638
 C 0.9553 0.3458 0.35   -0.16978
 C 0.8593 0.4128 0.2526   -0.059104
 C 0.8791 0.5396 0.1772   0.027493
 C 0.9883 0.5997 0.2061   -0.122055
 C 0.085 0.5357 0.3033   0.026465
 C 0.0688 0.4064 0.3747   -0.042909
 C 0.1998 0.6061 0.3276   0.070874
 C 0.1509 0.7333 0.33   -0.142337
 C 0.2531 0.8008 0.3569   -0.006429
 C 0.4085 0.7431 0.3808   -0.165514
 C 0.4614 0.6189 0.3727   -0.01978
 C 0.3576 0.5503 0.3486   -0.14348
 C 0.5157 0.8121 0.4181   0.7739
 C 0.7983 0.6082 0.0625   0.057707
 C 0.885 0.6725 0.9661   -0.147008
 C 0.8176 0.7422 0.8575   -0.019651
 C 0.6604 0.7489 0.8417   -0.176106
 C 0.5719 0.684 0.9368   -0.024962
 C 0.6404 0.6133 0.0453   -0.1433
 C 0.5921 0.8274 0.721   0.808046
 O 0.9548 0.8606 0.5002   -0.821793
 O 0.1695 0.8396 0.5962   -0.781302
 O 0.3401 0.2139 0.5924   -0.698961
 O 0.5423 0.0994 0.5406   -0.887246
 O 0.3112 0.1532 0.3606   -0.738506
 O 0.5521 0.1343 0.2871   -0.765707
 O 0.0452 0.1394 0.4998   -0.821793
 O 0.8305 0.1604 0.4038   -0.781302
 O 0.6599 0.7861 0.4076   -0.698961
 O 0.4577 0.9006 0.4594   -0.887246
 O 0.6888 0.8468 0.6394   -0.738506
 O 0.4479 0.8657 0.7129   -0.765707
