{'_ref': 'TBD', '_srcid': 'CAKYAQ_clean', 'submitters': [{'name': 'Dalar Nazarian Jeff Camp and David Sholl', 'email': 'dalar@gatech.edu jcamp6@gatech.edu'}], '_method': 'VASP DFT with PBE;DDEC'}
data_Zn5H20C32(NO)12
_symmetry_space_group_name_H-M   'P 1'
_cell_length_a   10.19200018
_cell_length_b   17.76400000
_cell_length_c   24.43700000
_cell_angle_alpha   90.00000000
_cell_angle_beta   91.19000172
_cell_angle_gamma   90.00000000
_symmetry_Int_Tables_number   1
_chemical_formula_structural   Zn5H20C32(NO)12
_chemical_formula_sum   'Zn20 H80 C128 N48 O48'
_cell_volume   4423.38151334
_cell_formula_units_Z   4
loop_
 _symmetry_equiv_pos_site_id
 _symmetry_equiv_pos_as_xyz
  1  'x, y, z'
loop_
 _atom_site_label
 _atom_site_fract_x
 _atom_site_fract_y
 _atom_site_fract_z
 _atom_site_charge
 Zn 0.38811 0.60263 0.9619   0.959901
 Zn 0.88747 0.56254 0.83331   0.86338
 Zn 0.86934 0.75542 0.87182   0.762853
 Zn 0.35137 0.89805 0.77475   1.004512
 Zn 0.85468 0.95071 0.9047   0.860585
 Zn 0.88811 0.89737 0.4619   0.959901
 Zn 0.38747 0.93746 0.33331   0.86338
 Zn 0.36934 0.74458 0.37182   0.762853
 Zn 0.85137 0.60195 0.27475   1.004512
 Zn 0.35468 0.54929 0.4047   0.860585
 Zn 0.11189 0.10263 0.5381   0.959902
 Zn 0.61253 0.06254 0.66669   0.86338
 Zn 0.63066 0.25542 0.62818   0.762853
 Zn 0.14863 0.39805 0.72525   1.004512
 Zn 0.64532 0.45071 0.5953   0.860585
 Zn 0.61189 0.39737 0.0381   0.959902
 Zn 0.11253 0.43746 0.16669   0.86338
 Zn 0.13066 0.24458 0.12818   0.762853
 Zn 0.64863 0.10195 0.22525   1.004512
 Zn 0.14532 0.04929 0.0953   0.860585
 H 0.1725 0.5289 0.8889   0.092407
 H 0.1609 0.7335 0.9442   0.101138
 H 0.1462 0.7772 0.8094   0.092546
 H 0.1418 0.9883 0.8506   0.091788
 H 0.5924 0.7259 0.9322   0.089738
 H 0.6021 0.5183 0.8845   0.093778
 H 0.5738 0.7717 0.8028   0.095337
 H 0.5733 0.9828 0.841   0.08172
 H 0.468 0.8928 0.154   0.087835
 H 0.4458 0.6922 0.228   0.096444
 H 0.4518 0.6332 0.1438   0.099509
 H 0.4673 0.8332 0.0693   0.107376
 H 0.785 0.7041 0.0155   0.094982
 H 0.799 0.9091 0.0848   0.093539
 H 0.7935 0.8534 0.1699   0.092345
 H 0.7799 0.6494 0.1013   0.100976
 H 0.867 0.3254 0.7938   0.077003
 H 0.9007 0.3189 0.9576   0.079256
 H 0.8608 0.196 0.7912   0.096215
 H 0.8876 0.1895 0.955   0.098595
 H 0.6725 0.9711 0.3889   0.092407
 H 0.6609 0.7665 0.4442   0.101138
 H 0.6462 0.7228 0.3094   0.092546
 H 0.6418 0.5117 0.3506   0.091788
 H 0.0924 0.7741 0.4322   0.089738
 H 0.1021 0.9817 0.3845   0.093778
 H 0.0738 0.7283 0.3028   0.095337
 H 0.0733 0.5172 0.341   0.08172
 H 0.968 0.6072 0.654   0.087835
 H 0.9458 0.8078 0.728   0.096444
 H 0.9518 0.8668 0.6438   0.099509
 H 0.9673 0.6668 0.5693   0.107376
 H 0.285 0.7959 0.5155   0.094982
 H 0.299 0.5909 0.5848   0.093539
 H 0.2935 0.6466 0.6699   0.092345
 H 0.2799 0.8506 0.6013   0.100976
 H 0.367 0.1746 0.2938   0.077003
 H 0.4007 0.1811 0.4576   0.079256
 H 0.3608 0.304 0.2912   0.096215
 H 0.3876 0.3105 0.455   0.098595
 H 0.3275 0.0289 0.6111   0.092408
 H 0.3391 0.2335 0.5558   0.101138
 H 0.3538 0.2772 0.6906   0.092546
 H 0.3582 0.4883 0.6494   0.091789
 H 0.9076 0.2259 0.5678   0.089738
 H 0.8979 0.0183 0.6155   0.093778
 H 0.9262 0.2717 0.6972   0.095336
 H 0.9267 0.4828 0.659   0.081719
 H 0.032 0.3928 0.346   0.087834
 H 0.0542 0.1922 0.272   0.096444
 H 0.0482 0.1332 0.3562   0.09951
 H 0.0327 0.3332 0.4307   0.107375
 H 0.715 0.2041 0.4845   0.094982
 H 0.701 0.4091 0.4152   0.093539
 H 0.7065 0.3534 0.3301   0.092345
 H 0.7201 0.1494 0.3987   0.100976
 H 0.633 0.8254 0.7062   0.077003
 H 0.5993 0.8189 0.5424   0.079256
 H 0.6392 0.696 0.7088   0.096215
 H 0.6124 0.6895 0.545   0.098594
 H 0.8275 0.4711 0.1111   0.092408
 H 0.8391 0.2665 0.0558   0.101138
 H 0.8538 0.2228 0.1906   0.092546
 H 0.8582 0.0117 0.1494   0.091789
 H 0.4076 0.2741 0.0678   0.089738
 H 0.3979 0.4817 0.1155   0.093778
 H 0.4262 0.2283 0.1972   0.095336
 H 0.4267 0.0172 0.159   0.081719
 H 0.532 0.1072 0.846   0.087834
 H 0.5542 0.3078 0.772   0.096444
 H 0.5482 0.3668 0.8562   0.09951
 H 0.5327 0.1668 0.9307   0.107375
 H 0.215 0.2959 0.9845   0.094982
 H 0.201 0.0909 0.9152   0.093539
 H 0.2065 0.1466 0.8301   0.092345
 H 0.2201 0.3506 0.8987   0.100976
 H 0.133 0.6746 0.2062   0.077003
 H 0.0993 0.6811 0.0424   0.079256
 H 0.1392 0.804 0.2088   0.096215
 H 0.1124 0.8105 0.045   0.098594
 C 0.1455 0.5778 0.8963   0.275383
 C 0.139 0.689 0.9262   0.277248
 C 0.1212 0.8233 0.824   0.275086
 C 0.1185 0.938 0.8467   0.290041
 C 0.6184 0.6812 0.91595   0.272508
 C 0.6236 0.5686 0.8901   0.280539
 C 0.599 0.8184 0.81656   0.278245
 C 0.5981 0.9327 0.8373   0.28914
 C 0.4226 0.8356 0.25292   0.679839
 C 0.4493 0.7987 0.19909   -0.131
 C 0.4605 0.8407 0.15194   -0.045883
 C 0.4481 0.7207 0.1961   -0.05231
 C 0.4504 0.6855 0.1457   -0.030355
 C 0.4606 0.805 0.1012   -0.038009
 C 0.4506 0.727 0.0984   -0.128984
 C 0.4318 0.6895 0.0436   0.65395
 C 0.8225 0.8443 0.98558   0.680453
 C 0.7984 0.8118 0.04147   -0.128141
 C 0.7893 0.7342 0.0467   -0.058292
 C 0.7976 0.8569 0.0879   -0.058348
 C 0.7948 0.8232 0.1389   -0.047066
 C 0.7866 0.7014 0.0981   -0.038888
 C 0.7939 0.746 0.1449   -0.111227
 C 0.8107 0.7088 0.2003   0.657045
 C 0.8991 0.4196 0.8774   0.658398
 C 0.888 0.336 0.87596   -0.124593
 C 0.8731 0.2981 0.8262   -0.066724
 C 0.8924 0.2944 0.9241   -0.060053
 C 0.8674 0.2207 0.8247   -0.049047
 C 0.8716 0.1795 0.8729   -0.127298
 C 0.8844 0.2169 0.9225   -0.056823
 C 0.864 0.0949 0.8698   0.651558
 C 0.6455 0.9222 0.3963   0.275383
 C 0.639 0.811 0.4262   0.277248
 C 0.6212 0.6767 0.324   0.275086
 C 0.6185 0.562 0.3467   0.290041
 C 0.1184 0.8188 0.41595   0.272508
 C 0.1236 0.9314 0.3901   0.280539
 C 0.099 0.6816 0.31656   0.278245
 C 0.0981 0.5673 0.3373   0.28914
 C 0.9226 0.6644 0.75292   0.679839
 C 0.9493 0.7013 0.69909   -0.131
 C 0.9605 0.6593 0.65194   -0.045883
 C 0.9481 0.7793 0.6961   -0.05231
 C 0.9504 0.8145 0.6457   -0.030355
 C 0.9606 0.695 0.6012   -0.038009
 C 0.9506 0.773 0.5984   -0.128984
 C 0.9318 0.8105 0.5436   0.65395
 C 0.3225 0.6557 0.48558   0.680453
 C 0.2984 0.6882 0.54147   -0.128141
 C 0.2893 0.7658 0.5467   -0.058292
 C 0.2976 0.6431 0.5879   -0.058348
 C 0.2948 0.6768 0.6389   -0.047066
 C 0.2866 0.7986 0.5981   -0.038888
 C 0.2939 0.754 0.6449   -0.111227
 C 0.3107 0.7912 0.7003   0.657045
 C 0.3991 0.0804 0.3774   0.658398
 C 0.388 0.164 0.37596   -0.124593
 C 0.3731 0.2019 0.3262   -0.066724
 C 0.3924 0.2056 0.4241   -0.060053
 C 0.3674 0.2793 0.3247   -0.049047
 C 0.3716 0.3205 0.3729   -0.127298
 C 0.3844 0.2831 0.4225   -0.056823
 C 0.364 0.4051 0.3698   0.651558
 C 0.3545 0.0778 0.6037   0.275383
 C 0.361 0.189 0.5738   0.277249
 C 0.3788 0.3233 0.676   0.275086
 C 0.3815 0.438 0.6533   0.290041
 C 0.8816 0.1812 0.58405   0.272508
 C 0.8764 0.0686 0.6099   0.280538
 C 0.901 0.3184 0.68344   0.278245
 C 0.9019 0.4327 0.6627   0.289141
 C 0.0774 0.3356 0.24708   0.679839
 C 0.0507 0.2987 0.30091   -0.131
 C 0.0395 0.3407 0.34806   -0.045883
 C 0.0519 0.2207 0.3039   -0.05231
 C 0.0496 0.1855 0.3543   -0.030355
 C 0.0394 0.305 0.3988   -0.038009
 C 0.0494 0.227 0.4016   -0.128984
 C 0.0682 0.1895 0.4564   0.653949
 C 0.6775 0.3443 0.51442   0.680453
 C 0.7016 0.3118 0.45853   -0.128141
 C 0.7107 0.2342 0.4533   -0.058292
 C 0.7024 0.3569 0.4121   -0.058348
 C 0.7052 0.3232 0.3611   -0.047066
 C 0.7134 0.2014 0.4019   -0.038889
 C 0.7061 0.246 0.3551   -0.111227
 C 0.6893 0.2088 0.2997   0.657044
 C 0.6009 0.9196 0.6226   0.658398
 C 0.612 0.836 0.62404   -0.124594
 C 0.6269 0.7981 0.6738   -0.066725
 C 0.6076 0.7944 0.5759   -0.060054
 C 0.6326 0.7207 0.6753   -0.049047
 C 0.6284 0.6795 0.6271   -0.127298
 C 0.6156 0.7169 0.5775   -0.056823
 C 0.636 0.5949 0.6302   0.651558
 C 0.8545 0.4222 0.1037   0.275383
 C 0.861 0.311 0.0738   0.277249
 C 0.8788 0.1767 0.176   0.275086
 C 0.8815 0.062 0.1533   0.290041
 C 0.3816 0.3188 0.08405   0.272508
 C 0.3764 0.4314 0.1099   0.280538
 C 0.401 0.1816 0.18344   0.278245
 C 0.4019 0.0673 0.1627   0.289141
 C 0.5774 0.1644 0.74708   0.679839
 C 0.5507 0.2013 0.80091   -0.131
 C 0.5395 0.1593 0.84806   -0.045883
 C 0.5519 0.2793 0.8039   -0.05231
 C 0.5496 0.3145 0.8543   -0.030355
 C 0.5394 0.195 0.8988   -0.038009
 C 0.5494 0.273 0.9016   -0.128984
 C 0.5682 0.3105 0.9564   0.653949
 C 0.1775 0.1557 0.01442   0.680453
 C 0.2016 0.1882 0.95853   -0.128141
 C 0.2107 0.2658 0.9533   -0.058292
 C 0.2024 0.1431 0.9121   -0.058348
 C 0.2052 0.1768 0.8611   -0.047066
 C 0.2134 0.2986 0.9019   -0.038889
 C 0.2061 0.254 0.8551   -0.111227
 C 0.1893 0.2912 0.7997   0.657044
 C 0.1009 0.5804 0.1226   0.658398
 C 0.112 0.664 0.12404   -0.124594
 C 0.1269 0.7019 0.1738   -0.066725
 C 0.1076 0.7056 0.0759   -0.060054
 C 0.1326 0.7793 0.1753   -0.049047
 C 0.1284 0.8205 0.1271   -0.127298
 C 0.1156 0.7831 0.0775   -0.056823
 C 0.136 0.9051 0.1302   0.651558
 N 0.0353 0.607 0.87775   -0.244105
 N 0.0303 0.6795 0.89692   -0.22219
 N 0.2151 0.6268 0.92722   -0.495422
 N 0.0131 0.8338 0.85199   -0.217347
 N 0.0122 0.9085 0.86718   -0.242242
 N 0.1904 0.8871 0.81912   -0.518278
 N 0.7284 0.601 0.8704   -0.244734
 N 0.725 0.6745 0.88736   -0.207716
 N 0.5508 0.6167 0.91939   -0.502728
 N 0.7091 0.83 0.84399   -0.220047
 N 0.7081 0.9045 0.85806   -0.25116
 N 0.5262 0.881 0.81039   -0.507339
 N 0.5353 0.893 0.37775   -0.244105
 N 0.5303 0.8205 0.39692   -0.22219
 N 0.7151 0.8732 0.42722   -0.495422
 N 0.5131 0.6662 0.35199   -0.217347
 N 0.5122 0.5915 0.36718   -0.242242
 N 0.6904 0.6129 0.31912   -0.518278
 N 0.2284 0.899 0.3704   -0.244734
 N 0.225 0.8255 0.38736   -0.207716
 N 0.0508 0.8833 0.41939   -0.502728
 N 0.2091 0.67 0.34399   -0.220047
 N 0.2081 0.5955 0.35806   -0.25116
 N 0.0262 0.619 0.31039   -0.507339
 N 0.4647 0.107 0.62225   -0.244105
 N 0.4697 0.1795 0.60308   -0.22219
 N 0.2849 0.1268 0.57278   -0.495422
 N 0.4869 0.3338 0.64801   -0.217347
 N 0.4878 0.4085 0.63282   -0.242242
 N 0.3096 0.3871 0.68088   -0.518278
 N 0.7716 0.101 0.6296   -0.244734
 N 0.775 0.1745 0.61264   -0.207716
 N 0.9492 0.1167 0.58061   -0.502728
 N 0.7909 0.33 0.65601   -0.220047
 N 0.7919 0.4045 0.64194   -0.25116
 N 0.9738 0.381 0.68961   -0.507339
 N 0.9647 0.393 0.12225   -0.244105
 N 0.9697 0.3205 0.10308   -0.22219
 N 0.7849 0.3732 0.07278   -0.495422
 N 0.9869 0.1662 0.14801   -0.217347
 N 0.9878 0.0915 0.13282   -0.242242
 N 0.8096 0.1129 0.18088   -0.518278
 N 0.2716 0.399 0.1296   -0.244734
 N 0.275 0.3255 0.11264   -0.207716
 N 0.4492 0.3833 0.08061   -0.502728
 N 0.2909 0.17 0.15601   -0.220047
 N 0.2919 0.0955 0.14194   -0.25116
 N 0.4738 0.119 0.18961   -0.507339
 O 0.4312 0.90721 0.25701   -0.605806
 O 0.3868 0.79596 0.29157   -0.603528
 O 0.4113 0.7272 0.00174   -0.5805
 O 0.4313 0.6165 0.04197   -0.639016
 O 0.851 0.8002 0.94897   -0.598977
 O 0.8174 0.9151 0.9795   -0.576263
 O 0.8114 0.6369 0.20033   -0.633947
 O 0.8281 0.7468 0.2421   -0.600881
 O 0.8756 0.4535 0.83144   -0.632481
 O 0.929 0.45226 0.92038   -0.610118
 O 0.8535 0.05962 0.91457   -0.607915
 O 0.8722 0.0632 0.8255   -0.617407
 O 0.9312 0.59279 0.75701   -0.605806
 O 0.8868 0.70404 0.79157   -0.603528
 O 0.9113 0.7728 0.50174   -0.5805
 O 0.9313 0.8835 0.54197   -0.639016
 O 0.351 0.6998 0.44897   -0.598977
 O 0.3174 0.5849 0.4795   -0.576263
 O 0.3114 0.8631 0.70033   -0.633947
 O 0.3281 0.7532 0.7421   -0.600881
 O 0.3756 0.0465 0.33144   -0.632481
 O 0.429 0.04774 0.42038   -0.610118
 O 0.3535 0.44038 0.41457   -0.607915
 O 0.3722 0.4368 0.3255   -0.617407
 O 0.0688 0.40721 0.24299   -0.605806
 O 0.1132 0.29596 0.20843   -0.603528
 O 0.0887 0.2272 0.49826   -0.5805
 O 0.0687 0.1165 0.45803   -0.639016
 O 0.649 0.3002 0.55103   -0.598977
 O 0.6826 0.4151 0.5205   -0.576263
 O 0.6886 0.1369 0.29967   -0.633947
 O 0.6719 0.2468 0.2579   -0.600881
 O 0.6244 0.9535 0.66856   -0.632481
 O 0.571 0.95226 0.57962   -0.610117
 O 0.6465 0.55962 0.58543   -0.607915
 O 0.6278 0.5632 0.6745   -0.617407
 O 0.5688 0.09279 0.74299   -0.605806
 O 0.6132 0.20404 0.70843   -0.603528
 O 0.5887 0.2728 0.99826   -0.5805
 O 0.5687 0.3835 0.95803   -0.639016
 O 0.149 0.1998 0.05103   -0.598977
 O 0.1826 0.0849 0.0205   -0.576263
 O 0.1886 0.3631 0.79967   -0.633947
 O 0.1719 0.2532 0.7579   -0.600881
 O 0.1244 0.5465 0.16856   -0.632481
 O 0.071 0.54774 0.07962   -0.610117
 O 0.1465 0.94038 0.08543   -0.607915
 O 0.1278 0.9368 0.1745   -0.617407
