{'_ref': 'TBD', '_srcid': 'CAKYAQ_clean', 'submitters': [{'name': 'Dalar Nazarian Jeff Camp and David Sholl', 'email': 'dalar@gatech.edu jcamp6@gatech.edu'}], '_method': 'VASP DFT with PBE;DDEC'}
data_SrH2C6SO4
_symmetry_space_group_name_H-M   'P 1'
_cell_length_a   5.97950000
_cell_length_b   11.35919954
_cell_length_c   17.05830000
_cell_angle_alpha   90.00000000
_cell_angle_beta   90.00000000
_cell_angle_gamma   91.25699956
_symmetry_Int_Tables_number   1
_chemical_formula_structural   SrH2C6SO4
_chemical_formula_sum   'Sr4 H8 C24 S4 O16'
_cell_volume   1158.36072273
_cell_formula_units_Z   4
loop_
 _symmetry_equiv_pos_site_id
 _symmetry_equiv_pos_as_xyz
  1  'x, y, z'
loop_
 _atom_site_label
 _atom_site_fract_x
 _atom_site_fract_y
 _atom_site_fract_z
 _atom_site_charge
 Sr 0.72232 0.90441 0.9981   1.640462
 Sr 0.77768 0.59559 0.4981   1.640462
 Sr 0.27768 0.09559 0.0019   1.640462
 Sr 0.22232 0.40441 0.5019   1.640462
 H 0.116 0.336 0.6865   0.108079
 H 0.156 0.2255 0.8125   0.084843
 H 0.384 0.164 0.1865   0.108079
 H 0.344 0.2745 0.3125   0.084843
 H 0.884 0.664 0.3135   0.108079
 H 0.844 0.7745 0.1875   0.084843
 H 0.616 0.836 0.8135   0.108079
 H 0.656 0.7255 0.6875   0.084843
 C 0.7836 0.1051 0.87895   0.78675
 C 0.8211 0.17947 0.80857   -0.229283
 C 0.0174 0.23223 0.78424   -0.046874
 C 0.9945 0.29282 0.71234   -0.061483
 C 0.7813 0.28395 0.68302   -0.215133
 C 0.692 0.32906 0.60743   0.80272
 C 0.7164 0.3949 0.37895   0.78675
 C 0.6789 0.32053 0.30857   -0.229283
 C 0.4826 0.26777 0.28424   -0.046874
 C 0.5055 0.20718 0.21234   -0.061483
 C 0.7187 0.21605 0.18302   -0.215133
 C 0.808 0.17094 0.10743   0.80272
 C 0.2164 0.8949 0.12105   0.78675
 C 0.1789 0.82053 0.19143   -0.229283
 C 0.9826 0.76777 0.21576   -0.046874
 C 0.0055 0.70718 0.28766   -0.061483
 C 0.2187 0.71605 0.31698   -0.215133
 C 0.308 0.67094 0.39257   0.80272
 C 0.2836 0.6051 0.62105   0.78675
 C 0.3211 0.67947 0.69143   -0.229283
 C 0.5174 0.73223 0.71576   -0.046874
 C 0.4945 0.79282 0.78766   -0.061483
 C 0.2813 0.78395 0.81698   -0.215133
 C 0.192 0.82906 0.89257   0.80272
 S 0.6075 0.20338 0.74379   0.179017
 S 0.8925 0.29662 0.24379   0.179017
 S 0.3925 0.79662 0.25621   0.179018
 S 0.1075 0.70338 0.75621   0.179018
 O 0.58663 0.0747 0.8965   -0.75083
 O 0.95366 0.07317 0.91648   -0.780705
 O 0.48731 0.31005 0.59437   -0.727838
 O 0.82865 0.38075 0.56214   -0.789728
 O 0.91337 0.4253 0.3965   -0.75083
 O 0.54634 0.42683 0.41648   -0.780705
 O 0.01269 0.18995 0.09437   -0.727838
 O 0.67135 0.11925 0.06214   -0.789728
 O 0.41337 0.9253 0.1035   -0.75083
 O 0.04634 0.92683 0.08352   -0.780705
 O 0.51269 0.68995 0.40563   -0.727839
 O 0.17135 0.61925 0.43786   -0.789728
 O 0.08663 0.5747 0.6035   -0.75083
 O 0.45366 0.57317 0.58352   -0.780705
 O 0.98731 0.81005 0.90563   -0.727839
 O 0.32865 0.88075 0.93786   -0.789728
