{'_ref': 'TBD', '_srcid': 'CAKYAQ_clean', 'submitters': [{'name': 'Dalar Nazarian Jeff Camp and David Sholl', 'email': 'dalar@gatech.edu jcamp6@gatech.edu'}], '_method': 'VASP DFT with PBE;DDEC'}
data_Fe(C8N5)2
_symmetry_space_group_name_H-M   'P 1'
_cell_length_a   11.14000000
_cell_length_b   11.49700000
_cell_length_c   16.85400000
_cell_angle_alpha   90.00000000
_cell_angle_beta   90.00000000
_cell_angle_gamma   90.00000000
_symmetry_Int_Tables_number   1
_chemical_formula_structural   Fe(C8N5)2
_chemical_formula_sum   'Fe4 C64 N40'
_cell_volume   2158.60267932
_cell_formula_units_Z   4
loop_
 _symmetry_equiv_pos_site_id
 _symmetry_equiv_pos_as_xyz
  1  'x, y, z'
loop_
 _atom_site_label
 _atom_site_fract_x
 _atom_site_fract_y
 _atom_site_fract_z
 _atom_site_charge
 Fe 0.0 0.0 0.0   0.638838
 Fe 0.5 0.0 0.5   0.638838
 Fe 0.0 0.5 0.5   0.638838
 Fe 0.5 0.5 0.0   0.638838
 C 0.1774 0.0665 0.2472   -0.239872
 C 0.1302 0.1476 0.2983   0.153773
 C 0.1694 0.1812 0.3741   -0.288823
 C 0.125 0.0473 0.1699   0.390995
 C 0.2816 0.9993 0.2639   0.356365
 C 0.0179 0.2021 0.2712   0.287814
 C 0.7709 0.1307 0.0876   0.38654
 C 0.112 0.2297 0.9162   0.396618
 C 0.3226 0.9335 0.7472   -0.239872
 C 0.3698 0.8524 0.7983   0.153773
 C 0.3306 0.8188 0.8741   -0.288823
 C 0.375 0.9527 0.6699   0.390995
 C 0.2184 0.000700000000002 0.7639   0.356365
 C 0.4821 0.7979 0.7712   0.287814
 C 0.7291 0.8693 0.5876   0.38654
 C 0.388 0.7703 0.4162   0.396618
 C 0.8226 0.5665 0.2528   -0.239872
 C 0.8698 0.6476 0.2017   0.153773
 C 0.8306 0.6812 0.1259   -0.288823
 C 0.875 0.5473 0.3301   0.390995
 C 0.7184 0.4993 0.2361   0.356365
 C 0.9821 0.7021 0.2288   0.287814
 C 0.2291 0.6307 0.4124   0.38654
 C 0.888 0.7297 0.5838   0.396618
 C 0.6774 0.4335 0.7528   -0.239872
 C 0.6302 0.3524 0.7017   0.153773
 C 0.6694 0.3188 0.6259   -0.288823
 C 0.625 0.4527 0.8301   0.390995
 C 0.7816 0.5007 0.7361   0.356365
 C 0.5179 0.2979 0.7288   0.287814
 C 0.2709 0.3693 0.9124   0.38654
 C 0.612 0.2703 0.0838   0.396618
 C 0.8226 0.9335 0.7528   -0.239872
 C 0.8698 0.8524 0.7017   0.153773
 C 0.8306 0.8188 0.6259   -0.288824
 C 0.875 0.9527 0.8301   0.390995
 C 0.7184 0.000700000000002 0.7361   0.356365
 C 0.9821 0.7979 0.7288   0.287814
 C 0.2291 0.8693 0.9124   0.386539
 C 0.888 0.7703 0.0838   0.396617
 C 0.6774 0.0665 0.2528   -0.239872
 C 0.6302 0.1476 0.2017   0.153773
 C 0.6694 0.1812 0.1259   -0.288824
 C 0.625 0.0473 0.3301   0.390995
 C 0.7816 0.9993 0.2361   0.356365
 C 0.5179 0.2021 0.2288   0.287814
 C 0.2709 0.1307 0.4124   0.386539
 C 0.612 0.2297 0.5838   0.396617
 C 0.1774 0.4335 0.7472   -0.239872
 C 0.1302 0.3524 0.7983   0.153773
 C 0.1694 0.3188 0.8741   -0.288824
 C 0.125 0.4527 0.6699   0.390996
 C 0.2816 0.5007 0.7639   0.356365
 C 0.0179 0.2979 0.7712   0.287814
 C 0.7709 0.3693 0.5876   0.386539
 C 0.112 0.2703 0.4162   0.396617
 C 0.3226 0.5665 0.2472   -0.239872
 C 0.3698 0.6476 0.2983   0.153773
 C 0.3306 0.6812 0.3741   -0.288824
 C 0.375 0.5473 0.1699   0.390996
 C 0.2184 0.4993 0.2639   0.356365
 C 0.4821 0.7021 0.2712   0.287814
 C 0.7291 0.6307 0.0876   0.386539
 C 0.388 0.7297 0.9162   0.396617
 N 0.0902 0.0325 0.1077   -0.325635
 N 0.3621 0.9426 0.2744   -0.398748
 N 0.9305 0.2427 0.2527   -0.354905
 N 0.8486 0.0896 0.0517   -0.337682
 N 0.0668 0.158 0.9518   -0.345858
 N 0.4098 0.9675 0.6077   -0.325635
 N 0.1379 0.0574 0.7744   -0.398748
 N 0.5695 0.7573 0.7527   -0.354905
 N 0.6514 0.9104 0.5517   -0.337682
 N 0.4332 0.842 0.4518   -0.345858
 N 0.9098 0.5325 0.3923   -0.325635
 N 0.6379 0.4426 0.2256   -0.398748
 N 0.0695 0.7427 0.2473   -0.354905
 N 0.1514 0.5896 0.4483   -0.337682
 N 0.9332 0.658 0.5482   -0.345858
 N 0.5902 0.4675 0.8923   -0.325635
 N 0.8621 0.5574 0.7256   -0.398748
 N 0.4305 0.2573 0.7473   -0.354905
 N 0.3486 0.4104 0.9483   -0.337682
 N 0.5668 0.342 0.0482   -0.345858
 N 0.9098 0.9675 0.8923   -0.325635
 N 0.6379 0.0574 0.7256   -0.398748
 N 0.0695 0.7573 0.7473   -0.354905
 N 0.1514 0.9104 0.9483   -0.337682
 N 0.9332 0.842 0.0482   -0.345858
 N 0.5902 0.0325 0.3923   -0.325635
 N 0.8621 0.9426 0.2256   -0.398748
 N 0.4305 0.2427 0.2473   -0.354905
 N 0.3486 0.0896 0.4483   -0.337682
 N 0.5668 0.158 0.5482   -0.345858
 N 0.0902 0.4675 0.6077   -0.325635
 N 0.3621 0.5574 0.7744   -0.398748
 N 0.9305 0.2573 0.7527   -0.354905
 N 0.8486 0.4104 0.5517   -0.337682
 N 0.0668 0.342 0.4518   -0.345858
 N 0.4098 0.5325 0.1077   -0.325635
 N 0.1379 0.4426 0.2744   -0.398748
 N 0.5695 0.7427 0.2527   -0.354905
 N 0.6514 0.5896 0.0517   -0.337682
 N 0.4332 0.658 0.9518   -0.345858
