{'_ref': 'TBD', '_srcid': 'CAKYAQ_clean', 'submitters': [{'name': 'Dalar Nazarian Jeff Camp and David Sholl', 'email': 'dalar@gatech.edu jcamp6@gatech.edu'}], '_method': 'VASP DFT with PBE;DDEC'}
data_AgH5C9S(NO)2
_symmetry_space_group_name_H-M   'P 1'
_cell_length_a   7.03730000
_cell_length_b   10.43990000
_cell_length_c   13.31050000
_cell_angle_alpha   90.00000000
_cell_angle_beta   90.00000000
_cell_angle_gamma   90.00000000
_symmetry_Int_Tables_number   1
_chemical_formula_structural   AgH5C9S(NO)2
_chemical_formula_sum   'Ag4 H20 C36 S4 N8 O8'
_cell_volume   977.905241428
_cell_formula_units_Z   4
loop_
 _symmetry_equiv_pos_site_id
 _symmetry_equiv_pos_as_xyz
  1  'x, y, z'
loop_
 _atom_site_label
 _atom_site_fract_x
 _atom_site_fract_y
 _atom_site_fract_z
 _atom_site_charge
 Ag 0.78115 0.89395 0.3197   0.426569
 Ag 0.71885 0.10605 0.8197   0.426569
 Ag 0.21885 0.39395 0.1803   0.426569
 Ag 0.28115 0.60605 0.6803   0.426569
 H 0.9579 0.423 0.3597   0.160481
 H 0.8239 0.6604 0.6891   0.128921
 H 0.8173 0.8102 0.8137   0.083227
 H 0.9569 0.0807 0.6279   0.088911
 H 0.9761 0.9393 0.4967   0.117627
 H 0.5421 0.577 0.8597   0.160481
 H 0.6761 0.3396 0.1891   0.128921
 H 0.6827 0.1898 0.3137   0.083226
 H 0.5431 0.9193 0.1279   0.08891
 H 0.5239 0.0607 0.9967   0.117627
 H 0.0421 0.923 0.1403   0.160481
 H 0.1761 0.1604 0.8109   0.128921
 H 0.1827 0.3102 0.6863   0.083226
 H 0.0431 0.5807 0.8721   0.08891
 H 0.0239 0.4393 0.0033   0.117627
 H 0.4579 0.077 0.6403   0.160481
 H 0.3239 0.8396 0.3109   0.128921
 H 0.3173 0.6898 0.1863   0.083225
 H 0.4569 0.4193 0.3721   0.088909
 H 0.4761 0.5607 0.5033   0.117627
 C 0.8866 0.6214 0.2258   0.613426
 C 0.9025 0.6105 0.3388   0.037427
 C 0.9393 0.5026 0.3895   -0.185496
 C 0.9014 0.6903 0.4937   0.119171
 C 0.8945 0.7832 0.5768   0.070017
 C 0.85 0.7457 0.6745   -0.18845
 C 0.8455 0.8367 0.7487   0.174745
 C 0.9283 0.9951 0.6399   0.171809
 C 0.9395 0.9111 0.56   -0.183009
 C 0.6134 0.3786 0.7258   0.613426
 C 0.5975 0.3895 0.8388   0.037427
 C 0.5607 0.4974 0.8895   -0.185496
 C 0.5986 0.3097 0.9937   0.119171
 C 0.6055 0.2168 0.0768   0.070017
 C 0.65 0.2543 0.1745   -0.18845
 C 0.6545 0.1633 0.2487   0.174746
 C 0.5717 0.0049 0.1399   0.171809
 C 0.5605 0.0889 0.06   -0.183009
 C 0.1134 0.1214 0.2742   0.613426
 C 0.0975 0.1105 0.1612   0.037428
 C 0.0607 0.0026 0.1105   -0.185496
 C 0.0986 0.1903 0.0063   0.119172
 C 0.1055 0.2832 0.9232   0.070017
 C 0.15 0.2457 0.8255   -0.18845
 C 0.1545 0.3367 0.7513   0.174746
 C 0.0717 0.4951 0.8601   0.17181
 C 0.0605 0.4111 0.94   -0.183009
 C 0.3866 0.8786 0.7742   0.613426
 C 0.4025 0.8895 0.6612   0.037428
 C 0.4393 0.9974 0.6105   -0.185496
 C 0.4014 0.8097 0.5063   0.119172
 C 0.3945 0.7168 0.4232   0.070017
 C 0.35 0.7543 0.3255   -0.18845
 C 0.3455 0.6633 0.2513   0.174746
 C 0.4283 0.5049 0.3601   0.17181
 C 0.4395 0.5889 0.44   -0.183009
 S 0.94758 0.53002 0.51592   0.177617
 S 0.55242 0.46998 0.01592   0.177617
 S 0.05242 0.03002 0.98408   0.177617
 S 0.44758 0.96998 0.48408   0.177617
 N 0.8793 0.7181 0.3987   -0.266874
 N 0.8793 0.9618 0.7334   -0.337545
 N 0.6207 0.2819 0.8987   -0.266874
 N 0.6207 0.0382 0.2334   -0.337545
 N 0.1207 0.2181 0.1013   -0.266874
 N 0.1207 0.4618 0.7666   -0.337545
 N 0.3793 0.7819 0.6013   -0.266874
 N 0.3793 0.5382 0.2666   -0.337545
 O 0.8433 0.7273 0.1902   -0.594235
 O 0.9199 0.5202 0.1772   -0.614339
 O 0.6567 0.2727 0.6902   -0.594235
 O 0.5801 0.4798 0.6772   -0.614339
 O 0.1567 0.2273 0.3098   -0.594235
 O 0.0801 0.0202 0.3228   -0.614339
 O 0.3433 0.7727 0.8098   -0.594235
 O 0.4199 0.9798 0.8228   -0.614339
