{'_ref': 'TBD', '_srcid': 'CAKYAQ_clean', 'submitters': [{'name': 'Dalar Nazarian Jeff Camp and David Sholl', 'email': 'dalar@gatech.edu jcamp6@gatech.edu'}], '_method': 'VASP DFT with PBE;DDEC'}
data_Co2H7C10NO7
_symmetry_space_group_name_H-M   'P 1'
_cell_length_a   10.06159959
_cell_length_b   12.87458604
_cell_length_c   12.92198821
_cell_angle_alpha   71.21748141
_cell_angle_beta   67.08782382
_cell_angle_gamma   66.99864082
_symmetry_Int_Tables_number   1
_chemical_formula_structural   Co2H7C10NO7
_chemical_formula_sum   'Co8 H28 C40 N4 O28'
_cell_volume   1390.48295083
_cell_formula_units_Z   4
loop_
 _symmetry_equiv_pos_site_id
 _symmetry_equiv_pos_as_xyz
  1  'x, y, z'
loop_
 _atom_site_label
 _atom_site_fract_x
 _atom_site_fract_y
 _atom_site_fract_z
 _atom_site_charge
 Co 0.47829 0.38659 0.10301   1.061704
 Co 0.68008 0.83332 0.73702   1.115572
 Co 0.96789 0.11341 0.39699   1.06108
 Co 0.25042 0.66668 0.76298   1.115735
 Co 0.52171 0.61341 0.89699   1.061706
 Co 0.31992 0.16668 0.26298   1.115574
 Co 0.03211 0.88659 0.60301   1.061082
 Co 0.74958 0.33332 0.23702   1.115737
 H 0.8957 0.121 0.8384   0.124258
 H 0.791 0.2544 0.9532   0.072821
 H 0.381 0.2682 0.9864   0.072689
 H 0.4758 0.1239 0.8847   0.135542
 H 0.837 0.0408 0.2582   0.082251
 H 0.6274 0.9839 0.4035   0.151898
 H 0.5871 0.0888 0.4618   0.158138
 H 0.8551 0.379 0.6616   0.123371
 H 0.9986 0.2456 0.5468   0.073637
 H 0.6356 0.2318 0.5136   0.07266
 H 0.4844 0.3761 0.6153   0.136853
 H 0.136 0.4592 0.2418   0.082158
 H 0.0148 0.5161 0.0965   0.15456
 H 0.1377 0.4112 0.0382   0.157667
 H 0.1043 0.879 0.1616   0.124253
 H 0.209 0.7456 0.0468   0.07282
 H 0.619 0.7318 0.0136   0.072688
 H 0.5242 0.8761 0.1153   0.135541
 H 0.163 0.9592 0.7418   0.082247
 H 0.3726 0.0161 0.5965   0.151899
 H 0.4129 0.9112 0.5382   0.158141
 H 0.1449 0.621 0.3384   0.123366
 H 0.0014 0.7544 0.4532   0.073637
 H 0.3644 0.7682 0.4864   0.07266
 H 0.5156 0.6239 0.3847   0.136851
 H 0.864 0.5408 0.7582   0.082154
 H 0.9852 0.4839 0.9035   0.154561
 H 0.8623 0.5888 0.9618   0.15767
 C 0.76 0.0146 0.7782   0.66776
 C 0.6969 0.1073 0.8491   -0.023198
 C 0.7888 0.1482 0.8702   -0.163244
 C 0.725 0.2291 0.9377   0.175387
 C 0.4877 0.2356 0.9586   0.157326
 C 0.5432 0.1514 0.8958   -0.144564
 C 0.6244 0.1622 0.2468   0.656798
 C 0.7518 0.0956 0.305   0.164008
 C 0.672 0.0312 0.4194   -0.417888
 C 0.7688 0.9527 0.4979   0.754345
 C 0.5528 0.4854 0.7218   0.666655
 C 0.6533 0.3927 0.6509   -0.021629
 C 0.8072 0.3518 0.6298   -0.160603
 C 0.8918 0.2709 0.5623   0.170363
 C 0.6819 0.2644 0.5414   0.157913
 C 0.5904 0.3486 0.6042   -0.148381
 C 0.0334 0.3378 0.2532   0.653637
 C 0.1524 0.4044 0.195   0.165696
 C 0.1226 0.4688 0.0806   -0.420809
 C 0.2194 0.5473 0.0021   0.756555
 C 0.24 0.9854 0.2218   0.66776
 C 0.3031 0.8927 0.1509   -0.023199
 C 0.2112 0.8518 0.1298   -0.163242
 C 0.275 0.7709 0.0623   0.175387
 C 0.5123 0.7644 0.0414   0.157326
 C 0.4568 0.8486 0.1042   -0.144564
 C 0.3756 0.8378 0.7532   0.656798
 C 0.2482 0.9044 0.695   0.16401
 C 0.328 0.9688 0.5806   -0.41789
 C 0.2312 0.0473 0.5021   0.754346
 C 0.4472 0.5146 0.2782   0.666655
 C 0.3467 0.6073 0.3491   -0.02163
 C 0.1928 0.6482 0.3702   -0.160602
 C 0.1082 0.7291 0.4377   0.170363
 C 0.3181 0.7356 0.4586   0.157913
 C 0.4096 0.6514 0.3958   -0.148381
 C 0.9666 0.6622 0.7468   0.653637
 C 0.8476 0.5956 0.805   0.165698
 C 0.8774 0.5312 0.9194   -0.420811
 C 0.7806 0.4527 0.9979   0.756555
 N 0.5763 0.2744 0.9828   -0.367186
 N 0.8335 0.2256 0.5172   -0.363764
 N 0.4237 0.7256 0.0172   -0.367186
 N 0.1665 0.7744 0.4828   -0.363764
 O 0.89634 0.99382 0.7205   -0.578475
 O 0.66574 0.96932 0.7848   -0.620388
 O 0.60939 0.26782 0.206   -0.666117
 O 0.5516 0.1086 0.2362   -0.594142
 O 0.80327 0.17566 0.3208   -0.706769
 O 0.87867 0.97636 0.5019   -0.651674
 O 0.714 0.8763 0.5673   -0.616828
 O 0.61066 0.50618 0.7795   -0.578846
 O 0.41986 0.53068 0.7152   -0.619486
 O 0.08321 0.23218 0.294   -0.665234
 O 0.8964 0.3914 0.2638   -0.592068
 O 0.29973 0.32434 0.1792   -0.706811
 O 0.35693 0.52364 0.9981   -0.652383
 O 0.1576 0.6237 0.9327   -0.61855
 O 0.10366 0.00618 0.2795   -0.578474
 O 0.33426 0.03068 0.2152   -0.620388
 O 0.39061 0.73218 0.794   -0.666117
 O 0.4484 0.8914 0.7638   -0.594141
 O 0.19673 0.82434 0.6792   -0.706769
 O 0.12133 0.02364 0.4981   -0.651674
 O 0.286 0.1237 0.4327   -0.616828
 O 0.38934 0.49382 0.2205   -0.578846
 O 0.58014 0.46932 0.2848   -0.619485
 O 0.91679 0.76782 0.706   -0.665234
 O 0.1036 0.6086 0.7362   -0.592067
 O 0.70027 0.67566 0.8208   -0.706812
 O 0.64307 0.47636 0.0019   -0.652383
 O 0.8424 0.3763 0.0673   -0.61855
