{'_ref': 'TBD', '_srcid': 'CAKYAQ_clean', 'submitters': [{'name': 'Dalar Nazarian Jeff Camp and David Sholl', 'email': 'dalar@gatech.edu jcamp6@gatech.edu'}], '_method': 'VASP DFT with PBE;DDEC'}
data_Zn3H8C14(NO)6
_symmetry_space_group_name_H-M   'P 1'
_cell_length_a   10.39330000
_cell_length_b   10.86880001
_cell_length_c   11.06470000
_cell_angle_alpha   90.36709973
_cell_angle_beta   90.00000000
_cell_angle_gamma   118.56300223
_symmetry_Int_Tables_number   1
_chemical_formula_structural   Zn3H8C14(NO)6
_chemical_formula_sum   'Zn6 H16 C28 N12 O12'
_cell_volume   1097.74640953
_cell_formula_units_Z   2
loop_
 _symmetry_equiv_pos_site_id
 _symmetry_equiv_pos_as_xyz
  1  'x, y, z'
loop_
 _atom_site_label
 _atom_site_fract_x
 _atom_site_fract_y
 _atom_site_fract_z
 _atom_site_charge
 Zn 0.48233 0.84568 0.00382   0.928253
 Zn 0.63665 0.15432 0.49618   0.927607
 Zn 0.51767 0.15432 0.99618   0.928253
 Zn 0.36335 0.84568 0.50382   0.927607
 Zn 0.6222 0.0 0.75   0.875456
 Zn 0.3778 0.0 0.25   0.875456
 H 0.5928 0.0892 0.9498   0.137749
 H 0.5781 0.4954 0.9319   0.11901
 H 0.6705 0.686 0.6084   0.11873
 H 0.6483 0.4868 0.5113   0.123134
 H 0.5036 0.9108 0.5502   0.138876
 H 0.0827 0.5046 0.5681   0.119452
 H 0.9845 0.314 0.8916   0.118482
 H 0.1615 0.5132 0.9887   0.123036
 H 0.4072 0.9108 0.0502   0.137749
 H 0.4219 0.5046 0.0681   0.119009
 H 0.3295 0.314 0.3916   0.11873
 H 0.3517 0.5132 0.4887   0.123134
 H 0.4964 0.0892 0.4498   0.138876
 H 0.9173 0.4954 0.4319   0.119451
 H 0.0155 0.686 0.1084   0.118482
 H 0.8385 0.4868 0.0113   0.123036
 C 0.5991 0.3702 0.6663   0.145567
 C 0.5784 0.3716 0.7903   0.131067
 C 0.5913 0.4932 0.849   -0.107765
 C 0.6239 0.607 0.7784   -0.119359
 C 0.6466 0.6056 0.6528   -0.031608
 C 0.6343 0.4882 0.5942   -0.169875
 C 0.6324 0.7386 0.834   0.66601
 C 0.2289 0.6298 0.8337   0.146569
 C 0.2068 0.6284 0.7097   0.129693
 C 0.0981 0.5068 0.651   -0.107628
 C 0.0169 0.393 0.7216   -0.120045
 C 0.041 0.3944 0.8472   -0.030934
 C 0.1461 0.5118 0.9058   -0.170055
 C 0.8938 0.2614 0.666   0.665624
 C 0.4009 0.6298 0.3337   0.145567
 C 0.4216 0.6284 0.2097   0.131067
 C 0.4087 0.5068 0.151   -0.107764
 C 0.3761 0.393 0.2216   -0.119359
 C 0.3534 0.3944 0.3472   -0.031608
 C 0.3657 0.5118 0.4058   -0.169875
 C 0.3676 0.2614 0.166   0.66601
 C 0.7711 0.3702 0.1663   0.146569
 C 0.7932 0.3716 0.2903   0.129693
 C 0.9019 0.4932 0.349   -0.107628
 C 0.9831 0.607 0.2784   -0.120045
 C 0.959 0.6056 0.1528   -0.030934
 C 0.8539 0.4882 0.0942   -0.170055
 C 0.1062 0.7386 0.334   0.665624
 N 0.5827 0.2416 0.6367   -0.24064
 N 0.55462 0.16884 0.7385   -0.047994
 N 0.5514 0.2438 0.833   -0.234008
 N 0.3411 0.7584 0.8633   -0.241056
 N 0.38578 0.83116 0.7615   -0.047817
 N 0.3076 0.7562 0.667   -0.233578
 N 0.4173 0.7584 0.3633   -0.24064
 N 0.44538 0.83116 0.2615   -0.047994
 N 0.4486 0.7562 0.167   -0.234008
 N 0.6589 0.2416 0.1367   -0.241056
 N 0.61422 0.16884 0.2385   -0.047817
 N 0.6924 0.2438 0.333   -0.233578
 O 0.5911 0.7336 0.9418   -0.603701
 O 0.67537 0.84214 0.7648   -0.549114
 O 0.62141 0.02942 0.9344   -0.703029
 O 0.8575 0.2664 0.5582   -0.603374
 O 0.83323 0.15786 0.7352   -0.548787
 O 0.59199 0.97058 0.5656   -0.703946
 O 0.4089 0.2664 0.0582   -0.603701
 O 0.32463 0.15786 0.2352   -0.549114
 O 0.37859 0.97058 0.0656   -0.703029
 O 0.1425 0.7336 0.4418   -0.603374
 O 0.16677 0.84214 0.2648   -0.548787
 O 0.40801 0.02942 0.4344   -0.703946
