{'_ref': 'TBD', '_srcid': 'CAKYAQ_clean', 'submitters': [{'name': 'Dalar Nazarian Jeff Camp and David Sholl', 'email': 'dalar@gatech.edu jcamp6@gatech.edu'}], '_method': 'VASP DFT with PBE;DDEC'}
data_Zn3H8C14(NO)6
_symmetry_space_group_name_H-M   'P 1'
_cell_length_a   11.01779971
_cell_length_b   11.01780028
_cell_length_c   11.08920000
_cell_angle_alpha   87.38369758
_cell_angle_beta   87.38369745
_cell_angle_gamma   70.58679979
_symmetry_Int_Tables_number   1
_chemical_formula_structural   Zn3H8C14(NO)6
_chemical_formula_sum   'Zn6 H16 C28 N12 O12'
_cell_volume   1267.61893095
_cell_formula_units_Z   2
loop_
 _symmetry_equiv_pos_site_id
 _symmetry_equiv_pos_as_xyz
  1  'x, y, z'
loop_
 _atom_site_label
 _atom_site_fract_x
 _atom_site_fract_y
 _atom_site_fract_z
 _atom_site_charge
 Zn 0.97092 0.8687 0.000830000000001   0.916988
 Zn 0.1313 0.02908 0.49917   0.916987
 Zn 0.02908 0.1313 0.99917   0.916988
 Zn 0.8687 0.97092 0.50083   0.916987
 Zn 0.1039 0.8961 0.25   0.870889
 Zn 0.8961 0.1039 0.75   0.870889
 H 0.9905 0.9135 0.4499   0.145698
 H 0.0625 0.4339 0.0659   0.122908
 H 0.1255 0.5461 0.3915   0.110521
 H 0.1286 0.353 0.4836   0.129157
 H 0.0865 0.0095 0.0501   0.145697
 H 0.5661 0.9375 0.4341   0.122908
 H 0.4539 0.8745 0.1085   0.110521
 H 0.647 0.8714 0.0164   0.129157
 H 0.0095 0.0865 0.5501   0.145698
 H 0.9375 0.5661 0.9341   0.122908
 H 0.8745 0.4539 0.6085   0.110521
 H 0.8714 0.647 0.5164   0.129157
 H 0.9135 0.9905 0.9499   0.145697
 H 0.4339 0.0625 0.5659   0.122908
 H 0.5461 0.1255 0.8915   0.110521
 H 0.353 0.1286 0.9836   0.129157
 C 0.09647 0.27687 0.3279   0.149778
 C 0.07591 0.29991 0.2046   0.133665
 C 0.07442 0.41802 0.1483   -0.104819
 C 0.09172 0.50872 0.2215   -0.123306
 C 0.1127 0.4831 0.3455   -0.030166
 C 0.1153 0.3687 0.4014   -0.175934
 C 0.08863 0.63983 0.17   0.671687
 C 0.72313 0.90353 0.1721   0.149777
 C 0.70009 0.92409 0.2954   0.133665
 C 0.58198 0.92558 0.3517   -0.104819
 C 0.49128 0.90828 0.2785   -0.123305
 C 0.5169 0.8873 0.1545   -0.030166
 C 0.6313 0.8847 0.0986   -0.175934
 C 0.36017 0.91137 0.33   0.671685
 C 0.90353 0.72313 0.6721   0.149778
 C 0.92409 0.70009 0.7954   0.133665
 C 0.92558 0.58198 0.8517   -0.104819
 C 0.90828 0.49128 0.7785   -0.123306
 C 0.8873 0.5169 0.6545   -0.030166
 C 0.8847 0.6313 0.5986   -0.175935
 C 0.91137 0.36017 0.83   0.671687
 C 0.27687 0.09647 0.8279   0.149777
 C 0.29991 0.07591 0.7046   0.133665
 C 0.41802 0.07442 0.6483   -0.104819
 C 0.50872 0.09172 0.7215   -0.123306
 C 0.4831 0.1127 0.8455   -0.030166
 C 0.3687 0.1153 0.9014   -0.175935
 C 0.63983 0.08863 0.67   0.671685
 N 0.09294 0.15754 0.3553   -0.238445
 N 0.07141 0.10901 0.2548   -0.034358
 N 0.06156 0.19136 0.1613   -0.247969
 N 0.84246 0.90706 0.1447   -0.238445
 N 0.89099 0.92859 0.2452   -0.034357
 N 0.80864 0.93844 0.3387   -0.24797
 N 0.90706 0.84246 0.6447   -0.238445
 N 0.92859 0.89099 0.7452   -0.034358
 N 0.93844 0.80864 0.8387   -0.247969
 N 0.15754 0.09294 0.8553   -0.238445
 N 0.10901 0.07141 0.7548   -0.034357
 N 0.19136 0.06156 0.6613   -0.24797
 O 0.13079 0.70419 0.2381   -0.555647
 O 0.04505 0.67325 0.0671   -0.595362
 O 0.07051 0.89621 0.4339   -0.709839
 O 0.29581 0.86921 0.2619   -0.555645
 O 0.32675 0.95495 0.4329   -0.595361
 O 0.10379 0.92949 0.0661   -0.709839
 O 0.86921 0.29581 0.7619   -0.555647
 O 0.95495 0.32675 0.9329   -0.595362
 O 0.92949 0.10379 0.5661   -0.709839
 O 0.70419 0.13079 0.7381   -0.555645
 O 0.67325 0.04505 0.5671   -0.595361
 O 0.89621 0.07051 0.9339   -0.709839
