{'_ref': 'TBD', '_srcid': 'CAKYAQ_clean', 'submitters': [{'name': 'Dalar Nazarian Jeff Camp and David Sholl', 'email': 'dalar@gatech.edu jcamp6@gatech.edu'}], '_method': 'VASP DFT with PBE;DDEC'}
data_MgH6(C3O)4
_symmetry_space_group_name_H-M   'P 1'
_cell_length_a   11.25770017
_cell_length_b   11.25770009
_cell_length_c   20.94600000
_cell_angle_alpha   95.88220201
_cell_angle_beta   95.88220197
_cell_angle_gamma   106.47799991
_symmetry_Int_Tables_number   1
_chemical_formula_structural   MgH6(C3O)4
_chemical_formula_sum   'Mg6 H36 C72 O24'
_cell_volume   2507.98019824
_cell_formula_units_Z   6
loop_
 _symmetry_equiv_pos_site_id
 _symmetry_equiv_pos_as_xyz
  1  'x, y, z'
loop_
 _atom_site_label
 _atom_site_fract_x
 _atom_site_fract_y
 _atom_site_fract_z
 _atom_site_charge
 Mg 0.50708 0.02234 0.30786   1.590324
 Mg 0.97766 0.49292 0.19214   1.590323
 Mg 0.49292 0.97766 0.69214   1.590324
 Mg 0.02234 0.50708 0.80786   1.590323
 Mg 0.75239 0.24761 0.25   1.556167
 Mg 0.24761 0.75239 0.75   1.556167
 H 0.6527 0.0473 0.1092   0.106205
 H 0.2867 0.0035 0.1054   0.106125
 H 0.74 0.0228 0.005   0.07799
 H 0.7615 0.9893 0.4696   0.108449
 H 0.0179 0.1049 0.3533   0.10881
 H 0.829 0.9324 0.5764   0.116448
 H 0.7217 0.6523 0.491   0.101122
 H 0.7308 0.5154 0.4041   0.08106
 H 0.3969 0.2877 0.4223   0.098758
 H 0.9527 0.3473 0.3908   0.106205
 H 0.9965 0.7133 0.3946   0.106125
 H 0.9772 0.26 0.495   0.07799
 H 0.0107 0.2385 0.0304   0.108449
 H 0.8951 0.9821 0.1467   0.10881
 H 0.0676 0.171 0.9236   0.116448
 H 0.3477 0.2783 0.009   0.101122
 H 0.4846 0.2692 0.0959   0.08106
 H 0.7123 0.6031 0.0777   0.098758
 H 0.3473 0.9527 0.8908   0.106205
 H 0.7133 0.9965 0.8946   0.106123
 H 0.26 0.9772 0.995   0.077987
 H 0.2385 0.0107 0.5304   0.108449
 H 0.9821 0.8951 0.6467   0.10881
 H 0.171 0.0676 0.4236   0.116448
 H 0.2783 0.3477 0.509   0.101123
 H 0.2692 0.4846 0.5959   0.08106
 H 0.6031 0.7123 0.5777   0.098758
 H 0.0473 0.6527 0.6092   0.106205
 H 0.0035 0.2867 0.6054   0.106123
 H 0.0228 0.74 0.505   0.077987
 H 0.9893 0.7615 0.9696   0.108449
 H 0.1049 0.0179 0.8533   0.10881
 H 0.9324 0.829 0.0764   0.116448
 H 0.6523 0.7217 0.991   0.101123
 H 0.5154 0.7308 0.9041   0.08106
 H 0.2877 0.3969 0.9223   0.098758
 C 0.5603 0.0115 0.0179   0.03735
 C 0.5738 0.0314 0.0857   -0.053413
 C 0.4744 0.0278 0.1177   -0.120522
 C 0.3547 0.0061 0.0833   -0.055505
 C 0.661 0.011 0.9825   -0.107589
 C 0.4889 0.0419 0.1909   0.743468
 C 0.9381 0.9875 0.5078   0.043224
 C 0.8438 0.0078 0.4612   -0.071611
 C 0.8737 0.0531 0.4056   -0.151639
 C 0.9977 0.0753 0.3919   -0.038072
 C 0.9096 0.946 0.5658   -0.147601
 C 0.7789 0.0851 0.3595   0.783601
 C 0.6555 0.5799 0.4776   -0.149829
 C 0.6611 0.4971 0.4258   -0.030855
 C 0.5648 0.3862 0.405   -0.15259
 C 0.4617 0.3611 0.4362   -0.078128
 C 0.549 0.5554 0.5106   0.03796
 C 0.5765 0.2931 0.3504   0.798957
 C 0.9885 0.4397 0.4821   0.03735
 C 0.9686 0.4262 0.4143   -0.053413
 C 0.9722 0.5256 0.3823   -0.120522
 C 0.9939 0.6453 0.4167   -0.055505
 C 0.989 0.339 0.5175   -0.107589
 C 0.9581 0.5111 0.3091   0.743468
 C 0.0125 0.0619 0.9922   0.043224
 C 0.9922 0.1562 0.0388   -0.071611
 C 0.9469 0.1263 0.0944   -0.151639
 C 0.9247 0.0023 0.1081   -0.038072
 C 0.054 0.0904 0.9342   -0.147601
 C 0.9149 0.2211 0.1405   0.783601
 C 0.4201 0.3445 0.0224   -0.149829
 C 0.5029 0.3389 0.0742   -0.030855
 C 0.6138 0.4352 0.095   -0.15259
 C 0.6389 0.5383 0.0638   -0.078128
 C 0.4446 0.451 0.9894   0.03796
 C 0.7069 0.4235 0.1496   0.798957
 C 0.4397 0.9885 0.9821   0.037344
 C 0.4262 0.9686 0.9143   -0.053411
 C 0.5256 0.9722 0.8823   -0.120527
 C 0.6453 0.9939 0.9167   -0.05548
 C 0.339 0.989 0.0175   -0.107563
 C 0.5111 0.9581 0.8091   0.743469
 C 0.0619 0.0125 0.4922   0.043224
 C 0.1562 0.9922 0.5388   -0.071611
 C 0.1263 0.9469 0.5944   -0.15164
 C 0.0023 0.9247 0.6081   -0.038068
 C 0.0904 0.054 0.4342   -0.147598
 C 0.2211 0.9149 0.6405   0.783601
 C 0.3445 0.4201 0.5224   -0.149829
 C 0.3389 0.5029 0.5742   -0.030855
 C 0.4352 0.6138 0.595   -0.15259
 C 0.5383 0.6389 0.5638   -0.078128
 C 0.451 0.4446 0.4894   0.03796
 C 0.4235 0.7069 0.6496   0.798957
 C 0.0115 0.5603 0.5179   0.037344
 C 0.0314 0.5738 0.5857   -0.053411
 C 0.0278 0.4744 0.6177   -0.120527
 C 0.0061 0.3547 0.5833   -0.05548
 C 0.011 0.661 0.4825   -0.107564
 C 0.0419 0.4889 0.6909   0.743469
 C 0.9875 0.9381 0.0078   0.043224
 C 0.0078 0.8438 0.9612   -0.071611
 C 0.0531 0.8737 0.9056   -0.15164
 C 0.0753 0.9977 0.8919   -0.038069
 C 0.946 0.9096 0.0658   -0.147598
 C 0.0851 0.7789 0.8595   0.783601
 C 0.5799 0.6555 0.9776   -0.149829
 C 0.4971 0.6611 0.9258   -0.030855
 C 0.3862 0.5648 0.905   -0.15259
 C 0.3611 0.4617 0.9362   -0.078128
 C 0.5554 0.549 0.0106   0.03796
 C 0.2931 0.5765 0.8504   0.798957
 O 0.6662 0.0474 0.369   -0.823694
 O 0.82 0.1468 0.3159   -0.675656
 O 0.5964 0.0868 0.22357   -0.822956
 O 0.3935 0.9997 0.21757   -0.720404
 O 0.6686 0.326 0.32066   -0.705666
 O 0.4924 0.1902 0.3404   -0.812225
 O 0.9526 0.3338 0.131   -0.823694
 O 0.8532 0.18 0.1841   -0.675656
 O 0.9132 0.4036 0.27643   -0.822956
 O 0.000300000000003 0.6065 0.28243   -0.720404
 O 0.674 0.3314 0.17934   -0.705666
 O 0.8098 0.5076 0.1596   -0.812225
 O 0.3338 0.9526 0.631   -0.823694
 O 0.18 0.8532 0.6841   -0.675656
 O 0.4036 0.9132 0.77643   -0.822956
 O 0.6065 0.000300000000003 0.78243   -0.720404
 O 0.3314 0.674 0.67934   -0.705666
 O 0.5076 0.8098 0.6596   -0.812225
 O 0.0474 0.6662 0.869   -0.823694
 O 0.1468 0.82 0.8159   -0.675656
 O 0.0868 0.5964 0.72357   -0.822956
 O 0.9997 0.3935 0.71757   -0.720404
 O 0.326 0.6686 0.82066   -0.705666
 O 0.1902 0.4924 0.8404   -0.812225
