{'_ref': 'TBD', '_srcid': 'CAKYAQ_clean', 'submitters': [{'name': 'Dalar Nazarian Jeff Camp and David Sholl', 'email': 'dalar@gatech.edu jcamp6@gatech.edu'}], '_method': 'VASP DFT with PBE;DDEC'}
data_Co2H7C10NO7
_symmetry_space_group_name_H-M   'P 1'
_cell_length_a   10.05969957
_cell_length_b   12.77299987
_cell_length_c   12.99480000
_cell_angle_alpha   70.91780124
_cell_angle_beta   67.22809849
_cell_angle_gamma   66.80970173
_symmetry_Int_Tables_number   1
_chemical_formula_structural   Co2H7C10NO7
_chemical_formula_sum   'Co8 H28 C40 N4 O28'
_cell_volume   1384.86822677
_cell_formula_units_Z   4
loop_
 _symmetry_equiv_pos_site_id
 _symmetry_equiv_pos_as_xyz
  1  'x, y, z'
loop_
 _atom_site_label
 _atom_site_fract_x
 _atom_site_fract_y
 _atom_site_fract_z
 _atom_site_charge
 Co 0.96665 0.61468 0.89688   1.056126
 Co 0.31765 0.66681 0.76403   1.114199
 Co 0.47821 0.88532 0.60312   1.056521
 Co 0.74849 0.83319 0.73597   1.114334
 Co 0.03335 0.38532 0.10312   1.056129
 Co 0.68235 0.33319 0.23597   1.114199
 Co 0.52179 0.11468 0.39688   1.056524
 Co 0.25151 0.16681 0.26403   1.114334
 H 0.1027 0.3899 0.6501   0.124061
 H 0.2085 0.2566 0.5368   0.072753
 H 0.6122 0.2301 0.5185   0.071492
 H 0.5176 0.3709 0.6251   0.135509
 H 0.1368 0.9563 0.7393   0.079008
 H 0.0192 0.0192 0.5944   0.151621
 H 0.1378 0.9158 0.537   0.158589
 H 0.1427 0.1101 0.8499   0.122109
 H 0.0019 0.2434 0.9632   0.072665
 H 0.3608 0.2699 0.9815   0.072342
 H 0.5136 0.1291 0.8749   0.134863
 H 0.8324 0.5437 0.7607   0.079076
 H 0.6328 0.4808 0.9056   0.15103
 H 0.5906 0.5842 0.963   0.159452
 H 0.8973 0.6101 0.3499   0.124061
 H 0.7915 0.7434 0.4632   0.072752
 H 0.3878 0.7699 0.4815   0.071493
 H 0.4824 0.6291 0.3749   0.135509
 H 0.8632 0.0437 0.2607   0.079007
 H 0.9808 0.9808 0.4056   0.151625
 H 0.8622 0.0842 0.463   0.158595
 H 0.8573 0.8899 0.1501   0.122108
 H 0.9981 0.7566 0.0368   0.072664
 H 0.6392 0.7301 0.0185   0.072343
 H 0.4864 0.8709 0.1251   0.134863
 H 0.1676 0.4563 0.2393   0.079075
 H 0.3672 0.5192 0.0944   0.151035
 H 0.4094 0.4158 0.037   0.159457
 C 0.2361 0.4869 0.7217   0.676028
 C 0.3001 0.3962 0.6498   -0.029943
 C 0.2071 0.3599 0.6225   -0.157575
 C 0.2723 0.2797 0.5545   0.170399
 C 0.5082 0.2638 0.5442   0.166641
 C 0.4515 0.3481 0.6097   -0.144706
 C 0.0333 0.8389 0.7499   0.660138
 C 0.1522 0.9029 0.6931   0.168183
 C 0.1244 0.9713 0.5791   -0.418403
 C 0.2202 0.049 0.5024   0.757296
 C 0.4447 0.0131 0.7783   0.671942
 C 0.3461 0.1038 0.8502   -0.031024
 C 0.1895 0.1401 0.8775   -0.154612
 C 0.1065 0.2203 0.9455   0.170769
 C 0.3162 0.2362 0.9558   0.167661
 C 0.4093 0.1519 0.8903   -0.143849
 C 0.6221 0.6611 0.7501   0.662182
 C 0.7482 0.5971 0.8069   0.166196
 C 0.6748 0.5287 0.9209   -0.418779
 C 0.7716 0.451 0.9976   0.758527
 C 0.7639 0.5131 0.2783   0.676028
 C 0.6999 0.6038 0.3502   -0.029943
 C 0.7929 0.6401 0.3775   -0.157575
 C 0.7277 0.7203 0.4455   0.170399
 C 0.4918 0.7362 0.4558   0.166641
 C 0.5485 0.6519 0.3903   -0.144707
 C 0.9667 0.1611 0.2501   0.660138
 C 0.8478 0.0971 0.3069   0.168184
 C 0.8756 0.0287 0.4209   -0.418406
 C 0.7798 0.951 0.4976   0.757297
 C 0.5553 0.9869 0.2217   0.671942
 C 0.6539 0.8962 0.1498   -0.031024
 C 0.8105 0.8599 0.1225   -0.154611
 C 0.8935 0.7797 0.0545   0.170768
 C 0.6838 0.7638 0.0442   0.16766
 C 0.5907 0.8481 0.1097   -0.143851
 C 0.3779 0.3389 0.2499   0.662182
 C 0.2518 0.4029 0.1931   0.166197
 C 0.3252 0.4713 0.0791   -0.418782
 C 0.2284 0.549 0.0024   0.758528
 N 0.42076 0.23008 0.5154   -0.363447
 N 0.16624 0.26992 0.9846   -0.365626
 N 0.57924 0.76992 0.4846   -0.363447
 N 0.83376 0.73008 0.0154   -0.365626
 O 0.33067 0.53046 0.7178   -0.626447
 O 0.10113 0.50714 0.7792   -0.577694
 O 0.08073 0.73444 0.7939   -0.661422
 O 0.89668 0.89374 0.7585   -0.601434
 O 0.29973 0.82434 0.676   -0.707199
 O 0.35873 0.02364 0.4967   -0.652286
 O 0.15871 0.12828 0.4331   -0.622132
 O 0.57893 0.96954 0.7822   -0.62468
 O 0.38747 0.99286 0.7208   -0.575733
 O 0.60907 0.76556 0.7061   -0.662698
 O 0.54892 0.60626 0.7415   -0.601352
 O 0.80007 0.67566 0.824   -0.705762
 O 0.87907 0.47636 0.0033   -0.653055
 O 0.72009 0.37172 0.0669   -0.621866
 O 0.66933 0.46954 0.2822   -0.626447
 O 0.89887 0.49286 0.2208   -0.577693
 O 0.91927 0.26556 0.2061   -0.661422
 O 0.10332 0.10626 0.2415   -0.601434
 O 0.70027 0.17566 0.324   -0.707199
 O 0.64127 0.97636 0.5033   -0.652285
 O 0.84129 0.87172 0.5669   -0.622131
 O 0.42107 0.03046 0.2178   -0.62468
 O 0.61253 0.00714 0.2792   -0.575733
 O 0.39093 0.23444 0.2939   -0.662697
 O 0.45108 0.39374 0.2585   -0.601351
 O 0.19993 0.32434 0.176   -0.705762
 O 0.12093 0.52364 0.9967   -0.653055
 O 0.27991 0.62828 0.9331   -0.621865
