{'_ref': 'TBD', '_srcid': 'CAKYAQ_clean', 'submitters': [{'name': 'Dalar Nazarian Jeff Camp and David Sholl', 'email': 'dalar@gatech.edu jcamp6@gatech.edu'}], '_method': 'VASP DFT with PBE;DDEC'}
data_Ag3P3H38C28N9O8
_symmetry_space_group_name_H-M   'P 1'
_cell_length_a   11.72710020
_cell_length_b   11.77070000
_cell_length_c   18.26330000
_cell_angle_alpha   90.00000000
_cell_angle_beta   98.70399962
_cell_angle_gamma   90.00000000
_symmetry_Int_Tables_number   1
_chemical_formula_structural   Ag3P3H38C28N9O8
_chemical_formula_sum   'Ag6 P6 H76 C56 N18 O16'
_cell_volume   2491.96264278
_cell_formula_units_Z   2
loop_
 _symmetry_equiv_pos_site_id
 _symmetry_equiv_pos_as_xyz
  1  'x, y, z'
loop_
 _atom_site_label
 _atom_site_fract_x
 _atom_site_fract_y
 _atom_site_fract_z
 _atom_site_charge
 Ag 0.3557 0.60152 0.01521   0.15463
 Ag 0.35991 0.13228 0.50423   0.272336
 Ag 0.87883 0.60307 0.92201   0.277412
 Ag 0.6443 0.10152 0.98479   0.15463
 Ag 0.64009 0.63228 0.49577   0.272336
 Ag 0.12117 0.10307 0.07799   0.277412
 P 0.14456 0.91204 0.11485   0.170414
 P 0.59597 0.80869 0.44037   0.148132
 P 0.48655 0.71465 0.95908   0.216275
 P 0.85544 0.41204 0.88515   0.170414
 P 0.40403 0.30869 0.55963   0.148133
 P 0.51345 0.21465 0.04092   0.216275
 H 0.8998 0.7722 0.7603   0.105148
 H 0.1202 0.4494 0.7422   0.095225
 H 0.3138 0.853 0.068   0.098266
 H 0.2019 0.8155 0.0118   0.13555
 H 0.1686 0.9124 0.2469   0.110665
 H 0.2924 0.9123 0.2201   0.102165
 H 0.9778 0.8122 0.0591   0.119001
 H 0.9646 0.8456 0.1424   0.11465
 H 0.1389 0.5665 0.1029   0.071139
 H 0.0921 0.6513 0.0368   0.079447
 H 0.3713 0.7474 0.1816   0.075665
 H 0.3163 0.6257 0.1931   0.063822
 H 0.1177 0.6223 0.2313   0.082426
 H 0.059 0.7422 0.243   0.095213
 H 0.6334 0.0753 0.5085   0.086284
 H 0.5922 0.1544 0.4384   0.079269
 H 0.7798 0.8745 0.4211   0.13413
 H 0.7533 0.9167 0.5001   0.144827
 H 0.6925 0.9699 0.3091   0.08237
 H 0.6258 0.0874 0.3135   0.078547
 H 0.3716 0.9629 0.3569   0.092571
 H 0.4263 0.0841 0.3437   0.080743
 H 0.5185 0.9135 0.5325   0.121946
 H 0.4161 0.8697 0.4712   0.134266
 H 0.4616 0.7929 0.3292   0.111339
 H 0.5904 0.7917 0.3099   0.120985
 H 0.7513 0.8314 0.0023   0.102478
 H 0.7812 0.8784 0.9252   0.083719
 H 0.6259 0.5763 0.9388   0.11202
 H 0.6724 0.6484 0.0116   0.13324
 H 0.7054 0.7656 0.8103   0.084438
 H 0.6336 0.6528 0.8208   0.081563
 H 0.619 0.9499 0.8324   0.071135
 H 0.4919 0.9552 0.8536   0.080539
 H 0.5646 0.8617 0.0365   0.129798
 H 0.46 0.9083 0.9779   0.119702
 H 0.3739 0.7872 0.8507   0.140631
 H 0.4268 0.6664 0.8333   0.127162
 H 0.1002 0.2722 0.2397   0.105148
 H 0.8798 0.9494 0.2578   0.095224
 H 0.6862 0.353 0.932   0.098266
 H 0.7981 0.3155 0.9882   0.13555
 H 0.8314 0.4124 0.7531   0.110665
 H 0.7076 0.4123 0.7799   0.102164
 H 0.0222 0.3122 0.9409   0.119001
 H 0.0354 0.3456 0.8576   0.11465
 H 0.8611 0.0665 0.8971   0.071139
 H 0.9079 0.1513 0.9632   0.079447
 H 0.6287 0.2474 0.8184   0.075665
 H 0.6837 0.1257 0.8069   0.063823
 H 0.8823 0.1223 0.7687   0.082427
 H 0.941 0.2422 0.757   0.095213
 H 0.3666 0.5753 0.4915   0.086285
 H 0.4078 0.6544 0.5616   0.07927
 H 0.2202 0.3745 0.5789   0.13413
 H 0.2467 0.4167 0.4999   0.144827
 H 0.3075 0.4699 0.6909   0.08237
 H 0.3742 0.5874 0.6865   0.078547
 H 0.6284 0.4629 0.6431   0.092571
 H 0.5737 0.5841 0.6563   0.080743
 H 0.4815 0.4135 0.4675   0.121946
 H 0.5839 0.3697 0.5288   0.134267
 H 0.5384 0.2929 0.6708   0.111339
 H 0.4096 0.2917 0.6901   0.120985
 H 0.2487 0.3314 0.9977   0.102478
 H 0.2188 0.3784 0.0748   0.083718
 H 0.3741 0.0763 0.0612   0.11202
 H 0.3276 0.1484 0.9884   0.13324
 H 0.2946 0.2656 0.1897   0.084438
 H 0.3664 0.1528 0.1792   0.081562
 H 0.381 0.4499 0.1676   0.071137
 H 0.5081 0.4552 0.1464   0.080539
 H 0.4354 0.3617 0.9635   0.129798
 H 0.54 0.4083 0.0221   0.119701
 H 0.6261 0.2872 0.1493   0.140631
 H 0.5732 0.1664 0.1667   0.127162
 C 0.0999 0.5822 0.8087   -0.118763
 C 0.0331 0.6798 0.8137   -0.080918
 C 0.9435 0.7049 0.757   -0.069718
 C 0.9153 0.6333 0.6946   -0.098025
 C 0.9841 0.536 0.6885   -0.043303
 C 0.0738 0.5146 0.7461   -0.061372
 C 0.1936 0.5494 0.8707   0.639741
 C 0.0551 0.7655 0.8779   0.66057
 C 0.9677 0.4532 0.6251   0.610167
 C 0.8157 0.6606 0.6364   0.637032
 C 0.2359 0.819 0.0648   -0.182413
 C 0.2143 0.8783 0.2112   -0.126264
 C 0.0188 0.8152 0.1106   -0.120411
 C 0.1294 0.6477 0.0891   0.101241
 C 0.298 0.7044 0.1761   0.080976
 C 0.1095 0.7014 0.2129   0.128486
 C 0.6022 0.0744 0.455   0.067303
 C 0.7197 0.9076 0.4474   -0.142638
 C 0.6363 0.0102 0.3351   0.126428
 C 0.4442 0.0072 0.3642   0.080439
 C 0.4935 0.9052 0.4785   -0.1812
 C 0.5384 0.8291 0.3405   -0.135808
 C 0.7218 0.8387 0.9488   0.066107
 C 0.6329 0.654 0.9598   -0.215344
 C 0.6501 0.7309 0.8396   0.095643
 C 0.5642 0.9106 0.86   0.093545
 C 0.5298 0.8599 0.9836   -0.208388
 C 0.4444 0.7398 0.859   -0.138172
 C 0.9001 0.0822 0.1913   -0.118764
 C 0.9669 0.1798 0.1863   -0.080918
 C 0.0565 0.2049 0.243   -0.069718
 C 0.0847 0.1333 0.3054   -0.098025
 C 0.0159 0.036 0.3115   -0.043303
 C 0.9262 0.0146 0.2539   -0.061371
 C 0.8064 0.0494 0.1293   0.639741
 C 0.9449 0.2655 0.1221   0.66057
 C 0.0323 0.9532 0.3749   0.610167
 C 0.1843 0.1606 0.3636   0.637032
 C 0.7641 0.319 0.9352   -0.182413
 C 0.7857 0.3783 0.7888   -0.126264
 C 0.9812 0.3152 0.8894   -0.120411
 C 0.8706 0.1477 0.9109   0.101241
 C 0.702 0.2044 0.8239   0.080976
 C 0.8905 0.2014 0.7871   0.128486
 C 0.3978 0.5744 0.545   0.067302
 C 0.2803 0.4076 0.5526   -0.142638
 C 0.3637 0.5102 0.6649   0.126428
 C 0.5558 0.5072 0.6358   0.080439
 C 0.5065 0.4052 0.5215   -0.1812
 C 0.4616 0.3291 0.6595   -0.135808
 C 0.2782 0.3387 0.0512   0.066107
 C 0.3671 0.154 0.0402   -0.215344
 C 0.3499 0.2309 0.1604   0.095643
 C 0.4358 0.4106 0.14   0.093545
 C 0.4702 0.3599 0.0164   -0.208388
 C 0.5556 0.2398 0.141   -0.138171
 N 0.2468 0.7016 0.0954   -0.170303
 N 0.2231 0.7556 0.2235   -0.28662
 N 0.0539 0.7003 0.1351   -0.304854
 N 0.4848 0.0177 0.4448   -0.165704
 N 0.6864 0.021 0.4154   -0.257034
 N 0.5283 0.9515 0.3211   -0.32445
 N 0.6129 0.9094 0.9391   -0.157464
 N 0.7035 0.7246 0.9164   -0.184389
 N 0.5398 0.7986 0.8278   -0.318812
 N 0.7532 0.2016 0.9046   -0.170303
 N 0.7769 0.2556 0.7765   -0.28662
 N 0.9461 0.2003 0.8649   -0.304854
 N 0.5152 0.5177 0.5552   -0.165704
 N 0.3136 0.521 0.5846   -0.257034
 N 0.4717 0.4515 0.6789   -0.32445
 N 0.3871 0.4094 0.0609   -0.157464
 N 0.2965 0.2246 0.0836   -0.184389
 N 0.4602 0.2986 0.1722   -0.318812
 O 0.1853 0.5818 0.9336   -0.538173
 O 0.274 0.484 0.8556   -0.64858
 O 0.9862 0.762 0.9242   -0.566381
 O 0.1289 0.8387 0.8747   -0.575548
 O 0.0241 0.4691 0.573   -0.454017
 O 0.9055 0.3692 0.6311   -0.50505
 O 0.7547 0.7478 0.6451   -0.625928
 O 0.7938 0.5946 0.5835   -0.502914
 O 0.8147 0.0818 0.0664   -0.538173
 O 0.726 0.984 0.1444   -0.64858
 O 0.0138 0.262 0.0758   -0.566381
 O 0.8711 0.3387 0.1253   -0.575548
 O 0.9759 0.9691 0.427   -0.454017
 O 0.0945 0.8692 0.3689   -0.50505
 O 0.2453 0.2478 0.3549   -0.625928
 O 0.2062 0.0946 0.4165   -0.502914
