{'_ref': 'TBD', '_srcid': 'CAKYAQ_clean', 'submitters': [{'name': 'Dalar Nazarian Jeff Camp and David Sholl', 'email': 'dalar@gatech.edu jcamp6@gatech.edu'}], '_method': 'VASP DFT with PBE;DDEC'}
data_CaH10(C2O)4
_symmetry_space_group_name_H-M   'P 1'
_cell_length_a   7.71590000
_cell_length_b   7.86229963
_cell_length_c   18.32300000
_cell_angle_alpha   90.00000000
_cell_angle_beta   90.00000000
_cell_angle_gamma   95.70000270
_symmetry_Int_Tables_number   1
_chemical_formula_structural   CaH10(C2O)4
_chemical_formula_sum   'Ca4 H40 C32 O16'
_cell_volume   1106.06358832
_cell_formula_units_Z   4
loop_
 _symmetry_equiv_pos_site_id
 _symmetry_equiv_pos_as_xyz
  1  'x, y, z'
loop_
 _atom_site_label
 _atom_site_fract_x
 _atom_site_fract_y
 _atom_site_fract_z
 _atom_site_charge
 Ca 0.72083 0.78084 0.72561   1.602958
 Ca 0.77917 0.21916 0.22561   1.602956
 Ca 0.27917 0.21916 0.27438   1.603046
 Ca 0.22083 0.78084 0.77439   1.602943
 H 0.6256 0.2968 0.9266   0.091331
 H 0.7277 0.4529 0.9664   0.071277
 H 0.3858 0.4516 0.9101   0.09435
 H 0.3909 0.7391 0.945   0.048238
 H 0.5778 0.735 0.9784   0.076209
 H 0.7752 0.9913 0.9579   0.090924
 H 0.079 0.8165 0.9452   0.045435
 H 0.8915 0.7254 0.9592   0.069987
 H 0.9537 0.2438 0.9295   0.084234
 H 0.1181 0.1411 0.9261   0.070188
 H 0.8744 0.7032 0.4266   0.09133
 H 0.7723 0.5471 0.4664   0.071278
 H 0.1142 0.5484 0.4101   0.094352
 H 0.1091 0.2609 0.445   0.04824
 H 0.9222 0.265 0.4784   0.076208
 H 0.7248 0.0087 0.4579   0.090924
 H 0.421 0.1835 0.4452   0.045438
 H 0.6085 0.2746 0.4592   0.069986
 H 0.5463 0.7562 0.4295   0.084233
 H 0.3819 0.8589 0.4261   0.070189
 H 0.3744 0.7032 0.0734   0.09133
 H 0.2723 0.5471 0.0336   0.07128
 H 0.6142 0.5484 0.0899   0.094355
 H 0.6091 0.2609 0.055   0.048239
 H 0.4222 0.265 0.0216   0.076209
 H 0.2248 0.0087 0.0421   0.09093
 H 0.921 0.1835 0.0548   0.045434
 H 0.1085 0.2746 0.0408   0.069985
 H 0.0463 0.7562 0.0705   0.084234
 H 0.8819 0.8589 0.0739   0.070189
 H 0.1256 0.2968 0.5734   0.091331
 H 0.2277 0.4529 0.5336   0.071282
 H 0.8858 0.4516 0.5899   0.094352
 H 0.8909 0.7391 0.555   0.048239
 H 0.0778 0.735 0.5216   0.076212
 H 0.2752 0.9913 0.5421   0.090931
 H 0.579 0.8165 0.5548   0.045434
 H 0.3915 0.7254 0.5408   0.069986
 H 0.4537 0.2438 0.5705   0.084233
 H 0.6181 0.1411 0.5739   0.070187
 C 0.5713 0.5831 0.84725   0.74669
 C 0.6128 0.3945 0.95781   -0.12361
 C 0.4992 0.5154 0.91963   -0.181695
 C 0.468 0.6671 0.96938   -0.101008
 C 0.8577 0.9577 0.85299   0.743351
 C 0.888 0.9817 0.93446   -0.18636
 C 0.9677 0.829 0.9682   -0.102502
 C 0.0062 0.1469 0.94957   -0.114434
 C 0.9287 0.4169 0.34725   0.746693
 C 0.8872 0.6055 0.45781   -0.123607
 C 0.000799999999998 0.4846 0.41963   -0.181699
 C 0.032 0.3329 0.46938   -0.101006
 C 0.6423 0.0423 0.35299   0.743371
 C 0.612 0.0183 0.43446   -0.186362
 C 0.5323 0.171 0.4682   -0.102501
 C 0.4938 0.8531 0.44957   -0.114437
 C 0.4287 0.4169 0.15275   0.746691
 C 0.3872 0.6055 0.04219   -0.123604
 C 0.5008 0.4846 0.08037   -0.181699
 C 0.532 0.3329 0.03062   -0.101002
 C 0.1423 0.0423 0.14701   0.74335
 C 0.112 0.0183 0.06554   -0.186364
 C 0.0323 0.171 0.0318   -0.102497
 C 0.9938 0.8531 0.05043   -0.114431
 C 0.0713 0.5831 0.65275   0.746695
 C 0.1128 0.3945 0.54219   -0.123606
 C 0.9992 0.5154 0.58037   -0.1817
 C 0.968 0.6671 0.53062   -0.101006
 C 0.3577 0.9577 0.64701   0.743358
 C 0.388 0.9817 0.56554   -0.186368
 C 0.4677 0.829 0.5318   -0.102496
 C 0.5062 0.1469 0.55043   -0.114434
 O 0.47368 0.66073 0.80637   -0.84719
 O 0.72716 0.56732 0.82866   -0.665566
 O 0.97295 0.90069 0.8139   -0.826152
 O 0.7142 0.99262 0.82565   -0.686653
 O 0.02632 0.33927 0.30637   -0.847198
 O 0.77284 0.43268 0.32866   -0.665568
 O 0.52705 0.09931 0.3139   -0.826199
 O 0.7858 0.00738 0.32565   -0.686661
 O 0.52632 0.33927 0.19363   -0.84721
 O 0.27284 0.43268 0.17134   -0.665586
 O 0.02705 0.09931 0.1861   -0.826165
 O 0.2858 0.00738 0.17435   -0.686673
 O 0.97368 0.66073 0.69363   -0.847196
 O 0.22716 0.56732 0.67134   -0.665567
 O 0.47295 0.90069 0.6861   -0.826158
 O 0.2142 0.99262 0.67435   -0.686654
