{'_ref': 'TBD', '_srcid': 'CAKYAQ_clean', 'submitters': [{'name': 'Dalar Nazarian Jeff Camp and David Sholl', 'email': 'dalar@gatech.edu jcamp6@gatech.edu'}], '_method': 'VASP DFT with PBE;DDEC'}
data_MgH4C4O5
_symmetry_space_group_name_H-M   'P 1'
_cell_length_a   6.86040000
_cell_length_b   9.99250000
_cell_length_c   10.88410000
_cell_angle_alpha   90.00000000
_cell_angle_beta   90.00000000
_cell_angle_gamma   90.00000000
_symmetry_Int_Tables_number   1
_chemical_formula_structural   MgH4C4O5
_chemical_formula_sum   'Mg4 H16 C16 O20'
_cell_volume   746.132776803
_cell_formula_units_Z   4
loop_
 _symmetry_equiv_pos_site_id
 _symmetry_equiv_pos_as_xyz
  1  'x, y, z'
loop_
 _atom_site_label
 _atom_site_fract_x
 _atom_site_fract_y
 _atom_site_fract_z
 _atom_site_charge
 Mg 0.85759 0.20318 0.28934   1.492989
 Mg 0.64241 0.79682 0.78934   1.492989
 Mg 0.14241 0.70318 0.21066   1.492991
 Mg 0.35759 0.29682 0.71066   1.492991
 H 0.56 0.892 0.311   0.099788
 H 0.674 0.921 0.428   0.093004
 H 0.532 0.085 0.513   0.098141
 H 0.371 0.125 0.417   0.120791
 H 0.94 0.108 0.811   0.099788
 H 0.826 0.079 0.928   0.093004
 H 0.968 0.915 0.013   0.098141
 H 0.129 0.875 0.917   0.120791
 H 0.44 0.392 0.189   0.099788
 H 0.326 0.421 0.072   0.093004
 H 0.468 0.585 0.987   0.098141
 H 0.629 0.625 0.083   0.120791
 H 0.06 0.608 0.689   0.099788
 H 0.174 0.579 0.572   0.093004
 H 0.032 0.415 0.487   0.098141
 H 0.871 0.375 0.583   0.120791
 C 0.852 0.91614 0.27633   0.725561
 C 0.5466 0.2807 0.45012   0.725163
 C 0.6622 0.9422 0.3439   -0.023797
 C 0.5022 0.1324 0.4344   -0.071798
 C 0.648 0.08386 0.77633   0.725561
 C 0.9534 0.7193 0.95012   0.725163
 C 0.8378 0.0578 0.8439   -0.023797
 C 0.9978 0.8676 0.9344   -0.071798
 C 0.148 0.41614 0.22367   0.72556
 C 0.4534 0.7807 0.04988   0.725161
 C 0.3378 0.4422 0.1561   -0.023797
 C 0.4978 0.6324 0.0656   -0.071797
 C 0.352 0.58386 0.72367   0.72556
 C 0.0466 0.2193 0.54988   0.725161
 C 0.1622 0.5578 0.6561   -0.023797
 C 0.0022 0.3676 0.5656   -0.071797
 O 0.6218 0.0821 0.3382   -0.415641
 O 0.8976 0.79405 0.26557   -0.734174
 O 0.4663 0.34167 0.53657   -0.707456
 O 0.662 0.3343 0.37449   -0.722905
 O 0.9481 0.01252 0.23739   -0.679667
 O 0.8782 0.9179 0.8382   -0.415641
 O 0.6024 0.20595 0.76557   -0.734174
 O 0.0337 0.65833 0.03657   -0.707456
 O 0.838 0.6657 0.87449   -0.722905
 O 0.5519 0.98748 0.73739   -0.679667
 O 0.3782 0.5821 0.1618   -0.415641
 O 0.1024 0.29405 0.23443   -0.734174
 O 0.5337 0.84167 0.96343   -0.707456
 O 0.338 0.8343 0.12551   -0.722904
 O 0.0519 0.51252 0.26261   -0.679666
 O 0.1218 0.4179 0.6618   -0.415641
 O 0.3976 0.70595 0.73443   -0.734174
 O 0.9663 0.15833 0.46343   -0.707456
 O 0.162 0.1657 0.62551   -0.722904
 O 0.4481 0.48748 0.76261   -0.679666
