{'_ref': 'TBD', '_srcid': 'CAKYAQ_clean', 'submitters': [{'name': 'Dalar Nazarian Jeff Camp and David Sholl', 'email': 'dalar@gatech.edu jcamp6@gatech.edu'}], '_method': 'VASP DFT with PBE;DDEC'}
data_CaH8C14SO6
_symmetry_space_group_name_H-M   'P 1'
_cell_length_a   5.57610000
_cell_length_b   11.83009975
_cell_length_c   22.79220000
_cell_angle_alpha   100.49299846
_cell_angle_beta   90.00000000
_cell_angle_gamma   90.00000000
_symmetry_Int_Tables_number   1
_chemical_formula_structural   CaH8C14SO6
_chemical_formula_sum   'Ca4 H32 C56 S4 O24'
_cell_volume   1478.36326669
_cell_formula_units_Z   4
loop_
 _symmetry_equiv_pos_site_id
 _symmetry_equiv_pos_as_xyz
  1  'x, y, z'
loop_
 _atom_site_label
 _atom_site_fract_x
 _atom_site_fract_y
 _atom_site_fract_z
 _atom_site_charge
 Ca 0.25638 0.86341 0.77716   1.595377
 Ca 0.75638 0.63659 0.72284   1.595371
 Ca 0.74362 0.13659 0.22284   1.595377
 Ca 0.24362 0.36341 0.27716   1.595371
 H 0.6247 0.2676 0.0941   0.114654
 H 0.7063 0.225 0.9925   0.099724
 H 0.0553 0.0791 0.9627   0.098576
 H 0.9714 0.1268 0.064   0.094922
 H 0.9781 0.3161 0.7806   0.087825
 H 0.0637 0.1615 0.8271   0.102089
 H 0.6987 0.3065 0.8817   0.100186
 H 0.6187 0.4564 0.831   0.108018
 H 0.1247 0.2324 0.4059   0.114654
 H 0.2063 0.275 0.5075   0.099724
 H 0.5553 0.4209 0.5373   0.098576
 H 0.4714 0.3732 0.436   0.094922
 H 0.4781 0.1839 0.7194   0.087825
 H 0.5637 0.3385 0.6729   0.102089
 H 0.1987 0.1935 0.6183   0.100186
 H 0.1187 0.0436 0.669   0.108018
 H 0.3753 0.7324 0.9059   0.114654
 H 0.2937 0.775 0.0075   0.099724
 H 0.9447 0.9209 0.0373   0.098576
 H 0.0286 0.8732 0.936   0.094923
 H 0.0219 0.6839 0.2194   0.087825
 H 0.9363 0.8385 0.1729   0.102089
 H 0.3013 0.6935 0.1183   0.100186
 H 0.3813 0.5436 0.169   0.108018
 H 0.8753 0.7676 0.5941   0.114654
 H 0.7937 0.725 0.4925   0.099724
 H 0.4447 0.5791 0.4627   0.098576
 H 0.5286 0.6268 0.564   0.094923
 H 0.5219 0.8161 0.2806   0.087825
 H 0.4363 0.6615 0.3271   0.102089
 H 0.8013 0.8065 0.3817   0.100186
 H 0.8813 0.9564 0.331   0.108018
 C 0.2388 0.22297 0.15511   0.753676
 C 0.2926 0.19845 0.08926   -0.111478
 C 0.5112 0.2294 0.06784   -0.049003
 C 0.5609 0.2035 0.00712   -0.039223
 C 0.3908 0.1452 0.96866   -0.210689
 C 0.1693 0.1165 0.98913   -0.030235
 C 0.1205 0.1444 0.04971   -0.037641
 C 0.2413 0.4956 0.76542   0.764478
 C 0.2924 0.40045 0.80037   -0.106437
 C 0.1242 0.3128 0.79992   -0.051337
 C 0.1736 0.2209 0.82817   -0.016407
 C 0.3896 0.21937 0.85797   -0.226425
 C 0.5566 0.3077 0.86044   -0.035054
 C 0.5072 0.3978 0.83062   -0.05804
 C 0.7388 0.27703 0.34489   0.753676
 C 0.7926 0.30155 0.41074   -0.111478
 C 0.0112 0.2706 0.43216   -0.049003
 C 0.0609 0.2965 0.49288   -0.039223
 C 0.8908 0.3548 0.53134   -0.210689
 C 0.6693 0.3835 0.51087   -0.030235
 C 0.6205 0.3556 0.45029   -0.037641
 C 0.7413 0.0044 0.73458   0.764479
 C 0.7924 0.09955 0.69963   -0.106437
 C 0.6242 0.1872 0.70008   -0.051337
 C 0.6736 0.2791 0.67183   -0.016407
 C 0.8896 0.28063 0.64203   -0.226425
 C 0.0566 0.1923 0.63956   -0.035054
 C 0.0072 0.1022 0.66938   -0.05804
 C 0.7612 0.77703 0.84489   0.753676
 C 0.7074 0.80155 0.91074   -0.111478
 C 0.4888 0.7706 0.93216   -0.049003
 C 0.4391 0.7965 0.99288   -0.039223
 C 0.6092 0.8548 0.03134   -0.210689
 C 0.8307 0.8835 0.01087   -0.030235
 C 0.8795 0.8556 0.95029   -0.037641
 C 0.7587 0.5044 0.23458   0.764478
 C 0.7076 0.59955 0.19963   -0.106437
 C 0.8758 0.6872 0.20008   -0.051337
 C 0.8264 0.7791 0.17183   -0.016407
 C 0.6104 0.78063 0.14203   -0.226425
 C 0.4434 0.6923 0.13956   -0.035054
 C 0.4928 0.6022 0.16938   -0.05804
 C 0.2612 0.72297 0.65511   0.753676
 C 0.2074 0.69845 0.58926   -0.111478
 C 0.9888 0.7294 0.56784   -0.049003
 C 0.9391 0.7035 0.50712   -0.039223
 C 0.1092 0.6452 0.46866   -0.210689
 C 0.3307 0.6165 0.48913   -0.030235
 C 0.3795 0.6444 0.54971   -0.037641
 C 0.2587 0.9956 0.26542   0.764479
 C 0.2076 0.90045 0.30037   -0.106437
 C 0.3758 0.8128 0.29992   -0.051337
 C 0.3264 0.7209 0.32817   -0.016407
 C 0.1104 0.71937 0.35797   -0.226425
 C 0.9434 0.8077 0.36044   -0.035054
 C 0.9928 0.8978 0.33062   -0.05804
 S 0.46382 0.10211 0.89229   1.150928
 S 0.96382 0.39789 0.60771   1.150928
 S 0.53618 0.89789 0.10771   1.150928
 S 0.03618 0.60211 0.39229   1.150928
 O 0.4144 0.23728 0.19073   -0.784276
 O 0.0249 0.23181 0.17169   -0.711321
 O 0.0255 0.51599 0.75668   -0.732889
 O 0.4192 0.54325 0.74735   -0.712612
 O 0.3055 0.00697 0.86877   -0.625622
 O 0.7189 0.08508 0.88821   -0.531762
 O 0.9144 0.26272 0.30927   -0.784276
 O 0.5249 0.26819 0.32831   -0.711321
 O 0.5255 0.98401 0.74332   -0.732889
 O 0.9192 0.95675 0.75265   -0.712612
 O 0.8055 0.49303 0.63123   -0.625622
 O 0.2189 0.41492 0.61179   -0.531762
 O 0.5856 0.76272 0.80927   -0.784276
 O 0.9751 0.76819 0.82831   -0.711321
 O 0.9745 0.48401 0.24332   -0.732889
 O 0.5808 0.45675 0.25265   -0.712612
 O 0.6945 0.99303 0.13123   -0.625622
 O 0.2811 0.91492 0.11179   -0.531762
 O 0.0856 0.73728 0.69073   -0.784276
 O 0.4751 0.73181 0.67169   -0.711321
 O 0.4745 0.01599 0.25668   -0.732889
 O 0.0808 0.04325 0.24735   -0.712612
 O 0.1945 0.50697 0.36877   -0.625622
 O 0.7811 0.58508 0.38821   -0.531762
