{'_ref': 'TBD', '_srcid': 'CAKYAQ_clean', 'submitters': [{'name': 'Dalar Nazarian Jeff Camp and David Sholl', 'email': 'dalar@gatech.edu jcamp6@gatech.edu'}], '_method': 'VASP DFT with PBE;DDEC'}
data_SrH8C14SO6
_symmetry_space_group_name_H-M   'P 1'
_cell_length_a   5.72770000
_cell_length_b   12.17219999
_cell_length_c   22.90340000
_cell_angle_alpha   98.85699958
_cell_angle_beta   90.00000000
_cell_angle_gamma   90.00000000
_symmetry_Int_Tables_number   1
_chemical_formula_structural   SrH8C14SO6
_chemical_formula_sum   'Sr4 H32 C56 S4 O24'
_cell_volume   1577.75482798
_cell_formula_units_Z   4
loop_
 _symmetry_equiv_pos_site_id
 _symmetry_equiv_pos_as_xyz
  1  'x, y, z'
loop_
 _atom_site_label
 _atom_site_fract_x
 _atom_site_fract_y
 _atom_site_fract_z
 _atom_site_charge
 Sr 0.25535 0.63348 0.22433   1.640053
 Sr 0.75535 0.86652 0.27567   1.640053
 Sr 0.74465 0.36652 0.77567   1.640053
 Sr 0.24465 0.13348 0.72433   1.640053
 H 0.5127 0.3711 0.9359   0.096369
 H 0.4362 0.4193 0.0353   0.101062
 H 0.795 0.2868 0.0102   0.098668
 H 0.8727 0.2398 0.9101   0.114668
 H 0.4341 0.3408 0.17   0.103747
 H 0.5194 0.1903 0.2167   0.08892
 H 0.8927 0.0568 0.1716   0.103851
 H 0.809 0.2047 0.1218   0.099566
 H 0.0127 0.1289 0.5641   0.096369
 H 0.9362 0.0807 0.4647   0.101062
 H 0.295 0.2132 0.4898   0.098668
 H 0.3727 0.2602 0.5899   0.114668
 H 0.9341 0.1592 0.33   0.103747
 H 0.0194 0.3097 0.2833   0.08892
 H 0.3927 0.4432 0.3284   0.103851
 H 0.309 0.2953 0.3782   0.099566
 H 0.4873 0.6289 0.0641   0.096369
 H 0.5638 0.5807 0.9647   0.101062
 H 0.205 0.7132 0.9898   0.098668
 H 0.1273 0.7602 0.0899   0.114668
 H 0.5659 0.6592 0.83   0.103747
 H 0.4806 0.8097 0.7833   0.08892
 H 0.1073 0.9432 0.8284   0.103851
 H 0.191 0.7953 0.8782   0.099565
 H 0.9873 0.8711 0.4359   0.096369
 H 0.0638 0.9193 0.5353   0.101062
 H 0.705 0.7868 0.5102   0.098668
 H 0.6273 0.7398 0.4101   0.114668
 H 0.0659 0.8408 0.67   0.103747
 H 0.9806 0.6903 0.7167   0.08892
 H 0.6073 0.5568 0.6716   0.103851
 H 0.691 0.7047 0.6218   0.099565
 C 0.2462 0.2761 0.84752   0.751801
 C 0.199 0.3027 0.91271   -0.108997
 C 0.3675 0.3552 0.95073   -0.038523
 C 0.3227 0.384 0.01003   -0.031882
 C 0.1071 0.3599 0.03157   -0.209074
 C 0.9381 0.3047 0.9949   -0.038512
 C 0.9851 0.2765 0.9352   -0.049384
 C 0.1122 0.2871 0.1425   -0.223812
 C 0.3263 0.2838 0.17017   -0.022772
 C 0.376 0.1938 0.19807   -0.046867
 C 0.2155 0.1084 0.19882   -0.112288
 C 0.0017 0.1132 0.17081   -0.051372
 C 0.9502 0.2021 0.14166   -0.036587
 C 0.272 0.0129 0.23206   0.769375
 C 0.7462 0.2239 0.65248   0.751801
 C 0.699 0.1973 0.58729   -0.108997
 C 0.8675 0.1448 0.54927   -0.038523
 C 0.8227 0.116 0.48997   -0.031882
 C 0.6071 0.1401 0.46843   -0.209074
 C 0.4381 0.1953 0.5051   -0.038512
 C 0.4851 0.2235 0.5648   -0.049384
 C 0.6122 0.2129 0.3575   -0.223812
 C 0.8263 0.2162 0.32983   -0.022772
 C 0.876 0.3062 0.30193   -0.046867
 C 0.7155 0.3916 0.30118   -0.112288
 C 0.5017 0.3868 0.32919   -0.051372
 C 0.4502 0.2979 0.35834   -0.036587
 C 0.772 0.4871 0.26794   0.769375
 C 0.7538 0.7239 0.15248   0.751801
 C 0.801 0.6973 0.08729   -0.108997
 C 0.6325 0.6448 0.04927   -0.038523
 C 0.6773 0.616 0.98997   -0.031882
 C 0.8929 0.6401 0.96843   -0.209074
 C 0.0619 0.6953 0.0051   -0.038513
 C 0.0149 0.7235 0.0648   -0.049384
 C 0.8878 0.7129 0.8575   -0.223812
 C 0.6737 0.7162 0.82983   -0.022772
 C 0.624 0.8062 0.80193   -0.046867
 C 0.7845 0.8916 0.80118   -0.112288
 C 0.9983 0.8868 0.82919   -0.051372
 C 0.0498 0.7979 0.85834   -0.036587
 C 0.728 0.9871 0.76794   0.769375
 C 0.2538 0.7761 0.34752   0.751801
 C 0.301 0.8027 0.41271   -0.108997
 C 0.1325 0.8552 0.45073   -0.038523
 C 0.1773 0.884 0.51003   -0.031882
 C 0.3929 0.8599 0.53157   -0.209074
 C 0.5619 0.8047 0.4949   -0.038513
 C 0.5149 0.7765 0.4352   -0.049384
 C 0.3878 0.7871 0.6425   -0.223812
 C 0.1737 0.7838 0.67017   -0.022772
 C 0.124 0.6938 0.69807   -0.046867
 C 0.2845 0.6084 0.69882   -0.112288
 C 0.4983 0.6132 0.67081   -0.051372
 C 0.5498 0.7021 0.64166   -0.036587
 C 0.228 0.5129 0.73206   0.769375
 S 0.03829 0.40134 0.10715   1.15219
 S 0.53829 0.09866 0.39285   1.15219
 S 0.96171 0.59866 0.89285   1.15219
 S 0.46171 0.90134 0.60715   1.15219
 O 0.4821 0.99559 0.24078   -0.735748
 O 0.1047 0.96072 0.24883   -0.728531
 O 0.4518 0.26519 0.82963   -0.722368
 O 0.0711 0.2617 0.81349   -0.792798
 O 0.1943 0.49219 0.12892   -0.63379
 O 0.7908 0.41829 0.1117   -0.536964
 O 0.9821 0.50441 0.25922   -0.735748
 O 0.6047 0.53928 0.25117   -0.728531
 O 0.9518 0.23481 0.67037   -0.722368
 O 0.5711 0.2383 0.68651   -0.792798
 O 0.6943 0.00781 0.37108   -0.63379
 O 0.2908 0.08171 0.3883   -0.536964
 O 0.5179 0.00441 0.75922   -0.735748
 O 0.8953 0.03928 0.75117   -0.728531
 O 0.5482 0.73481 0.17037   -0.722368
 O 0.9289 0.7383 0.18651   -0.792798
 O 0.8057 0.50781 0.87108   -0.63379
 O 0.2092 0.58171 0.8883   -0.536964
 O 0.0179 0.49559 0.74078   -0.735748
 O 0.3953 0.46072 0.74883   -0.728531
 O 0.0482 0.76519 0.32963   -0.722368
 O 0.4289 0.7617 0.31349   -0.792798
 O 0.3057 0.99219 0.62892   -0.63379
 O 0.7092 0.91829 0.6117   -0.536964
