{'_ref': 'TBD', '_srcid': 'CAKYAQ_clean', 'submitters': [{'name': 'Dalar Nazarian Jeff Camp and David Sholl', 'email': 'dalar@gatech.edu jcamp6@gatech.edu'}], '_method': 'VASP DFT with PBE;DDEC'}
data_ZnSiH28C40(N2F3)2
_symmetry_space_group_name_H-M   'P 1'
_cell_length_a   15.04730000
_cell_length_b   17.78920000
_cell_length_c   17.78920000
_cell_angle_alpha   90.00000000
_cell_angle_beta   90.00000000
_cell_angle_gamma   90.00000000
_symmetry_Int_Tables_number   1
_chemical_formula_structural   ZnSiH28C40(N2F3)2
_chemical_formula_sum   'Zn4 Si4 H112 C160 N16 F24'
_cell_volume   4761.80290121
_cell_formula_units_Z   4
loop_
 _symmetry_equiv_pos_site_id
 _symmetry_equiv_pos_as_xyz
  1  'x, y, z'
loop_
 _atom_site_label
 _atom_site_fract_x
 _atom_site_fract_y
 _atom_site_fract_z
 _atom_site_charge
 Zn 0.87156 0.75 0.75   0.779604
 Zn 0.37156 0.75 0.75   0.779604
 Zn 0.62844 0.25 0.25   0.779604
 Zn 0.12844 0.25 0.25   0.779604
 Si 0.62147 0.75 0.75   1.828351
 Si 0.12147 0.75 0.75   1.828351
 Si 0.87853 0.25 0.25   1.828351
 Si 0.37853 0.25 0.25   1.828351
 H 0.7711 0.8268 0.8781   0.092604
 H 0.7726 0.8404 0.0075   0.131009
 H 0.9767 0.6923 0.0154   0.129274
 H 0.973 0.6863 0.8852   0.093723
 H 0.8801 0.6616 0.1306   0.115958
 H 0.8752 0.8993 0.2437   0.113382
 H 0.8707 0.8889 0.1146   0.106119
 H 0.7711 0.6732 0.6219   0.092604
 H 0.7726 0.6596 0.4925   0.131009
 H 0.9767 0.8077 0.4846   0.129274
 H 0.973 0.8137 0.6148   0.093723
 H 0.8801 0.8384 0.3694   0.115959
 H 0.8752 0.6007 0.2563   0.113383
 H 0.8707 0.6111 0.3854   0.106119
 H 0.7711 0.6219 0.8268   0.092604
 H 0.7726 0.4925 0.8404   0.131009
 H 0.9767 0.4846 0.6923   0.129273
 H 0.973 0.6148 0.6863   0.093723
 H 0.8801 0.3694 0.6616   0.115958
 H 0.8752 0.2563 0.8993   0.113382
 H 0.8707 0.3854 0.8889   0.106119
 H 0.7711 0.8781 0.6732   0.092604
 H 0.7726 0.0075 0.6596   0.131009
 H 0.9767 0.0154 0.8077   0.129273
 H 0.973 0.8852 0.8137   0.093723
 H 0.8801 0.1306 0.8384   0.115958
 H 0.8752 0.2437 0.6007   0.113383
 H 0.8707 0.1146 0.6111   0.106119
 H 0.2711 0.8268 0.6219   0.092604
 H 0.2726 0.8404 0.4925   0.131009
 H 0.4767 0.6923 0.4846   0.129274
 H 0.473 0.6863 0.6148   0.093723
 H 0.3801 0.6616 0.3694   0.115958
 H 0.3752 0.8993 0.2563   0.113382
 H 0.3707 0.8889 0.3854   0.106119
 H 0.2711 0.6732 0.8781   0.092604
 H 0.2726 0.6596 0.0075   0.131009
 H 0.4767 0.8077 0.0154   0.129274
 H 0.473 0.8137 0.8852   0.093723
 H 0.3801 0.8384 0.1306   0.115959
 H 0.3752 0.6007 0.2437   0.113383
 H 0.3707 0.6111 0.1146   0.106119
 H 0.2711 0.6219 0.6732   0.092604
 H 0.2726 0.4925 0.6596   0.131009
 H 0.4767 0.4846 0.8077   0.129274
 H 0.473 0.6148 0.8137   0.093723
 H 0.3801 0.3694 0.8384   0.115958
 H 0.3752 0.2563 0.6007   0.113382
 H 0.3707 0.3854 0.6111   0.106119
 H 0.2711 0.8781 0.8268   0.092604
 H 0.2726 0.0075 0.8404   0.131009
 H 0.4767 0.0154 0.6923   0.129274
 H 0.473 0.8852 0.6863   0.093723
 H 0.3801 0.1306 0.6616   0.115958
 H 0.3752 0.2437 0.8993   0.113383
 H 0.3707 0.1146 0.8889   0.106119
 H 0.7289 0.1732 0.3781   0.092604
 H 0.7274 0.1596 0.5075   0.131008
 H 0.5233 0.3077 0.5154   0.129274
 H 0.527 0.3137 0.3852   0.093723
 H 0.6199 0.3384 0.6306   0.115958
 H 0.6248 0.1007 0.7437   0.113383
 H 0.6293 0.1111 0.6146   0.106119
 H 0.7289 0.3268 0.1219   0.092604
 H 0.7274 0.3404 0.9925   0.131008
 H 0.5233 0.1923 0.9846   0.129274
 H 0.527 0.1863 0.1148   0.093723
 H 0.6199 0.1616 0.8694   0.115959
 H 0.6248 0.3993 0.7563   0.113383
 H 0.6293 0.3889 0.8854   0.106119
 H 0.7289 0.3781 0.3268   0.092604
 H 0.7274 0.5075 0.3404   0.131008
 H 0.5233 0.5154 0.1923   0.129274
 H 0.527 0.3852 0.1863   0.093723
 H 0.6199 0.6306 0.1616   0.115958
 H 0.6248 0.7437 0.3993   0.113383
 H 0.6293 0.6146 0.3889   0.106119
 H 0.7289 0.1219 0.1732   0.092604
 H 0.7274 0.9925 0.1596   0.131008
 H 0.5233 0.9846 0.3077   0.129274
 H 0.527 0.1148 0.3137   0.093723
 H 0.6199 0.8694 0.3384   0.115959
 H 0.6248 0.7563 0.1007   0.113383
 H 0.6293 0.8854 0.1111   0.106119
 H 0.2289 0.1732 0.1219   0.092604
 H 0.2274 0.1596 0.9925   0.131008
 H 0.0233 0.3077 0.9846   0.129274
 H 0.027 0.3137 0.1148   0.093723
 H 0.1199 0.3384 0.8694   0.115958
 H 0.1248 0.1007 0.7563   0.113383
 H 0.1293 0.1111 0.8854   0.106119
 H 0.2289 0.3268 0.3781   0.092604
 H 0.2274 0.3404 0.5075   0.131008
 H 0.0233 0.1923 0.5154   0.129274
 H 0.027 0.1863 0.3852   0.093723
 H 0.1199 0.1616 0.6306   0.115959
 H 0.1248 0.3993 0.7437   0.113383
 H 0.1293 0.3889 0.6146   0.106119
 H 0.2289 0.3781 0.1732   0.092604
 H 0.2274 0.5075 0.1596   0.131008
 H 0.0233 0.5154 0.3077   0.129274
 H 0.027 0.3852 0.3137   0.093723
 H 0.1199 0.6306 0.3384   0.115958
 H 0.1248 0.7437 0.1007   0.113383
 H 0.1293 0.6146 0.1111   0.106119
 H 0.2289 0.1219 0.3268   0.092604
 H 0.2274 0.9925 0.3404   0.131008
 H 0.0233 0.9846 0.1923   0.129274
 H 0.027 0.1148 0.1863   0.093723
 H 0.1199 0.8694 0.1616   0.115959
 H 0.1248 0.7563 0.3993   0.113383
 H 0.1293 0.8854 0.3889   0.106119
 C 0.814 0.79983 0.90653   0.173485
 C 0.8138 0.80762 0.98369   -0.224078
 C 0.87475 0.7668 0.0264   0.122906
 C 0.9342 0.7211 0.98827   -0.22013
 C 0.9313 0.71739 0.91061   0.175102
 C 0.87629 0.773 0.1094   0.029874
 C 0.87827 0.7097 0.15379   -0.16264
 C 0.87764 0.7145 0.23265   0.058574
 C 0.8755 0.8509 0.2211   -0.110667
 C 0.8737 0.8448 0.1446   -0.128978
 C 0.814 0.70017 0.59347   0.173485
 C 0.8138 0.69238 0.51631   -0.224078
 C 0.87475 0.7332 0.4736   0.122906
 C 0.9342 0.7789 0.51173   -0.22013
 C 0.9313 0.78261 0.58939   0.175102
 C 0.87629 0.727 0.3906   0.029874
 C 0.87827 0.7903 0.34621   -0.162641
 C 0.87764 0.7855 0.26735   0.058574
 C 0.8755 0.6491 0.2789   -0.110668
 C 0.8737 0.6552 0.3554   -0.128978
 C 0.814 0.59347 0.79983   0.173484
 C 0.8138 0.51631 0.80762   -0.224078
 C 0.87475 0.4736 0.7668   0.122906
 C 0.9342 0.51173 0.7211   -0.22013
 C 0.9313 0.58939 0.71739   0.175102
 C 0.87629 0.3906 0.773   0.029874
 C 0.87827 0.34621 0.7097   -0.16264
 C 0.87764 0.26735 0.7145   0.058574
 C 0.8755 0.2789 0.8509   -0.110667
 C 0.8737 0.3554 0.8448   -0.128978
 C 0.814 0.90653 0.70017   0.173484
 C 0.8138 0.98369 0.69238   -0.224078
 C 0.87475 0.0264 0.7332   0.122906
 C 0.9342 0.98827 0.7789   -0.22013
 C 0.9313 0.91061 0.78261   0.175102
 C 0.87629 0.1094 0.727   0.029874
 C 0.87827 0.15379 0.7903   -0.162641
 C 0.87764 0.23265 0.7855   0.058574
 C 0.8755 0.2211 0.6491   -0.110668
 C 0.8737 0.1446 0.6552   -0.128978
 C 0.314 0.79983 0.59347   0.173485
 C 0.3138 0.80762 0.51631   -0.224078
 C 0.37475 0.7668 0.4736   0.122906
 C 0.4342 0.7211 0.51173   -0.22013
 C 0.4313 0.71739 0.58939   0.175102
 C 0.37629 0.773 0.3906   0.029874
 C 0.37827 0.7097 0.34621   -0.16264
 C 0.37764 0.7145 0.26735   0.058574
 C 0.3755 0.8509 0.2789   -0.110667
 C 0.3737 0.8448 0.3554   -0.128978
 C 0.314 0.70017 0.90653   0.173485
 C 0.3138 0.69238 0.98369   -0.224078
 C 0.37475 0.7332 0.0264   0.122906
 C 0.4342 0.7789 0.98827   -0.22013
 C 0.4313 0.78261 0.91061   0.175102
 C 0.37629 0.727 0.1094   0.029874
 C 0.37827 0.7903 0.15379   -0.162641
 C 0.37764 0.7855 0.23265   0.058574
 C 0.3755 0.6491 0.2211   -0.110668
 C 0.3737 0.6552 0.1446   -0.128978
 C 0.314 0.59347 0.70017   0.173484
 C 0.3138 0.51631 0.69238   -0.224078
 C 0.37475 0.4736 0.7332   0.122906
 C 0.4342 0.51173 0.7789   -0.22013
 C 0.4313 0.58939 0.78261   0.175102
 C 0.37629 0.3906 0.727   0.029874
 C 0.37827 0.34621 0.7903   -0.16264
 C 0.37764 0.26735 0.7855   0.058574
 C 0.3755 0.2789 0.6491   -0.110667
 C 0.3737 0.3554 0.6552   -0.128978
 C 0.314 0.90653 0.79983   0.173484
 C 0.3138 0.98369 0.80762   -0.224078
 C 0.37475 0.0264 0.7668   0.122906
 C 0.4342 0.98827 0.7211   -0.22013
 C 0.4313 0.91061 0.71739   0.175102
 C 0.37629 0.1094 0.773   0.029874
 C 0.37827 0.15379 0.7097   -0.162641
 C 0.37764 0.23265 0.7145   0.058574
 C 0.3755 0.2211 0.8509   -0.110668
 C 0.3737 0.1446 0.8448   -0.128978
 C 0.686 0.20017 0.40653   0.173485
 C 0.6862 0.19238 0.48369   -0.224078
 C 0.62525 0.2332 0.5264   0.122906
 C 0.5658 0.2789 0.48827   -0.22013
 C 0.5687 0.28261 0.41061   0.175102
 C 0.62371 0.227 0.6094   0.029874
 C 0.62173 0.2903 0.65379   -0.162641
 C 0.62236 0.2855 0.73265   0.058574
 C 0.6245 0.1491 0.7211   -0.110668
 C 0.6263 0.1552 0.6446   -0.128978
 C 0.686 0.29983 0.09347   0.173485
 C 0.6862 0.30762 0.01631   -0.224078
 C 0.62525 0.2668 0.9736   0.122906
 C 0.5658 0.2211 0.01173   -0.22013
 C 0.5687 0.21739 0.08939   0.175102
 C 0.62371 0.273 0.8906   0.029874
 C 0.62173 0.2097 0.84621   -0.162641
 C 0.62236 0.2145 0.76735   0.058574
 C 0.6245 0.3509 0.7789   -0.110668
 C 0.6263 0.3448 0.8554   -0.128978
 C 0.686 0.40653 0.29983   0.173484
 C 0.6862 0.48369 0.30762   -0.224078
 C 0.62525 0.5264 0.2668   0.122906
 C 0.5658 0.48827 0.2211   -0.22013
 C 0.5687 0.41061 0.21739   0.175102
 C 0.62371 0.6094 0.273   0.029874
 C 0.62173 0.65379 0.2097   -0.162641
 C 0.62236 0.73265 0.2145   0.058574
 C 0.6245 0.7211 0.3509   -0.110668
 C 0.6263 0.6446 0.3448   -0.128978
 C 0.686 0.09347 0.20017   0.173484
 C 0.6862 0.01631 0.19238   -0.224078
 C 0.62525 0.9736 0.2332   0.122906
 C 0.5658 0.01173 0.2789   -0.22013
 C 0.5687 0.08939 0.28261   0.175102
 C 0.62371 0.8906 0.227   0.029874
 C 0.62173 0.84621 0.2903   -0.162641
 C 0.62236 0.76735 0.2855   0.058574
 C 0.6245 0.7789 0.1491   -0.110668
 C 0.6263 0.8554 0.1552   -0.128978
 C 0.186 0.20017 0.09347   0.173485
 C 0.1862 0.19238 0.01631   -0.224078
 C 0.12525 0.2332 0.9736   0.122906
 C 0.0658 0.2789 0.01173   -0.22013
 C 0.0687 0.28261 0.08939   0.175102
 C 0.12371 0.227 0.8906   0.029874
 C 0.12173 0.2903 0.84621   -0.162641
 C 0.12236 0.2855 0.76735   0.058574
 C 0.1245 0.1491 0.7789   -0.110668
 C 0.1263 0.1552 0.8554   -0.128978
 C 0.186 0.29983 0.40653   0.173485
 C 0.1862 0.30762 0.48369   -0.224078
 C 0.12525 0.2668 0.5264   0.122906
 C 0.0658 0.2211 0.48827   -0.22013
 C 0.0687 0.21739 0.41061   0.175102
 C 0.12371 0.273 0.6094   0.029874
 C 0.12173 0.2097 0.65379   -0.162641
 C 0.12236 0.2145 0.73265   0.058574
 C 0.1245 0.3509 0.7211   -0.110668
 C 0.1263 0.3448 0.6446   -0.128978
 C 0.186 0.40653 0.20017   0.173484
 C 0.1862 0.48369 0.19238   -0.224078
 C 0.12525 0.5264 0.2332   0.122906
 C 0.0658 0.48827 0.2789   -0.22013
 C 0.0687 0.41061 0.28261   0.175102
 C 0.12371 0.6094 0.227   0.029874
 C 0.12173 0.65379 0.2903   -0.162641
 C 0.12236 0.73265 0.2855   0.058574
 C 0.1245 0.7211 0.1491   -0.110668
 C 0.1263 0.6446 0.1552   -0.128978
 C 0.186 0.09347 0.29983   0.173484
 C 0.1862 0.01631 0.30762   -0.224078
 C 0.12525 0.9736 0.2668   0.122906
 C 0.0658 0.01173 0.2211   -0.22013
 C 0.0687 0.08939 0.21739   0.175102
 C 0.12371 0.8906 0.273   0.029874
 C 0.12173 0.84621 0.2097   -0.162641
 C 0.12236 0.76735 0.2145   0.058574
 C 0.1245 0.7789 0.3509   -0.110668
 C 0.1263 0.8554 0.3448   -0.128978
 N 0.87193 0.75602 0.86984   -0.311157
 N 0.87193 0.74398 0.63016   -0.311157
 N 0.87193 0.63016 0.75602   -0.311157
 N 0.87193 0.86984 0.74398   -0.311157
 N 0.37193 0.75602 0.63016   -0.311157
 N 0.37193 0.74398 0.86984   -0.311157
 N 0.37193 0.63016 0.74398   -0.311157
 N 0.37193 0.86984 0.75602   -0.311157
 N 0.62807 0.24398 0.36984   -0.311157
 N 0.62807 0.25602 0.13016   -0.311157
 N 0.62807 0.36984 0.25602   -0.311157
 N 0.62807 0.13016 0.24398   -0.311157
 N 0.12807 0.24398 0.13016   -0.311157
 N 0.12807 0.25602 0.36984   -0.311157
 N 0.12807 0.36984 0.24398   -0.311157
 N 0.12807 0.13016 0.25602   -0.311157
 F 0.62137 0.6993 0.82896   -0.586247
 F 0.62137 0.8007 0.67104   -0.586247
 F 0.62137 0.67104 0.6993   -0.586247
 F 0.62137 0.82896 0.8007   -0.586247
 F 0.12137 0.6993 0.67104   -0.586247
 F 0.12137 0.8007 0.82896   -0.586247
 F 0.12137 0.67104 0.8007   -0.586247
 F 0.12137 0.82896 0.6993   -0.586247
 F 0.7343 0.75 0.75   -0.499318
 F 0.5087 0.75 0.75   -0.501089
 F 0.2343 0.75 0.75   -0.499318
 F 0.0087 0.75 0.75   -0.501089
 F 0.87863 0.3007 0.32896   -0.586247
 F 0.87863 0.1993 0.17104   -0.586247
 F 0.87863 0.32896 0.1993   -0.586247
 F 0.87863 0.17104 0.3007   -0.586247
 F 0.37863 0.3007 0.17104   -0.586247
 F 0.37863 0.1993 0.32896   -0.586247
 F 0.37863 0.32896 0.3007   -0.586247
 F 0.37863 0.17104 0.1993   -0.586247
 F 0.7657 0.25 0.25   -0.499318
 F 0.9913 0.25 0.25   -0.501089
 F 0.2657 0.25 0.25   -0.499318
 F 0.4913 0.25 0.25   -0.501089
