{'_ref': 'TBD', '_srcid': 'CAKYAQ_clean', 'submitters': [{'name': 'Dalar Nazarian Jeff Camp and David Sholl', 'email': 'dalar@gatech.edu jcamp6@gatech.edu'}], '_method': 'VASP DFT with PBE;DDEC'}
data_Cu3H12C12(N3O4)2
_symmetry_space_group_name_H-M   'P 1'
_cell_length_a   14.04550000
_cell_length_b   14.04550000
_cell_length_c   14.60750000
_cell_angle_alpha   90.00000000
_cell_angle_beta   90.00000000
_cell_angle_gamma   90.00000000
_symmetry_Int_Tables_number   1
_chemical_formula_structural   Cu3H12C12(N3O4)2
_chemical_formula_sum   'Cu12 H48 C48 N24 O32'
_cell_volume   2881.71019618
_cell_formula_units_Z   4
loop_
 _symmetry_equiv_pos_site_id
 _symmetry_equiv_pos_as_xyz
  1  'x, y, z'
loop_
 _atom_site_label
 _atom_site_fract_x
 _atom_site_fract_y
 _atom_site_fract_z
 _atom_site_charge
 Cu 0.5 0.5 0.0   0.944199
 Cu 0.0 0.0 0.0   0.944199
 Cu 0.0 0.5 0.5   0.944199
 Cu 0.5 0.0 0.5   0.944199
 Cu 0.83378 0.66622 0.20861   0.713208
 Cu 0.66622 0.83378 0.20861   0.71321
 Cu 0.83378 0.83378 0.70861   0.713208
 Cu 0.66622 0.66622 0.70861   0.713211
 Cu 0.16622 0.16622 0.29139   0.713208
 Cu 0.33378 0.33378 0.29139   0.71321
 Cu 0.16622 0.33378 0.79139   0.713208
 Cu 0.33378 0.16622 0.79139   0.713211
 H 0.7757 0.4698 0.1332   0.152457
 H 0.6862 0.4264 0.0846   0.166556
 H 0.7625 0.4819 0.0272   0.152161
 H 0.7243 0.0302 0.1332   0.152456
 H 0.8138 0.0736 0.0846   0.166554
 H 0.7375 0.0181 0.0272   0.15216
 H 0.0302 0.7757 0.6332   0.152457
 H 0.0736 0.6862 0.5846   0.166556
 H 0.0181 0.7625 0.5272   0.152161
 H 0.4698 0.7243 0.6332   0.152456
 H 0.4264 0.8138 0.5846   0.166554
 H 0.4819 0.7375 0.5272   0.15216
 H 0.2243 0.9698 0.3668   0.152457
 H 0.3138 0.9264 0.4154   0.166554
 H 0.2375 0.9819 0.4728   0.152161
 H 0.2757 0.5302 0.3668   0.152456
 H 0.1862 0.5736 0.4154   0.166553
 H 0.2625 0.5181 0.4728   0.15216
 H 0.9698 0.2757 0.8668   0.152457
 H 0.9264 0.1862 0.9154   0.166554
 H 0.9819 0.2625 0.9728   0.152161
 H 0.5302 0.2243 0.8668   0.152456
 H 0.5736 0.3138 0.9154   0.166553
 H 0.5181 0.2375 0.9728   0.15216
 H 0.2243 0.5302 0.8668   0.152455
 H 0.3138 0.5736 0.9154   0.166555
 H 0.2375 0.5181 0.9728   0.152161
 H 0.2757 0.9698 0.8668   0.152455
 H 0.1862 0.9264 0.9154   0.166553
 H 0.2625 0.9819 0.9728   0.152161
 H 0.9698 0.2243 0.3668   0.152455
 H 0.9264 0.3138 0.4154   0.166555
 H 0.9819 0.2375 0.4728   0.152161
 H 0.5302 0.2757 0.3668   0.152455
 H 0.5736 0.1862 0.4154   0.166553
 H 0.5181 0.2625 0.4728   0.152161
 H 0.7757 0.0302 0.6332   0.152455
 H 0.6862 0.0736 0.5846   0.166554
 H 0.7625 0.0181 0.5272   0.152161
 H 0.7243 0.4698 0.6332   0.152455
 H 0.8138 0.4264 0.5846   0.166552
 H 0.7375 0.4819 0.5272   0.152161
 H 0.0302 0.7243 0.1332   0.152455
 H 0.0736 0.8138 0.0846   0.166554
 H 0.0181 0.7375 0.0272   0.152161
 H 0.4698 0.7757 0.1332   0.152455
 H 0.4264 0.6862 0.0846   0.166552
 H 0.4819 0.7625 0.0272   0.152161
 C 0.6769 0.5696 0.1008   0.489894
 C 0.7301 0.4788 0.085   -0.459221
 C 0.8841 0.5385 0.3402   0.500704
 C 0.8231 0.9304 0.1008   0.489894
 C 0.7699 0.0212 0.085   -0.45922
 C 0.6159 0.9615 0.3402   0.500704
 C 0.9304 0.6769 0.6008   0.489894
 C 0.0212 0.7301 0.585   -0.459221
 C 0.9615 0.8841 0.8402   0.500704
 C 0.5696 0.8231 0.6008   0.489894
 C 0.4788 0.7699 0.585   -0.45922
 C 0.5385 0.6159 0.8402   0.500704
 C 0.3231 0.0696 0.3992   0.489894
 C 0.2699 0.9788 0.415   -0.459221
 C 0.1159 0.0385 0.1598   0.500704
 C 0.1769 0.4304 0.3992   0.489894
 C 0.2301 0.5212 0.415   -0.45922
 C 0.3841 0.4615 0.1598   0.500704
 C 0.0696 0.1769 0.8992   0.489894
 C 0.9788 0.2301 0.915   -0.459221
 C 0.0385 0.3841 0.6598   0.500704
 C 0.4304 0.3231 0.8992   0.489894
 C 0.5212 0.2699 0.915   -0.45922
 C 0.4615 0.1159 0.6598   0.500704
 C 0.3231 0.4304 0.8992   0.489892
 C 0.2699 0.5212 0.915   -0.459221
 C 0.1159 0.4615 0.6598   0.500703
 C 0.1769 0.0696 0.8992   0.489892
 C 0.2301 0.9788 0.915   -0.45922
 C 0.3841 0.0385 0.6598   0.500703
 C 0.0696 0.3231 0.3992   0.489892
 C 0.9788 0.2699 0.415   -0.459221
 C 0.0385 0.1159 0.1598   0.500703
 C 0.4304 0.1769 0.3992   0.489892
 C 0.5212 0.2301 0.415   -0.45922
 C 0.4615 0.3841 0.1598   0.500703
 C 0.6769 0.9304 0.6008   0.489892
 C 0.7301 0.0212 0.585   -0.45922
 C 0.8841 0.9615 0.8402   0.500703
 C 0.8231 0.5696 0.6008   0.489892
 C 0.7699 0.4788 0.585   -0.45922
 C 0.6159 0.5385 0.8402   0.500703
 C 0.9304 0.8231 0.1008   0.489892
 C 0.0212 0.7699 0.085   -0.45922
 C 0.9615 0.6159 0.3402   0.500703
 C 0.5696 0.6769 0.1008   0.489892
 C 0.4788 0.7301 0.085   -0.45922
 C 0.5385 0.8841 0.3402   0.500703
 N 0.7128 0.6432 0.1435   -0.316787
 N 0.7872 0.8568 0.1435   -0.316787
 N 0.8568 0.7128 0.6435   -0.316787
 N 0.6432 0.7872 0.6435   -0.316787
 N 0.2872 0.1432 0.3565   -0.316787
 N 0.2128 0.3568 0.3565   -0.316787
 N 0.1432 0.2128 0.8565   -0.316787
 N 0.3568 0.2872 0.8565   -0.316787
 N 0.2872 0.3568 0.8565   -0.316767
 N 0.2128 0.1432 0.8565   -0.316767
 N 0.1432 0.2872 0.3565   -0.316767
 N 0.3568 0.2128 0.3565   -0.316767
 N 0.7128 0.8568 0.6435   -0.316767
 N 0.7872 0.6432 0.6435   -0.316767
 N 0.8568 0.7872 0.1435   -0.316767
 N 0.6432 0.7128 0.1435   -0.316767
 N 0.5867 0.5867 0.0717   -0.575426
 N 0.9133 0.9133 0.0717   -0.575426
 N 0.9133 0.5867 0.5717   -0.575426
 N 0.5867 0.9133 0.5717   -0.575426
 N 0.4133 0.0867 0.4283   -0.575426
 N 0.0867 0.4133 0.4283   -0.575426
 N 0.0867 0.0867 0.9283   -0.575426
 N 0.4133 0.4133 0.9283   -0.575426
 O 0.8862 0.4761 0.39994   -0.486056
 O 0.8209 0.5468 0.27881   -0.504656
 O 0.6138 0.0239 0.39994   -0.486056
 O 0.6791 0.9532 0.27881   -0.504656
 O 0.0239 0.8862 0.89994   -0.486056
 O 0.9532 0.8209 0.77881   -0.504656
 O 0.4761 0.6138 0.89994   -0.486056
 O 0.5468 0.6791 0.77881   -0.504656
 O 0.1138 0.9761 0.10006   -0.486056
 O 0.1791 0.0468 0.22119   -0.504656
 O 0.3862 0.5239 0.10006   -0.486056
 O 0.3209 0.4532 0.22119   -0.504656
 O 0.9761 0.3862 0.60006   -0.486056
 O 0.0468 0.3209 0.72119   -0.504656
 O 0.5239 0.1138 0.60006   -0.486056
 O 0.4532 0.1791 0.72119   -0.504656
 O 0.1138 0.5239 0.60006   -0.486056
 O 0.1791 0.4532 0.72119   -0.504656
 O 0.3862 0.9761 0.60006   -0.486056
 O 0.3209 0.0468 0.72119   -0.504656
 O 0.9761 0.1138 0.10006   -0.486056
 O 0.0468 0.1791 0.22119   -0.504656
 O 0.5239 0.3862 0.10006   -0.486056
 O 0.4532 0.3209 0.22119   -0.504656
 O 0.8862 0.0239 0.89994   -0.486056
 O 0.8209 0.9532 0.77881   -0.504656
 O 0.6138 0.4761 0.89994   -0.486056
 O 0.6791 0.5468 0.77881   -0.504656
 O 0.0239 0.6138 0.39994   -0.486056
 O 0.9532 0.6791 0.27881   -0.504656
 O 0.4761 0.8862 0.39994   -0.486056
 O 0.5468 0.8209 0.27881   -0.504656
