{'_ref': 'TBD', '_srcid': 'CAKYAQ_clean', 'submitters': [{'name': 'Dalar Nazarian Jeff Camp and David Sholl', 'email': 'dalar@gatech.edu jcamp6@gatech.edu'}], '_method': 'VASP DFT with PBE;DDEC'}
data_Zn2H3C2N3O
_symmetry_space_group_name_H-M   'P 1'
_cell_length_a   6.81190000
_cell_length_b   7.31830000
_cell_length_c   13.78460000
_cell_angle_alpha   90.00000000
_cell_angle_beta   90.00000000
_cell_angle_gamma   90.00000000
_symmetry_Int_Tables_number   1
_chemical_formula_structural   Zn2H3C2N3O
_chemical_formula_sum   'Zn8 H12 C8 N12 O4'
_cell_volume   687.183369698
_cell_formula_units_Z   4
loop_
 _symmetry_equiv_pos_site_id
 _symmetry_equiv_pos_as_xyz
  1  'x, y, z'
loop_
 _atom_site_label
 _atom_site_fract_x
 _atom_site_fract_y
 _atom_site_fract_z
 _atom_site_charge
 Zn 0.75 0.18263 0.58624   0.096861
 Zn 0.25 0.31737 0.08624   0.096861
 Zn 0.25 0.81737 0.41376   0.096859
 Zn 0.75 0.68263 0.91376   0.096859
 Zn 0.0 0.5 0.5   0.484788
 Zn 0.0 0.0 0.0   0.484788
 Zn 0.5 0.5 0.5   0.485165
 Zn 0.5 0.0 0.0   0.485165
 H 0.0386 0.1379 0.7668   0.048587
 H 0.9614 0.3621 0.2668   0.048587
 H 0.5386 0.8621 0.2332   0.048586
 H 0.4614 0.6379 0.7332   0.048586
 H 0.9614 0.8621 0.2332   0.048713
 H 0.0386 0.6379 0.7332   0.048713
 H 0.4614 0.1379 0.7668   0.048712
 H 0.5386 0.3621 0.2668   0.048712
 H 0.75 0.291 0.431   0.395297
 H 0.25 0.209 0.931   0.395297
 H 0.25 0.709 0.569   0.395297
 H 0.75 0.791 0.069   0.395297
 C 0.9058 0.1272 0.78702   0.187234
 C 0.0942 0.3728 0.28702   0.187234
 C 0.4058 0.8728 0.21298   0.187246
 C 0.5942 0.6272 0.71298   0.187246
 C 0.0942 0.8728 0.21298   0.187195
 C 0.9058 0.6272 0.71298   0.187195
 C 0.5942 0.1272 0.78702   0.187207
 C 0.4058 0.3728 0.28702   0.187207
 N 0.8513 0.0805 0.8754   -0.225765
 N 0.1487 0.4195 0.3754   -0.225765
 N 0.3513 0.9195 0.1246   -0.225812
 N 0.6487 0.5805 0.6246   -0.225812
 N 0.1487 0.9195 0.1246   -0.225829
 N 0.8513 0.5805 0.6246   -0.225829
 N 0.6487 0.0805 0.8754   -0.225876
 N 0.3513 0.4195 0.3754   -0.225876
 N 0.75 0.158 0.72866   -0.279272
 N 0.25 0.342 0.22866   -0.279272
 N 0.25 0.842 0.27134   -0.279274
 N 0.75 0.658 0.77134   -0.279274
 O 0.75 0.3511 0.47354   -0.717959
 O 0.25 0.1489 0.97354   -0.717959
 O 0.25 0.6489 0.52646   -0.717959
 O 0.75 0.8511 0.02646   -0.717959
