{'_ref': 'TBD', '_srcid': 'CAKYAQ_clean', 'submitters': [{'name': 'Dalar Nazarian Jeff Camp and David Sholl', 'email': 'dalar@gatech.edu jcamp6@gatech.edu'}], '_method': 'VASP DFT with PBE;DDEC'}
data_Ag9P2C4NO9F2
_symmetry_space_group_name_H-M   'P 1'
_cell_length_a   6.62290000
_cell_length_b   10.15869972
_cell_length_c   16.67830000
_cell_angle_alpha   90.00000000
_cell_angle_beta   90.00000000
_cell_angle_gamma   93.94099821
_symmetry_Int_Tables_number   1
_chemical_formula_structural   Ag9P2C4NO9F2
_chemical_formula_sum   'Ag18 P4 C8 N2 O18 F4'
_cell_volume   1119.46348926
_cell_formula_units_Z   2
loop_
 _symmetry_equiv_pos_site_id
 _symmetry_equiv_pos_as_xyz
  1  'x, y, z'
loop_
 _atom_site_label
 _atom_site_fract_x
 _atom_site_fract_y
 _atom_site_fract_z
 _atom_site_charge
 Ag 0.64765 0.54659 0.44176   0.492442
 Ag 0.2232 0.56143 0.43858   0.359016
 Ag 0.78099 0.94036 0.79802   0.486145
 Ag 0.35471 0.95273 0.79396   0.571716
 Ag 0.40571 0.83591 0.44221   0.627479
 Ag 0.59127 0.66348 0.79549   0.356583
 Ag 0.9677 0.145 0.47266   0.448234
 Ag 0.5914 0.06928 0.66092   0.415975
 Ag 0.4101 0.43179 0.57511   -0.0107
 Ag 0.35235 0.45341 0.94176   0.492436
 Ag 0.7768 0.43857 0.93858   0.359002
 Ag 0.21901 0.05964 0.29802   0.48615
 Ag 0.64529 0.04727 0.29396   0.571719
 Ag 0.59429 0.16409 0.94221   0.627479
 Ag 0.40873 0.33652 0.29549   0.356578
 Ag 0.0323 0.855 0.97266   0.448237
 Ag 0.4086 0.93072 0.16092   0.415963
 Ag 0.5899 0.56821 0.07511   -0.010701
 P 0.9175 0.3326 0.3241   1.507233
 P 0.9167 0.8348 0.4156   1.74816
 P 0.0825 0.6674 0.8241   1.507232
 P 0.0833 0.1652 0.9156   1.748159
 C 0.546 0.8508 0.7147   -0.745238
 C 0.533 0.784 0.6514   0.216645
 C 0.481 0.7148 0.5833   0.165402
 C 0.429 0.6454 0.5259   -0.593212
 C 0.454 0.1492 0.2147   -0.745238
 C 0.467 0.216 0.1514   0.216646
 C 0.519 0.2852 0.0833   0.165402
 C 0.571 0.3546 0.0259   -0.59321
 N 0.0817 0.0613 0.6415   0.803464
 N 0.9183 0.9387 0.1415   0.803464
 O 0.23 0.0456 0.5975   -0.423765
 O 0.056 0.03 0.7073   -0.329422
 O 0.909 0.1101 0.6056   -0.525175
 O 0.948 0.1912 0.3377   -0.75891
 O 0.7296 0.3748 0.3546   -0.773724
 O 0.885 0.8457 0.5053   -0.889722
 O 0.101 0.9221 0.3986   -0.853241
 O 0.9391 0.6859 0.3976   -0.83858
 O 0.7268 0.8849 0.3727   -0.909307
 O 0.77 0.9544 0.0975   -0.423765
 O 0.944 0.97 0.2073   -0.329422
 O 0.091 0.8899 0.1056   -0.525175
 O 0.052 0.8088 0.8377   -0.758909
 O 0.2704 0.6252 0.8546   -0.773724
 O 0.115 0.1543 0.0053   -0.889722
 O 0.899 0.0779 0.8986   -0.853241
 O 0.0609 0.3141 0.8976   -0.838579
 O 0.2732 0.1151 0.8727   -0.909307
 F 0.8889 0.3339 0.2287   -0.294686
 F 0.1132 0.4229 0.3363   -0.2528
 F 0.1111 0.6661 0.7287   -0.294686
 F 0.8868 0.5771 0.8363   -0.2528
