{'_ref': 'TBD', '_srcid': 'CAKYAQ_clean', 'submitters': [{'name': 'Dalar Nazarian Jeff Camp and David Sholl', 'email': 'dalar@gatech.edu jcamp6@gatech.edu'}], '_method': 'VASP DFT with PBE;DDEC'}
data_Zn2H20C31N4O9
_symmetry_space_group_name_H-M   'P 1'
_cell_length_a   4.78900000
_cell_length_b   11.77100003
_cell_length_c   26.32900000
_cell_angle_alpha   96.82200021
_cell_angle_beta   90.00000000
_cell_angle_gamma   90.00000000
_symmetry_Int_Tables_number   1
_chemical_formula_structural   Zn2H20C31N4O9
_chemical_formula_sum   'Zn4 H40 C62 N8 O18'
_cell_volume   1473.69227836
_cell_formula_units_Z   2
loop_
 _symmetry_equiv_pos_site_id
 _symmetry_equiv_pos_as_xyz
  1  'x, y, z'
loop_
 _atom_site_label
 _atom_site_fract_x
 _atom_site_fract_y
 _atom_site_fract_z
 _atom_site_charge
 Zn 0.29553 0.09541 0.55064   0.998981
 Zn 0.27738 0.82415 0.97052   1.000283
 Zn 0.79553 0.90459 0.44936   0.998981
 Zn 0.77738 0.17585 0.02948   1.000283
 H 0.7898 0.2567 0.4205   0.115359
 H 0.9002 0.2871 0.3375   0.092891
 H 0.3611 0.0423 0.2834   0.081926
 H 0.7712 0.9581 0.2321   0.105555
 H 0.6304 0.8338 0.1637   0.079234
 H 0.4654 0.2182 0.1637   0.095962
 H 0.3319 0.2395 0.6567   0.084036
 H 0.8186 0.2902 0.5465   0.110984
 H 0.7642 0.4497 0.6138   0.146995
 H 0.1204 0.5234 0.694   0.101723
 H 0.3019 0.4268 0.7136   0.088605
 H 0.8882 0.258 0.7343   0.106681
 H 0.5907 0.2421 0.8012   0.110741
 H 0.5383 0.5821 0.8277   0.096276
 H 0.8406 0.5978 0.7605   0.10358
 H 0.1441 0.4016 0.8537   0.091647
 H 0.3629 0.3247 0.8779   0.116257
 H 0.0873 0.6095 0.897   0.093717
 H 0.6902 0.6203 0.9984   0.098992
 H 0.7133 0.4332 0.9472   0.134733
 H 0.2898 0.7433 0.5795   0.115361
 H 0.4002 0.7129 0.6625   0.092893
 H 0.8611 0.9577 0.7166   0.081925
 H 0.2712 0.0419 0.7679   0.105554
 H 0.1304 0.1662 0.8363   0.079234
 H 0.9654 0.7818 0.8363   0.09596
 H 0.8319 0.7605 0.3433   0.084036
 H 0.3186 0.7098 0.4535   0.110984
 H 0.2642 0.5503 0.3862   0.146999
 H 0.6204 0.4766 0.306   0.101724
 H 0.8019 0.5732 0.2864   0.088605
 H 0.3882 0.742 0.2657   0.10668
 H 0.0907 0.7579 0.1988   0.110741
 H 0.0383 0.4179 0.1723   0.096276
 H 0.3406 0.4022 0.2395   0.103579
 H 0.6441 0.5984 0.1463   0.091647
 H 0.8629 0.6753 0.1221   0.116256
 H 0.5873 0.3905 0.103   0.093717
 H 0.1902 0.3797 0.0016   0.098992
 H 0.2133 0.5668 0.0528   0.134733
 C 0.445 0.1163 0.45674   0.683901
 C 0.5059 0.1311 0.40192   -0.037489
 C 0.7032 0.2135 0.39305   -0.099807
 C 0.7708 0.2311 0.34332   -0.033126
 C 0.6454 0.1653 0.30199   -0.132312
 C 0.4477 0.085 0.31101   0.010865
 C 0.3744 0.0663 0.36086   -0.151348
 C 0.1573 0.979 0.36766   0.669194
 C 0.7145 0.1884 0.24894   0.436411
 C 0.6298 0.102 0.20527   -0.068576
 C 0.6809 0.9854 0.20476   -0.080802
 C 0.5968 0.9116 0.16358   -0.044211
 C 0.464 0.948 0.12182   -0.092006
 C 0.4101 0.0657 0.12245   -0.065436
 C 0.4968 0.1402 0.16372   -0.067934
 C 0.2547 0.1139 0.08033   0.698242
 C 0.3869 0.8636 0.07667   0.669737
 C 0.1983 0.2723 0.63738   0.162823
 C 0.9165 0.2998 0.5772   0.062991
 C 0.8865 0.3885 0.6142   -0.183695
 C 0.1191 0.4441 0.70059   -0.057642
 C 0.904 0.4297 0.74101   0.00775
 C 0.821 0.3239 0.75337   -0.112186
 C 0.641 0.3143 0.79333   -0.104207
 C 0.5337 0.4106 0.82195   0.027883
 C 0.6098 0.5163 0.80919   -0.123698
 C 0.7927 0.5257 0.76885   -0.100904
 C 0.3348 0.3986 0.86582   -0.067611
 C 0.24 0.5898 0.91589   0.140415
 C 0.5718 0.5947 0.97148   0.051361
 C 0.5859 0.4912 0.94336   -0.139833
 C 0.945 0.8837 0.54326   0.683901
 C 0.0059 0.8689 0.59808   -0.037489
 C 0.2032 0.7865 0.60695   -0.099807
 C 0.2708 0.7689 0.65668   -0.033127
 C 0.1454 0.8347 0.69801   -0.132312
 C 0.9477 0.915 0.68899   0.010865
 C 0.8744 0.9337 0.63914   -0.151349
 C 0.6573 0.021 0.63234   0.669194
 C 0.2145 0.8116 0.75106   0.436411
 C 0.1298 0.898 0.79473   -0.068576
 C 0.1809 0.0146 0.79524   -0.080802
 C 0.0968 0.0884 0.83642   -0.044211
 C 0.964 0.052 0.87818   -0.092006
 C 0.9101 0.9343 0.87755   -0.065436
 C 0.9968 0.8598 0.83628   -0.067934
 C 0.7547 0.8861 0.91967   0.698242
 C 0.8869 0.1364 0.92333   0.669737
 C 0.6983 0.7277 0.36262   0.162822
 C 0.4165 0.7002 0.4228   0.062991
 C 0.3865 0.6115 0.3858   -0.183696
 C 0.6191 0.5559 0.29941   -0.057642
 C 0.404 0.5703 0.25899   0.00775
 C 0.321 0.6761 0.24663   -0.112186
 C 0.141 0.6857 0.20667   -0.104207
 C 0.0337 0.5894 0.17805   0.027883
 C 0.1098 0.4837 0.19081   -0.123698
 C 0.2927 0.4743 0.23115   -0.100904
 C 0.8348 0.6014 0.13418   -0.067611
 C 0.74 0.4102 0.08411   0.140415
 C 0.0718 0.4053 0.02852   0.051361
 C 0.0859 0.5088 0.05664   -0.139833
 N 0.113 0.2261 0.59188   -0.408119
 N 0.0708 0.3713 0.65241   0.055639
 N 0.3767 0.4886 0.90814   0.063737
 N 0.3542 0.6564 0.95407   -0.419895
 N 0.613 0.7739 0.40812   -0.408119
 N 0.5708 0.6287 0.34759   0.055639
 N 0.8767 0.5114 0.09186   0.063737
 N 0.8542 0.3436 0.04593   -0.419895
 O 0.3049 0.1869 0.48452   -0.581334
 O 0.5567 0.0354 0.47638   -0.585624
 O 0.0846 0.9748 0.41411   -0.6479
 O 0.064 0.9175 0.33056   -0.571229
 O 0.83 0.2767 0.24151   -0.441824
 O 0.9919 0.104 0.08094   -0.57717
 O 0.3807 0.17 0.04997   -0.60577
 O 0.3816 0.7614 0.08066   -0.596584
 O 0.3388 0.9084 0.03598   -0.597834
 O 0.8049 0.8131 0.51548   -0.581334
 O 0.0567 0.9646 0.52362   -0.585624
 O 0.5846 0.0252 0.58589   -0.6479
 O 0.564 0.0825 0.66944   -0.571229
 O 0.33 0.7233 0.75849   -0.441824
 O 0.4919 0.896 0.91906   -0.57717
 O 0.8807 0.83 0.95003   -0.60577
 O 0.8816 0.2386 0.91934   -0.596584
 O 0.8388 0.0916 0.96402   -0.597834
