{'_ref': 'TBD', '_srcid': 'CAKYAQ_clean', 'submitters': [{'name': 'Dalar Nazarian Jeff Camp and David Sholl', 'email': 'dalar@gatech.edu jcamp6@gatech.edu'}], '_method': 'VASP DFT with PBE;DDEC'}
data_KInC10(NO4)2
_symmetry_space_group_name_H-M   'P 1'
_cell_length_a   7.52729990
_cell_length_b   7.52729974
_cell_length_c   15.14400000
_cell_angle_alpha   95.66330223
_cell_angle_beta   95.66330211
_cell_angle_gamma   105.65700089
_symmetry_Int_Tables_number   1
_chemical_formula_structural   KInC10(NO4)2
_chemical_formula_sum   'K2 In2 C20 N4 O16'
_cell_volume   815.129425336
_cell_formula_units_Z   2
loop_
 _symmetry_equiv_pos_site_id
 _symmetry_equiv_pos_as_xyz
  1  'x, y, z'
loop_
 _atom_site_label
 _atom_site_fract_x
 _atom_site_fract_y
 _atom_site_fract_z
 _atom_site_charge
 K 0.5877 0.5241 0.6357   0.91277
 K 0.5241 0.5877 0.1357   0.912769
 In 0.8663 0.0315 0.9971   1.535329
 In 0.0315 0.8663 0.4971   1.535329
 C 0.7738 0.7692 0.829   0.629666
 C 0.583 0.7948 0.8396   -0.062726
 C 0.4663 0.8509 0.0301   0.629192
 C 0.4284 0.9404 0.9485   -0.068987
 C 0.5918 0.1238 0.8401   -0.06421
 C 0.7863 0.2209 0.8239   0.014636
 C 0.111 0.3288 0.8953   -0.103359
 C 0.2384 0.3172 0.9766   0.638408
 C 0.8772 0.4396 0.9652   0.038667
 C 0.8329 0.4051 0.0592   0.597979
 C 0.7692 0.7738 0.329   0.629666
 C 0.7948 0.583 0.3396   -0.062726
 C 0.8509 0.4663 0.5301   0.629192
 C 0.9404 0.4284 0.4485   -0.068987
 C 0.1238 0.5918 0.3401   -0.064209
 C 0.2209 0.7863 0.3239   0.014636
 C 0.3288 0.111 0.3953   -0.103362
 C 0.3172 0.2384 0.4766   0.638425
 C 0.4396 0.8772 0.4652   0.038667
 C 0.4051 0.8329 0.5592   0.59798
 N 0.587 0.9708 0.8956   -0.051906
 N 0.9147 0.2825 0.9099   -0.108485
 N 0.9708 0.587 0.3956   -0.051906
 N 0.2825 0.9147 0.4099   -0.108484
 O 0.9132 0.8594 0.8874   -0.582424
 O 0.7827 0.6567 0.768   -0.519324
 O 0.6334 0.8442 0.0521   -0.653751
 O 0.3344 0.7848 0.0726   -0.515673
 O 0.162 0.2028 0.0283   -0.601198
 O 0.4032 0.4086 0.9877   -0.560107
 O 0.8011 0.2419 0.0809   -0.54807
 O 0.8216 0.5402 0.1103   -0.556429
 O 0.8594 0.9132 0.3874   -0.582424
 O 0.6567 0.7827 0.268   -0.519324
 O 0.8442 0.6334 0.5521   -0.653751
 O 0.7848 0.3344 0.5726   -0.515673
 O 0.2028 0.162 0.5283   -0.601201
 O 0.4086 0.4032 0.4877   -0.560119
 O 0.2419 0.8011 0.5809   -0.54807
 O 0.5402 0.8216 0.6103   -0.556429
