{'_ref': 'TBD', '_srcid': 'CAKYAQ_clean', 'submitters': [{'name': 'Dalar Nazarian Jeff Camp and David Sholl', 'email': 'dalar@gatech.edu jcamp6@gatech.edu'}], '_method': 'VASP DFT with PBE;DDEC'}
data_MnH6(C3O)4
_symmetry_space_group_name_H-M   'P 1'
_cell_length_a   11.13770001
_cell_length_b   11.13769979
_cell_length_c   21.40350000
_cell_angle_alpha   95.98479965
_cell_angle_beta   95.98479953
_cell_angle_gamma   107.08100286
_symmetry_Int_Tables_number   1
_chemical_formula_structural   MnH6(C3O)4
_chemical_formula_sum   'Mn6 H36 C72 O24'
_cell_volume   2498.58523594
_cell_formula_units_Z   6
loop_
 _symmetry_equiv_pos_site_id
 _symmetry_equiv_pos_as_xyz
  1  'x, y, z'
loop_
 _atom_site_label
 _atom_site_fract_x
 _atom_site_fract_y
 _atom_site_fract_z
 _atom_site_charge
 Mn 0.49718 0.01598 0.80629   1.10287
 Mn 0.98402 0.50282 0.69371   1.102855
 Mn 0.50282 0.98402 0.19371   1.102848
 Mn 0.01598 0.49718 0.30629   1.102833
 Mn 0.75282 0.24718 0.75   0.947105
 Mn 0.24718 0.75282 0.25   0.947105
 H 0.3931 0.2859 0.9218   0.103977
 H 0.7373 0.5211 0.9072   0.083326
 H 0.726 0.6586 0.993   0.103161
 H 0.6535 0.0479 0.609   0.107996
 H 0.2771 0.9903 0.601   0.105587
 H 0.2537 0.9685 0.492   0.078609
 H 0.0123 0.2403 0.5303   0.119111
 H 0.9043 0.9805 0.6471   0.123032
 H 0.9363 0.8267 0.5762   0.117829
 H 0.7141 0.6069 0.5782   0.103789
 H 0.4789 0.2627 0.5928   0.08331
 H 0.3414 0.274 0.507   0.103128
 H 0.9521 0.3465 0.891   0.108
 H 0.0097 0.7229 0.899   0.105564
 H 0.0315 0.7463 0.008   0.078601
 H 0.7597 0.9877 0.9697   0.119087
 H 0.0195 0.0957 0.8529   0.12293
 H 0.1733 0.0637 0.9238   0.117698
 H 0.6069 0.7141 0.0782   0.103885
 H 0.2627 0.4789 0.0928   0.083316
 H 0.274 0.3414 0.007   0.10315
 H 0.3465 0.9521 0.391   0.107991
 H 0.7229 0.0097 0.399   0.105579
 H 0.7463 0.0315 0.508   0.078651
 H 0.9877 0.7597 0.4697   0.119013
 H 0.0957 0.0195 0.3529   0.123032
 H 0.0637 0.1733 0.4238   0.117741
 H 0.2859 0.3931 0.4218   0.103702
 H 0.5211 0.7373 0.4072   0.083299
 H 0.6586 0.726 0.493   0.103119
 H 0.0479 0.6535 0.109   0.107995
 H 0.9903 0.2771 0.101   0.105556
 H 0.9685 0.2537 0.992   0.078642
 H 0.2403 0.0123 0.0303   0.118991
 H 0.9805 0.9043 0.1471   0.12293
 H 0.8267 0.9363 0.0762   0.117614
 C 0.44966 0.44352 0.98939   0.044714
 C 0.45978 0.36112 0.93648   -0.080712
 C 0.56514 0.38926 0.90644   -0.138323
 C 0.66501 0.50179 0.92799   -0.032013
 C 0.65828 0.58372 0.97897   -0.140682
 C 0.57501 0.29799 0.85125   0.708926
 C 0.56099 0.01217 0.51776   0.04004
 C 0.57311 0.02997 0.58489   -0.050807
 C 0.46941 0.02135 0.61498   -0.121814
 C 0.3482 0.9968 0.57985   -0.05156
 C 0.33429 0.98231 0.5151   -0.106304
 C 0.48115 0.03167 0.68564   0.6858
 C 0.01186 0.0625 0.49303   0.047394
 C 0.99476 0.15624 0.53868   -0.089424
 C 0.95309 0.12571 0.59458   -0.123838
 C 0.93154 0.00106 0.60831   -0.046597
 C 0.94961 0.90919 0.56595   -0.143087
 C 0.92325 0.22315 0.63988   0.69373
 C 0.55648 0.55034 0.51061   0.044679
 C 0.63888 0.54022 0.56352   -0.080661
 C 0.61074 0.43486 0.59356   -0.138349
 C 0.49821 0.33499 0.57201   -0.032076
 C 0.41628 0.34172 0.52103   -0.140683
 C 0.70201 0.42499 0.64875   0.708956
 C 0.98783 0.43901 0.98224   0.040001
 C 0.97003 0.42689 0.91511   -0.050857
 C 0.97865 0.53059 0.88502   -0.121823
 C 0.0032 0.6518 0.92015   -0.051559
 C 0.01769 0.66571 0.9849   -0.106298
 C 0.96833 0.51885 0.81436   0.6858
 C 0.9375 0.98814 0.00697   0.047384
 C 0.84376 0.00524 0.96132   -0.089438
 C 0.87429 0.04691 0.90542   -0.12386
 C 0.99894 0.06846 0.89169   -0.046573
 C 0.09081 0.05039 0.93405   -0.143053
 C 0.77685 0.07675 0.86012   0.693791
 C 0.55034 0.55648 0.01061   0.044136
 C 0.54022 0.63888 0.06352   -0.080635
 C 0.43486 0.61074 0.09356   -0.138414
 C 0.33499 0.49821 0.07201   -0.031917
 C 0.34172 0.41628 0.02103   -0.141171
 C 0.42499 0.70201 0.14875   0.708936
 C 0.43901 0.98783 0.48224   0.039688
 C 0.42689 0.97003 0.41511   -0.050827
 C 0.53059 0.97865 0.38502   -0.121838
 C 0.6518 0.0032 0.42015   -0.0515
 C 0.66571 0.01769 0.4849   -0.106681
 C 0.51885 0.96833 0.31436   0.685801
 C 0.98814 0.9375 0.50697   0.047296
 C 0.00524 0.84376 0.46132   -0.089446
 C 0.04691 0.87429 0.40542   -0.12384
 C 0.06846 0.99894 0.39169   -0.046595
 C 0.05039 0.09081 0.43405   -0.143129
 C 0.07675 0.77685 0.36012   0.693706
 C 0.44352 0.44966 0.48939   0.044108
 C 0.36112 0.45978 0.43648   -0.080585
 C 0.38926 0.56514 0.40644   -0.138438
 C 0.50179 0.66501 0.42799   -0.031976
 C 0.58372 0.65828 0.47897   -0.141171
 C 0.29799 0.57501 0.35125   0.708965
 C 0.01217 0.56099 0.01776   0.039656
 C 0.02997 0.57311 0.08489   -0.050876
 C 0.02135 0.46941 0.11498   -0.121846
 C 0.9968 0.3482 0.07985   -0.051497
 C 0.98231 0.33429 0.0151   -0.106675
 C 0.03167 0.48115 0.18564   0.685801
 C 0.0625 0.01186 0.99303   0.047286
 C 0.15624 0.99476 0.03868   -0.08946
 C 0.12571 0.95309 0.09458   -0.123863
 C 0.00106 0.93154 0.10831   -0.04657
 C 0.90919 0.94961 0.06595   -0.143097
 C 0.22315 0.92325 0.13988   0.693767
 O 0.66889 0.33173 0.82263   -0.559675
 O 0.48706 0.19476 0.83867   -0.648144
 O 0.5905 0.07512 0.7189   -0.617602
 O 0.38403 0.99199 0.711   -0.584619
 O 0.86415 0.18247 0.68379   -0.551501
 O 0.95913 0.33631 0.62996   -0.651575
 O 0.66827 0.33111 0.67737   -0.559677
 O 0.80524 0.51294 0.66133   -0.648144
 O 0.92488 0.4095 0.7811   -0.617599
 O 0.00801 0.61597 0.789   -0.584618
 O 0.81753 0.13585 0.81621   -0.55151
 O 0.66369 0.04087 0.87004   -0.651581
 O 0.33111 0.66827 0.17737   -0.559679
 O 0.51294 0.80524 0.16133   -0.648143
 O 0.4095 0.92488 0.2811   -0.6176
 O 0.61597 0.00801 0.289   -0.584621
 O 0.13585 0.81753 0.31621   -0.551499
 O 0.04087 0.66369 0.37004   -0.651569
 O 0.33173 0.66889 0.32263   -0.559681
 O 0.19476 0.48706 0.33867   -0.648142
 O 0.07512 0.5905 0.2189   -0.617597
 O 0.99199 0.38403 0.211   -0.58462
 O 0.18247 0.86415 0.18379   -0.551508
 O 0.33631 0.95913 0.12996   -0.651575
