{'_ref': 'TBD', '_srcid': 'CAKYAQ_clean', 'submitters': [{'name': 'Dalar Nazarian Jeff Camp and David Sholl', 'email': 'dalar@gatech.edu jcamp6@gatech.edu'}], '_method': 'VASP DFT with PBE;DDEC'}
data_ZnH5C8NO4
_symmetry_space_group_name_H-M   'P 1'
_cell_length_a   8.02750000
_cell_length_b   9.38199989
_cell_length_c   9.38200000
_cell_angle_alpha   106.67200310
_cell_angle_beta   102.75800106
_cell_angle_gamma   102.75799622
_symmetry_Int_Tables_number   1
_chemical_formula_structural   ZnH5C8NO4
_chemical_formula_sum   'Zn2 H10 C16 N2 O8'
_cell_volume   628.900486988
_cell_formula_units_Z   2
loop_
 _symmetry_equiv_pos_site_id
 _symmetry_equiv_pos_as_xyz
  1  'x, y, z'
loop_
 _atom_site_label
 _atom_site_fract_x
 _atom_site_fract_y
 _atom_site_fract_z
 _atom_site_charge
 Zn 0.04722 0.92268 0.92328   1.097743
 Zn 0.93874 0.08614 0.08564   1.155558
 H 0.55524 0.96424 0.24426   0.131722
 H 0.82178 0.34838 0.87714   0.3439
 H 0.94282 0.54182 0.01598   0.339105
 H 0.43704 0.75024 0.03366   0.104862
 H 0.9424 0.00244 0.54722   0.338645
 H 0.82518 0.88814 0.346   0.34151
 H 0.43672 0.03438 0.7505   0.104033
 H 0.55502 0.24378 0.96346   0.131379
 H 0.21796 0.0511 0.53398   0.103692
 H 0.21754 0.5333 0.04886   0.103585
 C 0.22258 0.99956 0.23062   0.676449
 C 0.36414 0.00182 0.36862   -0.037204
 C 0.52682 0.97604 0.35362   -0.229247
 C 0.33898 0.02854 0.51624   -0.145342
 C 0.77126 0.76808 3.99999999985e-05   0.708726
 C 0.63236 0.628 0.9988   -0.247179
 C 0.46826 0.64192 0.02264   -0.024211
 C 0.65818 0.47936 0.97276   0.368715
 C 0.7704 0.00178 0.76986   0.70688
 C 0.63248 0.000340000000001 0.62898   -0.251144
 C 0.4683 0.024 0.64246   -0.021461
 C 0.65914 0.97454 0.48044   0.370885
 C 0.2226 0.22932 0.99758   0.677722
 C 0.36352 0.36762 0.9997   -0.039368
 C 0.52606 0.3527 0.97428   -0.224267
 C 0.3385 0.51546 0.0266   -0.139151
 N 0.82136 0.45554 0.95032   -0.743723
 N 0.82228 0.95114 0.45642   -0.737878
 O 0.2131 0.92194 0.09158   -0.605572
 O 0.88064 0.92344 0.7542   -0.606176
 O 0.7782 0.9068 0.07696   -0.644059
 O 0.1116 0.24826 0.07506   -0.628726
 O 0.7788 0.08126 0.90818   -0.63965
 O 0.10972 0.07528 0.24942   -0.629221
 O 0.21192 0.09006 0.91886   -0.607462
 O 0.88418 0.75152 0.92448   -0.604073
