{'_ref': 'TBD', '_srcid': 'CAKYAQ_clean', 'submitters': [{'name': 'Dalar Nazarian Jeff Camp and David Sholl', 'email': 'dalar@gatech.edu jcamp6@gatech.edu'}], '_method': 'VASP DFT with PBE;DDEC'}
data_Zn7H16(C8O5)4
_symmetry_space_group_name_H-M   'P 1'
_cell_length_a   11.98380000
_cell_length_b   13.50900033
_cell_length_c   27.03900000
_cell_angle_alpha   93.45900118
_cell_angle_beta   90.00000000
_cell_angle_gamma   90.00000000
_symmetry_Int_Tables_number   1
_chemical_formula_structural   Zn7H16(C8O5)4
_chemical_formula_sum   'Zn14 H32 C64 O40'
_cell_volume   4369.3464629
_cell_formula_units_Z   2
loop_
 _symmetry_equiv_pos_site_id
 _symmetry_equiv_pos_as_xyz
  1  'x, y, z'
loop_
 _atom_site_label
 _atom_site_fract_x
 _atom_site_fract_y
 _atom_site_fract_z
 _atom_site_charge
 Zn 0.17349 0.82305 0.54204   1.079869
 Zn 0.82683 0.80152 0.44362   1.067038
 Zn 0.92406 0.98844 0.38895   1.190192
 Zn 0.17349 0.17695 0.95796   1.079869
 Zn 0.82683 0.19848 0.05638   1.067038
 Zn 0.92406 0.01156 0.11105   1.190192
 Zn 0.82651 0.17695 0.45796   1.079871
 Zn 0.17317 0.19848 0.55638   1.06704
 Zn 0.07594 0.01156 0.61105   1.190192
 Zn 0.82651 0.82305 0.04204   1.079871
 Zn 0.17317 0.80152 0.94362   1.06704
 Zn 0.07594 0.98844 0.88895   1.190192
 Zn 0.0 0.0 0.5   1.308551
 Zn 0.0 0.0 0.0   1.308551
 H 0.1246 0.8612 0.7461   0.099078
 H 0.2824 0.6389 0.8074   0.096211
 H 0.3493 0.5883 0.7319   0.101151
 H 0.3051 0.6665 0.6604   0.098819
 H 0.477 0.8912 0.4645   0.11009
 H 0.2776 0.1095 0.4185   0.098338
 H 0.4251 0.1835 0.3819   0.116073
 H 0.603 0.0994 0.3778   0.09878
 H 0.1246 0.1388 0.7539   0.099077
 H 0.2824 0.3611 0.6926   0.096213
 H 0.3493 0.4117 0.7681   0.10114
 H 0.3051 0.3335 0.8396   0.098821
 H 0.477 0.1088 0.0355   0.11009
 H 0.2776 0.8905 0.0815   0.098338
 H 0.4251 0.8165 0.1181   0.116072
 H 0.603 0.9006 0.1222   0.09878
 H 0.8754 0.1388 0.2539   0.099078
 H 0.7176 0.3611 0.1926   0.096211
 H 0.6507 0.4117 0.2681   0.101147
 H 0.6949 0.3335 0.3396   0.098818
 H 0.523 0.1088 0.5355   0.110089
 H 0.7224 0.8905 0.5815   0.098338
 H 0.5749 0.8165 0.6181   0.116067
 H 0.397 0.9006 0.6222   0.09878
 H 0.8754 0.8612 0.2461   0.099077
 H 0.7176 0.6389 0.3074   0.096212
 H 0.6507 0.5883 0.2319   0.101136
 H 0.6949 0.6665 0.1604   0.09882
 H 0.523 0.8912 0.9645   0.110089
 H 0.7224 0.1095 0.9185   0.098338
 H 0.5749 0.1835 0.8819   0.116067
 H 0.397 0.0994 0.8778   0.09878
 C 0.2066 0.7765 0.6946   -0.191922
 C 0.1712 0.8043 0.7426   0.042279
 C 0.1953 0.7602 0.7845   -0.169285
 C 0.264 0.6746 0.7793   -0.005329
 C 0.302 0.6447 0.7345   -0.14371
 C 0.276 0.6913 0.6914   -0.003356
 C 0.1732 0.8276 0.6517   0.758268
 C 0.1577 0.7981 0.8357   0.741676
 C 0.5568 0.9888 0.4204   -0.158126
 C 0.4668 0.9485 0.4464   -0.002999
 C 0.3615 0.9949 0.4448   -0.153997
 C 0.3493 0.0798 0.4197   0.004023
 C 0.4349 0.1223 0.3969   -0.151429
 C 0.5427 0.0732 0.3957   0.00768
 C 0.6703 0.9431 0.4242   0.701189
 C 0.2691 0.9526 0.4739   0.687641
 C 0.2066 0.2235 0.8054   -0.191922
 C 0.1712 0.1957 0.7574   0.04228
 C 0.1953 0.2398 0.7155   -0.169285
 C 0.264 0.3254 0.7207   -0.005331
 C 0.302 0.3553 0.7655   -0.143705
 C 0.276 0.3087 0.8086   -0.003358
 C 0.1732 0.1724 0.8483   0.758268
 C 0.1577 0.2019 0.6643   0.741676
 C 0.5568 0.0112 0.0796   -0.158127
 C 0.4668 0.0515 0.0536   -0.002999
 C 0.3615 0.0051 0.0552   -0.153997
 C 0.3493 0.9202 0.0803   0.004023
 C 0.4349 0.8777 0.1031   -0.151426
 C 0.5427 0.9268 0.1043   0.007681
 C 0.6703 0.0569 0.0758   0.701189
 C 0.2691 0.0474 0.0261   0.687641
 C 0.7934 0.2235 0.3054   -0.191922
 C 0.8288 0.1957 0.2574   0.04228
 C 0.8047 0.2398 0.2155   -0.169285
 C 0.736 0.3254 0.2207   -0.005328
 C 0.698 0.3553 0.2655   -0.143708
 C 0.724 0.3087 0.3086   -0.003356
 C 0.8268 0.1724 0.3483   0.758268
 C 0.8423 0.2019 0.1643   0.741676
 C 0.4432 0.0112 0.5796   -0.158125
 C 0.5332 0.0515 0.5536   -0.002999
 C 0.6385 0.0051 0.5552   -0.153997
 C 0.6507 0.9202 0.5803   0.004022
 C 0.5651 0.8777 0.6031   -0.151426
 C 0.4573 0.9268 0.6043   0.007681
 C 0.3297 0.0569 0.5758   0.701189
 C 0.7309 0.0474 0.5261   0.687641
 C 0.7934 0.7765 0.1946   -0.191922
 C 0.8288 0.8043 0.2426   0.042281
 C 0.8047 0.7602 0.2845   -0.169284
 C 0.736 0.6746 0.2793   -0.005331
 C 0.698 0.6447 0.2345   -0.143703
 C 0.724 0.6913 0.1914   -0.003358
 C 0.8268 0.8276 0.1517   0.758268
 C 0.8423 0.7981 0.3357   0.741676
 C 0.4432 0.9888 0.9204   -0.158125
 C 0.5332 0.9485 0.9464   -0.002999
 C 0.6385 0.9949 0.9448   -0.153997
 C 0.6507 0.0798 0.9197   0.004022
 C 0.5651 0.1223 0.8969   -0.151424
 C 0.4573 0.0732 0.8957   0.007682
 C 0.3297 0.9431 0.9242   0.701189
 C 0.7309 0.9526 0.9739   0.687641
 O 0.1105 0.9019 0.6566   -0.579134
 O 0.2087 0.7918 0.6096   -0.66126
 O 0.0961 0.8739 0.835   -0.604512
 O 0.1837 0.7539 0.8726   -0.625164
 O 0.68 0.8644 0.4478   -0.607326
 O 0.7507 0.986 0.4023   -0.646184
 O 0.2908 0.8867 0.5034   -0.6138
 O 0.1714 0.9886 0.4677   -0.602812
 O 0.9543 0.893 0.4462   -0.926825
 O 0.0424 0.9043 0.5526   -0.905496
 O 0.1105 0.0981 0.8434   -0.579134
 O 0.2087 0.2082 0.8904   -0.66126
 O 0.0961 0.1261 0.665   -0.604512
 O 0.1837 0.2461 0.6274   -0.625164
 O 0.68 0.1356 0.0522   -0.607326
 O 0.7507 0.014 0.0977   -0.646184
 O 0.2908 0.1133 0.9966   -0.6138
 O 0.1714 0.0114 0.0323   -0.602812
 O 0.9543 0.107 0.0538   -0.926825
 O 0.0424 0.0957 0.9474   -0.905496
 O 0.8895 0.0981 0.3434   -0.579134
 O 0.7913 0.2082 0.3904   -0.66126
 O 0.9039 0.1261 0.165   -0.604512
 O 0.8163 0.2461 0.1274   -0.625163
 O 0.32 0.1356 0.5522   -0.607327
 O 0.2493 0.014 0.5977   -0.646184
 O 0.7092 0.1133 0.4966   -0.613801
 O 0.8286 0.0114 0.5323   -0.602812
 O 0.0457 0.107 0.5538   -0.926825
 O 0.9576 0.0957 0.4474   -0.905496
 O 0.8895 0.9019 0.1566   -0.579134
 O 0.7913 0.7918 0.1096   -0.66126
 O 0.9039 0.8739 0.335   -0.604512
 O 0.8163 0.7539 0.3726   -0.625163
 O 0.32 0.8644 0.9478   -0.607327
 O 0.2493 0.986 0.9023   -0.646184
 O 0.7092 0.8867 0.0034   -0.613801
 O 0.8286 0.9886 0.9677   -0.602812
 O 0.0457 0.893 0.9462   -0.926825
 O 0.9576 0.9043 0.0526   -0.905496
