{'_ref': 'TBD', '_srcid': 'CAKYAQ_clean', 'submitters': [{'name': 'Dalar Nazarian Jeff Camp and David Sholl', 'email': 'dalar@gatech.edu jcamp6@gatech.edu'}], '_method': 'VASP DFT with PBE;DDEC'}
data_CeH9(C3O)6
_symmetry_space_group_name_H-M   'P 1'
_cell_length_a   12.20149973
_cell_length_b   12.36779999
_cell_length_c   13.52030000
_cell_angle_alpha   102.22199873
_cell_angle_beta   98.70400058
_cell_angle_gamma   106.47999879
_symmetry_Int_Tables_number   1
_chemical_formula_structural   CeH9(C3O)6
_chemical_formula_sum   'Ce2 H18 C36 O12'
_cell_volume   1862.85488274
_cell_formula_units_Z   2
loop_
 _symmetry_equiv_pos_site_id
 _symmetry_equiv_pos_as_xyz
  1  'x, y, z'
loop_
 _atom_site_label
 _atom_site_fract_x
 _atom_site_fract_y
 _atom_site_fract_z
 _atom_site_charge
 Ce 0.32514 0.48091 0.45396   2.197946
 Ce 0.67486 0.51909 0.54604   2.197945
 H 0.0375 0.3567 0.1118   0.117135
 H 0.2022 0.6999 0.2058   0.101743
 H 0.8941 0.2785 0.9441   0.112651
 H 0.5851 0.2295 0.5438   0.090961
 H 0.261 0.0511 0.3789   0.111045
 H 0.7118 0.1221 0.6091   0.117505
 H 0.3668 0.469 0.1342   0.108934
 H 0.7128 0.5311 0.2084   0.097922
 H 0.2741 0.4623 0.9555   0.104458
 H 0.9625 0.6433 0.8882   0.117135
 H 0.7978 0.3001 0.7942   0.101744
 H 0.1059 0.7215 0.0559   0.112652
 H 0.4149 0.7705 0.4562   0.090961
 H 0.739 0.9489 0.6211   0.111045
 H 0.2882 0.8779 0.3909   0.117505
 H 0.6332 0.531 0.8658   0.108934
 H 0.2872 0.4689 0.7916   0.097919
 H 0.7259 0.5377 0.0445   0.104455
 C 0.1885 0.5091 0.2718   0.67984
 C 0.99 0.4429 0.0047   0.044805
 C 0.0516 0.4306 0.1006   -0.081953
 C 0.1275 0.5233 0.1725   -0.11772
 C 0.1486 0.6348 0.1563   -0.050821
 C 0.9104 0.3526 0.9332   -0.138271
 C 0.4022 0.2699 0.4527   0.786501
 C 0.5446 0.0523 0.5231   0.04887
 C 0.5255 0.1585 0.5132   -0.059357
 C 0.4221 0.1572 0.4601   -0.151091
 C 0.3326 0.0517 0.4147   -0.045852
 C 0.6513 0.0518 0.5777   -0.137937
 C 0.5275 0.4939 0.2973   0.796451
 C 0.4455 0.4886 0.0125   0.044106
 C 0.4388 0.4832 0.1156   -0.064731
 C 0.5365 0.4984 0.1868   -0.157032
 C 0.6457 0.5201 0.1592   -0.046021
 C 0.3466 0.475 0.9378   -0.132218
 C 0.8115 0.4909 0.7282   0.67984
 C 0.01 0.5571 0.9953   0.044803
 C 0.9484 0.5694 0.8994   -0.081952
 C 0.8725 0.4767 0.8275   -0.117721
 C 0.8514 0.3652 0.8437   -0.050814
 C 0.0896 0.6474 0.0668   -0.138264
 C 0.5978 0.7301 0.5473   0.786501
 C 0.4554 0.9477 0.4769   0.048871
 C 0.4745 0.8415 0.4868   -0.059357
 C 0.5779 0.8428 0.5399   -0.151092
 C 0.6674 0.9483 0.5853   -0.045845
 C 0.3487 0.9482 0.4223   -0.137931
 C 0.4725 0.5061 0.7027   0.796452
 C 0.5545 0.5114 0.9875   0.044104
 C 0.5612 0.5168 0.8844   -0.064729
 C 0.4635 0.5016 0.8132   -0.157038
 C 0.3543 0.4799 0.8408   -0.045988
 C 0.6534 0.525 0.0622   -0.132186
 O 0.1659 0.4087 0.2875   -0.698525
 O 0.2622 0.5988 0.3355   -0.706155
 O 0.3019 0.2661 0.4143   -0.662888
 O 0.4847 0.3637 0.4858   -0.843201
 O 0.4262 0.4631 0.3122   -0.690527
 O 0.6219 0.5207 0.3613   -0.776612
 O 0.8341 0.5913 0.7125   -0.698525
 O 0.7378 0.4012 0.6645   -0.706155
 O 0.6981 0.7339 0.5857   -0.662888
 O 0.5153 0.6363 0.5142   -0.843201
 O 0.5738 0.5369 0.6878   -0.690527
 O 0.3781 0.4793 0.6387   -0.776612
