{'_ref': 'TBD', '_srcid': 'CAKYAQ_clean', 'submitters': [{'name': 'Dalar Nazarian Jeff Camp and David Sholl', 'email': 'dalar@gatech.edu jcamp6@gatech.edu'}], '_method': 'VASP DFT with PBE;DDEC'}
data_MnH10C14(NO2)2
_symmetry_space_group_name_H-M   'P 1'
_cell_length_a   11.86470024
_cell_length_b   11.86470015
_cell_length_c   16.34300000
_cell_angle_alpha   73.31140107
_cell_angle_beta   73.31140121
_cell_angle_gamma   78.75109999
_symmetry_Int_Tables_number   1
_chemical_formula_structural   MnH10C14(NO2)2
_chemical_formula_sum   'Mn4 H40 C56 N8 O16'
_cell_volume   2094.94079314
_cell_formula_units_Z   4
loop_
 _symmetry_equiv_pos_site_id
 _symmetry_equiv_pos_as_xyz
  1  'x, y, z'
loop_
 _atom_site_label
 _atom_site_fract_x
 _atom_site_fract_y
 _atom_site_fract_z
 _atom_site_charge
 Mn 0.83328 0.6157 0.54688   1.029936
 Mn 0.3843 0.16672 0.95312   1.029936
 Mn 0.16672 0.3843 0.45312   1.029935
 Mn 0.6157 0.83328 0.04688   1.029935
 H 0.1652 0.4532 0.0366   0.277813
 H 0.8127 0.6635 0.2748   0.091068
 H 0.1413 0.4853 0.2452   0.108627
 H 0.3263 0.3619 0.0762   0.095766
 H 0.2652 0.3764 0.1717   0.099555
 H 0.9796 0.5768 0.0458   0.114342
 H 0.4573 0.4225 0.1801   0.135068
 H 0.2931 0.6371 0.0015   0.134247
 H 0.5757 0.5657 0.1526   0.062811
 H 0.4109 0.7755 0.9844   0.072377
 H 0.5468 0.8348 0.4634   0.277813
 H 0.3365 0.1873 0.2252   0.091069
 H 0.5147 0.8587 0.2548   0.108627
 H 0.6381 0.6737 0.4238   0.095766
 H 0.6236 0.7348 0.3283   0.099556
 H 0.4232 0.0204 0.4542   0.114342
 H 0.5775 0.5427 0.3199   0.135065
 H 0.3629 0.7069 0.4985   0.134247
 H 0.4343 0.4243 0.3474   0.062809
 H 0.2245 0.5891 0.5156   0.072377
 H 0.8348 0.5468 0.9634   0.277813
 H 0.1873 0.3365 0.7252   0.091068
 H 0.8587 0.5147 0.7548   0.108627
 H 0.6737 0.6381 0.9238   0.095766
 H 0.7348 0.6236 0.8283   0.099555
 H 0.0204 0.4232 0.9542   0.114343
 H 0.5427 0.5775 0.8199   0.135066
 H 0.7069 0.3629 0.9985   0.134244
 H 0.4243 0.4343 0.8474   0.06281
 H 0.5891 0.2245 0.0156   0.072377
 H 0.4532 0.1652 0.5366   0.277813
 H 0.6635 0.8127 0.7748   0.091069
 H 0.4853 0.1413 0.7452   0.108627
 H 0.3619 0.3263 0.5762   0.095766
 H 0.3764 0.2652 0.6717   0.099556
 H 0.5768 0.9796 0.5458   0.114343
 H 0.4225 0.4573 0.6801   0.135064
 H 0.6371 0.2931 0.5015   0.134244
 H 0.5657 0.5757 0.6526   0.062808
 H 0.7755 0.4109 0.4844   0.072377
 C 0.9758 0.5742 0.2742   -0.125558
 C 0.0778 0.5178 0.1362   0.205712
 C 0.8806 0.6272 0.1548   -0.110923
 C 0.8788 0.6276 0.2406   -0.06594
 C 0.7776 0.6908 0.1166   0.622895
 C 0.3585 0.5127 0.0963   0.142191
 C 0.0758 0.52 0.2224   -0.16939
 C 0.9756 0.5738 0.3661   0.709532
 C 0.2821 0.4185 0.11   -0.005735
 C 0.9791 0.5745 0.1033   -0.166627
 C 0.4453 0.4941 0.1395   -0.234832
 C 0.3484 0.621 0.035   -0.233814
 C 0.5159 0.5821 0.1231   0.192018
 C 0.4205 0.7031 0.0248   0.186283
 C 0.4258 0.0242 0.2258   -0.125558
 C 0.4822 0.9222 0.3638   0.205713
 C 0.3728 0.1194 0.3452   -0.110923
 C 0.3724 0.1212 0.2594   -0.065939
 C 0.3092 0.2224 0.3834   0.622895
 C 0.4873 0.6415 0.4037   0.142191
 C 0.48 0.9242 0.2776   -0.169389
 C 0.4262 0.0244 0.1339   0.709534
 C 0.5815 0.7179 0.39   -0.005735
 C 0.4255 0.0209 0.3967   -0.166627
 C 0.5059 0.5547 0.3605   -0.234832
 C 0.379 0.6516 0.465   -0.233814
 C 0.4179 0.4841 0.3769   0.192018
 C 0.2969 0.5795 0.4752   0.186283
 C 0.0242 0.4258 0.7258   -0.125558
 C 0.9222 0.4822 0.8638   0.205712
 C 0.1194 0.3728 0.8452   -0.110923
 C 0.1212 0.3724 0.7594   -0.06594
 C 0.2224 0.3092 0.8834   0.622895
 C 0.6415 0.4873 0.9037   0.142191
 C 0.9242 0.48 0.7776   -0.16939
 C 0.0244 0.4262 0.6339   0.709532
 C 0.7179 0.5815 0.89   -0.005734
 C 0.0209 0.4255 0.8967   -0.166627
 C 0.5547 0.5059 0.8605   -0.234832
 C 0.6516 0.379 0.965   -0.233813
 C 0.4841 0.4179 0.8769   0.192018
 C 0.5795 0.2969 0.9752   0.186282
 C 0.5742 0.9758 0.7742   -0.125558
 C 0.5178 0.0778 0.6362   0.205713
 C 0.6272 0.8806 0.6548   -0.110923
 C 0.6276 0.8788 0.7406   -0.065939
 C 0.6908 0.7776 0.6166   0.622895
 C 0.5127 0.3585 0.5963   0.142191
 C 0.52 0.0758 0.7224   -0.169389
 C 0.5738 0.9756 0.8661   0.709534
 C 0.4185 0.2821 0.61   -0.005735
 C 0.5745 0.9791 0.6033   -0.166627
 C 0.4941 0.4453 0.6395   -0.234832
 C 0.621 0.3484 0.535   -0.233813
 C 0.5821 0.5159 0.6231   0.192018
 C 0.7031 0.4205 0.5248   0.186283
 N 0.1722 0.4622 0.0853   -0.368697
 N 0.5045 0.6873 0.0688   -0.366651
 N 0.5378 0.8278 0.4147   -0.368697
 N 0.3127 0.4955 0.4312   -0.366651
 N 0.8278 0.5378 0.9147   -0.368697
 N 0.4955 0.3127 0.9312   -0.366651
 N 0.4622 0.1722 0.5853   -0.368697
 N 0.6873 0.5045 0.5688   -0.366651
 O 0.6885 0.7389 0.1638   -0.588194
 O 0.784 0.6978 0.036   -0.603166
 O 0.8795 0.6135 0.4119   -0.598745
 O 0.0694 0.5362 0.3914   -0.641969
 O 0.2611 0.3115 0.3362   -0.588194
 O 0.3022 0.216 0.464   -0.603166
 O 0.3865 0.1205 0.0881   -0.598745
 O 0.4638 0.9306 0.1086   -0.641969
 O 0.3115 0.2611 0.8362   -0.588194
 O 0.216 0.3022 0.964   -0.603166
 O 0.1205 0.3865 0.5881   -0.598745
 O 0.9306 0.4638 0.6086   -0.641969
 O 0.7389 0.6885 0.6638   -0.588194
 O 0.6978 0.784 0.536   -0.603166
 O 0.6135 0.8795 0.9119   -0.598745
 O 0.5362 0.0694 0.8914   -0.641969
