{'_ref': 'TBD', '_srcid': 'CAKYAQ_clean', 'submitters': [{'name': 'Dalar Nazarian Jeff Camp and David Sholl', 'email': 'dalar@gatech.edu jcamp6@gatech.edu'}], '_method': 'VASP DFT with PBE;DDEC'}
data_MnH10C14(NO2)2
_symmetry_space_group_name_H-M   'P 1'
_cell_length_a   11.83260039
_cell_length_b   11.83260026
_cell_length_c   16.44400000
_cell_angle_alpha   73.15830024
_cell_angle_beta   73.15830042
_cell_angle_gamma   78.86839978
_symmetry_Int_Tables_number   1
_chemical_formula_structural   MnH10C14(NO2)2
_chemical_formula_sum   'Mn4 H40 C56 N8 O16'
_cell_volume   2094.05108079
_cell_formula_units_Z   4
loop_
 _symmetry_equiv_pos_site_id
 _symmetry_equiv_pos_as_xyz
  1  'x, y, z'
loop_
 _atom_site_label
 _atom_site_fract_x
 _atom_site_fract_y
 _atom_site_fract_z
 _atom_site_charge
 Mn 0.83611 0.61985 0.04414   1.029767
 Mn 0.38015 0.16389 0.45586   1.029766
 Mn 0.16389 0.38015 0.95586   1.029767
 Mn 0.61985 0.83611 0.54414   1.029765
 H 0.6645 0.8135 0.2731   0.090091
 H 0.4519 0.1665 0.0382   0.277736
 H 0.5723 0.9813 0.0478   0.112834
 H 0.3742 0.2678 0.1725   0.098418
 H 0.3617 0.3299 0.077   0.096387
 H 0.4846 0.14 0.2472   0.110908
 H 0.639 0.2886 0.0098   0.130267
 H 0.4218 0.4632 0.1773   0.131006
 H 0.7746 0.416 0.9842   0.071449
 H 0.5649 0.5833 0.1492   0.065844
 H 0.1865 0.3355 0.2269   0.090092
 H 0.8335 0.5481 0.4618   0.277736
 H 0.0187 0.4277 0.4522   0.112834
 H 0.7322 0.6258 0.3275   0.098419
 H 0.6701 0.6383 0.423   0.096387
 H 0.86 0.5154 0.2528   0.110908
 H 0.7114 0.361 0.4902   0.130267
 H 0.5368 0.5782 0.3227   0.131004
 H 0.584 0.2254 0.5158   0.071449
 H 0.4167 0.4351 0.3508   0.065842
 H 0.3355 0.1865 0.7269   0.090091
 H 0.5481 0.8335 0.9618   0.277736
 H 0.4277 0.0187 0.9522   0.112835
 H 0.6258 0.7322 0.8275   0.098418
 H 0.6383 0.6701 0.923   0.096387
 H 0.5154 0.86 0.7528   0.110908
 H 0.361 0.7114 0.9902   0.130265
 H 0.5782 0.5368 0.8227   0.131005
 H 0.2254 0.584 0.0158   0.071449
 H 0.4351 0.4167 0.8508   0.065843
 H 0.8135 0.6645 0.7731   0.090092
 H 0.1665 0.4519 0.5382   0.277736
 H 0.9813 0.5723 0.5478   0.112835
 H 0.2678 0.3742 0.6725   0.098419
 H 0.3299 0.3617 0.577   0.096387
 H 0.14 0.4846 0.7472   0.110908
 H 0.2886 0.639 0.5098   0.130265
 H 0.4632 0.4218 0.6773   0.131002
 H 0.416 0.7746 0.4842   0.071449
 H 0.5833 0.5649 0.6492   0.065841
 C 0.5707 0.9737 0.2746   -0.123637
 C 0.5157 0.0777 0.1382   0.204509
 C 0.6288 0.8826 0.1534   -0.1111
 C 0.6272 0.8794 0.2396   -0.06372
 C 0.5697 0.9727 0.3667   0.706387
 C 0.6935 0.7827 0.1146   0.629416
 C 0.513 0.3598 0.0983   0.139784
 C 0.5724 0.9804 0.1045   -0.161985
 C 0.4174 0.2846 0.1112   -0.003975
 C 0.5182 0.0746 0.2242   -0.164086
 C 0.6212 0.3476 0.0401   -0.227309
 C 0.4945 0.4495 0.1383   -0.232436
 C 0.7038 0.4234 0.0266   0.178979
 C 0.5826 0.5212 0.1219   0.188555
 C 0.0263 0.4293 0.2254   -0.123638
 C 0.9223 0.4843 0.3618   0.20451
 C 0.1174 0.3712 0.3466   -0.111101
 C 0.1206 0.3728 0.2604   -0.063719
 C 0.0273 0.4303 0.1333   0.706406
 C 0.2173 0.3065 0.3854   0.629416
 C 0.6402 0.487 0.4017   0.139784
 C 0.0196 0.4276 0.3955   -0.161985
 C 0.7154 0.5826 0.3888   -0.003975
 C 0.9254 0.4818 0.2758   -0.164085
 C 0.6524 0.3788 0.4599   -0.227309
 C 0.5505 0.5055 0.3617   -0.232435
 C 0.5766 0.2962 0.4734   0.178979
 C 0.4788 0.4174 0.3781   0.188555
 C 0.4293 0.0263 0.7254   -0.123637
 C 0.4843 0.9223 0.8618   0.204509
 C 0.3712 0.1174 0.8466   -0.1111
 C 0.3728 0.1206 0.7604   -0.06372
 C 0.4303 0.0273 0.6333   0.706387
 C 0.3065 0.2173 0.8854   0.629416
 C 0.487 0.6402 0.9017   0.139783
 C 0.4276 0.0196 0.8955   -0.161985
 C 0.5826 0.7154 0.8888   -0.003975
 C 0.4818 0.9254 0.7758   -0.164086
 C 0.3788 0.6524 0.9599   -0.227309
 C 0.5055 0.5505 0.8617   -0.232436
 C 0.2962 0.5766 0.9734   0.178978
 C 0.4174 0.4788 0.8781   0.188555
 C 0.9737 0.5707 0.7746   -0.123638
 C 0.0777 0.5157 0.6382   0.20451
 C 0.8826 0.6288 0.6534   -0.1111
 C 0.8794 0.6272 0.7396   -0.063719
 C 0.9727 0.5697 0.8667   0.706406
 C 0.7827 0.6935 0.6146   0.629416
 C 0.3598 0.513 0.5983   0.139783
 C 0.9804 0.5724 0.6045   -0.161985
 C 0.2846 0.4174 0.6112   -0.003975
 C 0.0746 0.5182 0.7242   -0.164085
 C 0.3476 0.6212 0.5401   -0.227309
 C 0.4495 0.4945 0.6383   -0.232435
 C 0.4234 0.7038 0.5266   0.178979
 C 0.5212 0.5826 0.6219   0.188555
 N 0.6887 0.5069 0.0705   -0.359207
 N 0.4607 0.1733 0.0866   -0.375439
 N 0.4931 0.3113 0.4295   -0.359207
 N 0.8267 0.5393 0.4134   -0.375439
 N 0.3113 0.4931 0.9295   -0.359207
 N 0.5393 0.8267 0.9134   -0.375439
 N 0.5069 0.6887 0.5705   -0.359207
 N 0.1733 0.4607 0.5866   -0.375439
 O 0.7443 0.6929 0.1607   -0.598245
 O 0.6995 0.7881 0.0351   -0.604448
 O 0.6157 0.8777 0.4109   -0.603439
 O 0.5291 0.0647 0.3929   -0.633312
 O 0.3071 0.2557 0.3393   -0.598245
 O 0.2119 0.3005 0.4649   -0.604447
 O 0.1223 0.3843 0.0891   -0.603441
 O 0.9353 0.4709 0.1071   -0.633328
 O 0.2557 0.3071 0.8393   -0.598245
 O 0.3005 0.2119 0.9649   -0.604448
 O 0.3843 0.1223 0.5891   -0.603439
 O 0.4709 0.9353 0.6071   -0.633312
 O 0.6929 0.7443 0.6607   -0.598245
 O 0.7881 0.6995 0.5351   -0.604448
 O 0.8777 0.6157 0.9109   -0.603441
 O 0.0647 0.5291 0.8929   -0.633328
