{'_ref': 'TBD', '_srcid': 'CAKYAQ_clean', 'submitters': [{'name': 'Dalar Nazarian Jeff Camp and David Sholl', 'email': 'dalar@gatech.edu jcamp6@gatech.edu'}], '_method': 'VASP DFT with PBE;DDEC'}
data_MnH10C14(NO2)2
_symmetry_space_group_name_H-M   'P 1'
_cell_length_a   14.91800014
_cell_length_b   15.59600000
_cell_length_c   16.44200000
_cell_angle_alpha   90.00000000
_cell_angle_beta   105.60600175
_cell_angle_gamma   90.00000000
_symmetry_Int_Tables_number   1
_chemical_formula_structural   MnH10C14(NO2)2
_chemical_formula_sum   'Mn8 H80 C112 N16 O32'
_cell_volume   3684.38807972
_cell_formula_units_Z   8
loop_
 _symmetry_equiv_pos_site_id
 _symmetry_equiv_pos_as_xyz
  1  'x, y, z'
loop_
 _atom_site_label
 _atom_site_fract_x
 _atom_site_fract_y
 _atom_site_fract_z
 _atom_site_charge
 Mn 0.25391 0.9316 0.96291   1.044424
 Mn 0.27588 0.64594 0.04599   1.02381
 Mn 0.24609 0.4316 0.53709   1.044424
 Mn 0.22412 0.14594 0.45401   1.02381
 Mn 0.74609 0.0684 0.03709   1.044419
 Mn 0.72412 0.35406 0.95401   1.02381
 Mn 0.75391 0.5684 0.46291   1.044419
 Mn 0.77588 0.85406 0.54599   1.02381
 H 0.2765 0.9655 0.2351   0.091538
 H 0.3156 0.9052 0.5919   0.303445
 H 0.2649 0.6116 0.7744   0.084843
 H 0.2384 0.682 0.4297   0.283087
 H 0.2771 0.5958 0.304   0.094645
 H 0.2715 0.5552 0.3895   0.106198
 H 0.2727 0.8684 0.78   0.112363
 H 0.2518 0.836 0.4393   0.106002
 H 0.2393 0.981 0.7003   0.079964
 H 0.2267 0.0157 0.6086   0.100753
 H 0.2875 0.7083 0.2398   0.107468
 H 0.4068 0.4723 0.3493   0.129469
 H 0.2771 0.7409 0.5668   0.106113
 H 0.1056 0.9003 0.4992   0.134191
 H 0.9544 0.865 0.4684   0.072419
 H 0.0945 0.9684 0.7301   0.128805
 H 0.5964 0.6884 0.4791   0.06546
 H 0.9424 0.9291 0.6946   0.062452
 H 0.5627 0.4557 0.3904   0.071786
 H 0.4394 0.7069 0.4462   0.126296
 H 0.2235 0.4655 0.2649   0.091538
 H 0.1844 0.4052 0.9081   0.303445
 H 0.2351 0.1116 0.7256   0.084843
 H 0.2616 0.182 0.0703   0.283087
 H 0.2229 0.0958 0.196   0.094645
 H 0.2285 0.0552 0.1105   0.106198
 H 0.2273 0.3684 0.72   0.112363
 H 0.2482 0.336 0.0607   0.106002
 H 0.2607 0.481 0.7997   0.079963
 H 0.2733 0.5157 0.8914   0.100753
 H 0.2125 0.2083 0.2602   0.107468
 H 0.0932 0.9723 0.1507   0.129469
 H 0.2229 0.2409 0.9332   0.106113
 H 0.3944 0.4003 0.000799999999998   0.134191
 H 0.5456 0.365 0.0316   0.072419
 H 0.4055 0.4684 0.7699   0.128805
 H 0.9036 0.1884 0.0209   0.06546
 H 0.5576 0.4291 0.8054   0.062452
 H 0.9373 0.9557 0.1096   0.071786
 H 0.0606 0.2069 0.0538   0.126296
 H 0.7235 0.0345 0.7649   0.091538
 H 0.6844 0.0948 0.4081   0.303445
 H 0.7351 0.3884 0.2256   0.084843
 H 0.7616 0.318 0.5703   0.283087
 H 0.7229 0.4042 0.696   0.094645
 H 0.7285 0.4448 0.6105   0.106198
 H 0.7273 0.1316 0.22   0.112363
 H 0.7482 0.164 0.5607   0.106002
 H 0.7607 0.019 0.2997   0.079964
 H 0.7733 0.9843 0.3914   0.100753
 H 0.7125 0.2917 0.7602   0.107468
 H 0.5932 0.5277 0.6507   0.129469
 H 0.7229 0.2591 0.4332   0.106113
 H 0.8944 0.0997 0.5008   0.134191
 H 0.0456 0.135 0.5316   0.072419
 H 0.9055 0.0316 0.2699   0.128806
 H 0.4036 0.3116 0.5209   0.06546
 H 0.0576 0.0709 0.3054   0.062452
 H 0.4373 0.5443 0.6096   0.071786
 H 0.5606 0.2931 0.5538   0.126296
 H 0.7765 0.5345 0.7351   0.091538
 H 0.8156 0.5948 0.0919   0.303445
 H 0.7649 0.8884 0.2744   0.084843
 H 0.7384 0.818 0.9297   0.283087
 H 0.7771 0.9042 0.804   0.094645
 H 0.7715 0.9448 0.8895   0.106198
 H 0.7727 0.6316 0.28   0.112363
 H 0.7518 0.664 0.9393   0.106002
 H 0.7393 0.519 0.2003   0.079963
 H 0.7267 0.4843 0.1086   0.100753
 H 0.7875 0.7917 0.7398   0.107468
 H 0.9068 0.0277 0.8493   0.129469
 H 0.7771 0.7591 0.0668   0.106113
 H 0.6056 0.5997 0.9992   0.134191
 H 0.4544 0.635 0.9684   0.072419
 H 0.5945 0.5316 0.2301   0.128806
 H 0.0964 0.8116 0.9791   0.06546
 H 0.4424 0.5709 0.1946   0.062452
 H 0.0627 0.0443 0.8904   0.071786
 H 0.9394 0.7931 0.9462   0.126296
 C 0.2807 0.8365 0.2233   -0.131663
 C 0.2614 0.9141 0.3446   -0.10748
 C 0.2889 0.8342 0.1333   0.718772
 C 0.2506 0.9969 0.3875   0.642822
 C 0.2697 0.6644 0.6631   -0.111773
 C 0.2734 0.914 0.2627   -0.070299
 C 0.2623 0.5812 0.6147   0.627565
 C 0.2677 0.6636 0.7474   -0.043684
 C 0.2982 0.602 0.3649   -0.006341
 C 0.2699 0.7396 0.791   -0.139832
 C 0.2789 0.8198 0.6662   0.199817
 C 0.2736 0.8174 0.7509   -0.144194
 C 0.2593 0.836 0.385   -0.163884
 C 0.2198 0.9654 0.6411   0.008402
 C 0.2799 0.7597 0.2659   -0.160822
 C 0.2681 0.7582 0.3469   0.209159
 C 0.444 0.5173 0.3764   -0.212887
 C 0.2638 0.7398 0.8812   0.729314
 C 0.403 0.5933 0.392   0.14832
 C 0.2754 0.741 0.6229   -0.1533
 C 0.1187 0.9405 0.6186   0.136965
 C 0.0734 0.9075 0.5399   -0.220214
 C 0.9823 0.8857 0.5223   0.178587
 C 0.0671 0.9474 0.6762   -0.220658
 C 0.5581 0.6436 0.4533   0.19571
 C 0.9753 0.9235 0.6543   0.182463
 C 0.5379 0.5081 0.4005   0.181345
 C 0.4631 0.6554 0.4325   -0.228768
 C 0.2193 0.3365 0.2767   -0.131663
 C 0.2386 0.4141 0.1554   -0.10748
 C 0.2111 0.3342 0.3667   0.718772
 C 0.2494 0.4969 0.1125   0.642822
 C 0.2303 0.1644 0.8369   -0.111773
 C 0.2266 0.414 0.2373   -0.070299
 C 0.2377 0.0812 0.8853   0.627565
 C 0.2323 0.1636 0.7526   -0.043684
 C 0.2018 0.102 0.1351   -0.006341
 C 0.2301 0.2396 0.709   -0.139832
 C 0.2211 0.3198 0.8338   0.199817
 C 0.2264 0.3174 0.7491   -0.144194
 C 0.2407 0.336 0.115   -0.163884
 C 0.2802 0.4654 0.8589   0.008402
 C 0.2201 0.2597 0.2341   -0.160822
 C 0.2319 0.2582 0.1531   0.209159
 C 0.056 0.0173 0.1236   -0.212887
 C 0.2362 0.2398 0.6188   0.729314
 C 0.097 0.0933 0.108   0.14832
 C 0.2246 0.241 0.8771   -0.1533
 C 0.3813 0.4405 0.8814   0.136965
 C 0.4266 0.4075 0.9601   -0.220214
 C 0.5177 0.3857 0.9777   0.178587
 C 0.4329 0.4474 0.8238   -0.220658
 C 0.9419 0.1436 0.0467   0.19571
 C 0.5247 0.4235 0.8457   0.182463
 C 0.9621 0.0081 0.0995   0.181345
 C 0.0369 0.1554 0.0675   -0.228768
 C 0.7193 0.1635 0.7767   -0.131663
 C 0.7386 0.0859 0.6554   -0.10748
 C 0.7111 0.1658 0.8667   0.718771
 C 0.7494 0.0031 0.6125   0.642822
 C 0.7303 0.3356 0.3369   -0.111773
 C 0.7266 0.086 0.7373   -0.070299
 C 0.7377 0.4188 0.3853   0.627564
 C 0.7323 0.3364 0.2526   -0.043684
 C 0.7018 0.398 0.6351   -0.006341
 C 0.7301 0.2604 0.209   -0.139832
 C 0.7211 0.1802 0.3338   0.199817
 C 0.7264 0.1826 0.2491   -0.144194
 C 0.7407 0.164 0.615   -0.163884
 C 0.7802 0.0346 0.3589   0.008402
 C 0.7201 0.2403 0.7341   -0.160822
 C 0.7319 0.2418 0.6531   0.209159
 C 0.556 0.4827 0.6236   -0.212887
 C 0.7362 0.2602 0.1188   0.729313
 C 0.597 0.4067 0.608   0.148321
 C 0.7246 0.259 0.3771   -0.1533
 C 0.8813 0.0595 0.3814   0.136965
 C 0.9266 0.0925 0.4601   -0.220214
 C 0.0177 0.1143 0.4777   0.178587
 C 0.9329 0.0526 0.3238   -0.220658
 C 0.4419 0.3564 0.5467   0.19571
 C 0.0247 0.0765 0.3457   0.182463
 C 0.4621 0.4919 0.5995   0.181345
 C 0.5369 0.3446 0.5675   -0.228768
 C 0.7807 0.6635 0.7233   -0.131663
 C 0.7614 0.5859 0.8446   -0.10748
 C 0.7889 0.6658 0.6333   0.718771
 C 0.7506 0.5031 0.8875   0.642822
 C 0.7697 0.8356 0.1631   -0.111773
 C 0.7734 0.586 0.7627   -0.070299
 C 0.7623 0.9188 0.1147   0.627564
 C 0.7677 0.8364 0.2474   -0.043684
 C 0.7982 0.898 0.8649   -0.006341
 C 0.7699 0.7604 0.291   -0.139832
 C 0.7789 0.6802 0.1662   0.199817
 C 0.7736 0.6826 0.2509   -0.144194
 C 0.7593 0.664 0.885   -0.163884
 C 0.7198 0.5346 0.1411   0.008402
 C 0.7799 0.7403 0.7659   -0.160822
 C 0.7681 0.7418 0.8469   0.209159
 C 0.944 0.9827 0.8764   -0.212887
 C 0.7638 0.7602 0.3812   0.729313
 C 0.903 0.9067 0.892   0.148321
 C 0.7754 0.759 0.1229   -0.1533
 C 0.6187 0.5595 0.1186   0.136965
 C 0.5734 0.5925 0.0399   -0.220214
 C 0.4823 0.6143 0.0223   0.178587
 C 0.5671 0.5526 0.1762   -0.220658
 C 0.0581 0.8564 0.9533   0.19571
 C 0.4753 0.5765 0.1543   0.182463
 C 0.0379 0.9919 0.9005   0.181345
 C 0.9631 0.8446 0.9325   -0.228768
 N 0.9288 0.8916 0.5764   -0.373868
 N 0.2823 0.897 0.6255   -0.441158
 N 0.2628 0.682 0.3881   -0.395306
 N 0.5976 0.5704 0.438   -0.395216
 N 0.5712 0.3916 0.9236   -0.373868
 N 0.2177 0.397 0.8745   -0.441158
 N 0.2372 0.182 0.1119   -0.395306
 N 0.9024 0.0704 0.062   -0.395216
 N 0.0712 0.1084 0.4236   -0.373868
 N 0.7177 0.103 0.3745   -0.441158
 N 0.7372 0.318 0.6119   -0.395306
 N 0.4024 0.4296 0.562   -0.395216
 N 0.4288 0.6084 0.0764   -0.373868
 N 0.7823 0.603 0.1255   -0.441158
 N 0.7628 0.818 0.8881   -0.395306
 N 0.0976 0.9296 0.938   -0.395216
 O 0.2371 0.0651 0.3457   -0.595916
 O 0.2621 0.511 0.6536   -0.593415
 O 0.2559 0.5825 0.5367   -0.599568
 O 0.2747 0.6695 0.9188   -0.60047
 O 0.2546 0.9964 0.4649   -0.606446
 O 0.2776 0.9048 0.0932   -0.619256
 O 0.3068 0.7646 0.1052   -0.621127
 O 0.245 0.8078 0.9102   -0.637224
 O 0.2629 0.5651 0.1543   -0.595916
 O 0.2379 0.011 0.8464   -0.593415
 O 0.2441 0.0825 0.9633   -0.599568
 O 0.2253 0.1695 0.5812   -0.60047
 O 0.2454 0.4964 0.0351   -0.606446
 O 0.2224 0.4048 0.4068   -0.619256
 O 0.1932 0.2646 0.3948   -0.621127
 O 0.255 0.3078 0.5898   -0.637224
 O 0.7629 0.9349 0.6543   -0.595916
 O 0.7379 0.489 0.3464   -0.593414
 O 0.7441 0.4175 0.4633   -0.599568
 O 0.7253 0.3305 0.0812   -0.60047
 O 0.7454 0.0036 0.5351   -0.606446
 O 0.7224 0.0952 0.9068   -0.619256
 O 0.6932 0.2354 0.8948   -0.621127
 O 0.755 0.1922 0.0898   -0.637223
 O 0.7371 0.4349 0.8457   -0.595916
 O 0.7621 0.989 0.1536   -0.593414
 O 0.7559 0.9175 0.0367   -0.599568
 O 0.7747 0.8305 0.4188   -0.60047
 O 0.7546 0.5036 0.9649   -0.606446
 O 0.7776 0.5952 0.5932   -0.619256
 O 0.8068 0.7354 0.6052   -0.621127
 O 0.745 0.6922 0.4102   -0.637223
