{'_ref': 'TBD', '_srcid': 'CAKYAQ_clean', 'submitters': [{'name': 'Dalar Nazarian Jeff Camp and David Sholl', 'email': 'dalar@gatech.edu jcamp6@gatech.edu'}], '_method': 'VASP DFT with PBE;DDEC'}
data_Na2CoH8(C2O)8
_symmetry_space_group_name_H-M   'P 1'
_cell_length_a   10.89600000
_cell_length_b   13.90099994
_cell_length_c   14.25560000
_cell_angle_alpha   90.00000000
_cell_angle_beta   90.00000000
_cell_angle_gamma   109.48999983
_symmetry_Int_Tables_number   1
_chemical_formula_structural   Na2CoH8(C2O)8
_chemical_formula_sum   'Na8 Co4 H32 C64 O32'
_cell_volume   2035.50429594
_cell_formula_units_Z   4
loop_
 _symmetry_equiv_pos_site_id
 _symmetry_equiv_pos_as_xyz
  1  'x, y, z'
loop_
 _atom_site_label
 _atom_site_fract_x
 _atom_site_fract_y
 _atom_site_fract_z
 _atom_site_charge
 Na 0.49401 0.83424 0.33126   0.971958
 Na 0.00599 0.66576 0.83126   0.971958
 Na 0.50599 0.16576 0.66874   0.971958
 Na 0.99401 0.33424 0.16874   0.971958
 Na 0.5 0.0 0.5   0.978713
 Na 0.0 0.5 0.0   0.978713
 Na 0.0 0.0 0.5   0.957711
 Na 0.5 0.5 0.0   0.957711
 Co 0.23925 0.99832 0.60569   1.03777
 Co 0.26075 0.50168 0.10569   1.03777
 Co 0.76075 0.00168 0.39431   1.037769
 Co 0.73925 0.49832 0.89431   1.037769
 H 0.2297 0.7197 0.3368   0.039211
 H 0.8605 0.5462 0.2719   0.100135
 H 0.7824 0.6288 0.3878   0.108544
 H 0.9265 0.7609 0.4747   0.096676
 H 0.2418 0.2491 0.343   0.10525
 H 0.5919 0.4284 0.2431   0.10362
 H 0.6968 0.355 0.3493   0.106309
 H 0.576 0.2282 0.4527   0.084409
 H 0.2703 0.7803 0.8368   0.039211
 H 0.6395 0.9538 0.7719   0.100135
 H 0.7176 0.8712 0.8878   0.108544
 H 0.5735 0.7391 0.9747   0.096676
 H 0.2582 0.2509 0.843   0.10525
 H 0.9081 0.0716 0.7431   0.10362
 H 0.8032 0.145 0.8493   0.106309
 H 0.924 0.2718 0.9527   0.084409
 H 0.7703 0.2803 0.6632   0.039211
 H 0.1395 0.4538 0.7281   0.100135
 H 0.2176 0.3712 0.6122   0.108544
 H 0.0735 0.2391 0.5253   0.096676
 H 0.7582 0.7509 0.657   0.10525
 H 0.4081 0.5716 0.7569   0.10362
 H 0.3032 0.645 0.6507   0.106309
 H 0.424 0.7718 0.5473   0.084409
 H 0.7297 0.2197 0.1632   0.039211
 H 0.3605 0.0462 0.2281   0.100135
 H 0.2824 0.1288 0.1122   0.108544
 H 0.4265 0.2609 0.0253   0.096676
 H 0.7418 0.7491 0.157   0.10525
 H 0.0919 0.9284 0.2569   0.10362
 H 0.1968 0.855 0.1507   0.106309
 H 0.076 0.7282 0.0473   0.084409
 C 0.0923 0.753 0.4139   -0.185967
 C 0.1386 0.7017 0.3466   0.023735
 C 0.0532 0.6244 0.2935   -0.164964
 C 0.9197 0.5983 0.3085   -0.017561
 C 0.8734 0.6481 0.3767   -0.125334
 C 0.9589 0.726 0.4288   -0.004234
 C 0.1861 0.841 0.4671   0.746289
 C 0.1002 0.5717 0.2163   0.711601
 C 0.3969 0.2257 0.4067   -0.185424
 C 0.3342 0.2703 0.3441   0.014203
 C 0.4064 0.346 0.283   -0.169499
 C 0.5421 0.3771 0.2851   -0.008512
 C 0.6043 0.3333 0.348   -0.124219
 C 0.5328 0.2578 0.4093   -0.007128
 C 0.316 0.1436 0.471   0.762181
 C 0.3399 0.3961 0.2174   0.719453
 C 0.4077 0.747 0.9139   -0.185967
 C 0.3614 0.7983 0.8466   0.023735
 C 0.4468 0.8756 0.7935   -0.164964
 C 0.5803 0.9017 0.8085   -0.017561
 C 0.6266 0.8519 0.8767   -0.125334
 C 0.5411 0.774 0.9288   -0.004234
 C 0.3139 0.659 0.9671   0.746289
 C 0.3998 0.9283 0.7163   0.711601
 C 0.1031 0.2743 0.9067   -0.185424
 C 0.1658 0.2297 0.8441   0.014203
 C 0.0936 0.154 0.783   -0.169499
 C 0.9579 0.1229 0.7851   -0.008512
 C 0.8957 0.1667 0.848   -0.124219
 C 0.9672 0.2422 0.9093   -0.007128
 C 0.184 0.3564 0.971   0.762181
 C 0.1601 0.1039 0.7174   0.719453
 C 0.9077 0.247 0.5861   -0.185967
 C 0.8614 0.2983 0.6534   0.023735
 C 0.9468 0.3756 0.7065   -0.164964
 C 0.0803 0.4017 0.6915   -0.017562
 C 0.1266 0.3519 0.6233   -0.125335
 C 0.0411 0.274 0.5712   -0.004234
 C 0.8139 0.159 0.5329   0.746289
 C 0.8998 0.4283 0.7837   0.711601
 C 0.6031 0.7743 0.5933   -0.185424
 C 0.6658 0.7297 0.6559   0.014203
 C 0.5936 0.654 0.717   -0.1695
 C 0.4579 0.6229 0.7149   -0.008512
 C 0.3957 0.6667 0.652   -0.124219
 C 0.4672 0.7422 0.5907   -0.007128
 C 0.684 0.8564 0.529   0.762181
 C 0.6601 0.6039 0.7826   0.719453
 C 0.5923 0.253 0.0861   -0.185967
 C 0.6386 0.2017 0.1534   0.023735
 C 0.5532 0.1244 0.2065   -0.164964
 C 0.4197 0.0983 0.1915   -0.017562
 C 0.3734 0.1481 0.1233   -0.125335
 C 0.4589 0.226 0.0712   -0.004234
 C 0.6861 0.341 0.0329   0.746289
 C 0.6002 0.0717 0.2837   0.711601
 C 0.8969 0.7257 0.0933   -0.185424
 C 0.8342 0.7703 0.1559   0.014203
 C 0.9064 0.846 0.217   -0.1695
 C 0.0421 0.8771 0.2149   -0.008512
 C 0.1043 0.8333 0.152   -0.124219
 C 0.0328 0.7578 0.0907   -0.007128
 C 0.816 0.6436 0.029   0.762181
 C 0.8399 0.8961 0.2826   0.719453
 O 0.3055 0.86173 0.45715   -0.712407
 O 0.1327 0.889 0.52173   -0.701501
 O 0.2223 0.5931 0.20585   -0.619014
 O 0.0195 0.509 0.16564   -0.796774
 O 0.1966 0.1153 0.4675   -0.653074
 O 0.3774 0.10448 0.52999   -0.858468
 O 0.2184 0.3748 0.21915   -0.706572
 O 0.41 0.4635 0.16106   -0.658904
 O 0.1945 0.63827 0.95715   -0.712407
 O 0.3673 0.611 0.02173   -0.701501
 O 0.2777 0.9069 0.70585   -0.619014
 O 0.4805 0.991 0.66564   -0.796774
 O 0.3034 0.3847 0.9675   -0.653074
 O 0.1226 0.39552 0.02999   -0.858468
 O 0.2816 0.1252 0.71915   -0.706572
 O 0.09 0.0365 0.66106   -0.658904
 O 0.6945 0.13827 0.54285   -0.712407
 O 0.8673 0.111 0.47827   -0.701501
 O 0.7777 0.4069 0.79415   -0.619014
 O 0.9805 0.491 0.83436   -0.796774
 O 0.8034 0.8847 0.5325   -0.653074
 O 0.6226 0.89552 0.47001   -0.858468
 O 0.7816 0.6252 0.78085   -0.706572
 O 0.59 0.5365 0.83894   -0.658904
 O 0.8055 0.36173 0.04285   -0.712407
 O 0.6327 0.389 0.97827   -0.701501
 O 0.7223 0.0931 0.29415   -0.619014
 O 0.5195 0.009 0.33436   -0.796773
 O 0.6966 0.6153 0.0325   -0.653074
 O 0.8774 0.60448 0.97001   -0.858468
 O 0.7184 0.8748 0.28085   -0.706572
 O 0.91 0.9635 0.33894   -0.658904
