{'_ref': 'TBD', '_srcid': 'CAKYAQ_clean', 'submitters': [{'name': 'Dalar Nazarian Jeff Camp and David Sholl', 'email': 'dalar@gatech.edu jcamp6@gatech.edu'}], '_method': 'VASP DFT with PBE;DDEC'}
data_Mn3W6C6(S4N3)2
_symmetry_space_group_name_H-M   'P 1'
_cell_length_a   13.25010034
_cell_length_b   13.25010025
_cell_length_c   18.49890000
_cell_angle_alpha   92.55590005
_cell_angle_beta   92.55590003
_cell_angle_gamma   112.73199815
_symmetry_Int_Tables_number   1
_chemical_formula_structural   Mn3W6C6(S4N3)2
_chemical_formula_sum   'Mn6 W12 C12 S16 N12'
_cell_volume   2985.7597474
_cell_formula_units_Z   2
loop_
 _symmetry_equiv_pos_site_id
 _symmetry_equiv_pos_as_xyz
  1  'x, y, z'
loop_
 _atom_site_label
 _atom_site_fract_x
 _atom_site_fract_y
 _atom_site_fract_z
 _atom_site_charge
 Mn 0.78757 0.70699 0.30304   1.02547
 Mn 0.29301 0.21243 0.19696   1.025465
 Mn 0.21243 0.29301 0.69696   1.02547
 Mn 0.70699 0.78757 0.80304   1.025465
 Mn 0.5 0.0 0.0   0.988658
 Mn 0.0 0.5 0.5   0.988658
 W 0.96509 0.55047 0.08918   0.134656
 W 0.07931 0.43035 0.05098   0.132626
 W 0.12851 0.62889 0.0012   0.127553
 W 0.44953 0.03491 0.41082   0.134655
 W 0.56965 0.92069 0.44902   0.132625
 W 0.37111 0.87149 0.4988   0.127553
 W 0.03491 0.44953 0.91082   0.134658
 W 0.92069 0.56965 0.94902   0.132628
 W 0.87149 0.37111 0.9988   0.127556
 W 0.55047 0.96509 0.58918   0.134658
 W 0.43035 0.07931 0.55098   0.132628
 W 0.62889 0.12851 0.5012   0.127556
 C 0.9179 0.6113 0.1879   0.211886
 C 0.17 0.3474 0.1041   0.216096
 C 0.2765 0.7763 0.0031   0.214845
 C 0.3887 0.0821 0.3121   0.211886
 C 0.6526 0.83 0.3959   0.216096
 C 0.2237 0.7235 0.4969   0.214845
 C 0.0821 0.3887 0.8121   0.211886
 C 0.83 0.6526 0.8959   0.216096
 C 0.7235 0.2237 0.9969   0.214845
 C 0.6113 0.9179 0.6879   0.211885
 C 0.3474 0.17 0.6041   0.216096
 C 0.7763 0.2765 0.5031   0.214845
 S 0.1587 0.6003 0.12997   -0.182839
 S 0.22278 0.50842 0.96591   -0.216295
 S 0.92268 0.36432 0.12767   -0.203561
 S 0.01355 0.72905 0.03523   -0.214379
 S 0.3997 0.8413 0.37003   -0.182835
 S 0.49158 0.77722 0.53409   -0.216295
 S 0.63568 0.07732 0.37233   -0.203561
 S 0.27095 0.98645 0.46477   -0.214379
 S 0.8413 0.3997 0.87003   -0.182839
 S 0.77722 0.49158 0.03409   -0.216296
 S 0.07732 0.63568 0.87233   -0.203561
 S 0.98645 0.27095 0.96477   -0.21438
 S 0.6003 0.1587 0.62997   -0.182835
 S 0.50842 0.22278 0.46591   -0.216295
 S 0.36432 0.92268 0.62767   -0.203561
 S 0.72905 0.01355 0.53523   -0.21438
 N 0.8821 0.6423 0.2357   -0.581152
 N 0.2194 0.3022 0.1338   -0.592647
 N 0.3545 0.8543 0.0059   -0.566589
 N 0.3577 0.1179 0.2643   -0.581152
 N 0.6978 0.7806 0.3662   -0.592647
 N 0.1457 0.6455 0.4941   -0.566589
 N 0.1179 0.3577 0.7643   -0.581152
 N 0.7806 0.6978 0.8662   -0.592647
 N 0.6455 0.1457 0.9941   -0.566588
 N 0.6423 0.8821 0.7357   -0.581152
 N 0.3022 0.2194 0.6338   -0.592647
 N 0.8543 0.3545 0.5059   -0.566589
