{'_ref': 'TBD', '_srcid': 'CAKYAQ_clean', 'submitters': [{'name': 'Dalar Nazarian Jeff Camp and David Sholl', 'email': 'dalar@gatech.edu jcamp6@gatech.edu'}], '_method': 'VASP DFT with PBE;DDEC'}
data_ZnW3C3S4N3
_symmetry_space_group_name_H-M   'P 1'
_cell_length_a   11.03550000
_cell_length_b   15.69300000
_cell_length_c   16.91400000
_cell_angle_alpha   90.00000000
_cell_angle_beta   90.00000000
_cell_angle_gamma   90.00000000
_symmetry_Int_Tables_number   1
_chemical_formula_structural   ZnW3C3S4N3
_chemical_formula_sum   'Zn4 W12 C12 S16 N12'
_cell_volume   2929.16823677
_cell_formula_units_Z   4
loop_
 _symmetry_equiv_pos_site_id
 _symmetry_equiv_pos_as_xyz
  1  'x, y, z'
loop_
 _atom_site_label
 _atom_site_fract_x
 _atom_site_fract_y
 _atom_site_fract_z
 _atom_site_charge
 Zn 0.5 0.8354 0.2823   1.070513
 Zn 0.5 0.1646 0.7177   1.070513
 Zn 0.0 0.6646 0.7823   1.070513
 Zn 0.0 0.3354 0.2177   1.070513
 W 0.62122 0.44993 0.06359   0.113465
 W 0.62122 0.55007 0.93641   0.113465
 W 0.87878 0.05007 0.56359   0.113465
 W 0.87878 0.94993 0.43641   0.113465
 W 0.37878 0.55007 0.93641   0.113465
 W 0.37878 0.44993 0.06359   0.113465
 W 0.12122 0.94993 0.43641   0.113465
 W 0.12122 0.05007 0.56359   0.113465
 W 0.5 0.59732 0.06608   0.100839
 W 0.5 0.40268 0.93392   0.100839
 W 0.0 0.90268 0.56608   0.100839
 W 0.0 0.09732 0.43392   0.100839
 C 0.769 0.3973 0.1316   0.190378
 C 0.769 0.6027 0.8684   0.190378
 C 0.731 0.1027 0.6316   0.190378
 C 0.731 0.8973 0.3684   0.190378
 C 0.231 0.6027 0.8684   0.190378
 C 0.231 0.3973 0.1316   0.190378
 C 0.269 0.8973 0.3684   0.190378
 C 0.269 0.1027 0.6316   0.190378
 C 0.5 0.7 0.14   0.182713
 C 0.5 0.3 0.86   0.182713
 C 0.0 0.8 0.64   0.182713
 C 0.0 0.2 0.36   0.182713
 S 0.7217 0.5905 0.0612   -0.120044
 S 0.7217 0.4095 0.9388   -0.120044
 S 0.7783 0.9095 0.5612   -0.120044
 S 0.7783 0.0905 0.4388   -0.120044
 S 0.2783 0.4095 0.9388   -0.120044
 S 0.2783 0.5905 0.0612   -0.120044
 S 0.2217 0.0905 0.4388   -0.120044
 S 0.2217 0.9095 0.5612   -0.120044
 S 0.5 0.681 0.9429   -0.112424
 S 0.5 0.4973 0.1769   -0.107265
 S 0.5 0.319 0.0571   -0.112424
 S 0.5 0.5027 0.8231   -0.107265
 S 0.0 0.819 0.4429   -0.112424
 S 0.0 0.0027 0.6769   -0.107265
 S 0.0 0.181 0.5571   -0.112424
 S 0.0 0.9973 0.3231   -0.107265
 N 0.8462 0.3721 0.1717   -0.479821
 N 0.8462 0.6279 0.8283   -0.479821
 N 0.6538 0.1279 0.6717   -0.479821
 N 0.6538 0.8721 0.3283   -0.479821
 N 0.1538 0.6279 0.8283   -0.479821
 N 0.1538 0.3721 0.1717   -0.479821
 N 0.3462 0.8721 0.3283   -0.479821
 N 0.3462 0.1279 0.6717   -0.479821
 N 0.5 0.758 0.192   -0.542331
 N 0.5 0.242 0.808   -0.542331
 N 0.0 0.742 0.692   -0.542331
 N 0.0 0.258 0.308   -0.542331
