{'_ref': 'TBD', '_srcid': 'CAKYAQ_clean', 'submitters': [{'name': 'Dalar Nazarian Jeff Camp and David Sholl', 'email': 'dalar@gatech.edu jcamp6@gatech.edu'}], '_method': 'VASP DFT with PBE;DDEC'}
data_Co3W6C6(S4N3)2
_symmetry_space_group_name_H-M   'P 1'
_cell_length_a   13.11200030
_cell_length_b   13.11200029
_cell_length_c   18.03000000
_cell_angle_alpha   92.68580110
_cell_angle_beta   92.68580110
_cell_angle_gamma   113.13599878
_symmetry_Int_Tables_number   1
_chemical_formula_structural   Co3W6C6(S4N3)2
_chemical_formula_sum   'Co6 W12 C12 S16 N12'
_cell_volume   2840.16905817
_cell_formula_units_Z   2
loop_
 _symmetry_equiv_pos_site_id
 _symmetry_equiv_pos_as_xyz
  1  'x, y, z'
loop_
 _atom_site_label
 _atom_site_fract_x
 _atom_site_fract_y
 _atom_site_fract_z
 _atom_site_charge
 Co 0.79551 0.71529 0.6944   0.754172
 Co 0.28471 0.20449 0.8056   0.754151
 Co 0.20449 0.28471 0.3056   0.754169
 Co 0.71529 0.79551 0.1944   0.754149
 Co 0.5 0.0 0.0   0.795565
 Co 0.0 0.5 0.5   0.795565
 W 0.95188 0.53864 0.90875   0.138719
 W 0.06707 0.41733 0.94755   0.127054
 W 0.1334 0.62738 0.00202   0.117788
 W 0.46136 0.04812 0.59125   0.138719
 W 0.58267 0.93293 0.55245   0.127054
 W 0.37262 0.8666 0.49798   0.117788
 W 0.04812 0.46136 0.09125   0.138752
 W 0.93293 0.58267 0.05245   0.127085
 W 0.8666 0.37262 0.99798   0.117822
 W 0.53864 0.95188 0.40875   0.138752
 W 0.41733 0.06707 0.44755   0.127085
 W 0.62738 0.1334 0.50202   0.117822
 C 0.8951 0.5933 0.8092   0.17097
 C 0.143 0.3218 0.8924   0.175544
 C 0.2824 0.7722 0.0069   0.185543
 C 0.4067 0.1049 0.6908   0.17097
 C 0.6782 0.857 0.6076   0.175545
 C 0.2278 0.7176 0.4931   0.185543
 C 0.1049 0.4067 0.1908   0.170968
 C 0.857 0.6782 0.1076   0.175542
 C 0.7176 0.2278 0.9931   0.185541
 C 0.5933 0.8951 0.3092   0.170967
 C 0.3218 0.143 0.3924   0.175543
 C 0.7722 0.2824 0.5069   0.185541
 S 0.1396 0.5766 0.8696   -0.14321
 S 0.0184 0.729 0.9665   -0.15458
 S 0.8956 0.3424 0.8655   -0.130832
 S 0.2282 0.5072 0.0364   -0.145938
 S 0.4234 0.8604 0.6304   -0.143214
 S 0.271 0.9816 0.5335   -0.15458
 S 0.6576 0.1044 0.6345   -0.130827
 S 0.4928 0.7718 0.4636   -0.145938
 S 0.8604 0.4234 0.1304   -0.143213
 S 0.9816 0.271 0.0335   -0.154583
 S 0.1044 0.6576 0.1345   -0.13083
 S 0.7718 0.4928 0.9636   -0.14594
 S 0.5766 0.1396 0.3696   -0.143217
 S 0.729 0.0184 0.4665   -0.154583
 S 0.3424 0.8956 0.3655   -0.130826
 S 0.5072 0.2282 0.5364   -0.14594
 N 0.8591 0.6241 0.7601   -0.488009
 N 0.1882 0.2712 0.8635   -0.495954
 N 0.3641 0.8483 0.0031   -0.509083
 N 0.3759 0.1409 0.7399   -0.488007
 N 0.7288 0.8118 0.6365   -0.495956
 N 0.1517 0.6359 0.4969   -0.509083
 N 0.1409 0.3759 0.2399   -0.488008
 N 0.8118 0.7288 0.1365   -0.495953
 N 0.6359 0.1517 0.9969   -0.509082
 N 0.6241 0.8591 0.2601   -0.488006
 N 0.2712 0.1882 0.3635   -0.495955
 N 0.8483 0.3641 0.5031   -0.509082
