{'_ref': 'TBD', '_srcid': 'CAKYAQ_clean', 'submitters': [{'name': 'Dalar Nazarian Jeff Camp and David Sholl', 'email': 'dalar@gatech.edu jcamp6@gatech.edu'}], '_method': 'VASP DFT with PBE;DDEC'}
data_Zn2SiH36C51(NO4)2
_symmetry_space_group_name_H-M   'P 1'
_cell_length_a   11.81370000
_cell_length_b   15.53030000
_cell_length_c   16.39120000
_cell_angle_alpha   90.00000000
_cell_angle_beta   90.00000000
_cell_angle_gamma   90.00000000
_symmetry_Int_Tables_number   1
_chemical_formula_structural   Zn2SiH36C51(NO4)2
_chemical_formula_sum   'Zn2 Si1 H36 C51 N2 O8'
_cell_volume   3007.29846512
_cell_formula_units_Z   1
loop_
 _symmetry_equiv_pos_site_id
 _symmetry_equiv_pos_as_xyz
  1  'x, y, z'
loop_
 _atom_site_label
 _atom_site_fract_x
 _atom_site_fract_y
 _atom_site_fract_z
 _atom_site_charge
 Zn 0.6938 0.678 0.8237   0.918001
 Zn 0.6921 0.6776 0.0018   0.931739
 Si 0.9347 0.4279 0.4372   1.131951
 H 0.0162 0.0237 0.0309   0.097884
 H 0.0206 0.34 0.7929   0.084604
 H 0.967 0.8694 0.7924   0.106756
 H 0.9014 0.4556 0.7903   0.107913
 H 0.9571 0.4804 0.0303   0.100117
 H 0.9018 0.9053 0.0288   0.094389
 H 0.522 0.9222 0.0228   0.103254
 H 0.5238 0.4362 0.8037   0.100109
 H 0.4054 0.0437 0.0262   0.109148
 H 0.4072 0.3147 0.7977   0.117294
 H 0.3792 0.8461 0.8115   0.108156
 H 0.3763 0.5074 0.0145   0.099106
 H 0.3857 0.1784 0.9133   0.094296
 H 0.2604 0.3867 0.0106   0.107346
 H 0.2635 0.9681 0.8159   0.09634
 H 0.0015 0.1774 0.8977   0.122564
 H 0.0789 0.9886 0.7985   0.082237
 H 0.075 0.3632 0.0283   0.096206
 H 0.7852 0.5827 0.6865   0.099377
 H 0.8061 0.7912 0.2708   0.135551
 H 0.797 0.774 0.1324   0.084925
 H 0.5968 0.626 0.4311   0.118115
 H 0.7402 0.7576 0.4068   0.103133
 H 0.5725 0.5937 0.156   0.090624
 H 0.5854 0.7856 0.5487   0.137585
 H 0.5781 0.6081 0.2949   0.132233
 H 0.5886 0.784 0.6862   0.096644
 H 0.962 0.3946 0.2989   0.192636
 H 0.8401 0.4322 0.3114   0.184702
 H 0.9448 0.4941 0.3087   0.185783
 H 0.9234 0.2754 0.4409   0.183148
 H 0.8949 0.3125 0.5275   0.188023
 H 0.8034 0.3145 0.4583   0.183024
 H 0.1303 0.3955 0.4354   0.184447
 H 0.1138 0.4942 0.4512   0.181954
 H 0.0961 0.4282 0.5225   0.189478
 C 0.0076 0.9938 0.9821   -0.14181
 C 0.0081 0.3682 0.8421   -0.136555
 C 0.9756 0.8994 0.8411   -0.04227
 C 0.9356 0.4383 0.8386   -0.047374
 C 0.9696 0.4519 0.9813   -0.041857
 C 0.9217 0.8737 0.9117   -0.122741
 C 0.9172 0.4809 0.9118   -0.127325
 C 0.9383 0.9217 0.981   -0.048251
 C 0.8415 0.5579 0.9132   0.67666
 C 0.8422 0.7985 0.9126   0.671167
 C 0.5388 0.7969 0.9136   0.681801
 C 0.5408 0.5599 0.919   0.670825
 C 0.4695 0.9315 0.9815   -0.058358
 C 0.4711 0.4263 0.8447   -0.039074
 C 0.462 0.4849 0.9101   -0.121444
 C 0.4599 0.8725 0.917   -0.109184
 C 0.3999 0.0046 0.9834   -0.1472
 C 0.4015 0.3532 0.8409   -0.163585
 C 0.3846 0.885 0.8544   -0.055417
 C 0.3827 0.4689 0.9713   -0.044599
 C 0.3226 0.3393 0.9044   0.063382
 C 0.3223 0.0182 0.9206   0.053623
 C 0.3071 0.1783 0.9101   -0.137644
 C 0.3128 0.3965 0.9693   -0.154508
 C 0.3155 0.9588 0.8575   -0.140701
 C 0.2562 0.2577 0.9127   0.008739
 C 0.2577 0.0994 0.9035   0.012655
 C 0.1397 0.1003 0.8987   0.019921
 C 0.1386 0.255 0.9078   0.022537
 C 0.0801 0.1776 0.9009   -0.175639
 C 0.0647 0.0235 0.9133   0.068885
 C 0.0647 0.3343 0.9092   0.06563
 C 0.0432 0.9722 0.8466   -0.141512
 C 0.0413 0.3806 0.9798   -0.145873
 C 0.7426 0.62394 0.57499   -0.0643
 C 0.7438 0.6247 0.6592   0.158887
 C 0.7575 0.7502 0.2487   -0.220487
 C 0.7514 0.7393 0.1649   0.170831
 C 0.6829 0.6831 0.5309   0.13465
 C 0.6931 0.7013 0.2982   0.155749
 C 0.6505 0.6676 0.4441   -0.082278
 C 0.697 0.7116 0.3885   -0.134131
 C 0.6209 0.6345 0.1784   0.178549
 C 0.6266 0.743 0.5755   -0.221128
 C 0.624 0.6429 0.2626   -0.22239
 C 0.6291 0.7421 0.6581   0.172572
 C 0.8551 0.5087 0.49398   -0.510539
 C 0.8041 0.56095 0.53071   0.101623
 C 0.9185 0.4385 0.3257   -0.807553
 C 0.8828 0.3193 0.47   -0.803721
 C 0.0872 0.4376 0.4649   -0.804458
 N 0.6839 0.6821 0.1275   -0.287223
 N 0.6885 0.6823 0.7019   -0.271997
 O 0.8038 0.5806 0.9809   -0.586584
 O 0.7988 0.7763 0.9799   -0.601831
 O 0.7998 0.7811 0.8436   -0.591091
 O 0.794 0.5767 0.8456   -0.609589
 O 0.5674 0.7644 0.8464   -0.610553
 O 0.5615 0.5966 0.8512   -0.603081
 O 0.5581 0.5997 0.9848   -0.588863
 O 0.5568 0.7563 0.9787   -0.604761
