{'_ref': 'TBD', '_srcid': 'CAKYAQ_clean', 'submitters': [{'name': 'Dalar Nazarian Jeff Camp and David Sholl', 'email': 'dalar@gatech.edu jcamp6@gatech.edu'}], '_method': 'VASP DFT with PBE;DDEC'}
data_MnH4(C2O)4
_symmetry_space_group_name_H-M   'P 1'
_cell_length_a   10.18980000
_cell_length_b   13.57920043
_cell_length_c   17.62230000
_cell_angle_alpha   90.73799806
_cell_angle_beta   90.00000000
_cell_angle_gamma   90.00000000
_symmetry_Int_Tables_number   1
_chemical_formula_structural   MnH4(C2O)4
_chemical_formula_sum   'Mn8 H32 C64 O32'
_cell_volume   2438.18368888
_cell_formula_units_Z   8
loop_
 _symmetry_equiv_pos_site_id
 _symmetry_equiv_pos_as_xyz
  1  'x, y, z'
loop_
 _atom_site_label
 _atom_site_fract_x
 _atom_site_fract_y
 _atom_site_fract_z
 _atom_site_charge
 Mn 0.5797 0.38996 0.46572   1.12524
 Mn 0.42994 0.1524 0.48031   1.215115
 Mn 0.0797 0.61004 0.03428   1.12524
 Mn 0.92994 0.8476 0.01969   1.215115
 Mn 0.4203 0.61004 0.53428   1.125237
 Mn 0.57006 0.8476 0.51969   1.215116
 Mn 0.9203 0.38996 0.96572   1.125237
 Mn 0.07006 0.1524 0.98031   1.215116
 H 0.615 0.2313 0.6505   0.098672
 H 0.372 0.2156 0.6662   0.087449
 H 0.709 0.304 0.7567   0.100626
 H 0.81 0.044 0.8334   0.096595
 H 0.186 0.483 0.7874   0.107398
 H 0.271 0.199 0.7797   0.103707
 H 0.299 0.5044 0.6725   0.098818
 H 0.721 0.97 0.7316   0.097309
 H 0.115 0.7687 0.8495   0.098672
 H 0.872 0.7844 0.8338   0.087451
 H 0.209 0.696 0.7433   0.100628
 H 0.31 0.956 0.6666   0.096596
 H 0.686 0.517 0.7126   0.1074
 H 0.771 0.801 0.7203   0.10371
 H 0.799 0.4956 0.8275   0.098818
 H 0.221 0.03 0.7684   0.097312
 H 0.385 0.7687 0.3495   0.098672
 H 0.628 0.7844 0.3338   0.087449
 H 0.291 0.696 0.2433   0.100626
 H 0.19 0.956 0.1666   0.096595
 H 0.814 0.517 0.2126   0.107398
 H 0.729 0.801 0.2203   0.103707
 H 0.701 0.4956 0.3275   0.098818
 H 0.279 0.03 0.2684   0.097309
 H 0.885 0.2313 0.1505   0.098672
 H 0.128 0.2156 0.1662   0.087451
 H 0.791 0.304 0.2567   0.100628
 H 0.69 0.044 0.3334   0.096596
 H 0.314 0.483 0.2874   0.1074
 H 0.229 0.199 0.2797   0.10371
 H 0.201 0.5044 0.1725   0.098818
 H 0.779 0.97 0.2316   0.097312
 C 0.3463 0.3594 0.65631   -0.168219
 C 0.3377 0.26751 0.68813   -0.029689
 C 0.2755 0.25695 0.75733   -0.051101
 C 0.2193 0.33691 0.7936   -0.106233
 C 0.2283 0.42901 0.7613   -0.076277
 C 0.2933 0.441 0.69387   -0.028298
 C 0.41356 0.37258 0.5824   0.731109
 C 0.1466 0.32411 0.86682   0.719487
 C 0.6617 0.09177 0.67893   -0.129083
 C 0.6567 0.1924 0.68793   -0.069631
 C 0.7093 0.23677 0.75215   -0.04645
 C 0.7676 0.18157 0.80769   -0.142041
 C 0.775 0.08066 0.79807   -0.040784
 C 0.7216 0.03652 0.73429   -0.055339
 C 0.6018 0.04301 0.60974   0.759004
 C 0.8237 0.2313 0.87682   0.722916
 C 0.8463 0.6406 0.84369   -0.168219
 C 0.8377 0.73249 0.81187   -0.029689
 C 0.7755 0.74305 0.74267   -0.051102
 C 0.7193 0.66309 0.7064   -0.106232
 C 0.7283 0.57099 0.7387   -0.076279
 C 0.7933 0.559 0.80613   -0.028298
 C 0.91356 0.62742 0.9176   0.731109
 C 0.6466 0.67589 0.63318   0.719487
 C 0.1617 0.90823 0.82107   -0.129082
 C 0.1567 0.8076 0.81207   -0.069631
 C 0.2093 0.76323 0.74785   -0.046451
 C 0.2676 0.81843 0.69231   -0.142041
 C 0.275 0.91934 0.70193   -0.040783
 C 0.2216 0.96348 0.76571   -0.05534
 C 0.1018 0.95699 0.89026   0.759004
 C 0.3237 0.7687 0.62318   0.722916
 C 0.6537 0.6406 0.34369   -0.168219
 C 0.6623 0.73249 0.31187   -0.029689
 C 0.7245 0.74305 0.24267   -0.051101
 C 0.7807 0.66309 0.2064   -0.106233
 C 0.7717 0.57099 0.2387   -0.076277
 C 0.7067 0.559 0.30613   -0.028298
 C 0.58644 0.62742 0.4176   0.731109
 C 0.8534 0.67589 0.13318   0.719487
 C 0.3383 0.90823 0.32107   -0.129083
 C 0.3433 0.8076 0.31207   -0.069631
 C 0.2907 0.76323 0.24785   -0.04645
 C 0.2324 0.81843 0.19231   -0.142041
 C 0.225 0.91934 0.20193   -0.040784
 C 0.2784 0.96348 0.26571   -0.055339
 C 0.3982 0.95699 0.39026   0.759004
 C 0.1763 0.7687 0.12318   0.722916
 C 0.1537 0.3594 0.15631   -0.168219
 C 0.1623 0.26751 0.18813   -0.029689
 C 0.2245 0.25695 0.25733   -0.051102
 C 0.2807 0.33691 0.2936   -0.106232
 C 0.2717 0.42901 0.2613   -0.076279
 C 0.2067 0.441 0.19387   -0.028298
 C 0.08644 0.37258 0.0824   0.731109
 C 0.3534 0.32411 0.36682   0.719487
 C 0.8383 0.09177 0.17893   -0.129082
 C 0.8433 0.1924 0.18793   -0.069631
 C 0.7907 0.23677 0.25215   -0.046451
 C 0.7324 0.18157 0.30769   -0.142041
 C 0.725 0.08066 0.29807   -0.040783
 C 0.7784 0.03652 0.23429   -0.05534
 C 0.8982 0.04301 0.10974   0.759005
 C 0.6763 0.2313 0.37682   0.722916
 O 0.47534 0.30189 0.55181   -0.6637
 O 0.40978 0.4545 0.55148   -0.636025
 O 0.06651 0.39005 0.88335   -0.621486
 O 0.17256 0.25111 0.90503   -0.630011
 O 0.521 0.09021 0.57356   -0.667112
 O 0.6375 0.95792 0.59482   -0.635677
 O 0.89175 0.18249 0.92112   -0.649697
 O 0.7961 0.32034 0.88695   -0.616595
 O 0.97534 0.69811 0.94819   -0.6637
 O 0.90978 0.5455 0.94852   -0.636025
 O 0.56651 0.60995 0.61665   -0.621486
 O 0.67256 0.74889 0.59497   -0.630011
 O 0.021 0.90979 0.92644   -0.667112
 O 0.1375 0.04208 0.90518   -0.635677
 O 0.39175 0.81751 0.57888   -0.649697
 O 0.2961 0.67966 0.61305   -0.616595
 O 0.52466 0.69811 0.44819   -0.6637
 O 0.59022 0.5455 0.44852   -0.636025
 O 0.93349 0.60995 0.11665   -0.621486
 O 0.82744 0.74889 0.09497   -0.630011
 O 0.479 0.90979 0.42644   -0.667112
 O 0.3625 0.04208 0.40518   -0.635677
 O 0.10825 0.81751 0.07888   -0.649697
 O 0.2039 0.67966 0.11305   -0.616595
 O 0.02466 0.30189 0.05181   -0.6637
 O 0.09022 0.4545 0.05148   -0.636025
 O 0.43349 0.39005 0.38335   -0.621486
 O 0.32744 0.25111 0.40503   -0.630011
 O 0.979 0.09021 0.07356   -0.667112
 O 0.8625 0.95792 0.09482   -0.635677
 O 0.60825 0.18249 0.42112   -0.649697
 O 0.7039 0.32034 0.38695   -0.616595
