{'_ref': 'TBD', '_srcid': 'CAKYAQ_clean', 'submitters': [{'name': 'Dalar Nazarian Jeff Camp and David Sholl', 'email': 'dalar@gatech.edu jcamp6@gatech.edu'}], '_method': 'VASP DFT with PBE;DDEC'}
data_MnH8C13NO5
_symmetry_space_group_name_H-M   'P 1'
_cell_length_a   12.69920031
_cell_length_b   12.69920021
_cell_length_c   13.37810000
_cell_angle_alpha   63.53249942
_cell_angle_beta   63.53249966
_cell_angle_gamma   88.39749892
_symmetry_Int_Tables_number   1
_chemical_formula_structural   MnH8C13NO5
_chemical_formula_sum   'Mn4 H32 C52 N4 O20'
_cell_volume   1689.25276919
_cell_formula_units_Z   4
loop_
 _symmetry_equiv_pos_site_id
 _symmetry_equiv_pos_as_xyz
  1  'x, y, z'
loop_
 _atom_site_label
 _atom_site_fract_x
 _atom_site_fract_y
 _atom_site_fract_z
 _atom_site_charge
 Mn 0.5 0.0 0.0   1.187892
 Mn 0.0 0.5 0.5   1.187892
 Mn 0.30516 0.69484 0.25   1.114137
 Mn 0.69484 0.30516 0.75   1.11414
 H 0.7485 0.8365 0.7703   0.082894
 H 0.8561 0.7283 0.6746   0.060836
 H 0.6513 0.4213 0.9931   0.100801
 H 0.5464 0.5296 0.0907   0.109054
 H 0.2377 0.8047 0.0063   0.146631
 H 0.0875 0.8593 0.9547   0.128745
 H 0.0465 0.0901 0.0912   0.126857
 H 0.2011 0.0353 0.1345   0.129686
 H 0.1635 0.2515 0.7297   0.082895
 H 0.2717 0.1439 0.8254   0.060835
 H 0.5787 0.3487 0.5069   0.100829
 H 0.4704 0.4536 0.4093   0.109067
 H 0.1953 0.7623 0.4937   0.146631
 H 0.1407 0.9125 0.5453   0.128745
 H 0.9099 0.9535 0.4088   0.126859
 H 0.9647 0.7989 0.3655   0.129682
 H 0.2515 0.1635 0.2297   0.082963
 H 0.1439 0.2717 0.3254   0.060833
 H 0.3487 0.5787 0.0069   0.100841
 H 0.4536 0.4704 0.9093   0.109051
 H 0.7623 0.1953 0.9937   0.146672
 H 0.9125 0.1407 0.0453   0.128758
 H 0.9535 0.9099 0.9088   0.126871
 H 0.7989 0.9647 0.8655   0.129754
 H 0.8365 0.7485 0.2703   0.082963
 H 0.7283 0.8561 0.1746   0.060831
 H 0.4213 0.6513 0.4931   0.10087
 H 0.5296 0.5464 0.5907   0.109064
 H 0.8047 0.2377 0.5063   0.146672
 H 0.8593 0.0875 0.4547   0.128759
 H 0.0901 0.0465 0.5912   0.126873
 H 0.0353 0.2011 0.6345   0.129749
 C 0.55947 0.76433 0.0011   0.686438
 C 0.63465 0.69495 0.9395   -0.122739
 C 0.7284 0.7528 0.8155   -0.070714
 C 0.7928 0.688 0.7578   -0.054788
 C 0.76351 0.56309 0.8231   -0.124737
 C 0.671 0.505 0.9479   -0.054405
 C 0.60753 0.56987 0.0063   -0.056046
 C 0.82628 0.49312 0.7561   0.699732
 C 0.1984 0.8624 0.0233   -0.003638
 C 0.1085 0.8953 0.9924   -0.146243
 C 0.04841 0.98159 0.0167   0.036382
 C 0.0846 0.0326 0.0725   -0.143699
 C 0.1759 0.9985 0.1   -0.030482
 C 0.23567 0.44053 0.4989   0.686437
 C 0.30505 0.36535 0.5605   -0.122738
 C 0.2472 0.2716 0.6845   -0.070715
 C 0.312 0.2072 0.7422   -0.054768
 C 0.43691 0.23649 0.6769   -0.124737
 C 0.495 0.329 0.5521   -0.054416
 C 0.43013 0.39247 0.4937   -0.056047
 C 0.50688 0.17372 0.7439   0.699733
 C 0.1376 0.8016 0.4767   -0.003634
 C 0.1047 0.8915 0.5076   -0.146233
 C 0.01841 0.95159 0.4833   0.036383
 C 0.9674 0.9154 0.4275   -0.143689
 C 0.0015 0.8241 0.4   -0.030436
 C 0.44053 0.23567 0.9989   0.686479
 C 0.36535 0.30505 0.0605   -0.122742
 C 0.2716 0.2472 0.1845   -0.070739
 C 0.2072 0.312 0.2422   -0.054759
 C 0.23649 0.43691 0.1769   -0.124743
 C 0.329 0.495 0.0521   -0.054403
 C 0.39247 0.43013 0.9937   -0.056013
 C 0.17372 0.50688 0.2439   0.699753
 C 0.8016 0.1376 0.9767   -0.003642
 C 0.8915 0.1047 0.0076   -0.146246
 C 0.95159 0.01841 0.9833   0.036486
 C 0.9154 0.9674 0.9275   -0.143704
 C 0.8241 0.0015 0.9   -0.03049
 C 0.76433 0.55947 0.5011   0.686479
 C 0.69495 0.63465 0.4395   -0.12274
 C 0.7528 0.7284 0.3155   -0.07074
 C 0.688 0.7928 0.2578   -0.05474
 C 0.56309 0.76351 0.3231   -0.124743
 C 0.505 0.671 0.4479   -0.054413
 C 0.56987 0.60753 0.5063   -0.056014
 C 0.49312 0.82628 0.2561   0.699753
 C 0.8624 0.1984 0.5233   -0.003638
 C 0.8953 0.1085 0.4924   -0.146236
 C 0.98159 0.04841 0.5167   0.036486
 C 0.0326 0.0846 0.5725   -0.143695
 C 0.9985 0.1759 0.6   -0.030444
 N 0.22936 0.91312 0.0778   0.345738
 N 0.08688 0.77064 0.4222   0.345737
 N 0.77064 0.08688 0.9222   0.345745
 N 0.91312 0.22936 0.5778   0.345743
 O 0.47979 0.70301 0.1156   -0.596659
 O 0.5823 0.87634 0.9346   -0.612204
 O 0.78235 0.38185 0.8138   -0.624488
 O 0.91663 0.54941 0.6479   -0.604459
 O 0.31551 0.87947 0.1096   -0.559767
 O 0.29699 0.52021 0.3844   -0.596659
 O 0.12366 0.4177 0.5654   -0.612205
 O 0.61815 0.21765 0.6862   -0.624489
 O 0.45059 0.08337 0.8521   -0.604459
 O 0.12053 0.68449 0.3904   -0.559767
 O 0.52021 0.29699 0.8844   -0.596663
 O 0.4177 0.12366 0.0654   -0.612207
 O 0.21765 0.61815 0.1862   -0.624492
 O 0.08337 0.45059 0.3521   -0.604461
 O 0.68449 0.12053 0.8904   -0.559771
 O 0.70301 0.47979 0.6156   -0.596664
 O 0.87634 0.5823 0.4346   -0.612208
 O 0.38185 0.78235 0.3138   -0.624492
 O 0.54941 0.91663 0.1479   -0.604461
 O 0.87947 0.31551 0.6096   -0.559772
