{'_ref': 'TBD', '_srcid': 'CAKYAQ_clean', 'submitters': [{'name': 'Dalar Nazarian Jeff Camp and David Sholl', 'email': 'dalar@gatech.edu jcamp6@gatech.edu'}], '_method': 'VASP DFT with PBE;DDEC'}
data_MnH8C13NO5
_symmetry_space_group_name_H-M   'P 1'
_cell_length_a   12.74049973
_cell_length_b   12.74049997
_cell_length_c   13.75950000
_cell_angle_alpha   113.61120041
_cell_angle_beta   114.63210246
_cell_angle_gamma   96.73709852
_symmetry_Int_Tables_number   1
_chemical_formula_structural   MnH8C13NO5
_chemical_formula_sum   'Mn4 H32 C52 N4 O20'
_cell_volume   1748.56594589
_cell_formula_units_Z   4
loop_
 _symmetry_equiv_pos_site_id
 _symmetry_equiv_pos_as_xyz
  1  'x, y, z'
loop_
 _atom_site_label
 _atom_site_fract_x
 _atom_site_fract_y
 _atom_site_fract_z
 _atom_site_charge
 Mn 0.31145 0.06145 0.25   1.210637
 Mn 0.68855 0.93855 0.75   1.21064
 Mn 0.5 0.0 0.5   1.108725
 Mn 0.0 0.0 0.0   1.108811
 H 0.5535 0.3969 0.4188   0.109772
 H 0.6517 0.6029 0.5202   0.098794
 H 0.8556 0.5953 0.8275   0.056174
 H 0.7527 0.3905 0.7282   0.083724
 H 0.2017 0.7687 0.0216   0.145528
 H 0.1479 0.5675 0.9714   0.112382
 H 0.9049 0.6134 0.0777   0.116523
 H 0.9606 0.8122 0.1252   0.131551
 H 0.4781 0.1347 0.0812   0.109565
 H 0.5827 0.1315 0.9798   0.098835
 H 0.2678 0.0281 0.6725   0.055984
 H 0.1623 0.0245 0.7718   0.084381
 H 0.2471 0.1801 0.4784   0.145813
 H 0.0961 0.1765 0.5286   0.111751
 H 0.0357 0.8272 0.4223   0.116479
 H 0.187 0.8354 0.3748   0.13178
 H 0.4465 0.6031 0.5812   0.10977
 H 0.3483 0.3971 0.4798   0.098947
 H 0.1444 0.4047 0.1725   0.05618
 H 0.2473 0.6095 0.2718   0.083723
 H 0.7983 0.2313 0.9784   0.145632
 H 0.8521 0.4325 0.0286   0.112963
 H 0.0951 0.3866 0.9223   0.117064
 H 0.0394 0.1878 0.8748   0.131532
 H 0.5219 0.8653 0.9188   0.109559
 H 0.4173 0.8685 0.0202   0.098989
 H 0.7322 0.9719 0.3275   0.05599
 H 0.8377 0.9755 0.2282   0.084382
 H 0.7529 0.8199 0.5216   0.145918
 H 0.9039 0.8235 0.4714   0.112323
 H 0.9643 0.1728 0.5777   0.117009
 H 0.813 0.1646 0.6252   0.131762
 C 0.5686 0.2398 0.4986   0.685931
 C 0.6414 0.372 0.563   -0.128281
 C 0.6134 0.4369 0.5019   -0.054794
 C 0.6729 0.5601 0.5624   -0.061412
 C 0.765 0.6221 0.6865   -0.116764
 C 0.7934 0.556 0.7452   -0.052685
 C 0.8243 0.7588 0.7543   0.691768
 C 0.7324 0.4329 0.6855   -0.06626
 C 0.1413 0.7369 0.0334   -0.001757
 C 0.1081 0.6158 0.0027   -0.129463
 C 0.0182 0.5643 0.0169   0.04783
 C 0.9656 0.6424 0.0648   -0.136883
 C 0.9996 0.7624 0.0944   -0.030488
 C 0.2412 0.07 0.0014   0.686483
 C 0.309 0.0784 0.937   -0.128272
 C 0.435 0.1115 0.9981   -0.054757
 C 0.4977 0.1105 0.9376   -0.060958
 C 0.4356 0.0785 0.8135   -0.117285
 C 0.3108 0.0482 0.7548   -0.051997
 C 0.5045 0.07 0.7457   0.692622
 C 0.2474 0.0469 0.8145   -0.067109
 C 0.2035 0.1079 0.4666   -0.002814
 C 0.1131 0.1054 0.4973   -0.127798
 C 0.0474 0.0013 0.4831   0.047201
 C 0.0776 0.9008 0.4352   -0.136747
 C 0.168 0.9052 0.4056   -0.030513
 C 0.4314 0.7602 0.5014   0.685919
 C 0.3586 0.628 0.437   -0.12828
 C 0.3866 0.5631 0.4981   -0.054785
 C 0.3271 0.4399 0.4376   -0.061468
 C 0.235 0.3779 0.3135   -0.116717
 C 0.2066 0.444 0.2548   -0.052691
 C 0.1757 0.2412 0.2457   0.691752
 C 0.2676 0.5671 0.3145   -0.066232
 C 0.8587 0.2631 0.9666   -0.001701
 C 0.8919 0.3842 0.9973   -0.129707
 C 0.9818 0.4357 0.9831   0.048344
 C 0.0344 0.3576 0.9352   -0.137131
 C 0.000399999999999 0.2376 0.9056   -0.030397
 C 0.7588 0.93 0.9986   0.686472
 C 0.691 0.9216 0.063   -0.128278
 C 0.565 0.8885 0.0019   -0.054708
 C 0.5023 0.8895 0.0624   -0.061038
 C 0.5644 0.9215 0.1865   -0.117234
 C 0.6892 0.9518 0.2452   -0.052003
 C 0.4955 0.93 0.2543   0.692606
 C 0.7526 0.9531 0.1855   -0.067083
 C 0.7965 0.8921 0.5334   -0.002761
 C 0.8869 0.8946 0.5027   -0.128037
 C 0.9526 0.9987 0.5169   0.047721
 C 0.9224 0.0992 0.5648   -0.13699
 C 0.832 0.0948 0.5944   -0.030424
 N 0.0865 0.8077 0.08   0.370552
 N 0.2277 0.0065 0.42   0.371177
 N 0.9135 0.1923 0.92   0.370534
 N 0.7723 0.9935 0.58   0.371159
 O 0.4884 0.1901 0.3851   -0.62353
 O 0.5907 0.1863 0.561   -0.584467
 O 0.1205 0.9256 0.1133   -0.578965
 O 0.7778 0.8138 0.6986   -0.654095
 O 0.9156 0.808 0.861   -0.591202
 O 0.305 0.1033 0.1149   -0.623748
 O 0.1253 0.0297 0.939   -0.584933
 O 0.3123 0.0072 0.3867   -0.579614
 O 0.6152 0.0792 0.8014   -0.654617
 O 0.447 0.0546 0.639   -0.591307
 O 0.5116 0.8099 0.6149   -0.623529
 O 0.4093 0.8137 0.439   -0.584466
 O 0.8795 0.0744 0.8867   -0.578972
 O 0.2222 0.1862 0.3014   -0.654092
 O 0.0844 0.192 0.139   -0.591203
 O 0.695 0.8967 0.8851   -0.623749
 O 0.8747 0.9703 0.061   -0.584931
 O 0.6877 0.9928 0.6133   -0.57962
 O 0.3848 0.9208 0.1986   -0.654614
 O 0.553 0.9454 0.361   -0.591308
