{'_ref': 'TBD', '_srcid': 'CAKYAQ_clean', 'submitters': [{'name': 'Dalar Nazarian Jeff Camp and David Sholl', 'email': 'dalar@gatech.edu jcamp6@gatech.edu'}], '_method': 'VASP DFT with PBE;DDEC'}
data_Cu2H3C8SO8
_symmetry_space_group_name_H-M   'P 1'
_cell_length_a   7.31500000
_cell_length_b   10.21900020
_cell_length_c   18.16800000
_cell_angle_alpha   90.00000000
_cell_angle_beta   90.00000000
_cell_angle_gamma   94.16300239
_symmetry_Int_Tables_number   1
_chemical_formula_structural   Cu2H3C8SO8
_chemical_formula_sum   'Cu8 H12 C32 S4 O32'
_cell_volume   1354.5108428
_cell_formula_units_Z   4
loop_
 _symmetry_equiv_pos_site_id
 _symmetry_equiv_pos_as_xyz
  1  'x, y, z'
loop_
 _atom_site_label
 _atom_site_fract_x
 _atom_site_fract_y
 _atom_site_fract_z
 _atom_site_charge
 Cu 0.86452 0.21556 0.90533   1.050844
 Cu 0.03853 0.92958 0.93157   1.116544
 Cu 0.63548 0.28444 0.40533   1.050844
 Cu 0.46147 0.57042 0.43157   1.116544
 Cu 0.13548 0.78444 0.09467   1.050844
 Cu 0.96147 0.07042 0.06843   1.116544
 Cu 0.36452 0.71556 0.59467   1.050844
 Cu 0.53853 0.42958 0.56843   1.116544
 H 0.7819 0.165 0.6915   0.113848
 H 0.934 0.7976 0.7066   0.114433
 H 0.7719 0.9373 0.5108   0.115794
 H 0.7181 0.335 0.1915   0.113848
 H 0.566 0.7024 0.2066   0.114433
 H 0.7281 0.5627 0.0108   0.115794
 H 0.2181 0.835 0.3085   0.113848
 H 0.066 0.2024 0.2934   0.114433
 H 0.2281 0.0627 0.4892   0.115794
 H 0.2819 0.665 0.8085   0.113848
 H 0.434 0.2976 0.7934   0.114433
 H 0.2719 0.4373 0.9892   0.115794
 C 0.8566 0.8497 0.6043   -0.280519
 C 0.7668 0.0676 0.5952   -0.150966
 C 0.801 0.0847 0.6697   0.040174
 C 0.863 0.9845 0.7124   -0.162707
 C 0.8988 0.0081 0.7925   0.73445
 C 0.8916 0.866 0.6791   0.046129
 C 0.7942 0.9495 0.5608   0.031196
 C 0.6927 0.1784 0.5525   0.723796
 C 0.6434 0.6503 0.1043   -0.280519
 C 0.7332 0.4324 0.0952   -0.150966
 C 0.699 0.4153 0.1697   0.040174
 C 0.637 0.5155 0.2124   -0.162707
 C 0.6012 0.4919 0.2925   0.73445
 C 0.6084 0.634 0.1791   0.046129
 C 0.7058 0.5505 0.0608   0.031196
 C 0.8073 0.3216 0.0525   0.723796
 C 0.1434 0.1503 0.3957   -0.280519
 C 0.2332 0.9324 0.4048   -0.150966
 C 0.199 0.9153 0.3303   0.040174
 C 0.137 0.0155 0.2876   -0.162707
 C 0.1012 0.9919 0.2075   0.734449
 C 0.1084 0.134 0.3209   0.046129
 C 0.2058 0.0505 0.4392   0.031196
 C 0.3073 0.8216 0.4475   0.723796
 C 0.3566 0.3497 0.8957   -0.280519
 C 0.2668 0.5676 0.9048   -0.150966
 C 0.301 0.5847 0.8303   0.040174
 C 0.363 0.4845 0.7876   -0.162707
 C 0.3988 0.5081 0.7075   0.734449
 C 0.3916 0.366 0.8209   0.046129
 C 0.2942 0.4495 0.9392   0.031196
 C 0.1927 0.6784 0.9475   0.723796
 S 0.8758 0.69063 0.56487   1.364321
 S 0.6242 0.80937 0.06487   1.364321
 S 0.1242 0.30937 0.43513   1.364322
 S 0.3758 0.19063 0.93513   1.364322
 O 0.9423 0.9148 0.8324   -0.517406
 O 0.8681 0.0581 0.9655   -0.688126
 O 0.6575 0.1626 0.4859   -0.616559
 O 0.8767 0.1241 0.8137   -0.585628
 O 0.8569 0.6997 0.4868   -0.593956
 O 0.675 0.2817 0.5894   -0.527872
 O 0.7258 0.611 0.5991   -0.712694
 O 0.0513 0.6464 0.5908   -0.615098
 O 0.5577 0.5852 0.3324   -0.517406
 O 0.6319 0.4419 0.4655   -0.688126
 O 0.8425 0.3374 0.9859   -0.616559
 O 0.6233 0.3759 0.3137   -0.585628
 O 0.6431 0.8003 0.9868   -0.593956
 O 0.825 0.2183 0.0894   -0.527872
 O 0.7742 0.889 0.0991   -0.712694
 O 0.4487 0.8536 0.0908   -0.615098
 O 0.0577 0.0852 0.1676   -0.517406
 O 0.1319 0.9419 0.0345   -0.688126
 O 0.3425 0.8374 0.5141   -0.616559
 O 0.1233 0.8759 0.1863   -0.585628
 O 0.1431 0.3003 0.5132   -0.593955
 O 0.325 0.7183 0.4106   -0.527872
 O 0.2742 0.389 0.4009   -0.712695
 O 0.9487 0.3536 0.4092   -0.615098
 O 0.4423 0.4148 0.6676   -0.517406
 O 0.3681 0.5581 0.5345   -0.688126
 O 0.1575 0.6626 0.0141   -0.616559
 O 0.3767 0.6241 0.6863   -0.585628
 O 0.3569 0.1997 0.0132   -0.593954
 O 0.175 0.7817 0.9106   -0.527872
 O 0.2258 0.111 0.9009   -0.712695
 O 0.5513 0.1464 0.9092   -0.615098
