{'_ref': 'TBD', '_srcid': 'CAKYAQ_clean', 'submitters': [{'name': 'Dalar Nazarian Jeff Camp and David Sholl', 'email': 'dalar@gatech.edu jcamp6@gatech.edu'}], '_method': 'VASP DFT with PBE;DDEC'}
data_Cu2H3C8SO8
_symmetry_space_group_name_H-M   'P 1'
_cell_length_a   7.30200000
_cell_length_b   10.26700003
_cell_length_c   18.15000000
_cell_angle_alpha   90.00000000
_cell_angle_beta   90.00000000
_cell_angle_gamma   94.00999848
_symmetry_Int_Tables_number   1
_chemical_formula_structural   Cu2H3C8SO8
_chemical_formula_sum   'Cu8 H12 C32 S4 O32'
_cell_volume   1357.36768287
_cell_formula_units_Z   4
loop_
 _symmetry_equiv_pos_site_id
 _symmetry_equiv_pos_as_xyz
  1  'x, y, z'
loop_
 _atom_site_label
 _atom_site_fract_x
 _atom_site_fract_y
 _atom_site_fract_z
 _atom_site_charge
 Cu 0.8641 0.215 0.90526   1.040845
 Cu 0.0375 0.9292 0.93166   1.111972
 Cu 0.6359 0.285 0.40526   1.040845
 Cu 0.4625 0.5708 0.43166   1.111972
 Cu 0.1359 0.785 0.09474   1.040845
 Cu 0.9625 0.0708 0.06834   1.111971
 Cu 0.3641 0.715 0.59474   1.040845
 Cu 0.5375 0.4292 0.56834   1.111971
 H 0.7808 0.168 0.6904   0.115243
 H 0.9402 0.8027 0.7066   0.112673
 H 0.777 0.9463 0.5107   0.113537
 H 0.7192 0.332 0.1904   0.115243
 H 0.5598 0.6973 0.2066   0.112673
 H 0.723 0.5537 0.0107   0.113537
 H 0.2192 0.832 0.3096   0.115243
 H 0.0598 0.1973 0.2934   0.112673
 H 0.223 0.0537 0.4893   0.113537
 H 0.2808 0.668 0.8096   0.115243
 H 0.4402 0.3027 0.7934   0.112673
 H 0.277 0.4463 0.9893   0.113537
 C 0.855 0.8514 0.6036   -0.286612
 C 0.765 0.067 0.5945   -0.143317
 C 0.799 0.088 0.669   0.031056
 C 0.861 0.9851 0.7115   -0.161663
 C 0.896 0.0046 0.793   0.73124
 C 0.893 0.8692 0.6792   0.036821
 C 0.795 0.956 0.5612   0.04486
 C 0.695 0.185 0.5533   0.72884
 C 0.645 0.6486 0.1036   -0.286612
 C 0.735 0.433 0.0945   -0.143317
 C 0.701 0.412 0.169   0.031056
 C 0.639 0.5149 0.2115   -0.161663
 C 0.604 0.4954 0.293   0.73124
 C 0.607 0.6308 0.1792   0.036821
 C 0.705 0.544 0.0612   0.04486
 C 0.805 0.315 0.0533   0.72884
 C 0.145 0.1486 0.3964   -0.286612
 C 0.235 0.933 0.4055   -0.143317
 C 0.201 0.912 0.331   0.031056
 C 0.139 0.0149 0.2885   -0.161662
 C 0.104 0.9954 0.207   0.73124
 C 0.107 0.1308 0.3208   0.036821
 C 0.205 0.044 0.4388   0.04486
 C 0.305 0.815 0.4467   0.72884
 C 0.355 0.3514 0.8964   -0.286612
 C 0.265 0.567 0.9055   -0.143317
 C 0.299 0.588 0.831   0.031056
 C 0.361 0.4851 0.7885   -0.161662
 C 0.396 0.5046 0.707   0.73124
 C 0.393 0.3692 0.8208   0.036821
 C 0.295 0.456 0.9388   0.04486
 C 0.195 0.685 0.9467   0.72884
 S 0.8733 0.6907 0.565   1.362234
 S 0.6267 0.8093 0.065   1.362234
 S 0.1267 0.3093 0.435   1.362235
 S 0.3733 0.1907 0.935   1.362235
 O 0.941 0.9156 0.8318   -0.497872
 O 0.8703 0.0554 0.9657   -0.69323
 O 0.6552 0.1602 0.4855   -0.635384
 O 0.8784 0.1258 0.8134   -0.602998
 O 0.852 0.7012 0.4872   -0.600187
 O 0.673 0.2775 0.5896   -0.496204
 O 0.7257 0.6094 0.599   -0.705133
 O 0.0467 0.644 0.59   -0.606724
 O 0.559 0.5844 0.3318   -0.497872
 O 0.6297 0.4446 0.4657   -0.69323
 O 0.8448 0.3398 0.9855   -0.635384
 O 0.6216 0.3742 0.3134   -0.602998
 O 0.648 0.7988 0.9872   -0.600187
 O 0.827 0.2225 0.0896   -0.496204
 O 0.7743 0.8906 0.099   -0.705133
 O 0.4533 0.856 0.09   -0.606724
 O 0.059 0.0844 0.1682   -0.497872
 O 0.1297 0.9446 0.0343   -0.69323
 O 0.3448 0.8398 0.5145   -0.635384
 O 0.1216 0.8742 0.1866   -0.602998
 O 0.148 0.2988 0.5128   -0.600185
 O 0.327 0.7225 0.4104   -0.496203
 O 0.2743 0.3906 0.401   -0.705133
 O 0.9533 0.356 0.41   -0.606722
 O 0.441 0.4156 0.6682   -0.497872
 O 0.3703 0.5554 0.5343   -0.69323
 O 0.1552 0.6602 0.0145   -0.635383
 O 0.3784 0.6258 0.6866   -0.602998
 O 0.352 0.2012 0.0128   -0.600185
 O 0.173 0.7775 0.9104   -0.496203
 O 0.2257 0.1094 0.901   -0.705133
 O 0.5467 0.144 0.91   -0.606722
