{'_ref': 'TBD', '_srcid': 'CAKYAQ_clean', 'submitters': [{'name': 'Dalar Nazarian Jeff Camp and David Sholl', 'email': 'dalar@gatech.edu jcamp6@gatech.edu'}], '_method': 'VASP DFT with PBE;DDEC'}
data_Cu2H3C8SO8
_symmetry_space_group_name_H-M   'P 1'
_cell_length_a   7.27100000
_cell_length_b   10.21200017
_cell_length_c   18.06100000
_cell_angle_alpha   90.00000000
_cell_angle_beta   90.00000000
_cell_angle_gamma   94.23400001
_symmetry_Int_Tables_number   1
_chemical_formula_structural   Cu2H3C8SO8
_chemical_formula_sum   'Cu8 H12 C32 S4 O32'
_cell_volume   1337.3955435
_cell_formula_units_Z   4
loop_
 _symmetry_equiv_pos_site_id
 _symmetry_equiv_pos_as_xyz
  1  'x, y, z'
loop_
 _atom_site_label
 _atom_site_fract_x
 _atom_site_fract_y
 _atom_site_fract_z
 _atom_site_charge
 Cu 0.86315 0.21454 0.90555   1.055131
 Cu 0.03655 0.92917 0.9316   1.130505
 Cu 0.63685 0.28546 0.40555   1.055131
 Cu 0.46345 0.57083 0.4316   1.130505
 Cu 0.13685 0.78546 0.09445   1.055131
 Cu 0.96345 0.07083 0.0684   1.130505
 Cu 0.36315 0.71454 0.59445   1.055131
 Cu 0.53655 0.42917 0.5684   1.130505
 H 0.7776 0.1648 0.6916   0.110069
 H 0.9335 0.7984 0.7065   0.111093
 H 0.7729 0.9375 0.5113   0.10888
 H 0.7224 0.3352 0.1916   0.110069
 H 0.5665 0.7016 0.2065   0.111093
 H 0.7271 0.5625 0.0113   0.10888
 H 0.2224 0.8352 0.3084   0.110069
 H 0.0665 0.2016 0.2935   0.111094
 H 0.2271 0.0625 0.4887   0.10888
 H 0.2776 0.6648 0.8084   0.110069
 H 0.4335 0.2984 0.7935   0.111094
 H 0.2729 0.4375 0.9887   0.10888
 C 0.8547 0.8495 0.6041   -0.293913
 C 0.7654 0.0693 0.5949   -0.157707
 C 0.7983 0.0849 0.6695   0.046155
 C 0.8612 0.9857 0.7126   -0.173201
 C 0.8965 0.0083 0.7922   0.744887
 C 0.8903 0.8665 0.6789   0.053223
 C 0.7943 0.9496 0.5617   0.04365
 C 0.6915 0.1791 0.5532   0.731741
 C 0.6453 0.6505 0.1041   -0.293913
 C 0.7346 0.4307 0.0949   -0.157707
 C 0.7017 0.4151 0.1695   0.046155
 C 0.6388 0.5143 0.2126   -0.173201
 C 0.6035 0.4917 0.2922   0.744887
 C 0.6097 0.6335 0.1789   0.053223
 C 0.7057 0.5504 0.0617   0.04365
 C 0.8085 0.3209 0.0532   0.731741
 C 0.1453 0.1505 0.3959   -0.293913
 C 0.2346 0.9307 0.4051   -0.157707
 C 0.2017 0.9151 0.3305   0.046154
 C 0.1388 0.0143 0.2874   -0.173201
 C 0.1035 0.9917 0.2078   0.744887
 C 0.1097 0.1335 0.3211   0.053223
 C 0.2057 0.0504 0.4383   0.043651
 C 0.3085 0.8209 0.4468   0.731741
 C 0.3547 0.3495 0.8959   -0.293913
 C 0.2654 0.5693 0.9051   -0.157707
 C 0.2983 0.5849 0.8305   0.046154
 C 0.3612 0.4857 0.7874   -0.173201
 C 0.3965 0.5083 0.7078   0.744887
 C 0.3903 0.3665 0.8211   0.053223
 C 0.2943 0.4496 0.9383   0.043651
 C 0.1915 0.6791 0.9468   0.731741
 S 0.8722 0.69189 0.56484   1.403692
 S 0.6278 0.80811 0.06484   1.403692
 S 0.1278 0.30811 0.43516   1.403692
 S 0.3722 0.19189 0.93516   1.403692
 O 0.9429 0.9156 0.832   -0.524372
 O 0.8689 0.0573 0.9658   -0.694227
 O 0.655 0.1625 0.4858   -0.622455
 O 0.8739 0.1229 0.8139   -0.587723
 O 0.8527 0.702 0.4868   -0.6123
 O 0.672 0.2822 0.5894   -0.529937
 O 0.7244 0.6133 0.5985   -0.71931
 O 0.045 0.6491 0.5895   -0.623881
 O 0.5571 0.5844 0.332   -0.524372
 O 0.6311 0.4427 0.4658   -0.694227
 O 0.845 0.3375 0.9858   -0.622455
 O 0.6261 0.3771 0.3139   -0.587723
 O 0.6473 0.798 0.9868   -0.6123
 O 0.828 0.2178 0.0894   -0.529937
 O 0.7756 0.8867 0.0985   -0.71931
 O 0.455 0.8509 0.0895   -0.623881
 O 0.0571 0.0844 0.168   -0.524372
 O 0.1311 0.9427 0.0342   -0.694227
 O 0.345 0.8375 0.5142   -0.622454
 O 0.1261 0.8771 0.1861   -0.587724
 O 0.1473 0.298 0.5132   -0.612299
 O 0.328 0.7178 0.4106   -0.529937
 O 0.2756 0.3867 0.4015   -0.71931
 O 0.955 0.3509 0.4105   -0.623881
 O 0.4429 0.4156 0.668   -0.524372
 O 0.3689 0.5573 0.5342   -0.694227
 O 0.155 0.6625 0.0142   -0.622454
 O 0.3739 0.6229 0.6861   -0.587724
 O 0.3527 0.202 0.0132   -0.612299
 O 0.172 0.7822 0.9106   -0.529937
 O 0.2244 0.1133 0.9015   -0.71931
 O 0.545 0.1491 0.9105   -0.623881
