{'_ref': 'TBD', '_srcid': 'CAKYAQ_clean', 'submitters': [{'name': 'Dalar Nazarian Jeff Camp and David Sholl', 'email': 'dalar@gatech.edu jcamp6@gatech.edu'}], '_method': 'VASP DFT with PBE;DDEC'}
data_Zn3H24C30(NO5)2
_symmetry_space_group_name_H-M   'P 1'
_cell_length_a   15.13300000
_cell_length_b   17.67760000
_cell_length_c   17.67760000
_cell_angle_alpha   90.00000000
_cell_angle_beta   90.00000000
_cell_angle_gamma   90.00000000
_symmetry_Int_Tables_number   1
_chemical_formula_structural   Zn3H24C30(NO5)2
_chemical_formula_sum   'Zn12 H96 C120 N8 O40'
_cell_volume   4729.02529945
_cell_formula_units_Z   4
loop_
 _symmetry_equiv_pos_site_id
 _symmetry_equiv_pos_as_xyz
  1  'x, y, z'
loop_
 _atom_site_label
 _atom_site_fract_x
 _atom_site_fract_y
 _atom_site_fract_z
 _atom_site_charge
 Zn 0.96908 0.85438 0.89641   0.959072
 Zn 0.96908 0.14562 0.10359   0.959072
 Zn 0.03092 0.89641 0.14562   0.959072
 Zn 0.03092 0.10359 0.85438   0.959072
 Zn 0.46908 0.85438 0.10359   0.959072
 Zn 0.46908 0.14562 0.89641   0.959072
 Zn 0.53092 0.89641 0.85438   0.959072
 Zn 0.53092 0.10359 0.14562   0.959072
 Zn 0.75 0.851 0.851   1.064246
 Zn 0.75 0.149 0.149   1.064246
 Zn 0.25 0.851 0.149   1.064246
 Zn 0.25 0.149 0.851   1.064246
 H 0.7804 0.8635 0.6132   0.099699
 H 0.8159 0.8794 0.4851   0.106497
 H 0.0746 0.8949 0.5396   0.105502
 H 0.0392 0.8801 0.6677   0.113563
 H 0.0902 0.8416 0.4219   0.128402
 H 0.1182 0.8462 0.2934   0.077867
 H 0.8968 0.9526 0.257   0.083616
 H 0.8604 0.9502 0.3838   0.125475
 H 0.7801 0.8996 0.0138   0.061662
 H 0.7368 0.7701 0.9933   0.110812
 H 0.8337 0.7439 0.0182   0.106664
 H 0.7699 0.7841 0.0781   0.12137
 H 0.7804 0.1365 0.3868   0.099699
 H 0.8159 0.1206 0.5149   0.106497
 H 0.0746 0.1051 0.4604   0.105502
 H 0.0392 0.1199 0.3323   0.113563
 H 0.0902 0.1584 0.5781   0.128402
 H 0.1182 0.1538 0.7066   0.077867
 H 0.8968 0.0474 0.743   0.083616
 H 0.8604 0.0498 0.6162   0.125475
 H 0.7801 0.1004 0.9862   0.061662
 H 0.7368 0.2299 0.0067   0.110812
 H 0.8337 0.2561 0.9818   0.106664
 H 0.7699 0.2159 0.9219   0.12137
 H 0.2196 0.6132 0.1365   0.099699
 H 0.1841 0.4851 0.1206   0.106497
 H 0.9254 0.5396 0.1051   0.105502
 H 0.9608 0.6677 0.1199   0.113563
 H 0.9098 0.4219 0.1584   0.128402
 H 0.8818 0.2934 0.1538   0.077867
 H 0.1032 0.257 0.0474   0.083616
 H 0.1396 0.3838 0.0498   0.125475
 H 0.2199 0.0138 0.1004   0.061662
 H 0.2632 0.9933 0.2299   0.110812
 H 0.1663 0.0182 0.2561   0.106664
 H 0.2301 0.0781 0.2159   0.12137
 H 0.2196 0.3868 0.8635   0.099699
 H 0.1841 0.5149 0.8794   0.106497
 H 0.9254 0.4604 0.8949   0.105502
 H 0.9608 0.3323 0.8801   0.113563
 H 0.9098 0.5781 0.8416   0.128402
 H 0.8818 0.7066 0.8462   0.077867
 H 0.1032 0.743 0.9526   0.083616
 H 0.1396 0.6162 0.9502   0.125475
 H 0.2199 0.9862 0.8996   0.061662
 H 0.2632 0.0067 0.7701   0.110812
 H 0.1663 0.9818 0.7439   0.106664
 H 0.2301 0.9219 0.7841   0.12137
 H 0.2804 0.8635 0.3868   0.099699
 H 0.3159 0.8794 0.5149   0.106497
 H 0.5746 0.8949 0.4604   0.105502
 H 0.5392 0.8801 0.3323   0.113563
 H 0.5902 0.8416 0.5781   0.128402
 H 0.6182 0.8462 0.7066   0.077867
 H 0.3968 0.9526 0.743   0.083616
 H 0.3604 0.9502 0.6162   0.125475
 H 0.2801 0.8996 0.9862   0.061661
 H 0.2368 0.7701 0.0067   0.110812
 H 0.3337 0.7439 0.9818   0.106664
 H 0.2699 0.7841 0.9219   0.121371
 H 0.2804 0.1365 0.6132   0.099699
 H 0.3159 0.1206 0.4851   0.106497
 H 0.5746 0.1051 0.5396   0.105502
 H 0.5392 0.1199 0.6677   0.113563
 H 0.5902 0.1584 0.4219   0.128402
 H 0.6182 0.1538 0.2934   0.077867
 H 0.3968 0.0474 0.257   0.083616
 H 0.3604 0.0498 0.3838   0.125475
 H 0.2801 0.1004 0.0138   0.061661
 H 0.2368 0.2299 0.9933   0.110812
 H 0.3337 0.2561 0.0182   0.106664
 H 0.2699 0.2159 0.0781   0.121371
 H 0.7196 0.6132 0.8635   0.099699
 H 0.6841 0.4851 0.8794   0.106497
 H 0.4254 0.5396 0.8949   0.105502
 H 0.4608 0.6677 0.8801   0.113564
 H 0.4098 0.4219 0.8416   0.128402
 H 0.3818 0.2934 0.8462   0.077867
 H 0.6032 0.257 0.9526   0.083616
 H 0.6396 0.3838 0.9502   0.125475
 H 0.7199 0.0138 0.8996   0.061661
 H 0.7632 0.9933 0.7701   0.110812
 H 0.6663 0.0182 0.7439   0.106664
 H 0.7301 0.0781 0.7841   0.121371
 H 0.7196 0.3868 0.1365   0.099699
 H 0.6841 0.5149 0.1206   0.106497
 H 0.4254 0.4604 0.1051   0.105502
 H 0.4608 0.3323 0.1199   0.113564
 H 0.4098 0.5781 0.1584   0.128402
 H 0.3818 0.7066 0.1538   0.077867
 H 0.6032 0.743 0.0474   0.083616
 H 0.6396 0.6162 0.0498   0.125475
 H 0.7199 0.9862 0.1004   0.061661
 H 0.7632 0.0067 0.2299   0.110812
 H 0.6663 0.9818 0.2561   0.106664
 H 0.7301 0.9219 0.2159   0.121371
 C 0.9057 0.8696 0.6527   -0.132387
 C 0.8404 0.8697 0.5986   -0.043051
 C 0.8618 0.8788 0.5218   -0.141828
 C 0.9489 0.8871 0.4987   0.03987
 C 0.0147 0.8882 0.5541   -0.141603
 C 0.9937 0.8794 0.6307   -0.034557
 C 0.9711 0.8934 0.4182   0.120727
 C 0.0481 0.8642 0.389   -0.225507
 C 0.0647 0.8674 0.3119   0.17795
 C 0.9363 0.9287 0.2913   0.18208
 C 0.914 0.9278 0.3669   -0.218135
 C 0.8824 0.8586 0.7339   0.684108
 C 0.8244 0.8593 0.0018   0.186371
 C 0.9082 0.8731 0.0462   0.609704
 C 0.788 0.7825 0.0249   -0.377112
 C 0.9057 0.1304 0.3473   -0.132387
 C 0.8404 0.1303 0.4014   -0.043051
 C 0.8618 0.1212 0.4782   -0.141828
 C 0.9489 0.1129 0.5013   0.03987
 C 0.0147 0.1118 0.4459   -0.141603
 C 0.9937 0.1206 0.3693   -0.034557
 C 0.9711 0.1066 0.5818   0.120727
 C 0.0481 0.1358 0.611   -0.225507
 C 0.0647 0.1326 0.6881   0.17795
 C 0.9363 0.0713 0.7087   0.18208
 C 0.914 0.0722 0.6331   -0.218135
 C 0.8824 0.1414 0.2661   0.684108
 C 0.8244 0.1407 0.9982   0.186371
 C 0.9082 0.1269 0.9538   0.609704
 C 0.788 0.2175 0.9751   -0.377112
 C 0.0943 0.6527 0.1304   -0.132387
 C 0.1596 0.5986 0.1303   -0.043051
 C 0.1382 0.5218 0.1212   -0.141828
 C 0.0511 0.4987 0.1129   0.03987
 C 0.9853 0.5541 0.1118   -0.141603
 C 0.0063 0.6307 0.1206   -0.034558
 C 0.0289 0.4182 0.1066   0.120727
 C 0.9519 0.389 0.1358   -0.225507
 C 0.9353 0.3119 0.1326   0.17795
 C 0.0637 0.2913 0.0713   0.18208
 C 0.086 0.3669 0.0722   -0.218135
 C 0.1176 0.7339 0.1414   0.684108
 C 0.1756 0.0018 0.1407   0.186371
 C 0.0918 0.0462 0.1269   0.609704
 C 0.212 0.0249 0.2175   -0.377113
 C 0.0943 0.3473 0.8696   -0.132387
 C 0.1596 0.4014 0.8697   -0.043051
 C 0.1382 0.4782 0.8788   -0.141828
 C 0.0511 0.5013 0.8871   0.03987
 C 0.9853 0.4459 0.8882   -0.141603
 C 0.0063 0.3693 0.8794   -0.034558
 C 0.0289 0.5818 0.8934   0.120727
 C 0.9519 0.611 0.8642   -0.225507
 C 0.9353 0.6881 0.8674   0.17795
 C 0.0637 0.7087 0.9287   0.18208
 C 0.086 0.6331 0.9278   -0.218135
 C 0.1176 0.2661 0.8586   0.684108
 C 0.1756 0.9982 0.8593   0.186372
 C 0.0918 0.9538 0.8731   0.609704
 C 0.212 0.9751 0.7825   -0.377113
 C 0.4057 0.8696 0.3473   -0.132387
 C 0.3404 0.8697 0.4014   -0.04305
 C 0.3618 0.8788 0.4782   -0.141828
 C 0.4489 0.8871 0.5013   0.03987
 C 0.5147 0.8882 0.4459   -0.141603
 C 0.4937 0.8794 0.3693   -0.034558
 C 0.4711 0.8934 0.5818   0.120727
 C 0.5481 0.8642 0.611   -0.225507
 C 0.5647 0.8674 0.6881   0.17795
 C 0.4363 0.9287 0.7087   0.18208
 C 0.414 0.9278 0.6331   -0.218135
 C 0.3824 0.8586 0.2661   0.684108
 C 0.3244 0.8593 0.9982   0.186372
 C 0.4082 0.8731 0.9538   0.609704
 C 0.288 0.7825 0.9751   -0.377113
 C 0.4057 0.1304 0.6527   -0.132387
 C 0.3404 0.1303 0.5986   -0.04305
 C 0.3618 0.1212 0.5218   -0.141828
 C 0.4489 0.1129 0.4987   0.03987
 C 0.5147 0.1118 0.5541   -0.141603
 C 0.4937 0.1206 0.6307   -0.034558
 C 0.4711 0.1066 0.4182   0.120727
 C 0.5481 0.1358 0.389   -0.225507
 C 0.5647 0.1326 0.3119   0.17795
 C 0.4363 0.0713 0.2913   0.18208
 C 0.414 0.0722 0.3669   -0.218135
 C 0.3824 0.1414 0.7339   0.684108
 C 0.3244 0.1407 0.0018   0.186372
 C 0.4082 0.1269 0.0462   0.609704
 C 0.288 0.2175 0.0249   -0.377113
 C 0.5943 0.6527 0.8696   -0.132387
 C 0.6596 0.5986 0.8697   -0.04305
 C 0.6382 0.5218 0.8788   -0.141828
 C 0.5511 0.4987 0.8871   0.03987
 C 0.4853 0.5541 0.8882   -0.141603
 C 0.5063 0.6307 0.8794   -0.034558
 C 0.5289 0.4182 0.8934   0.120727
 C 0.4519 0.389 0.8642   -0.225507
 C 0.4353 0.3119 0.8674   0.17795
 C 0.5637 0.2913 0.9287   0.18208
 C 0.586 0.3669 0.9278   -0.218135
 C 0.6176 0.7339 0.8586   0.684108
 C 0.6756 0.0018 0.8593   0.186372
 C 0.5918 0.0462 0.8731   0.609704
 C 0.712 0.0249 0.7825   -0.377113
 C 0.5943 0.3473 0.1304   -0.132387
 C 0.6596 0.4014 0.1303   -0.04305
 C 0.6382 0.4782 0.1212   -0.141828
 C 0.5511 0.5013 0.1129   0.03987
 C 0.4853 0.4459 0.1118   -0.141603
 C 0.5063 0.3693 0.1206   -0.034558
 C 0.5289 0.5818 0.1066   0.120727
 C 0.4519 0.611 0.1358   -0.225507
 C 0.4353 0.6881 0.1326   0.17795
 C 0.5637 0.7087 0.0713   0.18208
 C 0.586 0.6331 0.0722   -0.218135
 C 0.6176 0.2661 0.1414   0.684108
 C 0.6756 0.9982 0.1407   0.186372
 C 0.5918 0.9538 0.1269   0.609704
 C 0.712 0.9751 0.2175   -0.377113
 N 0.0098 0.8984 0.2634   -0.325295
 N 0.0098 0.1016 0.7366   -0.325295
 N 0.9902 0.2634 0.1016   -0.325295
 N 0.9902 0.7366 0.8984   -0.325295
 N 0.5098 0.8984 0.7366   -0.325295
 N 0.5098 0.1016 0.2634   -0.325295
 N 0.4902 0.2634 0.8984   -0.325295
 N 0.4902 0.7366 0.1016   -0.325295
 O 0.9459 0.856 0.7805   -0.602678
 O 0.8026 0.8535 0.7495   -0.613779
 O 0.8425 0.8595 0.9239   -0.736215
 O 0.981 0.8736 0.0126   -0.566712
 O 0.9015 0.8807 0.1173   -0.574278
 O 0.9459 0.144 0.2195   -0.602678
 O 0.8026 0.1465 0.2505   -0.613779
 O 0.8425 0.1405 0.0761   -0.736215
 O 0.981 0.1264 0.9874   -0.566712
 O 0.9015 0.1193 0.8827   -0.574278
 O 0.0541 0.7805 0.144   -0.602678
 O 0.1974 0.7495 0.1465   -0.613779
 O 0.1575 0.9239 0.1405   -0.736215
 O 0.019 0.0126 0.1264   -0.566712
 O 0.0985 0.1173 0.1193   -0.574278
 O 0.0541 0.2195 0.856   -0.602678
 O 0.1974 0.2505 0.8535   -0.613779
 O 0.1575 0.0761 0.8595   -0.736215
 O 0.019 0.9874 0.8736   -0.566712
 O 0.0985 0.8827 0.8807   -0.574278
 O 0.4459 0.856 0.2195   -0.602678
 O 0.3026 0.8535 0.2505   -0.613779
 O 0.3425 0.8595 0.0761   -0.736215
 O 0.481 0.8736 0.9874   -0.566712
 O 0.4015 0.8807 0.8827   -0.574278
 O 0.4459 0.144 0.7805   -0.602678
 O 0.3026 0.1465 0.7495   -0.613779
 O 0.3425 0.1405 0.9239   -0.736215
 O 0.481 0.1264 0.0126   -0.566712
 O 0.4015 0.1193 0.1173   -0.574278
 O 0.5541 0.7805 0.856   -0.602678
 O 0.6974 0.7495 0.8535   -0.613779
 O 0.6575 0.9239 0.8595   -0.736215
 O 0.519 0.0126 0.8736   -0.566712
 O 0.5985 0.1173 0.8807   -0.574278
 O 0.5541 0.2195 0.144   -0.602678
 O 0.6974 0.2505 0.1465   -0.613779
 O 0.6575 0.0761 0.1405   -0.736215
 O 0.519 0.9874 0.1264   -0.566712
 O 0.5985 0.8827 0.1193   -0.574278
