{'_ref': 'TBD', '_srcid': 'CAKYAQ_clean', 'submitters': [{'name': 'Dalar Nazarian Jeff Camp and David Sholl', 'email': 'dalar@gatech.edu jcamp6@gatech.edu'}], '_method': 'VASP DFT with PBE;DDEC'}
data_CuH3(C5O2)2
_symmetry_space_group_name_H-M   'P 1'
_cell_length_a   17.53109967
_cell_length_b   17.53109988
_cell_length_c   17.53110000
_cell_angle_alpha   62.68839988
_cell_angle_beta   62.68839953
_cell_angle_gamma   62.68840014
_symmetry_Int_Tables_number   1
_chemical_formula_structural   CuH3(C5O2)2
_chemical_formula_sum   'Cu6 H18 C60 O24'
_cell_volume   4037.82341327
_cell_formula_units_Z   6
loop_
 _symmetry_equiv_pos_site_id
 _symmetry_equiv_pos_as_xyz
  1  'x, y, z'
loop_
 _atom_site_label
 _atom_site_fract_x
 _atom_site_fract_y
 _atom_site_fract_z
 _atom_site_charge
 Cu 0.92272 0.50064 0.50064   0.901464
 Cu 0.50064 0.92272 0.50064   0.901464
 Cu 0.50064 0.50064 0.92272   0.901463
 Cu 0.49936 0.07728 0.49936   0.901463
 Cu 0.07728 0.49936 0.49936   0.901463
 Cu 0.49936 0.49936 0.07728   0.901463
 H 0.000900000000001 0.475 0.7794   0.11908
 H 0.7794 0.000900000000001 0.475   0.11908
 H 0.475 0.7794 0.000900000000001   0.11908
 H 0.525 0.9991 0.2206   0.11908
 H 0.9991 0.2206 0.525   0.11908
 H 0.2206 0.525 0.9991   0.11908
 H 0.9991 0.525 0.2206   0.11908
 H 0.2206 0.9991 0.525   0.11908
 H 0.525 0.2206 0.9991   0.11908
 H 0.475 0.000900000000001 0.7794   0.119079
 H 0.000900000000001 0.7794 0.475   0.119079
 H 0.7794 0.475 0.000900000000001   0.119079
 H 0.7759 0.4713 0.7759   0.112475
 H 0.7759 0.7759 0.4713   0.112475
 H 0.4713 0.7759 0.7759   0.112475
 H 0.5287 0.2241 0.2241   0.112475
 H 0.2241 0.2241 0.5287   0.112475
 H 0.2241 0.5287 0.2241   0.112475
 C 0.93909 0.47699 0.66609   0.679207
 C 0.89506 0.47246 0.76406   -0.132027
 C 0.94007 0.47447 0.80947   -0.043925
 C 0.66609 0.93909 0.47699   0.679207
 C 0.76406 0.89506 0.47246   -0.132027
 C 0.80947 0.94007 0.47447   -0.043925
 C 0.47699 0.66609 0.93909   0.679207
 C 0.47246 0.76406 0.89506   -0.132027
 C 0.47447 0.80947 0.94007   -0.043925
 C 0.52301 0.06091 0.33391   0.679207
 C 0.52754 0.10494 0.23594   -0.132027
 C 0.52553 0.05993 0.19053   -0.043925
 C 0.06091 0.33391 0.52301   0.679206
 C 0.10494 0.23594 0.52754   -0.132027
 C 0.05993 0.19053 0.52553   -0.043925
 C 0.33391 0.52301 0.06091   0.679207
 C 0.23594 0.52754 0.10494   -0.132027
 C 0.19053 0.52553 0.05993   -0.043925
 C 0.06091 0.52301 0.33391   0.679207
 C 0.10494 0.52754 0.23594   -0.132027
 C 0.05993 0.52553 0.19053   -0.043925
 C 0.33391 0.06091 0.52301   0.679207
 C 0.23594 0.10494 0.52754   -0.132027
 C 0.19053 0.05993 0.52553   -0.043925
 C 0.52301 0.33391 0.06091   0.679207
 C 0.52754 0.23594 0.10494   -0.132027
 C 0.52553 0.19053 0.05993   -0.043925
 C 0.47699 0.93909 0.66609   0.679207
 C 0.47246 0.89506 0.76406   -0.132027
 C 0.47447 0.94007 0.80947   -0.043925
 C 0.93909 0.66609 0.47699   0.679207
 C 0.89506 0.76406 0.47246   -0.132027
 C 0.94007 0.80947 0.47447   -0.043925
 C 0.66609 0.47699 0.93909   0.679207
 C 0.76406 0.47246 0.89506   -0.132027
 C 0.80947 0.47447 0.94007   -0.043925
 C 0.80742 0.47192 0.80742   0.008627
 C 0.8989 0.4758 0.8989   0.064909
 C 0.943 0.4833 0.943   -0.062295
 C 0.9789 0.4961 0.9789   -0.029962
 C 0.80742 0.80742 0.47192   0.008627
 C 0.8989 0.8989 0.4758   0.064909
 C 0.943 0.943 0.4833   -0.062296
 C 0.9789 0.9789 0.4961   -0.029962
 C 0.47192 0.80742 0.80742   0.008627
 C 0.4758 0.8989 0.8989   0.064909
 C 0.4833 0.943 0.943   -0.062296
 C 0.4961 0.9789 0.9789   -0.029961
 C 0.52808 0.19258 0.19258   0.008627
 C 0.5242 0.1011 0.1011   0.064912
 C 0.5167 0.057 0.057   -0.062305
 C 0.5039 0.0211 0.0211   -0.029928
 C 0.19258 0.19258 0.52808   0.008627
 C 0.1011 0.1011 0.5242   0.064912
 C 0.057 0.057 0.5167   -0.062305
 C 0.0211 0.0211 0.5039   -0.029928
 C 0.19258 0.52808 0.19258   0.008627
 C 0.1011 0.5242 0.1011   0.064912
 C 0.057 0.5167 0.057   -0.062305
 C 0.0211 0.5039 0.0211   -0.029927
 O 0.01879 0.48054 0.62955   -0.554834
 O 0.89188 0.47816 0.62915   -0.565116
 O 0.62955 0.01879 0.48054   -0.554834
 O 0.62915 0.89188 0.47816   -0.565116
 O 0.48054 0.62955 0.01879   -0.554834
 O 0.47816 0.62915 0.89188   -0.565116
 O 0.51946 0.98121 0.37045   -0.554834
 O 0.52184 0.10812 0.37085   -0.565116
 O 0.98121 0.37045 0.51946   -0.554834
 O 0.10812 0.37085 0.52184   -0.565116
 O 0.37045 0.51946 0.98121   -0.554834
 O 0.37085 0.52184 0.10812   -0.565116
 O 0.98121 0.51946 0.37045   -0.554834
 O 0.10812 0.52184 0.37085   -0.565116
 O 0.37045 0.98121 0.51946   -0.554834
 O 0.37085 0.10812 0.52184   -0.565116
 O 0.51946 0.37045 0.98121   -0.554834
 O 0.52184 0.37085 0.10812   -0.565116
 O 0.48054 0.01879 0.62955   -0.554834
 O 0.47816 0.89188 0.62915   -0.565116
 O 0.01879 0.62955 0.48054   -0.554834
 O 0.89188 0.62915 0.47816   -0.565116
 O 0.62955 0.48054 0.01879   -0.554834
 O 0.62915 0.47816 0.89188   -0.565116
