{'_ref': 'TBD', '_srcid': 'CAKYAQ_clean', 'submitters': [{'name': 'Dalar Nazarian Jeff Camp and David Sholl', 'email': 'dalar@gatech.edu jcamp6@gatech.edu'}], '_method': 'VASP DFT with PBE;DDEC'}
data_CuH10C10NO4
_symmetry_space_group_name_H-M   'P 1'
_cell_length_a   8.52840038
_cell_length_b   12.36749943
_cell_length_c   12.36750000
_cell_angle_alpha   63.69700114
_cell_angle_beta   80.94350347
_cell_angle_gamma   80.94350208
_symmetry_Int_Tables_number   1
_chemical_formula_structural   CuH10C10NO4
_chemical_formula_sum   'Cu4 H40 C40 N4 O16'
_cell_volume   1149.14889771
_cell_formula_units_Z   4
loop_
 _symmetry_equiv_pos_site_id
 _symmetry_equiv_pos_as_xyz
  1  'x, y, z'
loop_
 _atom_site_label
 _atom_site_fract_x
 _atom_site_fract_y
 _atom_site_fract_z
 _atom_site_charge
 Cu 0.92565 0.5976 0.00604   0.83051
 Cu 0.57435 0.99396 0.4024   0.83051
 Cu 0.07435 0.4024 0.99396   0.830507
 Cu 0.42565 0.00604 0.5976   0.830507
 H 0.7461 0.2741 0.3503   0.131222
 H 0.8153 0.3626 0.3898   0.115948
 H 0.000399999999999 0.1523 0.3813   0.070317
 H 0.0513 0.2356 0.4362   0.067127
 H 0.958 0.0586 0.595   0.133365
 H 0.8422 0.1743 0.5937   0.113107
 H 0.8202 0.8572 0.835   0.080903
 H 0.6421 0.0201 0.8259   0.118296
 H 0.5052 0.8343 0.1769   0.130579
 H 0.6876 0.6768 0.1768   0.080739
 H 0.7539 0.6497 0.7259   0.131223
 H 0.6847 0.6102 0.6374   0.115963
 H 0.4996 0.6187 0.8477   0.070317
 H 0.4487 0.5638 0.7644   0.067127
 H 0.542 0.405 0.9414   0.133365
 H 0.6578 0.4063 0.8257   0.113108
 H 0.6798 0.165 0.1428   0.080903
 H 0.8579 0.1741 0.9799   0.118296
 H 0.9948 0.8231 0.1657   0.130581
 H 0.8124 0.8232 0.3232   0.080747
 H 0.2539 0.7259 0.6497   0.131218
 H 0.1847 0.6374 0.6102   0.115956
 H 0.9996 0.8477 0.6187   0.070312
 H 0.9487 0.7644 0.5638   0.067123
 H 0.042 0.9414 0.405   0.133362
 H 0.1578 0.8257 0.4063   0.113109
 H 0.1798 0.1428 0.165   0.080902
 H 0.3579 0.9799 0.1741   0.118297
 H 0.4948 0.1657 0.8231   0.130582
 H 0.3124 0.3232 0.8232   0.080741
 H 0.2461 0.3503 0.2741   0.131219
 H 0.3153 0.3898 0.3626   0.11597
 H 0.5004 0.3813 0.1523   0.070312
 H 0.5513 0.4362 0.2356   0.067123
 H 0.458 0.595 0.0586   0.133362
 H 0.3422 0.5937 0.1743   0.11311
 H 0.3202 0.835 0.8572   0.080901
 H 0.1421 0.8259 0.0201   0.118297
 H 0.0052 0.1769 0.8343   0.130584
 H 0.1876 0.1768 0.6768   0.080748
 C 0.9067 0.38012 0.22034   0.711091
 C 0.8448 0.30727 0.34987   -0.347156
 C 0.9593 0.20278 0.42518   -0.013618
 C 0.8791 0.12439 0.54859   -0.340213
 C 0.7388 0.06943 0.53941   0.700707
 C 0.7559 0.85226 0.90686   0.176945
 C 0.65 0.95011 0.90091   -0.18386
 C 0.5561 0.94766 0.00166   0.087072
 C 0.5706 0.84249 0.10449   -0.203542
 C 0.6792 0.74858 0.10358   0.160028
 C 0.5933 0.77966 0.61988   0.711092
 C 0.6552 0.65013 0.69273   -0.347162
 C 0.5407 0.57482 0.79722   -0.013616
 C 0.6209 0.45141 0.87561   -0.340214
 C 0.7612 0.46059 0.93057   0.700707
 C 0.7441 0.09314 0.14774   0.176945
 C 0.85 0.09909 0.04989   -0.183859
 C 0.9439 0.99834 0.05234   0.087073
 C 0.9294 0.89551 0.15751   -0.203545
 C 0.8208 0.89642 0.25142   0.16003
 C 0.0933 0.61988 0.77966   0.711091
 C 0.1552 0.69273 0.65013   -0.347158
 C 0.0407 0.79722 0.57482   -0.013615
 C 0.1209 0.87561 0.45141   -0.340214
 C 0.2612 0.93057 0.46059   0.700707
 C 0.2441 0.14774 0.09314   0.176947
 C 0.35 0.04989 0.09909   -0.183858
 C 0.4439 0.05234 0.99834   0.087067
 C 0.4294 0.15751 0.89551   -0.203541
 C 0.3208 0.25142 0.89642   0.160027
 C 0.4067 0.22034 0.38012   0.711091
 C 0.3448 0.34987 0.30727   -0.347163
 C 0.4593 0.42518 0.20278   -0.013613
 C 0.3791 0.54859 0.12439   -0.340215
 C 0.2388 0.53941 0.06943   0.700706
 C 0.2559 0.90686 0.85226   0.176947
 C 0.15 0.90091 0.95011   -0.183857
 C 0.0561 0.00166 0.94766   0.087068
 C 0.0706 0.10449 0.84249   -0.203545
 C 0.1792 0.10358 0.74858   0.160029
 N 0.7727 0.75255 0.00665   -0.321235
 N 0.7273 0.99335 0.24745   -0.321236
 N 0.2273 0.24745 0.99335   -0.321234
 N 0.2727 0.00665 0.75255   -0.321235
 O 0.8659 0.49128 0.17606   -0.580411
 O 0.9911 0.32412 0.16534   -0.572453
 O 0.7482 0.0414 0.4535   -0.567342
 O 0.6212 0.05724 0.61786   -0.578135
 O 0.6341 0.82394 0.50872   -0.580412
 O 0.5089 0.83466 0.67588   -0.572452
 O 0.7518 0.5465 0.9586   -0.567342
 O 0.8788 0.38214 0.94276   -0.578134
 O 0.1341 0.50872 0.82394   -0.580411
 O 0.0089 0.67588 0.83466   -0.572453
 O 0.2518 0.9586 0.5465   -0.567342
 O 0.3788 0.94276 0.38214   -0.578135
 O 0.3659 0.17606 0.49128   -0.580411
 O 0.4911 0.16534 0.32412   -0.572453
 O 0.2482 0.4535 0.0414   -0.567342
 O 0.1212 0.61786 0.05724   -0.578135
