{'_ref': 'TBD', '_srcid': 'CAKYAQ_clean', 'submitters': [{'name': 'Dalar Nazarian Jeff Camp and David Sholl', 'email': 'dalar@gatech.edu jcamp6@gatech.edu'}], '_method': 'VASP DFT with PBE;DDEC'}
data_CuH10C10NO4
_symmetry_space_group_name_H-M   'P 1'
_cell_length_a   8.52119962
_cell_length_b   12.48030030
_cell_length_c   12.48030000
_cell_angle_alpha   63.79900035
_cell_angle_beta   81.25699855
_cell_angle_gamma   81.25699809
_symmetry_Int_Tables_number   1
_chemical_formula_structural   CuH10C10NO4
_chemical_formula_sum   'Cu4 H40 C40 N4 O16'
_cell_volume   1171.62781434
_cell_formula_units_Z   4
loop_
 _symmetry_equiv_pos_site_id
 _symmetry_equiv_pos_as_xyz
  1  'x, y, z'
loop_
 _atom_site_label
 _atom_site_fract_x
 _atom_site_fract_y
 _atom_site_fract_z
 _atom_site_charge
 Cu 0.9247 0.59676 0.0084   0.840918
 Cu 0.5753 0.9916 0.40324   0.840918
 Cu 0.0753 0.40324 0.9916   0.840915
 Cu 0.4247 0.0084 0.59676   0.840915
 H 0.7485 0.2652 0.3448   0.131312
 H 0.8048 0.3563 0.3863   0.118059
 H 0.0511 0.2399 0.4317   0.069286
 H 0.0058 0.152 0.381   0.072689
 H 0.962 0.0607 0.5923   0.134185
 H 0.848 0.1756 0.5912   0.113919
 H 0.8272 0.8575 0.8389   0.085881
 H 0.65 0.0205 0.8281   0.12192
 H 0.5005 0.8335 0.1763   0.133895
 H 0.6802 0.6754 0.177   0.085436
 H 0.7515 0.6552 0.7348   0.131313
 H 0.6952 0.6137 0.6437   0.118079
 H 0.4489 0.5683 0.7601   0.069285
 H 0.4942 0.619 0.848   0.072689
 H 0.538 0.4077 0.9393   0.134185
 H 0.652 0.4088 0.8244   0.113921
 H 0.6728 0.1611 0.1425   0.08588
 H 0.85 0.1719 0.9795   0.12192
 H 0.9995 0.8237 0.1665   0.133896
 H 0.8198 0.823 0.3246   0.085443
 H 0.2515 0.7348 0.6552   0.131311
 H 0.1952 0.6437 0.6137   0.118069
 H 0.9489 0.7601 0.5683   0.069287
 H 0.9942 0.848 0.619   0.072686
 H 0.038 0.9393 0.4077   0.134184
 H 0.152 0.8244 0.4088   0.113922
 H 0.1728 0.1425 0.1611   0.08588
 H 0.35 0.9795 0.1719   0.121917
 H 0.4995 0.1665 0.8237   0.133896
 H 0.3198 0.3246 0.823   0.085439
 H 0.2485 0.3448 0.2652   0.131312
 H 0.3048 0.3863 0.3563   0.118089
 H 0.5511 0.4317 0.2399   0.069287
 H 0.5058 0.381 0.152   0.072686
 H 0.462 0.5923 0.0607   0.134184
 H 0.348 0.5912 0.1756   0.113925
 H 0.3272 0.8389 0.8575   0.085879
 H 0.15 0.8281 0.0205   0.121917
 H 0.000500000000002 0.1763 0.8335   0.133896
 H 0.1802 0.177 0.6754   0.085446
 C 0.9063 0.37731 0.21871   0.708813
 C 0.8422 0.30242 0.34662   -0.346661
 C 0.9616 0.20331 0.42251   -0.016027
 C 0.8827 0.12569 0.54689   -0.339591
 C 0.7403 0.07104 0.53928   0.699713
 C 0.7602 0.85255 0.90875   0.173129
 C 0.6547 0.95057 0.90197   -0.182841
 C 0.556 0.94776 0.00176   0.081377
 C 0.567 0.8414 0.1054   -0.201525
 C 0.6748 0.7473 0.1049   0.157162
 C 0.5937 0.78129 0.62269   0.708814
 C 0.6578 0.65338 0.69758   -0.346669
 C 0.5384 0.57749 0.79669   -0.016025
 C 0.6173 0.45311 0.87431   -0.339593
 C 0.7597 0.46072 0.92896   0.699713
 C 0.7398 0.09125 0.14745   0.173128
 C 0.8453 0.09803 0.04943   -0.182842
 C 0.944 0.99824 0.05224   0.081376
 C 0.933 0.8946 0.1586   -0.201527
 C 0.8252 0.8951 0.2527   0.157158
 C 0.0937 0.62269 0.78129   0.708813
 C 0.1578 0.69758 0.65338   -0.346665
 C 0.0384 0.79669 0.57749   -0.016026
 C 0.1173 0.87431 0.45311   -0.339592
 C 0.2597 0.92896 0.46072   0.699712
 C 0.2398 0.14745 0.09125   0.173127
 C 0.3453 0.04943 0.09803   -0.18284
 C 0.444 0.05224 0.99824   0.081361
 C 0.433 0.1586 0.8946   -0.201524
 C 0.3252 0.2527 0.8951   0.157161
 C 0.4063 0.21871 0.37731   0.708814
 C 0.3422 0.34662 0.30242   -0.346672
 C 0.4616 0.42251 0.20331   -0.016023
 C 0.3827 0.54689 0.12569   -0.339594
 C 0.2403 0.53928 0.07104   0.699712
 C 0.2602 0.90875 0.85255   0.173127
 C 0.1547 0.90197 0.95057   -0.182842
 C 0.056 0.00176 0.94776   0.081359
 C 0.067 0.1054 0.8414   -0.201526
 C 0.1748 0.1049 0.7473   0.157157
 N 0.772 0.75138 0.00898   -0.327342
 N 0.728 0.99102 0.24862   -0.327341
 N 0.228 0.24862 0.99102   -0.327341
 N 0.272 0.00898 0.75138   -0.32734
 O 0.8673 0.48885 0.17733   -0.582575
 O 0.9895 0.32432 0.16142   -0.577218
 O 0.7496 0.03826 0.45646   -0.57649
 O 0.621 0.06268 0.6152   -0.577426
 O 0.6327 0.82267 0.51115   -0.582575
 O 0.5105 0.83858 0.67568   -0.577218
 O 0.7504 0.54354 0.96174   -0.57649
 O 0.879 0.3848 0.93732   -0.577425
 O 0.1327 0.51115 0.82267   -0.582574
 O 0.0105 0.67568 0.83858   -0.577219
 O 0.2504 0.96174 0.54354   -0.57649
 O 0.379 0.93732 0.3848   -0.577425
 O 0.3673 0.17733 0.48885   -0.582574
 O 0.4895 0.16142 0.32432   -0.577218
 O 0.2496 0.45646 0.03826   -0.576489
 O 0.121 0.6152 0.06268   -0.577424
