{'_ref': 'TBD', '_srcid': 'CAKYAQ_clean', 'submitters': [{'name': 'Dalar Nazarian Jeff Camp and David Sholl', 'email': 'dalar@gatech.edu jcamp6@gatech.edu'}], '_method': 'VASP DFT with PBE;DDEC'}
data_CuH10C10NO4
_symmetry_space_group_name_H-M   'P 1'
_cell_length_a   8.56990019
_cell_length_b   12.53470054
_cell_length_c   12.53470000
_cell_angle_alpha   63.21099924
_cell_angle_beta   80.64160096
_cell_angle_gamma   80.64159840
_symmetry_Int_Tables_number   1
_chemical_formula_structural   CuH10C10NO4
_chemical_formula_sum   'Cu4 H40 C40 N4 O16'
_cell_volume   1179.86420633
_cell_formula_units_Z   4
loop_
 _symmetry_equiv_pos_site_id
 _symmetry_equiv_pos_as_xyz
  1  'x, y, z'
loop_
 _atom_site_label
 _atom_site_fract_x
 _atom_site_fract_y
 _atom_site_fract_z
 _atom_site_charge
 Cu 0.92432 0.59674 0.00762   0.838131
 Cu 0.57568 0.99238 0.40326   0.838132
 Cu 0.07568 0.40326 0.99238   0.838121
 Cu 0.42432 0.00762 0.59674   0.838121
 H 0.7478 0.2666 0.345   0.13234
 H 0.8049 0.3556 0.3868   0.116731
 H 0.0476 0.2365 0.4327   0.068173
 H 0.003 0.1511 0.3805   0.069395
 H 0.9588 0.0567 0.5921   0.134158
 H 0.8439 0.1709 0.5921   0.113261
 H 0.8236 0.8577 0.8369   0.083446
 H 0.6479 0.0215 0.8273   0.120368
 H 0.5044 0.8339 0.1761   0.13259
 H 0.6825 0.675 0.175   0.081992
 H 0.7522 0.655 0.7334   0.13234
 H 0.6951 0.6132 0.6444   0.116739
 H 0.4524 0.5673 0.7635   0.068173
 H 0.497 0.6195 0.8489   0.069396
 H 0.5412 0.4079 0.9433   0.134158
 H 0.6561 0.4079 0.8291   0.113263
 H 0.6764 0.1631 0.1423   0.083446
 H 0.8521 0.1727 0.9785   0.120368
 H 0.9956 0.8239 0.1661   0.132591
 H 0.8175 0.825 0.325   0.081997
 H 0.2522 0.7334 0.655   0.132337
 H 0.1951 0.6444 0.6132   0.116734
 H 0.9524 0.7635 0.5673   0.068169
 H 0.997 0.8489 0.6195   0.069391
 H 0.0412 0.9433 0.4079   0.134156
 H 0.1561 0.8291 0.4079   0.113263
 H 0.1764 0.1423 0.1631   0.083444
 H 0.3521 0.9785 0.1727   0.120372
 H 0.4956 0.1661 0.8239   0.132596
 H 0.3175 0.325 0.825   0.081992
 H 0.2478 0.345 0.2666   0.132337
 H 0.3049 0.3868 0.3556   0.116741
 H 0.5476 0.4327 0.2365   0.06817
 H 0.503 0.3805 0.1511   0.069391
 H 0.4588 0.5921 0.0567   0.134156
 H 0.3439 0.5921 0.1709   0.113265
 H 0.3236 0.8369 0.8577   0.083444
 H 0.1479 0.8273 0.0215   0.120372
 H 0.0044 0.1761 0.8339   0.132597
 H 0.1825 0.175 0.675   0.081998
 C 0.9059 0.37754 0.21954   0.712015
 C 0.8417 0.30218 0.34698   -0.346995
 C 0.9586 0.20142 0.42282   -0.011095
 C 0.8796 0.12217 0.54697   -0.34009
 C 0.7386 0.06839 0.53879   0.701258
 C 0.7581 0.85267 0.90747   0.173916
 C 0.6531 0.951 0.9012   -0.183578
 C 0.556 0.94742 0.00142   0.084269
 C 0.569 0.84192 0.10432   -0.205625
 C 0.6767 0.74732 0.10292   0.16207
 C 0.5941 0.78046 0.62246   0.712015
 C 0.6583 0.65302 0.69782   -0.346997
 C 0.5414 0.57718 0.79858   -0.011095
 C 0.6204 0.45303 0.87783   -0.340094
 C 0.7614 0.46121 0.93161   0.701257
 C 0.7419 0.09253 0.14733   0.173917
 C 0.8469 0.0988 0.049   -0.183575
 C 0.944 0.99858 0.05258   0.084271
 C 0.931 0.89568 0.15808   -0.205622
 C 0.8233 0.89708 0.25268   0.16207
 C 0.0941 0.62246 0.78046   0.712014
 C 0.1583 0.69782 0.65302   -0.346996
 C 0.0414 0.79858 0.57718   -0.011092
 C 0.1204 0.87783 0.45303   -0.34009
 C 0.2614 0.93161 0.46121   0.701257
 C 0.2419 0.14733 0.09253   0.173919
 C 0.3469 0.049 0.0988   -0.183576
 C 0.444 0.05258 0.99858   0.084275
 C 0.431 0.15808 0.89568   -0.205626
 C 0.3233 0.25268 0.89708   0.16207
 C 0.4059 0.21954 0.37754   0.712014
 C 0.3417 0.34698 0.30218   -0.346998
 C 0.4586 0.42282 0.20142   -0.011092
 C 0.3796 0.54697 0.12217   -0.340094
 C 0.2386 0.53879 0.06839   0.701256
 C 0.2581 0.90747 0.85267   0.17392
 C 0.1531 0.9012 0.951   -0.183573
 C 0.056 0.00142 0.94742   0.084276
 C 0.069 0.10432 0.84192   -0.205623
 C 0.1767 0.10292 0.74732   0.16207
 N 0.7717 0.75188 0.00728   -0.323797
 N 0.7283 0.99272 0.24812   -0.323797
 N 0.2283 0.24812 0.99272   -0.323795
 N 0.2717 0.00728 0.75188   -0.323796
 O 0.8654 0.48839 0.17693   -0.582284
 O 0.9909 0.32427 0.16305   -0.578624
 O 0.7488 0.03838 0.45496   -0.573579
 O 0.6199 0.0587 0.61526   -0.578456
 O 0.6346 0.82307 0.51161   -0.582285
 O 0.5091 0.83695 0.67573   -0.578625
 O 0.7512 0.54504 0.96162   -0.573578
 O 0.8801 0.38474 0.9413   -0.578456
 O 0.1346 0.51161 0.82307   -0.582284
 O 0.0091 0.67573 0.83695   -0.578626
 O 0.2512 0.96162 0.54504   -0.573578
 O 0.3801 0.9413 0.38474   -0.578458
 O 0.3654 0.17693 0.48839   -0.582284
 O 0.4909 0.16305 0.32427   -0.578626
 O 0.2488 0.45496 0.03838   -0.573577
 O 0.1199 0.61526 0.0587   -0.578458
