{'_ref': 'TBD', '_srcid': 'CAKYAQ_clean', 'submitters': [{'name': 'Dalar Nazarian Jeff Camp and David Sholl', 'email': 'dalar@gatech.edu jcamp6@gatech.edu'}], '_method': 'VASP DFT with PBE;DDEC'}
data_CuH12C11NO4
_symmetry_space_group_name_H-M   'P 1'
_cell_length_a   9.05899966
_cell_length_b   11.78399976
_cell_length_c   13.38953072
_cell_angle_alpha   116.10639549
_cell_angle_beta   90.93750641
_cell_angle_gamma   89.99999880
_symmetry_Int_Tables_number   1
_chemical_formula_structural   CuH12C11NO4
_chemical_formula_sum   'Cu4 H48 C44 N4 O16'
_cell_volume   1283.31166259
_cell_formula_units_Z   4
loop_
 _symmetry_equiv_pos_site_id
 _symmetry_equiv_pos_as_xyz
  1  'x, y, z'
loop_
 _atom_site_label
 _atom_site_fract_x
 _atom_site_fract_y
 _atom_site_fract_z
 _atom_site_charge
 Cu 0.58031 0.56692 0.588   0.797389
 Cu 0.91969 0.97892 0.412   0.797371
 Cu 0.41969 0.43308 0.412   0.797381
 Cu 0.08031 0.02108 0.588   0.797364
 H 0.5792 0.8176 0.4208   0.138343
 H 0.4255 0.8577 0.483   0.136781
 H 0.3113 0.7207 0.301   0.064396
 H 0.4686 0.7264 0.2508   0.053516
 H 0.4421 0.9597 0.3436   0.12956
 H 0.3398 0.885 0.235   0.113898
 H 0.7576 0.8075 0.6504   0.080199
 H 0.9298 0.9381 0.7758   0.13544
 H 0.8951 0.7284 0.9438   0.125725
 H 0.7198 0.6068 0.8156   0.077936
 H 0.1212 0.9523 0.9246   0.088861
 H 0.0738 0.8964 0.009   0.098441
 H 0.9208 0.3968 0.5792   0.138674
 H 0.0745 0.3747 0.517   0.136566
 H 0.1887 0.4197 0.699   0.063907
 H 0.0314 0.4756 0.7492   0.053466
 H 0.0579 0.6161 0.6564   0.129156
 H 0.1602 0.65 0.765   0.113358
 H 0.7424 0.1571 0.3496   0.079784
 H 0.5702 0.1623 0.2242   0.135764
 H 0.6049 0.7846 0.0562   0.125752
 H 0.7802 0.7912 0.1844   0.07769
 H 0.3788 0.0277 0.0754   0.088882
 H 0.4262 0.8874 0.991   0.098056
 H 0.4208 0.1824 0.5792   0.138343
 H 0.5745 0.1423 0.517   0.136782
 H 0.6887 0.2793 0.699   0.064397
 H 0.5314 0.2736 0.7492   0.053519
 H 0.5579 0.0403 0.6564   0.129561
 H 0.6602 0.115 0.765   0.113898
 H 0.2424 0.1925 0.3496   0.080199
 H 0.0702 0.0619 0.2242   0.135439
 H 0.1049 0.2716 0.0562   0.125726
 H 0.2802 0.3932 0.1844   0.077938
 H 0.8788 0.0477 0.0754   0.088861
 H 0.9262 0.1036 0.991   0.098441
 H 0.0792 0.6032 0.4208   0.138674
 H 0.9255 0.6253 0.483   0.136567
 H 0.8113 0.5803 0.301   0.063908
 H 0.9686 0.5244 0.2508   0.053468
 H 0.9421 0.3839 0.3436   0.129157
 H 0.8398 0.35 0.235   0.113358
 H 0.2576 0.8429 0.6504   0.079784
 H 0.4298 0.8377 0.7758   0.135763
 H 0.3951 0.2154 0.9438   0.125753
 H 0.2198 0.2088 0.8156   0.077692
 H 0.6212 0.9723 0.9246   0.088882
 H 0.5738 0.1126 0.009   0.098055
 C 0.4796 0.6757 0.4418   0.721889
 C 0.4762 0.7892 0.4204   -0.355503
 C 0.4016 0.7728 0.3132   -0.000136
 C 0.3597 0.8982 0.3124   -0.345279
 C 0.2247 0.9486 0.3808   0.715897
 C 0.7866 0.7911 0.7114   0.18216
 C 0.8875 0.8704 0.7862   -0.230846
 C 0.9277 0.8504 0.878   0.155195
 C 0.8668 0.7483 0.8848   -0.249087
 C 0.7652 0.6744 0.8066   0.171612
 C 0.0363 0.9368 0.9626   -0.169385
 C 0.0204 0.2339 0.5582   0.721489
 C 0.0238 0.3688 0.5796   -0.355882
 C 0.0984 0.4596 0.6868   0.000732
 C 0.1403 0.5858 0.6876   -0.344385
 C 0.2753 0.5678 0.6192   0.714913
 C 0.7134 0.0797 0.2886   0.182951
 C 0.6125 0.0842 0.2138   -0.231643
 C 0.5723 0.9724 0.122   0.155591
 C 0.6332 0.8635 0.1152   -0.249632
 C 0.7348 0.8678 0.1934   0.171741
 C 0.4637 0.9742 0.0374   -0.168989
 C 0.5204 0.3243 0.5582   0.721889
 C 0.5238 0.2108 0.5796   -0.355503
 C 0.5984 0.2272 0.6868   -0.000137
 C 0.6403 0.1018 0.6876   -0.345279
 C 0.7753 0.0514 0.6192   0.715897
 C 0.2134 0.2089 0.2886   0.182159
 C 0.1125 0.1296 0.2138   -0.230846
 C 0.0723 0.1496 0.122   0.155194
 C 0.1332 0.2517 0.1152   -0.249087
 C 0.2348 0.3256 0.1934   0.171611
 C 0.9637 0.0632 0.0374   -0.169389
 C 0.9796 0.7661 0.4418   0.721489
 C 0.9762 0.6312 0.4204   -0.355882
 C 0.9016 0.5404 0.3132   0.000731
 C 0.8597 0.4142 0.3124   -0.344385
 C 0.7247 0.4322 0.3808   0.714913
 C 0.2866 0.9203 0.7114   0.18295
 C 0.3875 0.9158 0.7862   -0.231643
 C 0.4277 0.0276 0.878   0.155591
 C 0.3668 0.1365 0.8848   -0.249632
 C 0.2652 0.1322 0.8066   0.17174
 C 0.5363 0.0258 0.9626   -0.168994
 N 0.7268 0.6929 0.7184   -0.33855
 N 0.7732 0.9745 0.2816   -0.338067
 N 0.2732 0.3071 0.2816   -0.338548
 N 0.2268 0.0255 0.7184   -0.338066
 O 0.549 0.69 0.5286   -0.589401
 O 0.4126 0.57826 0.37812   -0.561285
 O 0.1055 0.943 0.3306   -0.583201
 O 0.2402 0.99002 0.48284   -0.564452
 O 0.951 0.1614 0.4714   -0.589294
 O 0.0874 0.20014 0.62188   -0.561179
 O 0.3945 0.6124 0.6694   -0.583089
 O 0.2598 0.50718 0.51716   -0.56379
 O 0.451 0.31 0.4714   -0.5894
 O 0.5874 0.42174 0.62188   -0.561286
 O 0.8945 0.057 0.6694   -0.5832
 O 0.7598 0.00998 0.51716   -0.564452
 O 0.049 0.8386 0.5286   -0.589293
 O 0.9126 0.79986 0.37812   -0.56118
 O 0.6055 0.3876 0.3306   -0.583088
 O 0.7402 0.49282 0.48284   -0.563791
