{'_ref': 'TBD', '_srcid': 'CAKYAQ_clean', 'submitters': [{'name': 'Dalar Nazarian Jeff Camp and David Sholl', 'email': 'dalar@gatech.edu jcamp6@gatech.edu'}], '_method': 'VASP DFT with PBE;DDEC'}
data_CuH12C11NO4
_symmetry_space_group_name_H-M   'P 1'
_cell_length_a   8.63130003
_cell_length_b   13.05270036
_cell_length_c   13.76460000
_cell_angle_alpha   118.30299961
_cell_angle_beta   91.29689798
_cell_angle_gamma   90.00000103
_symmetry_Int_Tables_number   1
_chemical_formula_structural   CuH12C11NO4
_chemical_formula_sum   'Cu4 H48 C44 N4 O16'
_cell_volume   1364.90549343
_cell_formula_units_Z   4
loop_
 _symmetry_equiv_pos_site_id
 _symmetry_equiv_pos_as_xyz
  1  'x, y, z'
loop_
 _atom_site_label
 _atom_site_fract_x
 _atom_site_fract_y
 _atom_site_fract_z
 _atom_site_charge
 Cu 0.55394 0.99905 0.5895   0.845233
 Cu 0.94606 0.40955 0.4105   0.845769
 Cu 0.44606 0.000950000000003 0.4105   0.845228
 Cu 0.05394 0.59045 0.5895   0.845763
 H 0.2753 0.657 0.3946   0.131626
 H 0.371 0.6271 0.2866   0.117554
 H 0.5854 0.5726 0.3568   0.068493
 H 0.5047 0.6161 0.4734   0.070125
 H 0.4835 0.4104 0.3674   0.134964
 H 0.3952 0.4231 0.2702   0.111774
 H 0.7179 0.8292 0.6514   0.086123
 H 0.9074 0.8257 0.772   0.12964
 H 0.9 0.176 0.936   0.128953
 H 0.7121 0.1707 0.8116   0.079315
 H 0.1081 0.933 0.9162   0.076318
 H 0.1064 0.0724 0.9806   0.096419
 H 0.2247 0.2624 0.6054   0.132514
 H 0.129 0.3405 0.7134   0.117587
 H 0.9146 0.2158 0.6432   0.068142
 H 0.9953 0.1427 0.5266   0.069763
 H 0.0165 0.043 0.6326   0.134866
 H 0.1048 0.1529 0.7298   0.111664
 H 0.7821 0.1778 0.3486   0.086549
 H 0.5926 0.0537 0.228   0.129517
 H 0.6 0.24 0.064   0.129379
 H 0.7879 0.3591 0.1884   0.07907
 H 0.3919 0.0168 0.0838   0.076176
 H 0.3936 0.0918 0.0194   0.09565
 H 0.7247 0.343 0.6054   0.131628
 H 0.629 0.3729 0.7134   0.117565
 H 0.4146 0.4274 0.6432   0.068495
 H 0.4953 0.3839 0.5266   0.070126
 H 0.5165 0.5896 0.6326   0.134966
 H 0.6048 0.5769 0.7298   0.111774
 H 0.2821 0.1708 0.3486   0.086124
 H 0.0926 0.1743 0.228   0.129639
 H 0.1 0.824 0.064   0.128954
 H 0.2879 0.8293 0.1884   0.07932
 H 0.8919 0.067 0.0838   0.076318
 H 0.8936 0.9276 0.0194   0.096417
 H 0.7753 0.7376 0.3946   0.132515
 H 0.871 0.6595 0.2866   0.117597
 H 0.0854 0.7842 0.3568   0.068143
 H 0.0047 0.8573 0.4734   0.069764
 H 0.9835 0.957 0.3674   0.134868
 H 0.8952 0.8471 0.2702   0.111664
 H 0.2179 0.8222 0.6514   0.08655
 H 0.4074 0.9463 0.772   0.129516
 H 0.4 0.76 0.936   0.12938
 H 0.2121 0.6409 0.8116   0.079074
 H 0.6081 0.9832 0.9162   0.076176
 H 0.6064 0.9082 0.9806   0.095649
 C 0.4326 0.78462 0.41764   0.709664
 C 0.38 0.65918 0.36776   -0.344011
 C 0.4847 0.58034 0.39268   -0.015902
 C 0.4113 0.45966 0.35132   -0.342195
 C 0.2574 0.46383 0.40406   0.703702
 C 0.7548 0.9007 0.7104   0.187175
 C 0.8682 0.89799 0.78218   -0.221766
 C 0.9238 0.00118 0.86856   0.158204
 C 0.864 0.10324 0.87828   -0.249344
 C 0.7516 0.09931 0.80382   0.174008
 C 0.0404 0.00152 0.95224   -0.16534
 C 0.0674 0.36698 0.58236   0.709573
 C 0.12 0.29142 0.63224   -0.345682
 C 0.0153 0.18766 0.60732   -0.01432
 C 0.0887 0.10834 0.64868   -0.342464
 C 0.2426 0.05977 0.59594   0.70364
 C 0.7452 0.1903 0.2896   0.186605
 C 0.6318 0.11581 0.21782   -0.221014
 C 0.5762 0.13262 0.13144   0.157654
 C 0.636 0.22496 0.12172   -0.249512
 C 0.7484 0.29549 0.19618   0.173882
 C 0.4596 0.04928 0.04776   -0.16419
 C 0.5674 0.21538 0.58236   0.709665
 C 0.62 0.34082 0.63224   -0.344015
 C 0.5153 0.41966 0.60732   -0.015901
 C 0.5887 0.54034 0.64868   -0.342196
 C 0.7426 0.53617 0.59594   0.703703
 C 0.2452 0.0993 0.2896   0.187173
 C 0.1318 0.10201 0.21782   -0.221766
 C 0.0762 0.99882 0.13144   0.158203
 C 0.136 0.89676 0.12172   -0.249343
 C 0.2484 0.90069 0.19618   0.174007
 C 0.9596 0.99848 0.04776   -0.165346
 C 0.9326 0.63302 0.41764   0.709574
 C 0.88 0.70858 0.36776   -0.345686
 C 0.9847 0.81234 0.39268   -0.01432
 C 0.9113 0.89166 0.35132   -0.342465
 C 0.7574 0.94023 0.40406   0.70364
 C 0.2548 0.8097 0.7104   0.186603
 C 0.3682 0.88419 0.78218   -0.221015
 C 0.4238 0.86738 0.86856   0.157653
 C 0.364 0.77504 0.87828   -0.249511
 C 0.2516 0.70451 0.80382   0.17388
 C 0.5404 0.95072 0.95224   -0.164197
 N 0.6955 0.99986 0.72098   -0.354098
 N 0.8045 0.27888 0.27902   -0.354119
 N 0.3045 0.000140000000002 0.27902   -0.354096
 N 0.1955 0.72112 0.72098   -0.354117
 O 0.4927 0.83308 0.51336   -0.57459
 O 0.4084 0.83471 0.36028   -0.589343
 O 0.1536 0.39001 0.34678   -0.580378
 O 0.2429 0.54084 0.5009   -0.572568
 O 0.0073 0.31972 0.48664   -0.574252
 O 0.0916 0.47443 0.63972   -0.589531
 O 0.3464 0.04323 0.65322   -0.580373
 O 0.2571 0.03994 0.4991   -0.572302
 O 0.5073 0.16692 0.48664   -0.574589
 O 0.5916 0.16529 0.63972   -0.589343
 O 0.8464 0.60999 0.65322   -0.580378
 O 0.7571 0.45916 0.4991   -0.572569
 O 0.9927 0.68028 0.51336   -0.574251
 O 0.9084 0.52557 0.36028   -0.589531
 O 0.6536 0.95677 0.34678   -0.580371
 O 0.7429 0.96006 0.5009   -0.572303
