{'_ref': 'TBD', '_srcid': 'CAKYAQ_clean', 'submitters': [{'name': 'Dalar Nazarian Jeff Camp and David Sholl', 'email': 'dalar@gatech.edu jcamp6@gatech.edu'}], '_method': 'VASP DFT with PBE;DDEC'}
data_CuH16C16S2I
_symmetry_space_group_name_H-M   'P 1'
_cell_length_a   7.20100000
_cell_length_b   12.40000000
_cell_length_c   20.78400000
_cell_angle_alpha   90.00000000
_cell_angle_beta   90.00000000
_cell_angle_gamma   90.00000000
_symmetry_Int_Tables_number   1
_chemical_formula_structural   CuH16C16S2I
_chemical_formula_sum   'Cu4 H64 C64 S8 I4'
_cell_volume   1855.8532416
_cell_formula_units_Z   4
loop_
 _symmetry_equiv_pos_site_id
 _symmetry_equiv_pos_as_xyz
  1  'x, y, z'
loop_
 _atom_site_label
 _atom_site_fract_x
 _atom_site_fract_y
 _atom_site_fract_z
 _atom_site_charge
 Cu 0.23648 0.83781 0.75   0.049779
 Cu 0.26352 0.33781 0.25   0.049779
 Cu 0.76352 0.16219 0.25   0.049779
 Cu 0.73648 0.66219 0.75   0.049779
 H 0.3557 0.1757 0.8999   0.107294
 H 0.5049 0.2486 0.9897   0.092317
 H 0.2897 0.0108 0.1003   0.090569
 H 0.1536 0.9344 0.0099   0.094436
 H 0.101 0.9274 0.8998   0.106998
 H 0.1123 0.0335 0.8605   0.128
 H 0.3711 0.7801 0.9054   0.101484
 H 0.55 0.7808 0.8638   0.100605
 H 0.1443 0.6757 0.1001   0.107293
 H 0.9951 0.7486 0.0103   0.092317
 H 0.2103 0.5108 0.8997   0.090569
 H 0.3464 0.4344 0.9901   0.094435
 H 0.399 0.4274 0.1002   0.106998
 H 0.3877 0.5335 0.1395   0.128
 H 0.1289 0.2801 0.0946   0.101484
 H 0.95 0.2808 0.1362   0.100605
 H 0.6443 0.8243 0.3999   0.107294
 H 0.4951 0.7514 0.4897   0.092317
 H 0.7103 0.9892 0.6003   0.090569
 H 0.8464 0.0656 0.5099   0.094436
 H 0.899 0.0726 0.3998   0.106998
 H 0.8877 0.9665 0.3605   0.128
 H 0.6289 0.2199 0.4054   0.101484
 H 0.45 0.2192 0.3638   0.100605
 H 0.8557 0.3243 0.6001   0.107293
 H 0.0049 0.2514 0.5103   0.092317
 H 0.7897 0.4892 0.3997   0.090569
 H 0.6536 0.5656 0.4901   0.094435
 H 0.601 0.5726 0.6002   0.106998
 H 0.6123 0.4665 0.6395   0.128
 H 0.8711 0.7199 0.5946   0.101484
 H 0.05 0.7192 0.6362   0.100605
 H 0.6443 0.8243 0.1001   0.107293
 H 0.4951 0.7514 0.0103   0.092317
 H 0.7103 0.9892 0.8997   0.090569
 H 0.8464 0.0656 0.9901   0.094436
 H 0.899 0.0726 0.1002   0.106998
 H 0.8877 0.9665 0.1395   0.127999
 H 0.6289 0.2199 0.0946   0.101484
 H 0.45 0.2192 0.1362   0.100605
 H 0.8557 0.3243 0.8999   0.107292
 H 0.0049 0.2514 0.9897   0.092316
 H 0.7897 0.4892 0.1003   0.090569
 H 0.6536 0.5656 0.0099   0.094435
 H 0.601 0.5726 0.8998   0.106998
 H 0.6123 0.4665 0.8605   0.127999
 H 0.8711 0.7199 0.9054   0.101484
 H 0.05 0.7192 0.8638   0.100605
 H 0.3557 0.1757 0.6001   0.107293
 H 0.5049 0.2486 0.5103   0.092317
 H 0.2897 0.0108 0.3997   0.090569
 H 0.1536 0.9344 0.4901   0.094436
 H 0.101 0.9274 0.6002   0.106998
 H 0.1123 0.0335 0.6395   0.127999
 H 0.3711 0.7801 0.5946   0.101484
 H 0.55 0.7808 0.6362   0.100605
 H 0.1443 0.6757 0.3999   0.107292
 H 0.9951 0.7486 0.4897   0.092316
 H 0.2103 0.5108 0.6003   0.090569
 H 0.3464 0.4344 0.5099   0.094435
 H 0.399 0.4274 0.3998   0.106998
 H 0.3877 0.5335 0.3605   0.127999
 H 0.1289 0.2801 0.4054   0.101484
 H 0.95 0.2808 0.3638   0.100605
 C 0.3481 0.1398 0.9402   -0.127938
 C 0.4352 0.1839 0.9939   -0.131237
 C 0.421 0.1339 0.0537   0.063753
 C 0.3094 0.0425 0.0592   -0.121369
 C 0.227 0.9976 0.0054   -0.112998
 C 0.2496 0.0431 0.9452   0.049485
 C 0.1803 0.9843 0.8864   -0.168747
 C 0.4692 0.8237 0.8893   -0.14222
 C 0.1519 0.6398 0.0598   -0.127937
 C 0.0648 0.6839 0.0061   -0.131237
 C 0.079 0.6339 0.9463   0.063753
 C 0.1906 0.5425 0.9408   -0.121369
 C 0.273 0.4976 0.9946   -0.112997
 C 0.2504 0.5431 0.0548   0.049484
 C 0.3197 0.4843 0.1136   -0.168747
 C 0.0308 0.3237 0.1107   -0.14222
 C 0.6519 0.8602 0.4402   -0.127938
 C 0.5648 0.8161 0.4939   -0.131237
 C 0.579 0.8661 0.5537   0.063753
 C 0.6906 0.9575 0.5592   -0.121369
 C 0.773 0.0024 0.5054   -0.112998
 C 0.7504 0.9569 0.4452   0.049485
 C 0.8197 0.0157 0.3864   -0.168747
 C 0.5308 0.1763 0.3893   -0.14222
 C 0.8481 0.3602 0.5598   -0.127937
 C 0.9352 0.3161 0.5061   -0.131237
 C 0.921 0.3661 0.4463   0.063753
 C 0.8094 0.4575 0.4408   -0.121369
 C 0.727 0.5024 0.4946   -0.112997
 C 0.7496 0.4569 0.5548   0.049484
 C 0.6803 0.5157 0.6136   -0.168747
 C 0.9692 0.6763 0.6107   -0.14222
 C 0.6519 0.8602 0.0598   -0.127937
 C 0.5648 0.8161 0.0061   -0.131237
 C 0.579 0.8661 0.9463   0.063753
 C 0.6906 0.9575 0.9408   -0.121369
 C 0.773 0.0024 0.9946   -0.112998
 C 0.7504 0.9569 0.0548   0.049484
 C 0.8197 0.0157 0.1136   -0.168747
 C 0.5308 0.1763 0.1107   -0.14222
 C 0.8481 0.3602 0.9402   -0.127937
 C 0.9352 0.3161 0.9939   -0.131237
 C 0.921 0.3661 0.0537   0.063753
 C 0.8094 0.4575 0.0592   -0.121369
 C 0.727 0.5024 0.0054   -0.112998
 C 0.7496 0.4569 0.9452   0.049484
 C 0.6803 0.5157 0.8864   -0.168747
 C 0.9692 0.6763 0.8893   -0.14222
 C 0.3481 0.1398 0.5598   -0.127937
 C 0.4352 0.1839 0.5061   -0.131237
 C 0.421 0.1339 0.4463   0.063753
 C 0.3094 0.0425 0.4408   -0.121369
 C 0.227 0.9976 0.4946   -0.112998
 C 0.2496 0.0431 0.5548   0.049484
 C 0.1803 0.9843 0.6136   -0.168747
 C 0.4692 0.8237 0.6107   -0.14222
 C 0.1519 0.6398 0.4402   -0.127937
 C 0.0648 0.6839 0.4939   -0.131237
 C 0.079 0.6339 0.5537   0.063753
 C 0.1906 0.5425 0.5592   -0.121369
 C 0.273 0.4976 0.5054   -0.112998
 C 0.2504 0.5431 0.4452   0.049484
 C 0.3197 0.4843 0.3864   -0.168747
 C 0.0308 0.3237 0.3893   -0.14222
 S 0.3683 0.92702 0.83789   0.014023
 S 0.1317 0.42702 0.16211   0.014023
 S 0.6317 0.07298 0.33789   0.014023
 S 0.8683 0.57298 0.66211   0.014023
 S 0.6317 0.07298 0.16211   0.014023
 S 0.8683 0.57298 0.83789   0.014023
 S 0.3683 0.92702 0.66211   0.014023
 S 0.1317 0.42702 0.33789   0.014023
 I 0.87181 0.85935 0.75   -0.338686
 I 0.62819 0.35935 0.25   -0.338686
 I 0.12819 0.14065 0.25   -0.338686
 I 0.37181 0.64065 0.75   -0.338686
