{'_ref': 'TBD', '_srcid': 'CAKYAQ_clean', 'submitters': [{'name': 'Dalar Nazarian Jeff Camp and David Sholl', 'email': 'dalar@gatech.edu jcamp6@gatech.edu'}], '_method': 'VASP DFT with PBE;DDEC'}
data_MnH4(C2O)4
_symmetry_space_group_name_H-M   'P 1'
_cell_length_a   9.53399991
_cell_length_b   13.38839970
_cell_length_c   14.48170000
_cell_angle_alpha   79.94010097
_cell_angle_beta   70.78140185
_cell_angle_gamma   69.14189968
_symmetry_Int_Tables_number   1
_chemical_formula_structural   MnH4(C2O)4
_chemical_formula_sum   'Mn6 H24 C48 O24'
_cell_volume   1627.64327903
_cell_formula_units_Z   6
loop_
 _symmetry_equiv_pos_site_id
 _symmetry_equiv_pos_as_xyz
  1  'x, y, z'
loop_
 _atom_site_label
 _atom_site_fract_x
 _atom_site_fract_y
 _atom_site_fract_z
 _atom_site_charge
 Mn 0.3723 0.53244 0.1155   1.100401
 Mn 0.02024 0.96756 0.3845   1.100641
 Mn 0.6277 0.46756 0.8845   1.100401
 Mn 0.97976 0.03244 0.6155   1.100641
 Mn 0.28874 0.75 0.25   1.248029
 Mn 0.71126 0.25 0.75   1.248029
 H 0.6148 0.5442 0.4178   0.102807
 H 0.7231 0.4083 0.5207   0.089657
 H 0.8222 0.1961 0.3265   0.092241
 H 0.7015 0.331 0.2288   0.10523
 H 0.9655 0.673 0.4304   0.108325
 H 0.1747 0.357 0.4094   0.109488
 H 0.5768 0.9558 0.0822   0.10311
 H 0.6521 0.0917 0.9793   0.088365
 H 0.3448 0.3039 0.1735   0.093062
 H 0.2613 0.169 0.2712   0.103641
 H 0.0689 0.827 0.0696   0.1087
 H 0.9411 0.143 0.0906   0.108975
 H 0.3852 0.4558 0.5822   0.102807
 H 0.2769 0.5917 0.4793   0.089657
 H 0.1778 0.8039 0.6735   0.092241
 H 0.2985 0.669 0.7712   0.10523
 H 0.0345 0.327 0.5696   0.108325
 H 0.8253 0.643 0.5906   0.109488
 H 0.4232 0.0442 0.9178   0.10311
 H 0.3479 0.9083 0.0207   0.088365
 H 0.6552 0.6961 0.8265   0.093062
 H 0.7387 0.831 0.7288   0.103641
 H 0.9311 0.173 0.9304   0.1087
 H 0.0589 0.857 0.9094   0.108976
 C 0.55506 0.53708 0.2522   0.706449
 C 0.64276 0.45108 0.314   -0.118337
 C 0.65317 0.47366 0.4004   -0.057307
 C 0.7201 0.3925 0.4615   -0.031309
 C 0.78242 0.28791 0.43485   -0.16082
 C 0.77741 0.26588 0.3463   -0.035569
 C 0.70657 0.34686 0.2874   -0.058005
 C 0.84909 0.19897 0.50245   0.734545
 C 0.17819 0.53734 0.30088   0.687123
 C 0.08372 0.51798 0.40398   -0.124319
 C 0.9795 0.60332 0.45828   -0.047673
 C 0.10423 0.41474 0.4458   -0.057467
 C 0.34434 0.96292 0.2478   0.707221
 C 0.40784 0.04892 0.186   -0.118359
 C 0.52723 0.02634 0.0996   -0.05929
 C 0.5741 0.1075 0.0385   -0.027649
 C 0.50518 0.21209 0.06515   -0.162039
 C 0.38959 0.23412 0.1537   -0.038606
 C 0.34083 0.15314 0.2126   -0.053408
 C 0.55051 0.30103 0.99755   0.735869
 C 0.01641 0.96266 0.19912   0.68619
 C 0.00568 0.98202 0.09602   -0.122983
 C 0.0411 0.89668 0.04172   -0.048857
 C 0.96477 0.08526 0.0542   -0.056982
 C 0.44494 0.46292 0.7478   0.706449
 C 0.35724 0.54892 0.686   -0.118337
 C 0.34683 0.52634 0.5996   -0.057307
 C 0.2799 0.6075 0.5385   -0.031309
 C 0.21758 0.71209 0.56515   -0.16082
 C 0.22259 0.73412 0.6537   -0.035569
 C 0.29343 0.65314 0.7126   -0.058005
 C 0.15091 0.80103 0.49755   0.734545
 C 0.82181 0.46266 0.69912   0.687123
 C 0.91628 0.48202 0.59602   -0.124321
 C 0.0205 0.39668 0.54172   -0.047669
 C 0.89577 0.58526 0.5542   -0.057463
 C 0.65566 0.03708 0.7522   0.707221
 C 0.59216 0.95108 0.814   -0.118359
 C 0.47277 0.97366 0.9004   -0.05929
 C 0.4259 0.8925 0.9615   -0.027649
 C 0.49482 0.78791 0.93485   -0.162039
 C 0.61041 0.76588 0.8463   -0.038606
 C 0.65917 0.84686 0.7874   -0.053408
 C 0.44949 0.69897 0.00245   0.735869
 C 0.98359 0.03734 0.80088   0.68619
 C 0.99432 0.01798 0.90398   -0.122984
 C 0.9589 0.10332 0.95828   -0.048855
 C 0.03523 0.91474 0.9458   -0.05698
 O 0.48276 0.62793 0.28515   -0.61517
 O 0.55882 0.51046 0.1725   -0.630676
 O 0.83324 0.21612 0.5882   -0.639319
 O 0.9222 0.10615 0.47205   -0.643828
 O 0.17692 0.63021 0.26835   -0.654571
 O 0.25707 0.45844 0.25042   -0.586254
 O 0.39584 0.87207 0.21485   -0.616839
 O 0.24178 0.98954 0.3275   -0.630077
 O 0.63756 0.28388 0.9118   -0.640001
 O 0.5004 0.39385 0.02795   -0.644048
 O 0.07548 0.86979 0.23165   -0.654546
 O 0.96593 0.04156 0.24958   -0.585762
 O 0.51724 0.37207 0.71485   -0.61517
 O 0.44118 0.48954 0.8275   -0.630676
 O 0.16676 0.78388 0.4118   -0.639319
 O 0.0778 0.89385 0.52795   -0.643828
 O 0.82308 0.36979 0.73165   -0.654571
 O 0.74293 0.54156 0.74958   -0.586254
 O 0.60416 0.12793 0.78515   -0.616839
 O 0.75822 0.01046 0.6725   -0.630077
 O 0.36244 0.71612 0.0882   -0.640001
 O 0.4996 0.60615 0.97205   -0.644048
 O 0.92452 0.13021 0.76835   -0.654546
 O 0.03407 0.95844 0.75042   -0.585762
