{'_ref': 'TBD', '_srcid': 'CAKYAQ_clean', 'submitters': [{'name': 'Dalar Nazarian Jeff Camp and David Sholl', 'email': 'dalar@gatech.edu jcamp6@gatech.edu'}], '_method': 'VASP DFT with PBE;DDEC'}
data_CuH15C18(NO2)2
_symmetry_space_group_name_H-M   'P 1'
_cell_length_a   12.61000000
_cell_length_b   18.00299946
_cell_length_c   19.35600000
_cell_angle_alpha   104.36999971
_cell_angle_beta   90.00000000
_cell_angle_gamma   90.00000000
_symmetry_Int_Tables_number   1
_chemical_formula_structural   CuH15C18(NO2)2
_chemical_formula_sum   'Cu8 H120 C144 N16 O32'
_cell_volume   4256.67806614
_cell_formula_units_Z   8
loop_
 _symmetry_equiv_pos_site_id
 _symmetry_equiv_pos_as_xyz
  1  'x, y, z'
loop_
 _atom_site_label
 _atom_site_fract_x
 _atom_site_fract_y
 _atom_site_fract_z
 _atom_site_charge
 Cu 0.7428 0.74849 0.01047   0.819097
 Cu 0.2579 0.7572 0.03527   0.805206
 Cu 0.2428 0.75151 0.48953   0.819097
 Cu 0.7579 0.7428 0.46473   0.805206
 Cu 0.2572 0.25151 0.98953   0.819097
 Cu 0.7421 0.2428 0.96473   0.805206
 Cu 0.7572 0.24849 0.51047   0.819097
 Cu 0.2421 0.2572 0.53527   0.805206
 H 0.0385 0.2142 0.5872   0.079205
 H 0.9014 0.1309 0.5525   0.136059
 H 0.0663 0.0382 0.3739   0.141071
 H 0.1991 0.1223 0.4184   0.090377
 H 0.8087 0.0503 0.4375   0.105021
 H 0.868 0.9852 0.4624   0.095187
 H 0.9407 0.9405 0.3489   0.065447
 H 0.8844 0.007 0.3236   0.053544
 H 0.7179 0.9564 0.3495   0.095394
 H 0.7788 0.8866 0.3652   0.103051
 H 0.6213 0.9078 0.2427   0.143402
 H 0.6111 0.8422 0.1267   0.077478
 H 0.9238 0.8418 0.2433   0.146362
 H 0.9047 0.7807 0.1253   0.079508
 H 0.678 0.0178 0.9846   0.090363
 H 0.4512 0.2804 0.4693   0.083342
 H 0.5866 0.3657 0.4868   0.132496
 H 0.415 0.4995 0.6427   0.136021
 H 0.2856 0.4118 0.6192   0.091654
 H 0.6772 0.4739 0.568   0.107775
 H 0.6004 0.5393 0.5597   0.089508
 H 0.635 0.4982 0.6858   0.043848
 H 0.5604 0.5645 0.6772   0.056018
 H 0.7811 0.5673 0.6643   0.10115
 H 0.7064 0.6337 0.6554   0.114467
 H 0.574 0.6702 0.7734   0.135873
 H 0.5856 0.7278 0.8926   0.090877
 H 0.8752 0.6003 0.7751   0.142419
 H 0.8764 0.6528 0.8958   0.087014
 H 0.8227 0.4776 0.0113   0.090285
 H 0.5385 0.2858 0.9128   0.079205
 H 0.4014 0.3691 0.9475   0.136059
 H 0.5663 0.4618 0.1261   0.141071
 H 0.6991 0.3777 0.0816   0.090377
 H 0.3087 0.4497 0.0625   0.105021
 H 0.368 0.5148 0.0376   0.095187
 H 0.4407 0.5595 0.1511   0.065447
 H 0.3844 0.493 0.1764   0.053544
 H 0.2179 0.5436 0.1505   0.095394
 H 0.2788 0.6134 0.1348   0.103051
 H 0.1213 0.5922 0.2573   0.143402
 H 0.1111 0.6578 0.3733   0.077478
 H 0.4238 0.6582 0.2567   0.146362
 H 0.4047 0.7193 0.3747   0.079508
 H 0.178 0.4822 0.5154   0.090363
 H 0.9512 0.2196 0.0307   0.083342
 H 0.0866 0.1343 0.0132   0.132496
 H 0.915 0.000500000000002 0.8573   0.136021
 H 0.7856 0.0882 0.8808   0.091654
 H 0.1772 0.0261 0.932   0.107775
 H 0.1004 0.9607 0.9403   0.089508
 H 0.135 0.0018 0.8142   0.043848
 H 0.0604 0.9355 0.8228   0.056018
 H 0.2811 0.9327 0.8357   0.10115
 H 0.2064 0.8663 0.8446   0.114467
 H 0.074 0.8298 0.7266   0.135872
 H 0.0856 0.7722 0.6074   0.090877
 H 0.3752 0.8997 0.7249   0.142418
 H 0.3764 0.8472 0.6042   0.087014
 H 0.3227 0.0224 0.4887   0.090285
 H 0.9615 0.7858 0.4128   0.079204
 H 0.0986 0.8691 0.4475   0.136059
 H 0.9337 0.9618 0.6261   0.141069
 H 0.8009 0.8777 0.5816   0.090375
 H 0.1913 0.9497 0.5625   0.105021
 H 0.132 0.0148 0.5376   0.095187
 H 0.0593 0.0595 0.6511   0.065446
 H 0.1156 0.993 0.6764   0.053543
 H 0.2821 0.0436 0.6505   0.095394
 H 0.2212 0.1134 0.6348   0.103051
 H 0.3787 0.0922 0.7573   0.143399
 H 0.3889 0.1578 0.8733   0.077478
 H 0.0762 0.1582 0.7567   0.146361
 H 0.0953 0.2193 0.8747   0.079508
 H 0.322 0.9822 0.0154   0.090362
 H 0.5488 0.7196 0.5307   0.083341
 H 0.4134 0.6343 0.5132   0.132496
 H 0.585 0.5005 0.3573   0.136019
 H 0.7144 0.5882 0.3808   0.091654
 H 0.3228 0.5261 0.432   0.107775
 H 0.3996 0.4607 0.4403   0.089508
 H 0.365 0.5018 0.3142   0.043848
 H 0.4396 0.4355 0.3228   0.056017
 H 0.2189 0.4327 0.3357   0.10115
 H 0.2936 0.3663 0.3446   0.114467
 H 0.426 0.3298 0.2266   0.135872
 H 0.4144 0.2722 0.1074   0.090877
 H 0.1248 0.3997 0.2249   0.142416
 H 0.1236 0.3472 0.1042   0.087014
 H 0.1773 0.5224 0.9887   0.090285
 H 0.4615 0.7142 0.0872   0.079204
 H 0.5986 0.6309 0.0525   0.136059
 H 0.4337 0.5382 0.8739   0.141069
 H 0.3009 0.6223 0.9184   0.090375
 H 0.6913 0.5503 0.9375   0.105021
 H 0.632 0.4852 0.9624   0.095187
 H 0.5593 0.4405 0.8489   0.065446
 H 0.6156 0.507 0.8236   0.053543
 H 0.7821 0.4564 0.8495   0.095394
 H 0.7212 0.3866 0.8652   0.103051
 H 0.8787 0.4078 0.7427   0.143399
 H 0.8889 0.3422 0.6267   0.077478
 H 0.5762 0.3418 0.7433   0.146361
 H 0.5953 0.2807 0.6253   0.079508
 H 0.822 0.5178 0.4846   0.090362
 H 0.0488 0.7804 0.9693   0.083341
 H 0.9134 0.8657 0.9868   0.132496
 H 0.085 0.9995 0.1427   0.136019
 H 0.2144 0.9118 0.1192   0.091653
 H 0.8228 0.9739 0.068   0.107775
 H 0.8996 0.0393 0.0597   0.089508
 H 0.865 0.9982 0.1858   0.043848
 H 0.9396 0.0645 0.1772   0.056017
 H 0.7189 0.0673 0.1643   0.10115
 H 0.7936 0.1337 0.1554   0.114467
 H 0.926 0.1702 0.2734   0.135872
 H 0.9144 0.2278 0.3926   0.090877
 H 0.6248 0.1003 0.2751   0.142416
 H 0.6236 0.1528 0.3958   0.087014
 H 0.6773 0.9776 0.5113   0.090285
 C 0.044 0.1777 0.5439   0.187369
 C 0.9604 0.1283 0.5232   -0.235799
 C 0.9648 0.0738 0.4572   0.170074
 C 0.0581 0.0731 0.4179   -0.232527
 C 0.1372 0.1244 0.4449   0.193967
 C 0.8734 0.0202 0.4316   -0.199231
 C 0.8784 0.9731 0.3553   -0.090749
 C 0.7797 0.9239 0.3366   -0.192685
 C 0.7708 0.8811 0.2577   0.170788
 C 0.6803 0.8812 0.2206   -0.232875
 C 0.6754 0.8421 0.1502   0.203579
 C 0.859 0.8425 0.2205   -0.227544
 C 0.8465 0.806 0.1499   0.185364
 C 0.6487 0.8725 0.977   0.636434
 C 0.5693 0.9373 0.9866   -0.103236
 C 0.6059 0.0108 0.9909   -0.062104
 C 0.4589 0.9268 0.996   -0.066337
 C 0.4083 0.8506 0.9865   0.686087
 C 0.4445 0.3252 0.5054   0.201019
 C 0.5268 0.3763 0.5157   -0.231895
 C 0.5216 0.4433 0.5686   0.171127
 C 0.4251 0.4547 0.6071   -0.223388
 C 0.3482 0.4019 0.5931   0.172634
 C 0.6118 0.5003 0.5856   -0.185603
 C 0.6257 0.5377 0.6602   -0.060127
 C 0.7152 0.5937 0.6805   -0.199779
 C 0.7243 0.6297 0.7573   0.182484
 C 0.6377 0.6677 0.7969   -0.233128
 C 0.6438 0.7013 0.869   0.186912
 C 0.8151 0.6252 0.7973   -0.236261
 C 0.8156 0.6578 0.8702   0.184864
 C 0.85 0.6244 0.0479   0.664825
 C 0.9304 0.5613 0.026   -0.079875
 C 0.8945 0.4869 0.0065   -0.073166
 C 0.0382 0.5754 0.0203   -0.082499
 C 0.0867 0.6535 0.0505   0.666605
 C 0.544 0.3223 0.9561   0.187369
 C 0.4604 0.3717 0.9768   -0.235799
 C 0.4648 0.4262 0.0428   0.170074
 C 0.5581 0.4269 0.0821   -0.232527
 C 0.6372 0.3756 0.0551   0.193967
 C 0.3734 0.4798 0.0684   -0.199231
 C 0.3784 0.5269 0.1447   -0.090749
 C 0.2797 0.5761 0.1634   -0.192685
 C 0.2708 0.6189 0.2423   0.170788
 C 0.1803 0.6188 0.2794   -0.232875
 C 0.1754 0.6579 0.3498   0.203579
 C 0.359 0.6575 0.2795   -0.227544
 C 0.3465 0.694 0.3501   0.185364
 C 0.1487 0.6275 0.523   0.636434
 C 0.0693 0.5627 0.5134   -0.103236
 C 0.1059 0.4892 0.5091   -0.062104
 C 0.9589 0.5732 0.504   -0.066337
 C 0.9083 0.6494 0.5135   0.686087
 C 0.9445 0.1748 0.9946   0.201019
 C 0.0268 0.1237 0.9843   -0.231895
 C 0.0216 0.0567 0.9314   0.171127
 C 0.9251 0.0453 0.8929   -0.223388
 C 0.8482 0.0981 0.9069   0.172634
 C 0.1118 0.9997 0.9144   -0.185603
 C 0.1257 0.9623 0.8398   -0.060127
 C 0.2152 0.9063 0.8195   -0.199779
 C 0.2243 0.8703 0.7427   0.182484
 C 0.1377 0.8323 0.7031   -0.233128
 C 0.1438 0.7987 0.631   0.186912
 C 0.3151 0.8748 0.7027   -0.236261
 C 0.3156 0.8422 0.6298   0.184864
 C 0.35 0.8756 0.4521   0.664825
 C 0.4304 0.9387 0.474   -0.079875
 C 0.3945 0.0131 0.4935   -0.073166
 C 0.5382 0.9246 0.4797   -0.082499
 C 0.5867 0.8465 0.4495   0.666605
 C 0.956 0.8223 0.4561   0.187369
 C 0.0396 0.8717 0.4768   -0.235799
 C 0.0352 0.9262 0.5428   0.170074
 C 0.9419 0.9269 0.5821   -0.232527
 C 0.8628 0.8756 0.5551   0.193967
 C 0.1266 0.9798 0.5684   -0.199232
 C 0.1216 0.0269 0.6447   -0.090748
 C 0.2203 0.0761 0.6634   -0.192685
 C 0.2292 0.1189 0.7423   0.170788
 C 0.3197 0.1188 0.7794   -0.232874
 C 0.3246 0.1579 0.8498   0.203579
 C 0.141 0.1575 0.7795   -0.227544
 C 0.1535 0.194 0.8501   0.185364
 C 0.3513 0.1275 0.023   0.636435
 C 0.4307 0.0627 0.0134   -0.103239
 C 0.3941 0.9892 0.0091   -0.062097
 C 0.5411 0.0732 0.004   -0.06633
 C 0.5917 0.1494 0.0135   0.686086
 C 0.5555 0.6748 0.4946   0.20102
 C 0.4732 0.6237 0.4843   -0.231895
 C 0.4784 0.5567 0.4314   0.171127
 C 0.5749 0.5453 0.3929   -0.223387
 C 0.6518 0.5981 0.4069   0.172634
 C 0.3882 0.4997 0.4144   -0.185603
 C 0.3743 0.4623 0.3398   -0.060127
 C 0.2848 0.4063 0.3195   -0.199779
 C 0.2757 0.3703 0.2427   0.182484
 C 0.3623 0.3323 0.2031   -0.233128
 C 0.3562 0.2987 0.131   0.186912
 C 0.1849 0.3748 0.2027   -0.23626
 C 0.1844 0.3422 0.1298   0.184864
 C 0.15 0.3756 0.9521   0.664825
 C 0.0696 0.4387 0.974   -0.079876
 C 0.1055 0.5131 0.9935   -0.073165
 C 0.9618 0.4246 0.9797   -0.082499
 C 0.9133 0.3465 0.9495   0.666605
 C 0.456 0.6777 0.0439   0.187369
 C 0.5396 0.6283 0.0232   -0.235799
 C 0.5352 0.5738 0.9572   0.170074
 C 0.4419 0.5731 0.9179   -0.232527
 C 0.3628 0.6244 0.9449   0.193967
 C 0.6266 0.5202 0.9316   -0.199232
 C 0.6216 0.4731 0.8553   -0.090748
 C 0.7203 0.4239 0.8366   -0.192684
 C 0.7292 0.3811 0.7577   0.170788
 C 0.8197 0.3812 0.7206   -0.232874
 C 0.8246 0.3421 0.6502   0.203579
 C 0.641 0.3425 0.7205   -0.227544
 C 0.6535 0.306 0.6499   0.185364
 C 0.8513 0.3725 0.477   0.636435
 C 0.9307 0.4373 0.4866   -0.103239
 C 0.8941 0.5108 0.4909   -0.062097
 C 0.0411 0.4268 0.496   -0.06633
 C 0.0917 0.3506 0.4865   0.686086
 C 0.0555 0.8252 0.0054   0.20102
 C 0.9732 0.8763 0.0157   -0.231895
 C 0.9784 0.9433 0.0686   0.171127
 C 0.0749 0.9547 0.1071   -0.223387
 C 0.1518 0.9019 0.0931   0.172634
 C 0.8882 0.000300000000003 0.0856   -0.185603
 C 0.8743 0.0377 0.1602   -0.060127
 C 0.7848 0.0937 0.1805   -0.199779
 C 0.7757 0.1297 0.2573   0.182484
 C 0.8623 0.1677 0.2969   -0.233128
 C 0.8562 0.2013 0.369   0.186912
 C 0.6849 0.1252 0.2973   -0.23626
 C 0.6844 0.1578 0.3702   0.184864
 C 0.65 0.1244 0.5479   0.664825
 C 0.5696 0.0613 0.526   -0.079876
 C 0.6055 0.9869 0.5065   -0.073165
 C 0.4618 0.0754 0.5203   -0.082499
 C 0.4133 0.1535 0.5505   0.666605
 N 0.1309 0.1767 0.5066   -0.336467
 N 0.7538 0.8048 0.1139   -0.350027
 N 0.7333 0.6962 0.9057   -0.356021
 N 0.3566 0.3351 0.5429   -0.345354
 N 0.6309 0.3233 0.9934   -0.336467
 N 0.2538 0.6952 0.3861   -0.350027
 N 0.2333 0.8038 0.5943   -0.356021
 N 0.8566 0.1649 0.9571   -0.345354
 N 0.8691 0.8233 0.4934   -0.336467
 N 0.2462 0.1952 0.8861   -0.350027
 N 0.2667 0.3038 0.0943   -0.356021
 N 0.6434 0.6649 0.4571   -0.345354
 N 0.3691 0.6767 0.0066   -0.336467
 N 0.7462 0.3048 0.6139   -0.350027
 N 0.7667 0.1962 0.4057   -0.356021
 N 0.1434 0.8351 0.0429   -0.345354
 O 0.6248 0.8162 0.0029   -0.57885
 O 0.7354 0.8785 0.948   -0.611488
 O 0.4048 0.8072 0.9263   -0.612884
 O 0.3643 0.8389 0.0417   -0.617216
 O 0.8573 0.6781 0.017   -0.602525
 O 0.777 0.6185 0.0895   -0.614687
 O 0.1526 0.673 0.0098   -0.613115
 O 0.0619 0.691 0.1105   -0.605205
 O 0.1248 0.6838 0.4971   -0.57885
 O 0.2354 0.6215 0.552   -0.611488
 O 0.9048 0.6928 0.5737   -0.612884
 O 0.8643 0.6611 0.4583   -0.617216
 O 0.3573 0.8219 0.483   -0.602525
 O 0.277 0.8815 0.4105   -0.614687
 O 0.6526 0.827 0.4902   -0.613115
 O 0.5619 0.809 0.3895   -0.605205
 O 0.3752 0.1838 0.9971   -0.57885
 O 0.2646 0.1215 0.052   -0.611488
 O 0.5952 0.1928 0.0737   -0.612884
 O 0.6357 0.1611 0.9583   -0.617216
 O 0.1427 0.3219 0.983   -0.602525
 O 0.223 0.3815 0.9105   -0.614687
 O 0.8474 0.327 0.9902   -0.613115
 O 0.9381 0.309 0.8895   -0.605205
 O 0.8752 0.3162 0.5029   -0.57885
 O 0.7646 0.3785 0.448   -0.611488
 O 0.0952 0.3072 0.4263   -0.612884
 O 0.1357 0.3389 0.5417   -0.617216
 O 0.6427 0.1781 0.517   -0.602525
 O 0.723 0.1185 0.5895   -0.614687
 O 0.3474 0.173 0.5098   -0.613115
 O 0.4381 0.191 0.6105   -0.605205
