{'_ref': 'TBD', '_srcid': 'CAKYAQ_clean', 'submitters': [{'name': 'Dalar Nazarian Jeff Camp and David Sholl', 'email': 'dalar@gatech.edu jcamp6@gatech.edu'}], '_method': 'VASP DFT with PBE;DDEC'}
data_Mn2H44C49(N3O4)2
_symmetry_space_group_name_H-M   'P 1'
_cell_length_a   11.34750008
_cell_length_b   11.78600047
_cell_length_c   21.20300000
_cell_angle_alpha   96.25899824
_cell_angle_beta   90.97800149
_cell_angle_gamma   108.25800056
_symmetry_Int_Tables_number   1
_chemical_formula_structural   Mn2H44C49(N3O4)2
_chemical_formula_sum   'Mn4 H88 C98 N12 O16'
_cell_volume   2672.96436245
_cell_formula_units_Z   2
loop_
 _symmetry_equiv_pos_site_id
 _symmetry_equiv_pos_as_xyz
  1  'x, y, z'
loop_
 _atom_site_label
 _atom_site_fract_x
 _atom_site_fract_y
 _atom_site_fract_z
 _atom_site_charge
 Mn 0.13715 0.4777 0.24059   0.936569
 Mn 0.86285 0.5223 0.75941   0.936569
 Mn 0.0 0.0 0.5   1.1229
 Mn 0.5 0.5 0.0   1.107862
 H 0.0293 0.6609 0.3208   0.077934
 H 0.6015 0.601 0.8706   0.091961
 H 0.5457 0.6074 0.7669   0.133027
 H 0.3414 0.6463 0.1581   0.083895
 H 0.2632 0.4121 0.902   0.079124
 H 0.1982 0.4127 0.7998   0.109933
 H 0.5445 0.7691 0.1622   0.139499
 H 0.5624 0.7428 0.3486   0.130824
 H 0.0954 0.1223 0.3771   0.080508
 H 0.9637 0.826 0.3176   0.133321
 H 0.3614 0.6202 0.3395   0.07902
 H 0.7608 0.7921 0.2808   0.09331
 H 0.7271 0.9108 0.2939   0.106973
 H 0.8863 0.3844 0.1522   0.059262
 H 0.6885 0.251 0.1395   0.144389
 H 0.7485 0.1368 0.3051   0.135922
 H 0.018 0.8095 0.1311   0.152751
 H 0.7632 0.8192 0.1701   0.068105
 H 0.7519 0.9473 0.1904   0.072742
 H 0.2069 0.8826 0.451   0.074338
 H 0.3273 0.8659 0.367   0.125824
 H 0.287 0.4257 0.6825   0.106326
 H 0.2482 0.5397 0.7035   0.106468
 H 0.4475 0.662 0.6795   0.054677
 H 0.4787 0.5452 0.6543   0.06528
 H 0.086 0.6475 0.1393   0.076682
 H 0.2119 0.1122 0.2906   0.140641
 H 0.319 0.9939 0.2235   0.104427
 H 0.3699 0.9014 0.2535   0.087572
 H 0.9458 0.2695 0.3115   0.073129
 H 0.5701 0.0068 0.1974   0.096702
 H 0.5182 0.1079 0.1793   0.102129
 H 0.3411 0.7595 0.5275   0.130311
 H 0.5926 0.5984 0.5638   0.126316
 H 0.9002 0.3553 0.5633   0.090473
 H 0.944 0.9917 0.2562   0.096757
 H 0.9622 0.9813 0.1828   0.122639
 H 0.327 0.5011 0.572   0.099411
 H 0.2852 0.6109 0.5987   0.102285
 H 0.8772 0.3261 0.0367   0.105901
 H 0.5357 0.054 0.3041   0.071523
 H 0.4803 0.1522 0.2848   0.062589
 H 0.7273 0.724 0.503   0.066416
 H 0.4837 0.8795 0.4672   0.054108
 H 0.9707 0.3391 0.6792   0.077934
 H 0.3985 0.399 0.1294   0.091961
 H 0.4543 0.3926 0.2331   0.133026
 H 0.6586 0.3537 0.8419   0.083895
 H 0.7368 0.5879 0.098   0.079124
 H 0.8018 0.5873 0.2002   0.109933
 H 0.4555 0.2309 0.8378   0.139499
 H 0.4376 0.2572 0.6514   0.130825
 H 0.9046 0.8777 0.6229   0.080508
 H 0.0363 0.174 0.6824   0.133321
 H 0.6386 0.3798 0.6605   0.079021
 H 0.2392 0.2079 0.7192   0.09331
 H 0.2729 0.0892 0.7061   0.106973
 H 0.1137 0.6156 0.8478   0.059262
 H 0.3115 0.749 0.8605   0.144389
 H 0.2515 0.8632 0.6949   0.135922
 H 0.982 0.1905 0.8689   0.152751
 H 0.2368 0.1808 0.8299   0.068105
 H 0.2481 0.0527 0.8096   0.072742
 H 0.7931 0.1174 0.549   0.074337
 H 0.6727 0.1341 0.633   0.125824
 H 0.713 0.5743 0.3175   0.106326
 H 0.7518 0.4603 0.2965   0.106468
 H 0.5525 0.338 0.3205   0.054678
 H 0.5213 0.4548 0.3457   0.065281
 H 0.914 0.3525 0.8607   0.076682
 H 0.7881 0.8878 0.7094   0.140641
 H 0.681 0.0061 0.7765   0.104427
 H 0.6301 0.0986 0.7465   0.087572
 H 0.0542 0.7305 0.6885   0.073129
 H 0.4299 0.9932 0.8026   0.096702
 H 0.4818 0.8921 0.8207   0.102129
 H 0.6589 0.2405 0.4725   0.130311
 H 0.4074 0.4016 0.4362   0.126316
 H 0.0998 0.6447 0.4367   0.090473
 H 0.056 0.0083 0.7438   0.096757
 H 0.0378 0.0187 0.8172   0.122639
 H 0.673 0.4989 0.428   0.099411
 H 0.7148 0.3891 0.4013   0.102285
 H 0.1228 0.6739 0.9633   0.105901
 H 0.4643 0.946 0.6959   0.071523
 H 0.5197 0.8478 0.7152   0.06259
 H 0.2727 0.276 0.497   0.066417
 H 0.5163 0.1205 0.5328   0.054109
 C 0.9679 0.24313 0.46486   0.692067
 C 0.1154 0.4371 0.38513   0.656681
 C 0.9923 0.37787 0.48266   -0.068298
 C 0.0269 0.6909 0.28218   0.181165
 C 0.5192 0.5628 0.85623   0.208511
 C 0.4863 0.5667 0.79328   -0.241718
 C 0.0539 0.46669 0.44453   -0.108612
 C 0.3869 0.6651 0.19686   0.201198
 C 0.3208 0.4519 0.87465   0.194406
 C 0.281 0.4517 0.81288   -0.231374
 C 0.5097 0.7394 0.19879   -0.242518
 C 0.5795 0.7686 0.25593   0.156086
 C 0.5198 0.7233 0.30907   -0.225896
 C 0.1415 0.0693 0.37476   0.215888
 C 0.1036 0.3779 0.08851   0.683134
 C 0.9864 0.7903 0.28052   -0.258143
 C 0.9796 0.8367 0.22301   0.159086
 C 0.3642 0.5096 0.76967   0.164817
 C 0.3984 0.65 0.30332   0.166175
 C 0.7172 0.8411 0.26299   -0.204239
 C 0.8588 0.3329 0.18299   0.205211
 C 0.7387 0.2528 0.175   -0.237284
 C 0.6937 0.175 0.22064   0.149838
 C 0.7746 0.1849 0.27277   -0.227294
 C 0.019 0.7809 0.17024   -0.227077
 C 0.7825 0.8853 0.20416   -0.076192
 C 0.2072 0.9286 0.41798   0.213425
 C 0.2806 0.9183 0.36759   -0.23831
 C 0.284 0.9874 0.3176   0.16863
 C 0.318 0.5087 0.70198   -0.21152
 C 0.4119 0.58 0.65921   -0.075404
 C 0.0597 0.6827 0.17546   0.190747
 C 0.2123 0.0641 0.32254   -0.232976
 C 0.3613 0.981 0.26087   -0.190522
 C 0.8935 0.2661 0.27662   0.194339
 C 0.5638 0.0854 0.21229   -0.182764
 C 0.2691 0.5848 0.02779   0.682383
 C 0.4188 0.7495 0.52326   -0.250401
 C 0.5674 0.6549 0.54459   -0.242299
 C 0.9402 0.4133 0.53766   -0.080704
 C 0.9251 0.9367 0.21723   -0.201518
 C 0.3563 0.5824 0.59381   -0.18099
 C 0.9266 0.3964 0.02213   -0.076462
 C 0.4896 0.0745 0.27062   -0.076686
 C 0.6485 0.7312 0.50751   0.21427
 C 0.5059 0.8218 0.48682   0.186371
 C 0.4489 0.6628 0.55302   0.15104
 C 0.1283 0.5431 0.01612   -0.116116
 C 0.0537 0.4382 0.03926   -0.086172
 C 0.0321 0.75687 0.53514   0.692067
 C 0.8846 0.5629 0.61487   0.656681
 C 0.0077 0.62213 0.51734   -0.068296
 C 0.9731 0.3091 0.71782   0.181165
 C 0.4808 0.4372 0.14377   0.208511
 C 0.5137 0.4333 0.20672   -0.241717
 C 0.9461 0.53331 0.55547   -0.108618
 C 0.6131 0.3349 0.80314   0.201198
 C 0.6792 0.5481 0.12535   0.194406
 C 0.719 0.5483 0.18712   -0.231374
 C 0.4903 0.2606 0.80121   -0.242518
 C 0.4205 0.2314 0.74407   0.156086
 C 0.4802 0.2767 0.69093   -0.225896
 C 0.8585 0.9307 0.62524   0.215888
 C 0.8964 0.6221 0.91149   0.683134
 C 0.0136 0.2097 0.71948   -0.258144
 C 0.0204 0.1633 0.77699   0.159086
 C 0.6358 0.4904 0.23033   0.164817
 C 0.6016 0.35 0.69668   0.166175
 C 0.2828 0.1589 0.73701   -0.204239
 C 0.1412 0.6671 0.81701   0.205211
 C 0.2613 0.7472 0.825   -0.237284
 C 0.3063 0.825 0.77936   0.149838
 C 0.2254 0.8151 0.72723   -0.227294
 C 0.981 0.2191 0.82976   -0.227077
 C 0.2175 0.1147 0.79584   -0.076192
 C 0.7928 0.0714 0.58202   0.213426
 C 0.7194 0.0817 0.63241   -0.238309
 C 0.716 0.0126 0.6824   0.16863
 C 0.682 0.4913 0.29802   -0.21152
 C 0.5881 0.42 0.34079   -0.075405
 C 0.9403 0.3173 0.82454   0.190747
 C 0.7877 0.9359 0.67746   -0.232975
 C 0.6387 0.019 0.73913   -0.190522
 C 0.1065 0.7339 0.72338   0.194339
 C 0.4362 0.9146 0.78771   -0.182764
 C 0.7309 0.4152 0.97221   0.682383
 C 0.5812 0.2505 0.47674   -0.250401
 C 0.4326 0.3451 0.45541   -0.242298
 C 0.0598 0.5867 0.46234   -0.080711
 C 0.0749 0.0633 0.78277   -0.201518
 C 0.6437 0.4176 0.40619   -0.18099
 C 0.0734 0.6036 0.97787   -0.076464
 C 0.5104 0.9255 0.72938   -0.076686
 C 0.3515 0.2688 0.49249   0.21427
 C 0.4941 0.1782 0.51318   0.186371
 C 0.5511 0.3372 0.44698   0.15104
 C 0.8717 0.4569 0.98388   -0.116118
 C 0.9463 0.5618 0.96074   -0.086171
 N 0.4391 0.507 0.89741   -0.431484
 N 0.13648 0.00126 0.42198   -0.446489
 N 0.0629 0.63613 0.23059   -0.366008
 N 0.93779 0.3407 0.23237   -0.386224
 N 0.62 0.8133 0.47829   -0.467253
 N 0.33022 0.61899 0.24748   -0.384859
 N 0.5609 0.493 0.10259   -0.431484
 N 0.86352 0.99874 0.57802   -0.446489
 N 0.9371 0.36387 0.76941   -0.366008
 N 0.06221 0.6593 0.76763   -0.386224
 N 0.38 0.1867 0.52171   -0.467253
 N 0.66978 0.38101 0.75252   -0.384859
 O 0.12368 0.50655 0.34214   -0.636643
 O 0.0256 0.19191 0.49797   -0.668945
 O 0.15322 0.34796 0.38138   -0.605892
 O 0.88631 0.19187 0.42159   -0.629659
 O 0.15044 0.44396 0.13954   -0.658324
 O 0.0896 0.2674 0.07721   -0.629276
 O 0.31887 0.50349 0.02765   -0.662242
 O 0.32552 0.6953 0.035   -0.63805
 O 0.87632 0.49345 0.65786   -0.636643
 O 0.9744 0.80809 0.50203   -0.668945
 O 0.84678 0.65204 0.61862   -0.605892
 O 0.11369 0.80813 0.57841   -0.629659
 O 0.84956 0.55604 0.86046   -0.658324
 O 0.9104 0.7326 0.92279   -0.629276
 O 0.68113 0.49651 0.97235   -0.662242
 O 0.67448 0.3047 0.965   -0.63805
