{'_ref': 'TBD', '_srcid': 'CAKYAQ_clean', 'submitters': [{'name': 'Dalar Nazarian Jeff Camp and David Sholl', 'email': 'dalar@gatech.edu jcamp6@gatech.edu'}], '_method': 'VASP DFT with PBE;DDEC'}
data_ZnH14C20NO4
_symmetry_space_group_name_H-M   'P 1'
_cell_length_a   6.63999973
_cell_length_b   13.62610028
_cell_length_c   24.46750000
_cell_angle_alpha   75.88409944
_cell_angle_beta   82.20150120
_cell_angle_gamma   75.89800015
_symmetry_Int_Tables_number   1
_chemical_formula_structural   ZnH14C20NO4
_chemical_formula_sum   'Zn4 H56 C80 N4 O16'
_cell_volume   2075.35100328
_cell_formula_units_Z   4
loop_
 _symmetry_equiv_pos_site_id
 _symmetry_equiv_pos_as_xyz
  1  'x, y, z'
loop_
 _atom_site_label
 _atom_site_fract_x
 _atom_site_fract_y
 _atom_site_fract_z
 _atom_site_charge
 Zn 0.93847 0.90248 0.96912   0.941196
 Zn 0.81007 0.59752 0.53088   0.941131
 Zn 0.06153 0.09752 0.03088   0.941196
 Zn 0.18993 0.40248 0.46912   0.941131
 H 0.4401 0.9462 0.831   0.101974
 H 0.6196 0.0317 0.7533   0.10119
 H 0.0726 0.1943 0.6907   0.095557
 H 0.8934 0.1046 0.7672   0.100483
 H 0.7486 0.0753 0.6635   0.108108
 H 0.9348 0.179 0.5962   0.084853
 H 0.4337 0.4189 0.5865   0.10855
 H 0.2475 0.3156 0.654   0.105257
 H 0.544 0.8641 0.9243   0.106733
 H 0.4273 0.7155 0.9239   0.142255
 H 0.8696 0.5408 0.0278   0.128436
 H 0.9864 0.6892 0.0282   0.086701
 H 0.6831 0.4632 0.9682   0.097948
 H 0.4755 0.5357 0.9419   0.099619
 H 0.2173 0.5538 0.669   0.102864
 H 0.4046 0.4683 0.7467   0.101894
 H 0.9576 0.3057 0.8093   0.095383
 H 0.7652 0.3954 0.7328   0.099793
 H 0.4874 0.4247 0.8365   0.108364
 H 0.71 0.321 0.9038   0.085169
 H 0.4391 0.0811 0.9135   0.109307
 H 0.2171 0.1844 0.846   0.105032
 H 0.3324 0.6359 0.5757   0.107087
 H 0.0667 0.7845 0.5761   0.141677
 H 0.4382 0.9592 0.4722   0.127388
 H 0.7038 0.8108 0.4718   0.08622
 H 0.1145 0.0368 0.5318   0.098159
 H 0.9531 0.9643 0.5581   0.099736
 H 0.5599 0.0538 0.169   0.101974
 H 0.3804 0.9683 0.2467   0.10119
 H 0.9274 0.8057 0.3093   0.095557
 H 0.1066 0.8954 0.2328   0.100483
 H 0.2514 0.9247 0.3365   0.108108
 H 0.0652 0.821 0.4038   0.084853
 H 0.5663 0.5811 0.4135   0.10855
 H 0.7525 0.6844 0.346   0.105257
 H 0.456 0.1359 0.0757   0.106733
 H 0.5727 0.2845 0.0761   0.142255
 H 0.1304 0.4592 0.9722   0.128437
 H 0.0136 0.3108 0.9718   0.086701
 H 0.3169 0.5368 0.0318   0.097949
 H 0.5245 0.4643 0.0581   0.099619
 H 0.7827 0.4462 0.331   0.102864
 H 0.5954 0.5317 0.2533   0.101894
 H 0.0424 0.6943 0.1907   0.095383
 H 0.2348 0.6046 0.2672   0.099793
 H 0.5126 0.5753 0.1635   0.108364
 H 0.29 0.679 0.0962   0.085169
 H 0.5609 0.9189 0.0865   0.109307
 H 0.7829 0.8156 0.154   0.105032
 H 0.6676 0.3641 0.4243   0.107087
 H 0.9333 0.2155 0.4239   0.141677
 H 0.5618 0.0408 0.5278   0.127389
 H 0.2962 0.1892 0.5282   0.08622
 H 0.8855 0.9632 0.4682   0.098159
 H 0.0469 0.0357 0.4419   0.099736
 C 0.029 0.96748 0.85892   0.64809
 C 0.14795 0.017 0.8073   -0.137125
 C 0.36484 0.99635 0.80237   -0.035572
 C 0.47163 0.04796 0.75638   -0.126106
 C 0.36526 0.12417 0.71411   0.032393
 C 0.1483 0.1437 0.7191   -0.138626
 C 0.04129 0.09058 0.76484   -0.045099
 C 0.48005 0.18592 0.66738   0.064782
 C 0.68479 0.14559 0.64863   -0.158621
 C 0.79539 0.20734 0.60848   -0.031067
 C 0.70525 0.31059 0.58571   -0.177944
 C 0.49923 0.34952 0.60262   0.007173
 C 0.38853 0.28784 0.6429   -0.133311
 C 0.82886 0.37798 0.5451   0.688626
 C 0.6101 0.7985 0.9453   0.207773
 C 0.5407 0.7103 0.9451   -0.220897
 C 0.6374 0.6142 0.9758   0.162548
 C 0.8035 0.6064 0.0068   -0.244152
 C 0.8729 0.6946 0.007   0.170993
 C 0.5611 0.5192 0.9744   -0.166942
 C 0.8554 0.53252 0.64108   0.648535
 C 0.97225 0.483 0.6927   -0.136869
 C 0.16356 0.50365 0.69763   -0.037894
 C 0.27597 0.45204 0.74362   -0.124941
 C 0.20354 0.37583 0.78589   0.032617
 C 0.0111 0.3563 0.7809   -0.137288
 C 0.89671 0.40942 0.73516   -0.045216
 C 0.33335 0.31408 0.83262   0.062758
 C 0.47901 0.35441 0.85137   -0.158398
 C 0.61121 0.29266 0.89152   -0.031676
 C 0.60155 0.18941 0.91429   -0.177634
 C 0.45137 0.15048 0.89738   0.005863
 C 0.31927 0.21216 0.8571   -0.132774
 C 0.75194 0.12202 0.9549   0.687714
 C 0.3539 0.7015 0.5547   0.208175
 C 0.1961 0.7897 0.5549   -0.221321
 C 0.2274 0.8858 0.5242   0.164346
 C 0.4167 0.8936 0.4932   -0.243112
 C 0.5745 0.8054 0.493   0.171457
 C 0.0547 0.9808 0.5256   -0.166846
 C 0.971 0.03252 0.14108   0.64809
 C 0.85205 0.983 0.1927   -0.137125
 C 0.63516 0.00365 0.19763   -0.035572
 C 0.52837 0.95204 0.24362   -0.126106
 C 0.63474 0.87583 0.28589   0.032393
 C 0.8517 0.8563 0.2809   -0.138626
 C 0.95871 0.90942 0.23516   -0.045099
 C 0.51995 0.81408 0.33262   0.064782
 C 0.31521 0.85441 0.35137   -0.158621
 C 0.20461 0.79266 0.39152   -0.031067
 C 0.29475 0.68941 0.41429   -0.177944
 C 0.50077 0.65048 0.39738   0.007173
 C 0.61147 0.71216 0.3571   -0.133311
 C 0.17114 0.62202 0.4549   0.688626
 C 0.3899 0.2015 0.0547   0.207774
 C 0.4593 0.2897 0.0549   -0.220897
 C 0.3626 0.3858 0.0242   0.162548
 C 0.1965 0.3936 0.9932   -0.244152
 C 0.1271 0.3054 0.993   0.170994
 C 0.4389 0.4808 0.0256   -0.166942
 C 0.1446 0.46748 0.35892   0.648535
 C 0.02775 0.517 0.3073   -0.136869
 C 0.83644 0.49635 0.30237   -0.037894
 C 0.72403 0.54796 0.25638   -0.124941
 C 0.79646 0.62417 0.21411   0.032617
 C 0.9889 0.6437 0.2191   -0.137288
 C 0.10329 0.59058 0.26484   -0.045216
 C 0.66665 0.68592 0.16738   0.062758
 C 0.52099 0.64559 0.14863   -0.158398
 C 0.38879 0.70734 0.10848   -0.031675
 C 0.39845 0.81059 0.08571   -0.177634
 C 0.54863 0.84952 0.10262   0.005863
 C 0.68073 0.78784 0.1429   -0.132774
 C 0.24806 0.87798 0.0451   0.687714
 C 0.6461 0.2985 0.4453   0.208175
 C 0.8039 0.2103 0.4451   -0.221321
 C 0.7726 0.1142 0.4758   0.164346
 C 0.5833 0.1064 0.5068   -0.243112
 C 0.4255 0.1946 0.507   0.171457
 C 0.9453 0.0192 0.4744   -0.166846
 N 0.7762 0.7907 0.9763   -0.371413
 N 0.5432 0.7093 0.5237   -0.373917
 N 0.2238 0.2093 0.0237   -0.371413
 N 0.4568 0.2907 0.4763   -0.373917
 O 0.13226 0.92939 0.90329   -0.626521
 O 0.84557 0.96553 0.85753   -0.578498
 O 0.74027 0.47022 0.52404   -0.5966
 O 0.01878 0.33848 0.53376   -0.602099
 O 0.96494 0.57061 0.59671   -0.62732
 O 0.66863 0.53447 0.64247   -0.577967
 O 0.73453 0.02978 0.97596   -0.595829
 O 0.89102 0.16152 0.96624   -0.602313
 O 0.86774 0.07061 0.09671   -0.626521
 O 0.15443 0.03447 0.14247   -0.578498
 O 0.25973 0.52978 0.47596   -0.5966
 O 0.98122 0.66152 0.46624   -0.602099
 O 0.03506 0.42939 0.40329   -0.62732
 O 0.33137 0.46553 0.35753   -0.577967
 O 0.26547 0.97022 0.02404   -0.595829
 O 0.10898 0.83848 0.03376   -0.602313
