{'_ref': 'TBD', '_srcid': 'CAKYAQ_clean', 'submitters': [{'name': 'Dalar Nazarian Jeff Camp and David Sholl', 'email': 'dalar@gatech.edu jcamp6@gatech.edu'}], '_method': 'VASP DFT with PBE;DDEC'}
data_TiH12(C5O)4
_symmetry_space_group_name_H-M   'P 1'
_cell_length_a   11.09500000
_cell_length_b   17.97000000
_cell_length_c   19.48400000
_cell_angle_alpha   90.00000000
_cell_angle_beta   90.00000000
_cell_angle_gamma   90.00000000
_symmetry_Int_Tables_number   1
_chemical_formula_structural   TiH12(C5O)4
_chemical_formula_sum   'Ti8 H96 C160 O32'
_cell_volume   3884.6643906
_cell_formula_units_Z   8
loop_
 _symmetry_equiv_pos_site_id
 _symmetry_equiv_pos_as_xyz
  1  'x, y, z'
loop_
 _atom_site_label
 _atom_site_fract_x
 _atom_site_fract_y
 _atom_site_fract_z
 _atom_site_charge
 Ti 0.0997 0.4585 0.5538   1.88135
 Ti 0.4003 0.5415 0.0538   1.88135
 Ti 0.9003 0.9585 0.9462   1.88135
 Ti 0.5997 0.0415 0.4462   1.88135
 Ti 0.9003 0.5415 0.4462   1.88135
 Ti 0.5997 0.4585 0.9462   1.88135
 Ti 0.0997 0.0415 0.0538   1.88135
 Ti 0.4003 0.9585 0.5538   1.88135
 H 0.2321 0.8016 0.4981   0.136927
 H 0.1272 0.6762 0.5085   0.140541
 H 0.2408 0.5057 0.3925   0.136118
 H 0.3919 0.5765 0.3479   0.084608
 H 0.4991 0.6973 0.3405   0.102388
 H 0.5175 0.8193 0.3719   0.125204
 H 0.6993 0.61 0.8045   0.137791
 H 0.6829 0.6357 0.689   0.109174
 H 0.5739 0.6204 0.5777   0.111053
 H 0.4276 0.5656 0.5143   0.123555
 H 0.3056 0.4583 0.6818   0.126916
 H 0.4077 0.4779 0.7948   0.131611
 H 0.2679 0.1984 0.9981   0.136927
 H 0.3728 0.3238 0.0085   0.140541
 H 0.2592 0.4943 0.8925   0.136117
 H 0.1081 0.4235 0.8479   0.084608
 H 0.000900000000001 0.3027 0.8405   0.102388
 H 0.9825 0.1807 0.8719   0.125204
 H 0.8007 0.39 0.3045   0.137791
 H 0.8171 0.3643 0.189   0.109174
 H 0.9261 0.3796 0.0777   0.111053
 H 0.0724 0.4344 0.0143   0.123555
 H 0.1944 0.5417 0.1818   0.126916
 H 0.0923 0.5221 0.2948   0.13161
 H 0.7679 0.3016 0.0019   0.136928
 H 0.8728 0.1762 0.9915   0.140541
 H 0.7592 0.0057 0.1075   0.136118
 H 0.6081 0.0765 0.1521   0.084608
 H 0.5009 0.1973 0.1595   0.102388
 H 0.4825 0.3193 0.1281   0.125204
 H 0.3007 0.11 0.6955   0.137791
 H 0.3171 0.1357 0.811   0.109174
 H 0.4261 0.1204 0.9223   0.111053
 H 0.5724 0.0656 0.9857   0.123555
 H 0.6944 0.9583 0.8182   0.126916
 H 0.5923 0.9779 0.7052   0.131611
 H 0.7321 0.6984 0.5019   0.136928
 H 0.6272 0.8238 0.4915   0.140541
 H 0.7408 0.9943 0.6075   0.136117
 H 0.8919 0.9235 0.6521   0.084608
 H 0.9991 0.8027 0.6595   0.102388
 H 0.0175 0.6807 0.6281   0.125204
 H 0.1993 0.89 0.1955   0.137791
 H 0.1829 0.8643 0.311   0.109174
 H 0.0739 0.8796 0.4223   0.111053
 H 0.9276 0.9344 0.4857   0.123555
 H 0.8056 0.0417 0.3182   0.126916
 H 0.9077 0.0221 0.2052   0.13161
 H 0.7679 0.1984 0.5019   0.136927
 H 0.8728 0.3238 0.4915   0.140541
 H 0.7592 0.4943 0.6075   0.136118
 H 0.6081 0.4235 0.6521   0.084608
 H 0.5009 0.3027 0.6595   0.102388
 H 0.4825 0.1807 0.6281   0.125204
 H 0.3007 0.39 0.1955   0.137791
 H 0.3171 0.3643 0.311   0.109174
 H 0.4261 0.3796 0.4223   0.111053
 H 0.5724 0.4344 0.4857   0.123555
 H 0.6944 0.5417 0.3182   0.126916
 H 0.5923 0.5221 0.2052   0.131611
 H 0.7321 0.8016 0.0019   0.136927
 H 0.6272 0.6762 0.9915   0.140541
 H 0.7408 0.5057 0.1075   0.136117
 H 0.8919 0.5765 0.1521   0.084608
 H 0.9991 0.6973 0.1595   0.102388
 H 0.0175 0.8193 0.1281   0.125204
 H 0.1993 0.61 0.6955   0.137791
 H 0.1829 0.6357 0.811   0.109174
 H 0.0739 0.6204 0.9223   0.111053
 H 0.9276 0.5656 0.9857   0.123555
 H 0.8056 0.4583 0.8182   0.126916
 H 0.9077 0.4779 0.7052   0.13161
 H 0.2321 0.6984 0.9981   0.136928
 H 0.1272 0.8238 0.0085   0.140541
 H 0.2408 0.9943 0.8925   0.136118
 H 0.3919 0.9235 0.8479   0.084608
 H 0.4991 0.8027 0.8405   0.102388
 H 0.5175 0.6807 0.8719   0.125204
 H 0.6993 0.89 0.3045   0.137791
 H 0.6829 0.8643 0.189   0.109174
 H 0.5739 0.8796 0.0777   0.111053
 H 0.4276 0.9344 0.0143   0.123555
 H 0.3056 0.0417 0.1818   0.126916
 H 0.4077 0.0221 0.2948   0.131611
 H 0.2679 0.3016 0.4981   0.136928
 H 0.3728 0.1762 0.5085   0.140541
 H 0.2592 0.0057 0.3925   0.136117
 H 0.1081 0.0765 0.3479   0.084608
 H 0.000900000000001 0.1973 0.3405   0.102388
 H 0.9825 0.3193 0.3719   0.125204
 H 0.8007 0.11 0.8045   0.137791
 H 0.8171 0.1357 0.689   0.109174
 H 0.9261 0.1204 0.5777   0.111053
 H 0.0724 0.0656 0.5143   0.123555
 H 0.1944 0.9583 0.6818   0.126916
 H 0.0923 0.9779 0.7948   0.13161
 C 0.3747 0.8215 0.4376   0.367189
 C 0.2847 0.7801 0.4666   -0.349214
 C 0.2723 0.7039 0.4482   0.128817
 C 0.1799 0.6573 0.4758   -0.281956
 C 0.1681 0.5852 0.4546   0.333146
 C 0.249 0.555 0.4061   -0.223879
 C 0.3388 0.5974 0.3793   -0.072507
 C 0.3527 0.6736 0.3987   -0.016467
 C 0.4449 0.7177 0.3717   -0.090425
 C 0.4561 0.7903 0.3904   -0.202655
 C 0.552 0.5412 0.8104   0.349611
 C 0.6374 0.589 0.7788   -0.218918
 C 0.6275 0.604 0.7096   -0.064192
 C 0.535 0.5723 0.6697   -0.01529
 C 0.5213 0.5873 0.5988   -0.054576
 C 0.434 0.5549 0.5609   -0.205776
 C 0.3512 0.5043 0.5921   0.385497
 C 0.3606 0.4903 0.6612   -0.312847
 C 0.4508 0.5231 0.7018   0.132547
 C 0.4624 0.5093 0.7732   -0.299351
 C 0.1253 0.1785 0.9376   0.367189
 C 0.2153 0.2199 0.9666   -0.349214
 C 0.2277 0.2961 0.9482   0.128817
 C 0.3201 0.3427 0.9758   -0.281956
 C 0.3319 0.4148 0.9546   0.333146
 C 0.251 0.445 0.9061   -0.223879
 C 0.1612 0.4026 0.8793   -0.072507
 C 0.1473 0.3264 0.8987   -0.016467
 C 0.0551 0.2823 0.8717   -0.090425
 C 0.0439 0.2097 0.8904   -0.202655
 C 0.948 0.4588 0.3104   0.349611
 C 0.8626 0.411 0.2788   -0.218918
 C 0.8725 0.396 0.2096   -0.064192
 C 0.965 0.4277 0.1697   -0.01529
 C 0.9787 0.4127 0.0988   -0.054576
 C 0.066 0.4451 0.0609   -0.205776
 C 0.1488 0.4957 0.0921   0.385497
 C 0.1394 0.5097 0.1612   -0.312847
 C 0.0492 0.4769 0.2018   0.132547
 C 0.0376 0.4907 0.2732   -0.299351
 C 0.6253 0.3215 0.0624   0.367189
 C 0.7153 0.2801 0.0334   -0.349214
 C 0.7277 0.2039 0.0518   0.128817
 C 0.8201 0.1573 0.0242   -0.281956
 C 0.8319 0.0852 0.0454   0.333146
 C 0.751 0.055 0.0939   -0.223879
 C 0.6612 0.0974 0.1207   -0.072507
 C 0.6473 0.1736 0.1013   -0.016467
 C 0.5551 0.2177 0.1283   -0.090425
 C 0.5439 0.2903 0.1096   -0.202655
 C 0.448 0.0412 0.6896   0.349611
 C 0.3626 0.089 0.7212   -0.218918
 C 0.3725 0.104 0.7904   -0.064192
 C 0.465 0.0723 0.8303   -0.01529
 C 0.4787 0.0873 0.9012   -0.054577
 C 0.566 0.0549 0.9391   -0.205776
 C 0.6488 0.0043 0.9079   0.385497
 C 0.6394 0.9903 0.8388   -0.312847
 C 0.5492 0.0231 0.7982   0.132547
 C 0.5376 0.0093 0.7268   -0.299351
 C 0.8747 0.6785 0.5624   0.367189
 C 0.7847 0.7199 0.5334   -0.349214
 C 0.7723 0.7961 0.5518   0.128817
 C 0.6799 0.8427 0.5242   -0.281956
 C 0.6681 0.9148 0.5454   0.333146
 C 0.749 0.945 0.5939   -0.223879
 C 0.8388 0.9026 0.6207   -0.072507
 C 0.8527 0.8264 0.6013   -0.016467
 C 0.9449 0.7823 0.6283   -0.090425
 C 0.9561 0.7097 0.6096   -0.202655
 C 0.052 0.9588 0.1896   0.349611
 C 0.1374 0.911 0.2212   -0.218918
 C 0.1275 0.896 0.2904   -0.064192
 C 0.035 0.9277 0.3303   -0.01529
 C 0.0213 0.9127 0.4012   -0.054577
 C 0.934 0.9451 0.4391   -0.205776
 C 0.8512 0.9957 0.4079   0.385497
 C 0.8606 0.0097 0.3388   -0.312847
 C 0.9508 0.9769 0.2982   0.132547
 C 0.9624 0.9907 0.2268   -0.299351
 C 0.6253 0.1785 0.5624   0.367189
 C 0.7153 0.2199 0.5334   -0.349214
 C 0.7277 0.2961 0.5518   0.128817
 C 0.8201 0.3427 0.5242   -0.281956
 C 0.8319 0.4148 0.5454   0.333146
 C 0.751 0.445 0.5939   -0.223879
 C 0.6612 0.4026 0.6207   -0.072507
 C 0.6473 0.3264 0.6013   -0.016467
 C 0.5551 0.2823 0.6283   -0.090425
 C 0.5439 0.2097 0.6096   -0.202656
 C 0.448 0.4588 0.1896   0.349611
 C 0.3626 0.411 0.2212   -0.218918
 C 0.3725 0.396 0.2904   -0.064193
 C 0.465 0.4277 0.3303   -0.01529
 C 0.4787 0.4127 0.4012   -0.054576
 C 0.566 0.4451 0.4391   -0.205776
 C 0.6488 0.4957 0.4079   0.385497
 C 0.6394 0.5097 0.3388   -0.312847
 C 0.5492 0.4769 0.2982   0.132547
 C 0.5376 0.4907 0.2268   -0.299351
 C 0.8747 0.8215 0.0624   0.367189
 C 0.7847 0.7801 0.0334   -0.349214
 C 0.7723 0.7039 0.0518   0.128817
 C 0.6799 0.6573 0.0242   -0.281956
 C 0.6681 0.5852 0.0454   0.333146
 C 0.749 0.555 0.0939   -0.223879
 C 0.8388 0.5974 0.1207   -0.072507
 C 0.8527 0.6736 0.1013   -0.016467
 C 0.9449 0.7177 0.1283   -0.090425
 C 0.9561 0.7903 0.1096   -0.202656
 C 0.052 0.5412 0.6896   0.349611
 C 0.1374 0.589 0.7212   -0.218918
 C 0.1275 0.604 0.7904   -0.064193
 C 0.035 0.5723 0.8303   -0.01529
 C 0.0213 0.5873 0.9012   -0.054576
 C 0.934 0.5549 0.9391   -0.205776
 C 0.8512 0.5043 0.9079   0.385497
 C 0.8606 0.4903 0.8388   -0.312847
 C 0.9508 0.5231 0.7982   0.132547
 C 0.9624 0.5093 0.7268   -0.299351
 C 0.3747 0.6785 0.9376   0.367189
 C 0.2847 0.7199 0.9666   -0.349214
 C 0.2723 0.7961 0.9482   0.128817
 C 0.1799 0.8427 0.9758   -0.281956
 C 0.1681 0.9148 0.9546   0.333146
 C 0.249 0.945 0.9061   -0.223879
 C 0.3388 0.9026 0.8793   -0.072507
 C 0.3527 0.8264 0.8987   -0.016467
 C 0.4449 0.7823 0.8717   -0.090425
 C 0.4561 0.7097 0.8904   -0.202656
 C 0.552 0.9588 0.3104   0.349611
 C 0.6374 0.911 0.2788   -0.218918
 C 0.6275 0.896 0.2096   -0.064193
 C 0.535 0.9277 0.1697   -0.01529
 C 0.5213 0.9127 0.0988   -0.054577
 C 0.434 0.9451 0.0609   -0.205776
 C 0.3512 0.9957 0.0921   0.385497
 C 0.3606 0.0097 0.1612   -0.312847
 C 0.4508 0.9769 0.2018   0.132547
 C 0.4624 0.9907 0.2732   -0.299351
 C 0.1253 0.3215 0.4376   0.367189
 C 0.2153 0.2801 0.4666   -0.349214
 C 0.2277 0.2039 0.4482   0.128817
 C 0.3201 0.1573 0.4758   -0.281956
 C 0.3319 0.0852 0.4546   0.333146
 C 0.251 0.055 0.4061   -0.223879
 C 0.1612 0.0974 0.3793   -0.072507
 C 0.1473 0.1736 0.3987   -0.016467
 C 0.0551 0.2177 0.3717   -0.090425
 C 0.0439 0.2903 0.3904   -0.202656
 C 0.948 0.0412 0.8104   0.349611
 C 0.8626 0.089 0.7788   -0.218918
 C 0.8725 0.104 0.7096   -0.064193
 C 0.965 0.0723 0.6697   -0.01529
 C 0.9787 0.0873 0.5988   -0.054577
 C 0.066 0.0549 0.5609   -0.205776
 C 0.1488 0.0043 0.5921   0.385497
 C 0.1394 0.9903 0.6612   -0.312847
 C 0.0492 0.0231 0.7018   0.132547
 C 0.0376 0.0093 0.7732   -0.299351
 O 0.3838 0.8963 0.4536   -0.652266
 O 0.0771 0.5413 0.4801   -0.719297
 O 0.5601 0.5316 0.88   -0.612769
 O 0.2634 0.4727 0.5533   -0.651657
 O 0.1162 0.1037 0.9536   -0.652266
 O 0.4229 0.4587 0.9801   -0.719297
 O 0.9399 0.4684 0.38   -0.612769
 O 0.2366 0.5273 0.0533   -0.651657
 O 0.6162 0.3963 0.0464   -0.652266
 O 0.9229 0.0413 0.0199   -0.719297
 O 0.4399 0.0316 0.62   -0.612769
 O 0.7366 0.9727 0.9467   -0.651657
 O 0.8838 0.6037 0.5464   -0.652266
 O 0.5771 0.9587 0.5199   -0.719297
 O 0.0601 0.9684 0.12   -0.612769
 O 0.7634 0.0273 0.4467   -0.651657
 O 0.6162 0.1037 0.5464   -0.652266
 O 0.9229 0.4587 0.5199   -0.719297
 O 0.4399 0.4684 0.12   -0.612769
 O 0.7366 0.5273 0.4467   -0.651657
 O 0.8838 0.8963 0.0464   -0.652266
 O 0.5771 0.5413 0.0199   -0.719297
 O 0.0601 0.5316 0.62   -0.612769
 O 0.7634 0.4727 0.9467   -0.651657
 O 0.3838 0.6037 0.9536   -0.652266
 O 0.0771 0.9587 0.9801   -0.719297
 O 0.5601 0.9684 0.38   -0.612769
 O 0.2634 0.0273 0.0533   -0.651657
 O 0.1162 0.3963 0.4536   -0.652266
 O 0.4229 0.0413 0.4801   -0.719297
 O 0.9399 0.0316 0.88   -0.612769
 O 0.2366 0.9727 0.5533   -0.651657
