{'_ref': 'TBD', '_srcid': 'CAKYAQ_clean', 'submitters': [{'name': 'Dalar Nazarian Jeff Camp and David Sholl', 'email': 'dalar@gatech.edu jcamp6@gatech.edu'}], '_method': 'VASP DFT with PBE;DDEC'}
data_LuH3(C3O2)3
_symmetry_space_group_name_H-M   'P 1'
_cell_length_a   10.22450000
_cell_length_b   10.22450000
_cell_length_c   14.36900000
_cell_angle_alpha   90.00000000
_cell_angle_beta   90.00000000
_cell_angle_gamma   90.00000000
_symmetry_Int_Tables_number   1
_chemical_formula_structural   LuH3(C3O2)3
_chemical_formula_sum   'Lu4 H12 C36 O24'
_cell_volume   1502.14101119
_cell_formula_units_Z   4
loop_
 _symmetry_equiv_pos_site_id
 _symmetry_equiv_pos_as_xyz
  1  'x, y, z'
loop_
 _atom_site_label
 _atom_site_fract_x
 _atom_site_fract_y
 _atom_site_fract_z
 _atom_site_charge
 Lu 0.85181 0.14819 0.875   1.974219
 Lu 0.14819 0.85181 0.375   1.974219
 Lu 0.85181 0.85181 0.625   1.974219
 Lu 0.14819 0.14819 0.125   1.974219
 H 0.921 0.5585 0.871   0.106136
 H 0.079 0.4415 0.371   0.106136
 H 0.4415 0.921 0.621   0.106136
 H 0.5585 0.079 0.121   0.106136
 H 0.079 0.5585 0.129   0.106136
 H 0.921 0.4415 0.629   0.106136
 H 0.5585 0.921 0.379   0.106136
 H 0.4415 0.079 0.879   0.106136
 H 0.0 0.9 0.0   0.075978
 H 0.0 0.1 0.5   0.075978
 H 0.1 0.0 0.75   0.075978
 H 0.9 0.0 0.25   0.075978
 C 0.9534 0.6041 0.9221   0.038396
 C 0.9559 0.7407 0.9219   -0.193814
 C 0.9114 0.8191 0.8387   0.776273
 C 0.0466 0.3959 0.4221   0.038396
 C 0.0441 0.2593 0.4219   -0.193814
 C 0.0886 0.1809 0.3387   0.776273
 C 0.3959 0.9534 0.6721   0.038396
 C 0.2593 0.9559 0.6719   -0.193814
 C 0.1809 0.9114 0.5887   0.776273
 C 0.6041 0.0466 0.1721   0.038396
 C 0.7407 0.0441 0.1719   -0.193814
 C 0.8191 0.0886 0.0887   0.776273
 C 0.0466 0.6041 0.0779   0.038396
 C 0.0441 0.7407 0.0781   -0.193814
 C 0.0886 0.8191 0.1613   0.776273
 C 0.9534 0.3959 0.5779   0.038396
 C 0.9559 0.2593 0.5781   -0.193814
 C 0.9114 0.1809 0.6613   0.776273
 C 0.6041 0.9534 0.3279   0.038396
 C 0.7407 0.9559 0.3281   -0.193814
 C 0.8191 0.9114 0.4113   0.776273
 C 0.3959 0.0466 0.8279   0.038396
 C 0.2593 0.0441 0.8281   -0.193814
 C 0.1809 0.0886 0.9113   0.776273
 C 0.0 0.3872 0.0   0.804641
 C 0.0 0.5368 0.0   -0.204561
 C 0.0 0.8091 0.0   0.038487
 C 0.0 0.6128 0.5   0.804641
 C 0.0 0.4632 0.5   -0.204561
 C 0.0 0.1909 0.5   0.038487
 C 0.6128 0.0 0.75   0.804641
 C 0.4632 0.0 0.75   -0.204561
 C 0.1909 0.0 0.75   0.038487
 C 0.3872 0.0 0.25   0.804641
 C 0.5368 0.0 0.25   -0.204561
 C 0.8091 0.0 0.25   0.038487
 O 0.9268 0.3335 0.9419   -0.692561
 O 0.8861 0.9358 0.8502   -0.691706
 O 0.9041 0.7601 0.7621   -0.687106
 O 0.0732 0.6665 0.4419   -0.692561
 O 0.1139 0.0642 0.3502   -0.691706
 O 0.0959 0.2399 0.2621   -0.687106
 O 0.6665 0.9268 0.6919   -0.692561
 O 0.0642 0.8861 0.6002   -0.691706
 O 0.2399 0.9041 0.5121   -0.687106
 O 0.3335 0.0732 0.1919   -0.692561
 O 0.9358 0.1139 0.1002   -0.691706
 O 0.7601 0.0959 0.0121   -0.687106
 O 0.0732 0.3335 0.0581   -0.692561
 O 0.1139 0.9358 0.1498   -0.691706
 O 0.0959 0.7601 0.2379   -0.687106
 O 0.9268 0.6665 0.5581   -0.692561
 O 0.8861 0.0642 0.6498   -0.691706
 O 0.9041 0.2399 0.7379   -0.687106
 O 0.3335 0.9268 0.3081   -0.692561
 O 0.9358 0.8861 0.3998   -0.691706
 O 0.7601 0.9041 0.4879   -0.687106
 O 0.6665 0.0732 0.8081   -0.692561
 O 0.0642 0.1139 0.8998   -0.691706
 O 0.2399 0.0959 0.9879   -0.687106
