{'_ref': 'TBD', '_srcid': 'CAKYAQ_clean', 'submitters': [{'name': 'Dalar Nazarian Jeff Camp and David Sholl', 'email': 'dalar@gatech.edu jcamp6@gatech.edu'}], '_method': 'VASP DFT with PBE;DDEC'}
data_ZnH14C26(NO3)2
_symmetry_space_group_name_H-M   'P 1'
_cell_length_a   15.16439981
_cell_length_b   15.17289989
_cell_length_c   22.27300000
_cell_angle_alpha   82.98700099
_cell_angle_beta   78.44599967
_cell_angle_gamma   72.77099847
_symmetry_Int_Tables_number   1
_chemical_formula_structural   ZnH14C26(NO3)2
_chemical_formula_sum   'Zn4 H56 C104 N8 O24'
_cell_volume   4784.80613164
_cell_formula_units_Z   4
loop_
 _symmetry_equiv_pos_site_id
 _symmetry_equiv_pos_as_xyz
  1  'x, y, z'
loop_
 _atom_site_label
 _atom_site_fract_x
 _atom_site_fract_y
 _atom_site_fract_z
 _atom_site_charge
 Zn 0.88242 0.71713 0.66726   0.91805
 Zn 0.84643 0.70325 0.80171   0.925585
 Zn 0.11758 0.28288 0.33274   0.918039
 Zn 0.15357 0.29675 0.19829   0.925589
 H 0.7256 0.7856 0.9183   0.100823
 H 0.7346 0.7818 0.0208   0.15665
 H 0.9834 0.5922 0.9896   0.154495
 H 0.9659 0.5971 0.8887   0.081767
 H 0.8828 0.4802 0.2062   0.101656
 H 0.8869 0.4872 0.3097   0.106746
 H 0.896 0.9116 0.2584   0.125417
 H 0.886 0.9059 0.1556   0.121528
 H 0.7776 0.8115 0.4669   0.156949
 H 0.7739 0.813 0.5703   0.096705
 H 0.0101 0.6199 0.5618   0.095253
 H 0.0199 0.6129 0.4577   0.156791
 H 0.116 0.721 0.8149   0.100488
 H 0.2638 0.7303 0.8173   0.10684
 H 0.3442 0.6673 0.6417   0.10847
 H 0.1939 0.6635 0.6388   0.102648
 H 0.4164 0.6673 0.8205   0.107273
 H 0.5612 0.6806 0.8247   0.101152
 H 0.5929 0.7656 0.646   0.094445
 H 0.4466 0.7531 0.6422   0.108026
 H 0.7836 0.0019 0.8235   0.099392
 H 0.7901 0.1514 0.8241   0.105258
 H 0.9127 0.1447 0.6477   0.104406
 H 0.9017 0.9966 0.6467   0.106421
 H 0.8723 0.2534 0.826   0.102858
 H 0.8849 0.4012 0.8278   0.099826
 H 0.8669 0.4461 0.6488   0.100916
 H 0.8547 0.2986 0.6475   0.110197
 H 0.2744 0.2144 0.0817   0.100823
 H 0.2654 0.2182 0.9792   0.15665
 H 0.0166 0.4078 0.0104   0.154495
 H 0.0341 0.4029 0.1113   0.081766
 H 0.1172 0.5198 0.7938   0.101656
 H 0.1131 0.5128 0.6903   0.106748
 H 0.104 0.0884 0.7416   0.125417
 H 0.114 0.0941 0.8444   0.121528
 H 0.2224 0.1885 0.5331   0.156949
 H 0.2261 0.187 0.4297   0.096706
 H 0.9899 0.3801 0.4382   0.095251
 H 0.9801 0.3871 0.5423   0.156792
 H 0.884 0.279 0.1851   0.100488
 H 0.7362 0.2697 0.1827   0.10684
 H 0.6558 0.3327 0.3583   0.10847
 H 0.8061 0.3365 0.3612   0.102647
 H 0.5836 0.3327 0.1795   0.107274
 H 0.4388 0.3194 0.1753   0.101152
 H 0.4071 0.2344 0.354   0.094445
 H 0.5534 0.2469 0.3578   0.108026
 H 0.2164 0.9981 0.1765   0.099392
 H 0.2099 0.8486 0.1759   0.105256
 H 0.0873 0.8553 0.3523   0.104405
 H 0.0983 0.0034 0.3533   0.10642
 H 0.1277 0.7466 0.174   0.102859
 H 0.1151 0.5988 0.1722   0.099826
 H 0.1331 0.5539 0.3512   0.100916
 H 0.1453 0.7014 0.3525   0.110198
 C 0.77777 0.7463 0.93292   0.177738
 C 0.78295 0.74501 0.99423   -0.236157
 C 0.86166 0.68778 0.01512   0.260696
 C 0.93053 0.63187 0.97594   -0.238246
 C 0.91958 0.6358 0.91543   0.200593
 C 0.8779 0.77205 0.09608   0.521184
 C 0.884 0.77456 0.1612   -0.142014
 C 0.88415 0.69469 0.20163   0.060852
 C 0.88303 0.61095 0.18063   -0.152219
 C 0.87811 0.60628 0.11527   0.522841
 C 0.88382 0.53498 0.22035   0.012296
 C 0.88625 0.53928 0.28277   -0.005322
 C 0.88764 0.61839 0.30374   -0.133737
 C 0.88797 0.69896 0.26376   0.063282
 C 0.89182 0.78045 0.28446   -0.136081
 C 0.89235 0.85771 0.24447   -0.021739
 C 0.88723 0.8537 0.18245   -0.024807
 C 0.89676 0.78516 0.34951   0.502889
 C 0.89122 0.62204 0.3701   0.516087
 C 0.89716 0.70993 0.45206   0.262136
 C 0.82531 0.77122 0.48554   -0.238058
 C 0.82433 0.77263 0.54729   0.186986
 C 0.96299 0.65918 0.5422   0.187284
 C 0.96886 0.6536 0.48   -0.235497
 C 0.04058 0.69364 0.72466   0.67431
 C 0.13833 0.69364 0.72665   -0.154708
 C 0.16122 0.71189 0.77949   -0.027489
 C 0.25044 0.7169 0.78103   -0.148877
 C 0.32048 0.70223 0.72923   0.052593
 C 0.29814 0.68013 0.67644   -0.150743
 C 0.20788 0.67693 0.67483   -0.034252
 C 0.41516 0.70947 0.73105   0.052133
 C 0.45163 0.68752 0.78534   -0.151424
 C 0.5385 0.6952 0.78782   -0.028231
 C 0.59298 0.72451 0.736   -0.146427
 C 0.55725 0.74602 0.68127   -0.033272
 C 0.46955 0.73855 0.67895   -0.151466
 C 0.68986 0.72849 0.73813   0.687846
 C 0.84355 0.88421 0.73498   0.685416
 C 0.8435 0.98307 0.73539   -0.139187
 C 0.80966 0.0305 0.78794   -0.034418
 C 0.81412 0.12021 0.78832   -0.149219
 C 0.85378 0.16455 0.73634   0.033666
 C 0.88646 0.11651 0.68336   -0.135434
 C 0.88052 0.02706 0.68283   -0.028706
 C 0.86196 0.25971 0.73699   0.056173
 C 0.87114 0.29204 0.79023   -0.146962
 C 0.87871 0.38102 0.79151   -0.032557
 C 0.87704 0.4395 0.73849   -0.144655
 C 0.868 0.40749 0.68462   -0.040892
 C 0.86062 0.31891 0.68385   -0.148772
 C 0.88136 0.5374 0.73909   0.666509
 C 0.22223 0.2537 0.06708   0.177739
 C 0.21705 0.25499 0.00577   -0.236157
 C 0.13834 0.31222 0.98488   0.260696
 C 0.06947 0.36813 0.02406   -0.238246
 C 0.08042 0.3642 0.08457   0.200593
 C 0.1221 0.22795 0.90392   0.521184
 C 0.116 0.22544 0.8388   -0.142014
 C 0.11585 0.30531 0.79837   0.060853
 C 0.11697 0.38905 0.81937   -0.152219
 C 0.12189 0.39372 0.88473   0.522842
 C 0.11618 0.46502 0.77965   0.012296
 C 0.11375 0.46072 0.71723   -0.005321
 C 0.11236 0.38161 0.69626   -0.133737
 C 0.11203 0.30104 0.73624   0.063282
 C 0.10818 0.21955 0.71554   -0.136081
 C 0.10765 0.14229 0.75553   -0.021739
 C 0.11277 0.1463 0.81755   -0.024807
 C 0.10324 0.21484 0.65049   0.502889
 C 0.10878 0.37796 0.6299   0.516088
 C 0.10284 0.29007 0.54794   0.262137
 C 0.17469 0.22878 0.51446   -0.238061
 C 0.17567 0.22737 0.45271   0.186994
 C 0.03701 0.34082 0.4578   0.187286
 C 0.03114 0.3464 0.52   -0.235496
 C 0.95942 0.30636 0.27534   0.674308
 C 0.86167 0.30636 0.27335   -0.154707
 C 0.83878 0.28811 0.22051   -0.027489
 C 0.74956 0.2831 0.21897   -0.148877
 C 0.67952 0.29777 0.27077   0.052592
 C 0.70186 0.31987 0.32356   -0.150743
 C 0.79212 0.32307 0.32517   -0.034253
 C 0.58484 0.29053 0.26895   0.052133
 C 0.54837 0.31248 0.21466   -0.151424
 C 0.4615 0.3048 0.21218   -0.028231
 C 0.40702 0.27549 0.264   -0.146426
 C 0.44275 0.25398 0.31873   -0.033273
 C 0.53045 0.26145 0.32105   -0.151465
 C 0.31014 0.27151 0.26187   0.687835
 C 0.15645 0.11579 0.26502   0.685412
 C 0.1565 0.01693 0.26461   -0.13918
 C 0.19034 0.9695 0.21206   -0.034421
 C 0.18588 0.87979 0.21168   -0.149218
 C 0.14622 0.83545 0.26366   0.033661
 C 0.11354 0.88349 0.31664   -0.135433
 C 0.11948 0.97294 0.31717   -0.028707
 C 0.13804 0.74029 0.26301   0.056177
 C 0.12886 0.70796 0.20977   -0.146963
 C 0.12129 0.61898 0.20849   -0.032553
 C 0.12296 0.5605 0.26151   -0.144665
 C 0.132 0.59251 0.31538   -0.040889
 C 0.13938 0.68109 0.31615   -0.148772
 C 0.11864 0.4626 0.26091   0.666522
 N 0.84589 0.69243 0.89362   -0.299695
 N 0.87023 0.68906 0.07848   -0.277025
 N 0.89767 0.70434 0.3878   -0.27268
 N 0.89232 0.71875 0.5753   -0.295975
 N 0.15411 0.30757 0.10638   -0.299696
 N 0.12977 0.31094 0.92152   -0.277025
 N 0.10233 0.29566 0.6122   -0.27268
 N 0.10768 0.28125 0.4247   -0.295987
 O 0.87933 0.83666 0.05921   -0.453329
 O 0.87813 0.53631 0.09457   -0.456704
 O 0.90197 0.85396 0.37055   -0.447549
 O 0.88902 0.55686 0.40718   -0.452072
 O 0.8834 0.58349 0.68842   -0.59153
 O 0.88173 0.56539 0.78967   -0.599829
 O 0.81721 0.84415 0.78575   -0.608694
 O 0.87201 0.84755 0.68445   -0.59399
 O 0.02092 0.68627 0.67374   -0.586677
 O 0.98459 0.70138 0.775   -0.607959
 O 0.73847 0.74825 0.68843   -0.609005
 O 0.71619 0.71004 0.78948   -0.596269
 O 0.12067 0.16334 0.94079   -0.45333
 O 0.12187 0.46369 0.90543   -0.456704
 O 0.09803 0.14604 0.62945   -0.447551
 O 0.11098 0.44314 0.59282   -0.452072
 O 0.1166 0.41651 0.31158   -0.591547
 O 0.11827 0.43461 0.21033   -0.599823
 O 0.18279 0.15585 0.21425   -0.608703
 O 0.12799 0.15245 0.31555   -0.593993
 O 0.97908 0.31373 0.32626   -0.586661
 O 0.01541 0.29862 0.225   -0.607958
 O 0.26153 0.25175 0.31157   -0.608979
 O 0.28381 0.28996 0.21052   -0.596267
