{'_ref': 'TBD', '_srcid': 'CAKYAQ_clean', 'submitters': [{'name': 'Dalar Nazarian Jeff Camp and David Sholl', 'email': 'dalar@gatech.edu jcamp6@gatech.edu'}], '_method': 'VASP DFT with PBE;DDEC'}
data_Zn3H12C20(N3O4)2
_symmetry_space_group_name_H-M   'P 1'
_cell_length_a   9.17889989
_cell_length_b   10.92670042
_cell_length_c   11.37100000
_cell_angle_alpha   117.84399876
_cell_angle_beta   100.86100267
_cell_angle_gamma   99.34399945
_symmetry_Int_Tables_number   1
_chemical_formula_structural   Zn3H12C20(N3O4)2
_chemical_formula_sum   'Zn3 H12 C20 N6 O8'
_cell_volume   948.297674189
_cell_formula_units_Z   1
loop_
 _symmetry_equiv_pos_site_id
 _symmetry_equiv_pos_as_xyz
  1  'x, y, z'
loop_
 _atom_site_label
 _atom_site_fract_x
 _atom_site_fract_y
 _atom_site_fract_z
 _atom_site_charge
 Zn 0.19095 0.62355 0.12211   0.817902
 Zn 0.80905 0.37645 0.87789   0.817891
 Zn 0.5 0.5 0.0   0.933516
 H 0.6253 0.8278 0.9767   0.104873
 H 0.2942 0.0097 0.0885   0.105301
 H 0.6942 0.3908 0.5071   0.10455
 H 0.3864 0.5733 0.6765   0.103861
 H 0.2496 0.231 0.7038   0.12605
 H 0.9677 0.1776 0.654   0.13052
 H 0.3747 0.1722 0.0233   0.104868
 H 0.7058 0.9903 0.9115   0.105294
 H 0.3058 0.6092 0.4929   0.104547
 H 0.6136 0.4267 0.3235   0.103858
 H 0.7504 0.769 0.2962   0.12605
 H 0.0323 0.8224 0.346   0.130522
 C 0.4484 0.9005 0.0374   -0.128418
 C 0.574 0.897 0.9857   -0.057829
 C 0.3772 0.005 0.0521   -0.060096
 C 0.3919 0.7901 0.0731   0.705203
 C 0.5467 0.4742 0.6072   -0.126585
 C 0.6153 0.434 0.5042   -0.057482
 C 0.4315 0.543 0.6048   -0.067812
 C 0.5981 0.4551 0.7301   0.684718
 C 0.1976 0.2838 0.7633   0.002147
 C 0.0416 0.2539 0.7347   -0.018203
 C 0.5516 0.0995 0.9626   -0.128424
 C 0.426 0.103 0.0143   -0.057815
 C 0.6228 0.995 0.9479   -0.060082
 C 0.6081 0.2099 0.9269   0.705204
 C 0.4533 0.5258 0.3928   -0.126591
 C 0.3847 0.566 0.4958   -0.057466
 C 0.5685 0.457 0.3952   -0.067796
 C 0.4019 0.5449 0.2699   0.684719
 C 0.8024 0.7162 0.2367   0.002148
 C 0.9584 0.7461 0.2653   -0.018202
 N 0.2643 0.3993 0.8885   -0.155062
 N 0.1514 0.4432 0.9382   -0.079382
 N 0.0151 0.3561 0.8457   -0.195551
 N 0.7357 0.6007 0.1115   -0.155062
 N 0.8486 0.5568 0.0618   -0.07938
 N 0.9849 0.6439 0.1543   -0.195552
 O 0.2701 0.7908 0.1056   -0.589142
 O 0.4669 0.7051 0.072   -0.628837
 O 0.5362 0.5018 0.8238   -0.59116
 O 0.7025 0.391 0.7249   -0.596335
 O 0.7299 0.2092 0.8944   -0.589141
 O 0.5331 0.2949 0.928   -0.628837
 O 0.4638 0.4982 0.1762   -0.591161
 O 0.2975 0.609 0.2751   -0.596336
