{'_ref': 'TBD', '_srcid': 'CAKYAQ_clean', 'submitters': [{'name': 'Dalar Nazarian Jeff Camp and David Sholl', 'email': 'dalar@gatech.edu jcamp6@gatech.edu'}], '_method': 'VASP DFT with PBE;DDEC'}
data_Al2P2O8F
_symmetry_space_group_name_H-M   'P 1'
_cell_length_a   9.19130041
_cell_length_b   9.19129975
_cell_length_c   18.32490000
_cell_angle_alpha   89.74870016
_cell_angle_beta   89.74870018
_cell_angle_gamma   78.25220022
_symmetry_Int_Tables_number   1
_chemical_formula_structural   Al2P2O8F
_chemical_formula_sum   'Al12 P12 O48 F6'
_cell_volume   1515.63593698
_cell_formula_units_Z   6
loop_
 _symmetry_equiv_pos_site_id
 _symmetry_equiv_pos_as_xyz
  1  'x, y, z'
loop_
 _atom_site_label
 _atom_site_fract_x
 _atom_site_fract_y
 _atom_site_fract_z
 _atom_site_charge
 Al 0.13252 0.40778 0.531   1.806355
 Al 0.59526 0.15184 0.56662   1.934799
 Al 0.45479 0.37687 0.81835   1.874228
 Al 0.59222 0.86748 0.969   1.806354
 Al 0.84816 0.40474 0.93338   1.934799
 Al 0.62313 0.54521 0.68165   1.874227
 Al 0.86748 0.59222 0.469   1.806355
 Al 0.40474 0.84816 0.43338   1.934801
 Al 0.54521 0.62313 0.18165   1.874228
 Al 0.40778 0.13252 0.031   1.806355
 Al 0.15184 0.59526 0.06662   1.9348
 Al 0.37687 0.45479 0.31835   1.874227
 P 0.37633 0.19141 0.44011   1.952666
 P 0.16995 0.64745 0.42415   1.80524
 P 0.37274 0.38514 0.65668   1.928699
 P 0.80859 0.62367 0.05989   1.952666
 P 0.35255 0.83005 0.07585   1.80524
 P 0.61486 0.62726 0.84332   1.928699
 P 0.62367 0.80859 0.55989   1.952666
 P 0.83005 0.35255 0.57585   1.80524
 P 0.62726 0.61486 0.34332   1.928699
 P 0.19141 0.37633 0.94011   1.952666
 P 0.64745 0.16995 0.92415   1.80524
 P 0.38514 0.37274 0.15668   1.928698
 O 0.2527 0.2385 0.49546   -0.866858
 O 0.4675 0.2361 0.6312   -0.953481
 O 0.2236 0.4148 0.61912   -0.800656
 O 0.5282 0.175 0.47796   -0.959882
 O 0.3415 0.3711 0.7388   -0.851775
 O 0.3646 0.0364 0.4108   -0.89048
 O 0.2335 0.5421 0.4858   -0.862099
 O 0.2389 0.7881 0.4268   -0.87491
 O 0.9985 0.2973 0.57178   -0.731813
 O 0.2099 0.5723 0.34954   -0.803765
 O 0.3688 0.2926 0.37466   -0.85339
 O 0.4552 0.512 0.6432   -0.934968
 O 0.7615 0.7473 0.00454   -0.866858
 O 0.7639 0.5325 0.8688   -0.953481
 O 0.5852 0.7764 0.88088   -0.800656
 O 0.825 0.4718 0.02204   -0.959882
 O 0.6289 0.6585 0.7612   -0.851775
 O 0.9636 0.6354 0.0892   -0.89048
 O 0.4579 0.7665 0.0142   -0.862099
 O 0.2119 0.7611 0.0732   -0.87491
 O 0.7027 0.0015 0.92822   -0.731813
 O 0.4277 0.7901 0.15046   -0.803765
 O 0.7074 0.6312 0.12534   -0.85339
 O 0.488 0.5448 0.8568   -0.934967
 O 0.7473 0.7615 0.50454   -0.866858
 O 0.5325 0.7639 0.3688   -0.953481
 O 0.7764 0.5852 0.38088   -0.800656
 O 0.4718 0.825 0.52204   -0.959882
 O 0.6585 0.6289 0.2612   -0.851775
 O 0.6354 0.9636 0.5892   -0.89048
 O 0.7665 0.4579 0.5142   -0.862099
 O 0.7611 0.2119 0.5732   -0.87491
 O 0.0015 0.7027 0.42822   -0.731813
 O 0.7901 0.4277 0.65046   -0.803765
 O 0.6312 0.7074 0.62534   -0.85339
 O 0.5448 0.488 0.3568   -0.934968
 O 0.2385 0.2527 0.99546   -0.866858
 O 0.2361 0.4675 0.1312   -0.953481
 O 0.4148 0.2236 0.11912   -0.800656
 O 0.175 0.5282 0.97796   -0.959882
 O 0.3711 0.3415 0.2388   -0.851775
 O 0.0364 0.3646 0.9108   -0.89048
 O 0.5421 0.2335 0.9858   -0.862099
 O 0.7881 0.2389 0.9268   -0.87491
 O 0.2973 0.9985 0.07178   -0.731813
 O 0.5723 0.2099 0.84954   -0.803765
 O 0.2926 0.3688 0.87466   -0.85339
 O 0.512 0.4552 0.1432   -0.934967
 F 0.98643 0.57623 0.55387   -0.598207
 F 0.42377 0.01357 0.94613   -0.598207
 F 0.01357 0.42377 0.44613   -0.598207
 F 0.57623 0.98643 0.05387   -0.598207
 F 0.6093 0.3907 0.75   -0.63941
 F 0.3907 0.6093 0.25   -0.63941
