{'_ref': 'TBD', '_srcid': 'CAKYAQ_clean', 'submitters': [{'name': 'Dalar Nazarian Jeff Camp and David Sholl', 'email': 'dalar@gatech.edu jcamp6@gatech.edu'}], '_method': 'VASP DFT with PBE;DDEC'}
data_ZnH8C11(N3O)2
_symmetry_space_group_name_H-M   'P 1'
_cell_length_a   8.79920000
_cell_length_b   10.26960000
_cell_length_c   18.62440000
_cell_angle_alpha   90.00000000
_cell_angle_beta   90.00000000
_cell_angle_gamma   90.00000000
_symmetry_Int_Tables_number   1
_chemical_formula_structural   ZnH8C11(N3O)2
_chemical_formula_sum   'Zn4 H32 C44 N24 O8'
_cell_volume   1682.9802044
_cell_formula_units_Z   4
loop_
 _symmetry_equiv_pos_site_id
 _symmetry_equiv_pos_as_xyz
  1  'x, y, z'
loop_
 _atom_site_label
 _atom_site_fract_x
 _atom_site_fract_y
 _atom_site_fract_z
 _atom_site_charge
 Zn 0.13311 0.02643 0.59917   0.819279
 Zn 0.63311 0.97357 0.40083   0.819279
 Zn 0.13311 0.47357 0.09917   0.819279
 Zn 0.63311 0.52643 0.90083   0.819279
 H 0.8328 0.9629 0.528   0.058338
 H 0.2359 0.371 0.3879   0.039824
 H 0.8251 0.2965 0.2662   0.347269
 H 0.7377 0.1952 0.3059   0.322069
 H 0.9576 0.6891 0.7076   0.125735
 H 0.8464 0.5425 0.7846   0.071258
 H 0.6072 0.8185 0.8749   0.094956
 H 0.7081 0.9705 0.7983   0.120216
 H 0.3328 0.0371 0.472   0.058338
 H 0.7359 0.629 0.6121   0.039824
 H 0.3251 0.7035 0.7338   0.347269
 H 0.2377 0.8048 0.6941   0.322069
 H 0.4576 0.3109 0.2924   0.125735
 H 0.3464 0.4575 0.2154   0.071259
 H 0.1072 0.1815 0.1251   0.094956
 H 0.2081 0.0295 0.2017   0.120216
 H 0.8328 0.5371 0.028   0.058338
 H 0.2359 0.129 0.8879   0.039825
 H 0.8251 0.2035 0.7662   0.347269
 H 0.7377 0.3048 0.8059   0.322069
 H 0.9576 0.8109 0.2076   0.125736
 H 0.8464 0.9575 0.2846   0.071259
 H 0.6072 0.6815 0.3749   0.094956
 H 0.7081 0.5295 0.2983   0.120216
 H 0.3328 0.4629 0.972   0.058338
 H 0.7359 0.871 0.1121   0.039825
 H 0.3251 0.7965 0.2338   0.34727
 H 0.2377 0.6952 0.1941   0.322069
 H 0.4576 0.1891 0.7924   0.125736
 H 0.3464 0.0425 0.7154   0.071259
 H 0.1072 0.3185 0.6251   0.094957
 H 0.2081 0.4705 0.7017   0.120216
 C 0.8781 0.0264 0.4995   0.320816
 C 0.1532 0.3166 0.39607   0.409769
 C 0.9234 0.2424 0.35322   0.488621
 C 0.919 0.1601 0.41368   -0.105037
 C 0.038 0.1674 0.46219   0.425423
 C 0.9134 0.9442 0.69311   0.639691
 C 0.8861 0.7171 0.74094   -0.133323
 C 0.8448 0.847 0.74438   -0.006319
 C 0.8199 0.63 0.78766   0.166272
 C 0.6782 0.7927 0.8407   0.157181
 C 0.7385 0.8839 0.7951   -0.12613
 C 0.3781 0.9736 0.5005   0.320816
 C 0.6532 0.6834 0.60393   0.409769
 C 0.4234 0.7576 0.64678   0.488621
 C 0.419 0.8399 0.58632   -0.105038
 C 0.538 0.8326 0.53781   0.425423
 C 0.4134 0.0558 0.30689   0.639691
 C 0.3861 0.2829 0.25906   -0.133323
 C 0.3448 0.153 0.25562   -0.006319
 C 0.3199 0.37 0.21234   0.166272
 C 0.1782 0.2073 0.1593   0.157181
 C 0.2385 0.1161 0.2049   -0.12613
 C 0.8781 0.4736 0.9995   0.320817
 C 0.1532 0.1834 0.89607   0.409769
 C 0.9234 0.2576 0.85322   0.488621
 C 0.919 0.3399 0.91368   -0.105037
 C 0.038 0.3326 0.96219   0.425423
 C 0.9134 0.5558 0.19311   0.639691
 C 0.8861 0.7829 0.24094   -0.133323
 C 0.8448 0.653 0.24438   -0.006319
 C 0.8199 0.87 0.28766   0.166272
 C 0.6782 0.7073 0.3407   0.157181
 C 0.7385 0.6161 0.2951   -0.12613
 C 0.3781 0.5264 0.000500000000002   0.320817
 C 0.6532 0.8166 0.10393   0.409769
 C 0.4234 0.7424 0.14678   0.488621
 C 0.419 0.6601 0.08632   -0.105037
 C 0.538 0.6674 0.03781   0.425423
 C 0.4134 0.4442 0.80689   0.639691
 C 0.3861 0.2171 0.75906   -0.133323
 C 0.3448 0.347 0.75562   -0.006319
 C 0.3199 0.13 0.71234   0.166272
 C 0.1782 0.2927 0.6593   0.157181
 C 0.2385 0.3839 0.7049   -0.12613
 N 0.0102 0.0818 0.51705   -0.50137
 N 0.1607 0.2453 0.45575   -0.567045
 N 0.8155 0.068 0.43857   -0.417302
 N 0.0444 0.3213 0.34628   -0.58005
 N 0.8159 0.245 0.3024   -0.666163
 N 0.7194 0.6665 0.83703   -0.332613
 N 0.5102 0.9182 0.48295   -0.50137
 N 0.6607 0.7547 0.54425   -0.567045
 N 0.3155 0.932 0.56143   -0.417302
 N 0.5444 0.6787 0.65372   -0.58005
 N 0.3159 0.755 0.6976   -0.666163
 N 0.2194 0.3335 0.16297   -0.332613
 N 0.0102 0.4182 0.01705   -0.50137
 N 0.1607 0.2547 0.95575   -0.567045
 N 0.8155 0.432 0.93857   -0.417302
 N 0.0444 0.1787 0.84628   -0.58005
 N 0.8159 0.255 0.8024   -0.666164
 N 0.7194 0.8335 0.33703   -0.332613
 N 0.5102 0.5818 0.98295   -0.50137
 N 0.6607 0.7453 0.04425   -0.567045
 N 0.3155 0.568 0.06143   -0.417302
 N 0.5444 0.8213 0.15372   -0.58005
 N 0.3159 0.745 0.1976   -0.666164
 N 0.2194 0.1665 0.66297   -0.332613
 O 0.0327 0.9019 0.66077   -0.601886
 O 0.857 0.0514 0.68506   -0.56948
 O 0.5327 0.0981 0.33923   -0.601886
 O 0.357 0.9486 0.31494   -0.56948
 O 0.0327 0.5981 0.16077   -0.601886
 O 0.857 0.4486 0.18506   -0.56948
 O 0.5327 0.4019 0.83923   -0.601886
 O 0.357 0.5514 0.81494   -0.56948
