{'_ref': 'TBD', '_srcid': 'CAKYAQ_clean', 'submitters': [{'name': 'Dalar Nazarian Jeff Camp and David Sholl', 'email': 'dalar@gatech.edu jcamp6@gatech.edu'}], '_method': 'VASP DFT with PBE;DDEC'}
data_Sm3P3H45C37N3O23
_symmetry_space_group_name_H-M   'P 1'
_cell_length_a   15.03999965
_cell_length_b   15.08999997
_cell_length_c   15.17900000
_cell_angle_alpha   105.68900135
_cell_angle_beta   103.55900093
_cell_angle_gamma   117.11099875
_symmetry_Int_Tables_number   1
_chemical_formula_structural   Sm3P3H45C37N3O23
_chemical_formula_sum   'Sm6 P6 H90 C74 N6 O46'
_cell_volume   2682.73550819
_cell_formula_units_Z   2
loop_
 _symmetry_equiv_pos_site_id
 _symmetry_equiv_pos_as_xyz
  1  'x, y, z'
loop_
 _atom_site_label
 _atom_site_fract_x
 _atom_site_fract_y
 _atom_site_fract_z
 _atom_site_charge
 Sm 0.81753 0.11268 0.68093   2.339568
 Sm 0.55724 0.86681 0.69783   2.352151
 Sm 0.4157 0.06229 0.64294   2.414877
 Sm 0.18247 0.88732 0.31907   2.339568
 Sm 0.44276 0.13319 0.30217   2.352151
 Sm 0.5843 0.93771 0.35706   2.414878
 P 0.6169 0.1417 0.5226   1.678111
 P 0.6946 0.1719 0.8009   1.57426
 P 0.625 0.8105 0.5212   1.601035
 P 0.3831 0.8583 0.4774   1.678112
 P 0.3054 0.8281 0.1991   1.57426
 P 0.375 0.1895 0.4788   1.601035
 H 0.7984 0.6252 0.0673   0.436661
 H 0.7498 0.3203 0.7097   0.240043
 H 0.6571 0.0936 0.9368   0.263778
 H 0.8366 0.8903 0.5568   0.260445
 H 0.6749 0.3148 0.5286   0.179236
 H 0.7752 0.3046 0.5571   0.187752
 H 0.8482 0.5094 0.6889   0.079232
 H 0.9084 0.4499 0.7039   0.107919
 H 0.964 0.5919 0.8613   0.092946
 H 0.9024 0.4769 0.8627   0.109803
 H 0.8073 0.5949 0.8383   0.086517
 H 0.6403 0.4534 0.8142   0.117104
 H 0.6931 0.3879 0.8322   0.088835
 H 0.5875 0.3139 0.6586   0.113484
 H 0.6605 0.4315 0.6654   0.094655
 H 0.8358 0.2197 0.9443   0.188546
 H 0.8001 0.3017 0.9691   0.175641
 H 0.7179 0.29 0.0782   0.080765
 H 0.6138 0.2199 0.976   0.118557
 H 0.5643 0.1945 0.1076   0.120012
 H 0.5284 0.0837 0.0246   0.081333
 H 0.7145 0.207 0.2073   0.103966
 H 0.7656 0.0864 0.1629   0.114907
 H 0.6622 0.0109 0.0603   0.100694
 H 0.8128 0.1178 0.0333   0.105934
 H 0.8404 0.2265 0.113   0.088509
 H 0.669 0.681 0.4882   0.171123
 H 0.7177 0.7474 0.6043   0.197102
 H 0.8889 0.7559 0.6013   0.074663
 H 0.906 0.8558 0.6843   0.113019
 H 0.0724 0.8995 0.6741   0.112625
 H 0.0372 0.9735 0.644   0.095974
 H 0.0088 0.7899 0.5062   0.097897
 H 0.9249 0.8119 0.3755   0.112395
 H 0.9434 0.9176 0.4514   0.082744
 H 0.7616 0.7719 0.3895   0.120617
 H 0.8 0.7018 0.4237   0.083895
 H 0.0013 0.1678 0.0253   0.094044
 H 0.1309 0.1751 0.1586   0.090855
 H 0.2385 0.0678 0.9601   0.084264
 H 0.1109 0.0586 0.8301   0.10061
 H 0.0106 0.4068 0.5781   0.111667
 H 0.1618 0.55 0.5725   0.101128
 H 0.3662 0.5801 0.8201   0.105056
 H 0.2177 0.4465 0.8328   0.08855
 H 0.2016 0.3748 0.9327   0.43667
 H 0.2502 0.6797 0.2903   0.240043
 H 0.3429 0.9064 0.0632   0.263778
 H 0.1634 0.1097 0.4432   0.260445
 H 0.3251 0.6852 0.4714   0.179236
 H 0.2248 0.6954 0.4429   0.187755
 H 0.1518 0.4906 0.3111   0.079228
 H 0.0916 0.5501 0.2961   0.107919
 H 0.036 0.4081 0.1387   0.092946
 H 0.0976 0.5231 0.1373   0.109805
 H 0.1927 0.4051 0.1617   0.086516
 H 0.3597 0.5466 0.1858   0.117105
 H 0.3069 0.6121 0.1678   0.088835
 H 0.4125 0.6861 0.3414   0.113484
 H 0.3395 0.5685 0.3346   0.094654
 H 0.1642 0.7803 0.0557   0.188546
 H 0.1999 0.6983 0.0309   0.175644
 H 0.2821 0.71 0.9218   0.080765
 H 0.3862 0.7801 0.024   0.118558
 H 0.4357 0.8055 0.8924   0.120013
 H 0.4716 0.9163 0.9754   0.081329
 H 0.2855 0.793 0.7927   0.103967
 H 0.2344 0.9136 0.8371   0.114906
 H 0.3378 0.9891 0.9397   0.100694
 H 0.1872 0.8822 0.9667   0.105933
 H 0.1596 0.7735 0.887   0.088504
 H 0.331 0.319 0.5118   0.171123
 H 0.2823 0.2526 0.3957   0.197102
 H 0.1111 0.2441 0.3987   0.074661
 H 0.094 0.1442 0.3157   0.113017
 H 0.9276 0.1005 0.3259   0.112623
 H 0.9628 0.0265 0.356   0.095974
 H 0.9912 0.2101 0.4938   0.097898
 H 0.0751 0.1881 0.6245   0.112396
 H 0.0566 0.0824 0.5486   0.082743
 H 0.2384 0.2281 0.6105   0.120617
 H 0.2 0.2982 0.5763   0.083895
 H 0.9987 0.8322 0.9747   0.094043
 H 0.8691 0.8249 0.8414   0.09085
 H 0.7615 0.9322 0.0399   0.084265
 H 0.8891 0.9414 0.1699   0.100611
 H 0.9894 0.5932 0.4219   0.11167
 H 0.8382 0.45 0.4275   0.101133
 H 0.6338 0.4199 0.1799   0.10506
 H 0.7823 0.5535 0.1672   0.088557
 C 0.7102 0.2901 0.5681   -0.530935
 C 0.8553 0.4626 0.7186   -0.057077
 C 0.8936 0.5228 0.8328   -0.168365
 C 0.8095 0.5419 0.8611   -0.163386
 C 0.6935 0.4381 0.8039   -0.174801
 C 0.6603 0.3809 0.693   -0.055772
 C 0.842 0.589 0.974   0.655829
 C 0.7731 0.225 0.9356   -0.513571
 C 0.6604 0.2159 0.0287   -0.082877
 C 0.5913 0.1544 0.076   -0.157701
 C 0.6583 0.1353 0.1529   -0.186681
 C 0.7159 0.0863 0.1092   -0.169169
 C 0.7811 0.1534 0.0627   -0.064465
 C 0.589 0.0635 0.1973   0.754603
 C 0.7081 0.7538 0.5417   -0.503216
 C 0.9063 0.8297 0.6193   -0.055267
 C 0.0184 0.8991 0.6244   -0.157421
 C 0.023 0.8623 0.5218   -0.19404
 C 0.9277 0.8453 0.4404   -0.157367
 C 0.8183 0.7756 0.4393   -0.066237
 C 0.1344 0.9333 0.5234   0.780233
 C 0.952 0.0956 0.8318   0.659417
 C 0.0403 0.1068 0.9148   -0.083791
 C 0.0488 0.1448 0.0124   -0.088461
 C 0.1271 0.1516 0.0916   -0.07209
 C 0.1985 0.1192 0.0724   -0.095572
 C 0.1891 0.088 0.9727   -0.069868
 C 0.1118 0.0787 0.8962   -0.089444
 C 0.2789 0.1267 0.1526   0.683124
 C 0.0018 0.3198 0.706   0.633886
 C 0.1022 0.414 0.7041   -0.093766
 C 0.0845 0.4438 0.6281   -0.108467
 C 0.1735 0.5268 0.6251   -0.087464
 C 0.2802 0.5805 0.6977   -0.089598
 C 0.2926 0.5458 0.7709   -0.06847
 C 0.2074 0.4656 0.7771   -0.076311
 C 0.3724 0.6693 0.691   0.648709
 C 0.2898 0.7099 0.4319   -0.530936
 C 0.1447 0.5374 0.2814   -0.057075
 C 0.1064 0.4772 0.1672   -0.168367
 C 0.1905 0.4581 0.1389   -0.163385
 C 0.3065 0.5619 0.1961   -0.174802
 C 0.3397 0.6191 0.307   -0.055772
 C 0.158 0.411 0.026   0.655829
 C 0.2269 0.775 0.0644   -0.513572
 C 0.3396 0.7841 0.9713   -0.082878
 C 0.4087 0.8456 0.924   -0.1577
 C 0.3417 0.8647 0.8471   -0.186681
 C 0.2841 0.9137 0.8908   -0.169169
 C 0.2189 0.8466 0.9373   -0.064463
 C 0.411 0.9365 0.8027   0.754603
 C 0.2919 0.2462 0.4583   -0.503215
 C 0.0937 0.1703 0.3807   -0.055266
 C 0.9816 0.1009 0.3756   -0.15742
 C 0.977 0.1377 0.4782   -0.194041
 C 0.0723 0.1547 0.5596   -0.157367
 C 0.1817 0.2244 0.5607   -0.066237
 C 0.8656 0.0667 0.4766   0.780233
 C 0.048 0.9044 0.1682   0.659417
 C 0.9597 0.8932 0.0852   -0.083791
 C 0.9512 0.8552 0.9876   -0.088462
 C 0.8729 0.8484 0.9084   -0.072088
 C 0.8015 0.8808 0.9276   -0.095572
 C 0.8109 0.912 0.0273   -0.069868
 C 0.8882 0.9213 0.1038   -0.089444
 C 0.7211 0.8733 0.8474   0.683124
 C 0.9982 0.6802 0.294   0.633885
 C 0.8978 0.586 0.2959   -0.093765
 C 0.9155 0.5562 0.3719   -0.108467
 C 0.8265 0.4732 0.3749   -0.087466
 C 0.7198 0.4195 0.3023   -0.089597
 C 0.7074 0.4542 0.2291   -0.068471
 C 0.7926 0.5344 0.2229   -0.076313
 C 0.6276 0.3307 0.309   0.648708
 N 0.7439 0.3597 0.6759   0.159434
 N 0.7115 0.1623 0.9843   0.157026
 N 0.8193 0.821 0.5419   0.140438
 N 0.2561 0.6403 0.3241   0.159433
 N 0.2885 0.8377 0.0157   0.157026
 N 0.1807 0.179 0.4581   0.140438
 O 0.554 0.0943 0.4087   -1.048759
 O 0.5462 0.1266 0.5792   -0.976882
 O 0.6816 0.0893 0.5368   -1.070469
 O 0.9272 0.6124 0.0286   -0.477608
 O 0.7735 0.6012 0.0035   -0.553778
 O 0.7792 0.2476 0.7711   -0.904192
 O 0.6701 0.0555 0.7495   -1.056205
 O 0.5938 0.1729 0.7856   -0.982676
 O 0.4962 0.052 0.1826   -0.744264
 O 0.6292 0.0252 0.2465   -0.737776
 O 0.6127 0.8207 0.423   -1.003082
 O 0.6878 0.9228 0.6119   -1.076941
 O 0.5226 0.7378 0.5324   -0.917761
 O 0.2175 0.9643 0.5979   -0.74639
 O 0.1403 0.9612 0.4529   -0.755315
 O 0.9122 0.2711 0.6376   -0.667509
 O 0.019 0.2892 0.7745   -0.689723
 O 0.3545 0.7194 0.6429   -0.678566
 O 0.4699 0.6986 0.7383   -0.694962
 O 0.9436 0.052 0.7426   -0.709829
 O 0.8989 0.1331 0.8515   -0.651274
 O 0.3017 0.1797 0.2437   -0.691019
 O 0.3191 0.0723 0.1269   -0.691584
 O 0.446 0.9057 0.5913   -1.048759
 O 0.4538 0.8734 0.4208   -0.976882
 O 0.3184 0.9107 0.4632   -1.070469
 O 0.0728 0.3876 0.9714   -0.477608
 O 0.2265 0.3988 0.9965   -0.55378
 O 0.2208 0.7524 0.2289   -0.904192
 O 0.3299 0.9445 0.2505   -1.056205
 O 0.4062 0.8271 0.2144   -0.982677
 O 0.5038 0.948 0.8174   -0.744264
 O 0.3708 0.9748 0.7535   -0.737776
 O 0.3873 0.1793 0.577   -1.003082
 O 0.3122 0.0772 0.3881   -1.076941
 O 0.4774 0.2622 0.4676   -0.917761
 O 0.7825 0.0357 0.4021   -0.74639
 O 0.8597 0.0388 0.5471   -0.755315
 O 0.0878 0.7289 0.3624   -0.667509
 O 0.981 0.7108 0.2255   -0.689723
 O 0.6455 0.2806 0.3571   -0.678566
 O 0.5301 0.3014 0.2617   -0.694962
 O 0.0564 0.948 0.2574   -0.709829
 O 0.1011 0.8669 0.1485   -0.651274
 O 0.6983 0.8203 0.7563   -0.691019
 O 0.6809 0.9277 0.8731   -0.691584
