{'_ref': 'TBD', '_srcid': 'CAKYAQ_clean', 'submitters': [{'name': 'Dalar Nazarian Jeff Camp and David Sholl', 'email': 'dalar@gatech.edu jcamp6@gatech.edu'}], '_method': 'VASP DFT with PBE;DDEC'}
data_Tm(CO)6
_symmetry_space_group_name_H-M   'P 1'
_cell_length_a   10.37400000
_cell_length_b   18.44300000
_cell_length_c   18.44300000
_cell_angle_alpha   90.00000000
_cell_angle_beta   90.00000000
_cell_angle_gamma   90.00000000
_symmetry_Int_Tables_number   1
_chemical_formula_structural   Tm(CO)6
_chemical_formula_sum   'Tm16 C96 O96'
_cell_volume   3528.65643913
_cell_formula_units_Z   16
loop_
 _symmetry_equiv_pos_site_id
 _symmetry_equiv_pos_as_xyz
  1  'x, y, z'
loop_
 _atom_site_label
 _atom_site_fract_x
 _atom_site_fract_y
 _atom_site_fract_z
 _atom_site_charge
 Tm 0.65225 0.97368 0.25457   2.231068
 Tm 0.65225 0.52632 0.24543   2.231067
 Tm 0.65225 0.24543 0.97368   2.231066
 Tm 0.65225 0.25457 0.52632   2.231064
 Tm 0.84775 0.02632 0.75457   2.231067
 Tm 0.84775 0.47368 0.74543   2.231066
 Tm 0.84775 0.75457 0.47368   2.231065
 Tm 0.84775 0.74543 0.02632   2.231063
 Tm 0.34775 0.02632 0.74543   2.231068
 Tm 0.34775 0.47368 0.75457   2.231066
 Tm 0.34775 0.75457 0.02632   2.231065
 Tm 0.34775 0.74543 0.47368   2.231064
 Tm 0.15225 0.97368 0.24543   2.231067
 Tm 0.15225 0.52632 0.25457   2.231065
 Tm 0.15225 0.24543 0.52632   2.231064
 Tm 0.15225 0.25457 0.97368   2.231063
 C 0.9282 0.0214 0.4391   -0.055676
 C 0.9797 0.9516 0.4425   -0.111646
 C 0.9507 0.0701 0.4959   -0.058962
 C 0.8401 0.045 0.3784   0.689595
 C 0.9722 0.8985 0.3797   0.841719
 C 0.8987 0.147 0.4954   0.810496
 C 0.9282 0.4786 0.0609   -0.055676
 C 0.9797 0.5484 0.0575   -0.111646
 C 0.9507 0.4299 0.0041   -0.058962
 C 0.8401 0.455 0.1216   0.689595
 C 0.9722 0.6015 0.1203   0.841719
 C 0.8987 0.353 0.0046   0.810496
 C 0.9282 0.0609 0.0214   -0.055676
 C 0.9797 0.0575 0.9516   -0.111646
 C 0.9507 0.0041 0.0701   -0.058962
 C 0.8401 0.1216 0.045   0.689595
 C 0.9722 0.1203 0.8985   0.841719
 C 0.8987 0.0046 0.147   0.810496
 C 0.9282 0.4391 0.4786   -0.055676
 C 0.9797 0.4425 0.5484   -0.111646
 C 0.9507 0.4959 0.4299   -0.058962
 C 0.8401 0.3784 0.455   0.689595
 C 0.9722 0.3797 0.6015   0.841719
 C 0.8987 0.4954 0.353   0.810496
 C 0.5718 0.9786 0.9391   -0.055675
 C 0.5203 0.0484 0.9425   -0.111646
 C 0.5493 0.9299 0.9959   -0.058962
 C 0.6599 0.955 0.8784   0.689595
 C 0.5278 0.1015 0.8797   0.841719
 C 0.6013 0.853 0.9954   0.810496
 C 0.5718 0.5214 0.5609   -0.055675
 C 0.5203 0.4516 0.5575   -0.111646
 C 0.5493 0.5701 0.5041   -0.058962
 C 0.6599 0.545 0.6216   0.689595
 C 0.5278 0.3985 0.6203   0.841719
 C 0.6013 0.647 0.5046   0.810496
 C 0.5718 0.9391 0.5214   -0.055675
 C 0.5203 0.9425 0.4516   -0.111646
 C 0.5493 0.9959 0.5701   -0.058962
 C 0.6599 0.8784 0.545   0.689595
 C 0.5278 0.8797 0.3985   0.841719
 C 0.6013 0.9954 0.647   0.810496
 C 0.5718 0.5609 0.9786   -0.055675
 C 0.5203 0.5575 0.0484   -0.111646
 C 0.5493 0.5041 0.9299   -0.058962
 C 0.6599 0.6216 0.955   0.689595
 C 0.5278 0.6203 0.1015   0.841719
 C 0.6013 0.5046 0.853   0.810496
 C 0.0718 0.9786 0.5609   -0.055682
 C 0.0203 0.0484 0.5575   -0.111628
 C 0.0493 0.9299 0.5041   -0.058943
 C 0.1599 0.955 0.6216   0.689596
 C 0.0278 0.1015 0.6203   0.841718
 C 0.1013 0.853 0.5046   0.810494
 C 0.0718 0.5214 0.9391   -0.055682
 C 0.0203 0.4516 0.9425   -0.111628
 C 0.0493 0.5701 0.9959   -0.058943
 C 0.1599 0.545 0.8784   0.689596
 C 0.0278 0.3985 0.8797   0.841718
 C 0.1013 0.647 0.9954   0.810494
 C 0.0718 0.9391 0.9786   -0.055682
 C 0.0203 0.9425 0.0484   -0.111628
 C 0.0493 0.9959 0.9299   -0.058943
 C 0.1599 0.8784 0.955   0.689596
 C 0.0278 0.8797 0.1015   0.841718
 C 0.1013 0.9954 0.853   0.810495
 C 0.0718 0.5609 0.5214   -0.055682
 C 0.0203 0.5575 0.4516   -0.111628
 C 0.0493 0.5041 0.5701   -0.058943
 C 0.1599 0.6216 0.545   0.689596
 C 0.0278 0.6203 0.3985   0.841718
 C 0.1013 0.5046 0.647   0.810495
 C 0.4282 0.0214 0.0609   -0.055682
 C 0.4797 0.9516 0.0575   -0.111628
 C 0.4507 0.0701 0.0041   -0.058943
 C 0.3401 0.045 0.1216   0.689596
 C 0.4722 0.8985 0.1203   0.841718
 C 0.3987 0.147 0.0046   0.810494
 C 0.4282 0.4786 0.4391   -0.055682
 C 0.4797 0.5484 0.4425   -0.111628
 C 0.4507 0.4299 0.4959   -0.058943
 C 0.3401 0.455 0.3784   0.689596
 C 0.4722 0.6015 0.3797   0.841718
 C 0.3987 0.353 0.4954   0.810494
 C 0.4282 0.0609 0.4786   -0.055682
 C 0.4797 0.0575 0.5484   -0.111628
 C 0.4507 0.0041 0.4299   -0.058943
 C 0.3401 0.1216 0.455   0.689596
 C 0.4722 0.1203 0.6015   0.841718
 C 0.3987 0.0046 0.353   0.810495
 C 0.4282 0.4391 0.0214   -0.055682
 C 0.4797 0.4425 0.9516   -0.111628
 C 0.4507 0.4959 0.0701   -0.058943
 C 0.3401 0.3784 0.045   0.689596
 C 0.4722 0.3797 0.8985   0.841718
 C 0.3987 0.4954 0.147   0.810495
 O 0.8236 0.111 0.3665   -0.502449
 O 0.7845 0.9944 0.344   -0.808347
 O 0.9268 0.83701 0.38995   -0.718334
 O 0.0198 0.9172 0.32039   -0.787095
 O 0.9742 0.19659 0.4756   -0.763912
 O 0.7862 0.157 0.5175   -0.766467
 O 0.8236 0.389 0.1335   -0.50245
 O 0.7845 0.5056 0.156   -0.808347
 O 0.9268 0.66299 0.11005   -0.718334
 O 0.0198 0.5828 0.17961   -0.787095
 O 0.9742 0.30341 0.0244   -0.763912
 O 0.7862 0.343 0.9825   -0.766467
 O 0.8236 0.1335 0.111   -0.502451
 O 0.7845 0.156 0.9944   -0.808347
 O 0.9268 0.11005 0.83701   -0.718334
 O 0.0198 0.17961 0.9172   -0.787095
 O 0.9742 0.0244 0.19659   -0.763912
 O 0.7862 0.9825 0.157   -0.766468
 O 0.8236 0.3665 0.389   -0.502451
 O 0.7845 0.344 0.5056   -0.808347
 O 0.9268 0.38995 0.66299   -0.718334
 O 0.0198 0.32039 0.5828   -0.787095
 O 0.9742 0.4756 0.30341   -0.763912
 O 0.7862 0.5175 0.343   -0.766467
 O 0.6764 0.889 0.8665   -0.502449
 O 0.7155 0.0056 0.844   -0.808347
 O 0.5732 0.16299 0.88995   -0.718334
 O 0.4802 0.0828 0.82039   -0.787095
 O 0.5258 0.80341 0.9756   -0.763912
 O 0.7138 0.843 0.0175   -0.766467
 O 0.6764 0.611 0.6335   -0.50245
 O 0.7155 0.4944 0.656   -0.808347
 O 0.5732 0.33701 0.61005   -0.718334
 O 0.4802 0.4172 0.67961   -0.787095
 O 0.5258 0.69659 0.5244   -0.763912
 O 0.7138 0.657 0.4825   -0.766467
 O 0.6764 0.8665 0.611   -0.502451
 O 0.7155 0.844 0.4944   -0.808347
 O 0.5732 0.88995 0.33701   -0.718334
 O 0.4802 0.82039 0.4172   -0.787095
 O 0.5258 0.9756 0.69659   -0.763912
 O 0.7138 0.0175 0.657   -0.766467
 O 0.6764 0.6335 0.889   -0.502451
 O 0.7155 0.656 0.0056   -0.808347
 O 0.5732 0.61005 0.16299   -0.718334
 O 0.4802 0.67961 0.0828   -0.787095
 O 0.5258 0.5244 0.80341   -0.763912
 O 0.7138 0.4825 0.843   -0.766467
 O 0.1764 0.889 0.6335   -0.502449
 O 0.2155 0.0056 0.656   -0.808347
 O 0.0732 0.16299 0.61005   -0.718334
 O 0.9802 0.0828 0.67961   -0.787096
 O 0.0258 0.80341 0.5244   -0.763912
 O 0.2138 0.843 0.4825   -0.766467
 O 0.1764 0.611 0.8665   -0.50245
 O 0.2155 0.4944 0.844   -0.808347
 O 0.0732 0.33701 0.88995   -0.718334
 O 0.9802 0.4172 0.82039   -0.787095
 O 0.0258 0.69659 0.9756   -0.763912
 O 0.2138 0.657 0.0175   -0.766467
 O 0.1764 0.8665 0.889   -0.502451
 O 0.2155 0.844 0.0056   -0.808347
 O 0.0732 0.88995 0.16299   -0.718334
 O 0.9802 0.82039 0.0828   -0.787095
 O 0.0258 0.9756 0.80341   -0.763912
 O 0.2138 0.0175 0.843   -0.766467
 O 0.1764 0.6335 0.611   -0.502451
 O 0.2155 0.656 0.4944   -0.808347
 O 0.0732 0.61005 0.33701   -0.718334
 O 0.9802 0.67961 0.4172   -0.787095
 O 0.0258 0.5244 0.69659   -0.763912
 O 0.2138 0.4825 0.657   -0.766467
 O 0.3236 0.111 0.1335   -0.502449
 O 0.2845 0.9944 0.156   -0.808347
 O 0.4268 0.83701 0.11005   -0.718334
 O 0.5198 0.9172 0.17961   -0.787096
 O 0.4742 0.19659 0.0244   -0.763912
 O 0.2862 0.157 0.9825   -0.766467
 O 0.3236 0.389 0.3665   -0.50245
 O 0.2845 0.5056 0.344   -0.808347
 O 0.4268 0.66299 0.38995   -0.718334
 O 0.5198 0.5828 0.32039   -0.787096
 O 0.4742 0.30341 0.4756   -0.763912
 O 0.2862 0.343 0.5175   -0.766467
 O 0.3236 0.1335 0.389   -0.502451
 O 0.2845 0.156 0.5056   -0.808347
 O 0.4268 0.11005 0.66299   -0.718334
 O 0.5198 0.17961 0.5828   -0.787095
 O 0.4742 0.0244 0.30341   -0.763912
 O 0.2862 0.9825 0.343   -0.766467
 O 0.3236 0.3665 0.111   -0.502452
 O 0.2845 0.344 0.9944   -0.808347
 O 0.4268 0.38995 0.83701   -0.718334
 O 0.5198 0.32039 0.9172   -0.787095
 O 0.4742 0.4756 0.19659   -0.763912
 O 0.2862 0.5175 0.157   -0.766467
