{'_ref': 'TBD', '_srcid': 'CAKYAQ_clean', 'submitters': [{'name': 'Dalar Nazarian Jeff Camp and David Sholl', 'email': 'dalar@gatech.edu jcamp6@gatech.edu'}], '_method': 'VASP DFT with PBE;DDEC'}
data_SmC9(IO2)3
_symmetry_space_group_name_H-M   'P 1'
_cell_length_a   14.13410000
_cell_length_b   14.13410000
_cell_length_c   14.13410000
_cell_angle_alpha   90.00000000
_cell_angle_beta   90.00000000
_cell_angle_gamma   90.00000000
_symmetry_Int_Tables_number   1
_chemical_formula_structural   SmC9(IO2)3
_chemical_formula_sum   'Sm4 C36 I12 O24'
_cell_volume   2823.60848951
_cell_formula_units_Z   4
loop_
 _symmetry_equiv_pos_site_id
 _symmetry_equiv_pos_as_xyz
  1  'x, y, z'
loop_
 _atom_site_label
 _atom_site_fract_x
 _atom_site_fract_y
 _atom_site_fract_z
 _atom_site_charge
 Sm 0.000489999999999 0.99951 0.49951   2.135509
 Sm 0.49951 0.000489999999999 0.99951   2.135509
 Sm 0.99951 0.49951 0.000489999999999   2.135509
 Sm 0.50049 0.50049 0.50049   2.135509
 C 0.0901 0.164 0.5732   0.659818
 C 0.129 0.2536 0.6204   -0.075298
 C 0.0849 0.2914 0.7004   0.038424
 C 0.4099 0.836 0.0732   0.659818
 C 0.371 0.7464 0.1204   -0.075298
 C 0.4151 0.7086 0.2004   0.038424
 C 0.9099 0.664 0.9268   0.659818
 C 0.871 0.7536 0.8796   -0.075298
 C 0.9151 0.7914 0.7996   0.038424
 C 0.5901 0.336 0.4268   0.659818
 C 0.629 0.2464 0.3796   -0.075298
 C 0.5849 0.2086 0.2996   0.038424
 C 0.5732 0.0901 0.164   0.659818
 C 0.6204 0.129 0.2536   -0.075298
 C 0.7004 0.0849 0.2914   0.038424
 C 0.0732 0.4099 0.836   0.659818
 C 0.1204 0.371 0.7464   -0.075298
 C 0.2004 0.4151 0.7086   0.038424
 C 0.9268 0.9099 0.664   0.659818
 C 0.8796 0.871 0.7536   -0.075298
 C 0.7996 0.9151 0.7914   0.038424
 C 0.4268 0.5901 0.336   0.659818
 C 0.3796 0.629 0.2464   -0.075298
 C 0.2996 0.5849 0.2086   0.038424
 C 0.164 0.5732 0.0901   0.659818
 C 0.2536 0.6204 0.129   -0.075298
 C 0.2914 0.7004 0.0849   0.038424
 C 0.836 0.0732 0.4099   0.659818
 C 0.7464 0.1204 0.371   -0.075298
 C 0.7086 0.2004 0.4151   0.038424
 C 0.664 0.9268 0.9099   0.659818
 C 0.7536 0.8796 0.871   -0.075298
 C 0.7914 0.7996 0.9151   0.038424
 C 0.336 0.4268 0.5901   0.659818
 C 0.2464 0.3796 0.629   -0.075298
 C 0.2086 0.2996 0.5849   0.038424
 I 0.96194 0.22509 0.75131   0.001396
 I 0.53806 0.77491 0.25131   0.001396
 I 0.03806 0.72509 0.74869   0.001396
 I 0.46194 0.27491 0.24869   0.001396
 I 0.75131 0.96194 0.22509   0.001397
 I 0.25131 0.53806 0.77491   0.001397
 I 0.74869 0.03806 0.72509   0.001397
 I 0.24869 0.46194 0.27491   0.001397
 I 0.22509 0.75131 0.96194   0.001397
 I 0.77491 0.25131 0.53806   0.001397
 I 0.72509 0.74869 0.03806   0.001397
 I 0.27491 0.24869 0.46194   0.001397
 O 0.0163 0.17185 0.5256   -0.6599
 O 0.1326 0.08834 0.5861   -0.676277
 O 0.4837 0.82815 0.0256   -0.6599
 O 0.3674 0.91166 0.0861   -0.676277
 O 0.9837 0.67185 0.9744   -0.6599
 O 0.8674 0.58834 0.9139   -0.676277
 O 0.5163 0.32815 0.4744   -0.6599
 O 0.6326 0.41166 0.4139   -0.676277
 O 0.5256 0.0163 0.17185   -0.6599
 O 0.5861 0.1326 0.08834   -0.676277
 O 0.0256 0.4837 0.82815   -0.6599
 O 0.0861 0.3674 0.91166   -0.676277
 O 0.9744 0.9837 0.67185   -0.6599
 O 0.9139 0.8674 0.58834   -0.676277
 O 0.4744 0.5163 0.32815   -0.6599
 O 0.4139 0.6326 0.41166   -0.676277
 O 0.17185 0.5256 0.0163   -0.6599
 O 0.08834 0.5861 0.1326   -0.676277
 O 0.82815 0.0256 0.4837   -0.6599
 O 0.91166 0.0861 0.3674   -0.676277
 O 0.67185 0.9744 0.9837   -0.6599
 O 0.58834 0.9139 0.8674   -0.676277
 O 0.32815 0.4744 0.5163   -0.6599
 O 0.41166 0.4139 0.6326   -0.676277
