{'_ref': 'TBD', '_srcid': 'CAKYAQ_clean', 'submitters': [{'name': 'Dalar Nazarian Jeff Camp and David Sholl', 'email': 'dalar@gatech.edu jcamp6@gatech.edu'}], '_method': 'VASP DFT with PBE;DDEC'}
data_Zn4H12C24O13
_symmetry_space_group_name_H-M   'P 1'
_cell_length_a   18.30830009
_cell_length_b   18.30829972
_cell_length_c   18.30830000
_cell_angle_alpha   59.99999950
_cell_angle_beta   60.00000016
_cell_angle_gamma   59.99999945
_symmetry_Int_Tables_number   1
_chemical_formula_structural   Zn4H12C24O13
_chemical_formula_sum   'Zn8 H24 C48 O26'
_cell_volume   4339.39371027
_cell_formula_units_Z   2
loop_
 _symmetry_equiv_pos_site_id
 _symmetry_equiv_pos_as_xyz
  1  'x, y, z'
loop_
 _atom_site_label
 _atom_site_fract_x
 _atom_site_fract_y
 _atom_site_fract_z
 _atom_site_charge
 Zn 0.29342 0.29341 0.11976   1.117546
 Zn 0.29342 0.29341 0.29341   1.117546
 Zn 0.11977 0.29341 0.29341   1.11756
 Zn 0.29342 0.11976 0.29341   1.117547
 Zn 0.70658 0.70659 0.88024   1.117546
 Zn 0.70658 0.70659 0.70659   1.117546
 Zn 0.70658 0.88024 0.70659   1.117547
 Zn 0.88023 0.70659 0.70659   1.11756
 H 0.4548 0.4548 0.9348   0.114554
 H 0.4548 0.4548 0.1556   0.114554
 H 0.9348 0.1556 0.4548   0.114552
 H 0.1556 0.9348 0.4548   0.114548
 H 0.4548 0.9348 0.1556   0.114554
 H 0.4548 0.1556 0.9348   0.114554
 H 0.9348 0.4548 0.4548   0.114551
 H 0.1556 0.4548 0.4548   0.114547
 H 0.4548 0.1556 0.4548   0.114554
 H 0.4548 0.9348 0.4548   0.114553
 H 0.9348 0.4548 0.1556   0.114551
 H 0.1556 0.4548 0.9348   0.114547
 H 0.5452 0.5452 0.0652   0.114553
 H 0.5452 0.5452 0.8444   0.114553
 H 0.8444 0.0652 0.5452   0.114546
 H 0.0652 0.8444 0.5452   0.11455
 H 0.0652 0.5452 0.8444   0.11455
 H 0.8444 0.5452 0.0652   0.114546
 H 0.5452 0.0652 0.5452   0.114552
 H 0.5452 0.8444 0.5452   0.114552
 H 0.8444 0.5452 0.5452   0.114545
 H 0.0652 0.5452 0.5452   0.114549
 H 0.5452 0.0652 0.8444   0.114552
 H 0.5452 0.8444 0.0652   0.114552
 C 0.47317 0.47317 0.96131   -0.060509
 C 0.47317 0.47317 0.09235   -0.060509
 C 0.96131 0.09235 0.47317   -0.060513
 C 0.09235 0.96131 0.47317   -0.060517
 C 0.47317 0.96131 0.09235   -0.060509
 C 0.47317 0.09235 0.96131   -0.060509
 C 0.96131 0.47317 0.47317   -0.060513
 C 0.09235 0.47317 0.47317   -0.060517
 C 0.47317 0.09235 0.47317   -0.060509
 C 0.47317 0.96131 0.47317   -0.060509
 C 0.96131 0.47317 0.09235   -0.060513
 C 0.09235 0.47317 0.96131   -0.060517
 C 0.52683 0.52683 0.03869   -0.060511
 C 0.52683 0.52683 0.90765   -0.060511
 C 0.90765 0.03869 0.52683   -0.060519
 C 0.03869 0.90765 0.52683   -0.060515
 C 0.03869 0.52683 0.90765   -0.060515
 C 0.90765 0.52683 0.03869   -0.060519
 C 0.52683 0.03869 0.52683   -0.060511
 C 0.52683 0.90765 0.52683   -0.060512
 C 0.90765 0.52683 0.52683   -0.060519
 C 0.03869 0.52683 0.52683   -0.060515
 C 0.52683 0.03869 0.90765   -0.060511
 C 0.52683 0.90765 0.03869   -0.060511
 C 0.38843 0.38843 0.11157   0.711833
 C 0.44641 0.44641 0.05359   -0.123415
 C 0.11157 0.11157 0.38843   0.711814
 C 0.05359 0.05359 0.44641   -0.12341
 C 0.38843 0.11157 0.11157   0.711833
 C 0.44641 0.05359 0.05359   -0.123415
 C 0.11157 0.38843 0.38843   0.711814
 C 0.05359 0.44641 0.44641   -0.123411
 C 0.38843 0.11157 0.38843   0.711834
 C 0.44641 0.05359 0.44641   -0.123415
 C 0.11157 0.38843 0.11157   0.711814
 C 0.05359 0.44641 0.05359   -0.12341
 C 0.61157 0.61157 0.88843   0.711833
 C 0.55359 0.55359 0.94641   -0.123414
 C 0.88843 0.88843 0.61157   0.711813
 C 0.94641 0.94641 0.55359   -0.12341
 C 0.88843 0.61157 0.88843   0.711814
 C 0.94641 0.55359 0.94641   -0.12341
 C 0.61157 0.88843 0.61157   0.711833
 C 0.55359 0.94641 0.55359   -0.123415
 C 0.88843 0.61157 0.61157   0.711814
 C 0.94641 0.55359 0.55359   -0.12341
 C 0.61157 0.88843 0.88843   0.711834
 C 0.55359 0.94641 0.94641   -0.123414
 O 0.25 0.25 0.25   -1.273986
 O 0.75 0.75 0.75   -1.273986
 O 0.36629 0.36629 0.07237   -0.614597
 O 0.36629 0.36629 0.19505   -0.614596
 O 0.07237 0.19505 0.36629   -0.614598
 O 0.19505 0.07237 0.36629   -0.614585
 O 0.36629 0.07237 0.19505   -0.614597
 O 0.36629 0.19505 0.07237   -0.614597
 O 0.07237 0.36629 0.36629   -0.614598
 O 0.19505 0.36629 0.36629   -0.614585
 O 0.36629 0.19505 0.36629   -0.614597
 O 0.36629 0.07237 0.36629   -0.614597
 O 0.07237 0.36629 0.19505   -0.614598
 O 0.19505 0.36629 0.07237   -0.614585
 O 0.63371 0.63371 0.92763   -0.614597
 O 0.63371 0.63371 0.80495   -0.614596
 O 0.80495 0.92763 0.63371   -0.614585
 O 0.92763 0.80495 0.63371   -0.614598
 O 0.92763 0.63371 0.80495   -0.614598
 O 0.80495 0.63371 0.92763   -0.614585
 O 0.63371 0.92763 0.63371   -0.614597
 O 0.63371 0.80495 0.63371   -0.614597
 O 0.80495 0.63371 0.63371   -0.614585
 O 0.92763 0.63371 0.63371   -0.614598
 O 0.63371 0.92763 0.80495   -0.614597
 O 0.63371 0.80495 0.92763   -0.614597
