{'_ref': 'TBD', '_srcid': 'CAKYAQ_clean', 'submitters': [{'name': 'Dalar Nazarian Jeff Camp and David Sholl', 'email': 'dalar@gatech.edu jcamp6@gatech.edu'}], '_method': 'VASP DFT with PBE;DDEC'}
data_Zn4H12C24O13
_symmetry_space_group_name_H-M   'P 1'
_cell_length_a   18.22799995
_cell_length_b   18.22800016
_cell_length_c   18.22800000
_cell_angle_alpha   60.00000029
_cell_angle_beta   59.99999991
_cell_angle_gamma   60.00000137
_symmetry_Int_Tables_number   1
_chemical_formula_structural   Zn4H12C24O13
_chemical_formula_sum   'Zn8 H24 C48 O26'
_cell_volume   4282.54632665
_cell_formula_units_Z   2
loop_
 _symmetry_equiv_pos_site_id
 _symmetry_equiv_pos_as_xyz
  1  'x, y, z'
loop_
 _atom_site_label
 _atom_site_fract_x
 _atom_site_fract_y
 _atom_site_fract_z
 _atom_site_charge
 Zn 0.29358 0.29359 0.11924   1.130396
 Zn 0.29358 0.29359 0.29359   1.130395
 Zn 0.11923 0.29359 0.29359   1.130386
 Zn 0.29358 0.11924 0.29359   1.130396
 Zn 0.70642 0.70641 0.88076   1.130396
 Zn 0.70642 0.70641 0.70641   1.130395
 Zn 0.70642 0.88076 0.70641   1.130396
 Zn 0.88077 0.70641 0.70641   1.130387
 H 0.4557 0.4557 0.9367   0.104286
 H 0.4557 0.4557 0.1519   0.104286
 H 0.9367 0.1519 0.4557   0.104287
 H 0.1519 0.9367 0.4557   0.104289
 H 0.4557 0.9367 0.1519   0.104285
 H 0.4557 0.1519 0.9367   0.104285
 H 0.9367 0.4557 0.4557   0.104286
 H 0.1519 0.4557 0.4557   0.104289
 H 0.4557 0.1519 0.4557   0.104285
 H 0.4557 0.9367 0.4557   0.104285
 H 0.9367 0.4557 0.1519   0.104286
 H 0.1519 0.4557 0.9367   0.104288
 H 0.5443 0.5443 0.0633   0.104283
 H 0.5443 0.5443 0.8481   0.104283
 H 0.8481 0.0633 0.5443   0.104286
 H 0.0633 0.8481 0.5443   0.104284
 H 0.0633 0.5443 0.8481   0.104283
 H 0.8481 0.5443 0.0633   0.104285
 H 0.5443 0.0633 0.5443   0.104282
 H 0.5443 0.8481 0.5443   0.104282
 H 0.8481 0.5443 0.5443   0.104285
 H 0.0633 0.5443 0.5443   0.104283
 H 0.5443 0.0633 0.8481   0.104282
 H 0.5443 0.8481 0.0633   0.104282
 C 0.4734 0.4734 0.96356   -0.054325
 C 0.4734 0.4734 0.08964   -0.054325
 C 0.96356 0.08964 0.4734   -0.054318
 C 0.08964 0.96356 0.4734   -0.054319
 C 0.4734 0.96356 0.08964   -0.054325
 C 0.4734 0.08964 0.96356   -0.054325
 C 0.96356 0.4734 0.4734   -0.054318
 C 0.08964 0.4734 0.4734   -0.054319
 C 0.4734 0.08964 0.4734   -0.054325
 C 0.4734 0.96356 0.4734   -0.054325
 C 0.96356 0.4734 0.08964   -0.054318
 C 0.08964 0.4734 0.96356   -0.054319
 C 0.5266 0.5266 0.03644   -0.054314
 C 0.5266 0.5266 0.91036   -0.054314
 C 0.91036 0.03644 0.5266   -0.054307
 C 0.03644 0.91036 0.5266   -0.054307
 C 0.03644 0.5266 0.91036   -0.054307
 C 0.91036 0.5266 0.03644   -0.054308
 C 0.5266 0.03644 0.5266   -0.054314
 C 0.5266 0.91036 0.5266   -0.054314
 C 0.91036 0.5266 0.5266   -0.054308
 C 0.03644 0.5266 0.5266   -0.054307
 C 0.5266 0.03644 0.91036   -0.054314
 C 0.5266 0.91036 0.03644   -0.054314
 C 0.3885 0.3885 0.1115   0.730696
 C 0.4461 0.4461 0.0539   -0.123768
 C 0.1115 0.1115 0.3885   0.730682
 C 0.0539 0.0539 0.4461   -0.123773
 C 0.3885 0.1115 0.1115   0.730696
 C 0.4461 0.0539 0.0539   -0.123768
 C 0.1115 0.3885 0.3885   0.730682
 C 0.0539 0.4461 0.4461   -0.123773
 C 0.3885 0.1115 0.3885   0.730697
 C 0.4461 0.0539 0.4461   -0.123768
 C 0.1115 0.3885 0.1115   0.730683
 C 0.0539 0.4461 0.0539   -0.123773
 C 0.6115 0.6115 0.8885   0.730697
 C 0.5539 0.5539 0.9461   -0.123773
 C 0.8885 0.8885 0.6115   0.730683
 C 0.9461 0.9461 0.5539   -0.123777
 C 0.8885 0.6115 0.8885   0.730683
 C 0.9461 0.5539 0.9461   -0.123777
 C 0.6115 0.8885 0.6115   0.730697
 C 0.5539 0.9461 0.5539   -0.123773
 C 0.8885 0.6115 0.6115   0.730683
 C 0.9461 0.5539 0.5539   -0.123778
 C 0.6115 0.8885 0.8885   0.730697
 C 0.5539 0.9461 0.9461   -0.123772
 O 0.25 0.25 0.25   -1.289079
 O 0.75 0.75 0.75   -1.289079
 O 0.3661 0.3661 0.07322   -0.622821
 O 0.3661 0.3661 0.19458   -0.62282
 O 0.07322 0.19458 0.3661   -0.622804
 O 0.19458 0.07322 0.3661   -0.622761
 O 0.3661 0.07322 0.19458   -0.622821
 O 0.3661 0.19458 0.07322   -0.622821
 O 0.07322 0.3661 0.3661   -0.622804
 O 0.19458 0.3661 0.3661   -0.62276
 O 0.3661 0.19458 0.3661   -0.62282
 O 0.3661 0.07322 0.3661   -0.622821
 O 0.07322 0.3661 0.19458   -0.622804
 O 0.19458 0.3661 0.07322   -0.622761
 O 0.6339 0.6339 0.92678   -0.622821
 O 0.6339 0.6339 0.80542   -0.62282
 O 0.80542 0.92678 0.6339   -0.622761
 O 0.92678 0.80542 0.6339   -0.622804
 O 0.92678 0.6339 0.80542   -0.622804
 O 0.80542 0.6339 0.92678   -0.622761
 O 0.6339 0.92678 0.6339   -0.622821
 O 0.6339 0.80542 0.6339   -0.62282
 O 0.80542 0.6339 0.6339   -0.62276
 O 0.92678 0.6339 0.6339   -0.622804
 O 0.6339 0.92678 0.80542   -0.622821
 O 0.6339 0.80542 0.92678   -0.622821
