{'_ref': 'TBD', '_srcid': 'CAKYAQ_clean', 'submitters': [{'name': 'Dalar Nazarian Jeff Camp and David Sholl', 'email': 'dalar@gatech.edu jcamp6@gatech.edu'}], '_method': 'VASP DFT with PBE;DDEC'}
data_CdH24C36(NF2)4
_symmetry_space_group_name_H-M   'P 1'
_cell_length_a   13.15229987
_cell_length_b   13.15230057
_cell_length_c   16.57650000
_cell_angle_alpha   111.19100075
_cell_angle_beta   111.19100194
_cell_angle_gamma   94.18040034
_symmetry_Int_Tables_number   1
_chemical_formula_structural   CdH24C36(NF2)4
_chemical_formula_sum   'Cd2 H48 C72 N8 F16'
_cell_volume   2423.46874995
_cell_formula_units_Z   2
loop_
 _symmetry_equiv_pos_site_id
 _symmetry_equiv_pos_as_xyz
  1  'x, y, z'
loop_
 _atom_site_label
 _atom_site_fract_x
 _atom_site_fract_y
 _atom_site_fract_z
 _atom_site_charge
 Cd 0.12363 0.87637 0.25   0.661732
 Cd 0.87637 0.12363 0.75   0.661732
 H 0.9287 0.9523 0.3144   0.057881
 H 0.2347 0.1389 0.4267   0.04247
 H 0.8758 0.0958 0.4097   0.129136
 H 0.1884 0.2848 0.525   0.126812
 H 0.353 0.8178 0.2318   0.058775
 H 0.0459 0.7187 0.0275   0.056087
 H 0.4218 0.7252 0.1246   0.121198
 H 0.1117 0.6215 0.9158   0.124809
 H 0.3406 0.6546 0.9113   0.103577
 H 0.2503 0.5381 0.8725   0.106825
 H 0.0405 0.3195 0.6023   0.09796
 H 0.9215 0.2707 0.5299   0.097657
 H 0.0477 0.0713 0.1856   0.057881
 H 0.8611 0.7653 0.0733   0.04247
 H 0.9042 0.1242 0.0903   0.129136
 H 0.7152 0.8116 0.975   0.126813
 H 0.1822 0.647 0.2682   0.058775
 H 0.2813 0.9541 0.4725   0.056087
 H 0.2748 0.5782 0.3754   0.121198
 H 0.3785 0.8883 0.5842   0.124809
 H 0.3454 0.6594 0.5887   0.103577
 H 0.4619 0.7497 0.6275   0.106825
 H 0.6805 0.9595 0.8977   0.097961
 H 0.7293 0.0785 0.9701   0.097653
 H 0.0713 0.0477 0.6856   0.057881
 H 0.7653 0.8611 0.5733   0.04247
 H 0.1242 0.9042 0.5903   0.129135
 H 0.8116 0.7152 0.475   0.126812
 H 0.647 0.1822 0.7682   0.058773
 H 0.9541 0.2813 0.9725   0.056087
 H 0.5782 0.2748 0.8754   0.121197
 H 0.8883 0.3785 0.0842   0.124806
 H 0.6594 0.3454 0.0887   0.103577
 H 0.7497 0.4619 0.1275   0.106825
 H 0.9595 0.6805 0.3977   0.097961
 H 0.0785 0.7293 0.4701   0.097657
 H 0.9523 0.9287 0.8144   0.057881
 H 0.1389 0.2347 0.9267   0.04247
 H 0.0958 0.8758 0.9097   0.129135
 H 0.2848 0.1884 0.025   0.126812
 H 0.8178 0.353 0.7318   0.058774
 H 0.7187 0.0459 0.5275   0.056087
 H 0.7252 0.4218 0.6246   0.121198
 H 0.6215 0.1117 0.4158   0.124807
 H 0.6546 0.3406 0.4113   0.103577
 H 0.5381 0.2503 0.3725   0.106825
 H 0.3195 0.0405 0.1023   0.097961
 H 0.2707 0.9215 0.0299   0.097653
 C 0.30149 0.77903 0.16415   0.123328
 C 0.12436 0.72118 0.04636   0.134542
 C 0.34538 0.7242 0.10063   -0.238986
 C 0.16174 0.66404 0.97858   -0.24689
 C 0.27411 0.66437 0.00499   0.122042
 C 0.315 0.60144 0.93042   -0.162087
 C 0.41004 0.54966 0.96641   -0.094364
 C 0.39181 0.44423 0.96524   0.139241
 C 0.47862 0.39646 0.99743   0.131734
 C 0.98343 0.02017 0.3585   0.133852
 C 0.16091 0.12769 0.4235   0.145216
 C 0.95012 0.10528 0.414   -0.234412
 C 0.13369 0.21671 0.4818   -0.245804
 C 0.02947 0.20497 0.47598   0.133162
 C 0.99492 0.2989 0.53834   -0.146361
 C 0.99859 0.40221 0.51847   -0.110486
 C 0.91397 0.40829 0.44233   0.138437
 C 0.91437 0.50281 0.42436   0.139732
 C 0.22097 0.69851 0.33585   0.123328
 C 0.27882 0.87564 0.45364   0.134542
 C 0.2758 0.65462 0.39937   -0.238986
 C 0.33596 0.83826 0.52142   -0.246891
 C 0.33563 0.72589 0.49501   0.122042
 C 0.39856 0.685 0.56958   -0.162086
 C 0.45034 0.58996 0.53359   -0.094364
 C 0.55577 0.60819 0.53476   0.139242
 C 0.60354 0.52138 0.50257   0.131733
 C 0.97983 0.01657 0.1415   0.133852
 C 0.87231 0.83909 0.0765   0.145216
 C 0.89472 0.04988 0.086   -0.234412
 C 0.78329 0.86631 0.0182   -0.245804
 C 0.79503 0.97053 0.02402   0.133163
 C 0.7011 0.00508 0.96166   -0.146361
 C 0.59779 0.00141 0.98153   -0.110484
 C 0.59171 0.08603 0.05767   0.138437
 C 0.49719 0.08563 0.07564   0.139732
 C 0.69851 0.22097 0.83585   0.123328
 C 0.87564 0.27882 0.95364   0.134542
 C 0.65462 0.2758 0.89937   -0.238986
 C 0.83826 0.33596 0.02142   -0.246889
 C 0.72589 0.33563 0.99501   0.122041
 C 0.685 0.39856 0.06958   -0.162087
 C 0.58996 0.45034 0.03359   -0.094361
 C 0.60819 0.55577 0.03476   0.139241
 C 0.52138 0.60354 0.00257   0.131736
 C 0.01657 0.97983 0.6415   0.133852
 C 0.83909 0.87231 0.5765   0.145216
 C 0.04988 0.89472 0.586   -0.234411
 C 0.86631 0.78329 0.5182   -0.245804
 C 0.97053 0.79503 0.52402   0.133162
 C 0.00508 0.7011 0.46166   -0.146361
 C 0.00141 0.59779 0.48153   -0.110487
 C 0.08603 0.59171 0.55767   0.138437
 C 0.08563 0.49719 0.57564   0.139731
 C 0.77903 0.30149 0.66415   0.123328
 C 0.72118 0.12436 0.54636   0.134542
 C 0.7242 0.34538 0.60063   -0.238986
 C 0.66404 0.16174 0.47858   -0.24689
 C 0.66437 0.27411 0.50499   0.122041
 C 0.60144 0.315 0.43042   -0.162087
 C 0.54966 0.41004 0.46641   -0.094361
 C 0.44423 0.39181 0.46524   0.139241
 C 0.39646 0.47862 0.49743   0.131736
 C 0.02017 0.98343 0.8585   0.133853
 C 0.12769 0.16091 0.9235   0.145216
 C 0.10528 0.95012 0.914   -0.23441
 C 0.21671 0.13369 0.9818   -0.245804
 C 0.20497 0.02947 0.97598   0.133163
 C 0.2989 0.99492 0.03834   -0.146361
 C 0.40221 0.99859 0.01847   -0.110486
 C 0.40829 0.91397 0.94233   0.138437
 C 0.50281 0.91437 0.92436   0.139731
 N 0.19245 0.77825 0.13847   -0.395657
 N 0.09104 0.02666 0.3628   -0.386067
 N 0.22175 0.80755 0.36153   -0.395658
 N 0.97334 0.90896 0.1372   -0.386067
 N 0.80755 0.22175 0.86153   -0.395657
 N 0.90896 0.97334 0.6372   -0.386067
 N 0.77825 0.19245 0.63847   -0.395658
 N 0.02666 0.09104 0.8628   -0.386067
 F 0.28577 0.38683 0.93187   -0.138441
 F 0.45374 0.29318 0.99415   -0.13071
 F 0.82749 0.31795 0.38275   -0.128539
 F 0.82852 0.50152 0.34917   -0.136534
 F 0.61317 0.71423 0.56813   -0.138441
 F 0.70682 0.54626 0.50585   -0.130709
 F 0.68205 0.17251 0.11725   -0.128539
 F 0.49848 0.17148 0.15083   -0.136534
 F 0.71423 0.61317 0.06813   -0.138441
 F 0.54626 0.70682 0.00585   -0.13071
 F 0.17251 0.68205 0.61725   -0.128539
 F 0.17148 0.49848 0.65083   -0.136534
 F 0.38683 0.28577 0.43187   -0.138441
 F 0.29318 0.45374 0.49415   -0.13071
 F 0.31795 0.82749 0.88275   -0.128539
 F 0.50152 0.82852 0.84917   -0.136534
