{'_ref': 'TBD', '_srcid': 'CAKYAQ_clean', 'submitters': [{'name': 'Dalar Nazarian Jeff Camp and David Sholl', 'email': 'dalar@gatech.edu jcamp6@gatech.edu'}], '_method': 'VASP DFT with PBE;DDEC'}
data_CdH24C36(NF2)4
_symmetry_space_group_name_H-M   'P 1'
_cell_length_a   13.45880005
_cell_length_b   13.45880036
_cell_length_c   17.11880000
_cell_angle_alpha   111.33500096
_cell_angle_beta   111.33500147
_cell_angle_gamma   90.49669967
_symmetry_Int_Tables_number   1
_chemical_formula_structural   CdH24C36(NF2)4
_chemical_formula_sum   'Cd2 H48 C72 N8 F16'
_cell_volume   2654.65576524
_cell_formula_units_Z   2
loop_
 _symmetry_equiv_pos_site_id
 _symmetry_equiv_pos_as_xyz
  1  'x, y, z'
loop_
 _atom_site_label
 _atom_site_fract_x
 _atom_site_fract_y
 _atom_site_fract_z
 _atom_site_charge
 Cd 0.62538 0.37462 0.25   0.535662
 Cd 0.37462 0.62538 0.75   0.535662
 H 0.5164 0.1542 0.0564   0.047922
 H 0.8215 0.3223 0.1868   0.043669
 H 0.5764 0.0162 0.9539   0.110091
 H 0.8806 0.1938 0.0874   0.12022
 H 0.7296 0.938 0.932   0.099147
 H 0.7324 0.0034 0.887   0.104298
 H 0.6269 0.4889 0.4523   0.058602
 H 0.5885 0.6111 0.2752   0.051522
 H 0.6402 0.6628 0.5629   0.115669
 H 0.6064 0.7832 0.381   0.11611
 H 0.6274 0.8464 0.6068   0.104715
 H 0.713 0.8894 0.5802   0.107189
 H 0.8458 0.4836 0.4436   0.047922
 H 0.6777 0.1785 0.3132   0.043669
 H 0.9838 0.4236 0.5461   0.110091
 H 0.8062 0.1194 0.4126   0.12022
 H 0.062 0.2704 0.568   0.099147
 H 0.9966 0.2676 0.613   0.104298
 H 0.5111 0.3731 0.0477   0.058602
 H 0.3889 0.4115 0.2248   0.051522
 H 0.3372 0.3598 0.9371   0.115669
 H 0.2168 0.3936 0.119   0.116109
 H 0.1536 0.3726 0.8932   0.104715
 H 0.1106 0.287 0.9198   0.107189
 H 0.4836 0.8458 0.9436   0.047922
 H 0.1785 0.6777 0.8132   0.04367
 H 0.4236 0.9838 0.0461   0.110092
 H 0.1194 0.8062 0.9126   0.12022
 H 0.2704 0.062 0.068   0.099147
 H 0.2676 0.9966 0.113   0.104298
 H 0.3731 0.5111 0.5477   0.058602
 H 0.4115 0.3889 0.7248   0.051522
 H 0.3598 0.3372 0.4371   0.115669
 H 0.3936 0.2168 0.619   0.116109
 H 0.3726 0.1536 0.3932   0.104715
 H 0.287 0.1106 0.4198   0.107189
 H 0.1542 0.5164 0.5564   0.047922
 H 0.3223 0.8215 0.6868   0.043669
 H 0.0162 0.5764 0.4539   0.110092
 H 0.1938 0.8806 0.5874   0.12022
 H 0.938 0.7296 0.432   0.099147
 H 0.0034 0.7324 0.387   0.104298
 H 0.4889 0.6269 0.9523   0.058602
 H 0.6111 0.5885 0.7752   0.051522
 H 0.6628 0.6402 0.0629   0.115669
 H 0.7832 0.6064 0.881   0.116108
 H 0.8464 0.6274 0.1068   0.104715
 H 0.8894 0.713 0.0802   0.107189
 C 0.60125 0.16221 0.06583   0.125858
 C 0.76999 0.25865 0.13673   0.137725
 C 0.63008 0.08204 0.00407   -0.245969
 C 0.80544 0.18178 0.07788   -0.225939
 C 0.73482 0.08966 0.01063   0.131107
 C 0.76631 9.00000000001e-05 0.94363   -0.13011
 C 0.88685 0.000810000000001 0.97255   -0.108218
 C 0.94274 0.95482 0.03262   0.14394
 C 0.05232 0.95426 0.05887   0.147331
 C 0.6213 0.55274 0.43983   0.119862
 C 0.60047 0.62525 0.33516   0.134479
 C 0.6286 0.65272 0.50549   -0.228115
 C 0.60773 0.72709 0.39701   -0.234023
 C 0.6252 0.7434 0.48573   0.115869
 C 0.64107 0.85417 0.55932   -0.145774
 C 0.56849 0.92849 0.52766   -0.101484
 C 0.46711 0.93107 0.53067   0.140567
 C 0.40174 0.00116 0.50471   0.136847
 C 0.83779 0.39875 0.43417   0.125858
 C 0.74135 0.23001 0.36327   0.137725
 C 0.91796 0.36992 0.49593   -0.245969
 C 0.81822 0.19456 0.42212   -0.225939
 C 0.91034 0.26518 0.48937   0.131107
 C 0.99991 0.23369 0.55637   -0.13011
 C 0.99919 0.11315 0.52745   -0.108217
 C 0.04518 0.05726 0.46738   0.14394
 C 0.04574 0.94768 0.44113   0.147331
 C 0.44726 0.3787 0.06017   0.119862
 C 0.37475 0.39953 0.16484   0.134478
 C 0.34728 0.3714 0.99451   -0.228115
 C 0.27291 0.39227 0.10299   -0.234023
 C 0.2566 0.3748 0.01427   0.115869
 C 0.14583 0.35893 0.94068   -0.145774
 C 0.07151 0.43151 0.97234   -0.101484
 C 0.06893 0.53289 0.96933   0.140567
 C 0.99884 0.59826 0.99529   0.136847
 C 0.39875 0.83779 0.93417   0.125858
 C 0.23001 0.74135 0.86327   0.137725
 C 0.36992 0.91796 0.99593   -0.245969
 C 0.19456 0.81822 0.92212   -0.225939
 C 0.26518 0.91034 0.98937   0.131107
 C 0.23369 0.99991 0.05637   -0.130111
 C 0.11315 0.99919 0.02745   -0.108209
 C 0.05726 0.04518 0.96738   0.143938
 C 0.94768 0.04574 0.94113   0.147338
 C 0.3787 0.44726 0.56017   0.119862
 C 0.39953 0.37475 0.66484   0.134478
 C 0.3714 0.34728 0.49451   -0.228114
 C 0.39227 0.27291 0.60299   -0.234023
 C 0.3748 0.2566 0.51427   0.115869
 C 0.35893 0.14583 0.44068   -0.145774
 C 0.43151 0.07151 0.47234   -0.101483
 C 0.53289 0.06893 0.46933   0.140567
 C 0.59826 0.99884 0.49529   0.136847
 C 0.16221 0.60125 0.56583   0.125858
 C 0.25865 0.76999 0.63673   0.137725
 C 0.08204 0.63008 0.50407   -0.245969
 C 0.18178 0.80544 0.57788   -0.225939
 C 0.08966 0.73482 0.51063   0.131107
 C 9.00000000001e-05 0.76631 0.44363   -0.130111
 C 0.000810000000001 0.88685 0.47255   -0.108209
 C 0.95482 0.94274 0.53262   0.143938
 C 0.95426 0.05232 0.55887   0.147338
 C 0.55274 0.6213 0.93983   0.119862
 C 0.62525 0.60047 0.83516   0.134478
 C 0.65272 0.6286 0.00549   -0.228114
 C 0.72709 0.60773 0.89701   -0.234023
 C 0.7434 0.6252 0.98573   0.115869
 C 0.85417 0.64107 0.05932   -0.145774
 C 0.92849 0.56849 0.02766   -0.101483
 C 0.93107 0.46711 0.03067   0.140567
 C 0.00116 0.40174 0.00471   0.136847
 N 0.66946 0.2488 0.13252   -0.343648
 N 0.60914 0.53766 0.35542   -0.364719
 N 0.7512 0.33054 0.36748   -0.343648
 N 0.46234 0.39086 0.14458   -0.364719
 N 0.33054 0.7512 0.86748   -0.343648
 N 0.39086 0.46234 0.64458   -0.364719
 N 0.2488 0.66946 0.63252   -0.343648
 N 0.53766 0.60914 0.85542   -0.364719
 F 0.88852 0.90946 0.06675   -0.131784
 F 0.10069 0.91049 0.12002   -0.143479
 F 0.43151 0.86471 0.5611   -0.145079
 F 0.30496 0.000340000000001 0.51157   -0.132235
 F 0.09054 0.11148 0.43325   -0.131784
 F 0.08951 0.89931 0.37998   -0.14348
 F 0.13529 0.56849 0.9389   -0.145079
 F 0.99966 0.69504 0.98843   -0.132235
 F 0.11148 0.09054 0.93325   -0.131784
 F 0.89931 0.08951 0.87998   -0.14348
 F 0.56849 0.13529 0.4389   -0.145079
 F 0.69504 0.99966 0.48843   -0.132235
 F 0.90946 0.88852 0.56675   -0.131784
 F 0.91049 0.10069 0.62002   -0.14348
 F 0.86471 0.43151 0.0611   -0.145079
 F 0.000340000000001 0.30496 0.01157   -0.132235
