{'_ref': 'TBD', '_srcid': 'CAKYAQ_clean', 'submitters': [{'name': 'Dalar Nazarian Jeff Camp and David Sholl', 'email': 'dalar@gatech.edu jcamp6@gatech.edu'}], '_method': 'VASP DFT with PBE;DDEC'}
data_ZnH20C20S2(NO2)2
_symmetry_space_group_name_H-M   'P 1'
_cell_length_a   11.53120000
_cell_length_b   14.82190000
_cell_length_c   14.82190000
_cell_angle_alpha   90.00000000
_cell_angle_beta   90.00000000
_cell_angle_gamma   90.00000000
_symmetry_Int_Tables_number   1
_chemical_formula_structural   ZnH20C20S2(NO2)2
_chemical_formula_sum   'Zn4 H80 C80 S8 N8 O16'
_cell_volume   2533.27456357
_cell_formula_units_Z   4
loop_
 _symmetry_equiv_pos_site_id
 _symmetry_equiv_pos_as_xyz
  1  'x, y, z'
loop_
 _atom_site_label
 _atom_site_fract_x
 _atom_site_fract_y
 _atom_site_fract_z
 _atom_site_charge
 Zn 0.75 0.88747 0.11253   0.903564
 Zn 0.25 0.11253 0.88747   0.903564
 Zn 0.5 0.38747 0.38747   0.903564
 Zn 0.0 0.61253 0.61253   0.903564
 H 0.4386 0.3665 0.0894   0.153706
 H 0.5584 0.4077 0.0537   0.147563
 H 0.5463 0.3013 0.0698   0.141025
 H 0.8885 0.3113 0.291   0.149199
 H 0.9021 0.4165 0.2691   0.135453
 H 0.8818 0.3838 0.3708   0.138542
 H 0.6523 0.2 0.2184   0.133649
 H 0.6538 0.0447 0.2124   0.06711
 H 0.8918 0.0451 0.0227   0.079194
 H 0.8996 0.2008 0.0234   0.145971
 H 0.9386 0.6335 0.9106   0.153706
 H 0.0584 0.5923 0.9463   0.147563
 H 0.0463 0.6987 0.9302   0.141025
 H 0.3885 0.6887 0.709   0.149199
 H 0.4021 0.5835 0.7309   0.135453
 H 0.3818 0.6162 0.6292   0.138542
 H 0.1523 0.8 0.7816   0.133649
 H 0.1538 0.9553 0.7876   0.06711
 H 0.3918 0.9549 0.9773   0.079194
 H 0.3996 0.7992 0.9766   0.145971
 H 0.1886 0.4106 0.8665   0.153704
 H 0.3084 0.4463 0.9077   0.147562
 H 0.2963 0.4302 0.8013   0.141025
 H 0.6385 0.209 0.8113   0.149199
 H 0.6521 0.2309 0.9165   0.135453
 H 0.6318 0.1292 0.8838   0.138542
 H 0.4023 0.2816 0.7   0.133649
 H 0.4038 0.2876 0.5447   0.06711
 H 0.6418 0.4773 0.5451   0.079194
 H 0.6496 0.4766 0.7008   0.145971
 H 0.6886 0.5894 0.1335   0.153704
 H 0.8084 0.5537 0.0923   0.147562
 H 0.7963 0.5698 0.1987   0.141025
 H 0.1385 0.791 0.1887   0.149199
 H 0.1521 0.7691 0.0835   0.135453
 H 0.1318 0.8708 0.1162   0.138542
 H 0.9023 0.7184 0.3   0.133649
 H 0.9038 0.7124 0.4553   0.06711
 H 0.1418 0.5227 0.4549   0.079194
 H 0.1496 0.5234 0.2992   0.145971
 H 0.3114 0.1335 0.5894   0.153706
 H 0.1916 0.0923 0.5537   0.147563
 H 0.2037 0.1987 0.5698   0.141025
 H 0.8615 0.1887 0.791   0.1492
 H 0.8479 0.0835 0.7691   0.135453
 H 0.8682 0.1162 0.8708   0.138542
 H 0.0977 0.3 0.7184   0.133648
 H 0.0962 0.4553 0.7124   0.067109
 H 0.8582 0.4549 0.5227   0.079195
 H 0.8504 0.2992 0.5234   0.145971
 H 0.8114 0.8665 0.4106   0.153706
 H 0.6916 0.9077 0.4463   0.147563
 H 0.7037 0.8013 0.4302   0.141025
 H 0.3615 0.8113 0.209   0.1492
 H 0.3479 0.9165 0.2309   0.135453
 H 0.3682 0.8838 0.1292   0.138542
 H 0.5977 0.7 0.2816   0.133648
 H 0.5962 0.5447 0.2876   0.067109
 H 0.3582 0.5451 0.4773   0.079195
 H 0.3504 0.7008 0.4766   0.145971
 H 0.5614 0.0894 0.3665   0.153704
 H 0.4416 0.0537 0.4077   0.147562
 H 0.4537 0.0698 0.3013   0.141025
 H 0.1115 0.291 0.3113   0.1492
 H 0.0979 0.2691 0.4165   0.135453
 H 0.1182 0.3708 0.3838   0.138542
 H 0.3477 0.2184 0.2   0.133648
 H 0.3462 0.2124 0.0447   0.067109
 H 0.1082 0.0227 0.0451   0.079195
 H 0.1004 0.0234 0.2008   0.145971
 H 0.0614 0.9106 0.6335   0.153704
 H 0.9416 0.9463 0.5923   0.147562
 H 0.9537 0.9302 0.6987   0.141025
 H 0.6115 0.709 0.6887   0.1492
 H 0.5979 0.7309 0.5835   0.135453
 H 0.6182 0.6292 0.6162   0.138542
 H 0.8477 0.7816 0.8   0.133648
 H 0.8462 0.7876 0.9553   0.067109
 H 0.6082 0.9773 0.9549   0.079195
 H 0.6004 0.9766 0.7992   0.145971
 C 0.5232 0.3611 0.09177   -0.49694
 C 0.5638 0.37273 0.18785   0.551898
 C 0.6853 0.36623 0.20717   -0.466461
 C 0.7342 0.37948 0.29427   0.552646
 C 0.8628 0.3721 0.3074   -0.483817
 C 0.7766 0.21838 0.12105   0.120693
 C 0.7023 0.16966 0.17752   -0.222575
 C 0.7031 0.07722 0.1727   0.177714
 C 0.842 0.07732 0.06228   0.160789
 C 0.8477 0.17008 0.06263   -0.229449
 C 0.0232 0.6389 0.90823   -0.49694
 C 0.0638 0.62727 0.81215   0.551898
 C 0.1853 0.63377 0.79283   -0.466461
 C 0.2342 0.62052 0.70573   0.552646
 C 0.3628 0.6279 0.6926   -0.483817
 C 0.2766 0.78162 0.87895   0.120693
 C 0.2023 0.83034 0.82248   -0.222575
 C 0.2031 0.92278 0.8273   0.177714
 C 0.342 0.92268 0.93772   0.160789
 C 0.3477 0.82992 0.93737   -0.229449
 C 0.2732 0.40823 0.8611   -0.496939
 C 0.3138 0.31215 0.87273   0.551898
 C 0.4353 0.29283 0.86623   -0.466461
 C 0.4842 0.20573 0.87948   0.552646
 C 0.6128 0.1926 0.8721   -0.483817
 C 0.5266 0.37895 0.71838   0.120693
 C 0.4523 0.32248 0.66966   -0.222575
 C 0.4531 0.3273 0.57722   0.177714
 C 0.592 0.43772 0.57732   0.160789
 C 0.5977 0.43737 0.67008   -0.229449
 C 0.7732 0.59177 0.1389   -0.496939
 C 0.8138 0.68785 0.12727   0.551898
 C 0.9353 0.70717 0.13377   -0.466461
 C 0.9842 0.79427 0.12052   0.552646
 C 0.1128 0.8074 0.1279   -0.483817
 C 0.0266 0.62105 0.28162   0.120693
 C 0.9523 0.67752 0.33034   -0.222575
 C 0.9531 0.6727 0.42278   0.177714
 C 0.092 0.56228 0.42268   0.160789
 C 0.0977 0.56263 0.32992   -0.229449
 C 0.2268 0.1389 0.59177   -0.49694
 C 0.1862 0.12727 0.68785   0.551898
 C 0.0647 0.13377 0.70717   -0.466461
 C 0.0158 0.12052 0.79427   0.552646
 C 0.8872 0.1279 0.8074   -0.483818
 C 0.9734 0.28162 0.62105   0.120693
 C 0.0477 0.33034 0.67752   -0.222574
 C 0.0469 0.42278 0.6727   0.177714
 C 0.908 0.42268 0.56228   0.160789
 C 0.9023 0.32992 0.56263   -0.229448
 C 0.7268 0.8611 0.40823   -0.49694
 C 0.6862 0.87273 0.31215   0.551898
 C 0.5647 0.86623 0.29283   -0.466461
 C 0.5158 0.87948 0.20573   0.552646
 C 0.3872 0.8721 0.1926   -0.483818
 C 0.4734 0.71838 0.37895   0.120693
 C 0.5477 0.66966 0.32248   -0.222574
 C 0.5469 0.57722 0.3273   0.177714
 C 0.408 0.57732 0.43772   0.160789
 C 0.4023 0.67008 0.43737   -0.229448
 C 0.4768 0.09177 0.3611   -0.496939
 C 0.4362 0.18785 0.37273   0.551898
 C 0.3147 0.20717 0.36623   -0.466461
 C 0.2658 0.29427 0.37948   0.552646
 C 0.1372 0.3074 0.3721   -0.483817
 C 0.2234 0.12105 0.21838   0.120693
 C 0.2977 0.17752 0.16966   -0.222574
 C 0.2969 0.1727 0.07722   0.177714
 C 0.158 0.06228 0.07732   0.160789
 C 0.1523 0.06263 0.17008   -0.229448
 C 0.9768 0.90823 0.6389   -0.496939
 C 0.9362 0.81215 0.62727   0.551898
 C 0.8147 0.79283 0.63377   -0.466461
 C 0.7658 0.70573 0.62052   0.552646
 C 0.6372 0.6926 0.6279   -0.483817
 C 0.7234 0.87895 0.78162   0.120693
 C 0.7977 0.82248 0.83034   -0.222574
 C 0.7969 0.8273 0.92278   0.177714
 C 0.658 0.93772 0.92268   0.160789
 C 0.6523 0.93737 0.82992   -0.229448
 S 0.77979 0.33706 0.11858   -0.003291
 S 0.27979 0.66294 0.88142   -0.003291
 S 0.52979 0.38142 0.83706   -0.003292
 S 0.02979 0.61858 0.16294   -0.003292
 S 0.97021 0.16294 0.61858   -0.003291
 S 0.47021 0.83706 0.38142   -0.003291
 S 0.22021 0.11858 0.33706   -0.003292
 S 0.72021 0.88142 0.66294   -0.003292
 N 0.7694 0.03001 0.11523   -0.349229
 N 0.2694 0.96999 0.88477   -0.349229
 N 0.5194 0.38477 0.53001   -0.349229
 N 0.0194 0.61523 0.46999   -0.349229
 N 0.9806 0.46999 0.61523   -0.349229
 N 0.4806 0.53001 0.38477   -0.349229
 N 0.2306 0.11523 0.03001   -0.349229
 N 0.7306 0.88477 0.96999   -0.349229
 O 0.48713 0.38701 0.24605   -0.522049
 O 0.67603 0.39733 0.36487   -0.533123
 O 0.98713 0.61299 0.75395   -0.522049
 O 0.17603 0.60267 0.63513   -0.533123
 O 0.23713 0.25395 0.88701   -0.522049
 O 0.42603 0.13513 0.89733   -0.533123
 O 0.73713 0.74605 0.11299   -0.522049
 O 0.92603 0.86487 0.10267   -0.533123
 O 0.26287 0.11299 0.74605   -0.522049
 O 0.07397 0.10267 0.86487   -0.533123
 O 0.76287 0.88701 0.25395   -0.522049
 O 0.57397 0.89733 0.13513   -0.533123
 O 0.51287 0.24605 0.38701   -0.522049
 O 0.32397 0.36487 0.39733   -0.533123
 O 0.01287 0.75395 0.61299   -0.522049
 O 0.82397 0.63513 0.60267   -0.533123
