{'_ref': 'TBD', '_srcid': 'CAKYAQ_clean', 'submitters': [{'name': 'Dalar Nazarian Jeff Camp and David Sholl', 'email': 'dalar@gatech.edu jcamp6@gatech.edu'}], '_method': 'VASP DFT with PBE;DDEC'}
data_CdH15(C9O2)3
_symmetry_space_group_name_H-M   'P 1'
_cell_length_a   8.98600000
_cell_length_b   14.91500026
_cell_length_c   26.75900000
_cell_angle_alpha   96.27199901
_cell_angle_beta   90.00000000
_cell_angle_gamma   90.00000000
_symmetry_Int_Tables_number   1
_chemical_formula_structural   CdH15(C9O2)3
_chemical_formula_sum   'Cd4 H60 C108 O24'
_cell_volume   3564.94031588
_cell_formula_units_Z   4
loop_
 _symmetry_equiv_pos_site_id
 _symmetry_equiv_pos_as_xyz
  1  'x, y, z'
loop_
 _atom_site_label
 _atom_site_fract_x
 _atom_site_fract_y
 _atom_site_fract_z
 _atom_site_charge
 Cd 0.81228 0.55884 0.85851   1.070182
 Cd 0.68772 0.05884 0.35851   1.070182
 Cd 0.31228 0.94116 0.64149   1.070182
 Cd 0.18772 0.44116 0.14149   1.070182
 H 0.9976 0.4086 0.9961   0.108152
 H 0.9822 0.2485 0.8654   0.110229
 H 0.4024 0.682 0.9749   0.120328
 H 0.2576 0.7982 0.0126   0.10168
 H 0.4644 0.971 0.9307   0.108337
 H 0.6085 0.8543 0.8933   0.101176
 H 0.2309 0.9216 0.0683   0.106293
 H 0.0313 0.1617 0.0659   0.110813
 H 0.2562 0.0517 0.9449   0.109243
 H 0.2298 0.9712 0.1565   0.116744
 H 0.1243 0.9652 0.2347   0.112137
 H 0.7584 0.0864 0.1911   0.109395
 H 0.8624 0.096 0.1131   0.097986
 H 0.0916 0.2913 0.0355   0.099993
 H 0.0763 0.1309 0.905   0.094298
 H 0.5024 0.9086 0.4961   0.108152
 H 0.5178 0.7485 0.3654   0.110229
 H 0.0976 0.182 0.4749   0.120328
 H 0.2424 0.2982 0.5126   0.10168
 H 0.0356 0.471 0.4307   0.108337
 H 0.8915 0.3543 0.3933   0.101176
 H 0.2691 0.4216 0.5683   0.106293
 H 0.4687 0.6617 0.5659   0.110813
 H 0.2438 0.5517 0.4449   0.109243
 H 0.2702 0.4712 0.6565   0.116743
 H 0.3757 0.4652 0.7347   0.112136
 H 0.7416 0.5864 0.6911   0.109395
 H 0.6376 0.596 0.6131   0.097986
 H 0.4084 0.7913 0.5355   0.099993
 H 0.4237 0.6309 0.405   0.094298
 H 0.4976 0.0914 0.5039   0.108152
 H 0.4822 0.2515 0.6346   0.110228
 H 0.9024 0.818 0.5251   0.120329
 H 0.7576 0.7018 0.4874   0.10168
 H 0.9644 0.529 0.5693   0.108337
 H 0.1085 0.6457 0.6067   0.101176
 H 0.7309 0.5784 0.4317   0.106293
 H 0.5313 0.3383 0.4341   0.110813
 H 0.7562 0.4483 0.5551   0.109243
 H 0.7298 0.5288 0.3435   0.116743
 H 0.6243 0.5348 0.2653   0.112136
 H 0.2584 0.4136 0.3089   0.109395
 H 0.3624 0.404 0.3869   0.097986
 H 0.5916 0.2087 0.4645   0.099993
 H 0.5763 0.3691 0.595   0.094298
 H 0.0024 0.5914 0.0039   0.108152
 H 0.0178 0.7515 0.1346   0.110227
 H 0.5976 0.318 0.0251   0.120329
 H 0.7424 0.2018 0.9874   0.10168
 H 0.5356 0.029 0.0693   0.108337
 H 0.3915 0.1457 0.1067   0.101176
 H 0.7691 0.0784 0.9317   0.106293
 H 0.9687 0.8383 0.9341   0.110813
 H 0.7438 0.9483 0.0551   0.109243
 H 0.7702 0.0288 0.8435   0.116743
 H 0.8757 0.0348 0.7653   0.112135
 H 0.2416 0.9136 0.8089   0.109395
 H 0.1376 0.904 0.8869   0.097986
 H 0.9084 0.7087 0.9645   0.099993
 H 0.9237 0.8691 0.095   0.094298
 C 0.0124 0.3527 0.97771   -0.008763
 C 0.9775 0.3412 0.92673   -0.118384
 C 0.0032 0.2571 0.89967   -0.033572
 C 0.9182 0.4171 0.90118   0.641163
 C 0.8612 0.0233 0.27187   0.633757
 C 0.522 0.7559 0.93107   -0.102531
 C 0.4159 0.7402 0.96628   -0.030008
 C 0.3289 0.8101 0.98902   -0.128559
 C 0.3476 0.8982 0.97671   0.045715
 C 0.4524 0.9132 0.94009   -0.131785
 C 0.5388 0.8432 0.91759   -0.040079
 C 0.2581 0.9742 0.00248   0.047322
 C 0.2074 0.971 0.05141   -0.1357
 C 0.1214 0.041 0.0754   0.051117
 C 0.088 0.1148 0.05001   -0.111857
 C 0.1381 0.1201 0.000970000000002   0.051148
 C 0.2228 0.0491 0.97757   -0.131202
 C 0.0588 0.0357 0.12608   0.048982
 C 0.1356 0.9954 0.16323   -0.13291
 C 0.0715 0.9913 0.21011   -0.029618
 C 0.9314 0.0251 0.22085   -0.108694
 C 0.8536 0.0638 0.18423   -0.034052
 C 0.916 0.0695 0.13736   -0.136279
 C 0.0914 0.1977 0.97473   0.049627
 C 0.0686 0.2823 0.0014   -0.122193
 C 0.0595 0.1865 0.92344   -0.13132
 C 0.6197 0.682 0.90712   0.621212
 C 0.4876 0.8527 0.47771   -0.008763
 C 0.5225 0.8412 0.42673   -0.118384
 C 0.4968 0.7571 0.39967   -0.033572
 C 0.5818 0.9171 0.40118   0.641163
 C 0.6388 0.5233 0.77187   0.633757
 C 0.978 0.2559 0.43107   -0.102531
 C 0.0841 0.2402 0.46628   -0.030008
 C 0.1711 0.3101 0.48902   -0.128559
 C 0.1524 0.3982 0.47671   0.045715
 C 0.0476 0.4132 0.44009   -0.131785
 C 0.9612 0.3432 0.41759   -0.040079
 C 0.2419 0.4742 0.50248   0.047322
 C 0.2926 0.471 0.55141   -0.1357
 C 0.3786 0.541 0.5754   0.051117
 C 0.412 0.6148 0.55001   -0.111857
 C 0.3619 0.6201 0.50097   0.051148
 C 0.2772 0.5491 0.47757   -0.131202
 C 0.4412 0.5357 0.62608   0.048982
 C 0.3644 0.4954 0.66323   -0.13291
 C 0.4285 0.4913 0.71011   -0.029618
 C 0.5686 0.5251 0.72085   -0.108694
 C 0.6464 0.5638 0.68423   -0.034052
 C 0.584 0.5695 0.63736   -0.136279
 C 0.4086 0.6977 0.47473   0.049627
 C 0.4314 0.7823 0.5014   -0.122193
 C 0.4405 0.6865 0.42344   -0.13132
 C 0.8803 0.182 0.40712   0.621212
 C 0.5124 0.1473 0.52229   -0.008763
 C 0.4775 0.1588 0.57327   -0.118384
 C 0.5032 0.2429 0.60033   -0.033571
 C 0.4182 0.0829 0.59882   0.641163
 C 0.3612 0.4767 0.22813   0.633757
 C 0.022 0.7441 0.56893   -0.102531
 C 0.9159 0.7598 0.53372   -0.030008
 C 0.8289 0.6899 0.51098   -0.128559
 C 0.8476 0.6018 0.52329   0.045715
 C 0.9524 0.5868 0.55991   -0.131785
 C 0.0388 0.6568 0.58241   -0.040079
 C 0.7581 0.5258 0.49752   0.047322
 C 0.7074 0.529 0.44859   -0.1357
 C 0.6214 0.459 0.4246   0.051117
 C 0.588 0.3852 0.44999   -0.111857
 C 0.6381 0.3799 0.49903   0.051148
 C 0.7228 0.4509 0.52243   -0.131202
 C 0.5588 0.4643 0.37392   0.048982
 C 0.6356 0.5046 0.33677   -0.13291
 C 0.5715 0.5087 0.28989   -0.029618
 C 0.4314 0.4749 0.27915   -0.108694
 C 0.3536 0.4362 0.31577   -0.034052
 C 0.416 0.4305 0.36264   -0.136279
 C 0.5914 0.3023 0.52527   0.049627
 C 0.5686 0.2177 0.4986   -0.122194
 C 0.5595 0.3135 0.57656   -0.13132
 C 0.1197 0.818 0.59288   0.621212
 C 0.9876 0.6473 0.02229   -0.008763
 C 0.0225 0.6588 0.07327   -0.118384
 C 0.9968 0.7429 0.10033   -0.033571
 C 0.0818 0.5829 0.09882   0.641163
 C 0.1388 0.9767 0.72813   0.633757
 C 0.478 0.2441 0.06893   -0.102531
 C 0.5841 0.2598 0.03372   -0.030008
 C 0.6711 0.1899 0.01098   -0.128559
 C 0.6524 0.1018 0.02329   0.045715
 C 0.5476 0.0868 0.05991   -0.131785
 C 0.4612 0.1568 0.08241   -0.040079
 C 0.7419 0.0258 0.99752   0.047322
 C 0.7926 0.029 0.94859   -0.1357
 C 0.8786 0.959 0.9246   0.051117
 C 0.912 0.8852 0.94999   -0.111857
 C 0.8619 0.8799 0.99903   0.051148
 C 0.7772 0.9509 0.02243   -0.131202
 C 0.9412 0.9643 0.87392   0.048982
 C 0.8644 0.0046 0.83677   -0.132911
 C 0.9285 0.0087 0.78989   -0.029618
 C 0.0686 0.9749 0.77915   -0.108694
 C 0.1464 0.9362 0.81577   -0.034052
 C 0.084 0.9305 0.86264   -0.136279
 C 0.9086 0.8023 0.02527   0.049627
 C 0.9314 0.7177 0.9986   -0.122194
 C 0.9405 0.8135 0.07656   -0.13132
 C 0.3803 0.318 0.09288   0.621212
 O 0.9326 0.9953 0.30655   -0.487116
 O 0.7304 0.054 0.27676   -0.563441
 O 0.8842 0.40537 0.8562   -0.532617
 O 0.9034 0.49323 0.92633   -0.549637
 O 0.7215 0.70045 0.87829   -0.559402
 O 0.5974 0.6022 0.9172   -0.507309
 O 0.5674 0.4953 0.80655   -0.487116
 O 0.7696 0.554 0.77676   -0.563441
 O 0.6158 0.90537 0.3562   -0.532617
 O 0.5966 0.99323 0.42633   -0.549637
 O 0.7785 0.20045 0.37829   -0.559402
 O 0.9026 0.1022 0.4172   -0.507309
 O 0.4326 0.5047 0.19345   -0.487116
 O 0.2304 0.446 0.22324   -0.563441
 O 0.3842 0.09463 0.6438   -0.532617
 O 0.4034 0.00677 0.57367   -0.549637
 O 0.2215 0.79955 0.62171   -0.559402
 O 0.0974 0.8978 0.5828   -0.507309
 O 0.0674 0.0047 0.69345   -0.487116
 O 0.2696 0.946 0.72324   -0.563441
 O 0.1158 0.59463 0.1438   -0.532617
 O 0.0966 0.50677 0.07367   -0.549637
 O 0.2785 0.29955 0.12171   -0.559402
 O 0.4026 0.3978 0.0828   -0.507309
