{'_ref': 'TBD', '_srcid': 'CAKYAQ_clean', 'submitters': [{'name': 'Dalar Nazarian Jeff Camp and David Sholl', 'email': 'dalar@gatech.edu jcamp6@gatech.edu'}], '_method': 'VASP DFT with PBE;DDEC'}
data_Mn3H16C28(NO5)2
_symmetry_space_group_name_H-M   'P 1'
_cell_length_a   11.70559969
_cell_length_b   12.32160000
_cell_length_c   12.78120000
_cell_angle_alpha   90.00000000
_cell_angle_beta   98.15400055
_cell_angle_gamma   90.00000000
_symmetry_Int_Tables_number   1
_chemical_formula_structural   Mn3H16C28(NO5)2
_chemical_formula_sum   'Mn6 H32 C56 N4 O20'
_cell_volume   1824.81787417
_cell_formula_units_Z   2
loop_
 _symmetry_equiv_pos_site_id
 _symmetry_equiv_pos_as_xyz
  1  'x, y, z'
loop_
 _atom_site_label
 _atom_site_fract_x
 _atom_site_fract_y
 _atom_site_fract_z
 _atom_site_charge
 Mn 0.3596 0.8762 0.3351   -0.487654
 Mn 0.6404 0.3762 0.1649   -0.487654
 Mn 0.6404 0.1238 0.6649   -0.487654
 Mn 0.3596 0.6238 0.8351   -0.487654
 Mn 0.5 0.5 0.5   0.993765
 Mn 0.5 0.0 0.0   0.993765
 H 0.4075 0.6636 0.2765   0.131589
 H 0.4204 0.7922 0.1472   0.119632
 H 0.5609 0.0015 0.3689   0.1203
 H 0.5473 0.8742 0.4977   0.125499
 H 0.278 0.6478 0.4597   0.049684
 H 0.0829 0.6548 0.4563   0.127905
 H 0.0932 0.3443 0.5435   0.133389
 H 0.2877 0.3482 0.5441   0.069343
 H 0.5925 0.1636 0.2235   0.131589
 H 0.5796 0.2922 0.3528   0.119632
 H 0.4391 0.5015 0.1311   0.120301
 H 0.4527 0.3742 0.0023   0.125499
 H 0.722 0.1478 0.0403   0.049684
 H 0.9171 0.1548 0.0437   0.127904
 H 0.9068 0.8443 0.9565   0.133389
 H 0.7123 0.8482 0.9559   0.069343
 H 0.5925 0.3364 0.7235   0.131589
 H 0.5796 0.2078 0.8528   0.119632
 H 0.4391 0.9985 0.6311   0.1203
 H 0.4527 0.1258 0.5023   0.125498
 H 0.722 0.3522 0.5403   0.049683
 H 0.9171 0.3452 0.5437   0.127909
 H 0.9068 0.6557 0.4565   0.133394
 H 0.7123 0.6518 0.4559   0.069343
 H 0.4075 0.8364 0.7765   0.131589
 H 0.4204 0.7078 0.6472   0.119632
 H 0.5609 0.4985 0.8689   0.120301
 H 0.5473 0.6258 0.9977   0.125498
 H 0.278 0.8522 0.9597   0.049683
 H 0.0829 0.8452 0.9563   0.127909
 H 0.0932 0.1557 0.0435   0.133394
 H 0.2877 0.1518 0.0441   0.069343
 C 0.4933 0.7439 0.4024   0.386692
 C 0.446 0.7282 0.2955   -0.124584
 C 0.4546 0.8068 0.216   -0.123101
 C 0.5135 0.9071 0.2374   0.406122
 C 0.5382 0.9314 0.3485   -0.104271
 C 0.5293 0.854 0.4271   -0.114112
 C 0.3005 0.8711 0.4568   0.258618
 C 0.228 0.8248 0.2625   0.295659
 C 0.3159 0.0147 0.3091   0.272176
 C 0.2402 0.5853 0.4771   0.186106
 C 0.1224 0.5907 0.4749   -0.201131
 C 0.0639 0.4997 0.5006   0.094903
 C 0.1285 0.4081 0.5262   -0.199543
 C 0.2459 0.4113 0.5261   0.183107
 C 0.5067 0.2439 0.0976   0.386692
 C 0.554 0.2282 0.2045   -0.124584
 C 0.5454 0.3068 0.284   -0.123101
 C 0.4865 0.4071 0.2626   0.406123
 C 0.4618 0.4314 0.1515   -0.104271
 C 0.4707 0.354 0.0729   -0.114112
 C 0.6995 0.3711 0.0432   0.258618
 C 0.772 0.3248 0.2375   0.29566
 C 0.6841 0.5147 0.1909   0.272176
 C 0.7598 0.0853 0.0229   0.186106
 C 0.8776 0.0907 0.0251   -0.20113
 C 0.9361 0.9997 0.9994   0.094903
 C 0.8715 0.9081 0.9738   -0.199543
 C 0.7541 0.9113 0.9739   0.183107
 C 0.5067 0.2561 0.5976   0.386692
 C 0.554 0.2718 0.7045   -0.124584
 C 0.5454 0.1932 0.784   -0.123101
 C 0.4865 0.0929 0.7626   0.406122
 C 0.4618 0.0686 0.6515   -0.104271
 C 0.4707 0.146 0.5729   -0.114112
 C 0.6995 0.1289 0.5432   0.25862
 C 0.772 0.1752 0.7375   0.295657
 C 0.6841 0.9853 0.6909   0.272175
 C 0.7598 0.4147 0.5229   0.186105
 C 0.8776 0.4093 0.5251   -0.201132
 C 0.9361 0.5003 0.4994   0.094887
 C 0.8715 0.5919 0.4738   -0.199543
 C 0.7541 0.5887 0.4739   0.183106
 C 0.4933 0.7561 0.9024   0.386692
 C 0.446 0.7718 0.7955   -0.124584
 C 0.4546 0.6932 0.716   -0.123101
 C 0.5135 0.5929 0.7374   0.406123
 C 0.5382 0.5686 0.8485   -0.104271
 C 0.5293 0.646 0.9271   -0.114112
 C 0.3005 0.6289 0.9568   0.25862
 C 0.228 0.6752 0.7625   0.295658
 C 0.3159 0.4853 0.8091   0.272175
 C 0.2402 0.9147 0.9771   0.186105
 C 0.1224 0.9093 0.9749   -0.201131
 C 0.0639 0.000300000000003 0.000599999999999   0.094887
 C 0.1285 0.0919 0.0262   -0.199543
 C 0.2459 0.0887 0.0261   0.183107
 N 0.3035 0.4981 0.5021   -0.338494
 N 0.6965 0.9981 0.9979   -0.338494
 N 0.6965 0.5019 0.4979   -0.338494
 N 0.3035 0.0019 0.0021   -0.338494
 O 0.4955 0.6731 0.4755   -0.563243
 O 0.5356 0.9756 0.1684   -0.560889
 O 0.2671 0.8658 0.5366   -0.211403
 O 0.1469 0.7892 0.2156   -0.216292
 O 0.2899 0.103 0.2933   -0.212889
 O 0.5045 0.1731 0.0245   -0.563243
 O 0.4644 0.4756 0.3316   -0.560889
 O 0.7329 0.3658 0.9634   -0.211403
 O 0.8531 0.2892 0.2844   -0.216291
 O 0.7101 0.603 0.2067   -0.212888
 O 0.5045 0.3269 0.5245   -0.563243
 O 0.4644 0.0244 0.8316   -0.560889
 O 0.7329 0.1342 0.4634   -0.211399
 O 0.8531 0.2108 0.7844   -0.216288
 O 0.7101 0.897 0.7067   -0.212889
 O 0.4955 0.8269 0.9755   -0.563243
 O 0.5356 0.5244 0.6684   -0.560889
 O 0.2671 0.6342 0.0366   -0.211399
 O 0.1469 0.7108 0.7156   -0.216287
 O 0.2899 0.397 0.7933   -0.212888
