{'_ref': 'TBD', '_srcid': 'CAKYAQ_clean', 'submitters': [{'name': 'Dalar Nazarian Jeff Camp and David Sholl', 'email': 'dalar@gatech.edu jcamp6@gatech.edu'}], '_method': 'VASP DFT with PBE;DDEC'}
data_CdH42C38(NO2)4
_symmetry_space_group_name_H-M   'P 1'
_cell_length_a   13.78180000
_cell_length_b   15.06170000
_cell_length_c   19.35550000
_cell_angle_alpha   90.00000000
_cell_angle_beta   90.00000000
_cell_angle_gamma   90.00000000
_symmetry_Int_Tables_number   1
_chemical_formula_structural   CdH42C38(NO2)4
_chemical_formula_sum   'Cd4 H168 C152 N16 O32'
_cell_volume   4017.76314746
_cell_formula_units_Z   4
loop_
 _symmetry_equiv_pos_site_id
 _symmetry_equiv_pos_as_xyz
  1  'x, y, z'
loop_
 _atom_site_label
 _atom_site_fract_x
 _atom_site_fract_y
 _atom_site_fract_z
 _atom_site_charge
 Cd 0.69768 0.86097 0.0337   0.900485
 Cd 0.80232 0.13903 0.5337   0.900485
 Cd 0.30232 0.36097 0.4663   0.900485
 Cd 0.19768 0.63903 0.9663   0.900485
 H 0.756 0.9651 0.8918   0.374774
 H 0.6661 0.9084 0.2945   0.124667
 H 0.5996 0.7933 0.4333   0.368095
 H 0.7682 0.827 0.8912   0.061219
 H 0.9154 0.7884 0.9424   0.074057
 H 0.0639 0.8717 0.0885   0.094288
 H 0.8889 0.9397 0.766   0.124822
 H 0.9594 0.8851 0.6679   0.064563
 H 0.1117 0.9424 0.9858   0.055383
 H 0.8313 0.6815 0.8956   0.120764
 H 0.9638 0.5913 0.6863   0.120618
 H 0.0044 0.0175 0.0652   0.071998
 H 0.9982 0.0554 0.9896   0.094921
 H 0.8481 0.0091 0.9763   0.06241
 H 0.8465 0.9989 0.057   0.063068
 H 0.6958 0.7023 0.3801   0.042149
 H 0.9891 0.9492 0.8938   0.104136
 H 0.0422 0.8569 0.8992   0.095506
 H 0.6709 0.9353 0.1786   0.080552
 H 0.8008 0.5449 0.1118   0.116753
 H 0.7663 0.613 0.3095   0.111163
 H 0.9267 0.4898 0.7694   0.112806
 H 0.755 0.6813 0.0771   0.105591
 H 0.9104 0.8574 0.1048   0.0715
 H 0.913 0.7725 0.0579   0.074736
 H 0.8261 0.481 0.9812   0.07
 H 0.8885 0.5675 0.9737   0.08634
 H 0.7782 0.5687 0.954   0.060759
 H 0.8796 0.4011 0.2884   0.084914
 H 0.9176 0.4981 0.3001   0.048904
 H 0.814 0.471 0.3262   0.042033
 H 0.7657 0.8775 0.3981   0.076541
 H 0.718 0.7533 0.4984   0.080889
 H 0.7141 0.8576 0.5035   0.086843
 H 0.0026 0.8389 0.4148   0.055947
 H 0.9276 0.9109 0.3912   0.069841
 H 0.8449 0.6609 0.4212   0.050645
 H 0.9561 0.6817 0.4144   0.05008
 H 0.968 0.7213 0.5234   0.074569
 H 0.8681 0.6721 0.5331   0.086509
 H 0.8437 0.8154 0.5744   0.061516
 H 0.9778 0.8796 0.5193   0.105287
 H 0.744 0.0349 0.3918   0.374773
 H 0.8339 0.0916 0.7945   0.124667
 H 0.9004 0.2067 0.9333   0.368095
 H 0.7318 0.173 0.3912   0.061218
 H 0.5846 0.2116 0.4424   0.074057
 H 0.4361 0.1283 0.5885   0.094288
 H 0.6111 0.0603 0.266   0.124822
 H 0.5406 0.1149 0.1679   0.064563
 H 0.3883 0.0576 0.4858   0.055383
 H 0.6687 0.3185 0.3956   0.120764
 H 0.5362 0.4087 0.1863   0.120618
 H 0.4956 0.9825 0.5652   0.071998
 H 0.5018 0.9446 0.4896   0.09492
 H 0.6519 0.9909 0.4763   0.06241
 H 0.6535 0.0011 0.557   0.063068
 H 0.8042 0.2977 0.8801   0.042149
 H 0.5109 0.0508 0.3938   0.104136
 H 0.4578 0.1431 0.3992   0.095506
 H 0.8291 0.0647 0.6786   0.080551
 H 0.6992 0.4551 0.6118   0.116754
 H 0.7337 0.387 0.8095   0.111163
 H 0.5733 0.5102 0.2694   0.112806
 H 0.745 0.3187 0.5771   0.105591
 H 0.5896 0.1426 0.6048   0.0715
 H 0.587 0.2275 0.5579   0.074736
 H 0.6739 0.519 0.4812   0.070001
 H 0.6115 0.4325 0.4737   0.08634
 H 0.7218 0.4313 0.454   0.060759
 H 0.6204 0.5989 0.7884   0.084914
 H 0.5824 0.5019 0.8001   0.048904
 H 0.686 0.529 0.8262   0.042034
 H 0.7343 0.1225 0.8981   0.076541
 H 0.782 0.2467 0.9984   0.080889
 H 0.7859 0.1424 0.0035   0.086843
 H 0.4974 0.1611 0.9148   0.055947
 H 0.5724 0.0891 0.8912   0.06984
 H 0.6551 0.3391 0.9212   0.050645
 H 0.5439 0.3183 0.9144   0.05008
 H 0.532 0.2787 0.0234   0.074569
 H 0.6319 0.3279 0.0331   0.08651
 H 0.6563 0.1846 0.0744   0.061516
 H 0.5222 0.1204 0.0193   0.105287
 H 0.244 0.4651 0.6082   0.374774
 H 0.3339 0.4084 0.2055   0.124667
 H 0.4004 0.2933 0.0667   0.368095
 H 0.2318 0.327 0.6088   0.061219
 H 0.0846 0.2884 0.5576   0.074057
 H 0.9361 0.3717 0.4115   0.094287
 H 0.1111 0.4397 0.734   0.124822
 H 0.0406 0.3851 0.8321   0.064563
 H 0.8883 0.4424 0.5142   0.055384
 H 0.1687 0.1815 0.6044   0.120764
 H 0.0362 0.0913 0.8137   0.120618
 H 0.9956 0.5175 0.4348   0.071997
 H 0.0018 0.5554 0.5104   0.09492
 H 0.1519 0.5091 0.5237   0.06241
 H 0.1535 0.4989 0.443   0.063068
 H 0.3042 0.2023 0.1199   0.042148
 H 0.0109 0.4492 0.6062   0.104136
 H 0.9578 0.3569 0.6008   0.095506
 H 0.3291 0.4353 0.3214   0.080552
 H 0.1992 0.0449 0.3882   0.116754
 H 0.2337 0.113 0.1905   0.111163
 H 0.0733 0.9898 0.7306   0.112806
 H 0.245 0.1813 0.4229   0.105591
 H 0.0896 0.3574 0.3952   0.071499
 H 0.087 0.2725 0.4421   0.074736
 H 0.1739 0.981 0.5188   0.070001
 H 0.1115 0.0675 0.5263   0.08634
 H 0.2218 0.0687 0.546   0.060759
 H 0.1204 0.9011 0.2116   0.084913
 H 0.0824 0.9981 0.1999   0.048903
 H 0.186 0.971 0.1738   0.042033
 H 0.2343 0.3775 0.1019   0.076541
 H 0.282 0.2533 0.0016   0.080889
 H 0.2859 0.3576 0.9965   0.086843
 H 0.9974 0.3389 0.0852   0.055948
 H 0.0724 0.4109 0.1088   0.069841
 H 0.1551 0.1609 0.0788   0.050645
 H 0.0439 0.1817 0.0856   0.050079
 H 0.032 0.2213 0.9766   0.074568
 H 0.1319 0.1721 0.9669   0.086509
 H 0.1563 0.3154 0.9256   0.061516
 H 0.0222 0.3796 0.9807   0.105287
 H 0.256 0.5349 0.1082   0.374773
 H 0.1661 0.5916 0.7055   0.124667
 H 0.0996 0.7067 0.5667   0.368094
 H 0.2682 0.673 0.1088   0.061218
 H 0.4154 0.7116 0.0576   0.074057
 H 0.5639 0.6283 0.9115   0.094287
 H 0.3889 0.5603 0.234   0.124822
 H 0.4594 0.6149 0.3321   0.064563
 H 0.6117 0.5576 0.0142   0.055384
 H 0.3313 0.8185 0.1044   0.120764
 H 0.4638 0.9087 0.3137   0.120618
 H 0.5044 0.4825 0.9348   0.071997
 H 0.4982 0.4446 0.0104   0.09492
 H 0.3481 0.4909 0.0237   0.06241
 H 0.3465 0.5011 0.943   0.063068
 H 0.1958 0.7977 0.6199   0.042148
 H 0.4891 0.5508 0.1062   0.104136
 H 0.5422 0.6431 0.1008   0.095506
 H 0.1709 0.5647 0.8214   0.080551
 H 0.3008 0.9551 0.8882   0.116754
 H 0.2663 0.887 0.6905   0.111163
 H 0.4267 0.0102 0.2306   0.112806
 H 0.255 0.8187 0.9229   0.105591
 H 0.4104 0.6426 0.8952   0.071499
 H 0.413 0.7275 0.9421   0.074736
 H 0.3261 0.019 0.0188   0.070002
 H 0.3885 0.9325 0.0263   0.08634
 H 0.2782 0.9313 0.046   0.060759
 H 0.3796 0.0989 0.7116   0.084913
 H 0.4176 0.0019 0.6999   0.048903
 H 0.314 0.029 0.6738   0.042033
 H 0.2657 0.6225 0.6019   0.076541
 H 0.218 0.7467 0.5016   0.080889
 H 0.2141 0.6424 0.4965   0.086843
 H 0.5026 0.6611 0.5852   0.055948
 H 0.4276 0.5891 0.6088   0.06984
 H 0.3449 0.8391 0.5788   0.050645
 H 0.4561 0.8183 0.5856   0.050079
 H 0.468 0.7787 0.4766   0.074568
 H 0.3681 0.8279 0.4669   0.08651
 H 0.3437 0.6846 0.4256   0.061516
 H 0.4778 0.6204 0.4807   0.105287
 C 0.6829 0.8626 0.26455   -0.188641
 C 0.8268 0.8605 0.87919   0.169322
 C 0.9012 0.852 0.93811   0.066203
 C 0.7045 0.7802 0.29086   0.072275
 C 0.9271 0.7014 0.7414   0.19466
 C 0.0344 0.8509 0.04535   -0.234801
 C 0.7325 0.7345 0.17183   0.205179
 C 0.87 0.8226 0.81395   0.035071
 C 0.8846 0.7295 0.80507   0.001558
 C 0.8983 0.8788 0.76151   -0.212091
 C 0.9407 0.845 0.7019   0.158272
 C 0.0435 0.9258 0.992   0.058132
 C 0.8598 0.6645 0.8541   -0.28572
 C 0.9396 0.6102 0.7287   -0.1235
 C 0.9859 0.0037 0.0181   -0.198587
 C 0.8782 0.97891 0.01504   0.014578
 C 0.6933 0.76587 0.36951   0.179304
 C 0.8768 0.5775 0.8418   0.278785
 C 0.7338 0.7135 0.24342   0.003787
 C 0.999 0.8977 0.923   -0.243069
 C 0.6857 0.8786 0.19416   0.181676
 C 0.7853 0.5876 0.1447   -0.157349
 C 0.7644 0.6279 0.2628   -0.268079
 C 0.9165 0.5498 0.7778   -0.177876
 C 0.7576 0.6686 0.1241   -0.136961
 C 0.7913 0.5663 0.2147   0.281275
 C 0.9264 0.8357 0.059   0.02874
 C 0.0912 0.77 0.02102   0.663518
 C 0.8363 0.5336 0.9541   -0.00353
 C 0.8614 0.4626 0.2904   0.018353
 C 0.7715 0.8145 0.41013   0.071696
 C 0.7528 0.8077 0.48798   -0.250466
 C 0.9358 0.8582 0.4193   0.066635
 C 0.8946 0.7048 0.4309   0.053347
 C 0.9007 0.7198 0.5087   -0.217621
 C 0.8519 0.8078 0.5244   0.074138
 C 0.9156 0.8815 0.4947   -0.254837
 C 0.8716 0.974 0.5068   0.671442
 C 0.8171 0.1374 0.76455   -0.188641
 C 0.6732 0.1395 0.37919   0.169322
 C 0.5988 0.148 0.43811   0.066203
 C 0.7955 0.2198 0.79086   0.072275
 C 0.5729 0.2986 0.2414   0.19466
 C 0.4656 0.1491 0.54535   -0.234801
 C 0.7675 0.2655 0.67183   0.205179
 C 0.63 0.1774 0.31395   0.035071
 C 0.6154 0.2705 0.30507   0.001558
 C 0.6017 0.1212 0.26151   -0.212091
 C 0.5593 0.155 0.2019   0.158272
 C 0.4565 0.0742 0.492   0.058132
 C 0.6402 0.3355 0.3541   -0.28572
 C 0.5604 0.3898 0.2287   -0.1235
 C 0.5141 0.9963 0.5181   -0.198587
 C 0.6218 0.02109 0.51504   0.014578
 C 0.8067 0.23413 0.86951   0.179304
 C 0.6232 0.4225 0.3418   0.278785
 C 0.7662 0.2865 0.74342   0.003787
 C 0.501 0.1023 0.423   -0.243069
 C 0.8143 0.1214 0.69416   0.181676
 C 0.7147 0.4124 0.6447   -0.157349
 C 0.7356 0.3721 0.7628   -0.268079
 C 0.5835 0.4502 0.2778   -0.177876
 C 0.7424 0.3314 0.6241   -0.136961
 C 0.7087 0.4337 0.7147   0.281275
 C 0.5736 0.1643 0.559   0.02874
 C 0.4088 0.23 0.52102   0.663518
 C 0.6637 0.4664 0.4541   -0.00353
 C 0.6386 0.5374 0.7904   0.018353
 C 0.7285 0.1855 0.91013   0.071696
 C 0.7472 0.1923 0.98798   -0.250466
 C 0.5642 0.1418 0.9193   0.066636
 C 0.6054 0.2952 0.9309   0.053347
 C 0.5993 0.2802 0.0087   -0.217622
 C 0.6481 0.1922 0.0244   0.074139
 C 0.5844 0.1185 0.9947   -0.254837
 C 0.6284 0.026 0.0068   0.671442
 C 0.3171 0.3626 0.23545   -0.18864
 C 0.1732 0.3605 0.62081   0.169322
 C 0.0988 0.352 0.56189   0.066203
 C 0.2955 0.2802 0.20914   0.072275
 C 0.0729 0.2014 0.7586   0.19466
 C 0.9656 0.3509 0.45465   -0.234801
 C 0.2675 0.2345 0.32817   0.205178
 C 0.13 0.3226 0.68605   0.035071
 C 0.1154 0.2295 0.69493   0.001558
 C 0.1017 0.3788 0.73849   -0.212091
 C 0.0593 0.345 0.7981   0.158272
 C 0.9565 0.4258 0.508   0.058132
 C 0.1402 0.1645 0.6459   -0.28572
 C 0.0604 0.1102 0.7713   -0.123499
 C 0.0141 0.5037 0.4819   -0.198587
 C 0.1218 0.47891 0.48496   0.014578
 C 0.3067 0.26587 0.13049   0.179304
 C 0.1232 0.0775 0.6582   0.278785
 C 0.2662 0.2135 0.25658   0.003787
 C 0.000999999999998 0.3977 0.577   -0.243069
 C 0.3143 0.3786 0.30584   0.181676
 C 0.2147 0.0876 0.3553   -0.157349
 C 0.2356 0.1279 0.2372   -0.268079
 C 0.0835 0.0498 0.7222   -0.177876
 C 0.2424 0.1686 0.3759   -0.136961
 C 0.2087 0.0663 0.2853   0.281275
 C 0.0736 0.3357 0.441   0.02874
 C 0.9088 0.27 0.47898   0.663518
 C 0.1637 0.0336 0.5459   -0.00353
 C 0.1386 0.9626 0.2096   0.018353
 C 0.2285 0.3145 0.08987   0.071696
 C 0.2472 0.3077 0.01202   -0.250466
 C 0.0642 0.3582 0.0807   0.066635
 C 0.1054 0.2048 0.0691   0.053347
 C 0.0993 0.2198 0.9913   -0.217621
 C 0.1481 0.3078 0.9756   0.074138
 C 0.0844 0.3815 0.0053   -0.254837
 C 0.1284 0.474 0.9932   0.671442
 C 0.1829 0.6374 0.73545   -0.18864
 C 0.3268 0.6395 0.12081   0.169322
 C 0.4012 0.648 0.06189   0.066202
 C 0.2045 0.7198 0.70914   0.072275
 C 0.4271 0.7986 0.2586   0.19466
 C 0.5344 0.6491 0.95465   -0.234801
 C 0.2325 0.7655 0.82817   0.205178
 C 0.37 0.6774 0.18605   0.035071
 C 0.3846 0.7705 0.19493   0.001558
 C 0.3983 0.6212 0.23849   -0.212091
 C 0.4407 0.655 0.2981   0.158272
 C 0.5435 0.5742 0.008   0.058132
 C 0.3598 0.8355 0.1459   -0.28572
 C 0.4396 0.8898 0.2713   -0.123499
 C 0.4859 0.4963 0.9819   -0.198587
 C 0.3782 0.52109 0.98496   0.014578
 C 0.1933 0.73413 0.63049   0.179304
 C 0.3768 0.9225 0.1582   0.278785
 C 0.2338 0.7865 0.75658   0.003787
 C 0.499 0.6023 0.077   -0.243069
 C 0.1857 0.6214 0.80584   0.181676
 C 0.2853 0.9124 0.8553   -0.157349
 C 0.2644 0.8721 0.7372   -0.268079
 C 0.4165 0.9502 0.2222   -0.177876
 C 0.2576 0.8314 0.8759   -0.136961
 C 0.2913 0.9337 0.7853   0.281275
 C 0.4264 0.6643 0.941   0.02874
 C 0.5912 0.73 0.97898   0.663518
 C 0.3363 0.9664 0.0459   -0.003531
 C 0.3614 0.0374 0.7096   0.018353
 C 0.2715 0.6855 0.58987   0.071696
 C 0.2528 0.6923 0.51202   -0.250466
 C 0.4358 0.6418 0.5807   0.066635
 C 0.3946 0.7952 0.5691   0.053347
 C 0.4007 0.7802 0.4913   -0.217622
 C 0.3519 0.6922 0.4756   0.074139
 C 0.4156 0.6185 0.5053   -0.254837
 C 0.3716 0.526 0.4932   0.671442
 N 0.7082 0.8177 0.14823   -0.389753
 N 0.9563 0.7591 0.69023   -0.36862
 N 0.864 0.88119 0.00737   -0.28433
 N 0.8714 0.7881 0.39349   -0.386265
 N 0.7918 0.1823 0.64823   -0.389753
 N 0.5437 0.2409 0.19023   -0.36862
 N 0.636 0.11881 0.50737   -0.28433
 N 0.6286 0.2119 0.89349   -0.386265
 N 0.2918 0.3177 0.35177   -0.389753
 N 0.0437 0.2591 0.80977   -0.36862
 N 0.136 0.38119 0.49263   -0.28433
 N 0.1286 0.2881 0.10651   -0.386265
 N 0.2082 0.6823 0.85177   -0.389753
 N 0.4563 0.7409 0.30977   -0.36862
 N 0.364 0.61881 0.99263   -0.28433
 N 0.3714 0.7119 0.60651   -0.386265
 O 0.8012 0.95094 0.86655   -0.571304
 O 0.6054 0.8011 0.3916   -0.543842
 O 0.8596 0.5098 0.88688   -0.270076
 O 0.825 0.4862 0.232   -0.245228
 O 0.18162 0.77141 0.02708   -0.610217
 O 0.0483 0.70757 0.99214   -0.589333
 O 0.8482 0.02162 0.45648   -0.614158
 O 0.8607 0.99963 0.56765   -0.604331
 O 0.6988 0.04906 0.36655   -0.571303
 O 0.8946 0.1989 0.8916   -0.543842
 O 0.6404 0.4902 0.38688   -0.270076
 O 0.675 0.5138 0.732   -0.245228
 O 0.31838 0.22859 0.52708   -0.610217
 O 0.4517 0.29243 0.49214   -0.589333
 O 0.6518 0.97838 0.95648   -0.614158
 O 0.6393 0.000369999999997 0.06765   -0.604331
 O 0.1988 0.45094 0.63345   -0.571304
 O 0.3946 0.3011 0.1084   -0.543842
 O 0.1404 0.0098 0.61312   -0.270076
 O 0.175 0.9862 0.268   -0.245228
 O 0.81838 0.27141 0.47292   -0.610217
 O 0.9517 0.20757 0.50786   -0.589333
 O 0.1518 0.52162 0.04352   -0.614158
 O 0.1393 0.49963 0.93235   -0.604331
 O 0.3012 0.54906 0.13345   -0.571303
 O 0.1054 0.6989 0.6084   -0.543842
 O 0.3596 0.9902 0.11312   -0.270076
 O 0.325 0.0138 0.768   -0.245228
 O 0.68162 0.72859 0.97292   -0.610217
 O 0.5483 0.79243 0.00786   -0.589333
 O 0.3482 0.47838 0.54352   -0.614158
 O 0.3607 0.50037 0.43235   -0.604331
