{'_ref': 'TBD', '_srcid': 'CAKYAQ_clean', 'submitters': [{'name': 'Dalar Nazarian Jeff Camp and David Sholl', 'email': 'dalar@gatech.edu jcamp6@gatech.edu'}], '_method': 'VASP DFT with PBE;DDEC'}
data_CdH42C38(NO2)4
_symmetry_space_group_name_H-M   'P 1'
_cell_length_a   13.86390000
_cell_length_b   15.10120000
_cell_length_c   19.43130000
_cell_angle_alpha   90.00000000
_cell_angle_beta   90.00000000
_cell_angle_gamma   90.00000000
_symmetry_Int_Tables_number   1
_chemical_formula_structural   CdH42C38(NO2)4
_chemical_formula_sum   'Cd4 H168 C152 N16 O32'
_cell_volume   4068.16663338
_cell_formula_units_Z   4
loop_
 _symmetry_equiv_pos_site_id
 _symmetry_equiv_pos_as_xyz
  1  'x, y, z'
loop_
 _atom_site_label
 _atom_site_fract_x
 _atom_site_fract_y
 _atom_site_fract_z
 _atom_site_charge
 Cd 0.79829 0.36143 0.035198   0.893127
 Cd 0.70171 0.63857 0.535198   0.893127
 Cd 0.20171 0.86143 0.464802   0.893127
 Cd 0.29829 0.13857 0.964802   0.893127
 H 0.7416 0.462 0.8929   0.381968
 H 0.7584 0.538 0.3929   0.381968
 H 0.2584 0.962 0.6071   0.381968
 H 0.2416 0.038 0.1071   0.381968
 H 0.9439 0.2869 0.3717   0.329006
 H 0.5561 0.7131 0.8717   0.329006
 H 0.0561 0.7869 0.1283   0.329006
 H 0.4439 0.2131 0.6283   0.329006
 H 0.5838 0.2871 0.9421   0.072243
 H 0.9162 0.7129 0.4421   0.072243
 H 0.4162 0.7871 0.5579   0.072243
 H 0.0838 0.2129 0.0579   0.072243
 H 0.7297 0.3265 0.8932   0.06082
 H 0.7703 0.6735 0.3932   0.06082
 H 0.2703 0.8265 0.6068   0.06082
 H 0.2297 0.1735 0.1068   0.06082
 H 0.4311 0.3726 0.0862   0.106892
 H 0.0689 0.6274 0.5862   0.106892
 H 0.5689 0.8726 0.4138   0.106892
 H 0.9311 0.1274 0.9138   0.106892
 H 0.8359 0.4099 0.2954   0.117971
 H 0.6641 0.5901 0.7954   0.117971
 H 0.1641 0.9099 0.2046   0.117971
 H 0.3359 0.0901 0.7046   0.117971
 H 0.5093 0.4472 0.8931   0.100103
 H 0.9907 0.5528 0.3931   0.100103
 H 0.4907 0.9472 0.6069   0.100103
 H 0.0093 0.0528 0.1069   0.100103
 H 0.4572 0.355 0.898   0.090191
 H 0.0428 0.645 0.398   0.090191
 H 0.5428 0.855 0.602   0.090191
 H 0.9572 0.145 0.102   0.090191
 H 0.6166 0.4322 0.7642   0.12407
 H 0.8834 0.5678 0.2642   0.12407
 H 0.3834 0.9322 0.7358   0.12407
 H 0.1166 0.0678 0.2358   0.12407
 H 0.3852 0.4403 0.9822   0.055963
 H 0.1148 0.5597 0.4822   0.055963
 H 0.6148 0.9403 0.5178   0.055963
 H 0.8852 0.0597 0.0178   0.055963
 H 0.8231 0.4382 0.1797   0.080007
 H 0.6769 0.5618 0.6797   0.080007
 H 0.1769 0.9382 0.3203   0.080007
 H 0.3231 0.0618 0.8203   0.080007
 H 0.5671 0.9869 0.7762   0.112739
 H 0.9329 0.0131 0.2762   0.112739
 H 0.4329 0.4869 0.7238   0.112739
 H 0.0671 0.5131 0.2238   0.112739
 H 0.7017 0.0464 0.1167   0.104675
 H 0.7983 0.9536 0.6167   0.104675
 H 0.2983 0.5464 0.3833   0.104675
 H 0.2017 0.4536 0.8833   0.104675
 H 0.7412 0.1818 0.0807   0.102888
 H 0.7588 0.8182 0.5807   0.102888
 H 0.2588 0.6818 0.4193   0.102888
 H 0.2412 0.3182 0.9193   0.102888
 H 0.5853 0.3546 0.1046   0.073521
 H 0.9147 0.6454 0.6046   0.073521
 H 0.4147 0.8546 0.3954   0.073521
 H 0.0853 0.1454 0.8954   0.073521
 H 0.5824 0.2709 0.0569   0.074145
 H 0.9176 0.7291 0.5569   0.074145
 H 0.4176 0.7709 0.4431   0.074145
 H 0.0824 0.2291 0.9431   0.074145
 H 0.6644 0.18 0.8982   0.124954
 H 0.8356 0.82 0.3982   0.124954
 H 0.3356 0.68 0.6018   0.124954
 H 0.1644 0.32 0.1018   0.124954
 H 0.4906 0.518 0.0631   0.080691
 H 0.0094 0.482 0.5631   0.080691
 H 0.5094 0.018 0.4369   0.080691
 H 0.9906 0.982 0.9369   0.080691
 H 0.5006 0.5547 0.9876   0.09759
 H 0.9994 0.4453 0.4876   0.09759
 H 0.4994 0.0547 0.5124   0.09759
 H 0.000599999999999 0.9453 0.0124   0.09759
 H 0.5307 0.0865 0.6922   0.118625
 H 0.9693 0.9135 0.1922   0.118625
 H 0.4693 0.5865 0.8078   0.118625
 H 0.0307 0.4135 0.3078   0.118625
 H 0.7438 0.115 0.3129   0.122062
 H 0.7562 0.885 0.8129   0.122062
 H 0.2562 0.615 0.1871   0.122062
 H 0.2438 0.385 0.6871   0.122062
 H 0.8128 0.2064 0.3799   0.044301
 H 0.6872 0.7936 0.8799   0.044301
 H 0.1872 0.7064 0.1201   0.044301
 H 0.3128 0.2936 0.6201   0.044301
 H 0.6507 0.5093 0.9795   0.066521
 H 0.8493 0.4907 0.4795   0.066521
 H 0.3493 0.0093 0.5205   0.066521
 H 0.1507 0.9907 0.0205   0.066521
 H 0.6474 0.4965 0.0596   0.066081
 H 0.8526 0.5035 0.5596   0.066081
 H 0.3526 0.9965 0.4404   0.066081
 H 0.1474 0.0035 0.9404   0.066081
 H 0.547 0.3783 0.6675   0.068971
 H 0.953 0.6217 0.1675   0.068971
 H 0.453 0.8783 0.8325   0.068971
 H 0.047 0.1217 0.3325   0.068971
 H 0.6687 0.9816 0.9877   0.071784
 H 0.8313 0.0184 0.4877   0.071784
 H 0.3313 0.4816 0.5123   0.071784
 H 0.1687 0.5184 0.0123   0.071784
 H 0.6063 0.0672 0.9778   0.083141
 H 0.8937 0.9328 0.4778   0.083141
 H 0.3937 0.5672 0.5222   0.083141
 H 0.1063 0.4328 0.0222   0.083141
 H 0.7164 0.0686 0.9597   0.06657
 H 0.7836 0.9314 0.4597   0.06657
 H 0.2836 0.5686 0.5403   0.06657
 H 0.2164 0.4314 0.0403   0.06657
 H 0.7367 0.3798 0.4013   0.074597
 H 0.7633 0.6202 0.9013   0.074597
 H 0.2633 0.8798 0.0987   0.074597
 H 0.2367 0.1202 0.5987   0.074597
 H 0.7936 0.3592 0.505   0.092023
 H 0.7064 0.6408 0.005   0.092023
 H 0.2064 0.8592 0.995   0.092023
 H 0.2936 0.1408 0.495   0.092023
 H 0.7909 0.2553 0.4993   0.085005
 H 0.7091 0.7447 0.9993   0.085005
 H 0.2091 0.7553 0.000700000000002   0.085005
 H 0.2909 0.2447 0.5007   0.085005
 H 0.6671 0.316 0.578   0.055184
 H 0.8329 0.684 0.078   0.055184
 H 0.3329 0.816 0.922   0.055184
 H 0.1671 0.184 0.422   0.055184
 H 0.5308 0.3764 0.5236   0.101412
 H 0.9692 0.6236 0.0236   0.101412
 H 0.4692 0.8764 0.9764   0.101412
 H 0.0308 0.1236 0.4764   0.101412
 H 0.6393 0.1709 0.5372   0.074749
 H 0.8607 0.8291 0.0372   0.074749
 H 0.3607 0.6709 0.9628   0.074749
 H 0.1393 0.3291 0.4628   0.074749
 H 0.5408 0.2208 0.5264   0.082547
 H 0.9592 0.7792 0.0264   0.082547
 H 0.4592 0.7208 0.9736   0.082547
 H 0.0408 0.2792 0.4736   0.082547
 H 0.5032 0.3334 0.4206   0.052529
 H 0.9968 0.6666 0.9206   0.052529
 H 0.4968 0.8334 0.0794   0.052529
 H 0.0032 0.1666 0.5794   0.052529
 H 0.5747 0.4068 0.3948   0.063568
 H 0.9253 0.5932 0.8948   0.063568
 H 0.4253 0.9068 0.1052   0.063568
 H 0.0747 0.0932 0.6052   0.063568
 H 0.6663 0.1607 0.4262   0.050269
 H 0.8337 0.8393 0.9262   0.050269
 H 0.3337 0.6607 0.0738   0.050269
 H 0.1663 0.3393 0.5738   0.050269
 H 0.5552 0.1779 0.4187   0.053108
 H 0.9448 0.8221 0.9187   0.053108
 H 0.4448 0.6779 0.0813   0.053108
 H 0.0552 0.3221 0.5813   0.053108
 H 0.6571 0.8639 0.221   0.096206
 H 0.8429 0.1361 0.721   0.096206
 H 0.3429 0.3639 0.279   0.096206
 H 0.1571 0.6361 0.779   0.096206
 H 0.7383 0.9023 0.1735   0.056894
 H 0.7617 0.0977 0.6735   0.056894
 H 0.2617 0.4023 0.3265   0.056894
 H 0.2383 0.5977 0.8265   0.056894
 H 0.6306 0.9301 0.1618   0.05822
 H 0.8694 0.0699 0.6618   0.05822
 H 0.3694 0.4301 0.3382   0.05822
 H 0.1306 0.5699 0.8382   0.05822
 C 0.5973 0.3505 0.9378   0.06775
 C 0.9027 0.6495 0.4378   0.06775
 C 0.4027 0.8505 0.5622   0.06775
 C 0.0973 0.1495 0.0622   0.06775
 C 0.6717 0.3597 0.8805   0.167627
 C 0.8283 0.6403 0.3805   0.167627
 C 0.3283 0.8597 0.6195   0.167627
 C 0.1717 0.1403 0.1195   0.167627
 C 0.7986 0.2833 0.2927   0.050198
 C 0.7014 0.7167 0.7927   0.050198
 C 0.2014 0.7833 0.2073   0.050198
 C 0.2986 0.2167 0.7073   0.050198
 C 0.4613 0.3512 0.0438   -0.235898
 C 0.0387 0.6488 0.5438   -0.235898
 C 0.5387 0.8512 0.4562   -0.235898
 C 0.9613 0.1488 0.9562   -0.235898
 C 0.7673 0.2374 0.1748   0.199376
 C 0.7327 0.7626 0.6748   0.199376
 C 0.2327 0.7374 0.3252   0.199376
 C 0.2673 0.2626 0.8252   0.199376
 C 0.6294 0.3199 0.815   0.048309
 C 0.8706 0.6801 0.315   0.048309
 C 0.3706 0.8199 0.685   0.048309
 C 0.1294 0.1801 0.185   0.048309
 C 0.8178 0.3643 0.266   -0.193044
 C 0.6822 0.6357 0.766   -0.193044
 C 0.1822 0.8643 0.234   -0.193044
 C 0.3178 0.1357 0.734   -0.193044
 C 0.4992 0.3959 0.9222   -0.239018
 C 0.000799999999998 0.6041 0.4222   -0.239018
 C 0.5008 0.8959 0.5778   -0.239018
 C 0.9992 0.1041 0.0778   -0.239018
 C 0.6146 0.2262 0.8068   -0.003642
 C 0.8854 0.7738 0.3068   -0.003642
 C 0.3854 0.7262 0.6932   -0.003642
 C 0.1146 0.2738 0.1932   -0.003642
 C 0.7696 0.2164 0.2462   -0.00116
 C 0.7304 0.7836 0.7462   -0.00116
 C 0.2304 0.7164 0.2538   -0.00116
 C 0.2696 0.2836 0.7538   -0.00116
 C 0.6049 0.3717 0.7613   -0.209944
 C 0.8951 0.6283 0.2613   -0.209944
 C 0.3951 0.8717 0.7387   -0.209944
 C 0.1049 0.1283 0.2387   -0.209944
 C 0.5721 0.1987 0.7438   0.199132
 C 0.9279 0.8013 0.2438   0.199132
 C 0.4279 0.6987 0.7562   0.199132
 C 0.0721 0.3013 0.2562   0.199132
 C 0.4528 0.4239 0.9894   0.056139
 C 0.0472 0.5761 0.4894   0.056139
 C 0.5472 0.9239 0.5106   0.056139
 C 0.9528 0.0761 0.0106   0.056139
 C 0.4042 0.2688 0.0185   0.653232
 C 0.0958 0.7312 0.5185   0.653232
 C 0.5958 0.7688 0.4815   0.653232
 C 0.9042 0.2312 0.9815   0.653232
 C 0.8111 0.381 0.1954   0.177754
 C 0.6889 0.619 0.6954   0.177754
 C 0.1889 0.881 0.3046   0.177754
 C 0.3111 0.119 0.8046   0.177754
 C 0.5791 0.0469 0.783   -0.151697
 C 0.9209 0.9531 0.283   -0.151697
 C 0.4209 0.5469 0.717   -0.151697
 C 0.0791 0.4531 0.217   -0.151697
 C 0.7185 0.0894 0.1489   -0.181987
 C 0.7815 0.9106 0.6489   -0.181987
 C 0.2815 0.5894 0.3511   -0.181987
 C 0.2185 0.4106 0.8511   -0.181987
 C 0.7417 0.1695 0.1276   -0.122929
 C 0.7583 0.8305 0.6276   -0.122929
 C 0.2583 0.6695 0.3724   -0.122929
 C 0.2417 0.3305 0.8724   -0.122929
 C 0.5699 0.334 0.0586   0.02959
 C 0.9301 0.666 0.5586   0.02959
 C 0.4301 0.834 0.4414   0.02959
 C 0.0699 0.166 0.9414   0.02959
 C 0.6375 0.1624 0.8566   -0.26741
 C 0.8625 0.8376 0.3566   -0.26741
 C 0.3625 0.6624 0.6434   -0.26741
 C 0.1375 0.3376 0.1434   -0.26741
 C 0.5111 0.5034 0.0167   -0.201939
 C 0.9889 0.4966 0.5167   -0.201939
 C 0.4889 0.0034 0.4833   -0.201939
 C 0.0111 0.9966 0.9833   -0.201939
 C 0.5567 0.1062 0.7336   -0.148018
 C 0.9433 0.8938 0.2336   -0.148018
 C 0.4433 0.6062 0.7664   -0.148018
 C 0.0567 0.3938 0.2664   -0.148018
 C 0.7435 0.1294 0.2664   -0.243919
 C 0.7565 0.8706 0.7664   -0.243919
 C 0.2565 0.6294 0.2336   -0.243919
 C 0.2435 0.3706 0.7336   -0.243919
 C 0.8126 0.2698 0.3694   0.172231
 C 0.6874 0.7302 0.8694   0.172231
 C 0.1874 0.7698 0.1306   0.172231
 C 0.3126 0.2302 0.6306   0.172231
 C 0.7186 0.0673 0.2205   0.282986
 C 0.7814 0.9327 0.7205   0.282986
 C 0.2814 0.5673 0.2795   0.282986
 C 0.2186 0.4327 0.7795   0.282986
 C 0.6184 0.478 0.0165   0.020271
 C 0.8816 0.522 0.5165   0.020271
 C 0.3816 0.978 0.4835   0.020271
 C 0.1184 0.022 0.9835   0.020271
 C 0.5634 0.3389 0.7023   0.173122
 C 0.9366 0.6611 0.2023   0.173122
 C 0.4366 0.8389 0.7977   0.173122
 C 0.0634 0.1611 0.2977   0.173122
 C 0.621 0.0767 0.845   0.28298
 C 0.879 0.9233 0.345   0.28298
 C 0.379 0.5767 0.655   0.28298
 C 0.121 0.4233 0.155   0.28298
 C 0.6589 0.0332 0.9597   4.2e-05
 C 0.8411 0.9668 0.4597   4.2e-05
 C 0.3411 0.5332 0.5403   4.2e-05
 C 0.1589 0.4668 0.0403   4.2e-05
 C 0.7345 0.3167 0.413   0.108569
 C 0.7655 0.6833 0.913   0.108569
 C 0.2655 0.8167 0.087   0.108569
 C 0.2345 0.1833 0.587   0.108569
 C 0.7552 0.3092 0.4899   -0.239576
 C 0.7448 0.6908 0.9899   -0.239576
 C 0.2448 0.8092 0.0101   -0.239576
 C 0.2552 0.1908 0.5101   -0.239576
 C 0.658 0.3078 0.5284   0.061654
 C 0.842 0.6922 0.0284   0.061654
 C 0.342 0.8078 0.9716   0.061654
 C 0.158 0.1922 0.4716   0.061654
 C 0.5918 0.3793 0.4982   -0.255957
 C 0.9082 0.6207 0.9982   -0.255957
 C 0.4082 0.8793 0.0018   -0.255957
 C 0.0918 0.1207 0.5018   -0.255957
 C 0.6079 0.2186 0.5125   -0.225929
 C 0.8921 0.7814 0.0125   -0.225929
 C 0.3921 0.7186 0.9875   -0.225929
 C 0.1079 0.2814 0.4875   -0.225929
 C 0.633 0.4739 0.5091   0.678507
 C 0.867 0.5261 0.0091   0.678507
 C 0.367 0.9739 0.9909   0.678507
 C 0.133 0.0261 0.4909   0.678507
 C 0.5692 0.3545 0.4235   0.067015
 C 0.9308 0.6455 0.9235   0.067015
 C 0.4308 0.8545 0.0765   0.067015
 C 0.0692 0.1455 0.5765   0.067015
 C 0.6153 0.2032 0.4351   0.067731
 C 0.8847 0.7968 0.9351   0.067731
 C 0.3847 0.7032 0.0649   0.067731
 C 0.1153 0.2968 0.5649   0.067731
 C 0.6781 0.915 0.1958   0.015418
 C 0.8219 0.085 0.6958   0.015418
 C 0.3219 0.415 0.3042   0.015418
 C 0.1781 0.585 0.8042   0.015418
 N 0.6333 0.3805 0.0074   -0.292514
 N 0.8667 0.6195 0.5074   -0.292514
 N 0.3667 0.8805 0.4926   -0.292514
 N 0.1333 0.1195 0.9926   -0.292514
 N 0.7887 0.3198 0.1503   -0.384494
 N 0.7113 0.6802 0.6503   -0.384494
 N 0.2113 0.8198 0.3497   -0.384494
 N 0.2887 0.1802 0.8497   -0.384494
 N 0.5459 0.2545 0.6931   -0.378925
 N 0.9541 0.7455 0.1931   -0.378925
 N 0.4541 0.7545 0.8069   -0.378925
 N 0.0459 0.2455 0.3069   -0.378925
 N 0.6353 0.2847 0.397   -0.401604
 N 0.8647 0.7153 0.897   -0.401604
 N 0.3647 0.7847 0.103   -0.401604
 N 0.1353 0.2153 0.603   -0.401604
 O 0.697 0.4476 0.86755   -0.563044
 O 0.803 0.5524 0.36755   -0.563044
 O 0.303 0.9476 0.63245   -0.563044
 O 0.197 0.0524 0.13245   -0.563044
 O 0.315 0.2709 0.0248   -0.600063
 O 0.185 0.7291 0.5248   -0.600063
 O 0.685 0.7709 0.4752   -0.600063
 O 0.815 0.2291 0.9752   -0.600063
 O 0.8981 0.3083 0.3927   -0.539811
 O 0.6019 0.6917 0.8927   -0.539811
 O 0.1019 0.8083 0.1073   -0.539811
 O 0.3981 0.1917 0.6073   -0.539811
 O 0.4488 0.206 0.9909   -0.592322
 O 0.0512 0.794 0.4909   -0.592322
 O 0.5512 0.706 0.5091   -0.592322
 O 0.9488 0.294 0.0091   -0.592322
 O 0.6373 0.007 0.8917   -0.286982
 O 0.8627 0.993 0.3917   -0.286982
 O 0.3627 0.507 0.6083   -0.286982
 O 0.1373 0.493 0.1083   -0.286982
 O 0.6902 0.9856 0.2407   -0.276706
 O 0.8098 0.0144 0.7407   -0.276706
 O 0.3098 0.4856 0.2593   -0.276706
 O 0.1902 0.5144 0.7593   -0.276706
 O 0.6494 0.4978 0.5685   -0.605261
 O 0.8506 0.5022 0.0685   -0.605261
 O 0.3506 0.9978 0.9315   -0.605261
 O 0.1494 0.0022 0.4315   -0.605261
 O 0.6533 0.5209 0.4584   -0.623769
 O 0.8467 0.4791 0.9584   -0.623769
 O 0.3467 0.0209 0.0416   -0.623769
 O 0.1533 0.9791 0.5416   -0.623769
