{'_ref': 'TBD', '_srcid': 'CAKYAQ_clean', 'submitters': [{'name': 'Dalar Nazarian Jeff Camp and David Sholl', 'email': 'dalar@gatech.edu jcamp6@gatech.edu'}], '_method': 'VASP DFT with PBE;DDEC'}
data_CdH42C38(NO2)4
_symmetry_space_group_name_H-M   'P 1'
_cell_length_a   13.87560000
_cell_length_b   15.11620000
_cell_length_c   19.29990000
_cell_angle_alpha   90.00000000
_cell_angle_beta   90.00000000
_cell_angle_gamma   90.00000000
_symmetry_Int_Tables_number   1
_chemical_formula_structural   CdH42C38(NO2)4
_chemical_formula_sum   'Cd4 H168 C152 N16 O32'
_cell_volume   4048.08347846
_cell_formula_units_Z   4
loop_
 _symmetry_equiv_pos_site_id
 _symmetry_equiv_pos_as_xyz
  1  'x, y, z'
loop_
 _atom_site_label
 _atom_site_fract_x
 _atom_site_fract_y
 _atom_site_fract_z
 _atom_site_charge
 Cd 0.19736 0.86048 0.03281   0.901621
 Cd 0.30264 0.13952 0.53281   0.901621
 Cd 0.80264 0.36048 0.46719   0.901621
 Cd 0.69736 0.63952 0.96719   0.901621
 H 0.2596 0.9678 0.8926   0.373413
 H 0.2703 0.8302 0.8916   0.060697
 H 0.4156 0.7891 0.9427   0.071291
 H 0.4086 0.8548 0.1067   0.071296
 H 0.4113 0.7712 0.0588   0.070553
 H 0.1582 0.9048 0.2958   0.127737
 H 0.3897 0.9424 0.7674   0.12469
 H 0.1975 0.7004 0.38   0.046978
 H 0.5415 0.8546 0.9029   0.095387
 H 0.4905 0.947 0.8963   0.101803
 H 0.1641 0.932 0.1774   0.081354
 H 0.3466 0.0093 0.9823   0.061261
 H 0.3469 0.9954 0.0629   0.065809
 H 0.3325 0.6838 0.8946   0.122143
 H 0.263 0.8778 0.3966   0.080677
 H 0.3004 0.545 0.1114   0.116988
 H 0.2625 0.6125 0.3101   0.112249
 H 0.4605 0.8871 0.6673   0.06174
 H 0.462 0.5955 0.6845   0.119141
 H 0.2535 0.6804 0.0763   0.105368
 H 0.4992 0.8374 0.4147   0.05819
 H 0.4258 0.91 0.3902   0.07072
 H 0.4249 0.4934 0.7673   0.115743
 H 0.3294 0.4828 0.981   0.0705
 H 0.3916 0.5688 0.9733   0.084579
 H 0.2814 0.5707 0.9552   0.063783
 H 0.0979 0.7892 0.4348   0.369234
 H 0.215 0.7541 0.4994   0.081378
 H 0.2117 0.8579 0.5049   0.086137
 H 0.3412 0.8158 0.5758   0.064535
 H 0.4614 0.7199 0.5257   0.076157
 H 0.3608 0.6728 0.5334   0.085695
 H 0.4742 0.8799 0.5185   0.105858
 H 0.3437 0.6604 0.4199   0.05109
 H 0.4535 0.6843 0.4145   0.052029
 H 0.6104 0.9407 0.9885   0.054352
 H 0.5632 0.868 0.0923   0.101637
 H 0.5054 0.0155 0.0695   0.074471
 H 0.4981 0.0543 0.994   0.094478
 H 0.3681 0.4036 0.2842   0.069184
 H 0.4015 0.5007 0.2993   0.026077
 H 0.2967 0.4709 0.3186   0.024351
 H 0.2404 0.0322 0.3926   0.373413
 H 0.2297 0.1698 0.3916   0.060697
 H 0.0844 0.2109 0.4427   0.071291
 H 0.0914 0.1452 0.6067   0.071296
 H 0.0887 0.2288 0.5588   0.070553
 H 0.3418 0.0952 0.7958   0.127737
 H 0.1103 0.0576 0.2674   0.124689
 H 0.3025 0.2996 0.88   0.046978
 H 0.9585 0.1454 0.4029   0.095387
 H 0.0095 0.053 0.3963   0.101803
 H 0.3359 0.068 0.6774   0.081354
 H 0.1534 0.9907 0.4823   0.06126
 H 0.1531 0.0046 0.5629   0.065809
 H 0.1675 0.3162 0.3946   0.122143
 H 0.237 0.1222 0.8966   0.080676
 H 0.1996 0.455 0.6114   0.116989
 H 0.2375 0.3875 0.8101   0.112249
 H 0.0395 0.1129 0.1673   0.06174
 H 0.038 0.4045 0.1845   0.119141
 H 0.2465 0.3196 0.5763   0.105368
 H 0.000799999999998 0.1626 0.9147   0.05819
 H 0.0742 0.09 0.8902   0.07072
 H 0.0751 0.5066 0.2673   0.115743
 H 0.1706 0.5172 0.481   0.070501
 H 0.1084 0.4312 0.4733   0.084579
 H 0.2186 0.4293 0.4552   0.063783
 H 0.4021 0.2108 0.9348   0.369234
 H 0.285 0.2459 0.9994   0.081378
 H 0.2883 0.1421 0.0049   0.086137
 H 0.1588 0.1842 0.0758   0.064535
 H 0.0386 0.2801 0.0257   0.076157
 H 0.1392 0.3272 0.0334   0.085696
 H 0.0258 0.1201 0.0185   0.105858
 H 0.1563 0.3396 0.9199   0.05109
 H 0.0465 0.3157 0.9145   0.052029
 H 0.8896 0.0593 0.4885   0.054352
 H 0.9368 0.132 0.5923   0.101637
 H 0.9946 0.9845 0.5695   0.074471
 H 0.0019 0.9457 0.494   0.094478
 H 0.1319 0.5964 0.7842   0.069184
 H 0.0985 0.4993 0.7993   0.026077
 H 0.2033 0.5291 0.8186   0.024352
 H 0.7404 0.4678 0.6074   0.373413
 H 0.7297 0.3302 0.6084   0.060697
 H 0.5844 0.2891 0.5573   0.071291
 H 0.5914 0.3548 0.3933   0.071296
 H 0.5887 0.2712 0.4412   0.070553
 H 0.8418 0.4048 0.2042   0.127737
 H 0.6103 0.4424 0.7326   0.12469
 H 0.8025 0.2004 0.12   0.046978
 H 0.4585 0.3546 0.5971   0.095387
 H 0.5095 0.447 0.6037   0.101803
 H 0.8359 0.432 0.3226   0.081354
 H 0.6534 0.5093 0.5177   0.061261
 H 0.6531 0.4954 0.4371   0.065809
 H 0.6675 0.1838 0.6054   0.122143
 H 0.737 0.3778 0.1034   0.080677
 H 0.6996 0.045 0.3886   0.116989
 H 0.7375 0.1125 0.1899   0.112249
 H 0.5395 0.3871 0.8327   0.06174
 H 0.538 0.0955 0.8155   0.11914
 H 0.7465 0.1804 0.4237   0.105368
 H 0.5008 0.3374 0.0853   0.058191
 H 0.5742 0.41 0.1098   0.07072
 H 0.5751 0.9934 0.7327   0.115743
 H 0.6706 0.9828 0.519   0.070501
 H 0.6084 0.0688 0.5267   0.084579
 H 0.7186 0.0707 0.5448   0.063783
 H 0.9021 0.2892 0.0652   0.369233
 H 0.785 0.2541 0.000599999999999   0.081378
 H 0.7883 0.3579 0.9951   0.086137
 H 0.6588 0.3158 0.9242   0.064535
 H 0.5386 0.2199 0.9743   0.076157
 H 0.6392 0.1728 0.9666   0.085695
 H 0.5258 0.3799 0.9815   0.105858
 H 0.6563 0.1604 0.0801   0.05109
 H 0.5465 0.1843 0.0855   0.052028
 H 0.3896 0.4407 0.5115   0.054353
 H 0.4368 0.368 0.4077   0.101636
 H 0.4946 0.5155 0.4305   0.07447
 H 0.5019 0.5543 0.506   0.094478
 H 0.6319 0.9036 0.2158   0.069183
 H 0.5985 0.000700000000002 0.2007   0.026077
 H 0.7033 0.9709 0.1814   0.024351
 H 0.7596 0.5322 0.1074   0.373413
 H 0.7703 0.6698 0.1084   0.060697
 H 0.9156 0.7109 0.0573   0.071291
 H 0.9086 0.6452 0.8933   0.071296
 H 0.9113 0.7288 0.9412   0.070553
 H 0.6582 0.5952 0.7042   0.127737
 H 0.8897 0.5576 0.2326   0.124689
 H 0.6975 0.7996 0.62   0.046978
 H 0.0415 0.6454 0.0971   0.095387
 H 0.9905 0.553 0.1037   0.101803
 H 0.6641 0.568 0.8226   0.081354
 H 0.8466 0.4907 0.0177   0.06126
 H 0.8469 0.5046 0.9371   0.065809
 H 0.8325 0.8162 0.1054   0.122143
 H 0.763 0.6222 0.6034   0.080676
 H 0.8004 0.955 0.8886   0.116989
 H 0.7625 0.8875 0.6899   0.112249
 H 0.9605 0.6129 0.3327   0.06174
 H 0.962 0.9045 0.3155   0.11914
 H 0.7535 0.8196 0.9237   0.105368
 H 0.9992 0.6626 0.5853   0.058191
 H 0.9258 0.59 0.6098   0.07072
 H 0.9249 0.0066 0.2327   0.115743
 H 0.8294 0.0172 0.019   0.070502
 H 0.8916 0.9312 0.0267   0.08458
 H 0.7814 0.9293 0.0448   0.063783
 H 0.5979 0.7108 0.5652   0.369233
 H 0.715 0.7459 0.5006   0.081379
 H 0.7117 0.6421 0.4951   0.086137
 H 0.8412 0.6842 0.4242   0.064535
 H 0.9614 0.7801 0.4743   0.076157
 H 0.8608 0.8272 0.4666   0.085696
 H 0.9742 0.6201 0.4815   0.105858
 H 0.8437 0.8396 0.5801   0.05109
 H 0.9535 0.8157 0.5855   0.052028
 H 0.1104 0.5593 0.0115   0.054353
 H 0.0632 0.632 0.9077   0.101636
 H 0.0054 0.4845 0.9305   0.07447
 H 0.9981 0.4457 0.006   0.094478
 H 0.8681 0.0964 0.7158   0.069183
 H 0.9015 0.9993 0.7007   0.026077
 H 0.7967 0.0291 0.6814   0.024351
 C 0.329 0.8632 0.8801   0.165684
 C 0.2006 0.7782 0.2908   0.068182
 C 0.4026 0.8527 0.9393   0.071505
 C 0.4251 0.8341 0.0607   0.027866
 C 0.4278 0.7044 0.7403   0.187462
 C 0.1767 0.8599 0.2656   -0.189978
 C 0.3847 0.7328 0.8046   0.001007
 C 0.3719 0.8263 0.8135   0.034565
 C 0.3989 0.8818 0.7626   -0.210706
 C 0.1925 0.7636 0.3693   0.178449
 C 0.4988 0.8959 0.9261   -0.241134
 C 0.1803 0.8759 0.1933   0.186627
 C 0.2285 0.7323 0.1707   0.196647
 C 0.3775 0.9776 0.0199   0.013088
 C 0.3609 0.6674 0.8528   -0.275336
 C 0.23 0.7108 0.2428   0.008273
 C 0.2689 0.8153 0.4096   0.071416
 C 0.2833 0.5872 0.1443   -0.164049
 C 0.2604 0.627 0.2633   -0.263465
 C 0.2874 0.5658 0.2144   0.265453
 C 0.4416 0.8473 0.7014   0.170908
 C 0.4387 0.6141 0.7273   -0.121509
 C 0.2552 0.6676 0.1235   -0.129955
 C 0.4331 0.8577 0.4188   0.064614
 C 0.3779 0.5821 0.8403   0.278539
 C 0.4159 0.5534 0.7759   -0.179308
 C 0.339 0.5355 0.9541   -0.002814
 C 0.2499 0.8081 0.4891   -0.251865
 C 0.3487 0.8075 0.5257   0.07244
 C 0.395 0.72 0.5098   -0.220708
 C 0.4124 0.8815 0.494   -0.2512
 C 0.3688 0.9731 0.5066   0.671646
 C 0.3913 0.7055 0.4304   0.052251
 C 0.5426 0.9243 0.9949   0.060054
 C 0.5341 0.8482 0.0487   -0.239452
 C 0.4861 0.0024 0.0223   -0.198621
 C 0.5888 0.7667 0.0233   0.663134
 C 0.3481 0.4643 0.2857   0.031465
 C 0.171 0.1368 0.3801   0.165685
 C 0.2994 0.2218 0.7908   0.068182
 C 0.0974 0.1473 0.4393   0.071505
 C 0.0749 0.1659 0.5607   0.027866
 C 0.0722 0.2956 0.2403   0.187462
 C 0.3233 0.1401 0.7656   -0.189978
 C 0.1153 0.2672 0.3046   0.001007
 C 0.1281 0.1737 0.3135   0.034565
 C 0.1011 0.1182 0.2626   -0.210706
 C 0.3075 0.2364 0.8693   0.178449
 C 0.0012 0.1041 0.4261   -0.241134
 C 0.3197 0.1241 0.6933   0.186627
 C 0.2715 0.2677 0.6707   0.196647
 C 0.1225 0.0224 0.5199   0.013088
 C 0.1391 0.3326 0.3528   -0.275336
 C 0.27 0.2892 0.7428   0.008273
 C 0.2311 0.1847 0.9096   0.071416
 C 0.2167 0.4128 0.6443   -0.164049
 C 0.2396 0.373 0.7633   -0.263465
 C 0.2126 0.4342 0.7144   0.265453
 C 0.0584 0.1527 0.2014   0.170908
 C 0.0613 0.3859 0.2273   -0.121509
 C 0.2448 0.3324 0.6235   -0.129954
 C 0.0669 0.1423 0.9188   0.064615
 C 0.1221 0.4179 0.3403   0.278539
 C 0.0841 0.4466 0.2759   -0.179308
 C 0.161 0.4645 0.4541   -0.002814
 C 0.2501 0.1919 0.9891   -0.251865
 C 0.1513 0.1925 0.0257   0.07244
 C 0.105 0.28 0.0098   -0.220709
 C 0.0876 0.1185 0.994   -0.2512
 C 0.1312 0.0269 0.0066   0.671646
 C 0.1087 0.2945 0.9304   0.052251
 C 0.9574 0.0757 0.4949   0.060054
 C 0.9659 0.1518 0.5487   -0.239452
 C 0.0139 0.9976 0.5223   -0.198621
 C 0.9112 0.2333 0.5233   0.663134
 C 0.1519 0.5357 0.7857   0.031465
 C 0.671 0.3632 0.6199   0.165684
 C 0.7994 0.2782 0.2092   0.068182
 C 0.5974 0.3527 0.5607   0.071505
 C 0.5749 0.3341 0.4393   0.027866
 C 0.5722 0.2044 0.7597   0.187462
 C 0.8233 0.3599 0.2344   -0.189977
 C 0.6153 0.2328 0.6954   0.001007
 C 0.6281 0.3263 0.6865   0.034565
 C 0.6011 0.3818 0.7374   -0.210706
 C 0.8075 0.2636 0.1307   0.178449
 C 0.5012 0.3959 0.5739   -0.241134
 C 0.8197 0.3759 0.3067   0.186627
 C 0.7715 0.2323 0.3293   0.196647
 C 0.6225 0.4776 0.4801   0.013087
 C 0.6391 0.1674 0.6472   -0.275336
 C 0.77 0.2108 0.2572   0.008273
 C 0.7311 0.3153 0.0904   0.071416
 C 0.7167 0.0872 0.3557   -0.164049
 C 0.7396 0.127 0.2367   -0.263465
 C 0.7126 0.0658 0.2856   0.265453
 C 0.5584 0.3473 0.7986   0.170908
 C 0.5613 0.1141 0.7727   -0.121508
 C 0.7448 0.1676 0.3765   -0.129954
 C 0.5669 0.3577 0.0812   0.064614
 C 0.6221 0.0821 0.6597   0.278538
 C 0.5841 0.0534 0.7241   -0.179308
 C 0.661 0.0355 0.5459   -0.002814
 C 0.7501 0.3081 0.0109   -0.251865
 C 0.6513 0.3075 0.9743   0.07244
 C 0.605 0.22 0.9902   -0.220708
 C 0.5876 0.3815 0.006   -0.2512
 C 0.6312 0.4731 0.9934   0.671646
 C 0.6087 0.2055 0.0696   0.052251
 C 0.4574 0.4243 0.5051   0.060053
 C 0.4659 0.3482 0.4513   -0.239452
 C 0.5139 0.5024 0.4777   -0.19862
 C 0.4112 0.2667 0.4767   0.663134
 C 0.6519 0.9643 0.2143   0.031465
 C 0.829 0.6368 0.1199   0.165685
 C 0.7006 0.7218 0.7092   0.068182
 C 0.9026 0.6473 0.0607   0.071505
 C 0.9251 0.6659 0.9393   0.027866
 C 0.9278 0.7956 0.2597   0.187462
 C 0.6767 0.6401 0.7344   -0.189977
 C 0.8847 0.7672 0.1954   0.001007
 C 0.8719 0.6737 0.1865   0.034565
 C 0.8989 0.6182 0.2374   -0.210706
 C 0.6925 0.7364 0.6307   0.178449
 C 0.9988 0.6041 0.0739   -0.241134
 C 0.6803 0.6241 0.8067   0.186627
 C 0.7285 0.7677 0.8293   0.196647
 C 0.8775 0.5224 0.9801   0.013088
 C 0.8609 0.8326 0.1472   -0.275336
 C 0.73 0.7892 0.7572   0.008273
 C 0.7689 0.6847 0.5904   0.071416
 C 0.7833 0.9128 0.8557   -0.16405
 C 0.7604 0.873 0.7367   -0.263465
 C 0.7874 0.9342 0.7856   0.265454
 C 0.9416 0.6527 0.2986   0.170908
 C 0.9387 0.8859 0.2727   -0.121508
 C 0.7552 0.8324 0.8765   -0.129954
 C 0.9331 0.6423 0.5812   0.064614
 C 0.8779 0.9179 0.1597   0.278538
 C 0.9159 0.9466 0.2241   -0.179308
 C 0.839 0.9645 0.0459   -0.002815
 C 0.7499 0.6919 0.5109   -0.251865
 C 0.8487 0.6925 0.4743   0.07244
 C 0.895 0.78 0.4902   -0.220709
 C 0.9124 0.6185 0.506   -0.2512
 C 0.8688 0.5269 0.4934   0.671646
 C 0.8913 0.7945 0.5696   0.052251
 C 0.0426 0.5757 0.0051   0.060053
 C 0.0341 0.6518 0.9513   -0.239452
 C 0.9861 0.4976 0.9777   -0.19862
 C 0.0888 0.7333 0.9767   0.663134
 C 0.8481 0.0357 0.7143   0.031466
 N 0.2052 0.8165 0.1481   -0.386351
 N 0.4558 0.7642 0.6901   -0.36703
 N 0.3667 0.7872 0.3935   -0.384551
 N 0.3637 0.8801 0.0096   -0.286478
 N 0.2948 0.1835 0.6481   -0.386351
 N 0.0442 0.2358 0.1901   -0.36703
 N 0.1333 0.2128 0.8935   -0.384551
 N 0.1363 0.1199 0.5096   -0.286478
 N 0.7948 0.3165 0.3519   -0.386351
 N 0.5442 0.2642 0.8099   -0.36703
 N 0.6333 0.2872 0.1065   -0.384551
 N 0.6363 0.3801 0.4904   -0.286478
 N 0.7052 0.6835 0.8519   -0.386351
 N 0.9558 0.7358 0.3099   -0.36703
 N 0.8667 0.7128 0.6065   -0.384551
 N 0.8637 0.6199 0.9904   -0.286478
 O 0.3049 0.9535 0.8677   -0.569562
 O 0.3604 0.5125 0.8853   -0.283174
 O 0.3212 0.486 0.2309   -0.196659
 O 0.1026 0.7973 0.393   -0.556821
 O 0.3449 0.0214 0.4566   -0.61629
 O 0.36 0.000900000000001 0.5675   -0.607976
 O 0.6797 0.7704 0.0293   -0.620522
 O 0.5474 0.7054 0.994   -0.578137
 O 0.1951 0.0465 0.3677   -0.569562
 O 0.1396 0.4875 0.3853   -0.283174
 O 0.1788 0.514 0.7309   -0.196659
 O 0.3974 0.2027 0.893   -0.556821
 O 0.1551 0.9786 0.9566   -0.61629
 O 0.14 0.9991 0.0675   -0.607976
 O 0.8203 0.2296 0.5293   -0.620522
 O 0.9526 0.2946 0.494   -0.578137
 O 0.6951 0.4535 0.6323   -0.569562
 O 0.6396 0.0125 0.6147   -0.283174
 O 0.6788 0.986 0.2691   -0.196659
 O 0.8974 0.2973 0.107   -0.556821
 O 0.6551 0.5214 0.0434   -0.61629
 O 0.64 0.5009 0.9325   -0.607976
 O 0.3203 0.2704 0.4707   -0.620522
 O 0.4526 0.2054 0.506   -0.578137
 O 0.8049 0.5465 0.1323   -0.569562
 O 0.8604 0.9875 0.1147   -0.283174
 O 0.8212 0.014 0.7691   -0.19666
 O 0.6026 0.7027 0.607   -0.556821
 O 0.8449 0.4786 0.5434   -0.61629
 O 0.86 0.4991 0.4325   -0.607976
 O 0.1797 0.7296 0.9707   -0.620522
 O 0.0474 0.7946 0.006   -0.578137
