{'_ref': 'TBD', '_srcid': 'CAKYAQ_clean', 'submitters': [{'name': 'Dalar Nazarian Jeff Camp and David Sholl', 'email': 'dalar@gatech.edu jcamp6@gatech.edu'}], '_method': 'VASP DFT with PBE;DDEC'}
data_LaH24C48(NO2)4
_symmetry_space_group_name_H-M   'P 1'
_cell_length_a   9.85480000
_cell_length_b   13.81380048
_cell_length_c   33.79250000
_cell_angle_alpha   90.00000000
_cell_angle_beta   90.00000000
_cell_angle_gamma   92.86269893
_symmetry_Int_Tables_number   1
_chemical_formula_structural   LaH24C48(NO2)4
_chemical_formula_sum   'La4 H96 C192 N16 O32'
_cell_volume   4594.50802318
_cell_formula_units_Z   4
loop_
 _symmetry_equiv_pos_site_id
 _symmetry_equiv_pos_as_xyz
  1  'x, y, z'
loop_
 _atom_site_label
 _atom_site_fract_x
 _atom_site_fract_y
 _atom_site_fract_z
 _atom_site_charge
 La 0.26408 0.02019 0.75105   2.237964
 La 0.23592 0.97981 0.25105   2.237964
 La 0.73592 0.97981 0.24895   2.237964
 La 0.76408 0.02019 0.74895   2.237964
 H 0.2824 0.228 0.4585   0.108874
 H 0.3924 0.2383 0.5245   0.11611
 H 0.5124 0.5234 0.6262   0.138659
 H 0.5159 0.7013 0.6209   0.122131
 H 0.2593 0.9475 0.5287   0.10853
 H 0.0937 0.9298 0.4741   0.123268
 H 0.9299 0.6366 0.3795   0.127563
 H 0.9818 0.4645 0.3744   0.13665
 H 0.6074 0.3145 0.558   0.107654
 H 0.6816 0.1955 0.6012   0.091586
 H 0.5631 0.1594 0.6593   0.10419
 H 0.2954 0.3615 0.6327   0.104286
 H 0.5456 0.9019 0.5287   0.107578
 H 0.6989 0.006 0.5623   0.091343
 H 0.6851 0.0226 0.6308   0.108034
 H 0.3468 0.8443 0.6315   0.122076
 H 0.8333 0.8349 0.4596   0.094981
 H 0.7065 0.9323 0.4188   0.094762
 H 0.7778 0.9692 0.3544   0.089799
 H 0.1017 0.8039 0.3703   0.112701
 H 0.9748 0.2575 0.4462   0.093987
 H 0.9042 0.1232 0.4079   0.083111
 H 0.0099 0.0965 0.3473   0.095464
 H 0.2466 0.3416 0.3622   0.111259
 H 0.2176 0.772 0.9585   0.108874
 H 0.1076 0.7617 0.0245   0.11611
 H 0.9876 0.4766 0.1262   0.138659
 H 0.9841 0.2987 0.1209   0.122131
 H 0.2407 0.0525 0.0287   0.10853
 H 0.4063 0.0702 0.9741   0.123268
 H 0.5701 0.3634 0.8795   0.127563
 H 0.5182 0.5355 0.8744   0.13665
 H 0.8926 0.6855 0.058   0.107654
 H 0.8184 0.8045 0.1012   0.091586
 H 0.9369 0.8406 0.1593   0.10419
 H 0.2046 0.6385 0.1327   0.104286
 H 0.9544 0.0981 0.0287   0.107578
 H 0.8011 0.994 0.0623   0.091343
 H 0.8149 0.9774 0.1308   0.108034
 H 0.1532 0.1557 0.1315   0.122076
 H 0.6667 0.1651 0.9596   0.094981
 H 0.7935 0.0677 0.9188   0.094762
 H 0.7222 0.0308 0.8544   0.089799
 H 0.3983 0.1961 0.8703   0.112701
 H 0.5252 0.7425 0.9462   0.093987
 H 0.5958 0.8768 0.9079   0.083111
 H 0.4901 0.9035 0.8473   0.095464
 H 0.2534 0.6584 0.8622   0.111259
 H 0.7176 0.772 0.5415   0.108874
 H 0.6076 0.7617 0.4755   0.11611
 H 0.4876 0.4766 0.3738   0.138659
 H 0.4841 0.2987 0.3791   0.122131
 H 0.7407 0.0525 0.4713   0.10853
 H 0.9063 0.0702 0.5259   0.123268
 H 0.0701 0.3634 0.6205   0.127563
 H 0.0182 0.5355 0.6256   0.13665
 H 0.3926 0.6855 0.442   0.107654
 H 0.3184 0.8045 0.3988   0.091586
 H 0.4369 0.8406 0.3407   0.10419
 H 0.7046 0.6385 0.3673   0.104286
 H 0.4544 0.0981 0.4713   0.107578
 H 0.3011 0.994 0.4377   0.091343
 H 0.3149 0.9774 0.3692   0.108034
 H 0.6532 0.1557 0.3685   0.122076
 H 0.1667 0.1651 0.5404   0.09498
 H 0.2935 0.0677 0.5812   0.094762
 H 0.2222 0.0308 0.6456   0.089799
 H 0.8983 0.1961 0.6297   0.112701
 H 0.0252 0.7425 0.5538   0.093987
 H 0.0958 0.8768 0.5921   0.083111
 H 0.9901 0.9035 0.6527   0.095464
 H 0.7534 0.6584 0.6378   0.111258
 H 0.7824 0.228 0.0415   0.108874
 H 0.8924 0.2383 0.9755   0.11611
 H 0.0124 0.5234 0.8738   0.138659
 H 0.0159 0.7013 0.8791   0.122131
 H 0.7593 0.9475 0.9713   0.10853
 H 0.5937 0.9298 0.0259   0.123268
 H 0.4299 0.6366 0.1205   0.127563
 H 0.4818 0.4645 0.1256   0.13665
 H 0.1074 0.3145 0.942   0.107654
 H 0.1816 0.1955 0.8988   0.091586
 H 0.0631 0.1594 0.8407   0.10419
 H 0.7954 0.3615 0.8673   0.104286
 H 0.0456 0.9019 0.9713   0.107578
 H 0.1989 0.006 0.9377   0.091343
 H 0.1851 0.0226 0.8692   0.108034
 H 0.8468 0.8443 0.8685   0.122076
 H 0.3333 0.8349 0.0404   0.09498
 H 0.2065 0.9323 0.0812   0.094762
 H 0.2778 0.9692 0.1456   0.089799
 H 0.6017 0.8039 0.1297   0.112701
 H 0.4748 0.2575 0.0538   0.093987
 H 0.4042 0.1232 0.0921   0.083111
 H 0.5099 0.0965 0.1527   0.095464
 H 0.7466 0.3416 0.1378   0.111258
 C 0.2374 0.3775 0.4677   0.187534
 C 0.2895 0.2831 0.47532   -0.172857
 C 0.3499 0.2891 0.51101   -0.167188
 C 0.3378 0.3872 0.52505   0.196331
 C 0.3875 0.4211 0.56157   0.059545
 C 0.3959 0.5188 0.57342   0.186195
 C 0.47 0.5591 0.60603   -0.161229
 C 0.4703 0.6565 0.60349   -0.156078
 C 0.3888 0.6809 0.56969   0.175057
 C 0.3622 0.7741 0.55657   0.036161
 C 0.2755 0.7943 0.52508   0.175445
 C 0.2308 0.8887 0.51586   -0.167156
 C 0.1417 0.8794 0.48601   -0.181743
 C 0.1327 0.7785 0.4755   0.175429
 C 0.0581 0.7399 0.44355   0.033996
 C 0.0583 0.6434 0.43059   0.184821
 C 0.987 0.6028 0.3968   -0.167103
 C 0.0154 0.5088 0.39405   -0.150848
 C 0.106 0.4869 0.42615   0.193911
 C 0.1575 0.3974 0.43458   0.052392
 C 0.4407 0.3498 0.59038   0.01131
 C 0.5581 0.3 0.58162   -0.095556
 C 0.6027 0.2292 0.60743   -0.106362
 C 0.5323 0.208 0.642   -0.026064
 C 0.4181 0.2564 0.65163   -0.111743
 C 0.3735 0.3275 0.6259   -0.080937
 C 0.3349 0.2292 0.68859   0.673875
 C 0.4382 0.8553 0.57746   0.021172
 C 0.539 0.9087 0.55661   -0.106758
 C 0.6291 0.9712 0.5765   -0.091884
 C 0.6185 0.9835 0.61707   -0.026598
 C 0.5114 0.9391 0.63747   -0.126287
 C 0.4209 0.8749 0.61754   -0.069012
 C 0.4937 0.9592 0.68086   0.777093
 C 0.9797 0.8078 0.41903   0.024234
 C 0.8625 0.8478 0.43324   -0.09976
 C 0.7876 0.9067 0.40898   -0.094352
 C 0.8292 0.9287 0.37076   -0.012172
 C 0.947 0.8905 0.35679   -0.133354
 C 0.0215 0.8302 0.38049   -0.068209
 C 0.000399999999999 0.9149 0.31609   0.770333
 C 0.1161 0.3133 0.40802   0.022897
 C 0.0161 0.2476 0.42121   -0.096779
 C 0.9745 0.1671 0.3987   -0.105547
 C 0.0371 0.1518 0.36254   -0.027865
 C 0.138 0.2153 0.34841   -0.11131
 C 0.1774 0.2971 0.37155   -0.086797
 C 0.2055 0.1963 0.30982   0.679687
 C 0.2626 0.6225 0.9677   0.187534
 C 0.2105 0.7169 0.97532   -0.172857
 C 0.1501 0.7109 0.01101   -0.167188
 C 0.1622 0.6128 0.02505   0.196331
 C 0.1125 0.5789 0.06157   0.059545
 C 0.1041 0.4812 0.07342   0.186195
 C 0.03 0.4409 0.10603   -0.161229
 C 0.0297 0.3435 0.10349   -0.156078
 C 0.1112 0.3191 0.06969   0.175057
 C 0.1378 0.2259 0.05657   0.036161
 C 0.2245 0.2057 0.02508   0.175445
 C 0.2692 0.1113 0.01586   -0.167156
 C 0.3583 0.1206 0.98601   -0.181743
 C 0.3673 0.2215 0.9755   0.175429
 C 0.4419 0.2601 0.94355   0.033996
 C 0.4417 0.3566 0.93059   0.184821
 C 0.513 0.3972 0.8968   -0.167103
 C 0.4846 0.4912 0.89405   -0.150848
 C 0.394 0.5131 0.92615   0.193911
 C 0.3425 0.6026 0.93458   0.052392
 C 0.0593 0.6502 0.09038   0.01131
 C 0.9419 0.7 0.08162   -0.095556
 C 0.8973 0.7708 0.10743   -0.106362
 C 0.9677 0.792 0.142   -0.026064
 C 0.0819 0.7436 0.15163   -0.111743
 C 0.1265 0.6725 0.1259   -0.080937
 C 0.1651 0.7708 0.18859   0.673875
 C 0.0618 0.1447 0.07746   0.021172
 C 0.961 0.0913 0.05661   -0.106758
 C 0.8709 0.0288 0.0765   -0.091884
 C 0.8815 0.0165 0.11707   -0.026598
 C 0.9886 0.0609 0.13747   -0.126287
 C 0.0791 0.1251 0.11754   -0.069012
 C 0.0063 0.0408 0.18086   0.777093
 C 0.5203 0.1922 0.91903   0.024234
 C 0.6375 0.1522 0.93324   -0.09976
 C 0.7124 0.0933 0.90898   -0.094352
 C 0.6708 0.0713 0.87076   -0.012172
 C 0.553 0.1095 0.85679   -0.133354
 C 0.4785 0.1698 0.88049   -0.068209
 C 0.4996 0.0851 0.81609   0.770333
 C 0.3839 0.6867 0.90802   0.022897
 C 0.4839 0.7524 0.92121   -0.096779
 C 0.5255 0.8329 0.8987   -0.105547
 C 0.4629 0.8482 0.86254   -0.027865
 C 0.362 0.7847 0.84841   -0.11131
 C 0.3226 0.7029 0.87155   -0.086797
 C 0.2945 0.8037 0.80982   0.679687
 C 0.7626 0.6225 0.5323   0.187534
 C 0.7105 0.7169 0.52468   -0.172857
 C 0.6501 0.7109 0.48899   -0.167187
 C 0.6622 0.6128 0.47495   0.196332
 C 0.6125 0.5789 0.43843   0.059545
 C 0.6041 0.4812 0.42658   0.186195
 C 0.53 0.4409 0.39397   -0.161229
 C 0.5297 0.3435 0.39651   -0.156078
 C 0.6112 0.3191 0.43031   0.175057
 C 0.6378 0.2259 0.44343   0.036161
 C 0.7245 0.2057 0.47492   0.175445
 C 0.7692 0.1113 0.48414   -0.167156
 C 0.8583 0.1206 0.51399   -0.181742
 C 0.8673 0.2215 0.5245   0.175429
 C 0.9419 0.2601 0.55645   0.033996
 C 0.9417 0.3566 0.56941   0.184821
 C 0.013 0.3972 0.6032   -0.167103
 C 0.9846 0.4912 0.60595   -0.150848
 C 0.894 0.5131 0.57385   0.193911
 C 0.8425 0.6026 0.56542   0.052392
 C 0.5593 0.6502 0.40962   0.01131
 C 0.4419 0.7 0.41838   -0.095556
 C 0.3973 0.7708 0.39257   -0.106362
 C 0.4677 0.792 0.358   -0.026064
 C 0.5819 0.7436 0.34837   -0.111743
 C 0.6265 0.6725 0.3741   -0.080937
 C 0.6651 0.7708 0.31141   0.673875
 C 0.5618 0.1447 0.42254   0.021172
 C 0.461 0.0913 0.44339   -0.106758
 C 0.3709 0.0288 0.4235   -0.091884
 C 0.3815 0.0165 0.38293   -0.026598
 C 0.4886 0.0609 0.36253   -0.126287
 C 0.5791 0.1251 0.38246   -0.069012
 C 0.5063 0.0408 0.31914   0.777093
 C 0.0203 0.1922 0.58097   0.024234
 C 0.1375 0.1522 0.56676   -0.099759
 C 0.2124 0.0933 0.59102   -0.094351
 C 0.1708 0.0713 0.62924   -0.012172
 C 0.053 0.1095 0.64321   -0.133354
 C 0.9785 0.1698 0.61951   -0.068209
 C 0.9996 0.0851 0.68391   0.770333
 C 0.8839 0.6867 0.59198   0.022897
 C 0.9839 0.7524 0.57879   -0.096779
 C 0.0255 0.8329 0.6013   -0.105547
 C 0.9629 0.8482 0.63746   -0.027865
 C 0.862 0.7847 0.65159   -0.11131
 C 0.8226 0.7029 0.62845   -0.086797
 C 0.7945 0.8037 0.69018   0.679687
 C 0.7374 0.3775 0.0323   0.187534
 C 0.7895 0.2831 0.02468   -0.172857
 C 0.8499 0.2891 0.98899   -0.167187
 C 0.8378 0.3872 0.97495   0.196332
 C 0.8875 0.4211 0.93843   0.059545
 C 0.8959 0.5188 0.92658   0.186195
 C 0.97 0.5591 0.89397   -0.161229
 C 0.9703 0.6565 0.89651   -0.156078
 C 0.8888 0.6809 0.93031   0.175057
 C 0.8622 0.7741 0.94343   0.036161
 C 0.7755 0.7943 0.97492   0.175445
 C 0.7308 0.8887 0.98414   -0.167156
 C 0.6417 0.8794 0.01399   -0.181742
 C 0.6327 0.7785 0.0245   0.175429
 C 0.5581 0.7399 0.05645   0.033996
 C 0.5583 0.6434 0.06941   0.184821
 C 0.487 0.6028 0.1032   -0.167103
 C 0.5154 0.5088 0.10595   -0.150848
 C 0.606 0.4869 0.07385   0.193911
 C 0.6575 0.3974 0.06542   0.052392
 C 0.9407 0.3498 0.90962   0.01131
 C 0.0581 0.3 0.91838   -0.095556
 C 0.1027 0.2292 0.89257   -0.106362
 C 0.0323 0.208 0.858   -0.026064
 C 0.9181 0.2564 0.84837   -0.111743
 C 0.8735 0.3275 0.8741   -0.080937
 C 0.8349 0.2292 0.81141   0.673875
 C 0.9382 0.8553 0.92254   0.021172
 C 0.039 0.9087 0.94339   -0.106758
 C 0.1291 0.9712 0.9235   -0.091884
 C 0.1185 0.9835 0.88293   -0.026598
 C 0.0114 0.9391 0.86253   -0.126287
 C 0.9209 0.8749 0.88246   -0.069012
 C 0.9937 0.9592 0.81914   0.777093
 C 0.4797 0.8078 0.08097   0.024234
 C 0.3625 0.8478 0.06676   -0.099759
 C 0.2876 0.9067 0.09102   -0.094351
 C 0.3292 0.9287 0.12924   -0.012172
 C 0.447 0.8905 0.14321   -0.133354
 C 0.5215 0.8302 0.11951   -0.068209
 C 0.5004 0.9149 0.18391   0.770333
 C 0.6161 0.3133 0.09198   0.022897
 C 0.5161 0.2476 0.07879   -0.096779
 C 0.4745 0.1671 0.1013   -0.105547
 C 0.5371 0.1518 0.13746   -0.027865
 C 0.638 0.2153 0.15159   -0.11131
 C 0.6774 0.2971 0.12845   -0.086797
 C 0.7055 0.1963 0.19018   0.679687
 N 0.2715 0.4404 0.49779   -0.2826
 N 0.3436 0.5949 0.5523   -0.281069
 N 0.2145 0.7271 0.50033   -0.303477
 N 0.1288 0.57 0.44775   -0.276856
 N 0.2285 0.5596 0.99779   -0.2826
 N 0.1564 0.4051 0.0523   -0.281069
 N 0.2855 0.2729 0.000329999999998   -0.303477
 N 0.3712 0.43 0.94775   -0.276856
 N 0.7285 0.5596 0.50221   -0.2826
 N 0.6564 0.4051 0.4477   -0.281069
 N 0.7855 0.2729 0.49967   -0.303477
 N 0.8712 0.43 0.55225   -0.276856
 N 0.7715 0.4404 0.00221   -0.2826
 N 0.8436 0.5949 0.9477   -0.281069
 N 0.7145 0.7271 0.99967   -0.303477
 N 0.6288 0.57 0.05225   -0.276856
 O 0.235 0.2774 0.6968   -0.487049
 O 0.3744 0.1579 0.70888   -0.717486
 O 0.3802 0.9346 0.69657   -0.698097
 O 0.592 0.0015 0.69864   -0.76465
 O 0.9252 0.9613 0.29308   -0.798023
 O 0.1166 0.8903 0.30662   -0.668817
 O 0.1538 0.1235 0.28937   -0.716171
 O 0.3072 0.2464 0.29928   -0.474137
 O 0.265 0.7226 0.1968   -0.487049
 O 0.1256 0.8421 0.20888   -0.717486
 O 0.1198 0.0654 0.19657   -0.698097
 O 0.908 0.9985 0.19864   -0.76465
 O 0.5748 0.0387 0.79308   -0.798023
 O 0.3834 0.1097 0.80662   -0.668817
 O 0.3462 0.8765 0.78937   -0.716171
 O 0.1928 0.7536 0.79928   -0.474137
 O 0.765 0.7226 0.3032   -0.487049
 O 0.6256 0.8421 0.29112   -0.717486
 O 0.6198 0.0654 0.30343   -0.698097
 O 0.408 0.9985 0.30136   -0.76465
 O 0.0748 0.0387 0.70692   -0.798023
 O 0.8834 0.1097 0.69338   -0.668817
 O 0.8462 0.8765 0.71063   -0.716171
 O 0.6928 0.7536 0.70072   -0.474137
 O 0.735 0.2774 0.8032   -0.487049
 O 0.8744 0.1579 0.79112   -0.717486
 O 0.8802 0.9346 0.80343   -0.698097
 O 0.092 0.0015 0.80136   -0.76465
 O 0.4252 0.9613 0.20692   -0.798023
 O 0.6166 0.8903 0.19338   -0.668817
 O 0.6538 0.1235 0.21063   -0.716171
 O 0.8072 0.2464 0.20072   -0.474137
