{'_ref': 'TBD', '_srcid': 'CAKYAQ_clean', 'submitters': [{'name': 'Dalar Nazarian Jeff Camp and David Sholl', 'email': 'dalar@gatech.edu jcamp6@gatech.edu'}], '_method': 'VASP DFT with PBE;DDEC'}
data_PrH14C25(NO3)2
_symmetry_space_group_name_H-M   'P 1'
_cell_length_a   7.45950020
_cell_length_b   11.47399991
_cell_length_c   16.47670000
_cell_angle_alpha   98.95109858
_cell_angle_beta   90.98630111
_cell_angle_gamma   91.31089795
_symmetry_Int_Tables_number   1
_chemical_formula_structural   PrH14C25(NO3)2
_chemical_formula_sum   'Pr2 H28 C50 N4 O12'
_cell_volume   1392.39835432
_cell_formula_units_Z   2
loop_
 _symmetry_equiv_pos_site_id
 _symmetry_equiv_pos_as_xyz
  1  'x, y, z'
loop_
 _atom_site_label
 _atom_site_fract_x
 _atom_site_fract_y
 _atom_site_fract_z
 _atom_site_charge
 Pr 0.75915 0.57644 0.00495   2.201848
 Pr 0.24085 0.42356 0.99505   2.201846
 H 0.3128 0.3913 0.4107   0.128946
 H 0.0869 0.3588 0.5138   0.127138
 H 0.9469 0.006 0.6845   0.130056
 H 0.1001 0.8231 0.7033   0.126366
 H 0.4093 0.0824 0.4851   0.269982
 H 0.7998 0.2158 0.5302   0.094498
 H 0.5854 0.3314 0.6049   0.10008
 H 0.6321 0.3978 0.7444   0.089848
 H 0.1072 0.2329 0.7374   0.114115
 H 0.8084 0.3984 0.415   0.104118
 H 0.8904 0.5418 0.3359   0.084386
 H 0.7543 0.5431 0.2072   0.084693
 H 0.4457 0.2592 0.2389   0.126181
 H 0.1912 0.737 0.9424   0.009935
 H 0.6872 0.6087 0.5893   0.128948
 H 0.9131 0.6412 0.4862   0.12714
 H 0.0531 0.994 0.3155   0.130055
 H 0.8999 0.1769 0.2967   0.126366
 H 0.5907 0.9176 0.5149   0.269985
 H 0.2002 0.7842 0.4698   0.094498
 H 0.4146 0.6686 0.3951   0.100081
 H 0.3679 0.6022 0.2556   0.089848
 H 0.8928 0.7671 0.2626   0.114115
 H 0.1916 0.6016 0.585   0.10412
 H 0.1096 0.4582 0.6641   0.084387
 H 0.2457 0.4569 0.7928   0.084694
 H 0.5543 0.7408 0.7611   0.12618
 H 0.8088 0.263 0.0576   0.009936
 C 0.4232 0.228 0.4306   0.165729
 C 0.3053 0.3256 0.4392   -0.170293
 C 0.1809 0.3073 0.4954   -0.173096
 C 0.216 0.1967 0.5221   0.167267
 C 0.123 0.1459 0.581   -0.10484
 C 0.1642 0.0371 0.6054   0.239011
 C 0.056 0.9789 0.6603   -0.171567
 C 0.1389 0.8795 0.6704   -0.186036
 C 0.2986 0.8747 0.6217   0.23624
 C 0.5775 0.2166 0.3831   -0.121374
 C 0.9775 0.2149 0.6262   0.057049
 C 0.8197 0.2433 0.5871   -0.10298
 C 0.6918 0.3118 0.6317   -0.098036
 C 0.7196 0.3511 0.7145   -0.031867
 C 0.8748 0.3229 0.7544   -0.152216
 C 0.0023 0.2537 0.71   -0.076806
 C 0.9109 0.3703 0.844   0.77735
 C 0.6202 0.3128 0.3342   0.069113
 C 0.7519 0.3986 0.3629   -0.11277
 C 0.8007 0.4838 0.3158   -0.087514
 C 0.7197 0.4851 0.2397   -0.016677
 C 0.5875 0.4009 0.2112   -0.146129
 C 0.5375 0.3159 0.2585   -0.082734
 C 0.4952 0.4003 0.1299   0.742719
 C 0.0825 0.7013 0.9568   0.692575
 C 0.5768 0.772 0.5694   0.165731
 C 0.6947 0.6744 0.5608   -0.170292
 C 0.8191 0.6927 0.5046   -0.173094
 C 0.784 0.8033 0.4779   0.16727
 C 0.877 0.8541 0.419   -0.104837
 C 0.8358 0.9629 0.3946   0.239013
 C 0.944 0.0211 0.3397   -0.171565
 C 0.8611 0.1205 0.3296   -0.186032
 C 0.7014 0.1253 0.3783   0.23624
 C 0.4225 0.7834 0.6169   -0.121373
 C 0.0225 0.7851 0.3738   0.057049
 C 0.1803 0.7567 0.4129   -0.102979
 C 0.3082 0.6882 0.3683   -0.098036
 C 0.2804 0.6489 0.2855   -0.031866
 C 0.1252 0.6771 0.2456   -0.152216
 C 0.9977 0.7463 0.29   -0.076805
 C 0.0891 0.6297 0.156   0.77735
 C 0.3798 0.6872 0.6658   0.069112
 C 0.2481 0.6014 0.6371   -0.112769
 C 0.1993 0.5162 0.6842   -0.087512
 C 0.2803 0.5149 0.7603   -0.016677
 C 0.4125 0.5991 0.7888   -0.14613
 C 0.4625 0.6841 0.7415   -0.082733
 C 0.5048 0.5997 0.8701   0.742719
 C 0.9175 0.2987 0.0432   0.692574
 N 0.3619 0.1507 0.48057   -0.232518
 N 0.3102 0.971 0.58218   -0.494813
 N 0.6381 0.8493 0.51943   -0.23252
 N 0.6898 0.029 0.41782   -0.494813
 O 0.7887 0.426 0.88302   -0.700239
 O 0.0631 0.3489 0.87358   -0.733988
 O 0.5496 0.469 0.08066   -0.867324
 O 0.3618 0.3329 0.1118   -0.640438
 O 0.9566 0.7657 0.9784   -0.604557
 O 0.0751 0.5898 0.95257   -0.830447
 O 0.2113 0.574 0.11698   -0.700239
 O 0.9369 0.6511 0.12642   -0.733988
 O 0.4504 0.531 0.91934   -0.867324
 O 0.6382 0.6671 0.8882   -0.640439
 O 0.0434 0.2343 0.0216   -0.604557
 O 0.9249 0.4102 0.04743   -0.830447
