{'_ref': 'TBD', '_srcid': 'CAKYAQ_clean', 'submitters': [{'name': 'Dalar Nazarian Jeff Camp and David Sholl', 'email': 'dalar@gatech.edu jcamp6@gatech.edu'}], '_method': 'VASP DFT with PBE;DDEC'}
data_DyCuH25C49(N2O5)2
_symmetry_space_group_name_H-M   'P 1'
_cell_length_a   9.51680014
_cell_length_b   15.05349973
_cell_length_c   18.08060000
_cell_angle_alpha   92.62329980
_cell_angle_beta   103.71099769
_cell_angle_gamma   95.60650137
_symmetry_Int_Tables_number   1
_chemical_formula_structural   DyCuH25C49(N2O5)2
_chemical_formula_sum   'Dy2 Cu2 H50 C98 N8 O20'
_cell_volume   2498.02527553
_cell_formula_units_Z   2
loop_
 _symmetry_equiv_pos_site_id
 _symmetry_equiv_pos_as_xyz
  1  'x, y, z'
loop_
 _atom_site_label
 _atom_site_fract_x
 _atom_site_fract_y
 _atom_site_fract_z
 _atom_site_charge
 Dy 0.19744 0.44499 0.02973   2.265615
 Dy 0.80256 0.55501 0.97027   2.265615
 Cu 0.27757 0.97393 0.55123   0.767472
 Cu 0.72243 0.02607 0.44877   0.767472
 H 0.6785 0.2299 0.5761   0.142023
 H 0.5475 0.2208 0.4389   0.138825
 H 0.024 0.0604 0.2899   0.122114
 H 0.8737 0.9185 0.3082   0.144937
 H 0.9872 0.6694 0.5067   0.140917
 H 0.1271 0.6747 0.6399   0.13944
 H 0.414 0.9412 0.8362   0.145644
 H 0.5592 0.0833 0.821   0.148716
 H 0.2871 0.2815 0.392   0.111105
 H 0.2989 0.3694 0.2926   0.115385
 H 0.2908 0.149 0.1545   0.115577
 H 0.2902 0.0604 0.2571   0.096401
 H 0.9461 0.7446 0.2978   0.095925
 H 0.7741 0.6239 0.245   0.129895
 H 0.586 0.6509 0.4238   0.107639
 H 0.762 0.7712 0.4759   0.091271
 H 0.4689 0.4811 0.2064   0.418391
 H 0.3936 0.6977 0.7532   0.100364
 H 0.3262 0.597 0.8364   0.109227
 H 0.036 0.7622 0.8792   0.117742
 H 0.1142 0.864 0.7989   0.104168
 H 0.4968 0.2609 0.7421   0.099839
 H 0.6533 0.3622 0.8338   0.106871
 H 0.985 0.2202 0.8222   0.108794
 H 0.8339 0.1246 0.7261   0.091168
 H 0.3215 0.7701 0.4239   0.142023
 H 0.4525 0.7792 0.5611   0.138825
 H 0.976 0.9396 0.7101   0.122114
 H 0.1263 0.0815 0.6918   0.144937
 H 0.0128 0.3306 0.4933   0.140917
 H 0.8729 0.3253 0.3601   0.13944
 H 0.586 0.0588 0.1638   0.145643
 H 0.4408 0.9167 0.179   0.148716
 H 0.7129 0.7185 0.608   0.111106
 H 0.7011 0.6306 0.7074   0.115385
 H 0.7092 0.851 0.8455   0.115576
 H 0.7098 0.9396 0.7429   0.096401
 H 0.0539 0.2554 0.7022   0.095925
 H 0.2259 0.3761 0.755   0.129895
 H 0.414 0.3491 0.5762   0.107639
 H 0.238 0.2288 0.5241   0.091271
 H 0.5311 0.5189 0.7936   0.418391
 H 0.6064 0.3023 0.2468   0.100364
 H 0.6738 0.403 0.1636   0.109227
 H 0.964 0.2378 0.1208   0.117742
 H 0.8858 0.136 0.2011   0.104168
 H 0.5032 0.7391 0.2579   0.099839
 H 0.3467 0.6378 0.1662   0.106871
 H 0.015 0.7798 0.1778   0.108794
 H 0.1661 0.8754 0.2739   0.091168
 C 0.5149 0.1267 0.5888   0.199647
 C 0.5931 0.1913 0.5522   -0.145309
 C 0.5215 0.1866 0.4775   -0.170711
 C 0.3975 0.1192 0.4678   0.190397
 C 0.2887 0.1045 0.4014   -0.074815
 C 0.1703 0.0362 0.3947   0.206022
 C 0.0457 0.023 0.3311   -0.146562
 C 0.9626 0.9452 0.341   -0.183691
 C 0.0398 0.914 0.4115   0.19517
 C 0.000599999999999 0.8316 0.4373   -0.078487
 C 0.0748 0.8062 0.5082   0.212027
 C 0.0479 0.7194 0.5351   -0.160088
 C 0.1239 0.7223 0.6071   -0.143341
 C 0.2002 0.8102 0.6262   0.199054
 C 0.2708 0.8431 0.6993   -0.062368
 C 0.3479 0.9279 0.7152   0.197962
 C 0.4199 0.9657 0.7894   -0.15273
 C 0.4991 0.0433 0.7813   -0.153678
 C 0.4729 0.0526 0.6998   0.200666
 C 0.545 0.1197 0.6671   -0.061492
 C 0.2882 0.1605 0.3366   0.073259
 C 0.2897 0.2538 0.3441   -0.146733
 C 0.2948 0.3063 0.2847   -0.024963
 C 0.294 0.2683 0.213   -0.1078
 C 0.2915 0.1762 0.2031   -0.040196
 C 0.29 0.1232 0.2645   -0.145236
 C 0.2901 0.3257 0.1467   0.650036
 C 0.8785 0.7677 0.3948   0.067781
 C 0.8754 0.7246 0.3244   -0.123127
 C 0.7722 0.6535 0.2922   -0.034539
 C 0.6646 0.6256 0.3304   -0.147539
 C 0.6599 0.6691 0.3986   -0.035678
 C 0.7661 0.7403 0.4296   -0.13692
 C 0.5469 0.5479 0.2987   0.650842
 C 0.2514 0.7871 0.7624   0.070029
 C 0.3186 0.7098 0.7776   -0.154244
 C 0.2796 0.6498 0.827   -0.01453
 C 0.1695 0.669 0.8629   -0.131657
 C 0.1077 0.7484 0.8531   -0.027825
 C 0.1524 0.808 0.804   -0.162729
 C 0.1114 0.6018 0.9111   0.774665
 C 0.6523 0.1857 0.7209   0.066491
 C 0.5979 0.2547 0.7561   -0.153668
 C 0.6906 0.3142 0.8115   0.000523
 C 0.8391 0.3037 0.8347   -0.134954
 C 0.8865 0.2312 0.8039   -0.02743
 C 0.7962 0.1733 0.7472   -0.158782
 C 0.9381 0.3665 0.8975   0.762249
 C 0.4917 0.4561 0.9752   0.556027
 C 0.4851 0.8733 0.4112   0.199647
 C 0.4069 0.8087 0.4478   -0.145309
 C 0.4785 0.8134 0.5225   -0.170711
 C 0.6025 0.8808 0.5322   0.190397
 C 0.7113 0.8955 0.5986   -0.074815
 C 0.8297 0.9638 0.6053   0.206022
 C 0.9543 0.977 0.6689   -0.146562
 C 0.0374 0.0548 0.659   -0.183691
 C 0.9602 0.086 0.5885   0.19517
 C 0.9994 0.1684 0.5627   -0.078487
 C 0.9252 0.1938 0.4918   0.212028
 C 0.9521 0.2806 0.4649   -0.160088
 C 0.8761 0.2777 0.3929   -0.143341
 C 0.7998 0.1898 0.3738   0.199054
 C 0.7292 0.1569 0.3007   -0.062368
 C 0.6521 0.0721 0.2848   0.197962
 C 0.5801 0.0343 0.2106   -0.15273
 C 0.5009 0.9567 0.2187   -0.153678
 C 0.5271 0.9474 0.3002   0.200665
 C 0.455 0.8803 0.3329   -0.061492
 C 0.7118 0.8395 0.6634   0.073259
 C 0.7103 0.7462 0.6559   -0.146732
 C 0.7052 0.6937 0.7153   -0.024963
 C 0.706 0.7317 0.787   -0.1078
 C 0.7085 0.8238 0.7969   -0.040195
 C 0.71 0.8768 0.7355   -0.145236
 C 0.7099 0.6743 0.8533   0.650036
 C 0.1215 0.2323 0.6052   0.067781
 C 0.1246 0.2754 0.6756   -0.123127
 C 0.2278 0.3465 0.7078   -0.034539
 C 0.3354 0.3744 0.6696   -0.147539
 C 0.3401 0.3309 0.6014   -0.035678
 C 0.2339 0.2597 0.5704   -0.13692
 C 0.4531 0.4521 0.7013   0.650842
 C 0.7486 0.2129 0.2376   0.070029
 C 0.6814 0.2902 0.2224   -0.154244
 C 0.7204 0.3502 0.173   -0.01453
 C 0.8305 0.331 0.1371   -0.131657
 C 0.8923 0.2516 0.1469   -0.027824
 C 0.8476 0.192 0.196   -0.162729
 C 0.8886 0.3982 0.0889   0.774665
 C 0.3477 0.8143 0.2791   0.066491
 C 0.4021 0.7453 0.2439   -0.153668
 C 0.3094 0.6858 0.1885   0.000523
 C 0.1609 0.6963 0.1653   -0.134954
 C 0.1135 0.7688 0.1961   -0.02743
 C 0.2038 0.8267 0.2528   -0.158782
 C 0.0619 0.6335 0.1025   0.762249
 C 0.5083 0.5439 0.0248   0.55603
 N 0.3992 0.0799 0.536   -0.41793
 N 0.1601 0.9722 0.4454   -0.4097
 N 0.1737 0.8598 0.563   -0.416062
 N 0.3768 0.9833 0.6602   -0.418344
 N 0.6008 0.9201 0.464   -0.41793
 N 0.8399 0.0278 0.5546   -0.4097
 N 0.8263 0.1402 0.437   -0.416062
 N 0.6232 0.0167 0.3398   -0.418344
 O 0.2588 0.2903 0.0798   -0.591232
 O 0.3135 0.4105 0.159   -0.715552
 O 0.549 0.5177 0.2304   -0.515399
 O 0.4615 0.5208 0.3336   -0.521159
 O 0.1827 0.537 0.9298   -0.728713
 O 0.996 0.6178 0.928   -0.729575
 O 0.8885 0.4344 0.9193   -0.788863
 O 0.0651 0.3462 0.9258   -0.676506
 O 0.3867 0.3995 0.9766   -0.584516
 O 0.5863 0.4478 0.9381   -0.592944
 O 0.7412 0.7097 0.9202   -0.591232
 O 0.6865 0.5895 0.841   -0.715552
 O 0.451 0.4823 0.7696   -0.515398
 O 0.5385 0.4792 0.6664   -0.521159
 O 0.8173 0.463 0.0702   -0.728713
 O 0.004 0.3822 0.072   -0.729575
 O 0.1115 0.5656 0.0807   -0.788863
 O 0.9349 0.6538 0.0742   -0.676506
 O 0.6133 0.6005 0.0234   -0.584517
 O 0.4137 0.5522 0.0619   -0.592944
