{'_ref': 'TBD', '_srcid': 'CAKYAQ_clean', 'submitters': [{'name': 'Dalar Nazarian Jeff Camp and David Sholl', 'email': 'dalar@gatech.edu jcamp6@gatech.edu'}], '_method': 'VASP DFT with PBE;DDEC'}
data_La2C4NO12
_symmetry_space_group_name_H-M   'P 1'
_cell_length_a   6.56000000
_cell_length_b   11.41100000
_cell_length_c   18.92900000
_cell_angle_alpha   90.00000000
_cell_angle_beta   90.00000000
_cell_angle_gamma   90.00000000
_symmetry_Int_Tables_number   1
_chemical_formula_structural   La2C4NO12
_chemical_formula_sum   'La8 C16 N4 O48'
_cell_volume   1416.95225264
_cell_formula_units_Z   4
loop_
 _symmetry_equiv_pos_site_id
 _symmetry_equiv_pos_as_xyz
  1  'x, y, z'
loop_
 _atom_site_label
 _atom_site_fract_x
 _atom_site_fract_y
 _atom_site_fract_z
 _atom_site_charge
 La 0.13752 0.0 0.75286   2.09445
 La 0.86248 0.0 0.24714   2.094451
 La 0.63752 0.5 0.74714   2.094451
 La 0.36248 0.5 0.25286   2.094451
 La 0.24753 0.5 0.91935   2.007982
 La 0.75247 0.5 0.08065   2.007982
 La 0.74753 0.0 0.58065   2.007982
 La 0.25247 0.0 0.41935   2.007982
 C 0.2568 0.7223 0.79409   0.590666
 C 0.1454 0.7702 0.8603   0.545563
 C 0.7432 0.7223 0.20591   0.590666
 C 0.8546 0.7702 0.1397   0.545563
 C 0.7568 0.7777 0.70591   0.590666
 C 0.6454 0.7298 0.6397   0.545563
 C 0.2432 0.7777 0.29409   0.590666
 C 0.3546 0.7298 0.3603   0.545563
 C 0.7432 0.2777 0.20591   0.590666
 C 0.8546 0.2298 0.1397   0.545563
 C 0.2568 0.2777 0.79409   0.590666
 C 0.1454 0.2298 0.8603   0.545563
 C 0.2432 0.2223 0.29409   0.590666
 C 0.3546 0.2702 0.3603   0.545563
 C 0.7568 0.2223 0.70591   0.590666
 C 0.6454 0.2702 0.6397   0.545563
 N 0.2952 0.0 0.6077   0.829668
 N 0.7048 0.0 0.3923   0.829668
 N 0.7952 0.5 0.8923   0.829668
 N 0.2048 0.5 0.1077   0.829668
 O 0.2678 0.7887 0.74215   -0.6226
 O 0.3259 0.6199 0.79918   -0.69903
 O 0.073 0.8725 0.85572   -0.606132
 O 0.132 0.7064 0.91312   -0.578643
 O 0.7322 0.7887 0.25785   -0.6226
 O 0.6741 0.6199 0.20082   -0.69903
 O 0.927 0.8725 0.14428   -0.606132
 O 0.868 0.7064 0.08688   -0.578643
 O 0.7678 0.7113 0.75785   -0.6226
 O 0.8259 0.8801 0.70082   -0.69903
 O 0.573 0.6275 0.64428   -0.606132
 O 0.632 0.7936 0.58688   -0.578643
 O 0.2322 0.7113 0.24215   -0.6226
 O 0.1741 0.8801 0.29918   -0.69903
 O 0.427 0.6275 0.35572   -0.606132
 O 0.368 0.7936 0.41312   -0.578643
 O 0.7322 0.2113 0.25785   -0.6226
 O 0.6741 0.3801 0.20082   -0.69903
 O 0.927 0.1275 0.14428   -0.606132
 O 0.868 0.2936 0.08688   -0.578643
 O 0.2678 0.2113 0.74215   -0.6226
 O 0.3259 0.3801 0.79918   -0.69903
 O 0.073 0.1275 0.85572   -0.606132
 O 0.132 0.2936 0.91312   -0.578643
 O 0.2322 0.2887 0.24215   -0.6226
 O 0.1741 0.1199 0.29918   -0.69903
 O 0.427 0.3725 0.35572   -0.606132
 O 0.368 0.2064 0.41312   -0.578643
 O 0.7678 0.2887 0.75785   -0.6226
 O 0.8259 0.1199 0.70082   -0.69903
 O 0.573 0.3725 0.64428   -0.606132
 O 0.632 0.2064 0.58688   -0.578643
 O 0.1039 0.0 0.6219   -0.57311
 O 0.4207 0.0 0.66014   -0.538291
 O 0.3628 0.0 0.54541   -0.504392
 O 0.8961 0.0 0.3781   -0.57311
 O 0.5793 0.0 0.33986   -0.538291
 O 0.6372 0.0 0.45459   -0.504392
 O 0.6039 0.5 0.8781   -0.57311
 O 0.9207 0.5 0.83986   -0.538291
 O 0.8628 0.5 0.95459   -0.504392
 O 0.3961 0.5 0.1219   -0.57311
 O 0.0793 0.5 0.16014   -0.538291
 O 0.1372 0.5 0.04541   -0.504392
 O 0.5 0.3631 0.0   -0.575957
 O 0.0 0.1369 0.5   -0.575957
 O 0.5 0.6369 0.0   -0.575957
 O 0.0 0.8631 0.5   -0.575957
