{'_ref': 'TBD', '_srcid': 'CAKYAQ_clean', 'submitters': [{'name': 'Dalar Nazarian Jeff Camp and David Sholl', 'email': 'dalar@gatech.edu jcamp6@gatech.edu'}], '_method': 'VASP DFT with PBE;DDEC'}
data_Ga2P2H13C4N3O8
_symmetry_space_group_name_H-M   'P 1'
_cell_length_a   13.46639998
_cell_length_b   14.44481390
_cell_length_c   14.44490031
_cell_angle_alpha   110.80228811
_cell_angle_beta   108.10500050
_cell_angle_gamma   108.10440614
_symmetry_Int_Tables_number   1
_chemical_formula_structural   Ga2P2H13C4N3O8
_chemical_formula_sum   'Ga12 P12 H78 C24 N18 O48'
_cell_volume   2198.39121404
_cell_formula_units_Z   6
loop_
 _symmetry_equiv_pos_site_id
 _symmetry_equiv_pos_as_xyz
  1  'x, y, z'
loop_
 _atom_site_label
 _atom_site_fract_x
 _atom_site_fract_y
 _atom_site_fract_z
 _atom_site_charge
 Ga 0.5196 0.3732 0.5471   1.704056
 Ga 0.7357 0.5432 0.4074   1.466344
 Ga 0.9725 0.4529 0.8261   1.704276
 Ga 0.3283 0.5926 0.1358   1.465874
 Ga 0.1464 0.1739 0.6268   1.705097
 Ga 0.1925 0.8642 0.4568   1.466994
 Ga 0.4804 0.6268 0.4529   1.704056
 Ga 0.2643 0.4568 0.5926   1.466343
 Ga 0.0275 0.5471 0.1739   1.704276
 Ga 0.6717 0.4074 0.8642   1.465874
 Ga 0.8536 0.8261 0.3732   1.705097
 Ga 0.8075 0.1358 0.5432   1.466994
 P 0.463 0.3991 0.3457   1.798323
 P 0.3951 0.3335 0.6858   1.866036
 P 0.1173 0.6543 0.0534   1.801005
 P 0.7093 0.3142 0.6477   1.866521
 P 0.0639 0.9466 0.6009   1.803529
 P 0.0616 0.3523 0.6665   1.864892
 P 0.537 0.6009 0.6543   1.798323
 P 0.6049 0.6665 0.3142   1.866037
 P 0.8827 0.3457 0.9466   1.801006
 P 0.2907 0.6858 0.3523   1.866521
 P 0.9361 0.0534 0.3991   1.80353
 P 0.9384 0.6477 0.3335   1.864893
 H 0.7162 0.3911 0.2385   0.321619
 H 0.6055 0.3498 0.2372   0.32149
 H 0.7665 0.4586 0.5409   0.291341
 H 0.8619 0.75 0.5672   0.331564
 H 0.751 0.7014 0.5708   0.333618
 H 0.7305 0.2672 0.2832   0.089651
 H 0.6611 0.2914 0.3589   0.088221
 H 0.9549 0.5754 0.6689   0.08422
 H 0.9791 0.6255 0.5942   0.081286
 H 0.8667 0.3683 0.4818   0.113098
 H 0.9071 0.45 0.4274   0.06865
 H 0.9377 0.742 0.7129   0.098038
 H 0.8117 0.6417 0.677   0.093613
 H 0.4777 0.7615 0.1526   0.321258
 H 0.3683 0.7628 0.1126   0.321782
 H 0.2256 0.4591 0.9177   0.29145
 H 0.2947 0.4328 0.1828   0.330783
 H 0.1802 0.4292 0.1306   0.333728
 H 0.4473 0.7168 0.984   0.089443
 H 0.3022 0.6411 0.9325   0.08801
 H 0.286 0.3311 0.9065   0.08398
 H 0.3849 0.4058 0.0313   0.080498
 H 0.3849 0.5182 0.8865   0.113154
 H 0.4797 0.5726 0.0226   0.068558
 H 0.2248 0.2871 0.0291   0.097706
 H 0.1347 0.323 0.9647   0.093756
 H 0.3251 0.8474 0.6089   0.321284
 H 0.2557 0.8874 0.6502   0.322292
 H 0.3079 0.0823 0.5414   0.29142
 H 0.1119 0.8172 0.25   0.331699
 H 0.0496 0.8694 0.2986   0.333221
 H 0.4633 0.016 0.7328   0.089251
 H 0.3697 0.0675 0.7086   0.088436
 H 0.3795 0.0935 0.4246   0.083629
 H 0.3536 0.9687 0.3745   0.080967
 H 0.4984 0.1135 0.6317   0.113485
 H 0.4571 0.9774 0.55   0.068958
 H 0.1957 0.9709 0.258   0.097379
 H 0.17 0.0353 0.3583   0.09368
 H 0.2838 0.6089 0.7615   0.321616
 H 0.3945 0.6502 0.7628   0.32149
 H 0.2335 0.5414 0.4591   0.291341
 H 0.1381 0.25 0.4328   0.331563
 H 0.249 0.2986 0.4292   0.333618
 H 0.2695 0.7328 0.7168   0.089648
 H 0.3389 0.7086 0.6411   0.088218
 H 0.0451 0.4246 0.3311   0.084219
 H 0.0209 0.3745 0.4058   0.081286
 H 0.1333 0.6317 0.5182   0.113099
 H 0.0929 0.55 0.5726   0.068649
 H 0.0623 0.258 0.2871   0.098035
 H 0.1883 0.3583 0.323   0.093613
 H 0.5223 0.2385 0.8474   0.321255
 H 0.6317 0.2372 0.8874   0.321782
 H 0.7744 0.5409 0.0823   0.29145
 H 0.7053 0.5672 0.8172   0.330783
 H 0.8198 0.5708 0.8694   0.333727
 H 0.5527 0.2832 0.016   0.08944
 H 0.6978 0.3589 0.0675   0.088007
 H 0.714 0.6689 0.0935   0.083979
 H 0.6151 0.5942 0.9687   0.080498
 H 0.6151 0.4818 0.1135   0.113155
 H 0.5203 0.4274 0.9774   0.068557
 H 0.7752 0.7129 0.9709   0.097703
 H 0.8653 0.677 0.0353   0.093755
 H 0.6749 0.1526 0.3911   0.32128
 H 0.7443 0.1126 0.3498   0.322291
 H 0.6921 0.9177 0.4586   0.29142
 H 0.8881 0.1828 0.75   0.331699
 H 0.9504 0.1306 0.7014   0.333221
 H 0.5367 0.984 0.2672   0.089248
 H 0.6303 0.9325 0.2914   0.088433
 H 0.6205 0.9065 0.5754   0.083629
 H 0.6464 0.0313 0.6255   0.080968
 H 0.5016 0.8865 0.3683   0.113485
 H 0.5429 0.0226 0.45   0.068957
 H 0.8043 0.0291 0.742   0.097376
 H 0.83 0.9647 0.6417   0.093679
 C 0.7219 0.3234 0.3335   0.041467
 C 0.8357 0.4032 0.4427   -0.036698
 C 0.9181 0.593 0.6129   -0.006087
 C 0.8731 0.6735 0.6539   0.049878
 C 0.3884 0.6665 0.9899   0.041912
 C 0.393 0.5573 0.9605   -0.037068
 C 0.3052 0.3871 0.9801   -0.004949
 C 0.2192 0.3461 0.0196   0.049702
 C 0.3985 0.0101 0.6766   0.042367
 C 0.4325 0.0395 0.5968   -0.038379
 C 0.3251 0.0199 0.407   -0.005068
 C 0.1996 0.9804 0.3265   0.05028
 C 0.2781 0.6766 0.6665   0.041468
 C 0.1643 0.5968 0.5573   -0.036698
 C 0.0819 0.407 0.3871   -0.006087
 C 0.1269 0.3265 0.3461   0.049879
 C 0.6116 0.3335 0.0101   0.041913
 C 0.607 0.4427 0.0395   -0.037068
 C 0.6948 0.6129 0.0199   -0.004949
 C 0.7808 0.6539 0.9804   0.049703
 C 0.6015 0.9899 0.3234   0.042368
 C 0.5675 0.9605 0.4032   -0.038379
 C 0.6749 0.9801 0.593   -0.005068
 C 0.8004 0.0196 0.6735   0.050281
 N 0.6867 0.387 0.2807   -0.639989
 N 0.8171 0.492 0.5111   -0.427332
 N 0.8088 0.687 0.5597   -0.657348
 N 0.406 0.7193 0.1063   -0.639891
 N 0.306 0.4889 0.9809   -0.427078
 N 0.2491 0.4403 0.1273   -0.656393
 N 0.2997 0.8937 0.613   -0.640786
 N 0.3251 0.0191 0.508   -0.426713
 N 0.1218 0.8727 0.313   -0.657498
 N 0.3133 0.613 0.7193   -0.639988
 N 0.1829 0.508 0.4889   -0.427332
 N 0.1912 0.313 0.4403   -0.657348
 N 0.594 0.2807 0.8937   -0.63989
 N 0.694 0.5111 0.0191   -0.427078
 N 0.7509 0.5597 0.8727   -0.656393
 N 0.7003 0.1063 0.387   -0.640784
 N 0.6749 0.9809 0.492   -0.426712
 N 0.8782 0.1273 0.687   -0.657498
 O 0.5963 0.4768 0.4234   -1.010534
 O 0.4226 0.332 0.4032   -0.909738
 O 0.4022 0.4761 0.3497   -0.940492
 O 0.4287 0.322 0.2275   -0.89555
 O 0.413 0.2949 0.5804   -0.933485
 O 0.3059 0.2244 0.6725   -0.927846
 O 0.5096 0.3914 0.7929   -0.919133
 O 0.3387 0.4103 0.6888   -0.938293
 O 0.1729 0.5766 0.0534   -1.011406
 O 0.0194 0.5968 0.9288   -0.911544
 O 0.0525 0.6503 0.1264   -0.940796
 O 0.2012 0.7725 0.0945   -0.895738
 O 0.8326 0.4196 0.7145   -0.934056
 O 0.6334 0.3275 0.5519   -0.928427
 O 0.7167 0.2071 0.5985   -0.919025
 O 0.6499 0.3112 0.7215   -0.937245
 O 0.1195 0.9466 0.5232   -1.013048
 O 0.0906 0.0712 0.668   -0.911879
 O 0.9261 0.8736 0.5239   -0.941341
 O 0.1067 0.9055 0.678   -0.896775
 O 0.1181 0.2855 0.7051   -0.932923
 O 0.0815 0.4481 0.7756   -0.927984
 O 0.1182 0.4015 0.6086   -0.918712
 O 0.9284 0.2785 0.5897   -0.937504
 O 0.4037 0.5232 0.5766   -1.010534
 O 0.5774 0.668 0.5968   -0.909738
 O 0.5978 0.5239 0.6503   -0.940492
 O 0.5713 0.678 0.7725   -0.89555
 O 0.587 0.7051 0.4196   -0.933486
 O 0.6941 0.7756 0.3275   -0.927846
 O 0.4904 0.6086 0.2071   -0.919133
 O 0.6613 0.5897 0.3112   -0.938293
 O 0.8271 0.4234 0.9466   -1.011406
 O 0.9806 0.4032 0.0712   -0.911544
 O 0.9475 0.3497 0.8736   -0.940796
 O 0.7988 0.2275 0.9055   -0.895738
 O 0.1674 0.5804 0.2855   -0.934056
 O 0.3666 0.6725 0.4481   -0.928428
 O 0.2833 0.7929 0.4015   -0.919025
 O 0.3501 0.6888 0.2785   -0.937245
 O 0.8805 0.0534 0.4768   -1.013049
 O 0.9094 0.9288 0.332   -0.911879
 O 0.0739 0.1264 0.4761   -0.941341
 O 0.8933 0.0945 0.322   -0.896775
 O 0.8819 0.7145 0.2949   -0.932923
 O 0.9185 0.5519 0.2244   -0.927984
 O 0.8818 0.5985 0.3914   -0.918712
 O 0.0716 0.7215 0.4103   -0.937504
