{'_ref': 'TBD', '_srcid': 'CAKYAQ_clean', 'submitters': [{'name': 'Dalar Nazarian Jeff Camp and David Sholl', 'email': 'dalar@gatech.edu jcamp6@gatech.edu'}], '_method': 'VASP DFT with PBE;DDEC'}
data_CrH5C8O5
_symmetry_space_group_name_H-M   'P 1'
_cell_length_a   6.78200000
_cell_length_b   7.84900000
_cell_length_c   10.59606141
_cell_angle_alpha   111.73865180
_cell_angle_beta   103.81845772
_cell_angle_gamma   90.00000000
_symmetry_Int_Tables_number   1
_chemical_formula_structural   CrH5C8O5
_chemical_formula_sum   'Cr2 H10 C16 O10'
_cell_volume   506.318422276
_cell_formula_units_Z   2
loop_
 _symmetry_equiv_pos_site_id
 _symmetry_equiv_pos_as_xyz
  1  'x, y, z'
loop_
 _atom_site_label
 _atom_site_fract_x
 _atom_site_fract_y
 _atom_site_fract_z
 _atom_site_charge
 Cr 0.0 0.0 0.0   1.761051
 Cr 0.5 0.0 0.0   1.760554
 H 0.25 0.25 0.0   0.443183
 H 0.75 0.75 0.0   0.443183
 H 0.29701 0.18384 0.68298   0.148502
 H 0.20299 0.50086 0.31702   0.148785
 H 0.70299 0.81616 0.31702   0.148502
 H 0.79701 0.49914 0.68298   0.148785
 H 0.13037 0.07142 0.41814   0.128672
 H 0.36963 0.65328 0.58186   0.128224
 H 0.86963 0.92858 0.58186   0.128672
 H 0.63037 0.34672 0.41814   0.128223
 C 0.17 0.699 0.778   0.728566
 C 0.33 0.921 0.222   0.727974
 C 0.83 0.301 0.222   0.728566
 C 0.67 0.079 0.778   0.727974
 C 0.382 0.098 0.604   -0.085298
 C 0.118 0.494 0.396   -0.08604
 C 0.618 0.902 0.396   -0.085298
 C 0.882 0.506 0.604   -0.08604
 C 0.296 0.049 0.458   -0.089888
 C 0.204 0.591 0.542   -0.087888
 C 0.704 0.951 0.542   -0.089888
 C 0.796 0.409 0.458   -0.087888
 C 0.579 0.026 0.632   -0.084758
 C 0.921 0.394 0.368   -0.086214
 C 0.421 0.974 0.368   -0.084758
 C 0.079 0.606 0.632   -0.086213
 O 0.25 0.113 0.0   -1.028655
 O 0.75 0.887 0.0   -1.028655
 O 0.055 0.766 0.864   -0.710337
 O 0.445 0.902 0.136   -0.710375
 O 0.945 0.234 0.136   -0.710337
 O 0.555 0.098 0.864   -0.710375
 O 0.348 0.772 0.826   -0.622675
 O 0.152 0.946 0.174   -0.622581
 O 0.652 0.228 0.174   -0.622675
 O 0.848 0.054 0.826   -0.622581
