{'_ref': 'TBD', '_srcid': 'CAKYAQ_clean', 'submitters': [{'name': 'Dalar Nazarian Jeff Camp and David Sholl', 'email': 'dalar@gatech.edu jcamp6@gatech.edu'}], '_method': 'VASP DFT with PBE;DDEC'}
data_VH4C8O5
_symmetry_space_group_name_H-M   'P 1'
_cell_length_a   6.81790000
_cell_length_b   13.93900000
_cell_length_c   16.14300000
_cell_angle_alpha   90.00000000
_cell_angle_beta   90.00000000
_cell_angle_gamma   90.00000000
_symmetry_Int_Tables_number   1
_chemical_formula_structural   VH4C8O5
_chemical_formula_sum   'V4 H16 C32 O20'
_cell_volume   1534.14529286
_cell_formula_units_Z   4
loop_
 _symmetry_equiv_pos_site_id
 _symmetry_equiv_pos_as_xyz
  1  'x, y, z'
loop_
 _atom_site_label
 _atom_site_fract_x
 _atom_site_fract_y
 _atom_site_fract_z
 _atom_site_charge
 V 0.2002 0.73916 0.25   2.010108
 V 0.2998 0.23916 0.75   2.010108
 V 0.7998 0.26084 0.75   2.01011
 V 0.7002 0.76084 0.25   2.01011
 H 0.2015 0.5425 0.0554   0.112874
 H 0.2985 0.0425 0.9446   0.112874
 H 0.7985 0.4575 0.5554   0.112874
 H 0.7015 0.9575 0.4446   0.112874
 H 0.7985 0.4575 0.9446   0.112874
 H 0.7015 0.9575 0.0554   0.112874
 H 0.2015 0.5425 0.4446   0.112874
 H 0.2985 0.0425 0.5554   0.112874
 H 0.783 0.5611 0.0548   0.109972
 H 0.717 0.0611 0.9452   0.109972
 H 0.217 0.4389 0.5548   0.109972
 H 0.283 0.9389 0.4452   0.109972
 H 0.217 0.4389 0.9452   0.109972
 H 0.283 0.9389 0.0548   0.109972
 H 0.783 0.5611 0.4452   0.109972
 H 0.717 0.0611 0.5548   0.109972
 C 0.3225 0.5261 0.0329   -0.060493
 C 0.1775 0.0261 0.9671   -0.060493
 C 0.6775 0.4739 0.5329   -0.060493
 C 0.8225 0.9739 0.4671   -0.060493
 C 0.6775 0.4739 0.9671   -0.060493
 C 0.8225 0.9739 0.0329   -0.060493
 C 0.3225 0.5261 0.4671   -0.060493
 C 0.1775 0.0261 0.5329   -0.060493
 C 0.6675 0.5369 0.0323   -0.051986
 C 0.8325 0.0369 0.9677   -0.051986
 C 0.3325 0.4631 0.5323   -0.051986
 C 0.1675 0.9631 0.4677   -0.051986
 C 0.3325 0.4631 0.9677   -0.051985
 C 0.1675 0.9631 0.0323   -0.051985
 C 0.6675 0.5369 0.4677   -0.051985
 C 0.8325 0.0369 0.5323   -0.051985
 C 0.4911 0.565 0.0649   -0.118369
 C 0.0089 0.065 0.9351   -0.118369
 C 0.5089 0.435 0.5649   -0.118369
 C 0.9911 0.935 0.4351   -0.118369
 C 0.5089 0.435 0.9351   -0.118369
 C 0.9911 0.935 0.0649   -0.118369
 C 0.4911 0.565 0.4351   -0.118369
 C 0.0089 0.065 0.5649   -0.118369
 C 0.4781 0.6333 0.1366   0.733757
 C 0.0219 0.1333 0.8634   0.733757
 C 0.5219 0.3667 0.6366   0.733757
 C 0.9781 0.8667 0.3634   0.733757
 C 0.5219 0.3667 0.8634   0.733757
 C 0.9781 0.8667 0.1366   0.733757
 C 0.4781 0.6333 0.3634   0.733757
 C 0.0219 0.1333 0.6366   0.733757
 O 0.9751 0.6916 0.25   -0.833177
 O 0.5249 0.1916 0.75   -0.833177
 O 0.0249 0.3084 0.75   -0.833177
 O 0.4751 0.8084 0.25   -0.833177
 O 0.3118 0.6555 0.1632   -0.658984
 O 0.1882 0.1555 0.8368   -0.658984
 O 0.6882 0.3445 0.6632   -0.658984
 O 0.8118 0.8445 0.3368   -0.658984
 O 0.6882 0.3445 0.8368   -0.658984
 O 0.8118 0.8445 0.1632   -0.658984
 O 0.3118 0.6555 0.3368   -0.658984
 O 0.1882 0.1555 0.6632   -0.658984
 O 0.1415 0.8335 0.1626   -0.655237
 O 0.3585 0.3335 0.8374   -0.655237
 O 0.8585 0.1665 0.6626   -0.655237
 O 0.6415 0.6665 0.3374   -0.655237
 O 0.8585 0.1665 0.8374   -0.655237
 O 0.6415 0.6665 0.1626   -0.655237
 O 0.1415 0.8335 0.3374   -0.655237
 O 0.3585 0.3335 0.6626   -0.655237
