{'_ref': 'TBD', '_srcid': 'CAKYAQ_clean', 'submitters': [{'name': 'Dalar Nazarian Jeff Camp and David Sholl', 'email': 'dalar@gatech.edu jcamp6@gatech.edu'}], '_method': 'VASP DFT with PBE;DDEC'}
data_Fe3H18(C9O4)4
_symmetry_space_group_name_H-M   'P 1'
_cell_length_a   18.74250000
_cell_length_b   18.75290000
_cell_length_c   18.75290018
_cell_angle_alpha   119.99999969
_cell_angle_beta   90.00000000
_cell_angle_gamma   90.00000000
_symmetry_Int_Tables_number   1
_chemical_formula_structural   Fe3H18(C9O4)4
_chemical_formula_sum   'Fe6 H36 C72 O32'
_cell_volume   5708.14546718
_cell_formula_units_Z   2
loop_
 _symmetry_equiv_pos_site_id
 _symmetry_equiv_pos_as_xyz
  1  'x, y, z'
loop_
 _atom_site_label
 _atom_site_fract_x
 _atom_site_fract_y
 _atom_site_fract_z
 _atom_site_charge
 Fe 0.25 0.727148 0.273157   1.185418
 Fe 0.25 0.726843 0.453991   1.185404
 Fe 0.25 0.546009 0.272852   1.185404
 Fe 0.75 0.273157 0.727148   1.185433
 Fe 0.75 0.453991 0.726843   1.185408
 Fe 0.75 0.272852 0.546009   1.185414
 H 0.809434 0.494573 0.988544   0.101413
 H 0.809434 0.011456 0.506029   0.101413
 H 0.809434 0.493971 0.505427   0.101411
 H 0.690566 0.494573 0.988544   0.101411
 H 0.690566 0.011456 0.506029   0.101411
 H 0.690566 0.493971 0.505427   0.101409
 H 0.190566 0.988544 0.494573   0.101413
 H 0.190566 0.506029 0.011456   0.101411
 H 0.190566 0.505427 0.493971   0.101413
 H 0.309434 0.988544 0.494573   0.101411
 H 0.309434 0.506029 0.011456   0.101409
 H 0.309434 0.505427 0.493971   0.101411
 H 0.886878 0.555133 0.109767   0.115511
 H 0.886878 0.890233 0.445366   0.11551
 H 0.886878 0.554634 0.444867   0.115496
 H 0.613122 0.555133 0.109767   0.11551
 H 0.613122 0.890233 0.445366   0.115509
 H 0.613122 0.554634 0.444867   0.115495
 H 0.113122 0.109767 0.555133   0.11551
 H 0.113122 0.445366 0.890233   0.115517
 H 0.113122 0.444867 0.554634   0.11551
 H 0.386878 0.109767 0.555133   0.115509
 H 0.386878 0.445366 0.890233   0.115516
 H 0.386878 0.444867 0.554634   0.115509
 H 0.991971 0.414499 0.828474   0.118141
 H 0.991971 0.171526 0.586025   0.118144
 H 0.991971 0.413975 0.585501   0.118146
 H 0.508029 0.414499 0.828474   0.118141
 H 0.508029 0.171526 0.586025   0.118144
 H 0.508029 0.413975 0.585501   0.118146
 H 0.008029 0.828474 0.414499   0.118142
 H 0.008029 0.586025 0.171526   0.118144
 H 0.008029 0.585501 0.413975   0.118146
 H 0.491971 0.828474 0.414499   0.118142
 H 0.491971 0.586025 0.171526   0.118144
 H 0.491971 0.585501 0.413975   0.118146
 C 0.155303 0.58613 0.171888   0.669744
 C 0.155303 0.828112 0.414242   0.669744
 C 0.155303 0.585758 0.41387   0.669744
 C 0.344697 0.58613 0.171888   0.669744
 C 0.344697 0.828112 0.414242   0.669744
 C 0.344697 0.585758 0.41387   0.669743
 C 0.844697 0.171888 0.58613   0.669745
 C 0.844697 0.414243 0.828112   0.669746
 C 0.844697 0.41387 0.585757   0.66977
 C 0.655303 0.171888 0.58613   0.669745
 C 0.655303 0.414243 0.828112   0.669746
 C 0.655303 0.41387 0.585757   0.66977
 C 0.894727 0.450045 0.899538   -0.043326
 C 0.894727 0.100462 0.550507   -0.043317
 C 0.894727 0.449493 0.549955   -0.043298
 C 0.605273 0.450045 0.899538   -0.043326
 C 0.605273 0.100462 0.550507   -0.043317
 C 0.605273 0.449493 0.549955   -0.043298
 C 0.105273 0.899538 0.450045   -0.043316
 C 0.105273 0.550507 0.100462   -0.043317
 C 0.105273 0.549955 0.449493   -0.043313
 C 0.394727 0.899538 0.450045   -0.043316
 C 0.394727 0.550507 0.100462   -0.043318
 C 0.394727 0.549955 0.449493   -0.043313
 C 0.866419 0.490107 0.979616   -0.078153
 C 0.866419 0.020384 0.510491   -0.078157
 C 0.866419 0.489509 0.509893   -0.078145
 C 0.633581 0.490107 0.979616   -0.078153
 C 0.633581 0.020384 0.510491   -0.078156
 C 0.633581 0.489509 0.509893   -0.078145
 C 0.133581 0.979616 0.490107   -0.078157
 C 0.133581 0.510491 0.020384   -0.078155
 C 0.133581 0.509893 0.489509   -0.078158
 C 0.366419 0.979616 0.490107   -0.078157
 C 0.366419 0.510491 0.020384   -0.078154
 C 0.366419 0.509893 0.489509   -0.078158
 C 0.910846 0.524826 0.049048   -0.13806
 C 0.910846 0.950952 0.475778   -0.138058
 C 0.910846 0.524221 0.475174   -0.138051
 C 0.589154 0.524826 0.049048   -0.13806
 C 0.589154 0.950952 0.475778   -0.138058
 C 0.589154 0.524221 0.475174   -0.138051
 C 0.089154 0.049048 0.524826   -0.138057
 C 0.089154 0.475779 0.950952   -0.138054
 C 0.089154 0.475174 0.524222   -0.138057
 C 0.410846 0.049048 0.524826   -0.138057
 C 0.410846 0.475779 0.950952   -0.138054
 C 0.410846 0.475174 0.524222   -0.138057
 C 0.985255 0.520424 0.040188   0.084769
 C 0.985255 0.959812 0.480236   0.084766
 C 0.985255 0.519764 0.479576   0.084765
 C 0.514745 0.520424 0.040188   0.084769
 C 0.514745 0.959812 0.480236   0.084766
 C 0.514745 0.519764 0.479576   0.084764
 C 0.014745 0.040188 0.520424   0.084759
 C 0.014745 0.480236 0.959812   0.084745
 C 0.014745 0.479576 0.519764   0.084761
 C 0.485255 0.040188 0.520424   0.084759
 C 0.485255 0.480236 0.959812   0.084745
 C 0.485255 0.479576 0.519764   0.084761
 C 0.969383 0.445261 0.889916   -0.137876
 C 0.969383 0.110084 0.555345   -0.137882
 C 0.969383 0.444655 0.554739   -0.137888
 C 0.530617 0.445261 0.889916   -0.137876
 C 0.530617 0.110084 0.555345   -0.137882
 C 0.530617 0.444655 0.554739   -0.137888
 C 0.030617 0.889916 0.445261   -0.137883
 C 0.030617 0.555345 0.110084   -0.137884
 C 0.030617 0.554739 0.444655   -0.137888
 C 0.469383 0.889916 0.445261   -0.137883
 C 0.469383 0.555345 0.110084   -0.137884
 C 0.469383 0.554739 0.444655   -0.137888
 O 0.25 0.666667 0.333333   -0.831302
 O 0.75 0.333333 0.666667   -0.831307
 O 0.177678 0.539865 0.19868   -0.488459
 O 0.177678 0.80132 0.341185   -0.48846
 O 0.177678 0.658815 0.460135   -0.48846
 O 0.322322 0.539865 0.19868   -0.488459
 O 0.322322 0.80132 0.341185   -0.48846
 O 0.322322 0.658815 0.460135   -0.48846
 O 0.822322 0.19868 0.539865   -0.48846
 O 0.822322 0.341185 0.80132   -0.488485
 O 0.822322 0.460135 0.658815   -0.488476
 O 0.677678 0.19868 0.539865   -0.48846
 O 0.677678 0.341185 0.80132   -0.488485
 O 0.677678 0.460135 0.658815   -0.488476
 O 0.25 0.785466 0.571474   -0.337161
 O 0.25 0.428526 0.213992   -0.337161
 O 0.25 0.786008 0.214534   -0.337163
 O 0.75 0.571474 0.785466   -0.337162
 O 0.75 0.213992 0.428526   -0.337162
 O 0.75 0.214534 0.786008   -0.337164
 O 0.17766 0.659239 0.198913   -0.489272
 O 0.17766 0.801087 0.460326   -0.489271
 O 0.17766 0.539674 0.340761   -0.489272
 O 0.32234 0.659239 0.198913   -0.489272
 O 0.32234 0.801087 0.460326   -0.489271
 O 0.32234 0.539674 0.340761   -0.489272
 O 0.82234 0.198913 0.659239   -0.489274
 O 0.82234 0.460326 0.801087   -0.489247
 O 0.82234 0.340761 0.539674   -0.489302
 O 0.67766 0.198913 0.659239   -0.489274
 O 0.67766 0.460326 0.801087   -0.489247
 O 0.67766 0.340761 0.539674   -0.489302
