{'_ref': 'TBD', '_srcid': 'CAKYAQ_clean', 'submitters': [{'name': 'Dalar Nazarian Jeff Camp and David Sholl', 'email': 'dalar@gatech.edu jcamp6@gatech.edu'}], '_method': 'VASP DFT with PBE;DDEC'}
data_Cr3H12(C3O2)8
_symmetry_space_group_name_H-M   'P 1'
_cell_length_a   9.60000000
_cell_length_b   9.60000011
_cell_length_c   19.10000000
_cell_angle_alpha   90.00000000
_cell_angle_beta   90.00000000
_cell_angle_gamma   119.99999963
_symmetry_Int_Tables_number   1
_chemical_formula_structural   Cr3H12(C3O2)8
_chemical_formula_sum   'Cr6 H24 C48 O32'
_cell_volume   1524.42643584
_cell_formula_units_Z   2
loop_
 _symmetry_equiv_pos_site_id
 _symmetry_equiv_pos_as_xyz
  1  'x, y, z'
loop_
 _atom_site_label
 _atom_site_fract_x
 _atom_site_fract_y
 _atom_site_fract_z
 _atom_site_charge
 Cr 0.1563 0.711 0.75   1.703837
 Cr 0.289 0.4453 0.75   1.70363
 Cr 0.5547 0.8437 0.75   1.703369
 Cr 0.711 0.1563 0.25   1.703837
 Cr 0.4453 0.289 0.25   1.70363
 Cr 0.8437 0.5547 0.25   1.703369
 H 0.3735 0.3562 0.438   0.114767
 H 0.6438 0.0173 0.438   0.114794
 H 0.9827 0.6265 0.438   0.114772
 H 0.3735 0.3562 0.062   0.114767
 H 0.6438 0.0173 0.062   0.114794
 H 0.9827 0.6265 0.062   0.114772
 H 0.3562 0.3735 0.562   0.114766
 H 0.0173 0.6438 0.562   0.114793
 H 0.6265 0.9827 0.562   0.114771
 H 0.3562 0.3735 0.938   0.114766
 H 0.0173 0.6438 0.938   0.114793
 H 0.6265 0.9827 0.938   0.114771
 H 0.826 0.8031 0.4362   0.122646
 H 0.1969 0.0229 0.4362   0.122644
 H 0.9771 0.174 0.4362   0.122671
 H 0.826 0.8031 0.0638   0.122646
 H 0.1969 0.0229 0.0638   0.122644
 H 0.9771 0.174 0.0638   0.122671
 H 0.8031 0.826 0.5638   0.122647
 H 0.0229 0.1969 0.5638   0.122644
 H 0.174 0.9771 0.5638   0.122671
 H 0.8031 0.826 0.9362   0.122647
 H 0.0229 0.1969 0.9362   0.122644
 H 0.174 0.9771 0.9362   0.122671
 C 0.0688 0.4533 0.6481   0.721481
 C 0.5467 0.6155 0.6481   0.721495
 C 0.3845 0.9312 0.6481   0.721451
 C 0.0688 0.4533 0.8519   0.721481
 C 0.5467 0.6155 0.8519   0.721495
 C 0.3845 0.9312 0.8519   0.721451
 C 0.4533 0.0688 0.3519   0.72148
 C 0.6155 0.5467 0.3519   0.721495
 C 0.9312 0.3845 0.3519   0.72145
 C 0.4533 0.0688 0.1481   0.72148
 C 0.6155 0.5467 0.1481   0.721495
 C 0.9312 0.3845 0.1481   0.72145
 C 0.5996 0.5802 0.4263   -0.080305
 C 0.4198 0.0194 0.4263   -0.080299
 C 0.9806 0.4004 0.4263   -0.080278
 C 0.5996 0.5802 0.0737   -0.080305
 C 0.4198 0.0194 0.0737   -0.080299
 C 0.9806 0.4004 0.0737   -0.080278
 C 0.5802 0.5996 0.5737   -0.080308
 C 0.0194 0.4198 0.5737   -0.080302
 C 0.4004 0.9806 0.5737   -0.080281
 C 0.5802 0.5996 0.9263   -0.080308
 C 0.0194 0.4198 0.9263   -0.080302
 C 0.4004 0.9806 0.9263   -0.080281
 C 0.4687 0.4607 0.4639   -0.071879
 C 0.5393 0.008 0.4639   -0.071874
 C 0.992 0.5313 0.4639   -0.071883
 C 0.4687 0.4607 0.0361   -0.071879
 C 0.5393 0.008 0.0361   -0.071874
 C 0.992 0.5313 0.0361   -0.071883
 C 0.4607 0.4687 0.5361   -0.071866
 C 0.008 0.5393 0.5361   -0.071863
 C 0.5313 0.992 0.5361   -0.071871
 C 0.4607 0.4687 0.9639   -0.071866
 C 0.008 0.5393 0.9639   -0.071863
 C 0.5313 0.992 0.9639   -0.071871
 C 0.7221 0.7109 0.4634   -0.080168
 C 0.2891 0.0112 0.4634   -0.080158
 C 0.9888 0.2779 0.4634   -0.080185
 C 0.7221 0.7109 0.0366   -0.080168
 C 0.2891 0.0112 0.0366   -0.080158
 C 0.9888 0.2779 0.0366   -0.080185
 C 0.7109 0.7221 0.5366   -0.080162
 C 0.0112 0.2891 0.5366   -0.080154
 C 0.2779 0.9888 0.5366   -0.08018
 C 0.7109 0.7221 0.9634   -0.080162
 C 0.0112 0.2891 0.9634   -0.080154
 C 0.2779 0.9888 0.9634   -0.08018
 O 0.1376 0.3848 0.6767   -0.596436
 O 0.6152 0.7528 0.6767   -0.596335
 O 0.2472 0.8624 0.6767   -0.596333
 O 0.1376 0.3848 0.8233   -0.596436
 O 0.6152 0.7528 0.8233   -0.596335
 O 0.2472 0.8624 0.8233   -0.596333
 O 0.3848 0.1376 0.3233   -0.596436
 O 0.7528 0.6152 0.3233   -0.596335
 O 0.8624 0.2472 0.3233   -0.596333
 O 0.3848 0.1376 0.1767   -0.596436
 O 0.7528 0.6152 0.1767   -0.596335
 O 0.8624 0.2472 0.1767   -0.596333
 O 0.0535 0.5629 0.8224   -0.603678
 O 0.4371 0.4906 0.8224   -0.60379
 O 0.5094 0.9465 0.8224   -0.603701
 O 0.0535 0.5629 0.6776   -0.603678
 O 0.4371 0.4906 0.6776   -0.60379
 O 0.5094 0.9465 0.6776   -0.603701
 O 0.5629 0.0535 0.1776   -0.603678
 O 0.4906 0.4371 0.1776   -0.60379
 O 0.9465 0.5094 0.1776   -0.603701
 O 0.5629 0.0535 0.3224   -0.603678
 O 0.4906 0.4371 0.3224   -0.60379
 O 0.9465 0.5094 0.3224   -0.603701
 O 0.7753 0.0182 0.75   -0.389691
 O 0.9818 0.7571 0.75   -0.390466
 O 0.2429 0.2247 0.75   -0.389841
 O 0.0182 0.7753 0.25   -0.389691
 O 0.7571 0.9818 0.25   -0.390466
 O 0.2247 0.2429 0.25   -0.389841
 O 0.3333 0.6667 0.75   -1.099712
 O 0.6667 0.3333 0.25   -1.099712
