{'_ref': 'TBD', '_srcid': 'CAKYAQ_clean', 'submitters': [{'name': 'Dalar Nazarian Jeff Camp and David Sholl', 'email': 'dalar@gatech.edu jcamp6@gatech.edu'}], '_method': 'VASP DFT with PBE;DDEC'}
data_BaH4C2(N5O)2
_symmetry_space_group_name_H-M   'P 1'
_cell_length_a   8.58860053
_cell_length_b   9.40860009
_cell_length_c   9.42820000
_cell_angle_alpha   119.93099942
_cell_angle_beta   116.51400177
_cell_angle_gamma   90.00000021
_symmetry_Int_Tables_number   1
_chemical_formula_structural   BaH4C2(N5O)2
_chemical_formula_sum   'Ba2 H8 C4 N20 O4'
_cell_volume   565.912322669
_cell_formula_units_Z   2
loop_
 _symmetry_equiv_pos_site_id
 _symmetry_equiv_pos_as_xyz
  1  'x, y, z'
loop_
 _atom_site_label
 _atom_site_fract_x
 _atom_site_fract_y
 _atom_site_fract_z
 _atom_site_charge
 Ba 0.75 0.9192 0.0   1.3667
 Ba 0.25 0.0808 0.0   1.366698
 H 0.425 0.783 0.024   0.453859
 H 0.348 0.7107 0.8394   0.387505
 H 0.075 0.759 0.976   0.453855
 H 0.152 0.8713 0.1606   0.387499
 H 0.575 0.217 0.976   0.453859
 H 0.652 0.2893 0.1606   0.387505
 H 0.925 0.241 0.024   0.453855
 H 0.848 0.1287 0.8394   0.387499
 C 0.3136 0.4232 0.4996   0.477937
 C 0.1864 0.9236 0.5004   0.477951
 C 0.6864 0.5768 0.5004   0.47793
 C 0.8136 0.0764 0.4996   0.477945
 N 0.4803 0.5262 0.5636   -0.206021
 N 0.2432 0.4751 0.6108   -0.348875
 N 0.0898 0.3511 0.5116   -0.080896
 N 0.0704 0.2312 0.3478   -0.094494
 N 0.2113 0.2732 0.3354   -0.420586
 N 0.0197 0.9626 0.4364   -0.206024
 N 0.2568 0.8643 0.3892   -0.348868
 N 0.4102 0.8395 0.4884   -0.080917
 N 0.4296 0.8834 0.6522   -0.09448
 N 0.2887 0.9378 0.6646   -0.420604
 N 0.5197 0.4738 0.4364   -0.205961
 N 0.7568 0.5249 0.3892   -0.348876
 N 0.9102 0.6489 0.4884   -0.080895
 N 0.9296 0.7688 0.6522   -0.094497
 N 0.7887 0.7268 0.6646   -0.420584
 N 0.9803 0.0374 0.5636   -0.205964
 N 0.7432 0.1357 0.6108   -0.348869
 N 0.5898 0.1605 0.5116   -0.080916
 N 0.5704 0.1166 0.3478   -0.094483
 N 0.7113 0.0622 0.3354   -0.420602
 O 0.4055 0.8047 0.9436   -0.851798
 O 0.0945 0.8611 0.0564   -0.851795
 O 0.5945 0.1953 0.0564   -0.851799
 O 0.9055 0.1389 0.9436   -0.851796
