{'_ref': 'TBD', '_srcid': 'CAKYAQ_clean', 'submitters': [{'name': 'Dalar Nazarian Jeff Camp and David Sholl', 'email': 'dalar@gatech.edu jcamp6@gatech.edu'}], '_method': 'VASP DFT with PBE;DDEC'}
data_Yb2H2(C5O4)3
_symmetry_space_group_name_H-M   'P 1'
_cell_length_a   5.72519978
_cell_length_b   13.63370039
_cell_length_c   13.63370000
_cell_angle_alpha   80.49620181
_cell_angle_beta   88.22640171
_cell_angle_gamma   88.22639930
_symmetry_Int_Tables_number   1
_chemical_formula_structural   Yb2H2(C5O4)3
_chemical_formula_sum   'Yb4 H4 C30 O24'
_cell_volume   1048.71781096
_cell_formula_units_Z   2
loop_
 _symmetry_equiv_pos_site_id
 _symmetry_equiv_pos_as_xyz
  1  'x, y, z'
loop_
 _atom_site_label
 _atom_site_fract_x
 _atom_site_fract_y
 _atom_site_fract_z
 _atom_site_charge
 Yb 0.58434 0.37595 0.89967   1.521399
 Yb 0.41566 0.10033 0.62405   1.521393
 Yb 0.41566 0.62405 0.10033   1.521398
 Yb 0.58434 0.89967 0.37595   1.521392
 H 0.7831 0.622 0.622   0.121441
 H 0.3829 0.7653 0.7653   0.129481
 H 0.2169 0.378 0.378   0.121442
 H 0.6171 0.2347 0.2347   0.129481
 C 0.9942 0.6026 0.7396   -0.072333
 C 0.1717 0.6446 0.782   -0.026978
 C 0.8723 0.5119 0.7933   0.602523
 C 0.2796 0.6027 0.8811   0.734272
 C 0.7889 0.1903 0.9155   0.643251
 C 0.9006 0.0903 0.9519   -0.065023
 C 0.0058 0.2604 0.3974   -0.072333
 C 0.8283 0.218 0.3554   -0.026979
 C 0.1277 0.2067 0.4881   0.602524
 C 0.7204 0.1189 0.3973   0.734272
 C 0.2111 0.0845 0.8097   0.643251
 C 0.0994 0.0481 0.9097   -0.065025
 C 0.0058 0.3974 0.2604   -0.072333
 C 0.8283 0.3554 0.218   -0.026978
 C 0.1277 0.4881 0.2067   0.602523
 C 0.7204 0.3973 0.1189   0.734272
 C 0.2111 0.8097 0.0845   0.643251
 C 0.0994 0.9097 0.0481   -0.065023
 C 0.9942 0.7396 0.6026   -0.072333
 C 0.1717 0.782 0.6446   -0.026979
 C 0.8723 0.7933 0.5119   0.602524
 C 0.2796 0.8811 0.6027   0.734272
 C 0.7889 0.9155 0.1903   0.643251
 C 0.9006 0.9519 0.0903   -0.065025
 C 0.905 0.6503 0.6503   -0.012125
 C 0.264 0.7361 0.7361   -0.089381
 C 0.095 0.3497 0.3497   -0.012125
 C 0.736 0.2639 0.2639   -0.089381
 C 0.807 0.0416 0.0416   0.128669
 C 0.193 0.9584 0.9584   0.128667
 O 0.7513 0.4597 0.7469   -0.55458
 O 0.8867 0.4926 0.887   -0.515512
 O 0.3952 0.5219 0.8863   -0.674706
 O 0.2522 0.6522 0.9484   -0.609269
 O 0.9052 0.2639 0.8703   -0.532006
 O 0.5786 0.2035 0.9379   -0.590076
 O 0.2487 0.2531 0.5403   -0.554582
 O 0.1133 0.113 0.5074   -0.515512
 O 0.6048 0.1137 0.4781   -0.674705
 O 0.7478 0.0516 0.3478   -0.609269
 O 0.0948 0.1297 0.7361   -0.532007
 O 0.4214 0.0621 0.7965   -0.590075
 O 0.2487 0.5403 0.2531   -0.55458
 O 0.1133 0.5074 0.113   -0.515512
 O 0.6048 0.4781 0.1137   -0.674706
 O 0.7478 0.3478 0.0516   -0.609269
 O 0.0948 0.7361 0.1297   -0.532006
 O 0.4214 0.7965 0.0621   -0.590076
 O 0.7513 0.7469 0.4597   -0.554582
 O 0.8867 0.887 0.4926   -0.515512
 O 0.3952 0.8863 0.5219   -0.674705
 O 0.2522 0.9484 0.6522   -0.609269
 O 0.9052 0.8703 0.2639   -0.532007
 O 0.5786 0.9379 0.2035   -0.590075
