{'_ref': 'TBD', '_srcid': 'CAKYAQ_clean', 'submitters': [{'name': 'Dalar Nazarian Jeff Camp and David Sholl', 'email': 'dalar@gatech.edu jcamp6@gatech.edu'}], '_method': 'VASP DFT with PBE;DDEC'}
data_LuH3C8NO6
_symmetry_space_group_name_H-M   'P 1'
_cell_length_a   6.60080036
_cell_length_b   12.82500000
_cell_length_c   13.31000000
_cell_angle_alpha   90.00000000
_cell_angle_beta   103.62999825
_cell_angle_gamma   90.00000000
_symmetry_Int_Tables_number   1
_chemical_formula_structural   LuH3C8NO6
_chemical_formula_sum   'Lu4 H12 C32 N4 O24'
_cell_volume   1095.02943608
_cell_formula_units_Z   4
loop_
 _symmetry_equiv_pos_site_id
 _symmetry_equiv_pos_as_xyz
  1  'x, y, z'
loop_
 _atom_site_label
 _atom_site_fract_x
 _atom_site_fract_y
 _atom_site_fract_z
 _atom_site_charge
 Lu 0.26093 0.07619 0.70552   1.923182
 Lu 0.23907 0.57619 0.29448   1.923182
 Lu 0.73907 0.92381 0.29448   1.923181
 Lu 0.76093 0.42381 0.70552   1.923181
 H 0.1245 0.0577 0.9712   0.070811
 H 0.0941 0.3674 0.9887   0.113162
 H 0.2528 0.1909 0.2413   0.083659
 H 0.3755 0.5577 0.0288   0.070811
 H 0.4059 0.8674 0.0113   0.113162
 H 0.2472 0.6909 0.7587   0.083659
 H 0.8755 0.9423 0.0288   0.070811
 H 0.9059 0.6326 0.0113   0.113162
 H 0.7472 0.8091 0.7587   0.083659
 H 0.6245 0.4423 0.9712   0.070811
 H 0.5941 0.1326 0.9887   0.113162
 H 0.7528 0.3091 0.2413   0.083659
 C 0.1372 0.1179 0.0111   0.263959
 C 0.097 0.2134 0.961   -0.287696
 C 0.1203 0.3023 0.0199   0.088767
 C 0.1833 0.2938 0.1263   -0.242216
 C 0.2147 0.196 0.1696   0.232864
 C 0.0248 0.2231 0.846   0.791545
 C 0.212 0.3905 0.1904   0.661255
 C 0.8991 0.0059 0.5195   0.571728
 C 0.3628 0.6179 0.9889   0.263959
 C 0.403 0.7134 0.039   -0.287696
 C 0.3797 0.8023 0.9801   0.088767
 C 0.3167 0.7938 0.8737   -0.242216
 C 0.2853 0.696 0.8304   0.232864
 C 0.4752 0.7231 0.154   0.791545
 C 0.288 0.8905 0.8096   0.661255
 C 0.6009 0.5059 0.4805   0.571728
 C 0.8628 0.8821 0.9889   0.263959
 C 0.903 0.7866 0.039   -0.287696
 C 0.8797 0.6977 0.9801   0.088767
 C 0.8167 0.7062 0.8737   -0.242215
 C 0.7853 0.804 0.8304   0.232865
 C 0.9752 0.7769 0.154   0.791545
 C 0.788 0.6095 0.8096   0.661255
 C 0.1009 0.9941 0.4805   0.571728
 C 0.6372 0.3821 0.0111   0.263959
 C 0.597 0.2866 0.961   -0.287696
 C 0.6203 0.1977 0.0199   0.088767
 C 0.6833 0.2062 0.1263   -0.242215
 C 0.7147 0.304 0.1696   0.232865
 C 0.5248 0.2769 0.846   0.791546
 C 0.712 0.1095 0.1904   0.661255
 C 0.3991 0.4941 0.5195   0.571728
 N 0.1934 0.1083 0.1145   -0.415107
 N 0.3066 0.6083 0.8855   -0.415107
 N 0.8066 0.8917 0.8855   -0.415107
 N 0.6934 0.3917 0.1145   -0.415107
 O 0.0291 0.1437 0.7883   -0.692591
 O 0.9575 0.3096 0.8138   -0.691578
 O 0.167 0.4783 0.1455   -0.625945
 O 0.2779 0.3868 0.2874   -0.621114
 O 0.9209 0.0452 0.6079   -0.610877
 O 0.7347 0.9767 0.4612   -0.61381
 O 0.4709 0.6437 0.2117   -0.692591
 O 0.5425 0.8096 0.1862   -0.691578
 O 0.333 0.9783 0.8545   -0.625945
 O 0.2221 0.8868 0.7126   -0.621114
 O 0.5791 0.5452 0.3921   -0.610877
 O 0.7653 0.4767 0.5388   -0.61381
 O 0.9709 0.8563 0.2117   -0.69259
 O 0.0425 0.6904 0.1862   -0.691578
 O 0.833 0.5217 0.8545   -0.625945
 O 0.7221 0.6132 0.7126   -0.621114
 O 0.0791 0.9548 0.3921   -0.610877
 O 0.2653 0.0233 0.5388   -0.61381
 O 0.5291 0.3563 0.7883   -0.69259
 O 0.4575 0.1904 0.8138   -0.691578
 O 0.667 0.0217 0.1455   -0.625945
 O 0.7779 0.1132 0.2874   -0.621114
 O 0.4209 0.4548 0.6079   -0.610877
 O 0.2347 0.5233 0.4612   -0.61381
