{'_ref': 'TBD', '_srcid': 'CAKYAQ_clean', 'submitters': [{'name': 'Dalar Nazarian Jeff Camp and David Sholl', 'email': 'dalar@gatech.edu jcamp6@gatech.edu'}], '_method': 'VASP DFT with PBE;DDEC'}
data_LaCuH8C14(NO4)2
_symmetry_space_group_name_H-M   'P 1'
_cell_length_a   9.38250000
_cell_length_b   9.67730046
_cell_length_c   21.69390000
_cell_angle_alpha   90.00000000
_cell_angle_beta   90.00000000
_cell_angle_gamma   115.31200156
_symmetry_Int_Tables_number   1
_chemical_formula_structural   LaCuH8C14(NO4)2
_chemical_formula_sum   'La4 Cu4 H32 C56 N8 O32'
_cell_volume   1780.63746165
_cell_formula_units_Z   4
loop_
 _symmetry_equiv_pos_site_id
 _symmetry_equiv_pos_as_xyz
  1  'x, y, z'
loop_
 _atom_site_label
 _atom_site_fract_x
 _atom_site_fract_y
 _atom_site_fract_z
 _atom_site_charge
 La 0.12205 0.36168 0.99143   2.131091
 La 0.37795 0.63832 0.49143   2.131091
 La 0.87795 0.63832 0.00857   2.13109
 La 0.62205 0.36168 0.50857   2.13109
 Cu 0.45642 0.30874 0.8561   0.38745
 Cu 0.04358 0.69126 0.3561   0.38745
 Cu 0.54358 0.69126 0.1439   0.38745
 Cu 0.95642 0.30874 0.6439   0.38745
 H 0.703 0.2068 0.8465   0.06025
 H 0.7559 0.0073 0.8762   0.14233
 H 0.5634 0.8029 0.9292   0.102164
 H 0.2924 0.0277 0.9274   0.085395
 H 0.878 0.5744 0.6551   0.079812
 H 0.8487 0.7213 0.7322   0.137762
 H 0.8961 0.6766 0.8341   0.112128
 H 0.0023 0.3424 0.7728   0.079238
 H 0.797 0.7932 0.3465   0.06025
 H 0.7441 0.9927 0.3762   0.14233
 H 0.9366 0.1971 0.4292   0.102164
 H 0.2076 0.9723 0.4274   0.085395
 H 0.622 0.4256 0.1551   0.079812
 H 0.6513 0.2787 0.2322   0.137762
 H 0.6039 0.3234 0.3341   0.112128
 H 0.4977 0.6576 0.2728   0.079238
 H 0.297 0.7932 0.1535   0.06025
 H 0.2441 0.9927 0.1238   0.14233
 H 0.4366 0.1971 0.0708   0.102164
 H 0.7076 0.9723 0.0726   0.085395
 H 0.122 0.4256 0.3449   0.079812
 H 0.1513 0.2787 0.2678   0.137762
 H 0.1039 0.3234 0.1659   0.112128
 H 0.9977 0.6576 0.2272   0.079238
 H 0.203 0.2068 0.6535   0.06025
 H 0.2559 0.0073 0.6238   0.14233
 H 0.0634 0.8029 0.5708   0.102164
 H 0.7924 0.0277 0.5726   0.085395
 H 0.378 0.5744 0.8449   0.079812
 H 0.3487 0.7213 0.7678   0.137762
 H 0.3961 0.6766 0.6659   0.112128
 H 0.5023 0.3424 0.7272   0.079238
 C 0.6276 0.1279 0.86923   0.158186
 C 0.6597 0.0079 0.886   -0.156255
 C 0.5459 0.8871 0.91806   0.048848
 C 0.4054 0.8938 0.93314   -0.229404
 C 0.3852 0.0217 0.91604   0.182958
 C 0.2759 0.7635 0.96648   0.758748
 C 0.8969 0.5553 0.69561   0.184751
 C 0.8794 0.6442 0.7416   -0.192192
 C 0.908 0.6182 0.80224   0.057079
 C 0.9546 0.5031 0.81413   -0.217108
 C 0.9698 0.4189 0.76481   0.156788
 C 0.9925 0.4647 0.87697   0.734194
 C 0.5037 0.4768 0.96605   0.53283
 C 0.9873 0.992 0.96426   0.541316
 C 0.8724 0.8721 0.36923   0.158186
 C 0.8403 0.9921 0.386   -0.156255
 C 0.9541 0.1129 0.41806   0.048848
 C 0.0946 0.1062 0.43314   -0.229404
 C 0.1148 0.9783 0.41604   0.182958
 C 0.2241 0.2365 0.46648   0.758748
 C 0.6031 0.4447 0.19561   0.184751
 C 0.6206 0.3558 0.2416   -0.192192
 C 0.592 0.3818 0.30224   0.057079
 C 0.5454 0.4969 0.31413   -0.217108
 C 0.5302 0.5811 0.26481   0.156788
 C 0.5075 0.5353 0.37697   0.734194
 C 0.9963 0.5232 0.46605   0.53283
 C 0.5127 0.008 0.46426   0.541316
 C 0.3724 0.8721 0.13077   0.158186
 C 0.3403 0.9921 0.114   -0.156255
 C 0.4541 0.1129 0.08194   0.048848
 C 0.5946 0.1062 0.06686   -0.229404
 C 0.6148 0.9783 0.08396   0.182958
 C 0.7241 0.2365 0.03352   0.758748
 C 0.1031 0.4447 0.30439   0.184751
 C 0.1206 0.3558 0.2584   -0.192192
 C 0.092 0.3818 0.19776   0.057079
 C 0.0454 0.4969 0.18587   -0.217108
 C 0.0302 0.5811 0.23519   0.156788
 C 0.0075 0.5353 0.12303   0.734195
 C 0.4963 0.5232 0.03395   0.532831
 C 0.0127 0.008 0.03574   0.541318
 C 0.1276 0.1279 0.63077   0.158186
 C 0.1597 0.0079 0.614   -0.156255
 C 0.0459 0.8871 0.58194   0.048848
 C 0.9054 0.8938 0.56686   -0.229404
 C 0.8852 0.0217 0.58396   0.182958
 C 0.7759 0.7635 0.53352   0.758748
 C 0.3969 0.5553 0.80439   0.184751
 C 0.3794 0.6442 0.7584   -0.192192
 C 0.408 0.6182 0.69776   0.057079
 C 0.4546 0.5031 0.68587   -0.217108
 C 0.4698 0.4189 0.73519   0.156788
 C 0.4925 0.4647 0.62303   0.734195
 C 0.0037 0.4768 0.53395   0.532831
 C 0.4873 0.992 0.53574   0.541318
 N 0.4933 0.1381 0.88371   -0.311389
 N 0.9399 0.4424 0.70644   -0.300401
 N 0.0067 0.8619 0.38371   -0.311389
 N 0.5601 0.5576 0.20644   -0.300401
 N 0.5067 0.8619 0.11629   -0.311389
 N 0.0601 0.5576 0.29356   -0.300401
 N 0.9933 0.1381 0.61629   -0.311389
 N 0.4399 0.4424 0.79356   -0.300401
 O 0.2867 0.6389 0.96719   -0.703569
 O 0.1675 0.7885 0.98985   -0.703903
 O 0.0626 0.3808 0.88014   -0.632481
 O 0.9541 0.5179 0.92365   -0.767296
 O 0.3761 0.3818 0.94288   -0.592234
 O 0.6341 0.5355 0.93961   -0.601512
 O 0.0509 0.1127 0.93386   -0.621537
 O 0.9067 0.8608 0.94338   -0.644039
 O 0.2133 0.3611 0.46719   -0.703569
 O 0.3325 0.2115 0.48985   -0.703903
 O 0.4374 0.6192 0.38014   -0.632481
 O 0.5459 0.4821 0.42365   -0.767296
 O 0.1239 0.6182 0.44288   -0.592234
 O 0.8659 0.4645 0.43961   -0.601512
 O 0.4491 0.8873 0.43386   -0.621537
 O 0.5933 0.1392 0.44338   -0.644039
 O 0.7133 0.3611 0.03281   -0.703569
 O 0.8325 0.2115 0.01015   -0.703903
 O 0.9374 0.6192 0.11986   -0.632481
 O 0.0459 0.4821 0.07635   -0.767296
 O 0.6239 0.6182 0.05712   -0.592234
 O 0.3659 0.4645 0.06039   -0.601512
 O 0.9491 0.8873 0.06614   -0.621537
 O 0.0933 0.1392 0.05662   -0.644039
 O 0.7867 0.6389 0.53281   -0.703569
 O 0.6675 0.7885 0.51015   -0.703903
 O 0.5626 0.3808 0.61986   -0.632481
 O 0.4541 0.5179 0.57635   -0.767296
 O 0.8761 0.3818 0.55712   -0.592234
 O 0.1341 0.5355 0.56039   -0.601512
 O 0.5509 0.1127 0.56614   -0.621537
 O 0.4067 0.8608 0.55662   -0.644039
