{'_ref': 'TBD', '_srcid': 'CAKYAQ_clean', 'submitters': [{'name': 'Dalar Nazarian Jeff Camp and David Sholl', 'email': 'dalar@gatech.edu jcamp6@gatech.edu'}], '_method': 'VASP DFT with PBE;DDEC'}
data_GdPHCO5
_symmetry_space_group_name_H-M   'P 1'
_cell_length_a   6.54339950
_cell_length_b   6.93109944
_cell_length_c   7.74650000
_cell_angle_alpha   111.48699828
_cell_angle_beta   95.64499695
_cell_angle_gamma   90.83300075
_symmetry_Int_Tables_number   1
_chemical_formula_structural   GdPHCO5
_chemical_formula_sum   'Gd2 P2 H2 C2 O10'
_cell_volume   324.838874749
_cell_formula_units_Z   2
loop_
 _symmetry_equiv_pos_site_id
 _symmetry_equiv_pos_as_xyz
  1  'x, y, z'
loop_
 _atom_site_label
 _atom_site_fract_x
 _atom_site_fract_y
 _atom_site_fract_z
 _atom_site_charge
 Gd 0.87397 0.77948 0.06766   2.302074
 Gd 0.12603 0.22052 0.93234   2.302074
 P 0.3284 0.74792 0.97994   1.582293
 P 0.6716 0.25208 0.02006   1.582293
 H 0.3622 0.7204 0.7978   -0.133464
 H 0.6378 0.2796 0.2022   -0.133464
 C 0.0591 0.9058 0.5009   0.567667
 C 0.9409 0.0942 0.4991   0.567667
 O 0.1994 0.9415 0.0357   -1.091366
 O 0.528 0.776 0.1048   -0.905898
 O 0.1825 0.5721 0.9758   -1.059004
 O 0.0518 0.7554 0.3483   -0.643605
 O 0.8475 0.0834 0.3474   -0.618698
 O 0.8006 0.0585 0.9643   -1.091366
 O 0.472 0.224 0.8952   -0.905898
 O 0.8175 0.4279 0.0242   -1.059004
 O 0.9482 0.2446 0.6517   -0.643605
 O 0.1525 0.9166 0.6526   -0.618698
