{'_ref': 'TBD', '_srcid': 'CAKYAQ_clean', 'submitters': [{'name': 'Dalar Nazarian Jeff Camp and David Sholl', 'email': 'dalar@gatech.edu jcamp6@gatech.edu'}], '_method': 'VASP DFT with PBE;DDEC'}
data_CuH3C8NO4
_symmetry_space_group_name_H-M   'P 1'
_cell_length_a   14.89660009
_cell_length_b   14.89659969
_cell_length_c   14.89660000
_cell_angle_alpha   78.24530002
_cell_angle_beta   78.24530035
_cell_angle_gamma   78.24530045
_symmetry_Int_Tables_number   1
_chemical_formula_structural   CuH3C8NO4
_chemical_formula_sum   'Cu6 H18 C48 N6 O24'
_cell_volume   3122.78243579
_cell_formula_units_Z   6
loop_
 _symmetry_equiv_pos_site_id
 _symmetry_equiv_pos_as_xyz
  1  'x, y, z'
loop_
 _atom_site_label
 _atom_site_fract_x
 _atom_site_fract_y
 _atom_site_fract_z
 _atom_site_charge
 Cu 0.48611 0.91873 0.48608   0.836343
 Cu 0.48608 0.48611 0.91873   0.836344
 Cu 0.91873 0.48608 0.48611   0.836343
 Cu 0.51389 0.08127 0.51392   0.836343
 Cu 0.51392 0.51389 0.08127   0.836344
 Cu 0.08127 0.51392 0.51389   0.836343
 H 0.7713 0.7651 0.4781   0.120697
 H 0.1915 0.9797 0.5033   0.111044
 H 0.9708 0.188 0.5151   0.126253
 H 0.4781 0.7713 0.7651   0.120698
 H 0.5033 0.1915 0.9797   0.111046
 H 0.5151 0.9708 0.188   0.126253
 H 0.7651 0.4781 0.7713   0.120696
 H 0.9797 0.5033 0.1915   0.111044
 H 0.188 0.5151 0.9708   0.126253
 H 0.2287 0.2349 0.5219   0.120697
 H 0.8085 0.0203 0.4967   0.111039
 H 0.0292 0.812 0.4849   0.126249
 H 0.5219 0.2287 0.2349   0.120698
 H 0.4967 0.8085 0.0203   0.111041
 H 0.4849 0.0292 0.812   0.126249
 H 0.2349 0.5219 0.2287   0.120696
 H 0.0203 0.4967 0.8085   0.111039
 H 0.812 0.4849 0.0292   0.126249
 C 0.2294 0.0941 0.5193   -0.074313
 C 0.0942 0.23 0.5132   -0.05893
 C 0.1896 0.194 0.5186   -0.095043
 C 0.1694 0.0426 0.5081   -0.084086
 C 0.3271 0.0678 0.519   0.646117
 C 0.0355 0.1688 0.5113   -0.148679
 C 0.0783 0.0766 0.5031   -0.058379
 C 0.939 0.6656 0.4843   0.618375
 C 0.5193 0.2294 0.0941   -0.074282
 C 0.5132 0.0942 0.23   -0.058927
 C 0.5186 0.1896 0.194   -0.095053
 C 0.5081 0.1694 0.0426   -0.084099
 C 0.519 0.3271 0.0678   0.646107
 C 0.5113 0.0355 0.1688   -0.148681
 C 0.5031 0.0783 0.0766   -0.058375
 C 0.4843 0.939 0.6656   0.618374
 C 0.0941 0.5193 0.2294   -0.074313
 C 0.23 0.5132 0.0942   -0.05893
 C 0.194 0.5186 0.1896   -0.095043
 C 0.0426 0.5081 0.1694   -0.084086
 C 0.0678 0.519 0.3271   0.646117
 C 0.1688 0.5113 0.0355   -0.148679
 C 0.0766 0.5031 0.0783   -0.058379
 C 0.6656 0.4843 0.939   0.618375
 C 0.7706 0.9059 0.4807   -0.074317
 C 0.9058 0.77 0.4868   -0.05894
 C 0.8104 0.806 0.4814   -0.095039
 C 0.8306 0.9574 0.4919   -0.08407
 C 0.6729 0.9322 0.481   0.646117
 C 0.9645 0.8312 0.4887   -0.148663
 C 0.9217 0.9234 0.4969   -0.058421
 C 0.061 0.3344 0.5157   0.618368
 C 0.4807 0.7706 0.9059   -0.074285
 C 0.4868 0.9058 0.77   -0.058937
 C 0.4814 0.8104 0.806   -0.095049
 C 0.4919 0.8306 0.9574   -0.084083
 C 0.481 0.6729 0.9322   0.646107
 C 0.4887 0.9645 0.8312   -0.148665
 C 0.4969 0.9217 0.9234   -0.058417
 C 0.5157 0.061 0.3344   0.618368
 C 0.9059 0.4807 0.7706   -0.074317
 C 0.77 0.4868 0.9058   -0.05894
 C 0.806 0.4814 0.8104   -0.095039
 C 0.9574 0.4919 0.8306   -0.084071
 C 0.9322 0.481 0.6729   0.646117
 C 0.8312 0.4887 0.9645   -0.148663
 C 0.9234 0.4969 0.9217   -0.058421
 C 0.3344 0.5157 0.061   0.618368
 N 0.02 0.017 0.504   0.303003
 N 0.504 0.02 0.017   0.303002
 N 0.017 0.504 0.02   0.303003
 N 0.98 0.983 0.496   0.303283
 N 0.496 0.98 0.983   0.303282
 N 0.983 0.496 0.98   0.303282
 O 0.3831 0.1203 0.5215   -0.544101
 O 0.8777 0.6198 0.4768   -0.519942
 O 0.022 0.643 0.5004   -0.552971
 O 0.3553 0.9781 0.5055   -0.625511
 O 0.5215 0.3831 0.1203   -0.544106
 O 0.4768 0.8777 0.6198   -0.519941
 O 0.5004 0.022 0.643   -0.552971
 O 0.5055 0.3553 0.9781   -0.625514
 O 0.1203 0.5215 0.3831   -0.544101
 O 0.6198 0.4768 0.8777   -0.519942
 O 0.643 0.5004 0.022   -0.552971
 O 0.9781 0.5055 0.3553   -0.62551
 O 0.6169 0.8797 0.4785   -0.544101
 O 0.1223 0.3802 0.5232   -0.519941
 O 0.978 0.357 0.4996   -0.55297
 O 0.6447 0.0219 0.4945   -0.625511
 O 0.4785 0.6169 0.8797   -0.544106
 O 0.5232 0.1223 0.3802   -0.519941
 O 0.4996 0.978 0.357   -0.55297
 O 0.4945 0.6447 0.0219   -0.625514
 O 0.8797 0.4785 0.6169   -0.544101
 O 0.3802 0.5232 0.1223   -0.519941
 O 0.357 0.4996 0.978   -0.55297
 O 0.0219 0.4945 0.6447   -0.625511
