{'_ref': 'TBD', '_srcid': 'CAKYAQ_clean', 'submitters': [{'name': 'Dalar Nazarian Jeff Camp and David Sholl', 'email': 'dalar@gatech.edu jcamp6@gatech.edu'}], '_method': 'VASP DFT with PBE;DDEC'}
data_CuH4C9O4
_symmetry_space_group_name_H-M   'P 1'
_cell_length_a   15.04880043
_cell_length_b   15.04880016
_cell_length_c   15.04880000
_cell_angle_alpha   77.28640065
_cell_angle_beta   77.28640088
_cell_angle_gamma   77.28639980
_symmetry_Int_Tables_number   1
_chemical_formula_structural   CuH4C9O4
_chemical_formula_sum   'Cu6 H24 C54 O24'
_cell_volume   3189.78662607
_cell_formula_units_Z   6
loop_
 _symmetry_equiv_pos_site_id
 _symmetry_equiv_pos_as_xyz
  1  'x, y, z'
loop_
 _atom_site_label
 _atom_site_fract_x
 _atom_site_fract_y
 _atom_site_fract_z
 _atom_site_charge
 Cu 0.5805 0.01294 0.01284   0.89337
 Cu 0.01284 0.5805 0.01294   0.89337
 Cu 0.01294 0.01284 0.5805   0.89337
 Cu 0.4195 0.98706 0.98716   0.893369
 Cu 0.98716 0.4195 0.98706   0.893369
 Cu 0.98706 0.98716 0.4195   0.893369
 H 0.2892 0.9762 0.2528   0.111928
 H 0.2974 0.9879 0.5107   0.090007
 H 0.5185 0.9923 0.3257   0.060819
 H 0.4607 0.9853 0.5717   0.058387
 H 0.2528 0.2892 0.9762   0.111928
 H 0.5107 0.2974 0.9879   0.090007
 H 0.3257 0.5185 0.9923   0.06082
 H 0.5717 0.4607 0.9853   0.058387
 H 0.9762 0.2528 0.2892   0.111928
 H 0.9879 0.5107 0.2974   0.090007
 H 0.9923 0.3257 0.5185   0.06082
 H 0.9853 0.5717 0.4607   0.058387
 H 0.7108 0.0238 0.7472   0.111928
 H 0.7026 0.0121 0.4893   0.090012
 H 0.4815 0.0077 0.6743   0.060822
 H 0.5393 0.0147 0.4283   0.058349
 H 0.7472 0.7108 0.0238   0.111928
 H 0.4893 0.7026 0.0121   0.090012
 H 0.6743 0.4815 0.0077   0.060823
 H 0.4283 0.5393 0.0147   0.058349
 H 0.0238 0.7472 0.7108   0.111928
 H 0.0121 0.4893 0.7026   0.090012
 H 0.0077 0.6743 0.4815   0.060823
 H 0.0147 0.4283 0.5393   0.058349
 C 0.4393 0.9822 0.1693   0.658692
 C 0.3217 0.9802 0.2973   -0.009657
 C 0.4132 0.9843 0.2746   -0.110726
 C 0.3292 0.9871 0.4503   -0.067771
 C 0.4558 0.9896 0.344   -0.04966
 C 0.4225 0.9915 0.4351   0.034233
 C 0.4909 0.000700000000002 0.4763   0.00838
 C 0.278 0.9818 0.3871   -0.134741
 C 0.8244 0.016 0.5676   0.715246
 C 0.1693 0.4393 0.9822   0.658692
 C 0.2973 0.3217 0.9802   -0.009657
 C 0.2746 0.4132 0.9843   -0.110726
 C 0.4503 0.3292 0.9871   -0.067771
 C 0.344 0.4558 0.9896   -0.04966
 C 0.4351 0.4225 0.9915   0.034233
 C 0.4763 0.4909 0.000700000000002   0.00838
 C 0.3871 0.278 0.9818   -0.134741
 C 0.5676 0.8244 0.016   0.715246
 C 0.9822 0.1693 0.4393   0.658692
 C 0.9802 0.2973 0.3217   -0.009657
 C 0.9843 0.2746 0.4132   -0.110726
 C 0.9871 0.4503 0.3292   -0.067771
 C 0.9896 0.344 0.4558   -0.04966
 C 0.9915 0.4351 0.4225   0.034233
 C 0.000700000000002 0.4763 0.4909   0.00838
 C 0.9818 0.3871 0.278   -0.134741
 C 0.016 0.5676 0.8244   0.715246
 C 0.5607 0.0178 0.8307   0.658691
 C 0.6783 0.0198 0.7027   -0.009661
 C 0.5868 0.0157 0.7254   -0.110721
 C 0.6708 0.0129 0.5497   -0.067801
 C 0.5442 0.0104 0.656   -0.049677
 C 0.5775 0.0085 0.5649   0.034319
 C 0.5091 0.9993 0.5237   0.007767
 C 0.722 0.0182 0.6129   -0.134731
 C 0.1756 0.984 0.4324   0.715247
 C 0.8307 0.5607 0.0178   0.658691
 C 0.7027 0.6783 0.0198   -0.00966
 C 0.7254 0.5868 0.0157   -0.110721
 C 0.5497 0.6708 0.0129   -0.067801
 C 0.656 0.5442 0.0104   -0.049677
 C 0.5649 0.5775 0.0085   0.034319
 C 0.5237 0.5091 0.9993   0.007767
 C 0.6129 0.722 0.0182   -0.134731
 C 0.4324 0.1756 0.984   0.715247
 C 0.0178 0.8307 0.5607   0.658691
 C 0.0198 0.7027 0.6783   -0.00966
 C 0.0157 0.7254 0.5868   -0.110721
 C 0.0129 0.5497 0.6708   -0.067801
 C 0.0104 0.656 0.5442   -0.049677
 C 0.0085 0.5649 0.5775   0.034319
 C 0.9993 0.5237 0.5091   0.007767
 C 0.0182 0.6129 0.722   -0.134731
 C 0.984 0.4324 0.1756   0.715247
 O 0.382 0.9775 0.123   -0.528965
 O 0.5207 0.9978 0.1422   -0.541391
 O 0.8776 0.0241 0.6146   -0.578859
 O 0.8534 0.0043 0.4858   -0.608996
 O 0.123 0.382 0.9775   -0.528965
 O 0.1422 0.5207 0.9978   -0.541391
 O 0.6146 0.8776 0.0241   -0.578859
 O 0.4858 0.8534 0.0043   -0.608996
 O 0.9775 0.123 0.382   -0.528965
 O 0.9978 0.1422 0.5207   -0.541391
 O 0.0241 0.6146 0.8776   -0.578859
 O 0.0043 0.4858 0.8534   -0.608996
 O 0.618 0.0225 0.877   -0.528965
 O 0.4793 0.0022 0.8578   -0.541391
 O 0.1224 0.9759 0.3854   -0.578859
 O 0.1466 0.9957 0.5142   -0.608997
 O 0.877 0.618 0.0225   -0.528965
 O 0.8578 0.4793 0.0022   -0.541391
 O 0.3854 0.1224 0.9759   -0.578859
 O 0.5142 0.1466 0.9957   -0.608997
 O 0.0225 0.877 0.618   -0.528965
 O 0.0022 0.8578 0.4793   -0.541391
 O 0.9759 0.3854 0.1224   -0.578859
 O 0.9957 0.5142 0.1466   -0.608997
