{'_ref': 'TBD', '_srcid': 'CAKYAQ_clean', 'submitters': [{'name': 'Dalar Nazarian Jeff Camp and David Sholl', 'email': 'dalar@gatech.edu jcamp6@gatech.edu'}], '_method': 'VASP DFT with PBE;DDEC'}
data_Cd3(CN)7
_symmetry_space_group_name_H-M   'P 1'
_cell_length_a   13.56900000
_cell_length_b   13.72400000
_cell_length_c   27.26900000
_cell_angle_alpha   90.00000000
_cell_angle_beta   90.00000000
_cell_angle_gamma   90.00000000
_symmetry_Int_Tables_number   1
_chemical_formula_structural   Cd3(CN)7
_chemical_formula_sum   'Cd24 C56 N56'
_cell_volume   5078.05924916
_cell_formula_units_Z   8
loop_
 _symmetry_equiv_pos_site_id
 _symmetry_equiv_pos_as_xyz
  1  'x, y, z'
loop_
 _atom_site_label
 _atom_site_fract_x
 _atom_site_fract_y
 _atom_site_fract_z
 _atom_site_charge
 Cd 0.99629 0.16801 0.12556   0.97791
 Cd 0.87208 0.53744 0.19144   0.660791
 Cd 0.11566 0.78405 0.07553   0.551071
 Cd 0.49629 0.33199 0.87444   0.97791
 Cd 0.37208 0.96256 0.80856   0.660791
 Cd 0.61566 0.71595 0.92447   0.551071
 Cd 0.50371 0.83199 0.62556   0.97791
 Cd 0.62792 0.46256 0.69144   0.660791
 Cd 0.38434 0.21595 0.57553   0.551071
 Cd 0.00371 0.66801 0.37444   0.97791
 Cd 0.12792 0.03744 0.30856   0.660791
 Cd 0.88434 0.28405 0.42447   0.551071
 Cd 0.00371 0.83199 0.87444   0.97791
 Cd 0.12792 0.46256 0.80856   0.660792
 Cd 0.88434 0.21595 0.92447   0.551071
 Cd 0.50371 0.66801 0.12556   0.97791
 Cd 0.62792 0.03744 0.19144   0.660792
 Cd 0.38434 0.28405 0.07553   0.551071
 Cd 0.49629 0.16801 0.37444   0.97791
 Cd 0.37208 0.53744 0.30856   0.660793
 Cd 0.61566 0.78405 0.42447   0.551072
 Cd 0.99629 0.33199 0.62556   0.97791
 Cd 0.87208 0.96256 0.69144   0.660793
 Cd 0.11566 0.71595 0.57553   0.551072
 C 0.9261 0.3936 0.1656   -0.037352
 C 0.766 0.0846 0.1566   -0.036045
 C 0.0752 0.9346 0.0962   -0.006887
 C 0.2275 0.2486 0.0879   -0.016765
 C 0.0205 0.6776 0.1139   -0.038786
 C 0.9161 0.2101 0.0051   -0.001763
 C 0.0738 0.1005 0.2395   -0.046341
 C 0.4261 0.1064 0.8344   -0.037352
 C 0.266 0.4154 0.8434   -0.036045
 C 0.5752 0.5654 0.9038   -0.006887
 C 0.7275 0.2514 0.9121   -0.016764
 C 0.5205 0.8224 0.8861   -0.038786
 C 0.4161 0.2899 0.9949   -0.001763
 C 0.5738 0.3995 0.7605   -0.046341
 C 0.5739 0.6064 0.6656   -0.037352
 C 0.734 0.9154 0.6566   -0.036045
 C 0.4248 0.0654 0.5962   -0.006887
 C 0.2725 0.7514 0.5879   -0.016765
 C 0.4795 0.3224 0.6139   -0.038786
 C 0.5839 0.7899 0.5051   -0.001763
 C 0.4262 0.8995 0.7395   -0.046341
 C 0.0739 0.8936 0.3344   -0.037352
 C 0.234 0.5846 0.3434   -0.036045
 C 0.9248 0.4346 0.4038   -0.006887
 C 0.7725 0.7486 0.4121   -0.016764
 C 0.9795 0.1776 0.3861   -0.038786
 C 0.0839 0.7101 0.4949   -0.001763
 C 0.9262 0.6005 0.2605   -0.046341
 C 0.0739 0.6064 0.8344   -0.037352
 C 0.234 0.9154 0.8434   -0.036044
 C 0.9248 0.0654 0.9038   -0.006886
 C 0.7725 0.7514 0.9121   -0.016765
 C 0.9795 0.3224 0.8861   -0.038785
 C 0.0839 0.7899 0.9949   -0.001762
 C 0.9262 0.8995 0.7605   -0.046341
 C 0.5739 0.8936 0.1656   -0.037352
 C 0.734 0.5846 0.1566   -0.036044
 C 0.4248 0.4346 0.0962   -0.006886
 C 0.2725 0.7486 0.0879   -0.016764
 C 0.4795 0.1776 0.1139   -0.038785
 C 0.5839 0.7101 0.0051   -0.001762
 C 0.4262 0.6005 0.2395   -0.046341
 C 0.4261 0.3936 0.3344   -0.037352
 C 0.266 0.0846 0.3434   -0.036044
 C 0.5752 0.9346 0.4038   -0.006886
 C 0.7275 0.2486 0.4121   -0.016765
 C 0.5205 0.6776 0.3861   -0.038785
 C 0.4161 0.2101 0.4949   -0.001762
 C 0.5738 0.1005 0.2605   -0.046341
 C 0.9261 0.1064 0.6656   -0.037352
 C 0.766 0.4154 0.6566   -0.036044
 C 0.0752 0.5654 0.5962   -0.006886
 C 0.2275 0.2514 0.5879   -0.016764
 C 0.0205 0.8224 0.6139   -0.038785
 C 0.9161 0.2899 0.5051   -0.001762
 C 0.0738 0.3995 0.7395   -0.046341
 N 0.951 0.321 0.1491   -0.284591
 N 0.8381 0.108 0.1412   -0.285066
 N 0.05 0.0114 0.1022   -0.283636
 N 0.1517 0.2262 0.098   -0.288918
 N 0.9727 0.626 0.1352   -0.297243
 N 0.9384 0.1979 0.0443   -0.280177
 N 0.0486 0.1306 0.2038   -0.286205
 N 0.451 0.179 0.8509   -0.284591
 N 0.3381 0.392 0.8588   -0.285066
 N 0.55 0.4886 0.8978   -0.283636
 N 0.6517 0.2738 0.902   -0.288918
 N 0.4727 0.874 0.8648   -0.297243
 N 0.4384 0.3021 0.9557   -0.280177
 N 0.5486 0.3694 0.7962   -0.286205
 N 0.549 0.679 0.6491   -0.284591
 N 0.6619 0.892 0.6412   -0.285066
 N 0.45 0.9886 0.6022   -0.283636
 N 0.3483 0.7738 0.598   -0.288918
 N 0.5273 0.374 0.6352   -0.297243
 N 0.5616 0.8021 0.5443   -0.280177
 N 0.4514 0.8694 0.7038   -0.286206
 N 0.049 0.821 0.3509   -0.284591
 N 0.1619 0.608 0.3588   -0.285066
 N 0.95 0.5114 0.3978   -0.283636
 N 0.8483 0.7262 0.402   -0.288918
 N 0.0273 0.126 0.3648   -0.297243
 N 0.0616 0.6979 0.4557   -0.280177
 N 0.9514 0.6306 0.2962   -0.286206
 N 0.049 0.679 0.8509   -0.284591
 N 0.1619 0.892 0.8588   -0.285066
 N 0.95 0.9886 0.8978   -0.283636
 N 0.8483 0.7738 0.902   -0.288918
 N 0.0273 0.374 0.8648   -0.297243
 N 0.0616 0.8021 0.9557   -0.280177
 N 0.9514 0.8694 0.7962   -0.286205
 N 0.549 0.821 0.1491   -0.284591
 N 0.6619 0.608 0.1412   -0.285066
 N 0.45 0.5114 0.1022   -0.283636
 N 0.3483 0.7262 0.098   -0.288918
 N 0.5273 0.126 0.1352   -0.297243
 N 0.5616 0.6979 0.0443   -0.280177
 N 0.4514 0.6306 0.2038   -0.286205
 N 0.451 0.321 0.3509   -0.284591
 N 0.3381 0.108 0.3588   -0.285066
 N 0.55 0.0114 0.3978   -0.283636
 N 0.6517 0.2262 0.402   -0.288918
 N 0.4727 0.626 0.3648   -0.297243
 N 0.4384 0.1979 0.4557   -0.280177
 N 0.5486 0.1306 0.2962   -0.286205
 N 0.951 0.179 0.6491   -0.284591
 N 0.8381 0.392 0.6412   -0.285066
 N 0.05 0.4886 0.6022   -0.283636
 N 0.1517 0.2738 0.598   -0.288918
 N 0.9727 0.874 0.6352   -0.297243
 N 0.9384 0.3021 0.5443   -0.280177
 N 0.0486 0.3694 0.7038   -0.286205
