{'_ref': 'TBD', '_srcid': 'CAKYAQ_clean', 'submitters': [{'name': 'Dalar Nazarian Jeff Camp and David Sholl', 'email': 'dalar@gatech.edu jcamp6@gatech.edu'}], '_method': 'VASP DFT with PBE;DDEC'}
data_ZnH10C11NO4
_symmetry_space_group_name_H-M   'P 1'
_cell_length_a   10.92880000
_cell_length_b   10.92880000
_cell_length_c   9.60840000
_cell_angle_alpha   90.00000000
_cell_angle_beta   90.00000000
_cell_angle_gamma   90.00000000
_symmetry_Int_Tables_number   1
_chemical_formula_structural   ZnH10C11NO4
_chemical_formula_sum   'Zn2 H20 C22 N2 O8'
_cell_volume   1147.61451145
_cell_formula_units_Z   2
loop_
 _symmetry_equiv_pos_site_id
 _symmetry_equiv_pos_as_xyz
  1  'x, y, z'
loop_
 _atom_site_label
 _atom_site_fract_x
 _atom_site_fract_y
 _atom_site_fract_z
 _atom_site_charge
 Zn 0.48774 0.51207 0.14773   0.859961
 Zn 0.48774 0.51208 0.85226   0.860047
 H 0.52564 0.32803 0.37672   0.097976
 H 0.62924 0.6445 0.37538   0.099677
 H 0.30409 0.57561 0.37573   0.094916
 H 0.41414 0.69366 0.62442   0.095409
 H 0.36882 0.36388 0.62404   0.100704
 H 0.67643 0.49043 0.62317   0.095935
 H 0.62872 0.64505 0.6242   0.099498
 H 0.52625 0.32819 0.62297   0.097841
 H 0.30389 0.57497 0.62387   0.094976
 H 0.41481 0.69388 0.37593   0.095009
 H 0.67632 0.48972 0.37723   0.095839
 H 0.36833 0.36425 0.3763   0.100383
 H 0.10268 0.51361 0.7766   0.102458
 H 0.87216 0.49898 0.77662   0.103772
 H 0.483 0.12757 0.77655   0.104624
 H 0.49783 0.89702 0.77655   0.102602
 H 0.87216 0.49901 0.22345   0.103773
 H 0.10268 0.51365 0.22347   0.10257
 H 0.4829 0.12756 0.22341   0.104496
 H 0.49775 0.89699 0.22339   0.102505
 C 0.24986 0.52289 3.00000000024e-05   0.664763
 C 0.11415 0.51507 3.99999999985e-05   -0.079826
 C 0.72467 0.4949 5.00000000017e-05   0.661537
 C 0.86065 0.49807 3.99999999985e-05   -0.077464
 C 0.47507 0.27484 0.99997   0.662866
 C 0.48161 0.13903 0.99998   -0.077469
 C 0.50334 0.74961 0.99995   0.666131
 C 0.49881 0.88552 0.99997   -0.080415
 C 0.05077 0.51052 0.87352   -0.082217
 C 0.92408 0.50172 0.87355   -0.084262
 C 0.48596 0.07564 0.87346   -0.084827
 C 0.49487 0.94896 0.87346   -0.082508
 C 0.92408 0.50174 0.12653   -0.083997
 C 0.05077 0.51054 0.12655   -0.082413
 C 0.48591 0.07564 0.12649   -0.08446
 C 0.49483 0.94894 0.12648   -0.082494
 C 0.45739 0.39131 0.41987   -0.075628
 C 0.60872 0.55394 0.41976   -0.07397
 C 0.39267 0.60351 0.41965   -0.068877
 C 0.39247 0.60331 0.58033   -0.069599
 C 0.45764 0.39126 0.58014   -0.075517
 C 0.60863 0.55424 0.5802   -0.07408
 N 0.48635 0.51599 0.36686   -0.130163
 N 0.48634 0.51601 0.63313   -0.129851
 O 0.67246 0.49477 0.88179   -0.583667
 O 0.30198 0.52543 0.88171   -0.586154
 O 0.47326 0.32697 0.88172   -0.586769
 O 0.50423 0.69745 0.88156   -0.588475
 O 0.30198 0.52551 0.11835   -0.586123
 O 0.67247 0.49469 0.11831   -0.584238
 O 0.50432 0.69742 0.11832   -0.588268
 O 0.47317 0.32699 0.11821   -0.58654
