{'_ref': 'TBD', '_srcid': 'CAKYAQ_clean', 'submitters': [{'name': 'Dalar Nazarian Jeff Camp and David Sholl', 'email': 'dalar@gatech.edu jcamp6@gatech.edu'}], '_method': 'VASP DFT with PBE;DDEC'}
data_Zn3H10(C8O5)2
_symmetry_space_group_name_H-M   'P 1'
_cell_length_a   14.84800000
_cell_length_b   17.66399997
_cell_length_c   18.12900000
_cell_angle_alpha   112.14000169
_cell_angle_beta   90.00000000
_cell_angle_gamma   90.00000000
_symmetry_Int_Tables_number   1
_chemical_formula_structural   Zn3H10(C8O5)2
_chemical_formula_sum   'Zn18 H60 C96 O60'
_cell_volume   4404.19423461
_cell_formula_units_Z   6
loop_
 _symmetry_equiv_pos_site_id
 _symmetry_equiv_pos_as_xyz
  1  'x, y, z'
loop_
 _atom_site_label
 _atom_site_fract_x
 _atom_site_fract_y
 _atom_site_fract_z
 _atom_site_charge
 Zn 0.9018 0.99737 0.83362   1.055441
 Zn 0.4018 0.50263 0.66638   1.055441
 Zn 0.0982 0.00263 0.16638   1.055441
 Zn 0.5982 0.49737 0.33362   1.055441
 Zn 0.0955 0.00214 0.83316   1.072022
 Zn 0.5955 0.49786 0.66684   1.072022
 Zn 0.9045 0.99786 0.16684   1.072022
 Zn 0.4045 0.50214 0.33316   1.072022
 Zn 0.99619 0.99962 0.66562   1.148764
 Zn 0.49619 0.50038 0.83438   1.148764
 Zn 0.00381 0.00038 0.33438   1.148764
 Zn 0.50381 0.49962 0.16562   1.148764
 Zn 0.09847 0.00354 0.50495   1.072716
 Zn 0.59847 0.49646 0.99505   1.072716
 Zn 0.90153 0.99646 0.49505   1.072716
 Zn 0.40153 0.50354 0.00495   1.072716
 Zn 0.0 0.0 0.0   1.144118
 Zn 0.5 0.5 0.5   1.144118
 H 0.000700000000002 0.9099 0.8641   0.50042
 H 0.5007 0.5901 0.6359   0.50042
 H 0.9993 0.0901 0.1359   0.50042
 H 0.4993 0.4099 0.3641   0.50042
 H 0.994 0.0933 0.8045   0.489003
 H 0.494 0.4067 0.6955   0.489003
 H 0.006 0.9067 0.1955   0.489003
 H 0.506 0.5933 0.3045   0.489003
 H 0.000399999999999 0.908 0.528   0.495785
 H 0.5004 0.592 0.972   0.495785
 H 0.9996 0.092 0.472   0.495785
 H 0.4996 0.408 0.028   0.495785
 H 0.612 0.7178 0.6245   0.108733
 H 0.112 0.7822 0.8755   0.108733
 H 0.388 0.2822 0.3755   0.108733
 H 0.888 0.2178 0.1245   0.108733
 H 0.8028 0.6722 0.4535   0.109919
 H 0.3028 0.8278 0.0465   0.109919
 H 0.1972 0.3278 0.5465   0.109919
 H 0.6972 0.1722 0.9535   0.109919
 H 0.7005 0.8231 0.7109   0.114604
 H 0.2005 0.6769 0.7891   0.114604
 H 0.2995 0.1769 0.2891   0.114604
 H 0.7995 0.3231 0.2109   0.114604
 H 0.8916 0.7776 0.5398   0.107625
 H 0.3916 0.7224 0.9602   0.107625
 H 0.1084 0.2224 0.4602   0.107625
 H 0.6084 0.2776 0.0398   0.107625
 H 0.1809 0.1683 0.1367   0.096538
 H 0.6809 0.3317 0.3633   0.096538
 H 0.8191 0.8317 0.8633   0.096538
 H 0.3191 0.6683 0.6367   0.096538
 H 0.2479 0.7177 0.444   0.103184
 H 0.7479 0.7823 0.056   0.103184
 H 0.7521 0.2823 0.556   0.103184
 H 0.2521 0.2177 0.944   0.103184
 H 0.2518 0.7895 0.7196   0.099719
 H 0.7518 0.7105 0.7804   0.099719
 H 0.7482 0.2105 0.2804   0.099719
 H 0.2482 0.2895 0.2196   0.099719
 H 0.1809 0.8398 0.5267   0.097803
 H 0.6809 0.6602 0.9733   0.097803
 H 0.8191 0.1602 0.4733   0.097803
 H 0.3191 0.3398 0.0267   0.097803
 H 0.2488 0.7219 0.1185   0.102258
 H 0.7488 0.7781 0.3815   0.102258
 H 0.7512 0.2781 0.8815   0.102258
 H 0.2512 0.2219 0.6185   0.102258
 H 0.405 0.7244 0.3023   0.104876
 H 0.905 0.7756 0.1977   0.104876
 H 0.595 0.2756 0.6977   0.104876
 H 0.095 0.2244 0.8023   0.104876
 H 0.1732 0.8378 0.2028   0.096977
 H 0.6732 0.6622 0.2972   0.096977
 H 0.8268 0.1622 0.7972   0.096977
 H 0.3268 0.3378 0.7028   0.096977
 H 0.3228 0.8353 0.3886   0.111823
 H 0.8228 0.6647 0.1114   0.111823
 H 0.6772 0.1647 0.6114   0.111823
 H 0.1772 0.3353 0.8886   0.111823
 C 0.85689 0.11626 0.97602   0.693398
 C 0.35689 0.38374 0.52398   0.693398
 C 0.14311 0.88374 0.02398   0.693398
 C 0.64311 0.61626 0.47602   0.693398
 C 0.69957 0.68442 0.53091   -0.122223
 C 0.19957 0.81558 0.96909   -0.122223
 C 0.30043 0.31558 0.46909   -0.122223
 C 0.80043 0.18442 0.03091   -0.122223
 C 0.66888 0.72972 0.60744   -0.056493
 C 0.16888 0.77028 0.89256   -0.056493
 C 0.33112 0.27028 0.39256   -0.056493
 C 0.83112 0.22972 0.10744   -0.056493
 C 0.78225 0.70276 0.50601   -0.055545
 C 0.28225 0.79724 0.99399   -0.055545
 C 0.21775 0.29724 0.49399   -0.055545
 C 0.71775 0.20276 0.00601   -0.055545
 C 0.72143 0.79215 0.65867   -0.055992
 C 0.22143 0.70785 0.84133   -0.055992
 C 0.27857 0.20785 0.34133   -0.055992
 C 0.77857 0.29215 0.15867   -0.055992
 C 0.83508 0.76526 0.55712   -0.057948
 C 0.33508 0.73474 0.94288   -0.057948
 C 0.16492 0.23474 0.44288   -0.057948
 C 0.66492 0.26526 0.05712   -0.057948
 C 0.80492 0.80966 0.63387   -0.121328
 C 0.30492 0.69034 0.86613   -0.121328
 C 0.19508 0.19034 0.36613   -0.121328
 C 0.69508 0.30966 0.13387   -0.121328
 C 0.86179 0.87688 0.68949   0.694136
 C 0.36179 0.62312 0.81051   0.694136
 C 0.13821 0.12312 0.31051   0.694136
 C 0.63821 0.37688 0.18949   0.694136
 C 0.16355 0.10467 0.97939   0.71275
 C 0.66355 0.39533 0.52061   0.71275
 C 0.83645 0.89533 0.02061   0.71275
 C 0.33645 0.60467 0.47939   0.71275
 C 0.20976 0.18144 0.03238   -0.125134
 C 0.70976 0.31856 0.46762   -0.125134
 C 0.79024 0.81856 0.96762   -0.125134
 C 0.29024 0.68144 0.53238   -0.125134
 C 0.20894 0.20305 0.11436   -0.0532
 C 0.70894 0.29695 0.38564   -0.0532
 C 0.79106 0.79695 0.88564   -0.0532
 C 0.29106 0.70305 0.61436   -0.0532
 C 0.24881 0.7326 0.50006   -0.057833
 C 0.74881 0.7674 0.99994   -0.057833
 C 0.75119 0.2674 0.49994   -0.057833
 C 0.25119 0.2326 5.99999999977e-05   -0.057833
 C 0.25122 0.77502 0.66349   -0.056442
 C 0.75122 0.72498 0.83651   -0.056442
 C 0.74878 0.22498 0.33651   -0.056442
 C 0.24878 0.27502 0.16349   -0.056442
 C 0.20893 0.805 0.54905   -0.051772
 C 0.70893 0.695 0.95095   -0.051772
 C 0.79107 0.195 0.45095   -0.051772
 C 0.29107 0.305 0.04905   -0.051772
 C 0.21004 0.82655 0.63112   -0.125944
 C 0.71004 0.67345 0.86888   -0.125944
 C 0.78996 0.17345 0.36888   -0.125944
 C 0.28996 0.32655 0.13112   -0.125944
 C 0.16401 0.90303 0.68438   0.714608
 C 0.66401 0.59697 0.81562   0.714608
 C 0.83599 0.09697 0.31562   0.714608
 C 0.33599 0.40303 0.18438   0.714608
 C 0.12137 0.1337 0.64897   0.699495
 C 0.62137 0.3663 0.85103   0.699495
 C 0.87863 0.8663 0.35103   0.699495
 C 0.37863 0.6337 0.14897   0.699495
 C 0.16718 0.2108 0.70239   -0.120008
 C 0.66718 0.2892 0.79761   -0.120008
 C 0.83282 0.7892 0.29761   -0.120008
 C 0.33282 0.7108 0.20239   -0.120008
 C 0.26434 0.74524 0.17332   -0.057043
 C 0.76434 0.75476 0.32668   -0.057043
 C 0.73566 0.25476 0.82668   -0.057043
 C 0.23566 0.24524 0.67332   -0.057043
 C 0.35618 0.74598 0.28253   -0.057245
 C 0.85618 0.75402 0.21747   -0.057245
 C 0.64382 0.25402 0.71747   -0.057245
 C 0.14382 0.24598 0.78253   -0.057245
 C 0.21848 0.81341 0.22357   -0.051909
 C 0.71848 0.68659 0.27643   -0.051909
 C 0.78152 0.18659 0.77643   -0.051909
 C 0.28152 0.31341 0.72357   -0.051909
 C 0.3081 0.81262 0.33358   -0.062821
 C 0.8081 0.68738 0.16642   -0.062821
 C 0.6919 0.18738 0.66642   -0.062821
 C 0.1919 0.31262 0.83358   -0.062821
 C 0.23864 0.84628 0.3045   -0.115908
 C 0.73864 0.65372 0.1955   -0.115908
 C 0.76136 0.15372 0.6955   -0.115908
 C 0.26136 0.34628 0.8045   -0.115908
 C 0.18081 0.91453 0.35876   0.707855
 C 0.68081 0.58547 0.14124   0.707855
 C 0.81919 0.08547 0.64124   0.707855
 C 0.31919 0.41453 0.85876   0.707855
 O 0.00191 0.95202 0.87848   -1.010811
 O 0.50191 0.54798 0.62152   -1.010811
 O 0.99809 0.04798 0.12152   -1.010811
 O 0.49809 0.45202 0.37848   -1.010811
 O 0.99685 0.04748 0.78796   -1.008289
 O 0.49685 0.45252 0.71204   -1.008289
 O 0.00315 0.95252 0.21204   -1.008289
 O 0.50315 0.54748 0.28796   -1.008289
 O 0.99907 0.95175 0.54339   -1.013678
 O 0.49907 0.54825 0.95661   -1.013678
 O 0.000929999999997 0.04825 0.45661   -1.013678
 O 0.50093 0.45175 0.04339   -1.013678
 O 0.06654 0.89543 0.00127   -0.63853
 O 0.56654 0.60457 0.49873   -0.63853
 O 0.93346 0.10457 0.99873   -0.63853
 O 0.43346 0.39543 0.50127   -0.63853
 O 0.82314 0.07518 0.90863   -0.589734
 O 0.32314 0.42482 0.59137   -0.589734
 O 0.17686 0.92482 0.09137   -0.589734
 O 0.67686 0.57518 0.40863   -0.589734
 O 0.93789 0.8904 0.66706   -0.636829
 O 0.43789 0.6096 0.83294   -0.636829
 O 0.06211 0.1096 0.33294   -0.636829
 O 0.56211 0.3904 0.16706   -0.636829
 O 0.8284 0.91525 0.75793   -0.591645
 O 0.3284 0.58475 0.74207   -0.591645
 O 0.1716 0.08475 0.24207   -0.591645
 O 0.6716 0.41525 0.25793   -0.591645
 O 0.12643 0.06048 0.00981   -0.630846
 O 0.62643 0.43952 0.49019   -0.630846
 O 0.87357 0.93952 0.99019   -0.630846
 O 0.37357 0.56048 0.50981   -0.630846
 O 0.16496 0.09091 0.90517   -0.622097
 O 0.66496 0.40909 0.59483   -0.622097
 O 0.83504 0.90909 0.09483   -0.622097
 O 0.33504 0.59091 0.40517   -0.622097
 O 0.12783 0.94871 0.655   -0.633658
 O 0.62783 0.55129 0.845   -0.633658
 O 0.87217 0.05129 0.345   -0.633658
 O 0.37217 0.44871 0.155   -0.633658
 O 0.16465 0.91533 0.75821   -0.621104
 O 0.66465 0.58467 0.74179   -0.621104
 O 0.83535 0.08467 0.24179   -0.621104
 O 0.33535 0.41533 0.25821   -0.621104
 O 0.04873 0.11306 0.67115   -0.634248
 O 0.54873 0.38694 0.82885   -0.634248
 O 0.95127 0.88694 0.32885   -0.634248
 O 0.45127 0.61306 0.17115   -0.634248
 O 0.16112 0.09391 0.58388   -0.605396
 O 0.66112 0.40609 0.91612   -0.605396
 O 0.83888 0.90609 0.41612   -0.605396
 O 0.33888 0.59391 0.08388   -0.605396
 O 0.86501 0.04584 0.67133   -0.628716
 O 0.36501 0.45416 0.82867   -0.628716
 O 0.13499 0.95416 0.32867   -0.628716
 O 0.63499 0.54584 0.17133   -0.628716
 O 0.18138 0.92562 0.4326   -0.612142
 O 0.68138 0.57438 0.0674   -0.612142
 O 0.81862 0.07438 0.5674   -0.612142
 O 0.31862 0.42562 0.9326   -0.612142
