{'_ref': 'TBD', '_srcid': 'CAKYAQ_clean', 'submitters': [{'name': 'Dalar Nazarian Jeff Camp and David Sholl', 'email': 'dalar@gatech.edu jcamp6@gatech.edu'}], '_method': 'VASP DFT with PBE;DDEC'}
data_Zn4H13C9SN16O7
_symmetry_space_group_name_H-M   'P 1'
_cell_length_a   7.42670020
_cell_length_b   12.90819957
_cell_length_c   12.90820000
_cell_angle_alpha   87.85489973
_cell_angle_beta   85.46560210
_cell_angle_gamma   85.46560207
_symmetry_Int_Tables_number   1
_chemical_formula_structural   Zn4H13C9SN16O7
_chemical_formula_sum   'Zn8 H26 C18 S2 N32 O14'
_cell_volume   1229.10918934
_cell_formula_units_Z   2
loop_
 _symmetry_equiv_pos_site_id
 _symmetry_equiv_pos_as_xyz
  1  'x, y, z'
loop_
 _atom_site_label
 _atom_site_fract_x
 _atom_site_fract_y
 _atom_site_fract_z
 _atom_site_charge
 Zn 0.72233 0.38986 0.213   0.97617
 Zn 0.27767 0.787 0.61014   0.97617
 Zn 0.27767 0.61014 0.787   0.976171
 Zn 0.72233 0.213 0.38986   0.976171
 Zn 0.5 0.84553 0.15447   0.690527
 Zn 0.5 0.15447 0.84553   0.690527
 Zn 0.0 0.82075 0.17925   0.817718
 Zn 0.0 0.17925 0.82075   0.817718
 H 0.0582 0.504 0.2688   0.342937
 H 0.1157 0.6084 0.2634   0.328364
 H 0.9384 0.7382 0.8694   0.339865
 H 0.8685 0.7888 0.9634   0.326948
 H 0.5029 0.5935 0.1641   0.083771
 H 0.5131 0.6922 0.955   0.089282
 H 0.9418 0.7312 0.496   0.342937
 H 0.8843 0.7366 0.3916   0.328365
 H 0.0616 0.1306 0.2618   0.339865
 H 0.1315 0.0366 0.2112   0.326948
 H 0.4971 0.8359 0.4065   0.083771
 H 0.4869 0.045 0.3078   0.089282
 H 0.9418 0.496 0.7312   0.342937
 H 0.8843 0.3916 0.7366   0.328364
 H 0.0616 0.2618 0.1306   0.339865
 H 0.1315 0.2112 0.0366   0.326948
 H 0.4971 0.4065 0.8359   0.083771
 H 0.4869 0.3078 0.045   0.089281
 H 0.0582 0.2688 0.504   0.342938
 H 0.1157 0.2634 0.6084   0.328365
 H 0.9384 0.8694 0.7382   0.339865
 H 0.8685 0.9634 0.7888   0.326948
 H 0.5029 0.1641 0.5935   0.083771
 H 0.5131 0.955 0.6922   0.089281
 H 0.896 0.3547 0.3547   0.428427
 H 0.104 0.6453 0.6453   0.428427
 C 0.6181 0.61127 0.17635   0.275042
 C 0.8924 0.59974 0.2109   0.614214
 C 0.3923 0.7136 0.97234   0.283557
 C 0.108 0.73909 0.96641   0.632685
 C 0.3819 0.82365 0.38873   0.275043
 C 0.1076 0.7891 0.40026   0.614214
 C 0.6077 0.02766 0.2864   0.283557
 C 0.892 0.03359 0.26091   0.632684
 C 0.3819 0.38873 0.82365   0.275043
 C 0.1076 0.40026 0.7891   0.614214
 C 0.6077 0.2864 0.02766   0.283557
 C 0.892 0.26091 0.03359   0.632685
 C 0.6181 0.17635 0.61127   0.275044
 C 0.8924 0.2109 0.59974   0.614214
 C 0.3923 0.97234 0.7136   0.283557
 C 0.108 0.96641 0.73909   0.632685
 C 0.5902 0.97403 0.97403   0.505507
 C 0.4098 0.02597 0.02597   0.50551
 S 0.35188 0.31489 0.31489   1.667028
 S 0.64812 0.68511 0.68511   1.667028
 N 0.663 0.70691 0.17519   -0.217487
 N 0.8429 0.70033 0.19839   -0.411627
 N 0.756 0.54016 0.19712   -0.559848
 N 0.064 0.56165 0.22995   -0.715864
 N 0.3377 0.76565 0.05521   -0.240393
 N 0.1505 0.78357 0.05157   -0.408521
 N 0.2563 0.69393 0.91443   -0.57464
 N 0.9366 0.73532 0.93784   -0.732852
 N 0.337 0.82481 0.29309   -0.217487
 N 0.1571 0.80161 0.29967   -0.411627
 N 0.244 0.80288 0.45984   -0.559848
 N 0.936 0.77005 0.43835   -0.715865
 N 0.6623 0.94479 0.23435   -0.240392
 N 0.8495 0.94843 0.21643   -0.408521
 N 0.7437 0.08557 0.30607   -0.574639
 N 0.0634 0.06216 0.26468   -0.732852
 N 0.337 0.29309 0.82481   -0.217487
 N 0.1571 0.29967 0.80161   -0.411627
 N 0.244 0.45984 0.80288   -0.559848
 N 0.936 0.43835 0.77005   -0.715865
 N 0.6623 0.23435 0.94479   -0.240393
 N 0.8495 0.21643 0.94843   -0.408521
 N 0.7437 0.30607 0.08557   -0.574639
 N 0.0634 0.26468 0.06216   -0.732853
 N 0.663 0.17519 0.70691   -0.217488
 N 0.8429 0.19839 0.70033   -0.411627
 N 0.756 0.19712 0.54016   -0.559848
 N 0.064 0.22995 0.56165   -0.715865
 N 0.3377 0.05521 0.76565   -0.240393
 N 0.1505 0.05157 0.78357   -0.408521
 N 0.2563 0.91443 0.69393   -0.574639
 N 0.9366 0.93784 0.73532   -0.732853
 O 0.4618 0.39453 0.25973   -0.784448
 O 0.6561 0.89261 0.01743   -0.512969
 O 0.5382 0.74027 0.60547   -0.784448
 O 0.3439 0.98257 0.10739   -0.512969
 O 0.5382 0.60547 0.74027   -0.784448
 O 0.3439 0.10739 0.98257   -0.512969
 O 0.4618 0.25973 0.39453   -0.784448
 O 0.6561 0.01743 0.89261   -0.512969
 O 0.192 0.36848 0.36848   -0.752543
 O 0.302 0.24176 0.24176   -0.718378
 O 0.8601 0.31291 0.31291   -0.90666
 O 0.808 0.63152 0.63152   -0.752543
 O 0.698 0.75824 0.75824   -0.718378
 O 0.1399 0.68709 0.68709   -0.90666
