{'_ref': 'TBD', '_srcid': 'CAKYAQ_clean', 'submitters': [{'name': 'Dalar Nazarian Jeff Camp and David Sholl', 'email': 'dalar@gatech.edu jcamp6@gatech.edu'}], '_method': 'VASP DFT with PBE;DDEC'}
data_Mn2NbH8(C7N6)2
_symmetry_space_group_name_H-M   'P 1'
_cell_length_a   12.34800027
_cell_length_b   14.80200000
_cell_length_c   15.87790000
_cell_angle_alpha   90.00000000
_cell_angle_beta   107.93099726
_cell_angle_gamma   90.00000000
_symmetry_Int_Tables_number   1
_chemical_formula_structural   Mn2NbH8(C7N6)2
_chemical_formula_sum   'Mn8 Nb4 H32 C56 N48'
_cell_volume   2761.12465205
_cell_formula_units_Z   4
loop_
 _symmetry_equiv_pos_site_id
 _symmetry_equiv_pos_as_xyz
  1  'x, y, z'
loop_
 _atom_site_label
 _atom_site_fract_x
 _atom_site_fract_y
 _atom_site_fract_z
 _atom_site_charge
 Mn 0.31838 0.0804 0.79617   1.095197
 Mn 0.16979 0.07837 0.20224   1.090554
 Mn 0.18162 0.5804 0.70383   1.095197
 Mn 0.33021 0.57837 0.29776   1.090554
 Mn 0.68162 0.9196 0.20383   1.095195
 Mn 0.83021 0.92163 0.79776   1.090553
 Mn 0.81838 0.4196 0.29617   1.095195
 Mn 0.66979 0.42163 0.70224   1.090553
 Nb 0.74544 0.20821 0.99855   0.298907
 Nb 0.75456 0.70821 0.50145   0.298907
 Nb 0.25456 0.79179 0.00145   0.298907
 Nb 0.24544 0.29179 0.49855   0.298907
 H 0.024 0.1628 0.9466   0.292135
 H 0.3827 0.3108 0.074   0.332907
 H 0.1126 0.2408 0.7464   0.093128
 H 0.9697 0.264 0.8214   0.135077
 H 0.1859 0.08 0.9484   0.075623
 H 0.3952 0.0576 0.1278   0.094608
 H 0.4864 0.1715 0.0666   0.116617
 H 0.2304 0.2788 0.1315   0.106229
 H 0.476 0.6628 0.5534   0.292135
 H 0.1173 0.8108 0.426   0.332907
 H 0.3874 0.7408 0.7536   0.093128
 H 0.5303 0.764 0.6786   0.135077
 H 0.3141 0.58 0.5516   0.075623
 H 0.1048 0.5576 0.3722   0.094608
 H 0.0136 0.6715 0.4334   0.116617
 H 0.2696 0.7788 0.3685   0.106229
 H 0.976 0.8372 0.0534   0.292135
 H 0.6173 0.6892 0.926   0.332907
 H 0.8874 0.7592 0.2536   0.093128
 H 0.0303 0.736 0.1786   0.135077
 H 0.8141 0.92 0.0516   0.075623
 H 0.6048 0.9424 0.8722   0.094608
 H 0.5136 0.8285 0.9334   0.116617
 H 0.7696 0.7212 0.8685   0.106229
 H 0.524 0.3372 0.4466   0.292135
 H 0.8827 0.1892 0.574   0.332907
 H 0.6126 0.2592 0.2464   0.093128
 H 0.4697 0.236 0.3214   0.135077
 H 0.6859 0.42 0.4484   0.075623
 H 0.8952 0.4424 0.6278   0.094608
 H 0.9864 0.3285 0.5666   0.116617
 H 0.7304 0.2212 0.6315   0.106229
 C 0.1108 0.2115 0.7978   0.028934
 C 0.0313 0.2246 0.8382   -0.077827
 C 0.1515 0.1243 0.9074   0.230267
 C 0.3734 0.118 0.121   0.028448
 C 0.4246 0.1795 0.0876   -0.028327
 C 0.2834 0.2375 0.1239   0.226968
 C 0.5717 0.15365 0.9238   0.114742
 C 0.91885 0.15174 0.07195   0.120129
 C 0.78564 0.09897 0.91404   0.098924
 C 0.69445 0.26986 0.86235   0.148045
 C 0.87121 0.31489 0.99081   -0.006664
 C 0.70733 0.09658 0.08133   0.101248
 C 0.62486 0.31872 0.00656   0.007778
 C 0.79583 0.26752 0.13583   0.135752
 C 0.3892 0.7115 0.7022   0.028934
 C 0.4687 0.7246 0.6618   -0.077827
 C 0.3485 0.6243 0.5926   0.230267
 C 0.1266 0.618 0.379   0.028448
 C 0.0754 0.6795 0.4124   -0.028327
 C 0.2166 0.7375 0.3761   0.226968
 C 0.9283 0.65365 0.5762   0.114742
 C 0.58115 0.65174 0.42805   0.120129
 C 0.71436 0.59897 0.58596   0.098924
 C 0.80555 0.76986 0.63765   0.148045
 C 0.62879 0.81489 0.50919   -0.006664
 C 0.79267 0.59658 0.41867   0.101248
 C 0.87514 0.81872 0.49344   0.007778
 C 0.70417 0.76752 0.36417   0.135752
 C 0.8892 0.7885 0.2022   0.028934
 C 0.9687 0.7754 0.1618   -0.077827
 C 0.8485 0.8757 0.0926   0.230267
 C 0.6266 0.882 0.879   0.028448
 C 0.5754 0.8205 0.9124   -0.028327
 C 0.7166 0.7625 0.8761   0.226969
 C 0.4283 0.84635 0.0762   0.114742
 C 0.08115 0.84826 0.92805   0.120129
 C 0.21436 0.90103 0.08596   0.098924
 C 0.30555 0.73014 0.13765   0.148045
 C 0.12879 0.68511 0.00919   -0.006663
 C 0.29267 0.90342 0.91867   0.101248
 C 0.37514 0.68128 0.99344   0.007778
 C 0.20417 0.73248 0.86417   0.135752
 C 0.6108 0.2885 0.2978   0.028934
 C 0.5313 0.2754 0.3382   -0.077827
 C 0.6515 0.3757 0.4074   0.230267
 C 0.8734 0.382 0.621   0.028448
 C 0.9246 0.3205 0.5876   -0.028327
 C 0.7834 0.2625 0.6239   0.226969
 C 0.0717 0.34635 0.4238   0.114742
 C 0.41885 0.34826 0.57195   0.120129
 C 0.28564 0.40103 0.41404   0.098924
 C 0.19445 0.23014 0.36235   0.148045
 C 0.37121 0.18511 0.49081   -0.006663
 C 0.20733 0.40342 0.58133   0.101248
 C 0.12486 0.18128 0.50656   0.007778
 C 0.29583 0.23248 0.63583   0.135752
 N 0.18887 0.14908 0.84287   -0.448377
 N 0.0596 0.1686 0.9081   -0.186953
 N 0.28502 0.15218 0.14462   -0.456221
 N 0.3674 0.2582 0.0904   -0.236038
 N 0.4822 0.12826 0.88512   -0.44119
 N 0.00862 0.1253 0.10769   -0.455694
 N 0.80667 0.04263 0.87237   -0.465385
 N 0.6719 0.30549 0.795   -0.460495
 N 0.93674 0.36705 0.98444   -0.401029
 N 0.69087 0.03966 0.12447   -0.455022
 N 0.56493 0.37568 0.01283   -0.411621
 N 0.81541 0.30273 0.20341   -0.44137
 N 0.31113 0.64908 0.65713   -0.448377
 N 0.4404 0.6686 0.5919   -0.186953
 N 0.21498 0.65218 0.35538   -0.456221
 N 0.1326 0.7582 0.4096   -0.236038
 N 0.0178 0.62826 0.61488   -0.44119
 N 0.49138 0.6253 0.39231   -0.455694
 N 0.69333 0.54263 0.62763   -0.465385
 N 0.8281 0.80549 0.705   -0.460495
 N 0.56326 0.86705 0.51556   -0.401029
 N 0.80913 0.53966 0.37553   -0.455022
 N 0.93507 0.87568 0.48717   -0.411621
 N 0.68459 0.80273 0.29659   -0.44137
 N 0.81113 0.85092 0.15713   -0.448377
 N 0.9404 0.8314 0.0919   -0.186953
 N 0.71498 0.84782 0.85538   -0.456221
 N 0.6326 0.7418 0.9096   -0.236038
 N 0.5178 0.87174 0.11488   -0.44119
 N 0.99138 0.8747 0.89231   -0.455694
 N 0.19333 0.95737 0.12763   -0.465385
 N 0.3281 0.69451 0.205   -0.460495
 N 0.06326 0.63295 0.01556   -0.40103
 N 0.30913 0.96034 0.87553   -0.455022
 N 0.43507 0.62432 0.98717   -0.411622
 N 0.18459 0.69727 0.79659   -0.44137
 N 0.68887 0.35092 0.34287   -0.448377
 N 0.5596 0.3314 0.4081   -0.186953
 N 0.78502 0.34782 0.64462   -0.456221
 N 0.8674 0.2418 0.5904   -0.236038
 N 0.9822 0.37174 0.38512   -0.44119
 N 0.50862 0.3747 0.60769   -0.455694
 N 0.30667 0.45737 0.37237   -0.465385
 N 0.1719 0.19451 0.295   -0.460495
 N 0.43674 0.13295 0.48444   -0.40103
 N 0.19087 0.46034 0.62447   -0.455022
 N 0.06493 0.12432 0.51283   -0.411622
 N 0.31541 0.19727 0.70341   -0.44137
