{'_ref': 'TBD', '_srcid': 'CAKYAQ_clean', 'submitters': [{'name': 'Dalar Nazarian Jeff Camp and David Sholl', 'email': 'dalar@gatech.edu jcamp6@gatech.edu'}], '_method': 'VASP DFT with PBE;DDEC'}
data_Co3H6C21N20
_symmetry_space_group_name_H-M   'P 1'
_cell_length_a   13.65500037
_cell_length_b   15.18900000
_cell_length_c   20.91210000
_cell_angle_alpha   90.00000000
_cell_angle_beta   102.48800070
_cell_angle_gamma   90.00000000
_symmetry_Int_Tables_number   1
_chemical_formula_structural   Co3H6C21N20
_chemical_formula_sum   'Co12 H24 C84 N80'
_cell_volume   4234.67623975
_cell_formula_units_Z   4
loop_
 _symmetry_equiv_pos_site_id
 _symmetry_equiv_pos_as_xyz
  1  'x, y, z'
loop_
 _atom_site_label
 _atom_site_fract_x
 _atom_site_fract_y
 _atom_site_fract_z
 _atom_site_charge
 Co 0.24474 0.25907 0.46109   0.831503
 Co 0.81889 0.25703 0.60305   0.814535
 Co 0.29857 0.36575 0.79981   0.625955
 Co 0.25526 0.75907 0.03891   0.831501
 Co 0.68111 0.75703 0.89695   0.814533
 Co 0.20143 0.86575 0.70019   0.62595
 Co 0.75526 0.74093 0.53891   0.831447
 Co 0.18111 0.74297 0.39695   0.81448
 Co 0.70143 0.63425 0.20019   0.625954
 Co 0.74474 0.24093 0.96109   0.831446
 Co 0.31889 0.24297 0.10305   0.814478
 Co 0.79857 0.13425 0.29981   0.625949
 H 0.4503 0.3495 0.6964   0.10896
 H 0.4333 0.3198 0.5859   0.118082
 H 0.0036 0.2301 0.4101   0.10526
 H 0.863 0.2327 0.4564   0.104744
 H 0.9141 0.3055 0.7607   0.113652
 H 0.0703 0.3372 0.8238   0.102544
 H 0.0497 0.8495 0.8036   0.10896
 H 0.0667 0.8198 0.9141   0.118082
 H 0.4964 0.7301 0.0899   0.105261
 H 0.637 0.7327 0.0436   0.104744
 H 0.5859 0.8055 0.7393   0.113653
 H 0.4297 0.8372 0.6762   0.102545
 H 0.5497 0.6505 0.3036   0.10896
 H 0.5667 0.6802 0.4141   0.118083
 H 0.9964 0.7699 0.5899   0.105261
 H 0.137 0.7673 0.5436   0.104744
 H 0.0859 0.6945 0.2393   0.113653
 H 0.9297 0.6628 0.1762   0.102544
 H 0.9503 0.1505 0.1964   0.108961
 H 0.9333 0.1802 0.0859   0.118083
 H 0.5036 0.2699 0.9101   0.105261
 H 0.363 0.2673 0.9564   0.104745
 H 0.4141 0.1945 0.2607   0.113653
 H 0.5703 0.1628 0.3238   0.102545
 C 0.3178 0.1432 0.8118   -0.143591
 C 0.2077 0.2972 0.5945   0.133682
 C 0.1081 0.2752 0.5549   0.11791
 C 0.0264 0.2748 0.5822   0.11838
 C 0.037 0.2953 0.6514   0.131843
 C 0.1301 0.3155 0.6905   0.114076
 C 0.2194 0.3166 0.6603   0.110297
 C 0.3858 0.3358 0.6707   0.096651
 C 0.3758 0.3169 0.6046   0.101487
 C 0.0121 0.2426 0.4555   0.136337
 C 0.9272 0.2428 0.4837   0.127938
 C 0.9698 0.3079 0.7403   0.111469
 C 0.0638 0.3269 0.7783   0.095876
 C 0.272 0.0583 0.5093   0.608473
 C 0.2424 0.4393 0.9274   0.556774
 C 0.1552 0.2354 0.31   0.626447
 C 0.6801 0.2691 0.7062   0.598492
 C 0.4692 0.2533 0.4422   0.547713
 C 0.6368 0.2392 0.4819   0.571552
 C 0.8761 0.056 0.64   0.576865
 C 0.5225 0.4422 0.8357   0.556703
 C 0.1822 0.6432 0.6882   -0.143637
 C 0.2923 0.7972 0.9055   0.133674
 C 0.3919 0.7752 0.9451   0.117907
 C 0.4736 0.7748 0.9178   0.118378
 C 0.463 0.7953 0.8486   0.131834
 C 0.3699 0.8155 0.8095   0.114072
 C 0.2806 0.8166 0.8397   0.110293
 C 0.1142 0.8358 0.8293   0.096645
 C 0.1242 0.8169 0.8954   0.101485
 C 0.4879 0.7426 0.0445   0.136336
 C 0.5728 0.7428 0.0163   0.127938
 C 0.5302 0.8079 0.7597   0.11146
 C 0.4362 0.8269 0.7217   0.095865
 C 0.228 0.5583 0.9907   0.60844
 C 0.2576 0.9393 0.5726   0.556738
 C 0.3448 0.7354 0.19   0.626448
 C 0.8199 0.7691 0.7938   0.598479
 C 0.0308 0.7533 0.0578   0.547713
 C 0.8632 0.7392 0.0181   0.571552
 C 0.6239 0.556 0.86   0.576832
 C 0.9775 0.9422 0.6643   0.556671
 C 0.6822 0.8568 0.1882   -0.143617
 C 0.7923 0.7028 0.4055   0.133681
 C 0.8919 0.7248 0.4451   0.117905
 C 0.9736 0.7252 0.4178   0.118376
 C 0.963 0.7047 0.3486   0.131841
 C 0.8699 0.6845 0.3095   0.114076
 C 0.7806 0.6834 0.3397   0.110297
 C 0.6142 0.6642 0.3293   0.09665
 C 0.6242 0.6831 0.3954   0.10148
 C 0.9879 0.7574 0.5445   0.136325
 C 0.0728 0.7572 0.5163   0.127927
 C 0.0302 0.6921 0.2597   0.111457
 C 0.9362 0.6731 0.2217   0.095877
 C 0.728 0.9417 0.4907   0.60846
 C 0.7576 0.5607 0.0726   0.556776
 C 0.8448 0.7646 0.69   0.626412
 C 0.3199 0.7309 0.2938   0.598472
 C 0.5308 0.7467 0.5578   0.547701
 C 0.3632 0.7608 0.5181   0.571548
 C 0.1239 0.944 0.36   0.576853
 C 0.4775 0.5578 0.1643   0.556704
 C 0.8178 0.3568 0.3118   -0.143662
 C 0.7077 0.2028 0.0945   0.133673
 C 0.6081 0.2248 0.0549   0.117903
 C 0.5264 0.2252 0.0822   0.118374
 C 0.537 0.2047 0.1514   0.131833
 C 0.6301 0.1845 0.1905   0.114072
 C 0.7194 0.1834 0.1603   0.110293
 C 0.8858 0.1642 0.1707   0.096644
 C 0.8758 0.1831 0.1046   0.101479
 C 0.5121 0.2574 0.9555   0.136325
 C 0.4272 0.2572 0.9837   0.127927
 C 0.4698 0.1921 0.2403   0.111449
 C 0.5638 0.1731 0.2783   0.095866
 C 0.772 0.4417 0.0093   0.608427
 C 0.7424 0.0607 0.4274   0.55674
 C 0.6552 0.2646 0.81   0.626412
 C 0.1801 0.2309 0.2062   0.598459
 C 0.9692 0.2467 0.9422   0.547701
 C 0.1368 0.2608 0.9819   0.571548
 C 0.3761 0.444 0.14   0.576821
 C 0.0225 0.0578 0.3357   0.556672
 N 0.2867 0.2946 0.5662   -0.294203
 N 0.1023 0.2591 0.4898   -0.28867
 N 0.9341 0.2567 0.5467   -0.287906
 N 0.955 0.293 0.6769   -0.291916
 N 0.1446 0.3311 0.7533   -0.145566
 N 0.3074 0.3351 0.6991   -0.153592
 N 0.2602 0.1289 0.4889   -0.627426
 N 0.2884 0.9795 0.5237   -0.527119
 N 0.2626 0.3991 0.8868   -0.49737
 N 0.1792 0.2436 0.3636   -0.589279
 N 0.1183 0.2233 0.2466   -0.567615
 N 0.7259 0.2658 0.6668   -0.6057
 N 0.388 0.265 0.4461   -0.577918
 N 0.5617 0.265 0.4303   -0.532157
 N 0.7053 0.2426 0.5207   -0.542275
 N 0.8476 0.1263 0.6234   -0.600769
 N 0.8914 0.9762 0.6555   -0.490456
 N 0.4497 0.4013 0.8249   -0.533987
 N 0.3257 0.2373 0.8248   -0.43599
 N 0.2545 0.4915 0.7646   -0.230504
 N 0.2133 0.7946 0.9338   -0.294202
 N 0.3977 0.7591 0.0102   -0.28867
 N 0.5659 0.7567 0.9533   -0.287906
 N 0.545 0.793 0.8231   -0.291915
 N 0.3554 0.8311 0.7467   -0.145564
 N 0.1926 0.8351 0.8009   -0.15359
 N 0.2398 0.6289 0.0111   -0.627422
 N 0.2116 0.4795 0.9763   -0.527118
 N 0.2374 0.8991 0.6132   -0.497364
 N 0.3208 0.7436 0.1364   -0.589279
 N 0.3817 0.7233 0.2534   -0.567617
 N 0.7741 0.7658 0.8332   -0.605698
 N 0.112 0.765 0.0539   -0.577918
 N 0.9383 0.765 0.0697   -0.532157
 N 0.7947 0.7426 0.9793   -0.542275
 N 0.6524 0.6263 0.8766   -0.600765
 N 0.6086 0.4762 0.8445   -0.490456
 N 0.0503 0.9013 0.6751   -0.533982
 N 0.1743 0.7373 0.6752   -0.435985
 N 0.2455 0.9915 0.7354   -0.230506
 N 0.7133 0.7054 0.4338   -0.294195
 N 0.8977 0.7409 0.5102   -0.288662
 N 0.0659 0.7433 0.4533   -0.287899
 N 0.045 0.707 0.3231   -0.291908
 N 0.8554 0.6689 0.2467   -0.145567
 N 0.6926 0.6649 0.3009   -0.153592
 N 0.7398 0.8711 0.5111   -0.627415
 N 0.7116 0.0205 0.4763   -0.527109
 N 0.7374 0.6009 0.1132   -0.49737
 N 0.8208 0.7564 0.6364   -0.589265
 N 0.8817 0.7767 0.7534   -0.567612
 N 0.2741 0.7342 0.3332   -0.605691
 N 0.612 0.735 0.5539   -0.57791
 N 0.4383 0.735 0.5697   -0.532154
 N 0.2947 0.7574 0.4793   -0.542265
 N 0.1524 0.8737 0.3766   -0.600758
 N 0.1086 0.0238 0.3445   -0.490448
 N 0.5503 0.5987 0.1751   -0.533986
 N 0.6743 0.7627 0.1752   -0.435987
 N 0.7455 0.5085 0.2354   -0.230503
 N 0.7867 0.2054 0.0662   -0.294194
 N 0.6023 0.2409 0.9898   -0.288662
 N 0.4341 0.2433 0.0467   -0.287898
 N 0.455 0.207 0.1769   -0.291907
 N 0.6446 0.1689 0.2533   -0.145565
 N 0.8074 0.1649 0.1991   -0.15359
 N 0.7602 0.3711 0.9889   -0.627411
 N 0.7884 0.5205 0.0237   -0.527109
 N 0.7626 0.1009 0.3868   -0.497364
 N 0.6792 0.2564 0.8636   -0.589265
 N 0.6183 0.2767 0.7466   -0.567614
 N 0.2259 0.2342 0.1668   -0.605689
 N 0.888 0.235 0.9461   -0.57791
 N 0.0617 0.235 0.9303   -0.532154
 N 0.2053 0.2574 0.0207   -0.542265
 N 0.3476 0.3737 0.1234   -0.600753
 N 0.3914 0.5238 0.1555   -0.490447
 N 0.9497 0.0987 0.3249   -0.533981
 N 0.8257 0.2627 0.3248   -0.435982
 N 0.7545 0.0085 0.2646   -0.230505
