{'_ref': 'TBD', '_srcid': 'CAKYAQ_clean', 'submitters': [{'name': 'Dalar Nazarian Jeff Camp and David Sholl', 'email': 'dalar@gatech.edu jcamp6@gatech.edu'}], '_method': 'VASP DFT with PBE;DDEC'}
data_Co3H16(C2O)16
_symmetry_space_group_name_H-M   'P 1'
_cell_length_a   9.71870000
_cell_length_b   17.19919963
_cell_length_c   18.39200000
_cell_angle_alpha   92.15829991
_cell_angle_beta   90.00000000
_cell_angle_gamma   106.41100120
_symmetry_Int_Tables_number   1
_chemical_formula_structural   Co3H16(C2O)16
_chemical_formula_sum   'Co6 H32 C64 O32'
_cell_volume   2946.77267878
_cell_formula_units_Z   2
loop_
 _symmetry_equiv_pos_site_id
 _symmetry_equiv_pos_as_xyz
  1  'x, y, z'
loop_
 _atom_site_label
 _atom_site_fract_x
 _atom_site_fract_y
 _atom_site_fract_z
 _atom_site_charge
 Co 0.54739 0.69542 0.01291   1.164783
 Co 0.85197 0.30458 0.48709   1.177831
 Co 0.45261 0.30458 0.98709   1.164783
 Co 0.14803 0.69542 0.51291   1.177831
 Co 0.5 0.5 0.0   1.047509
 Co 0.0 0.5 0.5   1.23005
 H 0.9077 0.74 0.6979   0.128916
 H 0.8461 0.499 0.7177   0.121705
 H 0.734 0.5056 0.8305   0.109288
 H 0.8125 0.49 0.0817   0.102593
 H 0.9546 0.4344 0.8846   0.111261
 H 0.6908 0.116 0.0115   0.116002
 H 0.2758 0.0144 0.9754   0.111977
 H 0.7991 0.7464 0.8094   0.119644
 H 0.1677 0.26 0.8021   0.130001
 H 0.3471 0.501 0.7823   0.122378
 H 0.2284 0.4944 0.6695   0.110567
 H 0.3225 0.51 0.4183   0.103132
 H 0.5202 0.5656 0.6154   0.109388
 H 0.5748 0.884 0.4885   0.115869
 H 0.2614 0.9856 0.5246   0.111755
 H 0.0527 0.2536 0.6906   0.119761
 H 0.0923 0.26 0.3021   0.128916
 H 0.1539 0.501 0.2823   0.121681
 H 0.266 0.4944 0.1695   0.109289
 H 0.1875 0.51 0.9183   0.102567
 H 0.0454 0.5656 0.1154   0.111266
 H 0.3092 0.884 0.9885   0.115979
 H 0.7242 0.9856 0.0246   0.111954
 H 0.2009 0.2536 0.1906   0.119642
 H 0.8323 0.74 0.1979   0.130001
 H 0.6529 0.499 0.2177   0.122344
 H 0.7716 0.5056 0.3305   0.110568
 H 0.6775 0.49 0.5817   0.103111
 H 0.4798 0.4344 0.3846   0.10939
 H 0.4252 0.116 0.5115   0.115847
 H 0.7386 0.0144 0.4754   0.111728
 H 0.9473 0.7464 0.3094   0.119758
 C 0.96117 0.61374 0.62579   0.693201
 C 0.88657 0.61894 0.69698   -0.104787
 C 0.87276 0.69232 0.72451   -0.052887
 C 0.83581 0.54922 0.73632   -0.065375
 C 0.7693 0.5532 0.80358   -0.052022
 C 0.75551 0.62722 0.83046   -0.115103
 C 0.68446 0.63052 0.90213   0.693371
 C 0.71177 0.40694 0.95903   0.647686
 C 0.86229 0.45678 0.98052   -0.093137
 C 0.88904 0.49448 0.04855   -0.046285
 C 0.97331 0.46122 0.9311   -0.063428
 C 0.45638 0.15876 0.9876   0.656944
 C 0.47931 0.07542 0.995   -0.097427
 C 0.61128 0.06876 0.0073   -0.070065
 C 0.36847 0.00934 0.9862   -0.067048
 C 0.80801 0.69582 0.79066   -0.048961
 C 0.34743 0.38626 0.87421   0.683705
 C 0.26763 0.38106 0.80302   -0.10427
 C 0.18044 0.30768 0.77549   -0.053282
 C 0.28659 0.45078 0.76368   -0.069267
 C 0.2161 0.4468 0.69642   -0.049772
 C 0.12829 0.37278 0.66954   -0.114775
 C 0.05394 0.36948 0.59787   0.699637
 C 0.30483 0.59306 0.54097   0.656191
 C 0.40551 0.54322 0.51948   -0.097231
 C 0.39456 0.50552 0.45145   -0.047231
 C 0.51209 0.53878 0.5689   -0.064644
 C 0.29762 0.84124 0.5124   0.657024
 C 0.40389 0.92458 0.505   -0.098506
 C 0.54252 0.93124 0.4927   -0.071071
 C 0.35913 0.99066 0.5138   -0.064775
 C 0.11219 0.30418 0.70934   -0.049329
 C 0.03883 0.38626 0.37421   0.693198
 C 0.11343 0.38106 0.30302   -0.104792
 C 0.12724 0.30768 0.27549   -0.05289
 C 0.16419 0.45078 0.26368   -0.065378
 C 0.2307 0.4468 0.19642   -0.052029
 C 0.24449 0.37278 0.16954   -0.115122
 C 0.31554 0.36948 0.09787   0.693357
 C 0.28823 0.59306 0.04097   0.647683
 C 0.13771 0.54322 0.01948   -0.093114
 C 0.11096 0.50552 0.95145   -0.046407
 C 0.02669 0.53878 0.0689   -0.063521
 C 0.54362 0.84124 0.0124   0.656949
 C 0.52069 0.92458 0.005   -0.097459
 C 0.38872 0.93124 0.9927   -0.069978
 C 0.63153 0.99066 0.0138   -0.06696
 C 0.19199 0.30418 0.20934   -0.048961
 C 0.65257 0.61374 0.12579   0.683698
 C 0.73237 0.61894 0.19698   -0.104276
 C 0.81956 0.69232 0.22451   -0.053284
 C 0.71341 0.54922 0.23632   -0.069263
 C 0.7839 0.5532 0.30358   -0.049778
 C 0.87171 0.62722 0.33046   -0.114788
 C 0.94606 0.63052 0.40213   0.699628
 C 0.69517 0.40694 0.45903   0.65619
 C 0.59449 0.45678 0.48052   -0.097222
 C 0.60544 0.49448 0.54855   -0.047303
 C 0.48791 0.46122 0.4311   -0.064696
 C 0.70238 0.15876 0.4876   0.657028
 C 0.59611 0.07542 0.495   -0.098536
 C 0.45748 0.06876 0.5073   -0.070988
 C 0.64087 0.00934 0.4862   -0.064691
 C 0.88781 0.69582 0.29066   -0.04933
 O 0.66816 0.57132 0.94325   -0.57635
 O 0.64918 0.69436 0.91828   -0.542481
 O 0.95705 0.5453 0.59987   -0.580626
 O 0.02119 0.68118 0.59707   -0.572108
 O 0.55978 0.21976 0.9958   -0.540947
 O 0.33991 0.16542 0.9714   -0.523342
 O 0.61091 0.40782 0.00492   -0.625708
 O 0.69019 0.36558 0.90147   -0.498184
 O 0.09684 0.42868 0.55675   -0.608643
 O 0.95482 0.30564 0.58172   -0.545429
 O 0.41175 0.4547 0.90013   -0.526265
 O 0.34001 0.31882 0.90293   -0.571072
 O 0.34002 0.78024 0.5042   -0.541333
 O 0.17449 0.83458 0.5286   -0.525857
 O 0.20309 0.59218 0.49508   -0.668093
 O 0.32461 0.63442 0.59853   -0.506127
 O 0.33184 0.42868 0.05675   -0.576348
 O 0.35082 0.30564 0.08172   -0.542481
 O 0.04295 0.4547 0.40013   -0.580625
 O 0.97881 0.31882 0.40293   -0.572107
 O 0.44022 0.78024 0.0042   -0.540948
 O 0.66009 0.83458 0.0286   -0.523343
 O 0.38909 0.59218 0.99508   -0.625704
 O 0.30981 0.63442 0.09853   -0.498183
 O 0.90316 0.57132 0.44325   -0.608641
 O 0.04518 0.69436 0.41828   -0.545425
 O 0.58825 0.5453 0.09987   -0.526264
 O 0.65999 0.68118 0.09707   -0.571071
 O 0.65998 0.21976 0.4958   -0.541333
 O 0.82551 0.16542 0.4714   -0.525855
 O 0.79691 0.40782 0.50492   -0.668089
 O 0.67539 0.36558 0.40147   -0.506127
