{'_ref': 'TBD', '_srcid': 'CAKYAQ_clean', 'submitters': [{'name': 'Dalar Nazarian Jeff Camp and David Sholl', 'email': 'dalar@gatech.edu jcamp6@gatech.edu'}], '_method': 'VASP DFT with PBE;DDEC'}
data_CuBH20(C2N)8
_symmetry_space_group_name_H-M   'P 1'
_cell_length_a   16.01840000
_cell_length_b   16.01840000
_cell_length_c   16.01840000
_cell_angle_alpha   90.00000000
_cell_angle_beta   90.00000000
_cell_angle_gamma   90.00000000
_symmetry_Int_Tables_number   1
_chemical_formula_structural   CuBH20(C2N)8
_chemical_formula_sum   'Cu6 B6 H120 C96 N48'
_cell_volume   4110.14745711
_cell_formula_units_Z   6
loop_
 _symmetry_equiv_pos_site_id
 _symmetry_equiv_pos_as_xyz
  1  'x, y, z'
loop_
 _atom_site_label
 _atom_site_fract_x
 _atom_site_fract_y
 _atom_site_fract_z
 _atom_site_charge
 Cu 0.5 0.0 0.25   0.29887
 Cu 0.5 0.0 0.75   0.29887
 Cu 0.25 0.5 0.0   0.29887
 Cu 0.75 0.5 0.0   0.29887
 Cu 0.0 0.25 0.5   0.29887
 Cu 0.0 0.75 0.5   0.29887
 B 0.25 0.0 0.5   0.527584
 B 0.75 0.0 0.5   0.527584
 B 0.5 0.25 0.0   0.527584
 B 0.5 0.75 0.0   0.527584
 B 0.0 0.5 0.25   0.527584
 B 0.0 0.5 0.75   0.527584
 H 0.2642 0.1493 0.3988   0.117705
 H 0.7358 0.8507 0.3988   0.117705
 H 0.7358 0.1493 0.6012   0.117705
 H 0.2642 0.8507 0.6012   0.117705
 H 0.3988 0.2642 0.1493   0.117705
 H 0.3988 0.7358 0.8507   0.117705
 H 0.6012 0.7358 0.1493   0.117705
 H 0.6012 0.2642 0.8507   0.117705
 H 0.1493 0.3988 0.2642   0.117705
 H 0.8507 0.3988 0.7358   0.117705
 H 0.1493 0.6012 0.7358   0.117705
 H 0.8507 0.6012 0.2642   0.117705
 H 0.6493 0.7642 0.8988   0.117705
 H 0.3507 0.2358 0.8988   0.117705
 H 0.6493 0.2358 0.1012   0.117705
 H 0.3507 0.7642 0.1012   0.117705
 H 0.7642 0.8988 0.6493   0.117705
 H 0.2358 0.8988 0.3507   0.117705
 H 0.2358 0.1012 0.6493   0.117705
 H 0.7642 0.1012 0.3507   0.117705
 H 0.8988 0.6493 0.7642   0.117705
 H 0.8988 0.3507 0.2358   0.117705
 H 0.1012 0.6493 0.2358   0.117705
 H 0.1012 0.3507 0.7642   0.117705
 H 0.371 0.1496 0.2898   0.097562
 H 0.629 0.8504 0.2898   0.097562
 H 0.629 0.1496 0.7102   0.097562
 H 0.371 0.8504 0.7102   0.097562
 H 0.2898 0.371 0.1496   0.097563
 H 0.2898 0.629 0.8504   0.097563
 H 0.7102 0.629 0.1496   0.097563
 H 0.7102 0.371 0.8504   0.097563
 H 0.1496 0.2898 0.371   0.097563
 H 0.8504 0.2898 0.629   0.097563
 H 0.1496 0.7102 0.629   0.097563
 H 0.8504 0.7102 0.371   0.097563
 H 0.6496 0.871 0.7898   0.097562
 H 0.3504 0.129 0.7898   0.097562
 H 0.6496 0.129 0.2102   0.097562
 H 0.3504 0.871 0.2102   0.097562
 H 0.871 0.7898 0.6496   0.097563
 H 0.129 0.7898 0.3504   0.097563
 H 0.129 0.2102 0.6496   0.097563
 H 0.871 0.2102 0.3504   0.097563
 H 0.7898 0.6496 0.871   0.097563
 H 0.7898 0.3504 0.129   0.097563
 H 0.2102 0.6496 0.129   0.097563
 H 0.2102 0.3504 0.871   0.097563
 H 0.4478 0.8881 0.3788   0.138794
 H 0.5522 0.1119 0.3788   0.138794
 H 0.5522 0.8881 0.6212   0.138794
 H 0.4478 0.1119 0.6212   0.138794
 H 0.3788 0.4478 0.8881   0.138794
 H 0.3788 0.5522 0.1119   0.138794
 H 0.6212 0.5522 0.8881   0.138794
 H 0.6212 0.4478 0.1119   0.138794
 H 0.8881 0.3788 0.4478   0.138794
 H 0.1119 0.3788 0.5522   0.138794
 H 0.8881 0.6212 0.5522   0.138794
 H 0.1119 0.6212 0.4478   0.138794
 H 0.3881 0.9478 0.8788   0.138794
 H 0.6119 0.0522 0.8788   0.138794
 H 0.3881 0.0522 0.1212   0.138794
 H 0.6119 0.9478 0.1212   0.138794
 H 0.9478 0.8788 0.3881   0.138794
 H 0.0522 0.8788 0.6119   0.138794
 H 0.0522 0.1212 0.3881   0.138794
 H 0.9478 0.1212 0.6119   0.138794
 H 0.8788 0.3881 0.9478   0.138794
 H 0.8788 0.6119 0.0522   0.138794
 H 0.1212 0.3881 0.0522   0.138794
 H 0.1212 0.6119 0.9478   0.138794
 H 0.3589 0.8644 0.4121   0.124255
 H 0.6411 0.1356 0.4121   0.124255
 H 0.6411 0.8644 0.5879   0.124255
 H 0.3589 0.1356 0.5879   0.124255
 H 0.4121 0.3589 0.8644   0.124255
 H 0.4121 0.6411 0.1356   0.124255
 H 0.5879 0.6411 0.8644   0.124255
 H 0.5879 0.3589 0.1356   0.124255
 H 0.8644 0.4121 0.3589   0.124256
 H 0.1356 0.4121 0.6411   0.124256
 H 0.8644 0.5879 0.6411   0.124256
 H 0.1356 0.5879 0.3589   0.124256
 H 0.3644 0.8589 0.9121   0.124255
 H 0.6356 0.1411 0.9121   0.124255
 H 0.3644 0.1411 0.0879   0.124255
 H 0.6356 0.8589 0.0879   0.124255
 H 0.8589 0.9121 0.3644   0.124255
 H 0.1411 0.9121 0.6356   0.124255
 H 0.1411 0.0879 0.3644   0.124255
 H 0.8589 0.0879 0.6356   0.124255
 H 0.9121 0.3644 0.8589   0.124256
 H 0.9121 0.6356 0.1411   0.124256
 H 0.0879 0.3644 0.1411   0.124256
 H 0.0879 0.6356 0.8589   0.124256
 H 0.4234 0.9079 0.4715   0.137225
 H 0.5766 0.0921 0.4715   0.137225
 H 0.5766 0.9079 0.5285   0.137223
 H 0.4234 0.0921 0.5285   0.137223
 H 0.4715 0.4234 0.9079   0.137225
 H 0.4715 0.5766 0.0921   0.137225
 H 0.5285 0.5766 0.9079   0.137223
 H 0.5285 0.4234 0.0921   0.137223
 H 0.9079 0.4715 0.4234   0.137225
 H 0.0921 0.4715 0.5766   0.137225
 H 0.9079 0.5285 0.5766   0.137224
 H 0.0921 0.5285 0.4234   0.137223
 H 0.4079 0.9234 0.9715   0.137225
 H 0.5921 0.0766 0.9715   0.137225
 H 0.4079 0.0766 0.0285   0.137223
 H 0.5921 0.9234 0.0285   0.137223
 H 0.9234 0.9715 0.4079   0.137225
 H 0.0766 0.9715 0.5921   0.137225
 H 0.0766 0.0285 0.4079   0.137223
 H 0.9234 0.0285 0.5921   0.137223
 H 0.9715 0.4079 0.9234   0.137225
 H 0.9715 0.5921 0.0766   0.137225
 H 0.0285 0.4079 0.0766   0.137224
 H 0.0285 0.5921 0.9234   0.137223
 C 0.3013 0.1063 0.3868   -0.106144
 C 0.6987 0.8937 0.3868   -0.106144
 C 0.6987 0.1063 0.6132   -0.106144
 C 0.3013 0.8937 0.6132   -0.106144
 C 0.3868 0.3013 0.1063   -0.106143
 C 0.3868 0.6987 0.8937   -0.106143
 C 0.6132 0.6987 0.1063   -0.106143
 C 0.6132 0.3013 0.8937   -0.106143
 C 0.1063 0.3868 0.3013   -0.106143
 C 0.8937 0.3868 0.6987   -0.106143
 C 0.1063 0.6132 0.6987   -0.106143
 C 0.8937 0.6132 0.3013   -0.106143
 C 0.6063 0.8013 0.8868   -0.106144
 C 0.3937 0.1987 0.8868   -0.106144
 C 0.6063 0.1987 0.1132   -0.106144
 C 0.3937 0.8013 0.1132   -0.106144
 C 0.8013 0.8868 0.6063   -0.106143
 C 0.1987 0.8868 0.3937   -0.106143
 C 0.1987 0.1132 0.6063   -0.106143
 C 0.8013 0.1132 0.3937   -0.106143
 C 0.8868 0.6063 0.8013   -0.106143
 C 0.8868 0.3937 0.1987   -0.106143
 C 0.1132 0.6063 0.1987   -0.106143
 C 0.1132 0.3937 0.8013   -0.106143
 C 0.3605 0.1058 0.3264   -0.023685
 C 0.6395 0.8942 0.3264   -0.023685
 C 0.6395 0.1058 0.6736   -0.023685
 C 0.3605 0.8942 0.6736   -0.023685
 C 0.3264 0.3605 0.1058   -0.023685
 C 0.3264 0.6395 0.8942   -0.023685
 C 0.6736 0.6395 0.1058   -0.023685
 C 0.6736 0.3605 0.8942   -0.023685
 C 0.1058 0.3264 0.3605   -0.023685
 C 0.8942 0.3264 0.6395   -0.023685
 C 0.1058 0.6736 0.6395   -0.023685
 C 0.8942 0.6736 0.3605   -0.023685
 C 0.6058 0.8605 0.8264   -0.023685
 C 0.3942 0.1395 0.8264   -0.023685
 C 0.6058 0.1395 0.1736   -0.023685
 C 0.3942 0.8605 0.1736   -0.023685
 C 0.8605 0.8264 0.6058   -0.023685
 C 0.1395 0.8264 0.3942   -0.023685
 C 0.1395 0.1736 0.6058   -0.023685
 C 0.8605 0.1736 0.3942   -0.023685
 C 0.8264 0.6058 0.8605   -0.023685
 C 0.8264 0.3942 0.1395   -0.023685
 C 0.1736 0.6058 0.1395   -0.023685
 C 0.1736 0.3942 0.8605   -0.023685
 C 0.3707 0.9893 0.3885   0.370203
 C 0.6293 0.0107 0.3885   0.370203
 C 0.6293 0.9893 0.6115   0.370203
 C 0.3707 0.0107 0.6115   0.370203
 C 0.3885 0.3707 0.9893   0.370203
 C 0.3885 0.6293 0.0107   0.370203
 C 0.6115 0.6293 0.9893   0.370203
 C 0.6115 0.3707 0.0107   0.370203
 C 0.9893 0.3885 0.3707   0.370203
 C 0.0107 0.3885 0.6293   0.370203
 C 0.9893 0.6115 0.6293   0.370203
 C 0.0107 0.6115 0.3707   0.370203
 C 0.4893 0.8707 0.8885   0.370203
 C 0.5107 0.1293 0.8885   0.370203
 C 0.4893 0.1293 0.1115   0.370203
 C 0.5107 0.8707 0.1115   0.370203
 C 0.8707 0.8885 0.4893   0.370203
 C 0.1293 0.8885 0.5107   0.370203
 C 0.1293 0.1115 0.4893   0.370203
 C 0.8707 0.1115 0.5107   0.370203
 C 0.8885 0.4893 0.8707   0.370203
 C 0.8885 0.5107 0.1293   0.370203
 C 0.1115 0.4893 0.1293   0.370203
 C 0.1115 0.5107 0.8707   0.370203
 C 0.4031 0.9047 0.4151   -0.422677
 C 0.5969 0.0953 0.4151   -0.422677
 C 0.5969 0.9047 0.5849   -0.422676
 C 0.4031 0.0953 0.5849   -0.422676
 C 0.4151 0.4031 0.9047   -0.422677
 C 0.4151 0.5969 0.0953   -0.422677
 C 0.5849 0.5969 0.9047   -0.422676
 C 0.5849 0.4031 0.0953   -0.422676
 C 0.9047 0.4151 0.4031   -0.422677
 C 0.0953 0.4151 0.5969   -0.422677
 C 0.9047 0.5849 0.5969   -0.422676
 C 0.0953 0.5849 0.4031   -0.422676
 C 0.4047 0.9031 0.9151   -0.422677
 C 0.5953 0.0969 0.9151   -0.422677
 C 0.4047 0.0969 0.0849   -0.422676
 C 0.5953 0.9031 0.0849   -0.422676
 C 0.9031 0.9151 0.4047   -0.422677
 C 0.0969 0.9151 0.5953   -0.422677
 C 0.0969 0.0849 0.4047   -0.422676
 C 0.9031 0.0849 0.5953   -0.422676
 C 0.9151 0.4047 0.9031   -0.422677
 C 0.9151 0.5953 0.0969   -0.422677
 C 0.0849 0.4047 0.0969   -0.422676
 C 0.0849 0.5953 0.9031   -0.422676
 N 0.4029 0.0312 0.3269   -0.376185
 N 0.5971 0.9688 0.3269   -0.376185
 N 0.5971 0.0312 0.6731   -0.376185
 N 0.4029 0.9688 0.6731   -0.376185
 N 0.3269 0.4029 0.0312   -0.376185
 N 0.3269 0.5971 0.9688   -0.376185
 N 0.6731 0.5971 0.0312   -0.376185
 N 0.6731 0.4029 0.9688   -0.376185
 N 0.0312 0.3269 0.4029   -0.376185
 N 0.9688 0.3269 0.5971   -0.376185
 N 0.0312 0.6731 0.5971   -0.376185
 N 0.9688 0.6731 0.4029   -0.376185
 N 0.5312 0.9029 0.8269   -0.376185
 N 0.4688 0.0971 0.8269   -0.376185
 N 0.5312 0.0971 0.1731   -0.376185
 N 0.4688 0.9029 0.1731   -0.376185
 N 0.9029 0.8269 0.5312   -0.376185
 N 0.0971 0.8269 0.4688   -0.376185
 N 0.0971 0.1731 0.5312   -0.376185
 N 0.9029 0.1731 0.4688   -0.376185
 N 0.8269 0.5312 0.9029   -0.376185
 N 0.8269 0.4688 0.0971   -0.376185
 N 0.1731 0.5312 0.0971   -0.376185
 N 0.1731 0.4688 0.9029   -0.376185
 N 0.3071 0.0302 0.4272   -0.263668
 N 0.6929 0.9698 0.4272   -0.263668
 N 0.6929 0.0302 0.5728   -0.263668
 N 0.3071 0.9698 0.5728   -0.263668
 N 0.4272 0.3071 0.0302   -0.263668
 N 0.4272 0.6929 0.9698   -0.263668
 N 0.5728 0.6929 0.0302   -0.263668
 N 0.5728 0.3071 0.9698   -0.263668
 N 0.0302 0.4272 0.3071   -0.263668
 N 0.9698 0.4272 0.6929   -0.263668
 N 0.0302 0.5728 0.6929   -0.263668
 N 0.9698 0.5728 0.3071   -0.263668
 N 0.5302 0.8071 0.9272   -0.263668
 N 0.4698 0.1929 0.9272   -0.263668
 N 0.5302 0.1929 0.0728   -0.263668
 N 0.4698 0.8071 0.0728   -0.263668
 N 0.8071 0.9272 0.5302   -0.263668
 N 0.1929 0.9272 0.4698   -0.263668
 N 0.1929 0.0728 0.5302   -0.263668
 N 0.8071 0.0728 0.4698   -0.263668
 N 0.9272 0.5302 0.8071   -0.263668
 N 0.9272 0.4698 0.1929   -0.263668
 N 0.0728 0.5302 0.1929   -0.263668
 N 0.0728 0.4698 0.8071   -0.263668
