{'_ref': 'TBD', '_srcid': 'CAKYAQ_clean', 'submitters': [{'name': 'Dalar Nazarian Jeff Camp and David Sholl', 'email': 'dalar@gatech.edu jcamp6@gatech.edu'}], '_method': 'VASP DFT with PBE;DDEC'}
data_CoH14C12O5
_symmetry_space_group_name_H-M   'P 1'
_cell_length_a   8.05760000
_cell_length_b   22.11380000
_cell_length_c   22.11380000
_cell_angle_alpha   90.00000000
_cell_angle_beta   90.00000000
_cell_angle_gamma   90.00000000
_symmetry_Int_Tables_number   1
_chemical_formula_structural   CoH14C12O5
_chemical_formula_sum   'Co8 H112 C96 O40'
_cell_volume   3940.32876419
_cell_formula_units_Z   8
loop_
 _symmetry_equiv_pos_site_id
 _symmetry_equiv_pos_as_xyz
  1  'x, y, z'
loop_
 _atom_site_label
 _atom_site_fract_x
 _atom_site_fract_y
 _atom_site_fract_z
 _atom_site_charge
 Co 0.24233 0.7448 0.24464   1.045823
 Co 0.24233 0.2552 0.75537   1.085572
 Co 0.75767 0.24464 0.2552   1.043648
 Co 0.75767 0.75537 0.7448   1.081223
 Co 0.25767 0.7552 0.74463   1.09324
 Co 0.25767 0.2448 0.25537   1.04346
 Co 0.74233 0.25537 0.7552   1.108894
 Co 0.74233 0.74463 0.2448   1.09603
 H 0.9922 0.8155 0.2226   0.415672
 H 0.9922 0.7658 0.1736   0.413387
 H 0.362 0.7436 0.4944   0.105363
 H 0.000399999999999 0.831 0.585   0.097489
 H 0.9892 0.8232 0.4036   0.09695
 H 0.6652 0.7922 0.4874   0.122304
 H 0.563 0.8499 0.4696   0.11451
 H 0.6916 0.8225 0.424   0.108309
 H 0.7237 0.9475 0.4511   0.115181
 H 0.9123 0.9504 0.4683   0.103635
 H 0.8548 0.9123 0.4124   0.106604
 H 0.7383 0.8576 0.5814   0.115466
 H 0.835 0.9183 0.5713   0.109869
 H 0.6482 0.9132 0.5521   0.116224
 H 0.9922 0.1845 0.7774   0.41616
 H 0.9922 0.2342 0.8264   0.415952
 H 0.362 0.2564 0.5056   0.105179
 H 0.000399999999999 0.169 0.415   0.097058
 H 0.9892 0.1768 0.5964   0.097204
 H 0.6652 0.2078 0.5126   0.122426
 H 0.563 0.1501 0.5304   0.114427
 H 0.6916 0.1775 0.576   0.108043
 H 0.7237 0.0525 0.5489   0.115084
 H 0.9123 0.0496 0.5317   0.103464
 H 0.8548 0.0877 0.5876   0.106634
 H 0.7383 0.1424 0.4186   0.115956
 H 0.835 0.0817 0.4287   0.109639
 H 0.6482 0.0868 0.4479   0.115974
 H 0.0078 0.2226 0.1845   0.413316
 H 0.0078 0.1736 0.2342   0.413508
 H 0.638 0.4944 0.2564   0.105416
 H 0.9996 0.585 0.169   0.097759
 H 0.0108 0.4036 0.1768   0.097447
 H 0.3348 0.4874 0.2078   0.122602
 H 0.437 0.4696 0.1501   0.114398
 H 0.3084 0.424 0.1775   0.108742
 H 0.2763 0.4511 0.0525   0.115219
 H 0.0877 0.4683 0.0496   0.103583
 H 0.1452 0.4124 0.0877   0.106798
 H 0.2617 0.5814 0.1424   0.115767
 H 0.165 0.5713 0.0817   0.109771
 H 0.3518 0.5521 0.0868   0.116147
 H 0.0078 0.7774 0.8155   0.417271
 H 0.0078 0.8264 0.7658   0.416666
 H 0.638 0.5056 0.7436   0.105132
 H 0.9996 0.415 0.831   0.097239
 H 0.0108 0.5964 0.8232   0.096996
 H 0.3348 0.5126 0.7922   0.122261
 H 0.437 0.5304 0.8499   0.114335
 H 0.3084 0.576 0.8225   0.108112
 H 0.2763 0.5489 0.9475   0.11495
 H 0.0877 0.5317 0.9504   0.103407
 H 0.1452 0.5876 0.9123   0.106534
 H 0.2617 0.4186 0.8576   0.115501
 H 0.165 0.4287 0.9183   0.109648
 H 0.3518 0.4479 0.9132   0.115981
 H 0.5078 0.6845 0.7226   0.416695
 H 0.5078 0.7342 0.6736   0.417208
 H 0.138 0.7564 0.9944   0.105353
 H 0.4996 0.669 0.085   0.096882
 H 0.5108 0.6768 0.9036   0.097497
 H 0.8348 0.7078 0.9874   0.122223
 H 0.937 0.6501 0.9696   0.114525
 H 0.8084 0.6775 0.924   0.108355
 H 0.7763 0.5525 0.9511   0.115218
 H 0.5877 0.5496 0.9683   0.103546
 H 0.6452 0.5877 0.9124   0.106697
 H 0.7617 0.6424 0.0814   0.115645
 H 0.665 0.5817 0.0713   0.109755
 H 0.8518 0.5868 0.0521   0.116091
 H 0.5078 0.3155 0.2774   0.413589
 H 0.5078 0.2658 0.3264   0.413195
 H 0.138 0.2436 0.0056   0.105189
 H 0.4996 0.331 0.915   0.097238
 H 0.5108 0.3232 0.0964   0.09713
 H 0.8348 0.2922 0.0126   0.122359
 H 0.937 0.3499 0.0304   0.114313
 H 0.8084 0.3225 0.076   0.108604
 H 0.7763 0.4475 0.0489   0.115025
 H 0.5877 0.4504 0.0317   0.103491
 H 0.6452 0.4123 0.0876   0.106605
 H 0.7617 0.3576 0.9186   0.115466
 H 0.665 0.4183 0.9287   0.109759
 H 0.8518 0.4132 0.9479   0.116085
 H 0.4922 0.2774 0.6845   0.416023
 H 0.4922 0.3264 0.7342   0.416064
 H 0.862 0.0056 0.7564   0.105146
 H 0.5004 0.915 0.669   0.097011
 H 0.4892 0.0964 0.6768   0.097249
 H 0.1652 0.0126 0.7078   0.122222
 H 0.063 0.0304 0.6501   0.114348
 H 0.1916 0.076 0.6775   0.108097
 H 0.2237 0.0489 0.5525   0.114982
 H 0.4123 0.0317 0.5496   0.103381
 H 0.3548 0.0876 0.5877   0.106577
 H 0.2383 0.9186 0.6424   0.115419
 H 0.335 0.9287 0.5817   0.109585
 H 0.1482 0.9479 0.5868   0.115944
 H 0.4922 0.7226 0.3155   0.41345
 H 0.4922 0.6736 0.2658   0.415566
 H 0.862 0.9944 0.2436   0.105433
 H 0.5004 0.085 0.331   0.097384
 H 0.4892 0.9036 0.3232   0.097753
 H 0.1652 0.9874 0.2922   0.122636
 H 0.063 0.9696 0.3499   0.114358
 H 0.1916 0.924 0.3225   0.108442
 H 0.2237 0.9511 0.4475   0.115205
 H 0.4123 0.9683 0.4504   0.103632
 H 0.3548 0.9124 0.4123   0.106598
 H 0.2383 0.0814 0.3576   0.116032
 H 0.335 0.0713 0.4183   0.109864
 H 0.1482 0.0521 0.4132   0.116102
 C 0.1855 0.78014 0.44001   -0.161448
 C 0.26365 0.76562 0.49437   0.001377
 C 0.19272 0.78452 0.54884   -0.152453
 C 0.04604 0.81852 0.54842   -0.059893
 C 0.96637 0.83418 0.49434   -0.014864
 C 0.03968 0.81384 0.44026   -0.045185
 C 0.26126 0.75912 0.38152   0.697131
 C 0.27534 0.76832 0.60765   0.705332
 C 0.80443 0.87021 0.49275   0.223104
 C 0.6683 0.82995 0.46594   -0.38351
 C 0.8258 0.92513 0.45245   -0.379672
 C 0.7516 0.8918 0.55514   -0.390125
 C 0.1855 0.21986 0.55999   -0.161214
 C 0.26365 0.23438 0.50563   0.001299
 C 0.19272 0.21548 0.45116   -0.153185
 C 0.04604 0.18148 0.45158   -0.059488
 C 0.96637 0.16582 0.50566   -0.015312
 C 0.03968 0.18616 0.55974   -0.045185
 C 0.26126 0.24088 0.61848   0.69881
 C 0.27534 0.23168 0.39235   0.703048
 C 0.80443 0.12979 0.50725   0.223265
 C 0.6683 0.17005 0.53406   -0.383378
 C 0.8258 0.07487 0.54755   -0.379634
 C 0.7516 0.1082 0.44486   -0.390278
 C 0.8145 0.44001 0.21986   -0.160724
 C 0.73635 0.49437 0.23438   0.001254
 C 0.80728 0.54884 0.21548   -0.15268
 C 0.95396 0.54842 0.18148   -0.05967
 C 0.03363 0.49434 0.16582   -0.015064
 C 0.96032 0.44026 0.18616   -0.044497
 C 0.73874 0.38152 0.24088   0.69717
 C 0.72466 0.60765 0.23168   0.704974
 C 0.19557 0.49275 0.12979   0.223314
 C 0.3317 0.46594 0.17005   -0.383664
 C 0.1742 0.45245 0.07487   -0.379719
 C 0.2484 0.55514 0.1082   -0.390384
 C 0.8145 0.55999 0.78014   -0.160635
 C 0.73635 0.50563 0.76562   0.00055
 C 0.80728 0.45116 0.78452   -0.153098
 C 0.95396 0.45158 0.81852   -0.060561
 C 0.03363 0.50566 0.83418   -0.015183
 C 0.96032 0.55974 0.81384   -0.045382
 C 0.73874 0.61848 0.75912   0.699144
 C 0.72466 0.39235 0.76832   0.705884
 C 0.19557 0.50725 0.87021   0.223092
 C 0.3317 0.53406 0.82995   -0.383326
 C 0.1742 0.54755 0.92513   -0.379566
 C 0.2484 0.44486 0.8918   -0.390046
 C 0.3145 0.71986 0.94001   -0.159777
 C 0.23635 0.73438 0.99437   0.001475
 C 0.30728 0.71548 0.04884   -0.154394
 C 0.45396 0.68148 0.04842   -0.060317
 C 0.53363 0.66582 0.99434   -0.014858
 C 0.46032 0.68616 0.94026   -0.044832
 C 0.23874 0.74088 0.88152   0.699873
 C 0.22466 0.73168 0.10765   0.702821
 C 0.69557 0.62979 0.99275   0.223029
 C 0.8317 0.67005 0.96594   -0.383412
 C 0.6742 0.57487 0.95245   -0.379552
 C 0.7484 0.6082 0.05514   -0.390172
 C 0.3145 0.28014 0.05999   -0.160381
 C 0.23635 0.26562 0.00563   0.001404
 C 0.30728 0.28452 0.95116   -0.153978
 C 0.45396 0.31852 0.95158   -0.060362
 C 0.53363 0.33418 0.00566   -0.015272
 C 0.46032 0.31384 0.05974   -0.044401
 C 0.23874 0.25912 0.11848   0.697475
 C 0.22466 0.26832 0.89235   0.704533
 C 0.69557 0.37021 0.00725   0.223113
 C 0.8317 0.32995 0.03406   -0.38344
 C 0.6742 0.42513 0.04755   -0.379616
 C 0.7484 0.3918 0.94486   -0.390156
 C 0.6855 0.05999 0.71986   -0.160508
 C 0.76365 0.00563 0.73438   0.000528
 C 0.69272 0.95116 0.71548   -0.153201
 C 0.54604 0.95158 0.68148   -0.060763
 C 0.46637 0.00566 0.66582   -0.015178
 C 0.53968 0.05974 0.68616   -0.045209
 C 0.76126 0.11848 0.74088   0.700289
 C 0.77534 0.89235 0.73168   0.704558
 C 0.30443 0.00725 0.62979   0.223045
 C 0.1683 0.03406 0.67005   -0.383306
 C 0.3258 0.04755 0.57487   -0.379556
 C 0.2516 0.94486 0.6082   -0.389998
 C 0.6855 0.94001 0.28014   -0.15996
 C 0.76365 0.99437 0.26562   0.001282
 C 0.69272 0.04884 0.28452   -0.153566
 C 0.54604 0.04842 0.31852   -0.059611
 C 0.46637 0.99434 0.33418   -0.015061
 C 0.53968 0.94026 0.31384   -0.044633
 C 0.76126 0.88152 0.25912   0.699326
 C 0.77534 0.10765 0.26832   0.702799
 C 0.30443 0.99275 0.37021   0.223211
 C 0.1683 0.96594 0.32995   -0.383572
 C 0.3258 0.95245 0.42513   -0.379683
 C 0.2516 0.05514 0.3918   -0.390315
 O 0.1745 0.7647 0.33355   -0.640349
 O 0.4044 0.73739 0.38222   -0.560336
 O 0.1888 0.77392 0.65559   -0.654621
 O 0.42138 0.75016 0.6067   -0.570141
 O 0.99221 0.772 0.21698   -0.826
 O 0.1745 0.2353 0.66645   -0.651085
 O 0.4044 0.26261 0.61778   -0.562189
 O 0.1888 0.22608 0.34441   -0.642893
 O 0.42138 0.24984 0.3933   -0.567312
 O 0.99221 0.228 0.78302   -0.83972
 O 0.8255 0.33355 0.2353   -0.639127
 O 0.5956 0.38222 0.26261   -0.560246
 O 0.8112 0.65559 0.22608   -0.655164
 O 0.57862 0.6067 0.24984   -0.568665
 O 0.00779 0.21698 0.228   -0.812834
 O 0.8255 0.66645 0.7647   -0.651364
 O 0.5956 0.61778 0.73739   -0.564571
 O 0.8112 0.34441 0.77392   -0.658137
 O 0.57862 0.3933 0.75016   -0.56861
 O 0.00779 0.78302 0.772   -0.833677
 O 0.3255 0.7353 0.83355   -0.655226
 O 0.0956 0.76261 0.88222   -0.565849
 O 0.3112 0.72608 0.15559   -0.640142
 O 0.07862 0.74984 0.1067   -0.56466
 O 0.50779 0.728 0.71698   -0.833663
 O 0.3255 0.2647 0.16645   -0.643241
 O 0.0956 0.23739 0.11778   -0.563018
 O 0.3112 0.27392 0.84441   -0.651065
 O 0.07862 0.25016 0.8933   -0.566622
 O 0.50779 0.272 0.28302   -0.812712
 O 0.6745 0.16645 0.7353   -0.658471
 O 0.9044 0.11778 0.76261   -0.564284
 O 0.6888 0.84441 0.72608   -0.650672
 O 0.92138 0.8933 0.74984   -0.568818
 O 0.49221 0.28302 0.728   -0.8396
 O 0.6745 0.83355 0.2647   -0.655363
 O 0.9044 0.88222 0.23739   -0.564318
 O 0.6888 0.15559 0.27392   -0.638979
 O 0.92138 0.1067 0.25016   -0.564602
 O 0.49221 0.71698 0.272   -0.825897
