{'_ref': 'TBD', '_srcid': 'CAKYAQ_clean', 'submitters': [{'name': 'Dalar Nazarian Jeff Camp and David Sholl', 'email': 'dalar@gatech.edu jcamp6@gatech.edu'}], '_method': 'VASP DFT with PBE;DDEC'}
data_CuH8(C7O2)2
_symmetry_space_group_name_H-M   'P 1'
_cell_length_a   14.29700022
_cell_length_b   18.90170000
_cell_length_c   18.90170012
_cell_angle_alpha   113.86900079
_cell_angle_beta   104.60300038
_cell_angle_gamma   104.60350076
_symmetry_Int_Tables_number   1
_chemical_formula_structural   CuH8(C7O2)2
_chemical_formula_sum   'Cu6 H48 C84 O24'
_cell_volume   4142.42965072
_cell_formula_units_Z   6
loop_
 _symmetry_equiv_pos_site_id
 _symmetry_equiv_pos_as_xyz
  1  'x, y, z'
loop_
 _atom_site_label
 _atom_site_fract_x
 _atom_site_fract_y
 _atom_site_fract_z
 _atom_site_charge
 Cu 0.55191 0.02499 0.57997   0.878965
 Cu 0.52692 0.55498 0.97501   0.878682
 Cu 0.97194 0.42003 0.44502   0.879306
 Cu 0.44809 0.97501 0.42003   0.878962
 Cu 0.47308 0.44502 0.02499   0.878679
 Cu 0.02806 0.57997 0.55498   0.879302
 H 0.2547 0.3899 0.5477   0.103959
 H 0.5296 0.5163 0.7483   0.105156
 H 0.4963 0.6369 0.7882   0.104112
 H 0.3411 0.6333 0.712   0.10935
 H 0.3468 0.3118 0.4932   0.110226
 H 0.38 0.1928 0.4544   0.104612
 H 0.5221 0.2635 0.6969   0.087125
 H 0.4908 0.3842 0.7364   0.105649
 H 0.8648 0.1578 0.6101   0.104025
 H 0.0133 0.232 0.4837   0.104951
 H 0.8594 0.1513 0.3631   0.103678
 H 0.7078 0.0787 0.3667   0.10847
 H 0.035 0.1814 0.6882   0.110754
 H 0.1872 0.2616 0.8072   0.104311
 H 0.2586 0.4334 0.7365   0.08655
 H 0.1066 0.3522 0.6158   0.1054
 H 0.707 0.4523 0.8422   0.104616
 H 0.7813 0.2517 0.768   0.104046
 H 0.7081 0.2118 0.8487   0.104029
 H 0.6291 0.288 0.9213   0.108518
 H 0.8536 0.5068 0.8186   0.110275
 H 0.9256 0.5456 0.7384   0.103855
 H 0.8252 0.3031 0.5666   0.086294
 H 0.7544 0.2636 0.6478   0.105574
 H 0.7453 0.6101 0.4523   0.103959
 H 0.4704 0.4837 0.2517   0.105156
 H 0.5037 0.3631 0.2118   0.104111
 H 0.6589 0.3667 0.288   0.10935
 H 0.6532 0.6882 0.5068   0.110226
 H 0.62 0.8072 0.5456   0.104612
 H 0.4779 0.7365 0.3031   0.087125
 H 0.5092 0.6158 0.2636   0.105649
 H 0.1352 0.8422 0.3899   0.104025
 H 0.9867 0.768 0.5163   0.104951
 H 0.1406 0.8487 0.6369   0.103678
 H 0.2922 0.9213 0.6333   0.108469
 H 0.965 0.8186 0.3118   0.110754
 H 0.8128 0.7384 0.1928   0.104311
 H 0.7414 0.5666 0.2635   0.08655
 H 0.8934 0.6478 0.3842   0.1054
 H 0.293 0.5477 0.1578   0.104616
 H 0.2187 0.7483 0.232   0.104046
 H 0.2919 0.7882 0.1513   0.104028
 H 0.3709 0.712 0.0787   0.108518
 H 0.1464 0.4932 0.1814   0.110275
 H 0.0744 0.4544 0.2616   0.103855
 H 0.1748 0.6969 0.4334   0.086294
 H 0.2456 0.7364 0.3522   0.105574
 C 0.17688 0.5061 0.5749   0.678524
 C 0.28207 0.51085 0.62304   -0.119227
 C 0.30317 0.43946 0.59714   -0.076893
 C 0.39696 0.44084 0.64466   0.023354
 C 0.46733 0.51456 0.71587   -0.084999
 C 0.44675 0.58681 0.74034   -0.095938
 C 0.35489 0.58493 0.69488   -0.046899
 C 0.4164 0.36261 0.61912   0.062148
 C 0.38323 0.30287 0.53495   -0.146914
 C 0.40237 0.23131 0.51147   -0.027455
 C 0.45484 0.2153 0.57209   -0.144375
 C 0.48704 0.27338 0.65561   -0.016157
 C 0.46843 0.34604 0.67949   -0.14156
 C 0.47482 0.13595 0.54665   0.684337
 C 0.67078 0.0688 0.4939   0.677847
 C 0.77122 0.11219 0.48915   -0.118438
 C 0.86371 0.15768 0.56054   -0.077015
 C 0.95612 0.20382 0.55916   0.02293
 C 0.95277 0.20131 0.48544   -0.084916
 C 0.85994 0.15353 0.41319   -0.095247
 C 0.76996 0.10995 0.41507   -0.046528
 C 0.05379 0.25651 0.63739   0.063055
 C 0.08036 0.23208 0.69713   -0.149022
 C 0.17106 0.28016 0.76869   -0.026487
 C 0.23954 0.35679 0.7847   -0.143591
 C 0.21366 0.38223 0.72662   -0.015646
 C 0.12239 0.33345 0.65396   -0.141114
 C 0.33887 0.4107 0.86405   0.684242
 C 0.60198 0.4251 0.9312   0.678179
 C 0.65903 0.37696 0.88781   -0.119585
 C 0.70603 0.40286 0.84232   -0.077151
 C 0.7523 0.35534 0.79618   0.021308
 C 0.75146 0.28413 0.79869   -0.08157
 C 0.70641 0.25966 0.84647   -0.097576
 C 0.66001 0.30512 0.89005   -0.04517
 C 0.79728 0.38088 0.74349   0.062986
 C 0.84828 0.46505 0.76792   -0.148337
 C 0.8909 0.48853 0.71984   -0.025565
 C 0.88275 0.42791 0.64321   -0.144908
 C 0.83143 0.34439 0.61777   -0.014521
 C 0.78894 0.32051 0.66655   -0.141841
 C 0.92817 0.45335 0.5893   0.683709
 C 0.82312 0.4939 0.4251   0.678524
 C 0.71793 0.48915 0.37696   -0.119227
 C 0.69683 0.56054 0.40286   -0.076893
 C 0.60304 0.55916 0.35534   0.023355
 C 0.53267 0.48544 0.28413   -0.084999
 C 0.55325 0.41319 0.25966   -0.095938
 C 0.64511 0.41507 0.30512   -0.046898
 C 0.5836 0.63739 0.38088   0.062148
 C 0.61677 0.69713 0.46505   -0.146914
 C 0.59763 0.76869 0.48853   -0.027455
 C 0.54516 0.7847 0.42791   -0.144375
 C 0.51296 0.72662 0.34439   -0.016157
 C 0.53157 0.65396 0.32051   -0.14156
 C 0.52518 0.86405 0.45335   0.684337
 C 0.32922 0.9312 0.5061   0.677847
 C 0.22878 0.88781 0.51085   -0.118438
 C 0.13629 0.84232 0.43946   -0.077015
 C 0.04388 0.79618 0.44084   0.02293
 C 0.04723 0.79869 0.51456   -0.084916
 C 0.14006 0.84647 0.58681   -0.095247
 C 0.23004 0.89005 0.58493   -0.046527
 C 0.94621 0.74349 0.36261   0.063055
 C 0.91964 0.76792 0.30287   -0.149022
 C 0.82894 0.71984 0.23131   -0.026487
 C 0.76046 0.64321 0.2153   -0.143591
 C 0.78634 0.61777 0.27338   -0.015646
 C 0.87761 0.66655 0.34604   -0.141114
 C 0.66113 0.5893 0.13595   0.684242
 C 0.39802 0.5749 0.0688   0.678179
 C 0.34097 0.62304 0.11219   -0.119585
 C 0.29397 0.59714 0.15768   -0.077151
 C 0.2477 0.64466 0.20382   0.021308
 C 0.24854 0.71587 0.20131   -0.08157
 C 0.29359 0.74034 0.15353   -0.097576
 C 0.33999 0.69488 0.10995   -0.04517
 C 0.20272 0.61912 0.25651   0.062986
 C 0.15172 0.53495 0.23208   -0.148337
 C 0.1091 0.51147 0.28016   -0.025564
 C 0.11725 0.57209 0.35679   -0.144908
 C 0.16857 0.65561 0.38223   -0.014521
 C 0.21106 0.67949 0.33345   -0.141841
 C 0.07183 0.54665 0.4107   0.683709
 O 0.11325 0.43715 0.51188   -0.560072
 O 0.1619 0.57339 0.60436   -0.565309
 O 0.43763 0.08493 0.46924   -0.570603
 O 0.5247 0.12657 0.60445   -0.561431
 O 0.6761 0.07473 0.56285   -0.560164
 O 0.58851 0.03097 0.42661   -0.564651
 O 0.3527 0.38431 0.91507   -0.571364
 O 0.39813 0.47788 0.87343   -0.561029
 O 0.60137 0.48812 0.92527   -0.559774
 O 0.55754 0.39564 0.96903   -0.564493
 O 0.96839 0.53076 0.61569   -0.570721
 O 0.92025 0.39555 0.52212   -0.560848
 O 0.88675 0.56285 0.48812   -0.560071
 O 0.8381 0.42661 0.39564   -0.565309
 O 0.56237 0.91507 0.53076   -0.570603
 O 0.4753 0.87343 0.39555   -0.56143
 O 0.3239 0.92527 0.43715   -0.560164
 O 0.41149 0.96903 0.57339   -0.564652
 O 0.6473 0.61569 0.08493   -0.571364
 O 0.60187 0.52212 0.12657   -0.561029
 O 0.39863 0.51188 0.07473   -0.559774
 O 0.44246 0.60436 0.03097   -0.564493
 O 0.03161 0.46924 0.38431   -0.570721
 O 0.07975 0.60445 0.47788   -0.560848
