{'_ref': 'TBD', '_srcid': 'CAKYAQ_clean', 'submitters': [{'name': 'Dalar Nazarian Jeff Camp and David Sholl', 'email': 'dalar@gatech.edu jcamp6@gatech.edu'}], '_method': 'VASP DFT with PBE;DDEC'}
data_ErHC6(NO3)2
_symmetry_space_group_name_H-M   'P 1'
_cell_length_a   7.76640000
_cell_length_b   8.26099988
_cell_length_c   17.32390000
_cell_angle_alpha   90.00000000
_cell_angle_beta   90.00000000
_cell_angle_gamma   108.05599907
_symmetry_Int_Tables_number   1
_chemical_formula_structural   ErHC6(NO3)2
_chemical_formula_sum   'Er4 H4 C24 N8 O24'
_cell_volume   1056.73530592
_cell_formula_units_Z   4
loop_
 _symmetry_equiv_pos_site_id
 _symmetry_equiv_pos_as_xyz
  1  'x, y, z'
loop_
 _atom_site_label
 _atom_site_fract_x
 _atom_site_fract_y
 _atom_site_fract_z
 _atom_site_charge
 Er 0.74966 0.77484 0.97763   1.521948
 Er 0.75034 0.22516 0.47763   1.521948
 Er 0.25034 0.22516 0.02237   1.521942
 Er 0.24966 0.77484 0.52237   1.521942
 H 0.1636 0.8708 0.2874   0.151554
 H 0.3364 0.1292 0.7874   0.151554
 H 0.8364 0.1292 0.7126   0.151554
 H 0.6636 0.8708 0.2126   0.151554
 C 0.982 0.56 0.3715   0.70444
 C 0.987 0.623 0.2914   0.021966
 C 0.085 0.78 0.2607   -0.150323
 C 0.045 0.774 0.1832   0.013932
 C 0.091 0.898 0.1192   0.671933
 C 0.572 0.062 0.026   0.522293
 C 0.518 0.44 0.8715   0.704441
 C 0.513 0.377 0.7914   0.021966
 C 0.415 0.22 0.7607   -0.150323
 C 0.455 0.226 0.6832   0.013932
 C 0.409 0.102 0.6192   0.671933
 C 0.928 0.938 0.526   0.522294
 C 0.018 0.44 0.6285   0.704442
 C 0.013 0.377 0.7086   0.021968
 C 0.915 0.22 0.7393   -0.15032
 C 0.955 0.226 0.8168   0.013934
 C 0.909 0.102 0.8808   0.671935
 C 0.428 0.938 0.974   0.522295
 C 0.482 0.56 0.1285   0.704443
 C 0.487 0.623 0.2086   0.021968
 C 0.585 0.78 0.2393   -0.15032
 C 0.545 0.774 0.3168   0.013934
 C 0.591 0.898 0.3808   0.671935
 C 0.072 0.062 0.474   0.522295
 N 0.921 0.615 0.1687   -0.104332
 N 0.892 0.5278 0.2346   -0.036658
 N 0.579 0.385 0.6687   -0.104332
 N 0.608 0.4722 0.7346   -0.036658
 N 0.079 0.385 0.8313   -0.104332
 N 0.108 0.4722 0.7654   -0.036658
 N 0.421 0.615 0.3313   -0.104332
 N 0.392 0.5278 0.2654   -0.036658
 O 0.0725 0.6536 0.4212   -0.623808
 O 0.8745 0.4077 0.3814   -0.610858
 O 0.2286 0.0259 0.1248   -0.551319
 O 0.9896 0.8676 0.0606   -0.635235
 O 0.7061 0.0139 0.0424   -0.467096
 O 0.4524 0.8014 0.9545   -0.428441
 O 0.4275 0.3464 0.9212   -0.623808
 O 0.6255 0.5923 0.8814   -0.610858
 O 0.2714 0.9741 0.6248   -0.551319
 O 0.5104 0.1324 0.5606   -0.635235
 O 0.7939 0.9861 0.5424   -0.467096
 O 0.0476 0.1986 0.4545   -0.428441
 O 0.9275 0.3464 0.5788   -0.623808
 O 0.1255 0.5923 0.6186   -0.610858
 O 0.7714 0.9741 0.8752   -0.551319
 O 0.0104 0.1324 0.9394   -0.635234
 O 0.2939 0.9861 0.9576   -0.467095
 O 0.5476 0.1986 0.0455   -0.42844
 O 0.5725 0.6536 0.0788   -0.623809
 O 0.3745 0.4077 0.1186   -0.610858
 O 0.7286 0.0259 0.3752   -0.551319
 O 0.4896 0.8676 0.4394   -0.635234
 O 0.2061 0.0139 0.4576   -0.467095
 O 0.9524 0.8014 0.5455   -0.42844
