{'_ref': 'TBD', '_srcid': 'CAKYAQ_clean', 'submitters': [{'name': 'Dalar Nazarian Jeff Camp and David Sholl', 'email': 'dalar@gatech.edu jcamp6@gatech.edu'}], '_method': 'VASP DFT with PBE;DDEC'}
data_AgH6C12N11O5
_symmetry_space_group_name_H-M   'P 1'
_cell_length_a   8.24120034
_cell_length_b   10.83468691
_cell_length_c   22.84449498
_cell_angle_alpha   82.91555113
_cell_angle_beta   79.60837004
_cell_angle_gamma   67.64686697
_symmetry_Int_Tables_number   1
_chemical_formula_structural   AgH6C12N11O5
_chemical_formula_sum   'Ag4 H24 C48 N44 O20'
_cell_volume   1852.22290122
_cell_formula_units_Z   4
loop_
 _symmetry_equiv_pos_site_id
 _symmetry_equiv_pos_as_xyz
  1  'x, y, z'
loop_
 _atom_site_label
 _atom_site_fract_x
 _atom_site_fract_y
 _atom_site_fract_z
 _atom_site_charge
 Ag 0.41017 0.88337 0.84703   0.401446
 Ag 0.14057 0.61663 0.65297   0.401465
 Ag 0.58983 0.11663 0.15297   0.401446
 Ag 0.85943 0.38337 0.34703   0.401465
 H 0.3994 0.8439 0.0047   0.085212
 H 0.2852 0.6259 0.9065   0.106702
 H 0.2527 0.1395 0.2779   0.107887
 H 0.9423 0.4705 0.2047   0.13419
 H 0.0352 0.0268 0.9298   0.073933
 H 0.4049 0.1795 0.9009   0.133707
 H 0.248 0.6561 0.4953   0.084523
 H 0.8176 0.8741 0.5935   0.107407
 H 0.6701 0.3605 0.2221   0.107917
 H 0.6175 0.0295 0.2953   0.134483
 H 0.9918 0.4732 0.5702   0.074421
 H 0.4853 0.3205 0.5991   0.133852
 H 0.6006 0.1561 0.9953   0.085212
 H 0.7148 0.3741 0.0935   0.106702
 H 0.7473 0.8605 0.7221   0.107887
 H 0.0577 0.5295 0.7953   0.13419
 H 0.9648 0.9732 0.0702   0.073933
 H 0.5951 0.8205 0.0991   0.133707
 H 0.752 0.3439 0.5047   0.084523
 H 0.1824 0.1259 0.4065   0.107407
 H 0.3299 0.6395 0.7779   0.107916
 H 0.3825 0.9705 0.7047   0.134483
 H 0.0082 0.5268 0.4298   0.074421
 H 0.5147 0.6795 0.4009   0.133852
 C 0.22764 0.41623 0.97949   0.290782
 C 0.24604 0.49982 0.0209   -0.027656
 C 0.22305 0.46934 0.08176   -0.025734
 C 0.18855 0.35537 0.10593   -0.031287
 C 0.18242 0.26984 0.06672   -0.039171
 C 0.20238 0.29731 0.00573   -0.077173
 C 0.36778 0.77554 0.9933   0.257304
 C 0.3067 0.6608 0.9392   0.161908
 C 0.2057 0.20934 0.24906   0.271733
 C 0.0366 0.38798 0.21082   0.150392
 C 0.10327 0.07777 0.93449   0.289314
 C 0.30398 0.15804 0.9176   0.164933
 C 0.62336 0.08377 0.52051   0.291207
 C 0.76676 0.00018 0.4791   -0.028177
 C 0.77415 0.03066 0.41824   -0.024432
 C 0.64985 0.14463 0.39407   -0.031187
 C 0.51898 0.23016 0.43328   -0.041461
 C 0.50542 0.20269 0.49427   -0.076571
 C 0.13662 0.72446 0.5067   0.258435
 C 0.9067 0.8392 0.5608   0.161746
 C 0.6641 0.29066 0.25094   0.272071
 C 0.6354 0.11202 0.28918   0.149121
 C 0.11553 0.42223 0.56551   0.28938
 C 0.37962 0.34196 0.5824   0.165026
 C 0.77236 0.58377 0.02051   0.290782
 C 0.75396 0.50018 0.9791   -0.027656
 C 0.77695 0.53066 0.91824   -0.025734
 C 0.81145 0.64463 0.89407   -0.031287
 C 0.81758 0.73016 0.93328   -0.039171
 C 0.79762 0.70269 0.99427   -0.077173
 C 0.63222 0.22446 0.0067   0.257304
 C 0.6933 0.3392 0.0608   0.161907
 C 0.7943 0.79066 0.75094   0.271734
 C 0.9634 0.61202 0.78918   0.150392
 C 0.89673 0.92223 0.06551   0.289314
 C 0.69602 0.84196 0.0824   0.164933
 C 0.37664 0.91623 0.47949   0.291206
 C 0.23324 0.99982 0.5209   -0.028177
 C 0.22585 0.96934 0.58176   -0.024432
 C 0.35015 0.85537 0.60593   -0.031187
 C 0.48102 0.76984 0.56672   -0.041461
 C 0.49458 0.79731 0.50573   -0.076572
 C 0.86338 0.27554 0.4933   0.258435
 C 0.0933 0.1608 0.4392   0.161746
 C 0.3359 0.70934 0.74906   0.272071
 C 0.3646 0.88798 0.71082   0.149121
 C 0.88447 0.57777 0.43449   0.28938
 C 0.62038 0.65804 0.4176   0.165026
 N 0.29218 0.61105 0.99639   0.167823
 N 0.33336 0.68581 0.03167   -0.339768
 N 0.35489 0.76438 0.93544   -0.416728
 N 0.23135 0.55409 0.12641   0.573457
 N 0.16755 0.32486 0.16844   0.154045
 N 0.27885 0.20787 0.19283   -0.336453
 N 0.05805 0.31851 0.26239   -0.370698
 N 0.15878 0.14456 0.09188   0.594023
 N 0.19288 0.20844 0.967   0.168694
 N 0.06158 0.1561 0.97854   -0.353614
 N 0.25212 0.07461 0.89575   -0.409127
 N 0.89962 0.88895 0.50361   0.167438
 N 0.05084 0.81419 0.46833   -0.33936
 N 0.05471 0.73562 0.56456   -0.417747
 N 0.91185 0.94591 0.37359   0.573265
 N 0.66085 0.17514 0.33156   0.154628
 N 0.67955 0.29213 0.30717   -0.336562
 N 0.63895 0.18149 0.23761   -0.370713
 N 0.39522 0.35544 0.40812   0.597303
 N 0.36832 0.29156 0.533   0.169114
 N 0.19622 0.3439 0.52146   -0.354165
 N 0.22248 0.42539 0.60425   -0.409597
 N 0.70782 0.38895 0.00361   0.167823
 N 0.66664 0.31419 0.96833   -0.339768
 N 0.64511 0.23562 0.06456   -0.416728
 N 0.76865 0.44591 0.87359   0.573457
 N 0.83245 0.67514 0.83156   0.154045
 N 0.72115 0.79213 0.80717   -0.336453
 N 0.94195 0.68149 0.73761   -0.370698
 N 0.84122 0.85544 0.90812   0.594023
 N 0.80712 0.79156 0.033   0.168694
 N 0.93842 0.8439 0.02146   -0.353614
 N 0.74788 0.92539 0.10425   -0.409127
 N 0.10038 0.11105 0.49639   0.167438
 N 0.94916 0.18581 0.53167   -0.33936
 N 0.94529 0.26438 0.43544   -0.417747
 N 0.08815 0.05409 0.62641   0.573265
 N 0.33915 0.82486 0.66844   0.154628
 N 0.32045 0.70787 0.69283   -0.336562
 N 0.36105 0.81851 0.76239   -0.370713
 N 0.60478 0.64456 0.59188   0.597303
 N 0.63168 0.70844 0.467   0.169114
 N 0.80378 0.6561 0.47854   -0.354165
 N 0.77752 0.57461 0.39575   -0.409597
 O 0.23709 0.4436 0.92402   -0.517769
 O 0.09784 0.65162 0.1397   -0.32083
 O 0.36859 0.51588 0.14874   -0.337159
 O 0.27786 0.03941 0.07647   -0.350545
 O 0.02386 0.15346 0.12662   -0.33372
 O 0.60471 0.0564 0.57598   -0.518066
 O 0.88916 0.84838 0.3603   -0.32074
 O 0.03321 0.98412 0.35126   -0.337224
 O 0.39374 0.46059 0.42353   -0.351275
 O 0.30394 0.34654 0.37338   -0.335578
 O 0.76291 0.5564 0.07598   -0.517769
 O 0.90216 0.34838 0.8603   -0.32083
 O 0.63141 0.48412 0.85126   -0.337159
 O 0.72214 0.96059 0.92353   -0.350545
 O 0.97614 0.84654 0.87338   -0.33372
 O 0.39529 0.9436 0.42402   -0.518066
 O 0.11084 0.15162 0.6397   -0.32074
 O 0.96679 0.01588 0.64874   -0.337224
 O 0.60626 0.53941 0.57647   -0.351275
 O 0.69606 0.65346 0.62662   -0.335578
