{'_ref': 'TBD', '_srcid': 'CAKYAQ_clean', 'submitters': [{'name': 'Dalar Nazarian Jeff Camp and David Sholl', 'email': 'dalar@gatech.edu jcamp6@gatech.edu'}], '_method': 'VASP DFT with PBE;DDEC'}
data_Cd3H10C10BrN15
_symmetry_space_group_name_H-M   'P 1'
_cell_length_a   7.85160000
_cell_length_b   10.73829964
_cell_length_c   14.19271003
_cell_angle_alpha   112.22810949
_cell_angle_beta   90.00000000
_cell_angle_gamma   90.00000000
_symmetry_Int_Tables_number   1
_chemical_formula_structural   Cd3H10C10BrN15
_chemical_formula_sum   'Cd6 H20 C20 Br2 N30'
_cell_volume   1107.70034089
_cell_formula_units_Z   2
loop_
 _symmetry_equiv_pos_site_id
 _symmetry_equiv_pos_as_xyz
  1  'x, y, z'
loop_
 _atom_site_label
 _atom_site_fract_x
 _atom_site_fract_y
 _atom_site_fract_z
 _atom_site_charge
 Cd 0.0327 0.98908 0.97816   0.730695
 Cd 0.4539 0.76027 0.52054   0.792739
 Cd 0.5327 0.01092 0.02184   0.730695
 Cd 0.9539 0.23973 0.47946   0.792739
 Cd 0.746 0.37592 0.75184   0.837316
 Cd 0.246 0.62408 0.24816   0.837316
 H 0.9957 0.649 0.8348   0.071034
 H 0.523 0.66 0.9266   0.0906
 H 0.5621 0.0686 0.6998   0.045513
 H 0.7438 0.9306 0.4276   0.06339
 H 0.4957 0.351 0.1652   0.071034
 H 0.023 0.34 0.0734   0.0906
 H 0.0621 0.9314 0.3002   0.045513
 H 0.2438 0.0694 0.5724   0.06339
 H 0.4957 0.8142 0.1652   0.070898
 H 0.023 0.7334 0.0734   0.091044
 H 0.0621 0.3688 0.3002   0.045798
 H 0.2438 0.503 0.5724   0.063506
 H 0.9957 0.1858 0.8348   0.070898
 H 0.523 0.2666 0.9266   0.091044
 H 0.5621 0.6312 0.6998   0.045798
 H 0.7438 0.497 0.4276   0.063506
 H 0.5784 0.8807 0.7614   0.092571
 H 0.0932 0.8512 0.7024   0.089998
 H 0.0784 0.1193 0.2386   0.092571
 H 0.5932 0.1488 0.2976   0.089998
 C 0.891 0.6789 0.8658   0.245939
 C 0.633 0.684 0.916   0.232439
 C 0.617 0.0621 0.6402   0.245357
 C 0.715 0.9877 0.4934   0.244577
 C 0.391 0.3211 0.1342   0.245939
 C 0.133 0.316 0.084   0.232439
 C 0.117 0.9379 0.3598   0.245357
 C 0.215 0.0123 0.5066   0.244577
 C 0.391 0.8131 0.1342   0.24508
 C 0.133 0.768 0.084   0.231385
 C 0.117 0.4219 0.3598   0.24465
 C 0.215 0.4943 0.5066   0.24424
 C 0.891 0.1869 0.8658   0.24508
 C 0.633 0.232 0.916   0.231385
 C 0.617 0.5781 0.6402   0.24465
 C 0.715 0.5057 0.4934   0.24424
 C 0.461 0.8851 0.7702   0.171279
 C 0.195 0.8691 0.7382   0.211449
 C 0.961 0.1149 0.2298   0.171279
 C 0.695 0.1309 0.2618   0.211449
 Br 0.0599 0.34464 0.68928   -0.532834
 Br 0.5599 0.65536 0.31072   -0.532834
 N 0.856 0.8038 0.9156   -0.249456
 N 0.689 0.8098 0.95   -0.268703
 N 0.757 0.5939 0.8634   -0.481656
 N 0.696 0.1624 0.6294   -0.276121
 N 0.759 0.1174 0.5348   -0.253006
 N 0.624 0.9503 0.5576   -0.447226
 N 0.356 0.1962 0.0844   -0.249456
 N 0.189 0.1902 0.05   -0.268703
 N 0.257 0.4061 0.1366   -0.481656
 N 0.196 0.8376 0.3706   -0.276121
 N 0.259 0.8826 0.4652   -0.253006
 N 0.124 0.0497 0.4424   -0.447226
 N 0.356 0.8882 0.0844   -0.248934
 N 0.189 0.8598 0.05   -0.268367
 N 0.257 0.7305 0.1366   -0.480889
 N 0.196 0.533 0.3706   -0.276267
 N 0.259 0.5826 0.4652   -0.252576
 N 0.124 0.3927 0.4424   -0.446679
 N 0.856 0.1118 0.9156   -0.248934
 N 0.689 0.1402 0.95   -0.268367
 N 0.757 0.2695 0.8634   -0.480889
 N 0.696 0.467 0.6294   -0.276267
 N 0.759 0.4174 0.5348   -0.252576
 N 0.624 0.6073 0.5576   -0.446679
 N 0.347 0.848 0.696   -0.410726
 N 0.373 0.9337 0.8674   -0.279811
 N 0.208 0.9196 0.8392   -0.228247
 N 0.847 0.152 0.304   -0.410726
 N 0.873 0.0663 0.1326   -0.279811
 N 0.708 0.0804 0.1608   -0.228247
