{'_ref': 'TBD', '_srcid': 'CAKYAQ_clean', 'submitters': [{'name': 'Dalar Nazarian Jeff Camp and David Sholl', 'email': 'dalar@gatech.edu jcamp6@gatech.edu'}], '_method': 'VASP DFT with PBE;DDEC'}
data_CuH7C8(NO2)2
_symmetry_space_group_name_H-M   'P 1'
_cell_length_a   10.15400002
_cell_length_b   10.15399991
_cell_length_c   15.51210000
_cell_angle_alpha   72.08209771
_cell_angle_beta   72.08209791
_cell_angle_gamma   86.50779931
_symmetry_Int_Tables_number   1
_chemical_formula_structural   CuH7C8(NO2)2
_chemical_formula_sum   'Cu4 H28 C32 N8 O16'
_cell_volume   1446.96891063
_cell_formula_units_Z   4
loop_
 _symmetry_equiv_pos_site_id
 _symmetry_equiv_pos_as_xyz
  1  'x, y, z'
loop_
 _atom_site_label
 _atom_site_fract_x
 _atom_site_fract_y
 _atom_site_fract_z
 _atom_site_charge
 Cu 0.55399 0.00801 0.31352   0.76653
 Cu 0.99199 0.44601 0.18648   0.76653
 Cu 0.44601 0.99199 0.68648   0.76653
 Cu 0.00801 0.55399 0.81352   0.76653
 H 0.838 0.154 0.026   0.098759
 H 0.776 0.2 0.311   0.104964
 H 0.429 0.257 0.374   0.10588
 H 0.572 0.232 0.406   0.086021
 H 0.438 0.278 0.217   0.112758
 H 0.597 0.249 0.154   0.089853
 H 0.402 0.484 0.273   0.108226
 H 0.846 0.162 0.474   0.098759
 H 0.8 0.224 0.189   0.104964
 H 0.743 0.571 0.126   0.10588
 H 0.768 0.428 0.094   0.086021
 H 0.722 0.562 0.283   0.112758
 H 0.751 0.403 0.346   0.089853
 H 0.516 0.598 0.227   0.108223
 H 0.162 0.846 0.974   0.098758
 H 0.224 0.8 0.689   0.104964
 H 0.571 0.743 0.626   0.10588
 H 0.428 0.768 0.594   0.086021
 H 0.562 0.722 0.783   0.112758
 H 0.403 0.751 0.846   0.089852
 H 0.598 0.516 0.727   0.108225
 H 0.154 0.838 0.526   0.098759
 H 0.2 0.776 0.811   0.104964
 H 0.257 0.429 0.874   0.10588
 H 0.232 0.572 0.906   0.086021
 H 0.278 0.438 0.717   0.112758
 H 0.249 0.597 0.654   0.089853
 H 0.484 0.402 0.773   0.108222
 C 0.8796 0.9618 0.0767   -0.07964
 C 0.9808 0.865 0.0611   -0.053692
 C 0.9019 0.0945 0.0159   -0.046178
 C 0.7471 0.9225 0.1563   0.690492
 C 0.9683 0.7205 0.1285   0.651086
 C 0.5285 0.2763 0.3588   0.095522
 C 0.547 0.2954 0.1964   0.083394
 C 0.0382 0.1204 0.4233   -0.07964
 C 0.135 0.0192 0.4389   -0.053692
 C 0.9055 0.0981 0.4841   -0.046178
 C 0.0775 0.2529 0.3437   0.690492
 C 0.2795 0.0317 0.3715   0.651086
 C 0.7237 0.4715 0.1412   0.095522
 C 0.7046 0.453 0.3036   0.083394
 C 0.1204 0.0382 0.9233   -0.079642
 C 0.0192 0.135 0.9389   -0.053689
 C 0.0981 0.9055 0.9841   -0.046176
 C 0.2529 0.0775 0.8437   0.690491
 C 0.0317 0.2795 0.8715   0.651085
 C 0.4715 0.7237 0.6412   0.095522
 C 0.453 0.7046 0.8036   0.083394
 C 0.9618 0.8796 0.5767   -0.079642
 C 0.865 0.9808 0.5611   -0.053689
 C 0.0945 0.9019 0.5159   -0.046176
 C 0.9225 0.7471 0.6563   0.690491
 C 0.7205 0.9683 0.6285   0.651085
 C 0.2763 0.5285 0.8588   0.095521
 C 0.2954 0.547 0.6964   0.083394
 C 0.7491 0.2509 0.25   0.04624
 C 0.5058 0.4942 0.25   0.10693
 C 0.2509 0.7491 0.75   0.04624
 C 0.4942 0.5058 0.75   0.10693
 N 0.5971 0.2193 0.2786   -0.247776
 N 0.557 0.425 0.3313   -0.306262
 N 0.7807 0.4029 0.2214   -0.247776
 N 0.575 0.443 0.1687   -0.306262
 N 0.4029 0.7807 0.7214   -0.247776
 N 0.443 0.575 0.6687   -0.306263
 N 0.2193 0.5971 0.7786   -0.247776
 N 0.425 0.557 0.8313   -0.306263
 O 0.7038 0.0116 0.1991   -0.621137
 O 0.6864 0.811 0.1731   -0.577236
 O 0.9863 0.6235 0.0892   -0.600603
 O 0.9462 0.7004 0.2131   -0.537542
 O 0.9884 0.2962 0.3009   -0.621137
 O 0.189 0.3136 0.3269   -0.577236
 O 0.3765 0.0137 0.4108   -0.600603
 O 0.2996 0.0538 0.2869   -0.537542
 O 0.2962 0.9884 0.8009   -0.621137
 O 0.3136 0.189 0.8269   -0.577236
 O 0.0137 0.3765 0.9108   -0.600603
 O 0.0538 0.2996 0.7869   -0.537542
 O 0.0116 0.7038 0.6991   -0.621137
 O 0.811 0.6864 0.6731   -0.577236
 O 0.6235 0.9863 0.5892   -0.600603
 O 0.7004 0.9462 0.7131   -0.537542
