{'_ref': 'TBD', '_srcid': 'CAKYAQ_clean', 'submitters': [{'name': 'Dalar Nazarian Jeff Camp and David Sholl', 'email': 'dalar@gatech.edu jcamp6@gatech.edu'}], '_method': 'VASP DFT with PBE;DDEC'}
data_Dy2Cu3H24(C4O5)6
_symmetry_space_group_name_H-M   'P 1'
_cell_length_a   14.62420000
_cell_length_b   14.62420025
_cell_length_c   15.18700000
_cell_angle_alpha   90.00000000
_cell_angle_beta   90.00000000
_cell_angle_gamma   119.99999943
_symmetry_Int_Tables_number   1
_chemical_formula_structural   Dy2Cu3H24(C4O5)6
_chemical_formula_sum   'Dy4 Cu6 H48 C48 O60'
_cell_volume   2812.85192325
_cell_formula_units_Z   2
loop_
 _symmetry_equiv_pos_site_id
 _symmetry_equiv_pos_as_xyz
  1  'x, y, z'
loop_
 _atom_site_label
 _atom_site_fract_x
 _atom_site_fract_y
 _atom_site_fract_z
 _atom_site_charge
 Dy 0.33333 0.66666 0.75   2.206855
 Dy 0.66667 0.33334 0.75   2.206855
 Dy 0.66667 0.33334 0.25   2.206855
 Dy 0.33333 0.66666 0.25   2.206855
 Cu 0.0 0.5 0.5   1.055301
 Cu 0.5 0.0 0.5   1.055304
 Cu 0.5 0.5 0.5   1.055293
 Cu 0.5 0.5 0.0   1.055301
 Cu 0.5 0.0 0.0   1.055304
 Cu 0.0 0.5 0.0   1.055294
 H 0.1623 0.7963 0.6596   0.098301
 H 0.0875 0.7176 0.732   0.080162
 H 0.634 0.8377 0.6596   0.098294
 H 0.6301 0.9125 0.732   0.080163
 H 0.2037 0.366 0.6596   0.098282
 H 0.2824 0.3699 0.732   0.080163
 H 0.8377 0.2037 0.6596   0.0983
 H 0.9125 0.2824 0.732   0.080162
 H 0.366 0.1623 0.6596   0.098294
 H 0.3699 0.0875 0.732   0.080163
 H 0.7963 0.634 0.6596   0.098281
 H 0.7176 0.6301 0.732   0.080163
 H 0.366 0.2037 0.8404   0.098301
 H 0.3699 0.2824 0.768   0.080161
 H 0.7963 0.1623 0.8404   0.098294
 H 0.7176 0.0875 0.768   0.080162
 H 0.8377 0.634 0.8404   0.098281
 H 0.9125 0.6301 0.768   0.080162
 H 0.634 0.7963 0.8404   0.0983
 H 0.6301 0.7176 0.768   0.080161
 H 0.2037 0.8377 0.8404   0.098293
 H 0.2824 0.9125 0.768   0.080162
 H 0.1623 0.366 0.8404   0.098281
 H 0.0875 0.3699 0.768   0.080162
 H 0.8377 0.2037 0.3404   0.098303
 H 0.9125 0.2824 0.268   0.080162
 H 0.366 0.1623 0.3404   0.098296
 H 0.3699 0.0875 0.268   0.080164
 H 0.7963 0.634 0.3404   0.098283
 H 0.7176 0.6301 0.268   0.080163
 H 0.1623 0.7963 0.3404   0.098302
 H 0.0875 0.7176 0.268   0.080162
 H 0.634 0.8377 0.3404   0.098295
 H 0.6301 0.9125 0.268   0.080163
 H 0.2037 0.366 0.3404   0.098283
 H 0.2824 0.3699 0.268   0.080163
 H 0.634 0.7963 0.1596   0.098302
 H 0.6301 0.7176 0.232   0.080161
 H 0.2037 0.8377 0.1596   0.098296
 H 0.2824 0.9125 0.232   0.080163
 H 0.1623 0.366 0.1596   0.098283
 H 0.0875 0.3699 0.232   0.080162
 H 0.366 0.2037 0.1596   0.098302
 H 0.3699 0.2824 0.232   0.080161
 H 0.7963 0.1623 0.1596   0.098295
 H 0.7176 0.0875 0.232   0.080163
 H 0.8377 0.634 0.1596   0.098282
 H 0.9125 0.6301 0.232   0.080162
 C 0.1306 0.645 0.6391   0.724214
 C 0.1494 0.7367 0.6962   -0.047121
 C 0.5144 0.8694 0.6391   0.724208
 C 0.5873 0.8506 0.6962   -0.047115
 C 0.355 0.4856 0.6391   0.724195
 C 0.2633 0.4127 0.6962   -0.047067
 C 0.8694 0.355 0.6391   0.724214
 C 0.8506 0.2633 0.6962   -0.047121
 C 0.4856 0.1306 0.6391   0.724208
 C 0.4127 0.1494 0.6962   -0.047114
 C 0.645 0.5144 0.6391   0.724195
 C 0.7367 0.5873 0.6962   -0.047067
 C 0.4856 0.355 0.8609   0.724213
 C 0.4127 0.2633 0.8038   -0.047121
 C 0.645 0.1306 0.8609   0.724208
 C 0.7367 0.1494 0.8038   -0.047114
 C 0.8694 0.5144 0.8609   0.724195
 C 0.8506 0.5873 0.8038   -0.047067
 C 0.5144 0.645 0.8609   0.724213
 C 0.5873 0.7367 0.8038   -0.04712
 C 0.355 0.8694 0.8609   0.724207
 C 0.2633 0.8506 0.8038   -0.047114
 C 0.1306 0.4856 0.8609   0.724194
 C 0.1494 0.4127 0.8038   -0.047066
 C 0.8694 0.355 0.3609   0.724214
 C 0.8506 0.2633 0.3038   -0.047121
 C 0.4856 0.1306 0.3609   0.724209
 C 0.4127 0.1494 0.3038   -0.047115
 C 0.645 0.5144 0.3609   0.724196
 C 0.7367 0.5873 0.3038   -0.047068
 C 0.1306 0.645 0.3609   0.724214
 C 0.1494 0.7367 0.3038   -0.047121
 C 0.5144 0.8694 0.3609   0.724209
 C 0.5873 0.8506 0.3038   -0.047115
 C 0.355 0.4856 0.3609   0.724196
 C 0.2633 0.4127 0.3038   -0.047067
 C 0.5144 0.645 0.1391   0.724214
 C 0.5873 0.7367 0.1962   -0.047121
 C 0.355 0.8694 0.1391   0.724208
 C 0.2633 0.8506 0.1962   -0.047115
 C 0.1306 0.4856 0.1391   0.724195
 C 0.1494 0.4127 0.1962   -0.047067
 C 0.4856 0.355 0.1391   0.724214
 C 0.4127 0.2633 0.1962   -0.047121
 C 0.645 0.1306 0.1391   0.724208
 C 0.7367 0.1494 0.1962   -0.047115
 C 0.8694 0.5144 0.1391   0.724195
 C 0.8506 0.5873 0.1962   -0.047067
 O 0.1955 0.6125 0.6444   -0.703223
 O 0.0529 0.6103 0.5894   -0.612218
 O 0.417 0.8045 0.6444   -0.703216
 O 0.5574 0.9471 0.5894   -0.612222
 O 0.3875 0.583 0.6444   -0.703211
 O 0.3897 0.4426 0.5894   -0.612211
 O 0.8045 0.3875 0.6444   -0.703223
 O 0.9471 0.3897 0.5894   -0.612218
 O 0.583 0.1955 0.6444   -0.703216
 O 0.4426 0.0529 0.5894   -0.612222
 O 0.6125 0.417 0.6444   -0.703211
 O 0.6103 0.5574 0.5894   -0.612211
 O 0.583 0.3875 0.8556   -0.703223
 O 0.4426 0.3897 0.9106   -0.612218
 O 0.6125 0.1955 0.8556   -0.703216
 O 0.6103 0.0529 0.9106   -0.612222
 O 0.8045 0.417 0.8556   -0.703211
 O 0.9471 0.5574 0.9106   -0.61221
 O 0.417 0.6125 0.8556   -0.703223
 O 0.5574 0.6103 0.9106   -0.612218
 O 0.3875 0.8045 0.8556   -0.703216
 O 0.3897 0.9471 0.9106   -0.612222
 O 0.1955 0.583 0.8556   -0.703211
 O 0.0529 0.4426 0.9106   -0.612211
 O 0.8045 0.3875 0.3556   -0.703223
 O 0.9471 0.3897 0.4106   -0.612217
 O 0.583 0.1955 0.3556   -0.703216
 O 0.4426 0.0529 0.4106   -0.612222
 O 0.6125 0.417 0.3556   -0.703211
 O 0.6103 0.5574 0.4106   -0.61221
 O 0.1955 0.6125 0.3556   -0.703223
 O 0.0529 0.6103 0.4106   -0.612218
 O 0.417 0.8045 0.3556   -0.703216
 O 0.5574 0.9471 0.4106   -0.612222
 O 0.3875 0.583 0.3556   -0.703211
 O 0.3897 0.4426 0.4106   -0.61221
 O 0.417 0.6125 0.1444   -0.703223
 O 0.5574 0.6103 0.0894   -0.612217
 O 0.3875 0.8045 0.1444   -0.703216
 O 0.3897 0.9471 0.0894   -0.612222
 O 0.1955 0.583 0.1444   -0.703211
 O 0.0529 0.4426 0.0894   -0.61221
 O 0.583 0.3875 0.1444   -0.703223
 O 0.4426 0.3897 0.0894   -0.612217
 O 0.6125 0.1955 0.1444   -0.703216
 O 0.6103 0.0529 0.0894   -0.612222
 O 0.8045 0.417 0.1444   -0.703211
 O 0.9471 0.5574 0.0894   -0.61221
 O 0.23615 0.76385 0.75   -0.343499
 O 0.5277 0.76385 0.75   -0.343499
 O 0.23615 0.4723 0.75   -0.343566
 O 0.76385 0.23615 0.75   -0.343499
 O 0.4723 0.23615 0.75   -0.343499
 O 0.76385 0.5277 0.75   -0.343566
 O 0.76385 0.23615 0.25   -0.343499
 O 0.4723 0.23615 0.25   -0.343499
 O 0.76385 0.5277 0.25   -0.343566
 O 0.23615 0.76385 0.25   -0.343499
 O 0.5277 0.76385 0.25   -0.343499
 O 0.23615 0.4723 0.25   -0.343566
