{'_ref': 'TBD', '_srcid': 'CAKYAQ_clean', 'submitters': [{'name': 'Dalar Nazarian Jeff Camp and David Sholl', 'email': 'dalar@gatech.edu jcamp6@gatech.edu'}], '_method': 'VASP DFT with PBE;DDEC'}
data_Ho2Cu3H24(C4O5)6
_symmetry_space_group_name_H-M   'P 1'
_cell_length_a   14.36830000
_cell_length_b   14.36830017
_cell_length_c   15.39300000
_cell_angle_alpha   90.00000000
_cell_angle_beta   90.00000000
_cell_angle_gamma   119.99999962
_symmetry_Int_Tables_number   1
_chemical_formula_structural   Ho2Cu3H24(C4O5)6
_chemical_formula_sum   'Ho4 Cu6 H48 C48 O60'
_cell_volume   2752.10298956
_cell_formula_units_Z   2
loop_
 _symmetry_equiv_pos_site_id
 _symmetry_equiv_pos_as_xyz
  1  'x, y, z'
loop_
 _atom_site_label
 _atom_site_fract_x
 _atom_site_fract_y
 _atom_site_fract_z
 _atom_site_charge
 Ho 0.66667 0.33334 0.75   2.13927
 Ho 0.33333 0.66666 0.75   2.139269
 Ho 0.33333 0.66666 0.25   2.139233
 Ho 0.66667 0.33334 0.25   2.139233
 Cu 0.0 0.5 0.0   1.038133
 Cu 0.5 0.0 0.0   1.033336
 Cu 0.5 0.5 0.0   1.044953
 Cu 0.5 0.5 0.5   1.038158
 Cu 0.5 0.0 0.5   1.033403
 Cu 0.0 0.5 0.5   1.044914
 H 0.915 0.2783 0.7722   0.079154
 H 0.8348 0.1984 0.8419   0.100098
 H 0.3633 0.085 0.7722   0.079134
 H 0.3636 0.1652 0.8419   0.099731
 H 0.7217 0.6367 0.7722   0.079341
 H 0.8016 0.6364 0.8419   0.099991
 H 0.085 0.7217 0.7722   0.079159
 H 0.1652 0.8016 0.8419   0.100135
 H 0.6367 0.915 0.7722   0.079138
 H 0.6364 0.8348 0.8419   0.099766
 H 0.2783 0.3633 0.7722   0.079345
 H 0.1984 0.3636 0.8419   0.100024
 H 0.6367 0.7217 0.7278   0.07916
 H 0.6364 0.8016 0.6581   0.100082
 H 0.2783 0.915 0.7278   0.079136
 H 0.1984 0.8348 0.6581   0.099758
 H 0.085 0.3633 0.7278   0.079356
 H 0.1652 0.3636 0.6581   0.099994
 H 0.3633 0.2783 0.7278   0.079163
 H 0.3636 0.1984 0.6581   0.100114
 H 0.7217 0.085 0.7278   0.079139
 H 0.8016 0.1652 0.6581   0.099791
 H 0.915 0.6367 0.7278   0.07936
 H 0.8348 0.6364 0.6581   0.100027
 H 0.085 0.7217 0.2278   0.079155
 H 0.1652 0.8016 0.1581   0.100105
 H 0.6367 0.915 0.2278   0.079134
 H 0.6364 0.8348 0.1581   0.099741
 H 0.2783 0.3633 0.2278   0.079342
 H 0.1984 0.3636 0.1581   0.100003
 H 0.915 0.2783 0.2278   0.079159
 H 0.8348 0.1984 0.1581   0.100142
 H 0.3633 0.085 0.2278   0.079139
 H 0.3636 0.1652 0.1581   0.099775
 H 0.7217 0.6367 0.2278   0.079346
 H 0.8016 0.6364 0.1581   0.100035
 H 0.3633 0.2783 0.2722   0.07916
 H 0.3636 0.1984 0.3419   0.100091
 H 0.7217 0.085 0.2722   0.079137
 H 0.8016 0.1652 0.3419   0.099767
 H 0.915 0.6367 0.2722   0.079357
 H 0.8348 0.6364 0.3419   0.100006
 H 0.6367 0.7217 0.2722   0.079164
 H 0.6364 0.8016 0.3419   0.100122
 H 0.2783 0.915 0.2722   0.07914
 H 0.1984 0.8348 0.3419   0.0998
 H 0.085 0.3633 0.2722   0.079361
 H 0.1652 0.3636 0.3419   0.100039
 C 0.8693 0.3533 0.8614   0.720059
 C 0.8509 0.2599 0.8057   -0.046804
 C 0.484 0.1307 0.8614   0.719455
 C 0.409 0.1491 0.8057   -0.046192
 C 0.6467 0.516 0.8614   0.720475
 C 0.7401 0.591 0.8057   -0.046884
 C 0.1307 0.6467 0.8614   0.720056
 C 0.1491 0.7401 0.8057   -0.046819
 C 0.516 0.8693 0.8614   0.719454
 C 0.591 0.8509 0.8057   -0.046205
 C 0.3533 0.484 0.8614   0.720471
 C 0.2599 0.409 0.8057   -0.046896
 C 0.516 0.6467 0.6386   0.720062
 C 0.591 0.7401 0.6943   -0.046799
 C 0.3533 0.8693 0.6386   0.719458
 C 0.2599 0.8509 0.6943   -0.046198
 C 0.1307 0.484 0.6386   0.720491
 C 0.1491 0.409 0.6943   -0.046905
 C 0.484 0.3533 0.6386   0.720059
 C 0.409 0.2599 0.6943   -0.046811
 C 0.6467 0.1307 0.6386   0.719457
 C 0.7401 0.1491 0.6943   -0.04621
 C 0.8693 0.516 0.6386   0.720489
 C 0.8509 0.591 0.6943   -0.046917
 C 0.1307 0.6467 0.1386   0.720056
 C 0.1491 0.7401 0.1943   -0.046808
 C 0.516 0.8693 0.1386   0.719449
 C 0.591 0.8509 0.1943   -0.046195
 C 0.3533 0.484 0.1386   0.720469
 C 0.2599 0.409 0.1943   -0.046889
 C 0.8693 0.3533 0.1386   0.720053
 C 0.8509 0.2599 0.1943   -0.046822
 C 0.484 0.1307 0.1386   0.719448
 C 0.409 0.1491 0.1943   -0.046208
 C 0.6467 0.516 0.1386   0.720466
 C 0.7401 0.591 0.1943   -0.046901
 C 0.484 0.3533 0.3614   0.720055
 C 0.409 0.2599 0.3057   -0.046802
 C 0.6467 0.1307 0.3614   0.719455
 C 0.7401 0.1491 0.3057   -0.046201
 C 0.8693 0.516 0.3614   0.720486
 C 0.8509 0.591 0.3057   -0.046909
 C 0.516 0.6467 0.3614   0.720052
 C 0.591 0.7401 0.3057   -0.046814
 C 0.3533 0.8693 0.3614   0.719454
 C 0.2599 0.8509 0.3057   -0.046214
 C 0.1307 0.484 0.3614   0.720483
 C 0.1491 0.409 0.3057   -0.046921
 O 0.8052 0.3875 0.8549   -0.684989
 O 0.9479 0.388 0.912   -0.61274
 O 0.5823 0.1948 0.8549   -0.685001
 O 0.4401 0.0521 0.912   -0.611487
 O 0.6125 0.4177 0.8549   -0.684858
 O 0.612 0.5599 0.912   -0.613833
 O 0.1948 0.6125 0.8549   -0.684989
 O 0.0521 0.612 0.912   -0.612735
 O 0.4177 0.8052 0.8549   -0.685001
 O 0.5599 0.9479 0.912   -0.611485
 O 0.3875 0.5823 0.8549   -0.684858
 O 0.388 0.4401 0.912   -0.613831
 O 0.4177 0.6125 0.6451   -0.68499
 O 0.5599 0.612 0.588   -0.612749
 O 0.3875 0.8052 0.6451   -0.684997
 O 0.388 0.9479 0.588   -0.61149
 O 0.1948 0.5823 0.6451   -0.684864
 O 0.0521 0.4401 0.588   -0.613825
 O 0.5823 0.3875 0.6451   -0.68499
 O 0.4401 0.388 0.588   -0.612745
 O 0.6125 0.1948 0.6451   -0.684997
 O 0.612 0.0521 0.588   -0.611489
 O 0.8052 0.4177 0.6451   -0.684864
 O 0.9479 0.5599 0.588   -0.613823
 O 0.1948 0.6125 0.1451   -0.684988
 O 0.0521 0.612 0.088   -0.61274
 O 0.4177 0.8052 0.1451   -0.684999
 O 0.5599 0.9479 0.088   -0.611491
 O 0.3875 0.5823 0.1451   -0.684856
 O 0.388 0.4401 0.088   -0.613833
 O 0.8052 0.3875 0.1451   -0.684988
 O 0.9479 0.388 0.088   -0.612735
 O 0.5823 0.1948 0.1451   -0.685
 O 0.4401 0.0521 0.088   -0.61149
 O 0.6125 0.4177 0.1451   -0.684857
 O 0.612 0.5599 0.088   -0.613831
 O 0.5823 0.3875 0.3549   -0.684988
 O 0.4401 0.388 0.412   -0.612748
 O 0.6125 0.1948 0.3549   -0.684996
 O 0.612 0.0521 0.412   -0.611496
 O 0.8052 0.4177 0.3549   -0.684862
 O 0.9479 0.5599 0.412   -0.613825
 O 0.4177 0.6125 0.3549   -0.684988
 O 0.5599 0.612 0.412   -0.612744
 O 0.3875 0.8052 0.3549   -0.684996
 O 0.388 0.9479 0.412   -0.611494
 O 0.1948 0.5823 0.3549   -0.684862
 O 0.0521 0.4401 0.412   -0.613823
 O 0.76515 0.23485 0.75   -0.342396
 O 0.4697 0.23485 0.75   -0.342399
 O 0.76515 0.5303 0.75   -0.342095
 O 0.23485 0.76515 0.75   -0.342395
 O 0.5303 0.76515 0.75   -0.342399
 O 0.23485 0.4697 0.75   -0.342095
 O 0.23485 0.76515 0.25   -0.342393
 O 0.5303 0.76515 0.25   -0.342396
 O 0.23485 0.4697 0.25   -0.342092
 O 0.76515 0.23485 0.25   -0.342393
 O 0.4697 0.23485 0.25   -0.342396
 O 0.76515 0.5303 0.25   -0.342092
