{'_ref': 'TBD', '_srcid': 'CAKYAQ_clean', 'submitters': [{'name': 'Dalar Nazarian Jeff Camp and David Sholl', 'email': 'dalar@gatech.edu jcamp6@gatech.edu'}], '_method': 'VASP DFT with PBE;DDEC'}
data_ZnH16(C17N5)2
_symmetry_space_group_name_H-M   'P 1'
_cell_length_a   12.61400000
_cell_length_b   14.60400000
_cell_length_c   22.85700000
_cell_angle_alpha   90.00000000
_cell_angle_beta   90.00000000
_cell_angle_gamma   90.00000000
_symmetry_Int_Tables_number   1
_chemical_formula_structural   ZnH16(C17N5)2
_chemical_formula_sum   'Zn4 H64 C136 N40'
_cell_volume   4210.59896359
_cell_formula_units_Z   4
loop_
 _symmetry_equiv_pos_site_id
 _symmetry_equiv_pos_as_xyz
  1  'x, y, z'
loop_
 _atom_site_label
 _atom_site_fract_x
 _atom_site_fract_y
 _atom_site_fract_z
 _atom_site_charge
 Zn 0.5 0.76142 0.75   0.84876
 Zn 0.5 0.73858 0.25   0.848761
 Zn 0.5 0.23858 0.25   0.848761
 Zn 0.5 0.26142 0.75   0.848761
 H 0.073 0.862 0.904   0.114722
 H 0.201 0.868 0.8402   0.116073
 H 0.21 0.153 0.8452   0.120697
 H 0.08 0.149 0.9189   0.110045
 H 0.652 0.796 0.9509   0.130667
 H 0.638 0.7958 0.8564   0.065277
 H 0.351 0.724 0.8546   0.074367
 H 0.341 0.707 0.9518   0.13541
 H 0.927 0.862 0.596   0.114722
 H 0.799 0.868 0.6598   0.116073
 H 0.79 0.153 0.6548   0.120697
 H 0.92 0.149 0.5811   0.110045
 H 0.348 0.796 0.5491   0.130667
 H 0.362 0.7958 0.6436   0.065277
 H 0.649 0.724 0.6454   0.074367
 H 0.659 0.707 0.5482   0.13541
 H 0.073 0.638 0.096   0.114722
 H 0.201 0.632 0.1598   0.116073
 H 0.21 0.347 0.1548   0.120697
 H 0.08 0.351 0.0811   0.110045
 H 0.652 0.704 0.0491   0.130667
 H 0.638 0.7042 0.1436   0.065277
 H 0.351 0.776 0.1454   0.074367
 H 0.341 0.793 0.0482   0.13541
 H 0.927 0.638 0.404   0.114722
 H 0.799 0.632 0.3402   0.116073
 H 0.79 0.347 0.3452   0.120697
 H 0.92 0.351 0.4189   0.110045
 H 0.348 0.704 0.4509   0.130667
 H 0.362 0.7042 0.3564   0.065277
 H 0.649 0.776 0.3546   0.074367
 H 0.659 0.793 0.4518   0.13541
 H 0.927 0.138 0.096   0.114722
 H 0.799 0.132 0.1598   0.116073
 H 0.79 0.847 0.1548   0.120696
 H 0.92 0.851 0.0811   0.110045
 H 0.348 0.204 0.0491   0.130667
 H 0.362 0.2042 0.1436   0.065277
 H 0.649 0.276 0.1454   0.074367
 H 0.659 0.293 0.0482   0.13541
 H 0.073 0.138 0.404   0.114722
 H 0.201 0.132 0.3402   0.116073
 H 0.21 0.847 0.3452   0.120696
 H 0.08 0.851 0.4189   0.110045
 H 0.652 0.204 0.4509   0.130667
 H 0.638 0.2042 0.3564   0.065277
 H 0.351 0.276 0.3546   0.074367
 H 0.341 0.293 0.4518   0.13541
 H 0.927 0.362 0.904   0.114722
 H 0.799 0.368 0.8402   0.116073
 H 0.79 0.653 0.8452   0.120696
 H 0.92 0.649 0.9189   0.110045
 H 0.348 0.296 0.9509   0.130667
 H 0.362 0.2958 0.8564   0.065277
 H 0.649 0.224 0.8546   0.074367
 H 0.659 0.207 0.9518   0.13541
 H 0.073 0.362 0.596   0.114722
 H 0.201 0.368 0.6598   0.116073
 H 0.21 0.653 0.6548   0.120696
 H 0.08 0.649 0.5811   0.110045
 H 0.652 0.296 0.5491   0.130667
 H 0.638 0.2958 0.6436   0.065277
 H 0.351 0.224 0.6454   0.074367
 H 0.341 0.207 0.5482   0.13541
 C 0.1859 0.08975 0.86053   -0.17314
 C 0.2243 0.00828 0.83571   0.189468
 C 0.34526 0.9299 0.76647   0.435625
 C 0.34491 0.09176 0.76832   0.436372
 C 0.30318 0.01014 0.78952   -0.436612
 C 0.5853 0.7766 0.87586   0.188612
 C 0.5888 0.77222 0.93659   -0.196578
 C 0.49665 0.7523 0.96749   0.108435
 C 0.1829 0.92568 0.85603   -0.153289
 C 0.4046 0.7366 0.93543   -0.20662
 C 0.9763 0.0021 0.96698   0.011586
 C 0.9086 0.0839 0.96286   0.283904
 C 0.9084 0.9205 0.95947   0.283628
 C 0.1057 0.0874 0.90219   -0.096665
 C 0.0635 0.00432 0.9206   -0.049768
 C 0.4093 0.7404 0.87465   0.184653
 C 0.1038 0.9235 0.89752   -0.103759
 C 0.8141 0.08975 0.63947   -0.173141
 C 0.7757 0.00828 0.66429   0.189468
 C 0.65474 0.9299 0.73353   0.435625
 C 0.65509 0.09176 0.73168   0.436372
 C 0.69682 0.01014 0.71048   -0.436612
 C 0.4147 0.7766 0.62414   0.188613
 C 0.4112 0.77222 0.56341   -0.196578
 C 0.50335 0.7523 0.53251   0.108435
 C 0.8171 0.92568 0.64397   -0.15329
 C 0.5954 0.7366 0.56457   -0.20662
 C 0.0237 0.0021 0.53302   0.011586
 C 0.0914 0.0839 0.53714   0.283904
 C 0.0916 0.9205 0.54053   0.283628
 C 0.8943 0.0874 0.59781   -0.096665
 C 0.9365 0.00432 0.5794   -0.049768
 C 0.5907 0.7404 0.62535   0.184653
 C 0.8962 0.9235 0.60248   -0.103759
 C 0.1859 0.41025 0.13947   -0.17314
 C 0.2243 0.49172 0.16429   0.189468
 C 0.34526 0.5701 0.23353   0.435625
 C 0.34491 0.40824 0.23168   0.436372
 C 0.30318 0.48986 0.21048   -0.436612
 C 0.5853 0.7234 0.12414   0.188613
 C 0.5888 0.72778 0.06341   -0.196578
 C 0.49665 0.7477 0.03251   0.108438
 C 0.1829 0.57432 0.14397   -0.153289
 C 0.4046 0.7634 0.06457   -0.206621
 C 0.9763 0.4979 0.03302   0.011586
 C 0.9086 0.4161 0.03714   0.283904
 C 0.9084 0.5795 0.04053   0.283628
 C 0.1057 0.4126 0.09781   -0.096665
 C 0.0635 0.49568 0.0794   -0.049768
 C 0.4093 0.7596 0.12535   0.184653
 C 0.1038 0.5765 0.10248   -0.103759
 C 0.8141 0.41025 0.36053   -0.173141
 C 0.7757 0.49172 0.33571   0.189468
 C 0.65474 0.5701 0.26647   0.435625
 C 0.65509 0.40824 0.26832   0.436372
 C 0.69682 0.48986 0.28952   -0.436612
 C 0.4147 0.7234 0.37586   0.188613
 C 0.4112 0.72778 0.43659   -0.196578
 C 0.50335 0.7477 0.46749   0.108438
 C 0.8171 0.57432 0.35603   -0.15329
 C 0.5954 0.7634 0.43543   -0.206621
 C 0.0237 0.4979 0.46698   0.011586
 C 0.0914 0.4161 0.46286   0.283904
 C 0.0916 0.5795 0.45947   0.283628
 C 0.8943 0.4126 0.40219   -0.096665
 C 0.9365 0.49568 0.4206   -0.049768
 C 0.5907 0.7596 0.37465   0.184653
 C 0.8962 0.5765 0.39752   -0.103759
 C 0.8141 0.91025 0.13947   -0.17314
 C 0.7757 0.99172 0.16429   0.189468
 C 0.65474 0.0701 0.23353   0.435625
 C 0.65509 0.90824 0.23168   0.436372
 C 0.69682 0.98986 0.21048   -0.436612
 C 0.4147 0.2234 0.12414   0.188613
 C 0.4112 0.22778 0.06341   -0.196577
 C 0.50335 0.2477 0.03251   0.108435
 C 0.8171 0.07432 0.14397   -0.153289
 C 0.5954 0.2634 0.06457   -0.206619
 C 0.0237 0.9979 0.03302   0.011586
 C 0.0914 0.9161 0.03714   0.283905
 C 0.0916 0.0795 0.04053   0.283628
 C 0.8943 0.9126 0.09781   -0.096665
 C 0.9365 0.99568 0.0794   -0.049768
 C 0.5907 0.2596 0.12535   0.184654
 C 0.8962 0.0765 0.10248   -0.103759
 C 0.1859 0.91025 0.36053   -0.173141
 C 0.2243 0.99172 0.33571   0.189468
 C 0.34526 0.0701 0.26647   0.435625
 C 0.34491 0.90824 0.26832   0.436372
 C 0.30318 0.98986 0.28952   -0.436612
 C 0.5853 0.2234 0.37586   0.188613
 C 0.5888 0.22778 0.43659   -0.196577
 C 0.49665 0.2477 0.46749   0.108435
 C 0.1829 0.07432 0.35603   -0.15329
 C 0.4046 0.2634 0.43543   -0.206619
 C 0.9763 0.9979 0.46698   0.011586
 C 0.9086 0.9161 0.46286   0.283905
 C 0.9084 0.0795 0.45947   0.283629
 C 0.1057 0.9126 0.40219   -0.096665
 C 0.0635 0.99568 0.4206   -0.049768
 C 0.4093 0.2596 0.37465   0.184654
 C 0.1038 0.0765 0.39752   -0.103759
 C 0.8141 0.58975 0.86053   -0.17314
 C 0.7757 0.50828 0.83571   0.189468
 C 0.65474 0.4299 0.76647   0.435625
 C 0.65509 0.59176 0.76832   0.436372
 C 0.69682 0.51014 0.78952   -0.436612
 C 0.4147 0.2766 0.87586   0.188613
 C 0.4112 0.27222 0.93659   -0.196577
 C 0.50335 0.2523 0.96749   0.108438
 C 0.8171 0.42568 0.85603   -0.153289
 C 0.5954 0.2366 0.93543   -0.20662
 C 0.0237 0.5021 0.96698   0.011586
 C 0.0914 0.5839 0.96286   0.283905
 C 0.0916 0.4205 0.95947   0.283628
 C 0.8943 0.5874 0.90219   -0.096665
 C 0.9365 0.50432 0.9206   -0.049768
 C 0.5907 0.2404 0.87465   0.184654
 C 0.8962 0.4235 0.89752   -0.103759
 C 0.1859 0.58975 0.63947   -0.173141
 C 0.2243 0.50828 0.66429   0.189468
 C 0.34526 0.4299 0.73353   0.435625
 C 0.34491 0.59176 0.73168   0.436372
 C 0.30318 0.51014 0.71048   -0.436612
 C 0.5853 0.2766 0.62414   0.188613
 C 0.5888 0.27222 0.56341   -0.196577
 C 0.49665 0.2523 0.53251   0.108438
 C 0.1829 0.42568 0.64397   -0.15329
 C 0.4046 0.2366 0.56457   -0.20662
 C 0.9763 0.5021 0.53302   0.011586
 C 0.9086 0.5839 0.53714   0.283905
 C 0.9084 0.4205 0.54053   0.283629
 C 0.1057 0.5874 0.59781   -0.096665
 C 0.0635 0.50432 0.5794   -0.049768
 C 0.4093 0.2404 0.62535   0.184654
 C 0.1038 0.4235 0.60248   -0.103759
 N 0.3797 0.86317 0.74825   -0.494279
 N 0.3789 0.15911 0.75115   -0.495078
 N 0.8612 0.1496 0.9584   -0.340578
 N 0.49669 0.76004 0.84495   -0.328128
 N 0.8594 0.8556 0.95243   -0.339428
 N 0.6203 0.86317 0.75175   -0.494279
 N 0.6211 0.15911 0.74885   -0.495078
 N 0.1388 0.1496 0.5416   -0.340578
 N 0.50331 0.76004 0.65505   -0.328128
 N 0.1406 0.8556 0.54757   -0.339428
 N 0.3797 0.63683 0.25175   -0.494279
 N 0.3789 0.34089 0.24885   -0.495078
 N 0.8612 0.3504 0.0416   -0.340578
 N 0.49669 0.73996 0.15505   -0.328128
 N 0.8594 0.6444 0.04757   -0.339428
 N 0.6203 0.63683 0.24825   -0.494279
 N 0.6211 0.34089 0.25115   -0.495078
 N 0.1388 0.3504 0.4584   -0.340578
 N 0.50331 0.73996 0.34495   -0.328128
 N 0.1406 0.6444 0.45243   -0.339428
 N 0.6203 0.13683 0.25175   -0.494279
 N 0.6211 0.84089 0.24885   -0.495078
 N 0.1388 0.8504 0.0416   -0.340578
 N 0.50331 0.23996 0.15505   -0.328128
 N 0.1406 0.1444 0.04757   -0.339428
 N 0.3797 0.13683 0.24825   -0.494279
 N 0.3789 0.84089 0.25115   -0.495078
 N 0.8612 0.8504 0.4584   -0.340578
 N 0.49669 0.23996 0.34495   -0.328128
 N 0.8594 0.1444 0.45243   -0.339428
 N 0.6203 0.36317 0.74825   -0.494279
 N 0.6211 0.65911 0.75115   -0.495078
 N 0.1388 0.6496 0.9584   -0.340578
 N 0.50331 0.26004 0.84495   -0.328128
 N 0.1406 0.3556 0.95243   -0.339428
 N 0.3797 0.36317 0.75175   -0.494279
 N 0.3789 0.65911 0.74885   -0.495078
 N 0.8612 0.6496 0.5416   -0.340578
 N 0.49669 0.26004 0.65505   -0.328128
 N 0.8594 0.3556 0.54757   -0.339428
