{'_ref': 'TBD', '_srcid': 'CAKYAQ_clean', 'submitters': [{'name': 'Dalar Nazarian Jeff Camp and David Sholl', 'email': 'dalar@gatech.edu jcamp6@gatech.edu'}], '_method': 'VASP DFT with PBE;DDEC'}
data_ZnH16(C17N5)2
_symmetry_space_group_name_H-M   'P 1'
_cell_length_a   11.41900000
_cell_length_b   12.67000000
_cell_length_c   14.75200000
_cell_angle_alpha   90.00000000
_cell_angle_beta   90.00000000
_cell_angle_gamma   90.00000000
_symmetry_Int_Tables_number   1
_chemical_formula_structural   ZnH16(C17N5)2
_chemical_formula_sum   'Zn2 H32 C68 N20'
_cell_volume   2134.30062496
_cell_formula_units_Z   2
loop_
 _symmetry_equiv_pos_site_id
 _symmetry_equiv_pos_as_xyz
  1  'x, y, z'
loop_
 _atom_site_label
 _atom_site_fract_x
 _atom_site_fract_y
 _atom_site_fract_z
 _atom_site_charge
 Zn 0.5 0.5 0.25   0.853821
 Zn 0.5 0.5 0.75   0.853821
 H 0.9108 0.6555 0.2748   0.128255
 H 0.698 0.7797 0.1361   0.112912
 H 0.7097 0.6504 0.2764   0.083248
 H 0.8395 0.9091 0.1355   0.100895
 H 0.0892 0.3445 0.2748   0.128255
 H 0.302 0.2203 0.1361   0.112912
 H 0.2903 0.3496 0.2764   0.083248
 H 0.1605 0.0909 0.1355   0.100895
 H 0.0892 0.6555 0.2252   0.128255
 H 0.302 0.7797 0.3639   0.112912
 H 0.2903 0.6504 0.2236   0.083248
 H 0.1605 0.9091 0.3645   0.100896
 H 0.9108 0.3445 0.2252   0.128256
 H 0.698 0.2203 0.3639   0.112912
 H 0.7097 0.3496 0.2236   0.083248
 H 0.8395 0.0909 0.3645   0.100896
 H 0.0892 0.3445 0.7252   0.128256
 H 0.302 0.2203 0.8639   0.112912
 H 0.2903 0.3496 0.7236   0.083248
 H 0.1605 0.0909 0.8645   0.100895
 H 0.9108 0.6555 0.7252   0.128255
 H 0.698 0.7797 0.8639   0.112912
 H 0.7097 0.6504 0.7236   0.083248
 H 0.8395 0.9091 0.8645   0.100895
 H 0.9108 0.3445 0.7748   0.128256
 H 0.698 0.2203 0.6361   0.112912
 H 0.7097 0.3496 0.7764   0.083248
 H 0.8395 0.0909 0.6355   0.100896
 H 0.0892 0.6555 0.7748   0.128256
 H 0.302 0.7797 0.6361   0.112912
 H 0.2903 0.6504 0.7764   0.083248
 H 0.1605 0.9091 0.6355   0.100896
 C 0.7508 0.5884 0.2651   0.164211
 C 0.8719 0.592 0.265   -0.184771
 C 0.5382 0.6515 0.08041   0.434952
 C 0.7243 0.8074 0.0814   -0.155832
 C 0.9206 0.09 0.0804   0.290994
 C 0.8074 0.886 0.081   -0.079531
 C 0.2492 0.4116 0.2651   0.164211
 C 0.1281 0.408 0.265   -0.18477
 C 0.4618 0.3485 0.08041   0.434952
 C 0.2757 0.1926 0.0814   -0.155833
 C 0.0794 0.91 0.0804   0.290994
 C 0.1926 0.114 0.081   -0.079531
 C 0.2492 0.5884 0.2349   0.164211
 C 0.1281 0.592 0.235   -0.184771
 C 0.4618 0.6515 0.41959   0.434952
 C 0.2757 0.8074 0.4186   -0.155833
 C 0.0794 0.09 0.4196   0.290993
 C 0.1926 0.886 0.419   -0.079531
 C 0.7508 0.4116 0.2349   0.164212
 C 0.8719 0.408 0.235   -0.184771
 C 0.5382 0.3485 0.41959   0.434953
 C 0.7243 0.1926 0.4186   -0.155834
 C 0.9206 0.91 0.4196   0.290994
 C 0.8074 0.114 0.419   -0.079531
 C 0.2492 0.4116 0.7349   0.164212
 C 0.1281 0.408 0.735   -0.184773
 C 0.4618 0.3485 0.91959   0.434953
 C 0.2757 0.1926 0.9186   -0.155832
 C 0.0794 0.91 0.9196   0.290993
 C 0.1926 0.114 0.919   -0.079531
 C 0.7508 0.5884 0.7349   0.164211
 C 0.8719 0.592 0.735   -0.184772
 C 0.5382 0.6515 0.91959   0.434953
 C 0.7243 0.8074 0.9186   -0.155833
 C 0.9206 0.09 0.9196   0.290993
 C 0.8074 0.886 0.919   -0.079531
 C 0.7508 0.4116 0.7651   0.164212
 C 0.8719 0.408 0.765   -0.184772
 C 0.5382 0.3485 0.58041   0.434953
 C 0.7243 0.1926 0.5814   -0.155833
 C 0.9206 0.91 0.5804   0.290993
 C 0.8074 0.114 0.581   -0.079531
 C 0.2492 0.5884 0.7651   0.164212
 C 0.1281 0.592 0.765   -0.184773
 C 0.4618 0.6515 0.58041   0.434953
 C 0.2757 0.8074 0.5814   -0.155834
 C 0.0794 0.09 0.5804   0.290993
 C 0.1926 0.886 0.581   -0.079531
 C 0.585 0.6915 0.0   -0.429448
 C 0.6783 0.7684 0.0   0.174629
 C 0.932 0.0236 0.0   0.002673
 C 0.8429 0.9315 0.0   -0.070983
 C 0.415 0.3085 0.0   -0.429448
 C 0.3217 0.2316 0.0   0.174629
 C 0.068 0.9764 0.0   0.002673
 C 0.1571 0.0685 0.0   -0.070983
 C 0.415 0.6915 0.5   -0.429449
 C 0.3217 0.7684 0.5   0.174629
 C 0.068 0.0236 0.5   0.002673
 C 0.1571 0.9315 0.5   -0.070983
 C 0.585 0.3085 0.5   -0.429449
 C 0.6783 0.2316 0.5   0.174629
 C 0.932 0.9764 0.5   0.002673
 C 0.8429 0.0685 0.5   -0.070983
 C 0.9347 0.5 0.25   0.094868
 C 0.0653 0.5 0.25   0.094862
 C 0.0653 0.5 0.75   0.094867
 C 0.9347 0.5 0.75   0.094862
 N 0.899 0.1357 0.1448   -0.340503
 N 0.50128 0.6197 0.14748   -0.497751
 N 0.101 0.8643 0.1448   -0.340503
 N 0.49872 0.3803 0.14748   -0.497751
 N 0.101 0.1357 0.3552   -0.340503
 N 0.49872 0.6197 0.35252   -0.497751
 N 0.899 0.8643 0.3552   -0.340503
 N 0.50128 0.3803 0.35252   -0.497751
 N 0.101 0.8643 0.8552   -0.340503
 N 0.49872 0.3803 0.85252   -0.497751
 N 0.899 0.1357 0.8552   -0.340503
 N 0.50128 0.6197 0.85252   -0.497751
 N 0.899 0.8643 0.6448   -0.340503
 N 0.50128 0.3803 0.64748   -0.497751
 N 0.101 0.1357 0.6448   -0.340503
 N 0.49872 0.6197 0.64748   -0.497751
 N 0.6897 0.5 0.25   -0.312804
 N 0.3103 0.5 0.25   -0.312804
 N 0.3103 0.5 0.75   -0.312804
 N 0.6897 0.5 0.75   -0.312804
