{'_ref': 'TBD', '_srcid': 'CAKYAQ_clean', 'submitters': [{'name': 'Dalar Nazarian Jeff Camp and David Sholl', 'email': 'dalar@gatech.edu jcamp6@gatech.edu'}], '_method': 'VASP DFT with PBE;DDEC'}
data_MnH3C7NClO3
_symmetry_space_group_name_H-M   'P 1'
_cell_length_a   9.06200000
_cell_length_b   9.61800000
_cell_length_c   25.60000000
_cell_angle_alpha   90.00000000
_cell_angle_beta   90.00000000
_cell_angle_gamma   90.00000000
_symmetry_Int_Tables_number   1
_chemical_formula_structural   MnH3C7NClO3
_chemical_formula_sum   'Mn8 H24 C56 N8 Cl8 O24'
_cell_volume   2231.2528896
_cell_formula_units_Z   8
loop_
 _symmetry_equiv_pos_site_id
 _symmetry_equiv_pos_as_xyz
  1  'x, y, z'
loop_
 _atom_site_label
 _atom_site_fract_x
 _atom_site_fract_y
 _atom_site_fract_z
 _atom_site_charge
 Mn 0.2269 0.75 0.25   0.148214
 Mn 0.2731 0.75 0.75   0.148214
 Mn 0.7731 0.25 0.75   0.148214
 Mn 0.7269 0.25 0.25   0.148214
 Mn 0.75 0.444 0.5   1.187054
 Mn 0.75 0.056 0.0   1.187054
 Mn 0.25 0.556 0.5   1.187053
 Mn 0.25 0.944 0.0   1.187053
 H 0.7117 0.7109 0.2854   0.128498
 H 0.7324 0.6344 0.3721   0.109494
 H 0.1686 0.6504 0.3602   0.076014
 H 0.7883 0.7109 0.7146   0.128498
 H 0.7676 0.6344 0.6279   0.109494
 H 0.3314 0.6504 0.6398   0.076014
 H 0.7883 0.7891 0.7854   0.128498
 H 0.7676 0.8656 0.8721   0.109494
 H 0.3314 0.8496 0.8602   0.076014
 H 0.7117 0.7891 0.2146   0.128498
 H 0.7324 0.8656 0.1279   0.109494
 H 0.1686 0.8496 0.1398   0.076014
 H 0.2883 0.2891 0.7146   0.128498
 H 0.2676 0.3656 0.6279   0.109494
 H 0.8314 0.3496 0.6398   0.076014
 H 0.2117 0.2891 0.2854   0.128498
 H 0.2324 0.3656 0.3721   0.109494
 H 0.6686 0.3496 0.3602   0.076014
 H 0.2117 0.2109 0.2146   0.128498
 H 0.2324 0.1344 0.1279   0.109494
 H 0.6686 0.1504 0.1398   0.076014
 H 0.2883 0.2109 0.7854   0.128498
 H 0.2676 0.1344 0.8721   0.109494
 H 0.8314 0.1504 0.8602   0.076014
 C 0.348 0.791 0.2125   0.188266
 C 0.936 0.725 0.2762   0.166034
 C 0.805 0.699 0.3018   -0.128335
 C 0.819 0.654 0.3524   0.056657
 C 0.952 0.638 0.3746   -0.200055
 C 0.073 0.662 0.3454   0.147294
 C 0.97 0.59 0.4299   0.728185
 C 0.152 0.791 0.7875   0.188266
 C 0.564 0.725 0.7238   0.166034
 C 0.695 0.699 0.6982   -0.128335
 C 0.681 0.654 0.6476   0.056657
 C 0.548 0.638 0.6254   -0.200055
 C 0.427 0.662 0.6546   0.147294
 C 0.53 0.59 0.5701   0.728185
 C 0.152 0.709 0.7125   0.188266
 C 0.564 0.775 0.7762   0.166034
 C 0.695 0.801 0.8018   -0.128335
 C 0.681 0.846 0.8524   0.056657
 C 0.548 0.862 0.8746   -0.200055
 C 0.427 0.838 0.8454   0.147294
 C 0.53 0.91 0.9299   0.728185
 C 0.348 0.709 0.2875   0.188266
 C 0.936 0.775 0.2238   0.166034
 C 0.805 0.801 0.1982   -0.128335
 C 0.819 0.846 0.1476   0.056657
 C 0.952 0.862 0.1254   -0.200055
 C 0.073 0.838 0.1546   0.147294
 C 0.97 0.91 0.0701   0.728185
 C 0.652 0.209 0.7875   0.188266
 C 0.064 0.275 0.7238   0.166034
 C 0.195 0.301 0.6982   -0.128335
 C 0.181 0.346 0.6476   0.056657
 C 0.048 0.362 0.6254   -0.200055
 C 0.927 0.338 0.6546   0.147294
 C 0.03 0.41 0.5701   0.728185
 C 0.848 0.209 0.2125   0.188266
 C 0.436 0.275 0.2762   0.166034
 C 0.305 0.301 0.3018   -0.128335
 C 0.319 0.346 0.3524   0.056657
 C 0.452 0.362 0.3746   -0.200055
 C 0.573 0.338 0.3454   0.147294
 C 0.47 0.41 0.4299   0.728185
 C 0.848 0.291 0.2875   0.188266
 C 0.436 0.225 0.2238   0.166034
 C 0.305 0.199 0.1982   -0.128335
 C 0.319 0.154 0.1476   0.056657
 C 0.452 0.138 0.1254   -0.200055
 C 0.573 0.162 0.1546   0.147294
 C 0.47 0.09 0.0701   0.728185
 C 0.652 0.291 0.7125   0.188266
 C 0.064 0.225 0.7762   0.166034
 C 0.195 0.199 0.8018   -0.128335
 C 0.181 0.154 0.8524   0.056657
 C 0.048 0.138 0.8746   -0.200055
 C 0.927 0.162 0.8454   0.147294
 C 0.03 0.09 0.9299   0.728185
 N 0.06 0.704 0.2958   -0.098238
 N 0.44 0.704 0.7042   -0.098238
 N 0.44 0.796 0.7958   -0.098238
 N 0.06 0.796 0.2042   -0.098238
 N 0.94 0.296 0.7042   -0.098238
 N 0.56 0.296 0.2958   -0.098238
 N 0.56 0.204 0.2042   -0.098238
 N 0.94 0.204 0.7958   -0.098238
 Cl 0.2051 0.524 0.211   -0.261697
 Cl 0.2949 0.524 0.789   -0.261697
 Cl 0.2949 0.976 0.711   -0.261697
 Cl 0.2051 0.976 0.289   -0.261697
 Cl 0.7949 0.476 0.789   -0.261697
 Cl 0.7051 0.476 0.211   -0.261697
 Cl 0.7051 0.024 0.289   -0.261697
 Cl 0.7949 0.024 0.711   -0.261697
 O 0.476 0.832 0.1744   -0.398797
 O 0.85 0.592 0.4569   -0.589333
 O 0.095 0.558 0.4423   -0.591621
 O 0.024 0.832 0.8256   -0.398797
 O 0.65 0.592 0.5431   -0.589333
 O 0.405 0.558 0.5577   -0.591621
 O 0.024 0.668 0.6744   -0.398797
 O 0.65 0.908 0.9569   -0.589333
 O 0.405 0.942 0.9423   -0.591621
 O 0.476 0.668 0.3256   -0.398797
 O 0.85 0.908 0.0431   -0.589333
 O 0.095 0.942 0.0577   -0.591621
 O 0.524 0.168 0.8256   -0.398797
 O 0.15 0.408 0.5431   -0.589333
 O 0.905 0.442 0.5577   -0.591621
 O 0.976 0.168 0.1744   -0.398797
 O 0.35 0.408 0.4569   -0.589333
 O 0.595 0.442 0.4423   -0.591621
 O 0.976 0.332 0.3256   -0.398797
 O 0.35 0.092 0.0431   -0.589333
 O 0.595 0.058 0.0577   -0.591621
 O 0.524 0.332 0.6744   -0.398797
 O 0.15 0.092 0.9569   -0.589333
 O 0.905 0.058 0.9423   -0.591621
