{'_ref': 'TBD', '_srcid': 'CAKYAQ_clean', 'submitters': [{'name': 'Dalar Nazarian Jeff Camp and David Sholl', 'email': 'dalar@gatech.edu jcamp6@gatech.edu'}], '_method': 'VASP DFT with PBE;DDEC'}
data_LaH3C8NO6
_symmetry_space_group_name_H-M   'P 1'
_cell_length_a   7.76480015
_cell_length_b   9.98270000
_cell_length_c   15.15150000
_cell_angle_alpha   90.00000000
_cell_angle_beta   98.59099952
_cell_angle_gamma   90.00000000
_symmetry_Int_Tables_number   1
_chemical_formula_structural   LaH3C8NO6
_chemical_formula_sum   'La4 H12 C32 N4 O24'
_cell_volume   1161.27090192
_cell_formula_units_Z   4
loop_
 _symmetry_equiv_pos_site_id
 _symmetry_equiv_pos_as_xyz
  1  'x, y, z'
loop_
 _atom_site_label
 _atom_site_fract_x
 _atom_site_fract_y
 _atom_site_fract_z
 _atom_site_charge
 La 0.85859 0.54327 0.64068   2.183454
 La 0.64141 0.04327 0.85932   2.183452
 La 0.14141 0.45673 0.35932   2.183454
 La 0.35859 0.95673 0.14068   2.183453
 H 0.7959 0.1066 0.3665   0.073831
 H 0.6193 0.8014 0.4849   0.067872
 H 0.824 0.1098 0.6323   0.095982
 H 0.7041 0.6066 0.1335   0.073831
 H 0.8807 0.3014 0.0151   0.067872
 H 0.676 0.6098 0.8677   0.095982
 H 0.2041 0.8934 0.6335   0.073831
 H 0.3807 0.1986 0.5151   0.067871
 H 0.176 0.8902 0.3677   0.095982
 H 0.2959 0.3934 0.8665   0.073831
 H 0.1193 0.6986 0.9849   0.067871
 H 0.324 0.3902 0.1323   0.095982
 C 0.6902 0.864 0.65336   0.816641
 C 0.9109 0.26492 0.50148   0.847335
 C 0.8245 0.13001 0.49929   -0.271612
 C 0.7735 0.0653 0.41855   0.248769
 C 0.671 0.8857 0.48837   0.27299
 C 0.7199 0.94097 0.57223   -0.289944
 C 0.7945 0.0675 0.57741   0.108454
 C 0.4571 0.46786 0.53822   0.560827
 C 0.8098 0.364 0.84664   0.816641
 C 0.5891 0.76492 0.99852   0.847335
 C 0.6755 0.63001 0.000709999999998   -0.271612
 C 0.7265 0.5653 0.08145   0.248769
 C 0.829 0.3857 0.01163   0.27299
 C 0.7801 0.44097 0.92777   -0.289944
 C 0.7055 0.5675 0.92259   0.108454
 C 0.0429 0.96786 0.96178   0.560827
 C 0.3098 0.136 0.34664   0.816641
 C 0.0891 0.73508 0.49852   0.847337
 C 0.1755 0.86999 0.50071   -0.271612
 C 0.2265 0.9347 0.58145   0.24877
 C 0.329 0.1143 0.51163   0.272991
 C 0.2801 0.05903 0.42777   -0.289945
 C 0.2055 0.9325 0.42259   0.108454
 C 0.5429 0.53214 0.46178   0.560832
 C 0.1902 0.636 0.15336   0.816641
 C 0.4109 0.23508 0.00148   0.847337
 C 0.3245 0.36999 0.99929   -0.271612
 C 0.2735 0.4347 0.91855   0.24877
 C 0.171 0.6143 0.98837   0.272991
 C 0.2199 0.55903 0.07223   -0.289945
 C 0.2945 0.4325 0.07741   0.108454
 C 0.9571 0.03214 0.03822   0.560832
 N 0.6933 0.94579 0.4121   -0.470617
 N 0.8067 0.44579 0.0879   -0.470618
 N 0.3067 0.05421 0.5879   -0.470618
 N 0.1933 0.55421 0.9121   -0.470618
 O 0.918 0.33201 0.57165   -0.739683
 O 0.9702 0.3012 0.43327   -0.763879
 O 0.6951 0.92466 0.72536   -0.752594
 O 0.66273 0.73945 0.64441   -0.729732
 O 0.55302 0.44674 0.61058   -0.616911
 O 0.29825 0.44073 0.52061   -0.641184
 O 0.582 0.83201 0.92835   -0.739683
 O 0.5298 0.8012 0.06673   -0.763879
 O 0.8049 0.42466 0.77464   -0.752594
 O 0.83727 0.23945 0.85559   -0.729732
 O 0.94698 0.94674 0.88942   -0.616911
 O 0.20175 0.94073 0.97939   -0.641183
 O 0.082 0.66799 0.42835   -0.739683
 O 0.0298 0.6988 0.56673   -0.763879
 O 0.3049 0.07534 0.27464   -0.752594
 O 0.33727 0.26055 0.35559   -0.729733
 O 0.44698 0.55326 0.38942   -0.616912
 O 0.70175 0.55927 0.47939   -0.641184
 O 0.418 0.16799 0.07165   -0.739683
 O 0.4702 0.1988 0.93327   -0.763879
 O 0.1951 0.57534 0.22536   -0.752594
 O 0.16273 0.76055 0.14441   -0.729732
 O 0.05302 0.05326 0.11058   -0.616912
 O 0.79825 0.05927 0.02061   -0.641184
