{'_ref': 'TBD', '_srcid': 'CAKYAQ_clean', 'submitters': [{'name': 'Dalar Nazarian Jeff Camp and David Sholl', 'email': 'dalar@gatech.edu jcamp6@gatech.edu'}], '_method': 'VASP DFT with PBE;DDEC'}
data_NdH3C8NO6
_symmetry_space_group_name_H-M   'P 1'
_cell_length_a   7.70079954
_cell_length_b   9.91550000
_cell_length_c   14.98990000
_cell_angle_alpha   90.00000000
_cell_angle_beta   98.46600080
_cell_angle_gamma   90.00000000
_symmetry_Int_Tables_number   1
_chemical_formula_structural   NdH3C8NO6
_chemical_formula_sum   'Nd4 H12 C32 N4 O24'
_cell_volume   1132.11584077
_cell_formula_units_Z   4
loop_
 _symmetry_equiv_pos_site_id
 _symmetry_equiv_pos_as_xyz
  1  'x, y, z'
loop_
 _atom_site_label
 _atom_site_fract_x
 _atom_site_fract_y
 _atom_site_fract_z
 _atom_site_charge
 Nd 0.85508 0.54385 0.64001   2.302997
 Nd 0.64492 0.04385 0.85999   2.302997
 Nd 0.14492 0.45615 0.35999   2.302997
 Nd 0.35508 0.95615 0.14001   2.302997
 H 0.8261 0.1109 0.6339   0.099979
 H 0.796 0.109 0.3647   0.077391
 H 0.6173 0.8014 0.4844   0.070664
 H 0.6739 0.6109 0.8661   0.099979
 H 0.704 0.609 0.1353   0.077391
 H 0.8827 0.3014 0.0156   0.070664
 H 0.1739 0.8891 0.3661   0.099979
 H 0.204 0.891 0.6353   0.077391
 H 0.3827 0.1986 0.5156   0.070664
 H 0.3261 0.3891 0.1339   0.099979
 H 0.296 0.391 0.8647   0.077391
 H 0.1173 0.6986 0.9844   0.070664
 C 0.6916 0.863 0.65488   0.839469
 C 0.7203 0.9415 0.57306   -0.288815
 C 0.7958 0.0687 0.57844   0.108036
 C 0.8254 0.132 0.49911   -0.270428
 C 0.9112 0.2679 0.50097   0.875243
 C 0.7737 0.0672 0.41737   0.247039
 C 0.67 0.886 0.48792   0.272454
 C 0.4573 0.4682 0.53867   0.567992
 C 0.8084 0.363 0.84512   0.839469
 C 0.7797 0.4415 0.92694   -0.288815
 C 0.7042 0.5687 0.92156   0.108036
 C 0.6746 0.632 0.000889999999998   -0.270428
 C 0.5888 0.7679 0.99903   0.875243
 C 0.7263 0.5672 0.08263   0.247039
 C 0.83 0.386 0.01208   0.272454
 C 0.0427 0.9682 0.96133   0.567992
 C 0.3084 0.137 0.34512   0.839469
 C 0.2797 0.0585 0.42694   -0.288815
 C 0.2042 0.9313 0.42156   0.108036
 C 0.1746 0.868 0.50089   -0.270428
 C 0.0888 0.7321 0.49903   0.875243
 C 0.2263 0.9328 0.58263   0.247039
 C 0.33 0.114 0.51208   0.272454
 C 0.5427 0.5318 0.46133   0.567993
 C 0.1916 0.637 0.15488   0.839469
 C 0.2203 0.5585 0.07306   -0.288815
 C 0.2958 0.4313 0.07844   0.108036
 C 0.3254 0.368 0.99911   -0.270428
 C 0.4112 0.2321 0.000970000000002   0.875243
 C 0.2737 0.4328 0.91737   0.247039
 C 0.17 0.614 0.98792   0.272454
 C 0.9573 0.0318 0.03867   0.567993
 N 0.6926 0.9465 0.41098   -0.472354
 N 0.8074 0.4465 0.08902   -0.472354
 N 0.3074 0.0535 0.58902   -0.472354
 N 0.1926 0.5535 0.91098   -0.472354
 O 0.6643 0.73741 0.64542   -0.761254
 O 0.6961 0.9237 0.72829   -0.795621
 O 0.9141 0.3368 0.57129   -0.779647
 O 0.9745 0.3038 0.43276   -0.806996
 O 0.5524 0.4493 0.61227   -0.624917
 O 0.2968 0.4393 0.52049   -0.66123
 O 0.8357 0.23741 0.85458   -0.761254
 O 0.8039 0.4237 0.77171   -0.795621
 O 0.5859 0.8368 0.92871   -0.779647
 O 0.5255 0.8038 0.06724   -0.806996
 O 0.9476 0.9493 0.88773   -0.624917
 O 0.2032 0.9393 0.97951   -0.66123
 O 0.3357 0.26259 0.35458   -0.761254
 O 0.3039 0.0763 0.27171   -0.795621
 O 0.0859 0.6632 0.42871   -0.779647
 O 0.0255 0.6962 0.56724   -0.806996
 O 0.4476 0.5507 0.38773   -0.624918
 O 0.7032 0.5607 0.47951   -0.66123
 O 0.1643 0.76259 0.14542   -0.761254
 O 0.1961 0.5763 0.22829   -0.795621
 O 0.4141 0.1632 0.07129   -0.779647
 O 0.4745 0.1962 0.93276   -0.806996
 O 0.0524 0.0507 0.11227   -0.624918
 O 0.7968 0.0607 0.02049   -0.66123
