{'_ref': 'TBD', '_srcid': 'CAKYAQ_clean', 'submitters': [{'name': 'Dalar Nazarian Jeff Camp and David Sholl', 'email': 'dalar@gatech.edu jcamp6@gatech.edu'}], '_method': 'VASP DFT with PBE;DDEC'}
data_ZnH2(C5O4)2
_symmetry_space_group_name_H-M   'P 1'
_cell_length_a   7.35619971
_cell_length_b   7.35620036
_cell_length_c   16.30000000
_cell_angle_alpha   90.75680262
_cell_angle_beta   90.75680269
_cell_angle_gamma   95.90109664
_symmetry_Int_Tables_number   1
_chemical_formula_structural   ZnH2(C5O4)2
_chemical_formula_sum   'Zn2 H4 C20 O16'
_cell_volume   877.208210635
_cell_formula_units_Z   2
loop_
 _symmetry_equiv_pos_site_id
 _symmetry_equiv_pos_as_xyz
  1  'x, y, z'
loop_
 _atom_site_label
 _atom_site_fract_x
 _atom_site_fract_y
 _atom_site_fract_z
 _atom_site_charge
 Zn 0.97958 0.02042 0.75   1.011693
 Zn 0.02042 0.97958 0.25   1.011692
 H 0.8144 0.0378 0.0114   0.120977
 H 0.9622 0.1856 0.4886   0.120977
 H 0.1856 0.9622 0.9886   0.120979
 H 0.0378 0.8144 0.5114   0.120979
 C 0.6051 0.0357 0.9301   0.008111
 C 0.4163 0.0137 0.9227   -0.088796
 C 0.6876 0.0224 0.0068   -0.02317
 C 0.7327 0.0655 0.8585   0.588226
 C 0.3186 0.0334 0.8415   0.634891
 C 0.9643 0.3949 0.5699   0.008111
 C 0.9863 0.5837 0.5773   -0.088796
 C 0.9776 0.3124 0.4932   -0.023169
 C 0.9345 0.2673 0.6415   0.588226
 C 0.9666 0.6814 0.6585   0.634891
 C 0.3949 0.9643 0.0699   0.008113
 C 0.5837 0.9863 0.0773   -0.088803
 C 0.3124 0.9776 0.9932   -0.023177
 C 0.2673 0.9345 0.1415   0.588226
 C 0.6814 0.9666 0.1585   0.634892
 C 0.0357 0.6051 0.4301   0.008113
 C 0.0137 0.4163 0.4227   -0.088803
 C 0.0224 0.6876 0.5068   -0.023177
 C 0.0655 0.7327 0.3585   0.588226
 C 0.0334 0.3186 0.3415   0.634892
 O 0.1541 0.9727 0.8381   -0.537119
 O 0.7579 0.9301 0.8145   -0.479463
 O 0.8171 0.2157 0.8498   -0.388185
 O 0.4049 0.1093 0.7858   -0.341315
 O 0.0273 0.8459 0.6619   -0.537119
 O 0.0699 0.2421 0.6855   -0.479463
 O 0.7843 0.1829 0.6502   -0.388184
 O 0.8907 0.5951 0.7142   -0.341314
 O 0.8459 0.0273 0.1619   -0.537119
 O 0.2421 0.0699 0.1855   -0.479463
 O 0.1829 0.7843 0.1502   -0.388185
 O 0.5951 0.8907 0.2142   -0.341315
 O 0.9727 0.1541 0.3381   -0.537119
 O 0.9301 0.7579 0.3145   -0.479463
 O 0.2157 0.8171 0.3498   -0.388184
 O 0.1093 0.4049 0.2858   -0.341314
