{'_ref': 'TBD', '_srcid': 'CAKYAQ_clean', 'submitters': [{'name': 'Dalar Nazarian Jeff Camp and David Sholl', 'email': 'dalar@gatech.edu jcamp6@gatech.edu'}], '_method': 'VASP DFT with PBE;DDEC'}
data_MgH3C7NO4
_symmetry_space_group_name_H-M   'P 1'
_cell_length_a   11.48580000
_cell_length_b   11.48580036
_cell_length_c   14.75600000
_cell_angle_alpha   90.00000000
_cell_angle_beta   90.00000000
_cell_angle_gamma   119.99999896
_symmetry_Int_Tables_number   1
_chemical_formula_structural   MgH3C7NO4
_chemical_formula_sum   'Mg6 H18 C42 N6 O24'
_cell_volume   1685.86112394
_cell_formula_units_Z   6
loop_
 _symmetry_equiv_pos_site_id
 _symmetry_equiv_pos_as_xyz
  1  'x, y, z'
loop_
 _atom_site_label
 _atom_site_fract_x
 _atom_site_fract_y
 _atom_site_fract_z
 _atom_site_charge
 Mg 0.80653 0.61306 0.58333   1.523363
 Mg 0.80653 0.19347 0.25   1.522897
 Mg 0.38694 0.19347 0.91667   1.523363
 Mg 0.19347 0.38694 0.08333   1.523363
 Mg 0.19347 0.80653 0.75   1.522897
 Mg 0.61306 0.80653 0.41667   1.523363
 H 0.4325 0.7955 0.652   0.065389
 H 0.363 0.5675 0.31867   0.06563
 H 0.2045 0.637 0.98533   0.065211
 H 0.5675 0.2045 0.152   0.065389
 H 0.637 0.4325 0.81867   0.06563
 H 0.7955 0.363 0.48533   0.065211
 H 0.637 0.2045 0.01467   0.065211
 H 0.7955 0.4325 0.348   0.065388
 H 0.5675 0.363 0.68133   0.065629
 H 0.363 0.7955 0.51467   0.065211
 H 0.2045 0.5675 0.848   0.065388
 H 0.4325 0.637 0.18133   0.065629
 H 0.49315 0.50685 0.75   0.102224
 H 0.0137 0.50685 0.41667   0.102664
 H 0.49315 0.9863 0.08333   0.102664
 H 0.50685 0.49315 0.25   0.102224
 H 0.9863 0.49315 0.91667   0.102664
 H 0.50685 0.0137 0.58333   0.102664
 C 0.5792 0.682 0.6124   0.806175
 C 0.4766 0.6541 0.686   -0.258001
 C 0.4078 0.7236 0.6913   0.260871
 C 0.1028 0.4208 0.27907   0.805376
 C 0.1775 0.5234 0.35267   -0.257845
 C 0.3158 0.5922 0.35797   0.261108
 C 0.318 0.8972 0.94573   0.806205
 C 0.3459 0.8225 0.01933   -0.258626
 C 0.2764 0.6842 0.02463   0.261893
 C 0.4208 0.318 0.1124   0.806175
 C 0.5234 0.3459 0.186   -0.258002
 C 0.5922 0.2764 0.1913   0.260871
 C 0.8972 0.5792 0.77907   0.805376
 C 0.8225 0.4766 0.85267   -0.257845
 C 0.6842 0.4078 0.85797   0.261108
 C 0.682 0.1028 0.44573   0.806204
 C 0.6541 0.1775 0.51933   -0.258627
 C 0.7236 0.3158 0.52463   0.261893
 C 0.8972 0.318 0.05427   0.806204
 C 0.8225 0.3459 0.98067   -0.258627
 C 0.6842 0.2764 0.97537   0.261893
 C 0.682 0.5792 0.3876   0.806175
 C 0.6541 0.4766 0.314   -0.258002
 C 0.7236 0.4078 0.3087   0.260871
 C 0.4208 0.1028 0.72093   0.805376
 C 0.5234 0.1775 0.64733   -0.257845
 C 0.5922 0.3158 0.64203   0.261108
 C 0.1028 0.682 0.55427   0.806204
 C 0.1775 0.6541 0.48067   -0.258627
 C 0.3158 0.7236 0.47537   0.261893
 C 0.318 0.4208 0.8876   0.806175
 C 0.3459 0.5234 0.814   -0.258002
 C 0.2764 0.5922 0.8087   0.260871
 C 0.5792 0.8972 0.22093   0.805376
 C 0.4766 0.8225 0.14733   -0.257845
 C 0.4078 0.6842 0.14203   0.261108
 C 0.4468 0.5532 0.75   0.106062
 C 0.1064 0.5532 0.41667   0.105249
 C 0.4468 0.8936 0.08333   0.105249
 C 0.5532 0.4468 0.25   0.106062
 C 0.8936 0.4468 0.91667   0.105249
 C 0.5532 0.1064 0.58333   0.105249
 N 0.30675 0.69325 0.75   -0.48844
 N 0.3865 0.69325 0.41667   -0.489446
 N 0.30675 0.6135 0.08333   -0.489446
 N 0.69325 0.30675 0.25   -0.48844
 N 0.6135 0.30675 0.91667   -0.489446
 N 0.69325 0.3865 0.58333   -0.489446
 O 0.6336 0.6113 0.6129   -0.73241
 O 0.6014 0.7736 0.5567   -0.76357
 O 0.9777 0.3664 0.27957   -0.731662
 O 0.1722 0.3986 0.22337   -0.763323
 O 0.3887 0.0223 0.94623   -0.732531
 O 0.2264 0.8278 0.89003   -0.763087
 O 0.3664 0.3887 0.1129   -0.73241
 O 0.3986 0.2264 0.0567   -0.76357
 O 0.0223 0.6336 0.77957   -0.731662
 O 0.8278 0.6014 0.72337   -0.763323
 O 0.6113 0.9777 0.44623   -0.732531
 O 0.7736 0.1722 0.39003   -0.763087
 O 0.0223 0.3887 0.05377   -0.732531
 O 0.8278 0.2264 0.10997   -0.763087
 O 0.6113 0.6336 0.3871   -0.73241
 O 0.7736 0.6014 0.4433   -0.76357
 O 0.3664 0.9777 0.72043   -0.731662
 O 0.3986 0.1722 0.77663   -0.763323
 O 0.9777 0.6113 0.55377   -0.732531
 O 0.1722 0.7736 0.60997   -0.763087
 O 0.3887 0.3664 0.8871   -0.73241
 O 0.2264 0.3986 0.9433   -0.76357
 O 0.6336 0.0223 0.22043   -0.731662
 O 0.6014 0.8278 0.27663   -0.763323
