{'_ref': 'TBD', '_srcid': 'CAKYAQ_clean', 'submitters': [{'name': 'Dalar Nazarian Jeff Camp and David Sholl', 'email': 'dalar@gatech.edu jcamp6@gatech.edu'}], '_method': 'VASP DFT with PBE;DDEC'}
data_Co2H8C14N6O7
_symmetry_space_group_name_H-M   'P 1'
_cell_length_a   6.92470000
_cell_length_b   20.62710000
_cell_length_c   26.09740000
_cell_angle_alpha   90.00000000
_cell_angle_beta   90.00000000
_cell_angle_gamma   90.00000000
_symmetry_Int_Tables_number   1
_chemical_formula_structural   Co2H8C14N6O7
_chemical_formula_sum   'Co16 H64 C112 N48 O56'
_cell_volume   3727.66073671
_cell_formula_units_Z   8
loop_
 _symmetry_equiv_pos_site_id
 _symmetry_equiv_pos_as_xyz
  1  'x, y, z'
loop_
 _atom_site_label
 _atom_site_fract_x
 _atom_site_fract_y
 _atom_site_fract_z
 _atom_site_charge
 Co 0.76286 0.97811 0.63501   0.841399
 Co 0.99705 0.49263 0.7502   1.005815
 Co 0.23714 0.52189 0.13501   0.841399
 Co 0.00295 0.00737 0.2502   1.005815
 Co 0.26286 0.02189 0.86499   0.841399
 Co 0.49705 0.50737 0.7498   1.005815
 Co 0.73714 0.47811 0.36499   0.841399
 Co 0.50295 0.99263 0.2498   1.005815
 Co 0.23714 0.02189 0.36499   0.841398
 Co 0.00295 0.50737 0.2498   1.005815
 Co 0.76286 0.47811 0.86499   0.841398
 Co 0.99705 0.99263 0.7498   1.005815
 Co 0.73714 0.97811 0.13501   0.841398
 Co 0.50295 0.49263 0.2502   1.005815
 Co 0.26286 0.52189 0.63501   0.841398
 Co 0.49705 0.00737 0.7502   1.005815
 H 0.7308 0.9287 0.7142   0.414606
 H 0.3643 0.9015 0.5284   0.144361
 H 0.3552 0.923 0.4422   0.075129
 H 0.1377 0.0946 0.4657   0.095937
 H 0.1363 0.0776 0.5529   0.133722
 H 0.9344 0.2133 0.7379   0.120727
 H 0.8987 0.1657 0.5889   0.09757
 H 0.941 0.3532 0.6306   0.108705
 H 0.2692 0.5713 0.2142   0.414606
 H 0.6357 0.5985 0.0284   0.144361
 H 0.6448 0.577 0.9422   0.075129
 H 0.8623 0.4054 0.9657   0.095937
 H 0.8637 0.4224 0.0529   0.133722
 H 0.0656 0.2867 0.2379   0.120727
 H 0.1013 0.3343 0.0889   0.09757
 H 0.059 0.1468 0.1306   0.108705
 H 0.2308 0.0713 0.7858   0.414606
 H 0.8643 0.0985 0.9716   0.144361
 H 0.8552 0.077 0.0578   0.075129
 H 0.6377 0.9054 0.0343   0.095937
 H 0.6363 0.9224 0.9471   0.133722
 H 0.4344 0.7867 0.7621   0.120727
 H 0.3987 0.8343 0.9111   0.09757
 H 0.441 0.6468 0.8694   0.108705
 H 0.7692 0.4287 0.2858   0.414606
 H 0.1357 0.4015 0.4716   0.144361
 H 0.1448 0.423 0.5578   0.075129
 H 0.3623 0.5946 0.5343   0.095937
 H 0.3637 0.5776 0.4471   0.133722
 H 0.5656 0.7133 0.2621   0.120727
 H 0.6013 0.6657 0.4111   0.09757
 H 0.559 0.8532 0.3694   0.108705
 H 0.2692 0.0713 0.2858   0.414606
 H 0.6357 0.0985 0.4716   0.144361
 H 0.6448 0.077 0.5578   0.075129
 H 0.8623 0.9054 0.5343   0.095937
 H 0.8637 0.9224 0.4471   0.133722
 H 0.0656 0.7867 0.2621   0.120727
 H 0.1013 0.8343 0.4111   0.09757
 H 0.059 0.6468 0.3694   0.108705
 H 0.7308 0.4287 0.7858   0.414606
 H 0.3643 0.4015 0.9716   0.144361
 H 0.3552 0.423 0.0578   0.075129
 H 0.1377 0.5946 0.0343   0.095937
 H 0.1363 0.5776 0.9471   0.133722
 H 0.9344 0.7133 0.7621   0.120727
 H 0.8987 0.6657 0.9111   0.09757
 H 0.941 0.8532 0.8694   0.108705
 H 0.7692 0.9287 0.2142   0.414606
 H 0.1357 0.9015 0.0284   0.144361
 H 0.1448 0.923 0.9422   0.075129
 H 0.3623 0.0946 0.9657   0.095937
 H 0.3637 0.0776 0.0529   0.133722
 H 0.5656 0.2133 0.2379   0.120727
 H 0.6013 0.1657 0.0889   0.09757
 H 0.559 0.3532 0.1306   0.108705
 H 0.2308 0.5713 0.7142   0.414606
 H 0.8643 0.5985 0.5284   0.144361
 H 0.8552 0.577 0.4422   0.075129
 H 0.6377 0.4054 0.4657   0.095937
 H 0.6363 0.4224 0.5529   0.133722
 H 0.4344 0.2867 0.7379   0.120727
 H 0.3987 0.3343 0.5889   0.09757
 H 0.441 0.1468 0.6306   0.108705
 C 0.2544 0.97813 0.60698   0.356615
 C 0.2509 0.98759 0.55071   0.038704
 C 0.317 0.94097 0.51663   -0.171965
 C 0.3112 0.95444 0.46486   0.180789
 C 0.1828 0.05532 0.47854   0.157675
 C 0.1823 0.04556 0.53104   -0.151459
 C 0.934 0.29113 0.691   -0.118655
 C 0.9279 0.22567 0.70365   0.033622
 C 0.9122 0.17821 0.6657   -0.135336
 C 0.9093 0.19659 0.61468   -0.047681
 C 0.9225 0.26176 0.60283   -0.075252
 C 0.9338 0.30972 0.63976   -0.028422
 C 0.9425 0.34369 0.7323   0.665519
 C 0.896 0.10697 0.67756   0.684164
 C 0.7456 0.52187 0.10698   0.356615
 C 0.7491 0.51241 0.05071   0.038704
 C 0.683 0.55903 0.01663   -0.171965
 C 0.6888 0.54556 0.96486   0.180789
 C 0.8172 0.44468 0.97854   0.157675
 C 0.8177 0.45444 0.03104   -0.151459
 C 0.066 0.20887 0.191   -0.118655
 C 0.0721 0.27433 0.20365   0.033622
 C 0.0878 0.32179 0.1657   -0.135336
 C 0.0907 0.30341 0.11468   -0.047681
 C 0.0775 0.23824 0.10283   -0.075252
 C 0.0662 0.19028 0.13976   -0.028422
 C 0.0575 0.15631 0.2323   0.665519
 C 0.104 0.39303 0.17756   0.684164
 C 0.7544 0.02187 0.89302   0.356615
 C 0.7509 0.01241 0.94929   0.038704
 C 0.817 0.05903 0.98337   -0.171965
 C 0.8112 0.04556 0.03514   0.180789
 C 0.6828 0.94468 0.02146   0.157675
 C 0.6823 0.95444 0.96896   -0.151459
 C 0.434 0.70887 0.809   -0.118655
 C 0.4279 0.77433 0.79635   0.033622
 C 0.4122 0.82179 0.8343   -0.135336
 C 0.4093 0.80341 0.88532   -0.047681
 C 0.4225 0.73824 0.89717   -0.075252
 C 0.4338 0.69028 0.86024   -0.028422
 C 0.4425 0.65631 0.7677   0.665519
 C 0.396 0.89303 0.82244   0.684164
 C 0.2456 0.47813 0.39302   0.356615
 C 0.2491 0.48759 0.44929   0.038704
 C 0.183 0.44097 0.48337   -0.171965
 C 0.1888 0.45444 0.53514   0.180789
 C 0.3172 0.55532 0.52146   0.157675
 C 0.3177 0.54556 0.46896   -0.151459
 C 0.566 0.79113 0.309   -0.118655
 C 0.5721 0.72567 0.29635   0.033622
 C 0.5878 0.67821 0.3343   -0.135336
 C 0.5907 0.69659 0.38532   -0.047681
 C 0.5775 0.76176 0.39717   -0.075252
 C 0.5662 0.80972 0.36024   -0.028422
 C 0.5575 0.84369 0.2677   0.665519
 C 0.604 0.60697 0.32244   0.684164
 C 0.7456 0.02187 0.39302   0.356615
 C 0.7491 0.01241 0.44929   0.038704
 C 0.683 0.05903 0.48337   -0.171964
 C 0.6888 0.04556 0.53514   0.180789
 C 0.8172 0.94468 0.52146   0.157675
 C 0.8177 0.95444 0.46896   -0.151459
 C 0.066 0.70887 0.309   -0.118655
 C 0.0721 0.77433 0.29635   0.033622
 C 0.0878 0.82179 0.3343   -0.135336
 C 0.0907 0.80341 0.38532   -0.047681
 C 0.0775 0.73824 0.39717   -0.075251
 C 0.0662 0.69028 0.36024   -0.028422
 C 0.0575 0.65631 0.2677   0.665518
 C 0.104 0.89303 0.32244   0.684164
 C 0.2544 0.47813 0.89302   0.356615
 C 0.2509 0.48759 0.94929   0.038704
 C 0.317 0.44097 0.98337   -0.171964
 C 0.3112 0.45444 0.03514   0.180789
 C 0.1828 0.55532 0.02146   0.157675
 C 0.1823 0.54556 0.96896   -0.151459
 C 0.934 0.79113 0.809   -0.118655
 C 0.9279 0.72567 0.79635   0.033622
 C 0.9122 0.67821 0.8343   -0.135336
 C 0.9093 0.69659 0.88532   -0.047681
 C 0.9225 0.76176 0.89717   -0.075251
 C 0.9338 0.80972 0.86024   -0.028422
 C 0.9425 0.84369 0.7677   0.665518
 C 0.896 0.60697 0.82244   0.684164
 C 0.2456 0.97813 0.10698   0.356615
 C 0.2491 0.98759 0.05071   0.038704
 C 0.183 0.94097 0.01663   -0.171964
 C 0.1888 0.95444 0.96486   0.180789
 C 0.3172 0.05532 0.97854   0.157675
 C 0.3177 0.04556 0.03104   -0.151459
 C 0.566 0.29113 0.191   -0.118655
 C 0.5721 0.22567 0.20365   0.033622
 C 0.5878 0.17821 0.1657   -0.135336
 C 0.5907 0.19659 0.11468   -0.047681
 C 0.5775 0.26176 0.10283   -0.075251
 C 0.5662 0.30972 0.13976   -0.028422
 C 0.5575 0.34369 0.2323   0.665518
 C 0.604 0.10697 0.17756   0.684164
 C 0.7544 0.52187 0.60698   0.356615
 C 0.7509 0.51241 0.55071   0.038704
 C 0.817 0.55903 0.51663   -0.171964
 C 0.8112 0.54556 0.46486   0.180789
 C 0.6828 0.44468 0.47854   0.157675
 C 0.6823 0.45444 0.53104   -0.151459
 C 0.434 0.20887 0.691   -0.118655
 C 0.4279 0.27433 0.70365   0.033622
 C 0.4122 0.32179 0.6657   -0.135336
 C 0.4093 0.30341 0.61468   -0.047681
 C 0.4225 0.23824 0.60283   -0.075251
 C 0.4338 0.19028 0.63976   -0.028422
 C 0.4425 0.15631 0.7323   0.665518
 C 0.396 0.39303 0.67756   0.684164
 N 0.0958 0.97145 0.63564   -0.310335
 N 0.1622 0.97069 0.68385   -0.051896
 N 0.3503 0.97663 0.68386   -0.004289
 N 0.4145 0.98087 0.63554   -0.316896
 N 0.2457 0.01038 0.44552   -0.38894
 N 0.9242 0.27914 0.54819   0.625149
 N 0.9042 0.52855 0.13564   -0.310335
 N 0.8378 0.52931 0.18385   -0.051896
 N 0.6497 0.52337 0.18386   -0.004289
 N 0.5855 0.51913 0.13554   -0.316896
 N 0.7543 0.48962 0.94552   -0.38894
 N 0.0758 0.22086 0.04819   0.625149
 N 0.5958 0.02855 0.86436   -0.310335
 N 0.6622 0.02931 0.81615   -0.051896
 N 0.8503 0.02337 0.81614   -0.004289
 N 0.9145 0.01913 0.86446   -0.316896
 N 0.7457 0.98962 0.05448   -0.38894
 N 0.4242 0.72086 0.95181   0.625149
 N 0.4042 0.47145 0.36436   -0.310335
 N 0.3378 0.47069 0.31615   -0.051896
 N 0.1497 0.47663 0.31614   -0.004289
 N 0.0855 0.48087 0.36446   -0.316896
 N 0.2543 0.51038 0.55448   -0.38894
 N 0.5758 0.77914 0.45181   0.625149
 N 0.9042 0.02855 0.36436   -0.310335
 N 0.8378 0.02931 0.31615   -0.051897
 N 0.6497 0.02337 0.31614   -0.004289
 N 0.5855 0.01913 0.36446   -0.316896
 N 0.7543 0.98962 0.55448   -0.38894
 N 0.0758 0.72086 0.45181   0.625149
 N 0.0958 0.47145 0.86436   -0.310335
 N 0.1622 0.47069 0.81615   -0.051897
 N 0.3503 0.47663 0.81614   -0.004289
 N 0.4145 0.48087 0.86446   -0.316896
 N 0.2457 0.51038 0.05448   -0.38894
 N 0.9242 0.77914 0.95181   0.625149
 N 0.4042 0.97145 0.13564   -0.310335
 N 0.3378 0.97069 0.18385   -0.051896
 N 0.1497 0.97663 0.18386   -0.004289
 N 0.0855 0.98087 0.13554   -0.316896
 N 0.2543 0.01038 0.94552   -0.38894
 N 0.5758 0.27914 0.04819   0.625149
 N 0.5958 0.52855 0.63564   -0.310335
 N 0.6622 0.52931 0.68385   -0.051896
 N 0.8503 0.52337 0.68386   -0.004289
 N 0.9145 0.51913 0.63554   -0.316896
 N 0.7457 0.48962 0.44552   -0.38894
 N 0.4242 0.22086 0.54819   0.625149
 O 0.8982 0.3277 0.77682   -0.584375
 O 0.9891 0.39888 0.71718   -0.604268
 O 0.9626 0.08745 0.71915   -0.560877
 O 0.8153 0.07403 0.64277   -0.562085
 O 0.9346 0.23631 0.51682   -0.380294
 O 0.923 0.33538 0.53639   -0.384277
 O 0.741 0.96971 0.7132   -0.902904
 O 0.1018 0.1723 0.27682   -0.584375
 O 0.0109 0.10112 0.21718   -0.604268
 O 0.0374 0.41255 0.21915   -0.560877
 O 0.1847 0.42597 0.14277   -0.562085
 O 0.0654 0.26369 0.01682   -0.380294
 O 0.077 0.16462 0.03639   -0.384277
 O 0.259 0.53029 0.2132   -0.902904
 O 0.3982 0.6723 0.72318   -0.584375
 O 0.4891 0.60112 0.78282   -0.604268
 O 0.4626 0.91255 0.78085   -0.560877
 O 0.3153 0.92597 0.85723   -0.562085
 O 0.4346 0.76369 0.98318   -0.380294
 O 0.423 0.66462 0.96361   -0.384277
 O 0.241 0.03029 0.7868   -0.902904
 O 0.6018 0.8277 0.22318   -0.584375
 O 0.5109 0.89888 0.28282   -0.604268
 O 0.5374 0.58745 0.28085   -0.560877
 O 0.6847 0.57403 0.35723   -0.562085
 O 0.5654 0.73631 0.48318   -0.380294
 O 0.577 0.83538 0.46361   -0.384277
 O 0.759 0.46971 0.2868   -0.902904
 O 0.1018 0.6723 0.22318   -0.584376
 O 0.0109 0.60112 0.28282   -0.604268
 O 0.0374 0.91255 0.28085   -0.560877
 O 0.1847 0.92597 0.35723   -0.562085
 O 0.0654 0.76369 0.48318   -0.380294
 O 0.077 0.66462 0.46361   -0.384277
 O 0.259 0.03029 0.2868   -0.902904
 O 0.8982 0.8277 0.72318   -0.584376
 O 0.9891 0.89888 0.78282   -0.604268
 O 0.9626 0.58745 0.78085   -0.560877
 O 0.8153 0.57403 0.85723   -0.562085
 O 0.9346 0.73631 0.98318   -0.380294
 O 0.923 0.83538 0.96361   -0.384277
 O 0.741 0.46971 0.7868   -0.902904
 O 0.6018 0.3277 0.27682   -0.584376
 O 0.5109 0.39888 0.21718   -0.604268
 O 0.5374 0.08745 0.21915   -0.560877
 O 0.6847 0.07403 0.14277   -0.562085
 O 0.5654 0.23631 0.01682   -0.380294
 O 0.577 0.33538 0.03639   -0.384277
 O 0.759 0.96971 0.2132   -0.902904
 O 0.3982 0.1723 0.77682   -0.584376
 O 0.4891 0.10112 0.71718   -0.604268
 O 0.4626 0.41255 0.71915   -0.560877
 O 0.3153 0.42597 0.64277   -0.562085
 O 0.4346 0.26369 0.51682   -0.380294
 O 0.423 0.16462 0.53639   -0.384277
 O 0.241 0.53029 0.7132   -0.902904
