{'_ref': 'TBD', '_srcid': 'CAKYAQ_clean', 'submitters': [{'name': 'Dalar Nazarian Jeff Camp and David Sholl', 'email': 'dalar@gatech.edu jcamp6@gatech.edu'}], '_method': 'VASP DFT with PBE;DDEC'}
data_CoH16(C12N5)2
_symmetry_space_group_name_H-M   'P 1'
_cell_length_a   9.19850029
_cell_length_b   15.95759945
_cell_length_c   16.09660000
_cell_angle_alpha   73.17100073
_cell_angle_beta   74.44000157
_cell_angle_gamma   76.39200152
_symmetry_Int_Tables_number   1
_chemical_formula_structural   CoH16(C12N5)2
_chemical_formula_sum   'Co3 H48 C72 N30'
_cell_volume   2146.61526587
_cell_formula_units_Z   3
loop_
 _symmetry_equiv_pos_site_id
 _symmetry_equiv_pos_as_xyz
  1  'x, y, z'
loop_
 _atom_site_label
 _atom_site_fract_x
 _atom_site_fract_y
 _atom_site_fract_z
 _atom_site_charge
 Co 0.5 0.5 0.0   0.225515
 Co 0.0 0.0 0.5   0.247726
 Co 0.0 0.5 0.5   0.23761
 H 0.9739 0.6759 0.0298   0.136565
 H 0.9628 0.7311 0.1513   0.096791
 H 0.1724 0.6915 0.2156   0.098107
 H 0.3865 0.6018 0.1603   0.070994
 H 0.1827 0.3888 0.6422   0.074109
 H 0.2596 0.3978 0.7623   0.122556
 H 0.9825 0.6312 0.7559   0.124644
 H 0.9158 0.6177 0.6339   0.07426
 H 0.9514 0.0108 0.8122   0.132118
 H 0.1015 0.1171 0.7891   0.09422
 H 0.2143 0.1837 0.6435   0.116371
 H 0.175 0.1416 0.529   0.0704
 H 0.6329 0.6577 0.994   0.074299
 H 0.7321 0.7777 0.9042   0.124779
 H 0.652 0.7203 0.6986   0.119973
 H 0.5527 0.6003 0.7938   0.08518
 H 0.4913 0.4159 0.6486   0.115513
 H 0.5607 0.2624 0.6821   0.100285
 H 0.8174 0.2008 0.6422   0.112367
 H 0.992 0.2923 0.5701   0.064755
 H 0.362 0.9585 0.4588   0.080783
 H 0.5626 0.8458 0.4737   0.114767
 H 0.2687 0.6795 0.5979   0.117195
 H 0.0751 0.7971 0.5804   0.072516
 H 0.0261 0.3241 0.9702   0.136562
 H 0.0372 0.2689 0.8487   0.096822
 H 0.8276 0.3085 0.7844   0.098106
 H 0.6135 0.3982 0.8397   0.070986
 H 0.8173 0.6112 0.3578   0.074107
 H 0.7404 0.6022 0.2377   0.12255
 H 0.0175 0.3688 0.2441   0.124644
 H 0.0842 0.3823 0.3661   0.074255
 H 0.0486 0.9892 0.1878   0.132166
 H 0.8985 0.8829 0.2109   0.094287
 H 0.7857 0.8163 0.3565   0.116367
 H 0.825 0.8584 0.471   0.070385
 H 0.3671 0.3423 0.006   0.0743
 H 0.2679 0.2223 0.0958   0.124809
 H 0.348 0.2797 0.3014   0.119972
 H 0.4473 0.3997 0.2062   0.085174
 H 0.5087 0.5841 0.3514   0.115512
 H 0.4393 0.7376 0.3179   0.100298
 H 0.1826 0.7992 0.3578   0.112366
 H 0.008 0.7077 0.4299   0.064749
 H 0.638 0.0415 0.5412   0.080775
 H 0.4374 0.1542 0.5263   0.114753
 H 0.7313 0.3205 0.4021   0.117195
 H 0.9249 0.2029 0.4196   0.072511
 C 0.1878 0.526 0.8459   0.344175
 C 0.2077 0.5675 0.9523   0.246708
 C 0.1887 0.607 0.0261   0.15693
 C 0.0569 0.6614 0.057   -0.153356
 C 0.0501 0.6941 0.1292   -0.014928
 C 0.1747 0.6707 0.1669   -0.17791
 C 0.303 0.6168 0.1335   0.13403
 C 0.1432 0.4391 0.6646   0.12486
 C 0.1898 0.4439 0.7369   -0.18941
 C 0.133 0.5169 0.7717   0.067499
 C 0.0269 0.5817 0.7329   -0.160677
 C 0.9866 0.5728 0.6598   0.127669
 C 0.7761 0.8392 0.7317   0.342511
 C 0.8932 0.9465 0.6901   0.251048
 C 0.9802 0.0137 0.6831   0.158742
 C 0.9985 0.0374 0.7549   -0.163977
 C 0.087 0.1009 0.7412   -0.014462
 C 0.1544 0.1405 0.6547   -0.188516
 C 0.1306 0.1145 0.5868   0.144232
 C 0.6365 0.6702 0.9334   0.123464
 C 0.6965 0.7424 0.8798   -0.162003
 C 0.7051 0.7637 0.7901   0.053557
 C 0.6494 0.7087 0.759   -0.173668
 C 0.5896 0.6365 0.8165   0.122115
 C 0.5648 0.6705 0.5429   0.325648
 C 0.6714 0.5382 0.5679   0.248064
 C 0.7043 0.4413 0.5918   0.158975
 C 0.5932 0.3896 0.6336   -0.132888
 C 0.6341 0.2986 0.6533   0.003532
 C 0.7862 0.2621 0.6294   -0.186343
 C 0.8898 0.3173 0.5867   0.132379
 C 0.3422 0.9014 0.4869   0.121918
 C 0.4635 0.8336 0.4955   -0.183174
 C 0.4419 0.7483 0.5356   0.047534
 C 0.2912 0.7359 0.5686   -0.169634
 C 0.1752 0.8074 0.5576   0.129119
 C 0.8122 0.474 0.1541   0.344176
 C 0.7923 0.4325 0.0477   0.246705
 C 0.8113 0.393 0.9739   0.156924
 C 0.9431 0.3386 0.943   -0.153347
 C 0.9499 0.3059 0.8708   -0.014932
 C 0.8253 0.3293 0.8331   -0.177908
 C 0.697 0.3832 0.8665   0.134018
 C 0.8568 0.5609 0.3354   0.124856
 C 0.8102 0.5561 0.2631   -0.189399
 C 0.867 0.4831 0.2283   0.067499
 C 0.9731 0.4183 0.2671   -0.160682
 C 0.0134 0.4272 0.3402   0.127663
 C 0.2239 0.1608 0.2683   0.342511
 C 0.1068 0.0535 0.3099   0.251045
 C 0.0198 0.9863 0.3169   0.158746
 C 0.0015 0.9626 0.2451   -0.163985
 C 0.913 0.8991 0.2588   -0.01448
 C 0.8456 0.8595 0.3453   -0.18851
 C 0.8694 0.8855 0.4132   0.144235
 C 0.3635 0.3298 0.0666   0.123463
 C 0.3035 0.2576 0.1202   -0.162013
 C 0.2949 0.2363 0.2099   0.05356
 C 0.3506 0.2913 0.241   -0.173668
 C 0.4104 0.3635 0.1835   0.122113
 C 0.4352 0.3295 0.4571   0.325645
 C 0.3286 0.4618 0.4321   0.248061
 C 0.2957 0.5587 0.4082   0.158968
 C 0.4068 0.6104 0.3664   -0.132888
 C 0.3659 0.7014 0.3467   0.003527
 C 0.2138 0.7379 0.3706   -0.186337
 C 0.1102 0.6827 0.4133   0.132375
 C 0.6578 0.0986 0.5131   0.121916
 C 0.5365 0.1664 0.5045   -0.18317
 C 0.5581 0.2517 0.4644   0.047533
 C 0.7088 0.2641 0.4314   -0.169634
 C 0.8248 0.1926 0.4424   0.129122
 N 0.3358 0.5116 0.9315   -0.059833
 N 0.325 0.4832 0.8622   -0.380996
 N 0.1107 0.5805 0.8991   -0.501743
 N 0.3125 0.5849 0.0634   -0.206594
 N 0.0441 0.503 0.6246   -0.226686
 N 0.873 0.9318 0.6164   -0.099824
 N 0.7959 0.8613 0.6432   -0.370845
 N 0.8343 0.8905 0.7646   -0.528066
 N 0.0467 0.0518 0.5982   -0.233056
 N 0.5827 0.6164 0.904   -0.219932
 N 0.7831 0.5854 0.5257   -0.117124
 N 0.7145 0.6724 0.5092   -0.362675
 N 0.5317 0.5874 0.58   -0.492026
 N 0.852 0.4057 0.5676   -0.203364
 N 0.1959 0.8897 0.517   -0.239997
 N 0.6642 0.4884 0.0685   -0.059832
 N 0.675 0.5168 0.1378   -0.380997
 N 0.8893 0.4195 0.1009   -0.501741
 N 0.6875 0.4151 0.9366   -0.206589
 N 0.9559 0.497 0.3754   -0.226686
 N 0.127 0.0682 0.3836   -0.099823
 N 0.2041 0.1387 0.3568   -0.370845
 N 0.1657 0.1095 0.2354   -0.528066
 N 0.9533 0.9482 0.4018   -0.233057
 N 0.4173 0.3836 0.096   -0.219929
 N 0.2169 0.4146 0.4743   -0.117124
 N 0.2855 0.3276 0.4908   -0.362675
 N 0.4683 0.4126 0.42   -0.492026
 N 0.148 0.5943 0.4324   -0.203363
 N 0.8041 0.1103 0.483   -0.239998
