{'_ref': 'TBD', '_srcid': 'CAKYAQ_clean', 'submitters': [{'name': 'Dalar Nazarian Jeff Camp and David Sholl', 'email': 'dalar@gatech.edu jcamp6@gatech.edu'}], '_method': 'VASP DFT with PBE;DDEC'}
data_NdH21C14O9
_symmetry_space_group_name_H-M   'P 1'
_cell_length_a   8.66300000
_cell_length_b   9.06899956
_cell_length_c   11.87500000
_cell_angle_alpha   110.04999826
_cell_angle_beta   90.00000000
_cell_angle_gamma   90.00000000
_symmetry_Int_Tables_number   1
_chemical_formula_structural   NdH21C14O9
_chemical_formula_sum   'Nd2 H42 C28 O18'
_cell_volume   876.413391946
_cell_formula_units_Z   2
loop_
 _symmetry_equiv_pos_site_id
 _symmetry_equiv_pos_as_xyz
  1  'x, y, z'
loop_
 _atom_site_label
 _atom_site_fract_x
 _atom_site_fract_y
 _atom_site_fract_z
 _atom_site_charge
 Nd 0.47062 0.02571 0.98776   2.363634
 Nd 0.97062 0.97429 0.01224   2.363634
 H 0.0905 0.8324 0.6616   0.163888
 H 0.1222 0.6873 0.7013   0.158723
 H 0.3139 0.7712 0.5381   0.074565
 H 0.3459 0.6263 0.5779   0.170802
 H 0.0964 0.6574 0.4401   0.107334
 H 0.113 0.5175 0.4881   0.096682
 H 0.312 0.5727 0.3182   0.06565
 H 0.3421 0.4398 0.3717   0.061801
 H 0.1015 0.4503 0.2201   0.128805
 H 0.1037 0.3291 0.2873   0.163413
 H 0.5099 0.1848 0.759   0.419332
 H 0.3736 0.9098 0.3627   0.119834
 H 0.1973 0.8667 0.3546   0.111199
 H 0.3087 0.1832 0.4132   0.074359
 H 0.1324 0.1405 0.4042   0.074102
 H 0.3313 0.0884 0.5759   0.058884
 H 0.1531 0.0566 0.5691   0.066507
 H 0.2866 0.3598 0.6317   0.062448
 H 0.1085 0.331 0.6197   0.069297
 H 0.1083 0.2549 0.7847   0.141201
 H 0.1755 0.4247 0.8167   0.155913
 H 0.5905 0.1676 0.3384   0.163887
 H 0.6222 0.3127 0.2987   0.158723
 H 0.8139 0.2288 0.4619   0.074565
 H 0.8459 0.3737 0.4221   0.170802
 H 0.5964 0.3426 0.5599   0.107334
 H 0.613 0.4825 0.5119   0.096682
 H 0.812 0.4273 0.6818   0.06565
 H 0.8421 0.5602 0.6283   0.061801
 H 0.6015 0.5497 0.7799   0.128805
 H 0.6037 0.6709 0.7127   0.163413
 H 0.0099 0.8152 0.241   0.419332
 H 0.8736 0.0902 0.6373   0.119834
 H 0.6973 0.1333 0.6454   0.111198
 H 0.8087 0.8168 0.5868   0.074359
 H 0.6324 0.8595 0.5958   0.074102
 H 0.8313 0.9116 0.4241   0.058883
 H 0.6531 0.9434 0.4309   0.066506
 H 0.7866 0.6402 0.3683   0.062448
 H 0.6085 0.669 0.3803   0.069297
 H 0.6083 0.7451 0.2153   0.141201
 H 0.6755 0.5753 0.1833   0.155913
 C 0.2668 0.8681 0.779   0.80088
 C 0.1714 0.7685 0.6778   -0.372858
 C 0.2649 0.6901 0.5616   0.027253
 C 0.1705 0.5911 0.4614   -0.183322
 C 0.2618 0.4988 0.3491   -0.034885
 C 0.1688 0.3895 0.2528   -0.351231
 C 0.2621 0.2744 0.1489   0.785366
 C 0.271 0.9278 0.215   0.829066
 C 0.272 0.939 0.3422   -0.366828
 C 0.233 0.111 0.4255   -0.061206
 C 0.233 0.125 0.5567   -0.145678
 C 0.204 0.294 0.6428   -0.070356
 C 0.195 0.315 0.772   -0.363284
 C 0.3413 0.2641 0.8217   0.734374
 C 0.7668 0.1319 0.221   0.80088
 C 0.6714 0.2315 0.3222   -0.372858
 C 0.7649 0.3099 0.4384   0.027253
 C 0.6705 0.4089 0.5386   -0.183322
 C 0.7618 0.5012 0.6509   -0.034885
 C 0.6688 0.6105 0.7472   -0.351231
 C 0.7621 0.7256 0.8511   0.785366
 C 0.771 0.0722 0.785   0.829066
 C 0.772 0.061 0.6578   -0.366827
 C 0.733 0.889 0.5745   -0.061206
 C 0.733 0.875 0.4433   -0.145678
 C 0.704 0.706 0.3572   -0.070356
 C 0.695 0.685 0.228   -0.363284
 C 0.8413 0.7359 0.1783   0.734374
 O 0.1904 0.926 0.8868   -0.934307
 O 0.3977 0.8989 0.7734   -0.629265
 O 0.1917 0.1475 0.0852   -0.861418
 O 0.3991 0.2973 0.1323   -0.642464
 O 0.3903 0.9788 0.1761   -0.784548
 O 0.1581 0.871 0.1512   -0.749859
 O 0.462 0.2666 0.7693   -0.499546
 O 0.337 0.2337 0.9194   -0.619695
 O 0.489 0.634 0.5978   -0.414563
 O 0.6904 0.074 0.1132   -0.934307
 O 0.8977 0.1011 0.2266   -0.629265
 O 0.6917 0.8525 0.9148   -0.861418
 O 0.8991 0.7027 0.8677   -0.642464
 O 0.8903 0.0212 0.8239   -0.784548
 O 0.6581 0.129 0.8488   -0.749858
 O 0.962 0.7334 0.2307   -0.499545
 O 0.837 0.7663 0.0806   -0.619695
 O 0.989 0.366 0.4022   -0.414563
