{'_ref': 'TBD', '_srcid': 'CAKYAQ_clean', 'submitters': [{'name': 'Dalar Nazarian Jeff Camp and David Sholl', 'email': 'dalar@gatech.edu jcamp6@gatech.edu'}], '_method': 'VASP DFT with PBE;DDEC'}
data_Zn2H7C12O7
_symmetry_space_group_name_H-M   'P 1'
_cell_length_a   14.50490000
_cell_length_b   17.16160000
_cell_length_c   18.13890000
_cell_angle_alpha   90.00000000
_cell_angle_beta   90.00000000
_cell_angle_gamma   90.00000000
_symmetry_Int_Tables_number   1
_chemical_formula_structural   Zn2H7C12O7
_chemical_formula_sum   'Zn16 H56 C96 O56'
_cell_volume   4515.26725396
_cell_formula_units_Z   8
loop_
 _symmetry_equiv_pos_site_id
 _symmetry_equiv_pos_as_xyz
  1  'x, y, z'
loop_
 _atom_site_label
 _atom_site_fract_x
 _atom_site_fract_y
 _atom_site_fract_z
 _atom_site_charge
 Zn 0.55479 0.93828 0.45225   1.212144
 Zn 0.3467 0.94612 0.39756   1.032486
 Zn 0.44521 0.43828 0.04775   1.212144
 Zn 0.6533 0.44612 0.10244   1.032486
 Zn 0.44521 0.06172 0.54775   1.212144
 Zn 0.6533 0.05388 0.60244   1.032487
 Zn 0.55479 0.56172 0.95225   1.212144
 Zn 0.3467 0.55388 0.89756   1.032487
 Zn 0.94521 0.06172 0.95225   1.212144
 Zn 0.1533 0.05388 0.89756   1.032487
 Zn 0.05479 0.56172 0.54775   1.212144
 Zn 0.8467 0.55388 0.60244   1.032487
 Zn 0.05479 0.93828 0.04775   1.212144
 Zn 0.8467 0.94612 0.10244   1.032487
 Zn 0.94521 0.43828 0.45225   1.212144
 Zn 0.1533 0.44612 0.39756   1.032487
 H 0.0786 0.0623 0.4065   0.094928
 H 0.0634 0.8912 0.5557   0.084436
 H 0.338 0.7308 0.2651   0.110716
 H 0.5951 0.7232 0.3463   0.109628
 H 0.6251 0.6141 0.277   0.111886
 H 0.3671 0.6215 0.1962   0.108538
 H 0.391 0.938 0.519   0.486683
 H 0.9214 0.5623 0.0935   0.094928
 H 0.9366 0.3912 0.9443   0.084436
 H 0.662 0.2308 0.2349   0.110716
 H 0.4049 0.2232 0.1537   0.109628
 H 0.3749 0.1141 0.223   0.111886
 H 0.6329 0.1215 0.3038   0.108538
 H 0.609 0.438 0.981   0.486683
 H 0.9214 0.9377 0.5935   0.094928
 H 0.9366 0.1088 0.4443   0.084436
 H 0.662 0.2692 0.7349   0.110716
 H 0.4049 0.2768 0.6537   0.109628
 H 0.3749 0.3859 0.723   0.111886
 H 0.6329 0.3785 0.8038   0.108538
 H 0.609 0.062 0.481   0.486683
 H 0.0786 0.4377 0.9065   0.094928
 H 0.0634 0.6088 0.0557   0.084436
 H 0.338 0.7692 0.7651   0.110716
 H 0.5951 0.7768 0.8463   0.109628
 H 0.6251 0.8859 0.777   0.111886
 H 0.3671 0.8785 0.6962   0.108538
 H 0.391 0.562 0.019   0.486683
 H 0.4214 0.9377 0.9065   0.094928
 H 0.4366 0.1088 0.0557   0.084435
 H 0.162 0.2692 0.7651   0.110716
 H 0.9049 0.2768 0.8463   0.109628
 H 0.8749 0.3859 0.777   0.111887
 H 0.1329 0.3785 0.6962   0.108539
 H 0.109 0.062 0.019   0.486683
 H 0.5786 0.4377 0.5935   0.094928
 H 0.5634 0.6088 0.4443   0.084435
 H 0.838 0.7692 0.7349   0.110716
 H 0.0951 0.7768 0.6537   0.109628
 H 0.1251 0.8859 0.723   0.111887
 H 0.8671 0.8785 0.8038   0.108539
 H 0.891 0.562 0.481   0.486683
 H 0.5786 0.0623 0.0935   0.094928
 H 0.5634 0.8912 0.9443   0.084436
 H 0.838 0.7308 0.2349   0.110716
 H 0.0951 0.7232 0.1537   0.109628
 H 0.1251 0.6141 0.223   0.111887
 H 0.8671 0.6215 0.3038   0.108539
 H 0.891 0.938 0.981   0.486683
 H 0.4214 0.5623 0.4065   0.094928
 H 0.4366 0.3912 0.5557   0.084436
 H 0.162 0.2308 0.2651   0.110716
 H 0.9049 0.2232 0.3463   0.109628
 H 0.8749 0.1141 0.277   0.111887
 H 0.1329 0.1215 0.1962   0.108539
 H 0.109 0.438 0.519   0.486683
 C 0.1807 0.9444 0.4565   0.669463
 C 0.0868 0.9729 0.4779   -0.114733
 C 0.0474 0.0372 0.4444   -0.068179
 C 0.0384 0.9351 0.5334   -0.065195
 C 0.4476 0.8135 0.3551   0.730299
 C 0.4635 0.7398 0.3119   -0.125402
 C 0.3959 0.7076 0.2672   -0.046804
 C 0.5496 0.7031 0.3157   -0.046591
 C 0.5213 0.5392 0.1791   0.712779
 C 0.4998 0.6062 0.2286   -0.138788
 C 0.5674 0.6376 0.2744   -0.042778
 C 0.4132 0.6421 0.226   -0.050217
 C 0.8193 0.4444 0.0435   0.669463
 C 0.9132 0.4729 0.0221   -0.114733
 C 0.9526 0.5372 0.0556   -0.068179
 C 0.9616 0.4351 0.9666   -0.065195
 C 0.5524 0.3135 0.1449   0.730299
 C 0.5365 0.2398 0.1881   -0.125402
 C 0.6041 0.2076 0.2328   -0.046804
 C 0.4504 0.2031 0.1843   -0.046591
 C 0.4787 0.0392 0.3209   0.712779
 C 0.5002 0.1062 0.2714   -0.138788
 C 0.4326 0.1376 0.2256   -0.042778
 C 0.5868 0.1421 0.274   -0.050217
 C 0.8193 0.0556 0.5435   0.669463
 C 0.9132 0.0271 0.5221   -0.114732
 C 0.9526 0.9628 0.5556   -0.068183
 C 0.9616 0.0649 0.4666   -0.065199
 C 0.5524 0.1865 0.6449   0.730299
 C 0.5365 0.2602 0.6881   -0.125402
 C 0.6041 0.2924 0.7328   -0.046804
 C 0.4504 0.2969 0.6843   -0.046591
 C 0.4787 0.4608 0.8209   0.712779
 C 0.5002 0.3938 0.7714   -0.138788
 C 0.4326 0.3624 0.7256   -0.042778
 C 0.5868 0.3579 0.774   -0.050217
 C 0.1807 0.5556 0.9565   0.669463
 C 0.0868 0.5271 0.9779   -0.114732
 C 0.0474 0.4628 0.9444   -0.068183
 C 0.0384 0.5649 0.0334   -0.065199
 C 0.4476 0.6865 0.8551   0.730299
 C 0.4635 0.7602 0.8119   -0.125402
 C 0.3959 0.7924 0.7672   -0.046804
 C 0.5496 0.7969 0.8157   -0.046591
 C 0.5213 0.9608 0.6791   0.712779
 C 0.4998 0.8938 0.7286   -0.138788
 C 0.5674 0.8624 0.7744   -0.042778
 C 0.4132 0.8579 0.726   -0.050217
 C 0.3193 0.0556 0.9565   0.669463
 C 0.4132 0.0271 0.9779   -0.114733
 C 0.4526 0.9628 0.9444   -0.068179
 C 0.4616 0.0649 0.0334   -0.065195
 C 0.0524 0.1865 0.8551   0.730299
 C 0.0365 0.2602 0.8119   -0.125402
 C 0.1041 0.2924 0.7672   -0.046804
 C 0.9504 0.2969 0.8157   -0.04659
 C 0.9787 0.4608 0.6791   0.712779
 C 0.0002 0.3938 0.7286   -0.138788
 C 0.9326 0.3624 0.7744   -0.042778
 C 0.0868 0.3579 0.726   -0.050217
 C 0.6807 0.5556 0.5435   0.669463
 C 0.5868 0.5271 0.5221   -0.114733
 C 0.5474 0.4628 0.5556   -0.068179
 C 0.5384 0.5649 0.4666   -0.065195
 C 0.9476 0.6865 0.6449   0.730299
 C 0.9635 0.7602 0.6881   -0.125402
 C 0.8959 0.7924 0.7328   -0.046804
 C 0.0496 0.7969 0.6843   -0.04659
 C 0.0213 0.9608 0.8209   0.71278
 C 0.9998 0.8938 0.7714   -0.138788
 C 0.0674 0.8624 0.7256   -0.042778
 C 0.9132 0.8579 0.774   -0.050217
 C 0.6807 0.9444 0.0435   0.669463
 C 0.5868 0.9729 0.0221   -0.114732
 C 0.5474 0.0372 0.0556   -0.068183
 C 0.5384 0.9351 0.9666   -0.065199
 C 0.9476 0.8135 0.1449   0.730299
 C 0.9635 0.7398 0.1881   -0.125402
 C 0.8959 0.7076 0.2328   -0.046804
 C 0.0496 0.7031 0.1843   -0.04659
 C 0.0213 0.5392 0.3209   0.71278
 C 0.9998 0.6062 0.2714   -0.138788
 C 0.0674 0.6376 0.2256   -0.042778
 C 0.9132 0.6421 0.274   -0.050217
 C 0.3193 0.4444 0.4565   0.669463
 C 0.4132 0.4729 0.4779   -0.114732
 C 0.4526 0.5372 0.4444   -0.068183
 C 0.4616 0.4351 0.5334   -0.065199
 C 0.0524 0.3135 0.3551   0.730299
 C 0.0365 0.2398 0.3119   -0.125402
 C 0.1041 0.2076 0.2672   -0.046804
 C 0.9504 0.2031 0.3157   -0.04659
 C 0.9787 0.0392 0.1791   0.71278
 C 0.0002 0.1062 0.2286   -0.138788
 C 0.9326 0.1376 0.2744   -0.042778
 C 0.0868 0.1421 0.226   -0.050217
 O 0.5145 0.8412 0.3887   -0.663193
 O 0.3667 0.84174 0.3535   -0.580959
 O 0.2188 0.9795 0.4027   -0.633805
 O 0.2168 0.8903 0.4892   -0.613323
 O 0.4578 0.51274 0.13956   -0.663784
 O 0.6031 0.5145 0.18011   -0.584029
 O 0.4188 0.96085 0.4871   -1.026205
 O 0.4855 0.3412 0.1113   -0.663193
 O 0.6333 0.34174 0.1465   -0.58096
 O 0.7812 0.4795 0.0973   -0.633805
 O 0.7832 0.3903 0.0108   -0.613323
 O 0.5422 0.01274 0.36044   -0.663784
 O 0.3969 0.0145 0.31989   -0.584029
 O 0.5812 0.46085 0.0129   -1.026205
 O 0.4855 0.1588 0.6113   -0.663193
 O 0.6333 0.15826 0.6465   -0.58096
 O 0.7812 0.0205 0.5973   -0.633805
 O 0.7832 0.1097 0.5108   -0.613323
 O 0.5422 0.48726 0.86044   -0.663784
 O 0.3969 0.4855 0.81989   -0.584029
 O 0.5812 0.03915 0.5129   -1.026205
 O 0.5145 0.6588 0.8887   -0.663193
 O 0.3667 0.65826 0.8535   -0.58096
 O 0.2188 0.5205 0.9027   -0.633805
 O 0.2168 0.6097 0.9892   -0.613323
 O 0.4578 0.98726 0.63956   -0.663784
 O 0.6031 0.9855 0.68011   -0.584029
 O 0.4188 0.53915 0.9871   -1.026205
 O 0.9855 0.1588 0.8887   -0.663193
 O 0.1333 0.15826 0.8535   -0.58096
 O 0.2812 0.0205 0.9027   -0.633805
 O 0.2832 0.1097 0.9892   -0.613323
 O 0.0422 0.48726 0.63956   -0.663784
 O 0.8969 0.4855 0.68011   -0.584029
 O 0.0812 0.03915 0.9871   -1.026205
 O 0.0145 0.6588 0.6113   -0.663193
 O 0.8667 0.65826 0.6465   -0.58096
 O 0.7188 0.5205 0.5973   -0.633805
 O 0.7168 0.6097 0.5108   -0.613323
 O 0.9578 0.98726 0.86044   -0.663785
 O 0.1031 0.9855 0.81989   -0.584029
 O 0.9188 0.53915 0.5129   -1.026205
 O 0.0145 0.8412 0.1113   -0.663193
 O 0.8667 0.84174 0.1465   -0.58096
 O 0.7188 0.9795 0.0973   -0.633805
 O 0.7168 0.8903 0.0108   -0.613323
 O 0.9578 0.51274 0.36044   -0.663785
 O 0.1031 0.5145 0.31989   -0.584029
 O 0.9188 0.96085 0.0129   -1.026205
 O 0.9855 0.3412 0.3887   -0.663193
 O 0.1333 0.34174 0.3535   -0.58096
 O 0.2812 0.4795 0.4027   -0.633805
 O 0.2832 0.3903 0.4892   -0.613323
 O 0.0422 0.01274 0.13956   -0.663785
 O 0.8969 0.0145 0.18011   -0.584029
 O 0.0812 0.46085 0.4871   -1.026205
