{'_ref': 'TBD', '_srcid': 'CAKYAQ_clean', 'submitters': [{'name': 'Dalar Nazarian Jeff Camp and David Sholl', 'email': 'dalar@gatech.edu jcamp6@gatech.edu'}], '_method': 'VASP DFT with PBE;DDEC'}
data_U3H9C27O19
_symmetry_space_group_name_H-M   'P 1'
_cell_length_a   9.77360000
_cell_length_b   18.35390030
_cell_length_c   18.35390000
_cell_angle_alpha   119.99999947
_cell_angle_beta   90.00000000
_cell_angle_gamma   90.00000000
_symmetry_Int_Tables_number   1
_chemical_formula_structural   U3H9C27O19
_chemical_formula_sum   'U6 H18 C54 O38'
_cell_volume   2851.29350106
_cell_formula_units_Z   2
loop_
 _symmetry_equiv_pos_site_id
 _symmetry_equiv_pos_as_xyz
  1  'x, y, z'
loop_
 _atom_site_label
 _atom_site_fract_x
 _atom_site_fract_y
 _atom_site_fract_z
 _atom_site_charge
 U 0.75 0.64292 0.44095   2.447879
 U 0.75 0.79803 0.35708   2.447852
 U 0.75 0.55905 0.20197   2.447792
 U 0.25 0.35708 0.55905   2.447879
 U 0.25 0.20197 0.64292   2.447852
 U 0.25 0.44095 0.79803   2.447792
 H 0.0415 0.9159 0.5155   0.120625
 H 0.0415 0.5996 0.0841   0.120624
 H 0.0415 0.4845 0.4004   0.120626
 H 0.5415 0.0841 0.4845   0.120625
 H 0.5415 0.4004 0.9159   0.120624
 H 0.5415 0.5155 0.5996   0.120626
 H 0.9585 0.0841 0.4845   0.120625
 H 0.9585 0.4004 0.9159   0.120624
 H 0.9585 0.5155 0.5996   0.120626
 H 0.4585 0.9159 0.5155   0.120625
 H 0.4585 0.5996 0.0841   0.120624
 H 0.4585 0.4845 0.4004   0.120626
 H 0.25 0.707 0.4633   0.10489
 H 0.25 0.7563 0.293   0.104893
 H 0.25 0.5367 0.2437   0.104893
 H 0.75 0.293 0.5367   0.10489
 H 0.75 0.2437 0.707   0.104893
 H 0.75 0.4633 0.7563   0.104893
 C 0.127 0.8047 0.4871   -0.176868
 C 0.1243 0.8889 0.5107   0.052939
 C 0.9936 0.7602 0.4719   0.716699
 C 0.127 0.6824 0.1953   -0.176866
 C 0.1243 0.6218 0.1111   0.052938
 C 0.9936 0.7117 0.2398   0.716701
 C 0.127 0.5129 0.3176   -0.176865
 C 0.1243 0.4893 0.3782   0.052937
 C 0.9936 0.5281 0.2883   0.7167
 C 0.627 0.1953 0.5129   -0.176868
 C 0.6243 0.1111 0.4893   0.052939
 C 0.4936 0.2398 0.5281   0.716699
 C 0.627 0.3176 0.8047   -0.176866
 C 0.6243 0.3782 0.8889   0.052938
 C 0.4936 0.2883 0.7602   0.716701
 C 0.627 0.4871 0.6824   -0.176865
 C 0.6243 0.5107 0.6218   0.052937
 C 0.4936 0.4719 0.7117   0.7167
 C 0.873 0.1953 0.5129   -0.176868
 C 0.8757 0.1111 0.4893   0.052939
 C 0.0064 0.2398 0.5281   0.716698
 C 0.873 0.3176 0.8047   -0.176866
 C 0.8757 0.3782 0.8889   0.052938
 C 0.0064 0.2883 0.7602   0.716701
 C 0.873 0.4871 0.6824   -0.176865
 C 0.8757 0.5107 0.6218   0.052937
 C 0.0064 0.4719 0.7117   0.7167
 C 0.373 0.8047 0.4871   -0.176868
 C 0.3757 0.8889 0.5107   0.052939
 C 0.5064 0.7602 0.4719   0.716698
 C 0.373 0.6824 0.1953   -0.176866
 C 0.3757 0.6218 0.1111   0.052938
 C 0.5064 0.7117 0.2398   0.716701
 C 0.373 0.5129 0.3176   -0.176865
 C 0.3757 0.4893 0.3782   0.052937
 C 0.5064 0.5281 0.2883   0.7167
 C 0.25 0.9337 0.5276   -0.17167
 C 0.25 0.7631 0.477   0.044232
 C 0.25 0.0256 0.5582   0.635931
 C 0.25 0.5939 0.0663   -0.171672
 C 0.25 0.7139 0.2369   0.044231
 C 0.25 0.5326 0.9744   0.635931
 C 0.25 0.4724 0.4061   -0.17167
 C 0.25 0.523 0.2861   0.044229
 C 0.25 0.4418 0.4674   0.635933
 C 0.75 0.0663 0.4724   -0.17167
 C 0.75 0.2369 0.523   0.044232
 C 0.75 0.9744 0.4418   0.635931
 C 0.75 0.4061 0.9337   -0.171672
 C 0.75 0.2861 0.7631   0.044231
 C 0.75 0.4674 0.0256   0.635931
 C 0.75 0.5276 0.5939   -0.17167
 C 0.75 0.477 0.7139   0.044229
 C 0.75 0.5582 0.5326   0.635933
 O 0.9913 0.688 0.4618   -0.636902
 O 0.362 0.065 0.571   -0.638328
 O 0.884 0.7962 0.467   -0.745776
 O 0.9913 0.7738 0.312   -0.636898
 O 0.362 0.506 0.935   -0.638322
 O 0.884 0.6708 0.2038   -0.74579
 O 0.9913 0.5382 0.2262   -0.6369
 O 0.362 0.429 0.494   -0.638327
 O 0.884 0.533 0.3292   -0.745786
 O 0.4913 0.312 0.5382   -0.636902
 O 0.862 0.935 0.429   -0.638328
 O 0.384 0.2038 0.533   -0.745776
 O 0.4913 0.2262 0.688   -0.636898
 O 0.862 0.494 0.065   -0.638322
 O 0.384 0.3292 0.7962   -0.74579
 O 0.4913 0.4618 0.7738   -0.6369
 O 0.862 0.571 0.506   -0.638327
 O 0.384 0.467 0.6708   -0.745786
 O 0.0087 0.312 0.5382   -0.636902
 O 0.638 0.935 0.429   -0.638328
 O 0.116 0.2038 0.533   -0.745776
 O 0.0087 0.2262 0.688   -0.636898
 O 0.638 0.494 0.065   -0.638322
 O 0.116 0.3292 0.7962   -0.74579
 O 0.0087 0.4618 0.7738   -0.6369
 O 0.638 0.571 0.506   -0.638327
 O 0.116 0.467 0.6708   -0.745786
 O 0.5087 0.688 0.4618   -0.636902
 O 0.138 0.065 0.571   -0.638328
 O 0.616 0.7962 0.467   -0.745776
 O 0.5087 0.7738 0.312   -0.636898
 O 0.138 0.506 0.935   -0.638322
 O 0.616 0.6708 0.2038   -0.74579
 O 0.5087 0.5382 0.2262   -0.6369
 O 0.138 0.429 0.494   -0.638327
 O 0.616 0.533 0.3292   -0.745786
 O 0.75 0.66667 0.33334   -1.337996
 O 0.25 0.33333 0.66666   -1.337996
