{'_ref': 'TBD', '_srcid': 'CAKYAQ_clean', 'submitters': [{'name': 'Dalar Nazarian Jeff Camp and David Sholl', 'email': 'dalar@gatech.edu jcamp6@gatech.edu'}], '_method': 'VASP DFT with PBE;DDEC'}
data_MnRe3Te4(CN)3
_symmetry_space_group_name_H-M   'P 1'
_cell_length_a   9.78820000
_cell_length_b   12.66789978
_cell_length_c   17.45240000
_cell_angle_alpha   90.00000000
_cell_angle_beta   90.00000000
_cell_angle_gamma   105.56999854
_symmetry_Int_Tables_number   1
_chemical_formula_structural   MnRe3Te4(CN)3
_chemical_formula_sum   'Mn4 Re12 Te16 C12 N12'
_cell_volume   2084.61393324
_cell_formula_units_Z   4
loop_
 _symmetry_equiv_pos_site_id
 _symmetry_equiv_pos_as_xyz
  1  'x, y, z'
loop_
 _atom_site_label
 _atom_site_fract_x
 _atom_site_fract_y
 _atom_site_fract_z
 _atom_site_charge
 Mn 0.1329 0.88753 0.89169   1.150117
 Mn 0.3671 0.61247 0.39169   1.150117
 Mn 0.8671 0.11247 0.10831   1.150113
 Mn 0.6329 0.38753 0.60831   1.150113
 Re 0.38089 0.58261 0.96033   -0.237497
 Re 0.66015 0.62068 0.98419   -0.248383
 Re 0.52226 0.44863 0.9   -0.230554
 Re 0.11911 0.91739 0.46033   -0.237497
 Re 0.83985 0.87932 0.48419   -0.248383
 Re 0.97774 0.05137 0.4   -0.230554
 Re 0.61911 0.41739 0.03967   -0.237498
 Re 0.33985 0.37932 0.01581   -0.248383
 Re 0.47774 0.55137 0.1   -0.230554
 Re 0.88089 0.08261 0.53967   -0.237497
 Re 0.16015 0.12068 0.51581   -0.248383
 Re 0.02226 0.94863 0.6   -0.230554
 Te 0.5641 0.65354 0.84454   0.17114
 Te 0.51952 0.75637 0.0447   0.057251
 Te 0.19571 0.51373 0.07531   0.193867
 Te 0.24004 0.40897 0.87593   0.154261
 Te 0.9359 0.84646 0.34454   0.171139
 Te 0.98048 0.74363 0.5447   0.057248
 Te 0.30429 0.98627 0.57531   0.193867
 Te 0.25996 0.09103 0.37593   0.154259
 Te 0.4359 0.34646 0.15546   0.171141
 Te 0.48048 0.24363 0.9553   0.057249
 Te 0.80429 0.48627 0.92469   0.19387
 Te 0.75996 0.59103 0.12407   0.154263
 Te 0.0641 0.15354 0.65546   0.171141
 Te 0.01952 0.25637 0.4553   0.057247
 Te 0.69571 0.01373 0.42469   0.193869
 Te 0.74004 0.90897 0.62407   0.154261
 C 0.8343 0.7507 0.9623   0.223983
 C 0.2512 0.6759 0.9167   0.198107
 C 0.5463 0.3984 0.7893   0.201558
 C 0.6657 0.7493 0.4623   0.223983
 C 0.2488 0.8241 0.4167   0.198107
 C 0.9537 0.1016 0.2893   0.201558
 C 0.1657 0.2493 0.0377   0.223982
 C 0.7488 0.3241 0.0833   0.198107
 C 0.4537 0.6016 0.2107   0.201558
 C 0.3343 0.2507 0.5377   0.223982
 C 0.7512 0.1759 0.5833   0.198107
 C 0.0463 0.8984 0.7107   0.201558
 N 0.9312 0.8252 0.9495   -0.577797
 N 0.1883 0.7323 0.8962   -0.514527
 N 0.5641 0.3752 0.7259   -0.541522
 N 0.5688 0.6748 0.4495   -0.577797
 N 0.3117 0.7677 0.3962   -0.514527
 N 0.9359 0.1248 0.2259   -0.541522
 N 0.0688 0.1748 0.0505   -0.577796
 N 0.8117 0.2677 0.1038   -0.514527
 N 0.4359 0.6248 0.2741   -0.541523
 N 0.4312 0.3252 0.5505   -0.577796
 N 0.6883 0.2323 0.6038   -0.514527
 N 0.0641 0.8752 0.7741   -0.541523
