{'_ref': 'TBD', '_srcid': 'CAKYAQ_clean', 'submitters': [{'name': 'Dalar Nazarian Jeff Camp and David Sholl', 'email': 'dalar@gatech.edu jcamp6@gatech.edu'}], '_method': 'VASP DFT with PBE;DDEC'}
data_CdH6C9O4
_symmetry_space_group_name_H-M   'P 1'
_cell_length_a   7.69100000
_cell_length_b   10.21470000
_cell_length_c   15.81540000
_cell_angle_alpha   90.00000000
_cell_angle_beta   90.00000000
_cell_angle_gamma   90.00000000
_symmetry_Int_Tables_number   1
_chemical_formula_structural   CdH6C9O4
_chemical_formula_sum   'Cd4 H24 C36 O16'
_cell_volume   1242.47771503
_cell_formula_units_Z   4
loop_
 _symmetry_equiv_pos_site_id
 _symmetry_equiv_pos_as_xyz
  1  'x, y, z'
loop_
 _atom_site_label
 _atom_site_fract_x
 _atom_site_fract_y
 _atom_site_fract_z
 _atom_site_charge
 Cd 0.96722 0.29083 0.78848   1.159195
 Cd 0.03278 0.79083 0.21152   1.159195
 Cd 0.46722 0.29083 0.71152   1.159194
 Cd 0.53278 0.79083 0.28848   1.159194
 H 0.2033 0.0311 0.0035   0.103892
 H 0.5178 0.0195 0.8013   0.092856
 H 0.6574 0.8368 0.0148   0.101236
 H 0.8441 0.8196 0.9002   0.125887
 H 0.8483 0.946 0.8441   0.126215
 H 0.7521 0.8203 0.8117   0.122441
 H 0.7967 0.5311 0.9965   0.103892
 H 0.4822 0.5195 0.1987   0.092856
 H 0.3426 0.3368 0.9852   0.101236
 H 0.1559 0.3196 0.0998   0.125887
 H 0.1517 0.446 0.1559   0.126215
 H 0.2479 0.3203 0.1883   0.122441
 H 0.7033 0.0311 0.4965   0.103892
 H 0.0178 0.0195 0.6987   0.092855
 H 0.1574 0.8368 0.4852   0.101236
 H 0.3441 0.8196 0.5998   0.125886
 H 0.3483 0.946 0.6559   0.126214
 H 0.2521 0.8203 0.6883   0.12244
 H 0.2967 0.5311 0.5035   0.103892
 H 0.9822 0.5195 0.3013   0.092855
 H 0.8426 0.3368 0.5148   0.101236
 H 0.6559 0.3196 0.4002   0.125886
 H 0.6517 0.446 0.3441   0.126214
 H 0.7479 0.3203 0.3117   0.12244
 C 0.3893 0.8959 0.1147   0.741637
 C 0.4263 0.9307 0.0243   -0.138888
 C 0.3071 0.0048 0.9785   -0.012031
 C 0.3433 0.0393 0.8953   -0.150609
 C 0.495 0.9963 0.857   -0.083156
 C 0.6151 0.9181 0.9013   0.110236
 C 0.5788 0.8875 0.9844   -0.090071
 C 0.7796 0.8719 0.8607   -0.345638
 C 0.2194 0.1237 0.8479   0.683774
 C 0.6107 0.3959 0.8853   0.741637
 C 0.5737 0.4307 0.9757   -0.138888
 C 0.6929 0.5048 0.0215   -0.012031
 C 0.6567 0.5393 0.1047   -0.150609
 C 0.505 0.4963 0.143   -0.083156
 C 0.3849 0.4181 0.0987   0.110236
 C 0.4212 0.3875 0.0156   -0.090071
 C 0.2204 0.3719 0.1393   -0.345638
 C 0.7806 0.6237 0.1521   0.683774
 C 0.8893 0.8959 0.3853   0.741637
 C 0.9263 0.9307 0.4757   -0.138888
 C 0.8071 0.0048 0.5215   -0.012031
 C 0.8433 0.0393 0.6047   -0.150609
 C 0.995 0.9963 0.643   -0.083156
 C 0.1151 0.9181 0.5987   0.110236
 C 0.0788 0.8875 0.5156   -0.090071
 C 0.2796 0.8719 0.6393   -0.345638
 C 0.7194 0.1237 0.6521   0.683774
 C 0.1107 0.3959 0.6147   0.741637
 C 0.0737 0.4307 0.5243   -0.138888
 C 0.1929 0.5048 0.4785   -0.012031
 C 0.1567 0.5393 0.3953   -0.150609
 C 0.005 0.4963 0.357   -0.083156
 C 0.8849 0.4181 0.4013   0.110236
 C 0.9212 0.3875 0.4844   -0.090071
 C 0.7204 0.3719 0.3607   -0.345638
 C 0.2806 0.6237 0.3479   0.683774
 O 0.2384 0.8956 0.1395   -0.644954
 O 0.5238 0.8715 0.1604   -0.651117
 O 0.0752 0.1514 0.8832   -0.584599
 O 0.2509 0.1656 0.7745   -0.666302
 O 0.7616 0.3956 0.8605   -0.644954
 O 0.4762 0.3715 0.8396   -0.651117
 O 0.9248 0.6514 0.1168   -0.584599
 O 0.7491 0.6656 0.2255   -0.666302
 O 0.7384 0.8956 0.3605   -0.644954
 O 0.0238 0.8715 0.3396   -0.651117
 O 0.5752 0.1514 0.6168   -0.584599
 O 0.7509 0.1656 0.7255   -0.666302
 O 0.2616 0.3956 0.6395   -0.644954
 O 0.9762 0.3715 0.6604   -0.651117
 O 0.4248 0.6514 0.3832   -0.584599
 O 0.2491 0.6656 0.2745   -0.666302
