{'_ref': 'TBD', '_srcid': 'CAKYAQ_clean', 'submitters': [{'name': 'Dalar Nazarian Jeff Camp and David Sholl', 'email': 'dalar@gatech.edu jcamp6@gatech.edu'}], '_method': 'VASP DFT with PBE;DDEC'}
data_Zn3H20C36(NO6)2
_symmetry_space_group_name_H-M   'P 1'
_cell_length_a   12.55830000
_cell_length_b   14.59489989
_cell_length_c   25.74100000
_cell_angle_alpha   100.09299872
_cell_angle_beta   90.00000000
_cell_angle_gamma   90.00000000
_symmetry_Int_Tables_number   1
_chemical_formula_structural   Zn3H20C36(NO6)2
_chemical_formula_sum   'Zn12 H80 C144 N8 O48'
_cell_volume   4644.98120911
_cell_formula_units_Z   4
loop_
 _symmetry_equiv_pos_site_id
 _symmetry_equiv_pos_as_xyz
  1  'x, y, z'
loop_
 _atom_site_label
 _atom_site_fract_x
 _atom_site_fract_y
 _atom_site_fract_z
 _atom_site_charge
 Zn 0.10479 0.88344 0.8766   1.021487
 Zn 0.72139 0.01732 0.19449   0.950473
 Zn 0.92478 0.93005 0.47016   0.951361
 Zn 0.60479 0.61656 0.6234   1.021487
 Zn 0.22139 0.48268 0.30551   0.950473
 Zn 0.42478 0.56995 0.02984   0.951361
 Zn 0.89521 0.11656 0.1234   1.021487
 Zn 0.27861 0.98268 0.80551   0.950473
 Zn 0.07522 0.06995 0.52984   0.951361
 Zn 0.39521 0.38344 0.3766   1.021487
 Zn 0.77861 0.51732 0.69449   0.950473
 Zn 0.57522 0.43005 0.97016   0.951361
 H 0.8194 0.7014 0.3126   0.129744
 H 0.5903 0.5091 0.4515   0.112663
 H 0.0471 0.9868 0.6835   0.092343
 H 0.774 0.7874 0.4932   0.097635
 H 0.6118 0.8446 0.2094   0.092771
 H 0.7099 0.0602 0.3129   0.10567
 H 0.8897 0.8352 0.3586   0.081473
 H 0.5179 0.7124 0.2384   0.115306
 H 0.7172 0.5494 0.3129   0.122378
 H 0.4515 0.6444 0.3061   0.11201
 H 0.6268 0.4572 0.3626   0.104065
 H 0.6483 0.9963 0.3821   0.147446
 H 0.6622 0.6471 0.4955   0.11658
 H 0.4715 0.7196 0.3942   0.087715
 H 0.5565 0.8604 0.4149   0.129495
 H 0.9278 0.8888 0.0091   0.089255
 H 0.9093 0.7855 0.7506   0.113711
 H 0.6847 0.7712 0.0769   0.097167
 H 0.8314 0.8117 0.6011   0.103028
 H 0.8053 0.6425 0.9371   0.091598
 H 0.3194 0.7986 0.1874   0.129744
 H 0.0903 0.9909 0.0485   0.112663
 H 0.5471 0.5132 0.8165   0.092343
 H 0.274 0.7126 0.0068   0.097635
 H 0.1118 0.6554 0.2906   0.092771
 H 0.2099 0.4398 0.1871   0.10567
 H 0.3897 0.6648 0.1414   0.081473
 H 0.0179 0.7876 0.2616   0.115305
 H 0.2172 0.9506 0.1871   0.122378
 H 0.9515 0.8556 0.1939   0.11201
 H 0.1268 0.0428 0.1374   0.104065
 H 0.1483 0.5037 0.1179   0.147446
 H 0.1622 0.8529 0.0045   0.11658
 H 0.9715 0.7804 0.1058   0.087715
 H 0.0565 0.6396 0.0851   0.129495
 H 0.4278 0.6112 0.4909   0.089256
 H 0.4093 0.7145 0.7494   0.113711
 H 0.1847 0.7288 0.4231   0.097167
 H 0.3314 0.6883 0.8989   0.103028
 H 0.3053 0.8575 0.5629   0.091598
 H 0.1806 0.2986 0.6874   0.129744
 H 0.4097 0.4909 0.5485   0.112664
 H 0.9529 0.0132 0.3165   0.092342
 H 0.226 0.2126 0.5068   0.097635
 H 0.3882 0.1554 0.7906   0.092771
 H 0.2901 0.9398 0.6871   0.10567
 H 0.1103 0.1648 0.6414   0.081473
 H 0.4821 0.2876 0.7616   0.115306
 H 0.2828 0.4506 0.6871   0.122377
 H 0.5485 0.3556 0.6939   0.11201
 H 0.3732 0.5428 0.6374   0.104065
 H 0.3517 0.0037 0.6179   0.147447
 H 0.3378 0.3529 0.5045   0.11658
 H 0.5285 0.2804 0.6058   0.087715
 H 0.4435 0.1396 0.5851   0.129495
 H 0.0722 0.1112 0.9909   0.089256
 H 0.0907 0.2145 0.2494   0.113711
 H 0.3153 0.2288 0.9231   0.097167
 H 0.1686 0.1883 0.3989   0.103028
 H 0.1947 0.3575 0.0629   0.091598
 H 0.6806 0.2014 0.8126   0.129744
 H 0.9097 0.0091 0.9515   0.112664
 H 0.4529 0.4868 0.1835   0.092342
 H 0.726 0.2874 0.9932   0.097635
 H 0.8882 0.3446 0.7094   0.092771
 H 0.7901 0.5602 0.8129   0.10567
 H 0.6103 0.3352 0.8586   0.081473
 H 0.9821 0.2124 0.7384   0.115305
 H 0.7828 0.0494 0.8129   0.122377
 H 0.0485 0.1444 0.8061   0.11201
 H 0.8732 0.9572 0.8626   0.104065
 H 0.8517 0.4963 0.8821   0.147447
 H 0.8378 0.1471 0.9955   0.11658
 H 0.0285 0.2196 0.8942   0.087715
 H 0.9435 0.3604 0.9149   0.129495
 H 0.5722 0.3888 0.5091   0.089256
 H 0.5907 0.2855 0.2506   0.113711
 H 0.8153 0.2712 0.5769   0.097167
 H 0.6686 0.3117 0.1011   0.103028
 H 0.6947 0.1425 0.4371   0.091598
 C 0.5765 0.8315 0.2855   -0.044043
 C 0.8093 0.7167 0.3497   -0.206291
 C 0.0546 0.9173 0.77227   0.700616
 C 0.633 0.5462 0.4329   -0.069139
 C 0.7338 0.6949 0.00713   -0.15969
 C 0.9565 0.9511 0.58771   0.704191
 C 0.6544 0.6181 0.00626   0.718987
 C 0.986 0.8914 0.72435   -0.17963
 C 0.9988 0.9362 0.68147   0.028479
 C 0.9406 0.907 0.63529   -0.173947
 C 0.7516 0.6577 0.3763   0.099631
 C 0.7836 0.7689 0.4562   0.161183
 C 0.618 0.8755 0.24499   0.132448
 C 0.6757 0.0013 0.30586   0.14674
 C 0.8507 0.7955 0.3772   0.115809
 C 0.5251 0.7431 0.2739   -0.111671
 C 0.7077 0.5694 0.3498   -0.168258
 C 0.7349 0.683 0.4306   -0.057784
 C 0.4865 0.7029 0.3137   -0.077458
 C 0.6526 0.5163 0.3792   -0.035247
 C 0.6393 0.9638 0.347   -0.163216
 C 0.5882 0.8767 0.3379   0.09818
 C 0.6743 0.6278 0.4588   -0.08476
 C 0.4988 0.7484 0.3666   -0.022242
 C 0.5483 0.8319 0.379   -0.13995
 C 0.8779 0.8396 0.00826   0.013802
 C 0.9172 0.8163 0.7212   0.031574
 C 0.8771 0.7672 0.96556   -0.161544
 C 0.8074 0.8416 0.04967   -0.199032
 C 0.7343 0.7694 0.04882   0.011881
 C 0.8596 0.7856 0.67497   -0.188922
 C 0.8711 0.8317 0.63242   0.042826
 C 0.8053 0.6936 0.96559   0.017661
 C 0.9513 0.7686 0.91977   0.686457
 C 0.8096 0.9232 0.09397   0.72293
 C 0.7916 0.7018 0.6699   0.699848
 C 0.0765 0.6685 0.2145   -0.044043
 C 0.3093 0.7833 0.1503   -0.206291
 C 0.5546 0.5827 0.72773   0.700616
 C 0.133 0.9538 0.0671   -0.069139
 C 0.2338 0.8051 0.49287   -0.15969
 C 0.4565 0.5489 0.91229   0.704191
 C 0.1544 0.8819 0.49374   0.718987
 C 0.486 0.6086 0.77565   -0.17963
 C 0.4988 0.5638 0.81853   0.028479
 C 0.4406 0.593 0.86471   -0.173947
 C 0.2516 0.8423 0.1237   0.099631
 C 0.2836 0.7311 0.0438   0.161182
 C 0.118 0.6245 0.25501   0.132448
 C 0.1757 0.4987 0.19414   0.14674
 C 0.3507 0.7045 0.1228   0.115809
 C 0.0251 0.7569 0.2261   -0.111671
 C 0.2077 0.9306 0.1502   -0.168258
 C 0.2349 0.817 0.0694   -0.057784
 C 0.9865 0.7971 0.1863   -0.077459
 C 0.1526 0.9837 0.1208   -0.035247
 C 0.1393 0.5362 0.153   -0.163216
 C 0.0882 0.6233 0.1621   0.09818
 C 0.1743 0.8722 0.0412   -0.08476
 C 0.9988 0.7516 0.1334   -0.022242
 C 0.0483 0.6681 0.121   -0.13995
 C 0.3779 0.6604 0.49174   0.013802
 C 0.4172 0.6837 0.7788   0.031574
 C 0.3771 0.7328 0.53444   -0.161544
 C 0.3074 0.6584 0.45033   -0.199032
 C 0.2343 0.7306 0.45118   0.011881
 C 0.3596 0.7144 0.82503   -0.188922
 C 0.3711 0.6683 0.86758   0.042825
 C 0.3053 0.8064 0.53441   0.017661
 C 0.4513 0.7314 0.58023   0.686457
 C 0.3096 0.5768 0.40603   0.72293
 C 0.2916 0.7982 0.8301   0.699848
 C 0.4235 0.1685 0.7145   -0.044043
 C 0.1907 0.2833 0.6503   -0.206291
 C 0.9454 0.0827 0.22773   0.700616
 C 0.367 0.4538 0.5671   -0.06914
 C 0.2662 0.3051 0.99287   -0.15969
 C 0.0435 0.0489 0.41229   0.704192
 C 0.3456 0.3819 0.99374   0.718987
 C 0.014 0.1086 0.27565   -0.17963
 C 0.0012 0.0638 0.31853   0.028479
 C 0.0594 0.093 0.36471   -0.173947
 C 0.2484 0.3423 0.6237   0.099631
 C 0.2164 0.2311 0.5438   0.161182
 C 0.382 0.1245 0.75501   0.132448
 C 0.3243 0.9987 0.69414   0.14674
 C 0.1493 0.2045 0.6228   0.115809
 C 0.4749 0.2569 0.7261   -0.111671
 C 0.2923 0.4306 0.6502   -0.168258
 C 0.2651 0.317 0.5694   -0.057784
 C 0.5135 0.2971 0.6863   -0.077459
 C 0.3474 0.4837 0.6208   -0.035247
 C 0.3607 0.0362 0.653   -0.163216
 C 0.4118 0.1233 0.6621   0.09818
 C 0.3257 0.3722 0.5412   -0.08476
 C 0.5012 0.2516 0.6334   -0.022242
 C 0.4517 0.1681 0.621   -0.13995
 C 0.1221 0.1604 0.99174   0.013801
 C 0.0828 0.1837 0.2788   0.031574
 C 0.1229 0.2328 0.03444   -0.161544
 C 0.1926 0.1584 0.95033   -0.199033
 C 0.2657 0.2306 0.95118   0.011882
 C 0.1404 0.2144 0.32503   -0.188922
 C 0.1289 0.1683 0.36758   0.042826
 C 0.1947 0.3064 0.03441   0.017661
 C 0.0487 0.2314 0.08023   0.686457
 C 0.1904 0.0768 0.90603   0.72293
 C 0.2084 0.2982 0.3301   0.699848
 C 0.9235 0.3315 0.7855   -0.044043
 C 0.6907 0.2167 0.8497   -0.206291
 C 0.4454 0.4173 0.27227   0.700616
 C 0.867 0.0462 0.9329   -0.06914
 C 0.7662 0.1949 0.50713   -0.15969
 C 0.5435 0.4511 0.08771   0.704192
 C 0.8456 0.1181 0.50626   0.718987
 C 0.514 0.3914 0.22435   -0.17963
 C 0.5012 0.4362 0.18147   0.028479
 C 0.5594 0.407 0.13529   -0.173947
 C 0.7484 0.1577 0.8763   0.099631
 C 0.7164 0.2689 0.9562   0.161182
 C 0.882 0.3755 0.74499   0.132448
 C 0.8243 0.5013 0.80586   0.14674
 C 0.6493 0.2955 0.8772   0.115809
 C 0.9749 0.2431 0.7739   -0.111671
 C 0.7923 0.0694 0.8498   -0.168258
 C 0.7651 0.183 0.9306   -0.057784
 C 0.0135 0.2029 0.8137   -0.077459
 C 0.8474 0.0163 0.8792   -0.035247
 C 0.8607 0.4638 0.847   -0.163216
 C 0.9118 0.3767 0.8379   0.09818
 C 0.8257 0.1278 0.9588   -0.08476
 C 0.0012 0.2484 0.8666   -0.022241
 C 0.9517 0.3319 0.879   -0.13995
 C 0.6221 0.3396 0.50826   0.013801
 C 0.5828 0.3163 0.2212   0.031574
 C 0.6229 0.2672 0.46556   -0.161544
 C 0.6926 0.3416 0.54967   -0.199033
 C 0.7657 0.2694 0.54882   0.011881
 C 0.6404 0.2856 0.17497   -0.188922
 C 0.6289 0.3317 0.13242   0.042826
 C 0.6947 0.1936 0.46559   0.017661
 C 0.5487 0.2686 0.41977   0.686457
 C 0.6904 0.4232 0.59397   0.72293
 C 0.7084 0.2018 0.1699   0.699848
 N 0.6651 0.9576 0.2546   -0.34355
 N 0.8395 0.8216 0.43126   -0.305267
 N 0.1651 0.5424 0.2454   -0.34355
 N 0.3395 0.6784 0.06874   -0.305267
 N 0.3349 0.0424 0.7454   -0.34355
 N 0.1605 0.1784 0.56874   -0.305267
 N 0.8349 0.4576 0.7546   -0.34355
 N 0.6605 0.3216 0.93126   -0.305267
 O 0.7533 0.919 0.13359   -0.609619
 O 0.7905 0.6554 0.70675   -0.587364
 O 0.0133 0.8394 0.92633   -0.640881
 O 0.0318 0.875 0.80991   -0.605057
 O 0.1274 0.9756 0.77198   -0.619082
 O 0.9096 0.9155 0.54635   -0.607606
 O 0.57 0.6369 0.03033   -0.621803
 O 0.0178 0.0185 0.59228   -0.591215
 O 0.6761 0.5402 0.98038   -0.620925
 O 0.7392 0.6812 0.62721   -0.602482
 O 0.8681 0.99 0.08732   -0.602034
 O 0.9476 0.7071 0.88105   -0.598906
 O 0.2533 0.581 0.36641   -0.609619
 O 0.2905 0.8446 0.79325   -0.587364
 O 0.5133 0.6606 0.57367   -0.640881
 O 0.5318 0.625 0.69009   -0.605057
 O 0.6274 0.5244 0.72802   -0.619082
 O 0.4096 0.5845 0.95365   -0.607606
 O 0.07 0.8631 0.46967   -0.621803
 O 0.5178 0.4815 0.90772   -0.591215
 O 0.1761 0.9598 0.51962   -0.620925
 O 0.2392 0.8188 0.87279   -0.602482
 O 0.3681 0.51 0.41268   -0.602034
 O 0.4476 0.7929 0.61895   -0.598906
 O 0.2467 0.081 0.86641   -0.609619
 O 0.2095 0.3446 0.29325   -0.587364
 O 0.9867 0.1606 0.07367   -0.640881
 O 0.9682 0.125 0.19009   -0.605057
 O 0.8726 0.0244 0.22802   -0.619082
 O 0.0904 0.0845 0.45365   -0.607606
 O 0.43 0.3631 0.96967   -0.621803
 O 0.9822 0.9815 0.40772   -0.591215
 O 0.3239 0.4598 0.01962   -0.620925
 O 0.2608 0.3188 0.37279   -0.602482
 O 0.1319 0.01 0.91268   -0.602034
 O 0.0524 0.2929 0.11895   -0.598906
 O 0.7467 0.419 0.63359   -0.609619
 O 0.7095 0.1554 0.20675   -0.587364
 O 0.4867 0.3394 0.42633   -0.640881
 O 0.4682 0.375 0.30991   -0.605057
 O 0.3726 0.4756 0.27198   -0.619082
 O 0.5904 0.4155 0.04635   -0.607606
 O 0.93 0.1369 0.53033   -0.621803
 O 0.4822 0.5185 0.09228   -0.591215
 O 0.8239 0.0402 0.48038   -0.620925
 O 0.7608 0.1812 0.12721   -0.602482
 O 0.6319 0.49 0.58732   -0.602034
 O 0.5524 0.2071 0.38105   -0.598906
