{'_ref': 'TBD', '_srcid': 'CAKYAQ_clean', 'submitters': [{'name': 'Dalar Nazarian Jeff Camp and David Sholl', 'email': 'dalar@gatech.edu jcamp6@gatech.edu'}], '_method': 'VASP DFT with PBE;DDEC'}
data_CaH8C10(NO3)2
_symmetry_space_group_name_H-M   'P 1'
_cell_length_a   14.95959957
_cell_length_b   16.83739963
_cell_length_c   16.83740000
_cell_angle_alpha   98.91840160
_cell_angle_beta   94.39060049
_cell_angle_gamma   94.39060117
_symmetry_Int_Tables_number   1
_chemical_formula_structural   CaH8C10(NO3)2
_chemical_formula_sum   'Ca12 H96 C120 N24 O72'
_cell_volume   4160.58208296
_cell_formula_units_Z   12
loop_
 _symmetry_equiv_pos_site_id
 _symmetry_equiv_pos_as_xyz
  1  'x, y, z'
loop_
 _atom_site_label
 _atom_site_fract_x
 _atom_site_fract_y
 _atom_site_fract_z
 _atom_site_charge
 Ca 0.64061 0.89676 0.7448   1.624072
 Ca 0.58986 0.65285 0.67541   1.556436
 Ca 0.18194 0.37211 0.87117   1.615396
 Ca 0.85939 0.2552 0.10324   1.624065
 Ca 0.91014 0.32459 0.34715   1.556436
 Ca 0.31806 0.12883 0.62789   1.615378
 Ca 0.35939 0.10324 0.2552   1.624071
 Ca 0.41014 0.34715 0.32459   1.556435
 Ca 0.81806 0.62789 0.12883   1.615395
 Ca 0.14061 0.7448 0.89676   1.624064
 Ca 0.08986 0.67541 0.65285   1.556435
 Ca 0.68194 0.87117 0.37211   1.615377
 H 0.5238 0.3019 0.7311   0.094
 H 0.7222 0.4722 0.716   0.113843
 H 0.7656 0.3015 0.8535   0.109485
 H 0.5584 0.1222 0.9284   0.108964
 H 0.6551 0.1203 0.9703   0.114711
 H 0.4194 0.4957 0.6015   0.089447
 H 0.3504 0.4217 0.6045   0.099603
 H 0.9717 0.5515 0.8559   0.080303
 H 0.9966 0.5576 0.7684   0.112161
 H 0.6077 0.6555 0.1081   0.047733
 H 0.4659 0.4556 0.1442   0.100363
 H 0.3626 0.5954 0.9934   0.11135
 H 0.4218 0.794 0.8634   0.141286
 H 0.5118 0.8216 0.9182   0.1377
 H 0.7584 0.4873 0.2635   0.116251
 H 0.6988 0.4223 0.2977   0.139589
 H 0.1657 0.391 0.1022   0.080356
 H 0.2222 0.3209 0.0673   0.103758
 H 0.6675 0.2292 0.927   0.279125
 H 0.4999 0.3648 0.5924   0.299954
 H 0.8556 0.5118 0.7616   0.294437
 H 0.4241 0.6746 0.9134   0.280548
 H 0.5904 0.4605 0.2395   0.297751
 H 0.2932 0.4609 0.1557   0.251638
 H 0.9762 0.2689 0.6981   0.094
 H 0.7778 0.284 0.5278   0.113843
 H 0.7344 0.1465 0.6985   0.109485
 H 0.9416 0.0716 0.8778   0.108964
 H 0.8449 0.0297 0.8797   0.114711
 H 0.0806 0.3985 0.5043   0.089446
 H 0.1496 0.3955 0.5783   0.099601
 H 0.5283 0.1441 0.4485   0.080303
 H 0.5034 0.2316 0.4424   0.112161
 H 0.8923 0.8919 0.3445   0.047733
 H 0.0341 0.8558 0.5444   0.100363
 H 0.1374 0.0066 0.4046   0.11135
 H 0.0782 0.1366 0.206   0.141285
 H 0.9882 0.0818 0.1784   0.1377
 H 0.7416 0.7365 0.5127   0.11625
 H 0.8012 0.7023 0.5777   0.139589
 H 0.3343 0.8978 0.609   0.080356
 H 0.2778 0.9327 0.6791   0.103758
 H 0.8325 0.073 0.7708   0.279125
 H 0.000100000000003 0.4076 0.6352   0.299954
 H 0.6444 0.2384 0.4882   0.294437
 H 0.0759 0.0866 0.3254   0.280548
 H 0.9096 0.7605 0.5395   0.297751
 H 0.2068 0.8443 0.5391   0.251638
 H 0.4762 0.6981 0.2689   0.094
 H 0.2778 0.5278 0.284   0.113842
 H 0.2344 0.6985 0.1465   0.109485
 H 0.4416 0.8778 0.0716   0.108962
 H 0.3449 0.8797 0.0297   0.114709
 H 0.5806 0.5043 0.3985   0.089445
 H 0.6496 0.5783 0.3955   0.099602
 H 0.0283 0.4485 0.1441   0.080303
 H 0.0034 0.4424 0.2316   0.112161
 H 0.3923 0.3445 0.8919   0.047733
 H 0.5341 0.5444 0.8558   0.100363
 H 0.6374 0.4046 0.0066   0.111351
 H 0.5782 0.206 0.1366   0.141285
 H 0.4882 0.1784 0.0818   0.137699
 H 0.2416 0.5127 0.7365   0.11625
 H 0.3012 0.5777 0.7023   0.139587
 H 0.8343 0.609 0.8978   0.080356
 H 0.7778 0.6791 0.9327   0.103757
 H 0.3325 0.7708 0.073   0.279126
 H 0.5001 0.6352 0.4076   0.299954
 H 0.1444 0.4882 0.2384   0.294438
 H 0.5759 0.3254 0.0866   0.280549
 H 0.4096 0.5395 0.7605   0.297751
 H 0.7068 0.5391 0.8443   0.251638
 H 0.0238 0.7311 0.3019   0.094
 H 0.2222 0.716 0.4722   0.113842
 H 0.2656 0.8535 0.3015   0.109485
 H 0.0584 0.9284 0.1222   0.108962
 H 0.1551 0.9703 0.1203   0.114709
 H 0.9194 0.6015 0.4957   0.089444
 H 0.8504 0.6045 0.4217   0.0996
 H 0.4717 0.8559 0.5515   0.080303
 H 0.4966 0.7684 0.5576   0.112161
 H 0.1077 0.1081 0.6555   0.047733
 H 0.9659 0.1442 0.4556   0.100363
 H 0.8626 0.9934 0.5954   0.111351
 H 0.9218 0.8634 0.794   0.141285
 H 0.0118 0.9182 0.8216   0.137699
 H 0.2584 0.2635 0.4873   0.11625
 H 0.1988 0.2977 0.4223   0.139587
 H 0.6657 0.1022 0.391   0.080356
 H 0.7222 0.0673 0.3209   0.103757
 H 0.1675 0.927 0.2292   0.279126
 H 0.9999 0.5924 0.3648   0.299954
 H 0.3556 0.7616 0.5118   0.294437
 H 0.9241 0.9134 0.6746   0.280549
 H 0.0904 0.2395 0.4605   0.297751
 H 0.7932 0.1557 0.4609   0.251638
 C 0.63902 0.28988 0.798   -0.153245
 C 0.58214 0.3252 0.74638   0.021464
 C 0.61182 0.3946 0.71768   -0.148148
 C 0.70125 0.4268 0.73652   -0.017025
 C 0.75879 0.3907 0.7861   -0.162966
 C 0.72751 0.32376 0.81832   0.010779
 C 0.59982 0.21941 0.83185   0.559607
 C 0.6212 0.11917 0.91869   -0.114511
 C 0.6309 0.03964 0.8653   0.707825
 C 0.54868 0.44172 0.6743   0.614345
 C 0.4085 0.43757 0.58703   -0.103048
 C 0.4048 0.41521 0.49543   0.687563
 C 0.85395 0.42543 0.81437   0.543433
 C 0.9799 0.52003 0.80415   -0.10258
 C 0.0562 0.46876 0.81528   0.70108
 C 0.48853 0.63556 0.04256   -0.151244
 C 0.55618 0.61973 0.09661   0.066257
 C 0.55007 0.55288 0.13414   -0.203173
 C 0.4712 0.50118 0.11948   0.02482
 C 0.40058 0.5178 0.06806   -0.158569
 C 0.40948 0.58482 0.02876   0.016636
 C 0.50973 0.70365 0.99759   0.553075
 C 0.4752 0.77501 0.88803   -0.158616
 C 0.52759 0.73475 0.82251   0.766473
 C 0.63296 0.53547 0.18271   0.633819
 C 0.71499 0.44049 0.24845   -0.147021
 C 0.75917 0.37391 0.19839   0.750661
 C 0.31517 0.46121 0.05267   0.616591
 C 0.2204 0.36508 0.11146   -0.15801
 C 0.21892 0.33206 0.1898   0.714807
 C 0.86098 0.202 0.71012   -0.153244
 C 0.91786 0.25362 0.6748   0.021464
 C 0.88818 0.28232 0.6054   -0.148147
 C 0.79875 0.26348 0.5732   -0.017025
 C 0.74121 0.2139 0.6093   -0.162965
 C 0.77249 0.18168 0.67624   0.01078
 C 0.90018 0.16815 0.78059   0.559607
 C 0.8788 0.08131 0.88083   -0.114511
 C 0.8691 0.1347 0.96036   0.707825
 C 0.95132 0.3257 0.55828   0.614345
 C 0.0915 0.41297 0.56243   -0.103047
 C 0.0952 0.50457 0.58479   0.687563
 C 0.64605 0.18563 0.57457   0.543433
 C 0.5201 0.19585 0.47997   -0.10258
 C 0.4438 0.18472 0.53124   0.701079
 C 0.01147 0.95744 0.36444   -0.151244
 C 0.94382 0.90339 0.38027   0.066257
 C 0.94993 0.86586 0.44712   -0.203173
 C 0.0288 0.88052 0.49882   0.02482
 C 0.09942 0.93194 0.4822   -0.158569
 C 0.09052 0.97124 0.41518   0.016636
 C 0.99027 0.00241 0.29635   0.553075
 C 0.0248 0.11197 0.22499   -0.158615
 C 0.97241 0.17749 0.26525   0.766473
 C 0.86704 0.81729 0.46453   0.633818
 C 0.78501 0.75155 0.55951   -0.147021
 C 0.74083 0.80161 0.62609   0.750661
 C 0.18483 0.94733 0.53879   0.61659
 C 0.2796 0.88854 0.63492   -0.15801
 C 0.28108 0.8102 0.66794   0.714807
 C 0.36098 0.71012 0.202   -0.153244
 C 0.41786 0.6748 0.25362   0.021465
 C 0.38818 0.6054 0.28232   -0.148147
 C 0.29875 0.5732 0.26348   -0.017025
 C 0.24121 0.6093 0.2139   -0.162965
 C 0.27249 0.67624 0.18168   0.010781
 C 0.40018 0.78059 0.16815   0.559608
 C 0.3788 0.88083 0.08131   -0.114509
 C 0.3691 0.96036 0.1347   0.707825
 C 0.45132 0.55828 0.3257   0.614345
 C 0.5915 0.56243 0.41297   -0.103047
 C 0.5952 0.58479 0.50457   0.687561
 C 0.14605 0.57457 0.18563   0.543433
 C 0.0201 0.47997 0.19585   -0.102579
 C 0.9438 0.53124 0.18472   0.70108
 C 0.51147 0.36444 0.95744   -0.151241
 C 0.44382 0.38027 0.90339   0.066259
 C 0.44993 0.44712 0.86586   -0.203171
 C 0.5288 0.49882 0.88052   0.024822
 C 0.59942 0.4822 0.93194   -0.158566
 C 0.59052 0.41518 0.97124   0.016638
 C 0.49027 0.29635 0.00241   0.553076
 C 0.5248 0.22499 0.11197   -0.158615
 C 0.47241 0.26525 0.17749   0.766473
 C 0.36704 0.46453 0.81729   0.633819
 C 0.28501 0.55951 0.75155   -0.14702
 C 0.24083 0.62609 0.80161   0.750661
 C 0.68483 0.53879 0.94733   0.616593
 C 0.7796 0.63492 0.88854   -0.158009
 C 0.78108 0.66794 0.8102   0.714807
 C 0.13902 0.798 0.28988   -0.153243
 C 0.08214 0.74638 0.3252   0.021466
 C 0.11182 0.71768 0.3946   -0.148146
 C 0.20125 0.73652 0.4268   -0.017025
 C 0.25879 0.7861 0.3907   -0.162964
 C 0.22751 0.81832 0.32376   0.010781
 C 0.09982 0.83185 0.21941   0.559608
 C 0.1212 0.91869 0.11917   -0.114509
 C 0.1309 0.8653 0.03964   0.707824
 C 0.04868 0.6743 0.44172   0.614345
 C 0.9085 0.58703 0.43757   -0.103046
 C 0.9048 0.49543 0.41521   0.687561
 C 0.35395 0.81437 0.42543   0.543433
 C 0.4799 0.80415 0.52003   -0.10258
 C 0.5562 0.81528 0.46876   0.701079
 C 0.98853 0.04256 0.63556   -0.151241
 C 0.05618 0.09661 0.61973   0.066259
 C 0.05007 0.13414 0.55288   -0.203171
 C 0.9712 0.11948 0.50118   0.024822
 C 0.90058 0.06806 0.5178   -0.158566
 C 0.90948 0.02876 0.58482   0.016638
 C 0.00973 0.99759 0.70365   0.553076
 C 0.9752 0.88803 0.77501   -0.158615
 C 0.02759 0.82251 0.73475   0.766473
 C 0.13296 0.18271 0.53547   0.633818
 C 0.21499 0.24845 0.44049   -0.14702
 C 0.25917 0.19839 0.37391   0.750661
 C 0.81517 0.05267 0.46121   0.616593
 C 0.7204 0.11146 0.36508   -0.158009
 C 0.71892 0.1898 0.33206   0.714807
 N 0.65182 0.18921 0.88501   -0.387623
 N 0.4775 0.40014 0.62986   -0.4302
 N 0.89439 0.47549 0.77139   -0.417975
 N 0.44833 0.72135 0.94331   -0.423766
 N 0.63507 0.46437 0.20701   -0.37857
 N 0.29713 0.42241 0.11287   -0.359297
 N 0.84818 0.11499 0.81079   -0.387623
 N 0.0225 0.37014 0.59986   -0.4302
 N 0.60561 0.22861 0.52451   -0.417975
 N 0.05167 0.05669 0.27865   -0.423766
 N 0.86493 0.79299 0.53563   -0.37857
 N 0.20287 0.88713 0.57759   -0.359297
 N 0.34818 0.81079 0.11499   -0.387624
 N 0.5225 0.59986 0.37014   -0.4302
 N 0.10561 0.52451 0.22861   -0.417975
 N 0.55167 0.27865 0.05669   -0.423767
 N 0.36493 0.53563 0.79299   -0.37857
 N 0.70287 0.57759 0.88713   -0.359297
 N 0.15182 0.88501 0.18921   -0.387624
 N 0.9775 0.62986 0.40014   -0.4302
 N 0.39439 0.77139 0.47549   -0.417975
 N 0.94833 0.94331 0.72135   -0.423766
 N 0.13507 0.20701 0.46437   -0.37857
 N 0.79713 0.11287 0.42241   -0.359297
 O 0.52032 0.19188 0.8118   -0.565021
 O 0.67047 0.03937 0.80191   -0.758287
 O 0.5989 0.97701 0.88651   -0.701352
 O 0.5603 0.51578 0.68578   -0.623431
 O 0.34044 0.43485 0.45473   -0.652688
 O 0.4662 0.37835 0.46613   -0.72335
 O 0.89157 0.40835 0.87667   -0.510077
 O 0.06074 0.40366 0.76996   -0.694319
 O 0.11608 0.49489 0.87173   -0.734356
 O 0.58521 0.74165 0.00871   -0.529222
 O 0.52637 0.65942 0.80934   -0.665689
 O 0.56837 0.77893 0.78029   -0.831601
 O 0.69825 0.58801 0.19785   -0.674382
 O 0.83512 0.35728 0.22754   -0.819116
 O 0.72234 0.33839 0.13287   -0.671442
 O 0.26866 0.45139 0.98821   -0.651373
 O 0.27554 0.36133 0.24665   -0.727126
 O 0.15696 0.27738 0.19188   -0.681067
 O 0.97968 0.1882 0.80812   -0.565021
 O 0.82953 0.19809 0.96063   -0.758287
 O 0.9011 0.11349 0.02299   -0.701352
 O 0.9397 0.31422 0.48422   -0.623431
 O 0.15956 0.54527 0.56515   -0.652693
 O 0.0338 0.53387 0.62165   -0.72335
 O 0.60843 0.12333 0.59165   -0.510077
 O 0.43926 0.23004 0.59634   -0.694318
 O 0.38392 0.12827 0.50511   -0.734355
 O 0.91479 0.99129 0.25835   -0.529223
 O 0.97363 0.19066 0.34058   -0.665689
 O 0.93163 0.21971 0.22107   -0.8316
 O 0.80175 0.80215 0.41199   -0.674381
 O 0.66488 0.77246 0.64272   -0.819116
 O 0.77766 0.86713 0.66161   -0.671443
 O 0.23134 0.01179 0.54861   -0.651372
 O 0.22446 0.75335 0.63867   -0.727126
 O 0.34304 0.80812 0.72262   -0.681067
 O 0.47968 0.80812 0.1882   -0.565021
 O 0.32953 0.96063 0.19809   -0.758287
 O 0.4011 0.02299 0.11349   -0.701353
 O 0.4397 0.48422 0.31422   -0.623431
 O 0.65956 0.56515 0.54527   -0.652689
 O 0.5338 0.62165 0.53387   -0.72335
 O 0.10843 0.59165 0.12333   -0.510077
 O 0.93926 0.59634 0.23004   -0.694319
 O 0.88392 0.50511 0.12827   -0.734356
 O 0.41479 0.25835 0.99129   -0.529223
 O 0.47363 0.34058 0.19066   -0.665689
 O 0.43163 0.22107 0.21971   -0.831601
 O 0.30175 0.41199 0.80215   -0.674382
 O 0.16488 0.64272 0.77246   -0.819116
 O 0.27766 0.66161 0.86713   -0.671442
 O 0.73134 0.54861 0.01179   -0.651373
 O 0.72446 0.63867 0.75335   -0.727126
 O 0.84304 0.72262 0.80812   -0.681067
 O 0.02032 0.8118 0.19188   -0.565022
 O 0.17047 0.80191 0.03937   -0.758287
 O 0.0989 0.88651 0.97701   -0.701352
 O 0.0603 0.68578 0.51578   -0.623431
 O 0.84044 0.45473 0.43485   -0.652694
 O 0.9662 0.46613 0.37835   -0.72335
 O 0.39157 0.87667 0.40835   -0.510078
 O 0.56074 0.76996 0.40366   -0.694318
 O 0.61608 0.87173 0.49489   -0.734355
 O 0.08521 0.00871 0.74165   -0.529223
 O 0.02637 0.80934 0.65942   -0.665689
 O 0.06837 0.78029 0.77893   -0.8316
 O 0.19825 0.19785 0.58801   -0.674381
 O 0.33512 0.22754 0.35728   -0.819116
 O 0.22234 0.13287 0.33839   -0.671443
 O 0.76866 0.98821 0.45139   -0.651372
 O 0.77554 0.24665 0.36133   -0.727126
 O 0.65696 0.19188 0.27738   -0.681067
