{'_ref': 'TBD', '_srcid': 'CAKYAQ_clean', 'submitters': [{'name': 'Dalar Nazarian Jeff Camp and David Sholl', 'email': 'dalar@gatech.edu jcamp6@gatech.edu'}], '_method': 'VASP DFT with PBE;DDEC'}
data_Cd2H5C7(N6O)2
_symmetry_space_group_name_H-M   'P 1'
_cell_length_a   9.51890043
_cell_length_b   13.74199945
_cell_length_c   13.74200000
_cell_angle_alpha   83.11060177
_cell_angle_beta   69.73619795
_cell_angle_gamma   69.73620169
_symmetry_Int_Tables_number   1
_chemical_formula_structural   Cd2H5C7(N6O)2
_chemical_formula_sum   'Cd8 H20 C28 N48 O8'
_cell_volume   1581.9482847
_cell_formula_units_Z   4
loop_
 _symmetry_equiv_pos_site_id
 _symmetry_equiv_pos_as_xyz
  1  'x, y, z'
loop_
 _atom_site_label
 _atom_site_fract_x
 _atom_site_fract_y
 _atom_site_fract_z
 _atom_site_charge
 Cd 0.89291 0.40939 0.15655   0.760786
 Cd 0.45885 0.59061 0.84345   0.760992
 Cd 0.95054 0.15655 0.59061   0.761587
 Cd 0.6977 0.84345 0.40939   0.761442
 Cd 0.95885 0.84345 0.59061   0.761001
 Cd 0.39291 0.15655 0.40939   0.760792
 Cd 0.1977 0.40939 0.84345   0.761448
 Cd 0.45054 0.59061 0.15655   0.761594
 H 0.8862 0.5929 0.3113   0.080643
 H 0.283 0.0868 0.8472   0.083506
 H 0.7904 0.4071 0.6887   0.08186
 H 0.217 0.9132 0.1528   0.083555
 H 0.8025 0.3113 0.4071   0.079703
 H 0.8698 0.8472 0.9132   0.084461
 H 0.5209 0.6887 0.5929   0.079506
 H 0.6302 0.1528 0.0868   0.084395
 H 0.2904 0.6887 0.4071   0.08186
 H 0.717 0.1528 0.9132   0.083545
 H 0.3862 0.3113 0.5929   0.080644
 H 0.783 0.8472 0.0868   0.083495
 H 0.0209 0.5929 0.6887   0.079506
 H 0.1302 0.0868 0.1528   0.084385
 H 0.3025 0.4071 0.3113   0.079704
 H 0.3698 0.9132 0.8472   0.084451
 H 0.1374 0.5 0.2252   0.075729
 H 0.8626 0.5 0.7748   0.075726
 H 0.6374 0.2252 0.5   0.075731
 H 0.3626 0.7748 0.5   0.075724
 C 0.7923 0.6207 0.2931   0.180529
 C 0.2689 0.0508 0.9114   -0.051928
 C 0.7061 0.3793 0.7069   0.180331
 C 0.2311 0.9492 0.0886   -0.052233
 C 0.9146 0.2931 0.3793   0.18489
 C 0.8197 0.9114 0.9492   -0.053503
 C 0.587 0.7069 0.6207   0.184924
 C 0.6803 0.0886 0.0508   -0.053154
 C 0.2061 0.7069 0.3793   0.180331
 C 0.7311 0.0886 0.9492   -0.05214
 C 0.2923 0.2931 0.6207   0.180529
 C 0.7689 0.9114 0.0508   -0.051835
 C 0.087 0.6207 0.7069   0.184925
 C 0.1803 0.0508 0.0886   -0.053061
 C 0.4146 0.3793 0.2931   0.184893
 C 0.3197 0.9492 0.9114   -0.05341
 C 0.1743 0.5 0.1514   0.201238
 C 0.8257 0.5 0.8486   0.201104
 C 0.6743 0.1514 0.5   0.201231
 C 0.3257 0.8486 0.5   0.201111
 C 0.1394 0.2212 0.0   0.735586
 C 0.1977 0.1046 0.0   -0.108625
 C 0.3606 0.7788 0.0   0.7322
 C 0.3023 0.8954 0.0   -0.107755
 C 0.8606 0.0 0.7788   0.732199
 C 0.8023 0.0 0.8954   -0.107755
 C 0.6394 0.0 0.2212   0.735586
 C 0.6977 0.0 0.1046   -0.108625
 N 0.7469 0.5723 0.2395   -0.301948
 N 0.6136 0.6343 0.2245   0.010719
 N 0.5805 0.7227 0.2733   -0.12888
 N 0.6869 0.7149 0.3179   -0.189355
 N 0.1124 0.4689 0.0945   -0.240156
 N 0.1986 0.4817 0.9969   -0.029753
 N 0.5587 0.4277 0.7605   -0.30228
 N 0.4724 0.3657 0.7755   0.009086
 N 0.5765 0.2773 0.7267   -0.126434
 N 0.7197 0.2851 0.6821   -0.19099
 N 0.6758 0.5311 0.9055   -0.240164
 N 0.6772 0.5183 0.0031   -0.028664
 N 0.0136 0.2395 0.4277   -0.306305
 N 0.1619 0.2245 0.3657   0.011997
 N 0.1462 0.2733 0.2773   -0.126047
 N 0.9952 0.3179 0.2851   -0.193096
 N 0.7931 0.0945 0.5311   -0.241394
 N 0.8045 0.9969 0.5183   -0.025776
 N 0.6808 0.7605 0.5723   -0.30641
 N 0.7521 0.7755 0.6343   0.011669
 N 0.6968 0.7267 0.7227   -0.129638
 N 0.5982 0.6821 0.7149   -0.18885
 N 0.4187 0.9055 0.4689   -0.240936
 N 0.3197 0.0031 0.4817   -0.027504
 N 0.0587 0.7605 0.4277   -0.302281
 N 0.9724 0.7755 0.3657   0.009088
 N 0.0765 0.7267 0.2773   -0.126433
 N 0.2197 0.6821 0.2851   -0.190992
 N 0.1758 0.9055 0.5311   -0.240181
 N 0.1772 0.0031 0.5183   -0.028604
 N 0.2469 0.2395 0.5723   -0.301949
 N 0.1136 0.2245 0.6343   0.010721
 N 0.0805 0.2733 0.7227   -0.12888
 N 0.1869 0.3179 0.7149   -0.189357
 N 0.6124 0.0945 0.4689   -0.240164
 N 0.6986 0.9969 0.4817   -0.029691
 N 0.1808 0.5723 0.7605   -0.30641
 N 0.2521 0.6343 0.7755   0.011671
 N 0.1968 0.7227 0.7267   -0.129638
 N 0.0982 0.7149 0.6821   -0.188852
 N 0.9187 0.4689 0.9055   -0.240943
 N 0.8197 0.4817 0.0031   -0.027447
 N 0.5136 0.4277 0.2395   -0.306305
 N 0.6619 0.3657 0.2245   0.011999
 N 0.6462 0.2773 0.2733   -0.126045
 N 0.4952 0.2851 0.3179   -0.193102
 N 0.2931 0.5311 0.0945   -0.241412
 N 0.3045 0.5183 0.9969   -0.025711
 O 0.0124 0.2657 0.0635   -0.627621
 O 0.3416 0.7343 0.9365   -0.626521
 O 0.9241 0.0635 0.7343   -0.625307
 O 0.7219 0.9365 0.2657   -0.627221
 O 0.8416 0.9365 0.7343   -0.626519
 O 0.5124 0.0635 0.2657   -0.627619
 O 0.2219 0.2657 0.9365   -0.627219
 O 0.4241 0.7343 0.0635   -0.625306
