{'_ref': 'TBD', '_srcid': 'CAKYAQ_clean', 'submitters': [{'name': 'Dalar Nazarian Jeff Camp and David Sholl', 'email': 'dalar@gatech.edu jcamp6@gatech.edu'}], '_method': 'VASP DFT with PBE;DDEC'}
data_AlH6C8NO5
_symmetry_space_group_name_H-M   'P 1'
_cell_length_a   6.58979986
_cell_length_b   7.48140000
_cell_length_c   10.56290000
_cell_angle_alpha   110.74000099
_cell_angle_beta   104.68799962
_cell_angle_gamma   90.00000242
_symmetry_Int_Tables_number   1
_chemical_formula_structural   AlH6C8NO5
_chemical_formula_sum   'Al2 H12 C16 N2 O10'
_cell_volume   468.772399092
_cell_formula_units_Z   2
loop_
 _symmetry_equiv_pos_site_id
 _symmetry_equiv_pos_as_xyz
  1  'x, y, z'
loop_
 _atom_site_label
 _atom_site_fract_x
 _atom_site_fract_y
 _atom_site_fract_z
 _atom_site_charge
 Al 0.0 0.0 0.0   1.763696
 Al 0.5 0.0 0.0   1.7278
 H 0.38043 0.95562 0.592   0.093449
 H 0.23234 0.89105 0.33016   0.145572
 H 0.62158 0.07806 0.40275   0.135858
 H 0.88043 0.63638 0.592   0.103193
 H 0.73234 0.4391 0.33015   0.144136
 H 0.12158 0.32469 0.40275   0.133156
 H 0.57225 0.11514 0.64456   0.303393
 H 0.81721 0.25173 0.79337   0.361605
 H 0.07847 0.46269 0.64103   0.310977
 H 0.31099 0.60837 0.79691   0.34848
 H 0.15294 0.24212 0.97402   0.411001
 H 0.64618 0.80447 0.97787   0.259002
 C 0.211 0.983 0.5498   -0.001339
 C 0.873 0.0865 0.59   0.345719
 C 0.083 0.0527 0.6424   -0.288852
 C 0.129 0.9472 0.4048   -0.154112
 C 0.791 0.0507 0.445   -0.225363
 C 0.919 0.981 0.3524   -0.030572
 C 0.165 0.0886 0.7876   0.724893
 C 0.837 0.9451 0.2072   0.715936
 C 0.711 0.5668 0.5498   -0.016728
 C 0.373 0.5035 0.59   0.35741
 C 0.583 0.5897 0.6424   -0.296329
 C 0.629 0.4576 0.4048   -0.167045
 C 0.291 0.3943 0.445   -0.231754
 C 0.419 0.3714 0.3524   -0.025903
 C 0.665 0.699 0.7876   0.703131
 C 0.337 0.2621 0.2072   0.718012
 N 0.745 0.1561 0.6826   -0.669339
 N 0.245 0.5265 0.6826   -0.671256
 O 0.053 0.1496 0.8688   -0.506441
 O 0.35 0.0589 0.8336   -0.590255
 O 0.652 0.9748 0.1612   -0.615284
 O 0.949 0.8841 0.126   -0.599989
 O 0.718 0.1119 0.9928   -1.207503
 O 0.553 0.7192 0.8688   -0.398647
 O 0.85 0.7747 0.8336   -0.587881
 O 0.152 0.1864 0.1612   -0.668429
 O 0.449 0.2419 0.126   -0.625287
 O 0.218 0.8809 0.9928   -1.228112
