{'_ref': 'TBD', '_srcid': 'CAKYAQ_clean', 'submitters': [{'name': 'Dalar Nazarian Jeff Camp and David Sholl', 'email': 'dalar@gatech.edu jcamp6@gatech.edu'}], '_method': 'VASP DFT with PBE;DDEC'}
data_InH12(C3O)8
_symmetry_space_group_name_H-M   'P 1'
_cell_length_a   14.65899989
_cell_length_b   14.65899982
_cell_length_c   19.27950000
_cell_angle_alpha   112.34420072
_cell_angle_beta   112.34420061
_cell_angle_gamma   89.99999821
_symmetry_Int_Tables_number   1
_chemical_formula_structural   InH12(C3O)8
_chemical_formula_sum   'In4 H48 C96 O32'
_cell_volume   3493.18423128
_cell_formula_units_Z   4
loop_
 _symmetry_equiv_pos_site_id
 _symmetry_equiv_pos_as_xyz
  1  'x, y, z'
loop_
 _atom_site_label
 _atom_site_fract_x
 _atom_site_fract_y
 _atom_site_fract_z
 _atom_site_charge
 In 0.88711 0.63711 0.27422   1.507804
 In 0.63711 0.88711 0.77422   1.508305
 In 0.11289 0.36289 0.72578   1.507804
 In 0.36289 0.11289 0.22578   1.508305
 H 0.6925 0.6739 0.0394   0.129506
 H 0.6468 0.7146 0.9274   0.103743
 H 0.9379 0.9028 0.9734   0.110426
 H 0.0953 0.9536 0.0744   0.110412
 H 0.1396 0.9115 0.1864   0.125039
 H 0.0251 0.8133 0.1936   0.11712
 H 0.8469 0.3655 0.0394   0.128711
 H 0.7806 0.2128 0.9274   0.1041
 H 0.5355 0.0706 0.9734   0.110164
 H 0.4791 0.1208 0.0744   0.110747
 H 0.5468 0.2749 0.1864   0.125254
 H 0.6685 0.3803 0.1936   0.117728
 H 0.6739 0.8469 0.5394   0.128654
 H 0.7146 0.7806 0.4274   0.104675
 H 0.9028 0.5355 0.4734   0.109787
 H 0.9536 0.4791 0.5744   0.1101
 H 0.9115 0.5468 0.6864   0.125309
 H 0.8133 0.6685 0.6936   0.117249
 H 0.3655 0.6925 0.5394   0.129239
 H 0.2128 0.6468 0.4274   0.104344
 H 0.0706 0.9379 0.4734   0.110854
 H 0.1208 0.0953 0.5744   0.110379
 H 0.2749 0.1396 0.6864   0.124971
 H 0.3803 0.0251 0.6936   0.11708
 H 0.3075 0.3261 0.9606   0.129506
 H 0.3532 0.2854 0.0726   0.103742
 H 0.0621 0.0972 0.0266   0.110426
 H 0.9047 0.0464 0.9256   0.110412
 H 0.8604 0.0885 0.8136   0.125038
 H 0.9749 0.1867 0.8064   0.117119
 H 0.1531 0.6345 0.9606   0.128711
 H 0.2194 0.7872 0.0726   0.1041
 H 0.4645 0.9294 0.0266   0.110165
 H 0.5209 0.8792 0.9256   0.110747
 H 0.4532 0.7251 0.8136   0.125253
 H 0.3315 0.6197 0.8064   0.117728
 H 0.3261 0.1531 0.4606   0.128654
 H 0.2854 0.2194 0.5726   0.104675
 H 0.0972 0.4645 0.5266   0.109787
 H 0.0464 0.5209 0.4256   0.1101
 H 0.0885 0.4532 0.3136   0.125309
 H 0.1867 0.3315 0.3064   0.117248
 H 0.6345 0.3075 0.4606   0.129239
 H 0.7872 0.3532 0.5726   0.104343
 H 0.9294 0.0621 0.5266   0.110854
 H 0.8792 0.9047 0.4256   0.11038
 H 0.7251 0.8604 0.3136   0.124971
 H 0.6197 0.9749 0.3064   0.11708
 C 0.77847 0.79277 0.95954   -0.096473
 C 0.87992 0.82532 0.01984   0.037856
 C 0.90849 0.79719 0.08778   0.012228
 C 0.8361 0.7396 0.093   -0.029176
 C 0.73957 0.71067 0.03454   -0.086369
 C 0.71199 0.73639 0.96758   -0.025148
 C 0.95404 0.88444 0.01728   -0.067566
 C 0.04805 0.91495 0.0777   -0.059111
 C 0.07523 0.88913 0.14486   -0.058621
 C 0.00659 0.83089 0.14918   -0.063833
 C 0.73584 0.82304 0.88788   0.641014
 C 0.86042 0.70832 0.16304   0.615846
 C 0.68107 0.16677 0.95954   -0.096477
 C 0.63992 0.19452 0.01984   0.037522
 C 0.67929 0.29059 0.08778   0.012351
 C 0.7569 0.3534 0.093   -0.029189
 C 0.79497 0.32387 0.03454   -0.085503
 C 0.75559 0.23119 0.96758   -0.025496
 C 0.56324 0.13284 0.01728   -0.067097
 C 0.52965 0.16275 0.0777   -0.059786
 C 0.56963 0.25573 0.14486   -0.057323
 C 0.64259 0.31829 0.14918   -0.066021
 C 0.65204 0.06484 0.88788   0.641603
 C 0.80262 0.45472 0.16304   0.615266
 C 0.79277 0.68107 0.45954   -0.095693
 C 0.82532 0.63992 0.51984   0.037903
 C 0.79719 0.67929 0.58778   0.012984
 C 0.7396 0.7569 0.593   -0.03077
 C 0.71067 0.79497 0.53454   -0.084322
 C 0.73639 0.75559 0.46758   -0.026778
 C 0.88444 0.56324 0.51728   -0.068184
 C 0.91495 0.52965 0.5777   -0.05765
 C 0.88913 0.56963 0.64486   -0.059142
 C 0.83089 0.64259 0.64918   -0.064631
 C 0.82304 0.65204 0.38788   0.641328
 C 0.70832 0.80262 0.66304   0.616981
 C 0.16677 0.77847 0.45954   -0.095645
 C 0.19452 0.87992 0.51984   0.036942
 C 0.29059 0.90849 0.58778   0.012729
 C 0.3534 0.8361 0.593   -0.029502
 C 0.32387 0.73957 0.53454   -0.086652
 C 0.23119 0.71199 0.46758   -0.025785
 C 0.13284 0.95404 0.51728   -0.068201
 C 0.16275 0.04805 0.5777   -0.05872
 C 0.25573 0.07523 0.64486   -0.057797
 C 0.31829 0.00659 0.64918   -0.064858
 C 0.06484 0.73584 0.38788   0.64047
 C 0.45472 0.86042 0.66304   0.616562
 C 0.22153 0.20723 0.04046   -0.096473
 C 0.12008 0.17468 0.98016   0.037856
 C 0.09151 0.20281 0.91222   0.012228
 C 0.1639 0.2604 0.907   -0.029175
 C 0.26043 0.28933 0.96546   -0.08637
 C 0.28801 0.26361 0.03242   -0.025148
 C 0.04596 0.11556 0.98272   -0.067567
 C 0.95195 0.08505 0.9223   -0.05911
 C 0.92477 0.11087 0.85514   -0.05862
 C 0.99341 0.16911 0.85082   -0.063831
 C 0.26416 0.17696 0.11212   0.641014
 C 0.13958 0.29168 0.83696   0.615846
 C 0.31893 0.83323 0.04046   -0.096477
 C 0.36008 0.80548 0.98016   0.037522
 C 0.32071 0.70941 0.91222   0.012351
 C 0.2431 0.6466 0.907   -0.029189
 C 0.20503 0.67613 0.96546   -0.085504
 C 0.24441 0.76881 0.03242   -0.025496
 C 0.43676 0.86716 0.98272   -0.067098
 C 0.47035 0.83725 0.9223   -0.059785
 C 0.43037 0.74427 0.85514   -0.057322
 C 0.35741 0.68171 0.85082   -0.06602
 C 0.34796 0.93516 0.11212   0.641603
 C 0.19738 0.54528 0.83696   0.615266
 C 0.20723 0.31893 0.54046   -0.095693
 C 0.17468 0.36008 0.48016   0.037903
 C 0.20281 0.32071 0.41222   0.012984
 C 0.2604 0.2431 0.407   -0.030769
 C 0.28933 0.20503 0.46546   -0.084323
 C 0.26361 0.24441 0.53242   -0.026778
 C 0.11556 0.43676 0.48272   -0.068184
 C 0.08505 0.47035 0.4223   -0.05765
 C 0.11087 0.43037 0.35514   -0.059141
 C 0.16911 0.35741 0.35082   -0.064629
 C 0.17696 0.34796 0.61212   0.641328
 C 0.29168 0.19738 0.33696   0.616981
 C 0.83323 0.22153 0.54046   -0.095646
 C 0.80548 0.12008 0.48016   0.036942
 C 0.70941 0.09151 0.41222   0.012729
 C 0.6466 0.1639 0.407   -0.029502
 C 0.67613 0.26043 0.46546   -0.086652
 C 0.76881 0.28801 0.53242   -0.025784
 C 0.86716 0.04596 0.48272   -0.068201
 C 0.83725 0.95195 0.4223   -0.05872
 C 0.74427 0.92477 0.35514   -0.057796
 C 0.68171 0.99341 0.35082   -0.064856
 C 0.93516 0.26416 0.61212   0.64047
 C 0.54528 0.13958 0.33696   0.616562
 O 0.92456 0.65316 0.17372   -0.566411
 O 0.78457 0.88057 0.87774   -0.582913
 O 0.64616 0.79236 0.84112   -0.574465
 O 0.8126 0.7328 0.2066   -0.546971
 O 0.74916 0.52056 0.17372   -0.565841
 O 0.59317 0.99717 0.87774   -0.582855
 O 0.69496 0.04876 0.84112   -0.57507
 O 0.894 0.4738 0.2066   -0.546886
 O 0.65316 0.74916 0.67372   -0.56656
 O 0.88057 0.59317 0.37774   -0.583107
 O 0.79236 0.69496 0.34112   -0.574546
 O 0.7328 0.894 0.7066   -0.547623
 O 0.52056 0.92456 0.67372   -0.566207
 O 0.99717 0.78457 0.37774   -0.582649
 O 0.04876 0.64616 0.34112   -0.574105
 O 0.4738 0.8126 0.7066   -0.547567
 O 0.07544 0.34684 0.82628   -0.566411
 O 0.21543 0.11943 0.12226   -0.582913
 O 0.35384 0.20764 0.15888   -0.574465
 O 0.1874 0.2672 0.7934   -0.546971
 O 0.25084 0.47944 0.82628   -0.565841
 O 0.40683 0.00283 0.12226   -0.582855
 O 0.30504 0.95124 0.15888   -0.57507
 O 0.106 0.5262 0.7934   -0.546886
 O 0.34684 0.25084 0.32628   -0.56656
 O 0.11943 0.40683 0.62226   -0.583107
 O 0.20764 0.30504 0.65888   -0.574546
 O 0.2672 0.106 0.2934   -0.547623
 O 0.47944 0.07544 0.32628   -0.566207
 O 0.00283 0.21543 0.62226   -0.582649
 O 0.95124 0.35384 0.65888   -0.574105
 O 0.5262 0.1874 0.2934   -0.547567
