{'_ref': 'TBD', '_srcid': 'CAKYAQ_clean', 'submitters': [{'name': 'Dalar Nazarian Jeff Camp and David Sholl', 'email': 'dalar@gatech.edu jcamp6@gatech.edu'}], '_method': 'VASP DFT with PBE;DDEC'}
data_SmH9C18(NO2)3
_symmetry_space_group_name_H-M   'P 1'
_cell_length_a   15.58640000
_cell_length_b   17.03010000
_cell_length_c   25.47500004
_cell_angle_alpha   98.42800092
_cell_angle_beta   90.00000000
_cell_angle_gamma   90.00000000
_symmetry_Int_Tables_number   1
_chemical_formula_structural   SmH9C18(NO2)3
_chemical_formula_sum   'Sm8 H72 C144 N24 O48'
_cell_volume   6689.00742339
_cell_formula_units_Z   8
loop_
 _symmetry_equiv_pos_site_id
 _symmetry_equiv_pos_as_xyz
  1  'x, y, z'
loop_
 _atom_site_label
 _atom_site_fract_x
 _atom_site_fract_y
 _atom_site_fract_z
 _atom_site_charge
 Sm 0.29514 0.96244 0.25036   2.328874
 Sm 0.17593 0.18493 0.24829   2.316482
 Sm 0.79514 0.53756 0.74964   2.328874
 Sm 0.67593 0.31507 0.75171   2.316482
 Sm 0.70486 0.03756 0.74964   2.328873
 Sm 0.82407 0.81507 0.75171   2.316481
 Sm 0.20486 0.46244 0.25036   2.328873
 Sm 0.32407 0.68493 0.24829   2.316481
 H 0.9957 0.1133 0.3849   0.09416
 H 0.9398 0.0933 0.4634   0.122089
 H 0.1628 0.9333 0.3876   0.095091
 H 0.3485 0.2375 0.1263   0.103821
 H 0.4239 0.2612 0.0508   0.108764
 H 0.4794 0.0318 0.1262   0.091341
 H 0.5015 0.2805 0.9976   0.104227
 H 0.5573 0.2962 0.9145   0.082748
 H 0.6423 0.0689 0.8948   0.085944
 H 0.1325 0.8768 0.086   0.103977
 H 0.054 0.883 0.0089   0.10653
 H 0.075 0.1048 0.1297   0.049158
 H 0.352 0.2783 0.4041   0.104612
 H 0.441 0.2805 0.4782   0.113813
 H 0.4076 0.0455 0.3629   0.054271
 H 0.4887 0.2733 0.5468   0.108912
 H 0.5533 0.2664 0.6258   0.079714
 H 0.6368 0.0488 0.5742   0.080239
 H 0.4957 0.3867 0.6151   0.09416
 H 0.4398 0.4067 0.5366   0.12209
 H 0.6628 0.5667 0.6124   0.095091
 H 0.8485 0.2625 0.8737   0.103821
 H 0.9239 0.2388 0.9492   0.108764
 H 0.9794 0.4682 0.8738   0.091341
 H 0.0015 0.2195 0.0024   0.104227
 H 0.0573 0.2038 0.0855   0.082748
 H 0.1423 0.4311 0.1052   0.085944
 H 0.6325 0.6232 0.914   0.103977
 H 0.554 0.617 0.9911   0.10653
 H 0.575 0.3952 0.8703   0.049158
 H 0.852 0.2217 0.5959   0.104612
 H 0.941 0.2195 0.5218   0.113813
 H 0.9076 0.4545 0.6371   0.054271
 H 0.9887 0.2267 0.4532   0.108912
 H 0.0533 0.2336 0.3742   0.079714
 H 0.1368 0.4512 0.4258   0.080239
 H 0.0043 0.8867 0.6151   0.09416
 H 0.0602 0.9067 0.5366   0.122089
 H 0.8372 0.0667 0.6124   0.095091
 H 0.6515 0.7625 0.8737   0.103821
 H 0.5761 0.7388 0.9492   0.108764
 H 0.5206 0.9682 0.8738   0.091341
 H 0.4985 0.7195 0.0024   0.104227
 H 0.4427 0.7038 0.0855   0.082748
 H 0.3577 0.9311 0.1052   0.085944
 H 0.8675 0.1232 0.914   0.103977
 H 0.946 0.117 0.9911   0.10653
 H 0.925 0.8952 0.8703   0.049158
 H 0.648 0.7217 0.5959   0.104612
 H 0.559 0.7195 0.5218   0.113813
 H 0.5924 0.9545 0.6371   0.054271
 H 0.5113 0.7267 0.4532   0.108912
 H 0.4467 0.7336 0.3742   0.079714
 H 0.3632 0.9512 0.4258   0.080239
 H 0.5043 0.6133 0.3849   0.09416
 H 0.5602 0.5933 0.4634   0.12209
 H 0.3372 0.4333 0.3876   0.095091
 H 0.1515 0.7375 0.1263   0.103821
 H 0.0761 0.7612 0.0508   0.108764
 H 0.0206 0.5318 0.1262   0.091341
 H 0.9985 0.7805 0.9976   0.104227
 H 0.9427 0.7962 0.9145   0.082748
 H 0.8577 0.5689 0.8948   0.085944
 H 0.3675 0.3768 0.086   0.103977
 H 0.446 0.383 0.0089   0.10653
 H 0.425 0.6048 0.1297   0.049158
 H 0.148 0.7783 0.4041   0.104612
 H 0.059 0.7805 0.4782   0.113813
 H 0.0924 0.5455 0.3629   0.054271
 H 0.0113 0.7733 0.5468   0.108912
 H 0.9467 0.7664 0.6258   0.079714
 H 0.8632 0.5488 0.5742   0.080239
 C 0.1247 0.0427 0.3254   0.827077
 C 0.0864 0.0279 0.3778   -0.233312
 C 0.0193 0.0725 0.4022   0.043707
 C 0.9862 0.0612 0.4486   -0.177086
 C 0.0178 0.0049 0.4744   0.224632
 C 0.118 0.9663 0.4034   0.20124
 C 0.3529 0.1153 0.1791   0.822239
 C 0.4068 0.1324 0.1334   -0.241294
 C 0.3904 0.2006 0.111   0.03359
 C 0.4352 0.2147 0.0661   -0.19742
 C 0.4964 0.1606 0.0436   0.224129
 C 0.4681 0.0784 0.1109   0.208622
 C 0.6328 0.1942 0.8422   0.857768
 C 0.5388 0.1654 0.9955   0.234887
 C 0.5301 0.2375 0.9767   -0.191486
 C 0.5632 0.2469 0.9274   0.036604
 C 0.6051 0.184 0.8968   -0.238487
 C 0.6137 0.1118 0.9156   0.1938
 C 0.1667 0.9945 0.1653   0.816933
 C 0.1152 0.9927 0.1154   -0.234813
 C 0.107 0.9253 0.0797   0.044648
 C 0.06 0.9295 0.0341   -0.16898
 C 0.025 0.9954 0.0245   0.236449
 C 0.073 0.0582 0.1041   0.234623
 C 0.3125 0.1579 0.3293   0.812314
 C 0.3705 0.1615 0.3757   -0.24796
 C 0.381 0.2313 0.4106   0.048774
 C 0.4322 0.2325 0.4547   -0.18972
 C 0.4702 0.1642 0.4641   0.235012
 C 0.414 0.094 0.3864   0.209526
 C 0.5208 0.1634 0.5134   0.228108
 C 0.5179 0.2262 0.5523   -0.205925
 C 0.556 0.2218 0.5986   0.065401
 C 0.5989 0.156 0.6084   -0.244574
 C 0.605 0.0943 0.5684   0.213911
 C 0.6353 0.1503 0.662   0.828535
 C 0.6247 0.4573 0.6746   0.827077
 C 0.5864 0.4721 0.6222   -0.233312
 C 0.5193 0.4275 0.5978   0.043707
 C 0.4862 0.4388 0.5514   -0.177086
 C 0.5178 0.4951 0.5256   0.224632
 C 0.618 0.5337 0.5966   0.20124
 C 0.8529 0.3847 0.8209   0.822239
 C 0.9068 0.3676 0.8666   -0.241294
 C 0.8904 0.2994 0.889   0.03359
 C 0.9352 0.2853 0.9339   -0.19742
 C 0.9964 0.3394 0.9564   0.224129
 C 0.9681 0.4216 0.8891   0.208622
 C 0.1328 0.3058 0.1578   0.857768
 C 0.0388 0.3346 0.0045   0.234887
 C 0.0301 0.2625 0.0233   -0.191485
 C 0.0632 0.2531 0.0726   0.036604
 C 0.1051 0.316 0.1032   -0.238487
 C 0.1137 0.3882 0.0844   0.1938
 C 0.6667 0.5055 0.8347   0.816933
 C 0.6152 0.5073 0.8846   -0.234813
 C 0.607 0.5747 0.9203   0.044648
 C 0.56 0.5705 0.9659   -0.16898
 C 0.525 0.5046 0.9755   0.236449
 C 0.573 0.4418 0.8959   0.234623
 C 0.8125 0.3421 0.6707   0.812314
 C 0.8705 0.3385 0.6243   -0.24796
 C 0.881 0.2687 0.5894   0.048774
 C 0.9322 0.2675 0.5453   -0.18972
 C 0.9702 0.3358 0.5359   0.235012
 C 0.914 0.406 0.6136   0.209526
 C 0.0208 0.3366 0.4866   0.228108
 C 0.0179 0.2738 0.4477   -0.205925
 C 0.056 0.2782 0.4014   0.065401
 C 0.0989 0.344 0.3916   -0.244574
 C 0.105 0.4057 0.4316   0.213911
 C 0.1353 0.3497 0.338   0.828535
 C 0.8753 0.9573 0.6746   0.827077
 C 0.9136 0.9721 0.6222   -0.233312
 C 0.9807 0.9275 0.5978   0.043707
 C 0.0138 0.9388 0.5514   -0.177086
 C 0.9822 0.9951 0.5256   0.224636
 C 0.882 0.0337 0.5966   0.20124
 C 0.6471 0.8847 0.8209   0.822239
 C 0.5932 0.8676 0.8666   -0.241294
 C 0.6096 0.7994 0.889   0.03359
 C 0.5648 0.7853 0.9339   -0.19742
 C 0.5036 0.8394 0.9564   0.224129
 C 0.5319 0.9216 0.8891   0.208623
 C 0.3672 0.8058 0.1578   0.857768
 C 0.4612 0.8346 0.0045   0.234887
 C 0.4699 0.7625 0.0233   -0.191486
 C 0.4368 0.7531 0.0726   0.036604
 C 0.3949 0.816 0.1032   -0.238487
 C 0.3863 0.8882 0.0844   0.1938
 C 0.8333 0.0055 0.8347   0.816933
 C 0.8848 0.0073 0.8846   -0.234813
 C 0.893 0.0747 0.9203   0.044648
 C 0.94 0.0705 0.9659   -0.16898
 C 0.975 0.0046 0.9755   0.236455
 C 0.927 0.9418 0.8959   0.234623
 C 0.6875 0.8421 0.6707   0.812314
 C 0.6295 0.8385 0.6243   -0.24796
 C 0.619 0.7687 0.5894   0.048774
 C 0.5678 0.7675 0.5453   -0.18972
 C 0.5298 0.8358 0.5359   0.235012
 C 0.586 0.906 0.6136   0.209526
 C 0.4792 0.8366 0.4866   0.228108
 C 0.4821 0.7738 0.4477   -0.205924
 C 0.444 0.7782 0.4014   0.065401
 C 0.4011 0.844 0.3916   -0.244574
 C 0.395 0.9057 0.4316   0.213911
 C 0.3647 0.8497 0.338   0.828535
 C 0.3753 0.5427 0.3254   0.827077
 C 0.4136 0.5279 0.3778   -0.233312
 C 0.4807 0.5725 0.4022   0.043707
 C 0.5138 0.5612 0.4486   -0.177086
 C 0.4822 0.5049 0.4744   0.224636
 C 0.382 0.4663 0.4034   0.20124
 C 0.1471 0.6153 0.1791   0.822239
 C 0.0932 0.6324 0.1334   -0.241294
 C 0.1096 0.7006 0.111   0.033589
 C 0.0648 0.7147 0.0661   -0.197419
 C 0.0036 0.6606 0.0436   0.224129
 C 0.0319 0.5784 0.1109   0.208623
 C 0.8672 0.6942 0.8422   0.857768
 C 0.9612 0.6654 0.9955   0.234887
 C 0.9699 0.7375 0.9767   -0.191485
 C 0.9368 0.7469 0.9274   0.036603
 C 0.8949 0.684 0.8968   -0.238487
 C 0.8863 0.6118 0.9156   0.1938
 C 0.3333 0.4945 0.1653   0.816933
 C 0.3848 0.4927 0.1154   -0.234813
 C 0.393 0.4253 0.0797   0.044648
 C 0.44 0.4295 0.0341   -0.16898
 C 0.475 0.4954 0.0245   0.236455
 C 0.427 0.5582 0.1041   0.234623
 C 0.1875 0.6579 0.3293   0.812314
 C 0.1295 0.6615 0.3757   -0.24796
 C 0.119 0.7313 0.4106   0.048774
 C 0.0678 0.7325 0.4547   -0.189719
 C 0.0298 0.6642 0.4641   0.235012
 C 0.086 0.594 0.3864   0.209526
 C 0.9792 0.6634 0.5134   0.228108
 C 0.9821 0.7262 0.5523   -0.205924
 C 0.944 0.7218 0.5986   0.065401
 C 0.9011 0.656 0.6084   -0.244574
 C 0.895 0.5943 0.5684   0.213911
 C 0.8647 0.6503 0.662   0.828535
 N 0.084 0.9532 0.4521   -0.422023
 N 0.5129 0.0925 0.0661   -0.38342
 N 0.5806 0.1025 0.965   -0.378154
 N 0.03 0.061 0.0598   -0.398389
 N 0.4645 0.0964 0.4299   -0.371048
 N 0.566 0.095 0.5188   -0.37322
 N 0.584 0.5468 0.5479   -0.422023
 N 0.0129 0.4075 0.9339   -0.38342
 N 0.0806 0.3975 0.035   -0.378154
 N 0.53 0.439 0.9402   -0.398389
 N 0.9645 0.4036 0.5701   -0.371048
 N 0.066 0.405 0.4812   -0.37322
 N 0.916 0.0468 0.5479   -0.422023
 N 0.4871 0.9075 0.9339   -0.38342
 N 0.4194 0.8975 0.035   -0.378154
 N 0.97 0.939 0.9402   -0.39839
 N 0.5355 0.9036 0.5701   -0.371048
 N 0.434 0.905 0.4812   -0.37322
 N 0.416 0.4532 0.4521   -0.422023
 N 0.9871 0.5925 0.0661   -0.38342
 N 0.9194 0.6025 0.965   -0.378154
 N 0.47 0.561 0.0598   -0.39839
 N 0.0355 0.5964 0.4299   -0.371048
 N 0.934 0.595 0.5188   -0.37322
 O 0.1656 0.9858 0.3003   -0.755752
 O 0.1137 0.11 0.3133   -0.749899
 O 0.3565 0.0452 0.1889   -0.759161
 O 0.309 0.1711 0.2031   -0.749173
 O 0.6326 0.1336 0.8091   -0.829533
 O 0.6511 0.2615 0.8332   -0.766108
 O 0.2024 0.9319 0.1736   -0.692666
 O 0.1719 0.058 0.1973   -0.868792
 O 0.3001 0.0931 0.3004   -0.861923
 O 0.2746 0.2208 0.3221   -0.699305
 O 0.6772 0.0893 0.6677   -0.755256
 O 0.6159 0.2057 0.6986   -0.832423
 O 0.6656 0.5142 0.6997   -0.755752
 O 0.6137 0.39 0.6867   -0.749899
 O 0.8565 0.4548 0.8111   -0.759161
 O 0.809 0.3289 0.7969   -0.749173
 O 0.1326 0.3664 0.1909   -0.829533
 O 0.1511 0.2385 0.1668   -0.766108
 O 0.7024 0.5681 0.8264   -0.692666
 O 0.6719 0.442 0.8027   -0.868792
 O 0.8001 0.4069 0.6996   -0.861923
 O 0.7746 0.2792 0.6779   -0.699305
 O 0.1772 0.4107 0.3323   -0.755256
 O 0.1159 0.2943 0.3014   -0.832423
 O 0.8344 0.0142 0.6997   -0.755752
 O 0.8863 0.89 0.6867   -0.749899
 O 0.6435 0.9548 0.8111   -0.759161
 O 0.691 0.8289 0.7969   -0.749173
 O 0.3674 0.8664 0.1909   -0.829533
 O 0.3489 0.7385 0.1668   -0.766108
 O 0.7976 0.0681 0.8264   -0.692666
 O 0.8281 0.942 0.8027   -0.868792
 O 0.6999 0.9069 0.6996   -0.861923
 O 0.7254 0.7792 0.6779   -0.699305
 O 0.3228 0.9107 0.3323   -0.755256
 O 0.3841 0.7943 0.3014   -0.832422
 O 0.3344 0.4858 0.3003   -0.755752
 O 0.3863 0.61 0.3133   -0.749899
 O 0.1435 0.5452 0.1889   -0.759161
 O 0.191 0.6711 0.2031   -0.749173
 O 0.8674 0.6336 0.8091   -0.829533
 O 0.8489 0.7615 0.8332   -0.766108
 O 0.2976 0.4319 0.1736   -0.692666
 O 0.3281 0.558 0.1973   -0.868792
 O 0.1999 0.5931 0.3004   -0.861923
 O 0.2254 0.7208 0.3221   -0.699305
 O 0.8228 0.5893 0.6677   -0.755256
 O 0.8841 0.7057 0.6986   -0.832422
