{'_ref': 'TBD', '_srcid': 'CAKYAQ_clean', 'submitters': [{'name': 'Dalar Nazarian Jeff Camp and David Sholl', 'email': 'dalar@gatech.edu jcamp6@gatech.edu'}], '_method': 'VASP DFT with PBE;DDEC'}
data_MnNi3H48(C11O4)6
_symmetry_space_group_name_H-M   'P 1'
_cell_length_a   15.68020004
_cell_length_b   16.61870023
_cell_length_c   16.86310000
_cell_angle_alpha   98.78199942
_cell_angle_beta   109.21499861
_cell_angle_gamma   114.85800120
_symmetry_Int_Tables_number   1
_chemical_formula_structural   MnNi3H48(C11O4)6
_chemical_formula_sum   'Mn1 Ni3 H48 C66 O24'
_cell_volume   3541.18035727
_cell_formula_units_Z   1
loop_
 _symmetry_equiv_pos_site_id
 _symmetry_equiv_pos_as_xyz
  1  'x, y, z'
loop_
 _atom_site_label
 _atom_site_fract_x
 _atom_site_fract_y
 _atom_site_fract_z
 _atom_site_charge
 Mn 0.5 0.5 0.5   1.322293
 Ni 0.33256 0.25061 0.40636   0.943908
 Ni 0.66744 0.74939 0.59364   0.943908
 Ni 0.5 0.0 0.5   0.741261
 H 0.1678 0.2423 0.5719   0.102725
 H 0.0896 0.2593 0.6612   0.133962
 H 0.258 0.5388 0.7362   0.124512
 H 0.3346 0.5241 0.6436   0.101738
 H 0.124 0.5284 0.7775   0.069673
 H 0.2208 0.533 0.855   0.068584
 H 0.9495 0.3502 0.7776   0.079706
 H 0.9275 0.4041 0.8494   0.067702
 H 0.7762 0.3053 0.7326   0.112911
 H 0.6007 0.2459 0.6316   0.094721
 H 0.6932 0.4682 0.5449   0.094449
 H 0.8649 0.5279 0.6468   0.141854
 H 0.0999 0.3595 0.8947   0.07067
 H 0.1988 0.4588 0.9655   0.068321
 H 0.0357 0.2657 0.0351   0.139196
 H 0.1319 0.2532 0.1653   0.095314
 H 0.3365 0.5272 0.259   0.091617
 H 0.2452 0.5445 0.1295   0.123608
 H 0.0875 0.6025 0.8899   0.069561
 H 0.0672 0.5573 0.9641   0.060729
 H 0.3934 0.7136 0.1178   0.13454
 H 0.4553 0.8339 0.2461   0.104543
 H 0.1813 0.8286 0.1538   0.101134
 H 0.1183 0.7081 0.0273   0.110629
 H 0.8322 0.7577 0.4281   0.102752
 H 0.9104 0.7407 0.3388   0.133974
 H 0.742 0.4612 0.2638   0.124515
 H 0.6654 0.4759 0.3564   0.101736
 H 0.876 0.4716 0.2225   0.069673
 H 0.7792 0.467 0.145   0.068584
 H 0.0505 0.6498 0.2224   0.0797
 H 0.0725 0.5959 0.1506   0.067699
 H 0.2238 0.6947 0.2674   0.112912
 H 0.3993 0.7541 0.3684   0.094715
 H 0.3068 0.5318 0.4551   0.094447
 H 0.1351 0.4721 0.3532   0.141858
 H 0.9001 0.6405 0.1053   0.07067
 H 0.8012 0.5412 0.0345   0.068326
 H 0.9643 0.7343 0.9649   0.139206
 H 0.8681 0.7468 0.8347   0.095339
 H 0.6635 0.4728 0.741   0.091616
 H 0.7548 0.4555 0.8705   0.123607
 H 0.9125 0.3975 0.1101   0.069563
 H 0.9328 0.4427 0.0359   0.060726
 H 0.6066 0.2864 0.8822   0.134548
 H 0.5447 0.1661 0.7539   0.104547
 H 0.8187 0.1714 0.8462   0.101129
 H 0.8817 0.2919 0.9727   0.110624
 C 0.311 0.3713 0.5389   0.738471
 C 0.2586 0.3813 0.5974   -0.217357
 C 0.1864 0.3036 0.6048   0.014874
 C 0.1417 0.3138 0.6586   -0.243129
 C 0.1704 0.4022 0.7102   0.316689
 C 0.2396 0.4778 0.7027   -0.279856
 C 0.2847 0.4692 0.6475   0.028899
 C 0.1447 0.4942 0.8161   0.067441
 C 0.0846 0.475 0.8721   -0.037812
 C 0.9664 0.4129 0.8126   0.063767
 C 0.836 0.419 0.6971   0.310821
 C 0.7593 0.338 0.6941   -0.273818
 C 0.6545 0.3026 0.6338   0.038376
 C 0.6294 0.35 0.5776   -0.217945
 C 0.7096 0.4348 0.5828   0.023835
 C 0.8112 0.4696 0.6424   -0.242471
 C 0.5197 0.3127 0.5164   0.693243
 C 0.1216 0.4231 0.9319   0.062048
 C 0.1307 0.4061 0.0677   0.293852
 C 0.0979 0.32 0.0799   -0.260568
 C 0.1556 0.313 0.1577   0.020361
 C 0.2441 0.3875 0.2229   -0.189771
 C 0.2756 0.4734 0.2124   0.025009
 C 0.2211 0.4841 0.1358   -0.246013
 C 0.3061 0.3784 0.3074   0.726602
 C 0.1079 0.5683 0.9288   0.070344
 C 0.2494 0.6969 0.0599   0.303353
 C 0.3491 0.7361 0.1256   -0.256517
 C 0.3855 0.8069 0.202   0.00824
 C 0.322 0.8403 0.2165   -0.180776
 C 0.2242 0.8035 0.1478   0.023636
 C 0.1872 0.7332 0.0724   -0.275601
 C 0.3575 0.9099 0.3044   0.673565
 C 0.689 0.6287 0.4611   0.738471
 C 0.7414 0.6187 0.4026   -0.217355
 C 0.8136 0.6964 0.3952   0.014868
 C 0.8583 0.6862 0.3414   -0.24313
 C 0.8296 0.5978 0.2898   0.316689
 C 0.7604 0.5222 0.2973   -0.279847
 C 0.7153 0.5308 0.3525   0.028902
 C 0.8553 0.5058 0.1839   0.067441
 C 0.9154 0.525 0.1279   -0.037812
 C 0.0336 0.5871 0.1874   0.063769
 C 0.164 0.581 0.3029   0.310822
 C 0.2407 0.662 0.3059   -0.273823
 C 0.3455 0.6974 0.3662   0.038377
 C 0.3706 0.65 0.4224   -0.217945
 C 0.2904 0.5652 0.4172   0.023835
 C 0.1888 0.5304 0.3576   -0.242471
 C 0.4803 0.6873 0.4836   0.693243
 C 0.8784 0.5769 0.0681   0.062047
 C 0.8693 0.5939 0.9323   0.293853
 C 0.9021 0.68 0.9201   -0.260569
 C 0.8444 0.687 0.8423   0.020354
 C 0.7559 0.6125 0.7771   -0.189764
 C 0.7244 0.5266 0.7876   0.025012
 C 0.7789 0.5159 0.8642   -0.246014
 C 0.6939 0.6216 0.6926   0.7266
 C 0.8921 0.4317 0.0712   0.070344
 C 0.7506 0.3031 0.9401   0.303353
 C 0.6509 0.2639 0.8744   -0.25652
 C 0.6145 0.1931 0.798   0.008238
 C 0.678 0.1597 0.7835   -0.180775
 C 0.7758 0.1965 0.8522   0.023636
 C 0.8128 0.2668 0.9276   -0.2756
 C 0.6425 0.0901 0.6956   0.673562
 O 0.3729 0.4451 0.5354   -0.604613
 O 0.2882 0.2903 0.4992   -0.581024
 O 0.1192 0.4042 0.7626   -0.288026
 O 0.9393 0.4609 0.7547   -0.265817
 O 0.4488 0.2322 0.5042   -0.554704
 O 0.4946 0.3635 0.4747   -0.642737
 O 0.0745 0.4158 0.9926   -0.299124
 O 0.2645 0.2996 0.3175   -0.618654
 O 0.3931 0.4495 0.3613   -0.604157
 O 0.2177 0.6236 0.9875   -0.281081
 O 0.3015 0.9472 0.3067   -0.594518
 O 0.4386 0.9255 0.3665   -0.585454
 O 0.6271 0.5549 0.4646   -0.604613
 O 0.7118 0.7097 0.5008   -0.581025
 O 0.8808 0.5958 0.2374   -0.288025
 O 0.0607 0.5391 0.2453   -0.265818
 O 0.5512 0.7678 0.4958   -0.554703
 O 0.5054 0.6365 0.5253   -0.642737
 O 0.9255 0.5842 0.0074   -0.299124
 O 0.7355 0.7004 0.6825   -0.618654
 O 0.6069 0.5505 0.6387   -0.604157
 O 0.7823 0.3764 0.0125   -0.281081
 O 0.6985 0.0528 0.6933   -0.594518
 O 0.5614 0.0745 0.6335   -0.585454
