{'_ref': 'TBD', '_srcid': 'CAKYAQ_clean', 'submitters': [{'name': 'Dalar Nazarian Jeff Camp and David Sholl', 'email': 'dalar@gatech.edu jcamp6@gatech.edu'}], '_method': 'VASP DFT with PBE;DDEC'}
data_MnCo3H48(C11O4)6
_symmetry_space_group_name_H-M   'P 1'
_cell_length_a   12.65939954
_cell_length_b   15.02709977
_cell_length_c   17.03170000
_cell_angle_alpha   108.00899971
_cell_angle_beta   101.05000081
_cell_angle_gamma   106.04999816
_symmetry_Int_Tables_number   1
_chemical_formula_structural   MnCo3H48(C11O4)6
_chemical_formula_sum   'Mn1 Co3 H48 C66 O24'
_cell_volume   2821.74020248
_cell_formula_units_Z   1
loop_
 _symmetry_equiv_pos_site_id
 _symmetry_equiv_pos_as_xyz
  1  'x, y, z'
loop_
 _atom_site_label
 _atom_site_fract_x
 _atom_site_fract_y
 _atom_site_fract_z
 _atom_site_charge
 Mn 0.5 0.5 0.5   1.263401
 Co 0.21509 0.37245 0.41478   1.099926
 Co 0.78491 0.62755 0.58522   1.099926
 Co 0.0 0.5 0.5   1.001749
 H 0.2175 0.6427 0.6639   0.073762
 H 0.3013 0.8061 0.7679   0.111527
 H 0.5413 0.8665 0.6461   0.143124
 H 0.4568 0.7024 0.5423   0.095949
 H 0.1819 0.1829 0.5702   0.103769
 H 0.2153 0.1124 0.672   0.140063
 H 0.5604 0.1235 0.7825   0.070357
 H 0.5548 0.2232 0.8495   0.067359
 H 0.6617 0.0847 0.8982   0.070077
 H 0.6132 0.0806 0.9781   0.057532
 H 0.7561 0.3934 0.0923   0.140114
 H 0.8802 0.4577 0.2329   0.108846
 H 0.9372 0.1979 0.1877   0.106002
 H 0.7988 0.1268 0.0483   0.132043
 H 0.36 0.1359 0.9048   0.064167
 H 0.4805 0.2205 0.9691   0.060468
 H 0.5584 0.2493 0.7272   0.132313
 H 0.5236 0.3277 0.6309   0.103909
 H 0.5349 0.3822 0.2408   0.105028
 H 0.5577 0.287 0.1108   0.124937
 H 0.2624 0.0637 0.069   0.127897
 H 0.2372 0.16 0.1948   0.103488
 H 0.3509 0.9764 0.8074   0.073132
 H 0.4323 0.9541 0.8779   0.067889
 H 0.7825 0.3573 0.3361   0.073762
 H 0.6987 0.1939 0.2321   0.111527
 H 0.4587 0.1335 0.3539   0.143125
 H 0.5432 0.2976 0.4577   0.095949
 H 0.8181 0.8171 0.4298   0.103771
 H 0.7847 0.8876 0.328   0.140064
 H 0.4396 0.8765 0.2175   0.070358
 H 0.4452 0.7768 0.1505   0.067359
 H 0.3383 0.9153 0.1018   0.07008
 H 0.3868 0.9194 0.0219   0.057534
 H 0.2439 0.6066 0.9077   0.140114
 H 0.1198 0.5423 0.7671   0.108849
 H 0.0628 0.8021 0.8123   0.106001
 H 0.2012 0.8732 0.9517   0.132047
 H 0.64 0.8641 0.0952   0.064167
 H 0.5195 0.7795 0.0309   0.060467
 H 0.4416 0.7507 0.2728   0.132314
 H 0.4764 0.6723 0.3691   0.10391
 H 0.4651 0.6178 0.7592   0.105028
 H 0.4423 0.713 0.8892   0.124937
 H 0.7376 0.9363 0.931   0.1279
 H 0.7628 0.84 0.8052   0.10349
 H 0.6491 0.0236 0.1926   0.073132
 H 0.5677 0.0459 0.1221   0.067891
 C 0.3257 0.6561 0.5931   -0.237101
 C 0.2832 0.6882 0.6597   0.04335
 C 0.3328 0.7855 0.722   -0.277787
 C 0.475 0.8207 0.6494   -0.243468
 C 0.425 0.7236 0.5878   0.031526
 C 0.5008 0.0993 0.8831   -0.038303
 C 0.3501 0.2647 0.5917   -0.211096
 C 0.2587 0.1985 0.6035   0.013396
 C 0.2784 0.1552 0.6627   -0.259715
 C 0.3899 0.1744 0.7085   0.316318
 C 0.5147 0.1498 0.8185   0.070694
 C 0.6199 0.1139 0.9365   0.071539
 C 0.7625 0.2533 0.0602   0.31173
 C 0.7895 0.3524 0.1128   -0.253202
 C 0.8652 0.391 0.1953   0.014031
 C 0.9193 0.3339 0.2236   -0.195913
 C 0.8974 0.2364 0.169   0.019687
 C 0.8161 0.1941 0.0856   -0.288948
 C 0.4377 0.1473 0.9406   0.075171
 C 0.4815 0.2372 0.6964   -0.29923
 C 0.4603 0.2829 0.6384   0.03249
 C 0.369 0.3424 0.3124   0.698973
 C 0.3853 0.2815 0.2301   -0.187736
 C 0.4787 0.3177 0.2054   0.021979
 C 0.4929 0.2611 0.1284   -0.255259
 C 0.4116 0.1676 0.0788   0.291271
 C 0.3172 0.1291 0.1036   -0.246921
 C 0.3029 0.1856 0.1782   0.015075
 C 0.428 0.8512 0.7163   0.318788
 C 0.4319 0.9877 0.8362   0.06575
 C 0.9991 0.3763 0.3158   0.720456
 C 0.2731 0.5529 0.5295   0.721253
 C 0.3282 0.3145 0.5313   0.717559
 C 0.6743 0.3439 0.4069   -0.237101
 C 0.7168 0.3118 0.3403   0.043351
 C 0.6672 0.2145 0.278   -0.277786
 C 0.525 0.1793 0.3506   -0.243468
 C 0.575 0.2764 0.4122   0.031526
 C 0.4992 0.9007 0.1169   -0.038303
 C 0.6499 0.7353 0.4083   -0.211096
 C 0.7413 0.8015 0.3965   0.013396
 C 0.7216 0.8448 0.3373   -0.259716
 C 0.6101 0.8256 0.2915   0.316319
 C 0.4853 0.8502 0.1815   0.070694
 C 0.3801 0.8861 0.0635   0.071537
 C 0.2375 0.7467 0.9398   0.31173
 C 0.2105 0.6476 0.8872   -0.253199
 C 0.1348 0.609 0.8047   0.014031
 C 0.0807 0.6661 0.7764   -0.195912
 C 0.1026 0.7636 0.831   0.019688
 C 0.1839 0.8059 0.9144   -0.28895
 C 0.5623 0.8527 0.0594   0.075171
 C 0.5185 0.7628 0.3036   -0.299232
 C 0.5397 0.7171 0.3616   0.03249
 C 0.631 0.6576 0.6876   0.698973
 C 0.6147 0.7185 0.7699   -0.187736
 C 0.5213 0.6823 0.7946   0.021978
 C 0.5071 0.7389 0.8716   -0.255257
 C 0.5884 0.8324 0.9212   0.291271
 C 0.6828 0.8709 0.8964   -0.246922
 C 0.6971 0.8144 0.8218   0.015075
 C 0.572 0.1488 0.2837   0.318788
 C 0.5681 0.0123 0.1638   0.065749
 C 0.000900000000001 0.6237 0.6842   0.720456
 C 0.7269 0.4471 0.4705   0.721253
 C 0.6718 0.6855 0.4687   0.717559
 O 0.32669 0.51762 0.47773   -0.654711
 O 0.4127 0.36751 0.51779   -0.651494
 O 0.9927 0.4524 0.36718   -0.63544
 O 0.4011 0.1278 0.76533   -0.281112
 O 0.6812 0.221 0.98226   -0.292534
 O 0.0621 0.3299 0.33283   -0.619309
 O 0.225 0.3015 0.49594   -0.60048
 O 0.4528 0.42122 0.36482   -0.624438
 O 0.274 0.30766 0.32415   -0.598868
 O 0.17608 0.49543 0.52516   -0.644161
 O 0.4269 0.1059 0.00461   -0.31373
 O 0.485 0.94807 0.77302   -0.276344
 O 0.67331 0.48238 0.52227   -0.654711
 O 0.5873 0.63249 0.48221   -0.651494
 O 0.0073 0.5476 0.63282   -0.63544
 O 0.5989 0.8722 0.23467   -0.281112
 O 0.3188 0.779 0.01774   -0.292534
 O 0.9379 0.6701 0.66717   -0.619309
 O 0.775 0.6985 0.50406   -0.60048
 O 0.5472 0.57878 0.63518   -0.624438
 O 0.726 0.69234 0.67585   -0.598868
 O 0.82392 0.50457 0.47484   -0.644161
 O 0.5731 0.8941 0.99539   -0.31373
 O 0.515 0.05193 0.22698   -0.276344
