{'_ref': 'TBD', '_srcid': 'CAKYAQ_clean', 'submitters': [{'name': 'Dalar Nazarian Jeff Camp and David Sholl', 'email': 'dalar@gatech.edu jcamp6@gatech.edu'}], '_method': 'VASP DFT with PBE;DDEC'}
data_CuH5C10N3O4
_symmetry_space_group_name_H-M   'P 1'
_cell_length_a   12.05460000
_cell_length_b   14.54440000
_cell_length_c   20.40260000
_cell_angle_alpha   90.00000000
_cell_angle_beta   90.00000000
_cell_angle_gamma   90.00000000
_symmetry_Int_Tables_number   1
_chemical_formula_structural   CuH5C10N3O4
_chemical_formula_sum   'Cu8 H40 C80 N24 O32'
_cell_volume   3577.1251045
_cell_formula_units_Z   8
loop_
 _symmetry_equiv_pos_site_id
 _symmetry_equiv_pos_as_xyz
  1  'x, y, z'
loop_
 _atom_site_label
 _atom_site_fract_x
 _atom_site_fract_y
 _atom_site_fract_z
 _atom_site_charge
 Cu 0.42745 0.3651 0.70022   0.834569
 Cu 0.07255 0.1349 0.20022   0.834569
 Cu 0.92745 0.1349 0.29978   0.83457
 Cu 0.57255 0.3651 0.79978   0.83457
 Cu 0.57255 0.6349 0.29978   0.834569
 Cu 0.92745 0.8651 0.79978   0.834569
 Cu 0.07255 0.8651 0.70022   0.83457
 Cu 0.42745 0.6349 0.20022   0.83457
 H 0.1384 0.7193 0.9355   0.122734
 H 0.3616 0.7807 0.4355   0.122734
 H 0.6384 0.7807 0.0645   0.122734
 H 0.8616 0.7193 0.5645   0.122734
 H 0.8616 0.2807 0.0645   0.122734
 H 0.6384 0.2193 0.5645   0.122734
 H 0.3616 0.2193 0.9355   0.122734
 H 0.1384 0.2807 0.4355   0.122734
 H 0.3682 0.5183 0.9355   0.120298
 H 0.1318 0.9817 0.4355   0.120298
 H 0.8682 0.9817 0.0645   0.120298
 H 0.6318 0.5183 0.5645   0.120298
 H 0.6318 0.4817 0.0645   0.120298
 H 0.8682 0.0183 0.5645   0.120298
 H 0.1318 0.0183 0.9355   0.120298
 H 0.3682 0.4817 0.4355   0.120298
 H 0.2482 0.6141 0.764   0.132185
 H 0.2518 0.8859 0.264   0.132185
 H 0.7482 0.8859 0.236   0.132185
 H 0.7518 0.6141 0.736   0.132185
 H 0.7518 0.3859 0.236   0.132185
 H 0.7482 0.1141 0.736   0.132185
 H 0.2518 0.1141 0.764   0.132185
 H 0.2482 0.3859 0.264   0.132185
 H 0.0989 0.6353 0.0457   0.112598
 H 0.4011 0.8647 0.5457   0.112598
 H 0.5989 0.8647 0.9543   0.112598
 H 0.9011 0.6353 0.4543   0.112598
 H 0.9011 0.3647 0.9543   0.112598
 H 0.5989 0.1353 0.4543   0.112598
 H 0.4011 0.1353 0.0457   0.112598
 H 0.0989 0.3647 0.5457   0.112598
 H 0.4231 0.6211 0.0411   0.115704
 H 0.0769 0.8789 0.5411   0.115704
 H 0.9231 0.8789 0.9589   0.115704
 H 0.5769 0.6211 0.4589   0.115704
 H 0.5769 0.3789 0.9589   0.115704
 H 0.9231 0.1211 0.4589   0.115704
 H 0.0769 0.1211 0.0411   0.115704
 H 0.4231 0.3789 0.5411   0.115704
 C 0.3865 0.4866 0.8077   0.654099
 C 0.1135 0.0134 0.3077   0.654099
 C 0.8865 0.0134 0.1923   0.654099
 C 0.6135 0.4866 0.6923   0.654099
 C 0.6135 0.5134 0.1923   0.654099
 C 0.8865 0.9866 0.6923   0.654099
 C 0.1135 0.9866 0.8077   0.654099
 C 0.3865 0.5134 0.3077   0.654099
 C 0.3196 0.5554 0.8454   -0.065829
 C 0.1804 0.9446 0.3454   -0.065829
 C 0.8196 0.9446 0.1546   -0.065829
 C 0.6804 0.5554 0.6546   -0.065829
 C 0.6804 0.4446 0.1546   -0.065829
 C 0.8196 0.0554 0.6546   -0.065829
 C 0.1804 0.0554 0.8454   -0.065829
 C 0.3196 0.4446 0.3454   -0.065829
 C 0.1126 0.7466 0.8075   0.660147
 C 0.3874 0.7534 0.3075   0.660147
 C 0.6126 0.7534 0.1925   0.660147
 C 0.8874 0.7466 0.6925   0.660147
 C 0.8874 0.2534 0.1925   0.660147
 C 0.6126 0.2466 0.6925   0.660147
 C 0.3874 0.2466 0.8075   0.660147
 C 0.1126 0.2534 0.3075   0.660147
 C 0.2548 0.6206 0.9458   0.100191
 C 0.2452 0.8794 0.4458   0.100191
 C 0.7548 0.8794 0.0542   0.100191
 C 0.7452 0.6206 0.5542   0.100191
 C 0.7452 0.3794 0.0542   0.100191
 C 0.7548 0.1206 0.5542   0.100191
 C 0.2452 0.1206 0.9458   0.100191
 C 0.2548 0.3794 0.4458   0.100191
 C 0.1847 0.6793 0.9128   -0.144432
 C 0.3153 0.8207 0.4128   -0.144432
 C 0.6847 0.8207 0.0872   -0.144432
 C 0.8153 0.6793 0.5872   -0.144432
 C 0.8153 0.3207 0.0872   -0.144432
 C 0.6847 0.1793 0.5872   -0.144432
 C 0.3153 0.1793 0.9128   -0.144432
 C 0.1847 0.3207 0.4128   -0.144432
 C 0.3221 0.5579 0.9124   -0.135133
 C 0.1779 0.9421 0.4124   -0.135133
 C 0.8221 0.9421 0.0876   -0.135133
 C 0.6779 0.5579 0.5876   -0.135133
 C 0.6779 0.4421 0.0876   -0.135133
 C 0.8221 0.0579 0.5876   -0.135133
 C 0.1779 0.0579 0.9124   -0.135133
 C 0.3221 0.4421 0.4124   -0.135133
 C 0.2498 0.616 0.8096   -0.038315
 C 0.2502 0.884 0.3096   -0.038315
 C 0.7498 0.884 0.1904   -0.038316
 C 0.7502 0.616 0.6904   -0.038316
 C 0.7502 0.384 0.1904   -0.038315
 C 0.7498 0.116 0.6904   -0.038315
 C 0.2502 0.116 0.8096   -0.038316
 C 0.2498 0.384 0.3096   -0.038316
 C 0.1845 0.6775 0.8435   -0.066734
 C 0.3155 0.8225 0.3435   -0.066734
 C 0.6845 0.8225 0.1565   -0.066734
 C 0.8155 0.6775 0.6565   -0.066734
 C 0.8155 0.3225 0.1565   -0.066734
 C 0.6845 0.1775 0.6565   -0.066734
 C 0.3155 0.1775 0.8435   -0.066734
 C 0.1845 0.3225 0.3435   -0.066734
 C 0.1728 0.6322 0.0585   0.140415
 C 0.3272 0.8678 0.5585   0.140415
 C 0.6728 0.8678 0.9415   0.140415
 C 0.8272 0.6322 0.4415   0.140415
 C 0.8272 0.3678 0.9415   0.140415
 C 0.6728 0.1322 0.4415   0.140415
 C 0.3272 0.1322 0.0585   0.140415
 C 0.1728 0.3678 0.5585   0.140415
 C 0.3501 0.6253 0.0556   0.119581
 C 0.1499 0.8747 0.5556   0.119581
 C 0.8501 0.8747 0.9444   0.119581
 C 0.6499 0.6253 0.4444   0.119581
 C 0.6499 0.3747 0.9444   0.119581
 C 0.8501 0.1253 0.4444   0.119581
 C 0.1499 0.1253 0.0556   0.119581
 C 0.3501 0.3747 0.5556   0.119581
 N 0.3206 0.6315 0.1171   -0.174665
 N 0.1794 0.8685 0.6171   -0.174665
 N 0.8206 0.8685 0.8829   -0.174665
 N 0.6794 0.6315 0.3829   -0.174665
 N 0.6794 0.3685 0.8829   -0.174665
 N 0.8206 0.1315 0.3829   -0.174665
 N 0.1794 0.1315 0.1171   -0.174665
 N 0.3206 0.3685 0.6171   -0.174665
 N 0.2593 0.6257 0.0155   -0.022217
 N 0.2407 0.8743 0.5155   -0.022217
 N 0.7593 0.8743 0.9845   -0.022217
 N 0.7407 0.6257 0.4845   -0.022217
 N 0.7407 0.3743 0.9845   -0.022217
 N 0.7593 0.1257 0.4845   -0.022217
 N 0.2407 0.1257 0.0155   -0.022217
 N 0.2593 0.3743 0.5155   -0.022217
 N 0.2048 0.6337 0.119   -0.276212
 N 0.2952 0.8663 0.619   -0.276212
 N 0.7048 0.8663 0.881   -0.276212
 N 0.7952 0.6337 0.381   -0.276212
 N 0.7952 0.3663 0.881   -0.276212
 N 0.7048 0.1337 0.381   -0.276212
 N 0.2952 0.1337 0.119   -0.276212
 N 0.2048 0.3663 0.619   -0.276212
 O 0.355 0.4638 0.7532   -0.517777
 O 0.145 0.0362 0.2532   -0.517777
 O 0.855 0.0362 0.2468   -0.517777
 O 0.645 0.4638 0.7468   -0.517777
 O 0.645 0.5362 0.2468   -0.517777
 O 0.855 0.9638 0.7468   -0.517777
 O 0.145 0.9638 0.7532   -0.517777
 O 0.355 0.5362 0.2532   -0.517777
 O 0.4722 0.4572 0.8381   -0.58213
 O 0.0278 0.0428 0.3381   -0.58213
 O 0.9722 0.0428 0.1619   -0.58213
 O 0.5278 0.4572 0.6619   -0.58213
 O 0.5278 0.5428 0.1619   -0.58213
 O 0.9722 0.9572 0.6619   -0.58213
 O 0.0278 0.9572 0.8381   -0.58213
 O 0.4722 0.5428 0.3381   -0.58213
 O 0.1464 0.7701 0.7531   -0.530403
 O 0.3536 0.7299 0.2531   -0.530403
 O 0.6464 0.7299 0.2469   -0.530403
 O 0.8536 0.7701 0.7469   -0.530403
 O 0.8536 0.2299 0.2469   -0.530403
 O 0.6464 0.2701 0.7469   -0.530403
 O 0.3536 0.2701 0.7531   -0.530403
 O 0.1464 0.2299 0.2531   -0.530403
 O 0.0283 0.7718 0.8368   -0.558675
 O 0.4717 0.7282 0.3368   -0.558675
 O 0.5283 0.7282 0.1632   -0.558675
 O 0.9717 0.7718 0.6632   -0.558675
 O 0.9717 0.2282 0.1632   -0.558675
 O 0.5283 0.2718 0.6632   -0.558675
 O 0.4717 0.2718 0.8368   -0.558675
 O 0.0283 0.2282 0.3368   -0.558675
