{'_ref': 'TBD', '_srcid': 'CAKYAQ_clean', 'submitters': [{'name': 'Dalar Nazarian Jeff Camp and David Sholl', 'email': 'dalar@gatech.edu jcamp6@gatech.edu'}], '_method': 'VASP DFT with PBE;DDEC'}
data_Zn3H52C64(N2O9)2
_symmetry_space_group_name_H-M   'P 1'
_cell_length_a   8.98100025
_cell_length_b   12.24709960
_cell_length_c   15.88880000
_cell_angle_alpha   76.82699863
_cell_angle_beta   75.95300128
_cell_angle_gamma   79.38400030
_symmetry_Int_Tables_number   1
_chemical_formula_structural   Zn3H52C64(N2O9)2
_chemical_formula_sum   'Zn3 H52 C64 N4 O18'
_cell_volume   1635.31177538
_cell_formula_units_Z   1
loop_
 _symmetry_equiv_pos_site_id
 _symmetry_equiv_pos_as_xyz
  1  'x, y, z'
loop_
 _atom_site_label
 _atom_site_fract_x
 _atom_site_fract_y
 _atom_site_fract_z
 _atom_site_charge
 Zn 0.34011 0.35332 0.44038   0.959973
 Zn 0.65989 0.64668 0.55962   0.959973
 Zn 0.0 0.5 0.5   1.111224
 H 0.7273 0.9758 0.144   0.057988
 H 0.6279 0.9586 0.0777   0.054579
 H 0.1002 0.1124 0.1717   0.128127
 H 0.7402 0.0791 0.9493   0.063873
 H 0.8675 0.0749 0.006   0.056467
 H 0.0291 0.4355 0.7012   0.090294
 H 0.2144 0.1896 0.2571   0.089743
 H 0.5711 0.6294 0.2667   0.098544
 H 0.6532 0.7987 0.1835   0.123462
 H 0.5008 0.2635 0.012   0.125924
 H 0.4651 0.1436 0.0038   0.106989
 H 0.4073 0.1859 0.096   0.115681
 H 0.6037 0.1957 0.1833   0.064039
 H 0.6811 0.2783 0.0962   0.072094
 H 0.7029 0.3237 0.2281   0.134453
 H 0.2516 0.9701 0.2952   0.128278
 H 0.1638 0.7997 0.3687   0.075616
 H 0.667 0.991 0.3853   0.147478
 H 0.9411 0.1969 0.4759   0.120128
 H 0.6766 0.258 0.4894   0.109489
 H 0.9651 0.0702 0.8577   0.108647
 H 0.1253 0.0977 0.7184   0.084573
 H 0.441 0.1338 0.3604   0.107146
 H 0.8138 0.398 0.3173   0.105421
 H 0.8262 0.891 0.4824   0.119482
 H 0.8667 0.409 0.8411   0.139039
 H 0.2727 0.0242 0.856   0.05799
 H 0.3721 0.0414 0.9223   0.054576
 H 0.8998 0.8876 0.8283   0.128129
 H 0.2598 0.9209 0.0507   0.063873
 H 0.1325 0.9251 0.994   0.056469
 H 0.9709 0.5645 0.2988   0.090295
 H 0.7856 0.8104 0.7429   0.089743
 H 0.4289 0.3706 0.7333   0.098541
 H 0.3468 0.2013 0.8165   0.123458
 H 0.4992 0.7365 0.988   0.125916
 H 0.5349 0.8564 0.9962   0.106985
 H 0.5927 0.8141 0.904   0.11568
 H 0.3963 0.8043 0.8167   0.064039
 H 0.3189 0.7217 0.9038   0.072091
 H 0.2971 0.6763 0.7719   0.134452
 H 0.7484 0.0299 0.7048   0.128279
 H 0.8362 0.2003 0.6313   0.075617
 H 0.333 0.009 0.6147   0.14748
 H 0.0589 0.8031 0.5241   0.120128
 H 0.3234 0.742 0.5106   0.109489
 H 0.0349 0.9298 0.1423   0.10865
 H 0.8747 0.9023 0.2816   0.084576
 H 0.559 0.8662 0.6396   0.107146
 H 0.1862 0.602 0.6827   0.105422
 H 0.1738 0.109 0.5176   0.119482
 H 0.1333 0.591 0.1589   0.139036
 C 0.6442 0.1281 0.07   0.045893
 C 0.6338 0.0064 0.119   0.056132
 C 0.9009 0.2379 0.8622   0.302927
 C 0.0421 0.1704 0.2017   -0.252429
 C 0.772 0.1189 0.9884   0.058579
 C 0.0153 0.361 0.7329   0.029926
 C 0.8893 0.2085 0.1945   0.304393
 C 0.0251 0.302 0.2965   -0.221544
 C 0.11 0.2162 0.2522   0.011642
 C 0.5047 0.6987 0.2713   0.036653
 C 0.5547 0.7992 0.2227   -0.275958
 C 0.4601 0.9003 0.2318   0.298118
 C 0.1929 0.2846 0.6055   0.684262
 C 0.4903 0.1855 0.043   -0.363128
 C 0.6822 0.1984 0.1274   0.058767
 C 0.3044 0.5897 0.3794   0.703663
 C 0.8057 0.2951 0.2354   -0.285176
 C 0.3156 0.9005 0.2878   -0.252206
 C 0.2652 0.7996 0.3327   0.021124
 C 0.3602 0.6974 0.3264   -0.218696
 C 0.6415 0.0622 0.4032   -0.123985
 C 0.9651 0.1168 0.4856   -0.131115
 C 0.8645 0.0528 0.4753   0.101867
 C 0.6455 0.2093 0.4602   0.152563
 C 0.0921 0.3447 0.3579   0.685383
 C 0.9778 0.1447 0.8257   -0.287473
 C 0.0719 0.1611 0.7435   0.031291
 C 0.0901 0.2702 0.6961   -0.200777
 C 0.518 0.1406 0.3899   0.037093
 C 0.8727 0.3401 0.2874   0.025058
 C 0.8973 0.9351 0.4896   -0.111464
 C 0.9195 0.3454 0.8161   -0.249481
 C 0.3558 0.8719 0.93   0.045892
 C 0.3662 0.9936 0.881   0.056132
 C 0.0991 0.7621 0.1378   0.302927
 C 0.9579 0.8296 0.7983   -0.252429
 C 0.228 0.8811 0.0116   0.058578
 C 0.9847 0.639 0.2671   0.029926
 C 0.1107 0.7915 0.8055   0.304394
 C 0.9749 0.698 0.7035   -0.221544
 C 0.89 0.7838 0.7478   0.011643
 C 0.4953 0.3013 0.7287   0.036653
 C 0.4453 0.2008 0.7773   -0.275956
 C 0.5399 0.0997 0.7682   0.298118
 C 0.8071 0.7154 0.3945   0.684262
 C 0.5097 0.8145 0.957   -0.363123
 C 0.3178 0.8016 0.8726   0.058768
 C 0.6956 0.4103 0.6206   0.703664
 C 0.1943 0.7049 0.7646   -0.285177
 C 0.6844 0.0995 0.7122   -0.252205
 C 0.7348 0.2004 0.6673   0.021124
 C 0.6398 0.3026 0.6736   -0.218696
 C 0.3585 0.9378 0.5968   -0.123985
 C 0.0349 0.8832 0.5144   -0.131107
 C 0.1355 0.9472 0.5247   0.101864
 C 0.3545 0.7907 0.5398   0.152562
 C 0.9079 0.6553 0.6421   0.685383
 C 0.0222 0.8553 0.1743   -0.287473
 C 0.9281 0.8389 0.2565   0.031291
 C 0.9099 0.7298 0.3039   -0.200777
 C 0.482 0.8594 0.6101   0.037093
 C 0.1273 0.6599 0.7126   0.025057
 C 0.1027 0.0649 0.5104   -0.111455
 C 0.0805 0.6546 0.1839   -0.249483
 N 0.7228 0.1057 0.4477   0.039706
 N 0.5218 0.2319 0.4259   -0.378526
 N 0.2772 0.8943 0.5523   0.039707
 N 0.4782 0.7681 0.5741   -0.378526
 O 0.4988 0.0049 0.1882   -0.267225
 O 0.8331 0.1536 0.1457   -0.27414
 O 0.2328 0.3083 0.3613   -0.6064
 O 0.4 0.4992 0.3778   -0.616336
 O 0.0041 0.4106 0.4042   -0.606078
 O 0.1827 0.377 0.551   -0.636288
 O 0.2843 0.2028 0.582   -0.593458
 O 0.8009 0.2299 0.9428   -0.27072
 O 0.1688 0.5955 0.4237   -0.605577
 O 0.5012 0.9951 0.8118   -0.267225
 O 0.1669 0.8464 0.8543   -0.274141
 O 0.7672 0.6917 0.6387   -0.6064
 O 0.6 0.5008 0.6222   -0.616336
 O 0.9959 0.5894 0.5958   -0.606078
 O 0.8173 0.623 0.449   -0.636288
 O 0.7157 0.7972 0.418   -0.593458
 O 0.1991 0.7701 0.0572   -0.27072
 O 0.8312 0.4045 0.5763   -0.605577
