{'_ref': 'TBD', '_srcid': 'CAKYAQ_clean', 'submitters': [{'name': 'Dalar Nazarian Jeff Camp and David Sholl', 'email': 'dalar@gatech.edu jcamp6@gatech.edu'}], '_method': 'VASP DFT with PBE;DDEC'}
data_ZnH10C12(NO)4
_symmetry_space_group_name_H-M   'P 1'
_cell_length_a   17.11930043
_cell_length_b   17.11929966
_cell_length_c   17.11930000
_cell_angle_alpha   98.28569977
_cell_angle_beta   115.33700034
_cell_angle_gamma   115.33700049
_symmetry_Int_Tables_number   1
_chemical_formula_structural   ZnH10C12(NO)4
_chemical_formula_sum   'Zn8 H80 C96 N32 O32'
_cell_volume   3755.10892141
_cell_formula_units_Z   8
loop_
 _symmetry_equiv_pos_site_id
 _symmetry_equiv_pos_as_xyz
  1  'x, y, z'
loop_
 _atom_site_label
 _atom_site_fract_x
 _atom_site_fract_y
 _atom_site_fract_z
 _atom_site_charge
 Zn 0.38449 0.78687 0.848   0.89835
 Zn 0.88449 0.03649 0.59762   0.898339
 Zn 0.11551 0.96351 0.40238   0.898339
 Zn 0.61551 0.21313 0.152   0.89835
 Zn 0.06113 0.848 0.96351   0.898331
 Zn 0.56113 0.59762 0.21313   0.898349
 Zn 0.43887 0.40238 0.78687   0.898349
 Zn 0.93887 0.152 0.03649   0.898331
 H 0.324 0.8861 0.9609   0.087021
 H 0.2224 0.8158 0.6928   0.11516
 H 0.0964 0.883 0.6448   0.093136
 H 0.1098 0.9817 0.7957   0.130922
 H 0.5319 0.9902 0.8755   0.085845
 H 0.4718 0.7586 0.7148   0.124041
 H 0.6149 0.8372 0.6685   0.110104
 H 0.7124 0.0297 0.7335   0.144291
 H 0.2115 0.9366 0.8947   0.28783
 H 0.6416 0.0324 0.82   0.301097
 H 0.824 0.8631 0.4379   0.087003
 H 0.7224 0.0296 0.4066   0.115182
 H 0.5964 0.9516 0.2134   0.093117
 H 0.6098 0.8141 0.1281   0.130926
 H 0.0319 0.1564 0.5417   0.085868
 H 0.9718 0.257 0.7132   0.124038
 H 0.1149 0.4464 0.7777   0.110106
 H 0.2124 0.4789 0.6827   0.144294
 H 0.7115 0.8168 0.2749   0.287832
 H 0.1416 0.3216 0.6092   0.301041
 H 0.176 0.1369 0.5621   0.087003
 H 0.2776 0.9704 0.5934   0.115181
 H 0.4036 0.0484 0.7866   0.093117
 H 0.3902 0.1859 0.8719   0.130926
 H 0.9681 0.8436 0.4583   0.085868
 H 0.0282 0.743 0.2868   0.124038
 H 0.8851 0.5536 0.2223   0.110106
 H 0.7876 0.5211 0.3173   0.144294
 H 0.2885 0.1832 0.7251   0.287832
 H 0.8584 0.6784 0.3908   0.301041
 H 0.676 0.1139 0.0391   0.08702
 H 0.7776 0.1842 0.3072   0.115159
 H 0.9036 0.117 0.3552   0.093136
 H 0.8902 0.0183 0.2043   0.130922
 H 0.4681 0.0098 0.1245   0.085845
 H 0.5282 0.2414 0.2852   0.124042
 H 0.3851 0.1628 0.3315   0.110104
 H 0.2876 0.9703 0.2665   0.144292
 H 0.7885 0.0634 0.1053   0.28783
 H 0.3584 0.9676 0.18   0.301097
 H 0.0748 0.9609 0.1369   0.08701
 H 0.877 0.6928 0.9704   0.115174
 H 0.7618 0.6448 0.0484   0.093131
 H 0.814 0.7957 0.1859   0.130943
 H 0.8853 0.8755 0.8436   0.085851
 H 0.9562 0.7148 0.743   0.124038
 H 0.8313 0.6685 0.5536   0.110111
 H 0.7038 0.7335 0.5211   0.14429
 H 0.9581 0.8947 0.1832   0.287841
 H 0.7876 0.82 0.6784   0.301035
 H 0.5748 0.4379 0.1139   0.087001
 H 0.377 0.4066 0.1842   0.115156
 H 0.2618 0.2134 0.117   0.093123
 H 0.314 0.1281 0.0183   0.130928
 H 0.3853 0.5417 0.0098   0.085845
 H 0.4562 0.7132 0.2414   0.124047
 H 0.3313 0.7777 0.1628   0.110116
 H 0.2038 0.6827 0.9703   0.144289
 H 0.4581 0.2749 0.0634   0.287864
 H 0.2876 0.6092 0.9676   0.301044
 H 0.4252 0.5621 0.8861   0.087
 H 0.623 0.5934 0.8158   0.115156
 H 0.7382 0.7866 0.883   0.093123
 H 0.686 0.8719 0.9817   0.130928
 H 0.6147 0.4583 0.9902   0.085845
 H 0.5438 0.2868 0.7586   0.124047
 H 0.6687 0.2223 0.8372   0.110116
 H 0.7962 0.3173 0.0297   0.144289
 H 0.5419 0.7251 0.9366   0.287864
 H 0.7124 0.3908 0.0324   0.301044
 H 0.9252 0.0391 0.8631   0.08701
 H 0.123 0.3072 0.0296   0.115174
 H 0.2382 0.3552 0.9516   0.093131
 H 0.186 0.2043 0.8141   0.130943
 H 0.1147 0.1245 0.1564   0.08585
 H 0.0438 0.2852 0.257   0.124038
 H 0.1687 0.3315 0.4464   0.110111
 H 0.2962 0.2665 0.4789   0.14429
 H 0.0419 0.1053 0.8168   0.287841
 H 0.2124 0.18 0.3216   0.301035
 C 0.2897 0.87873 0.89843   0.271923
 C 0.2337 0.84052 0.75142   0.007857
 C 0.1893 0.88444 0.76894   0.056487
 C 0.1202 0.90632 0.70832   -0.03492
 C 0.0867 0.95577 0.73267   -0.297742
 C 0.0133 0.97068 0.66198   0.685788
 C 0.5337 0.94862 0.83592   0.230099
 C 0.501 0.82206 0.74766   -0.005737
 C 0.5769 0.89505 0.74835   0.070975
 C 0.6296 0.89507 0.70127   -0.054815
 C 0.6973 0.97144 0.70114   -0.273085
 C 0.75 0.96853 0.65193   0.689755
 C 0.7897 0.89127 0.41097   0.271941
 C 0.7337 0.98228 0.39318   0.007837
 C 0.6893 0.92036 0.30486   0.056448
 C 0.6202 0.91188 0.21388   -0.034869
 C 0.5867 0.85403 0.13093   -0.297749
 C 0.5133 0.85132 0.04262   0.685771
 C 0.0337 0.19778 0.58508   0.230061
 C 0.000999999999998 0.25334 0.67894   -0.005741
 C 0.0769 0.32855 0.68185   0.070971
 C 0.1296 0.42833 0.73453   -0.05482
 C 0.1973 0.49616 0.72586   -0.273089
 C 0.25 0.59807 0.78147   0.689746
 C 0.2103 0.10873 0.58903   0.271941
 C 0.2663 0.01772 0.60682   0.007837
 C 0.3107 0.07964 0.69514   0.056448
 C 0.3798 0.08812 0.78612   -0.034869
 C 0.4133 0.14597 0.86907   -0.297749
 C 0.4867 0.14868 0.95738   0.685771
 C 0.9663 0.80222 0.41492   0.230061
 C 0.999 0.74666 0.32106   -0.005741
 C 0.9231 0.67145 0.31815   0.070971
 C 0.8704 0.57167 0.26547   -0.05482
 C 0.8027 0.50384 0.27414   -0.273089
 C 0.75 0.40193 0.21853   0.689746
 C 0.7103 0.12127 0.10157   0.271923
 C 0.7663 0.15948 0.24858   0.007858
 C 0.8107 0.11556 0.23106   0.056487
 C 0.8798 0.09368 0.29168   -0.03492
 C 0.9133 0.04423 0.26733   -0.297742
 C 0.9867 0.02932 0.33802   0.685788
 C 0.4663 0.05138 0.16408   0.2301
 C 0.499 0.17794 0.25234   -0.005737
 C 0.4231 0.10495 0.25165   0.070975
 C 0.3704 0.10493 0.29873   -0.054815
 C 0.3027 0.02856 0.29886   -0.273086
 C 0.25 0.03147 0.34807   0.689755
 C 0.0197 0.89843 0.10873   0.271949
 C 0.9109 0.75142 0.01772   0.007845
 C 0.8845 0.76894 0.07964   0.056458
 C 0.802 0.70832 0.08812   -0.034872
 C 0.7769 0.73267 0.14597   -0.297773
 C 0.6913 0.66198 0.14868   0.685774
 C 0.8873 0.83592 0.80222   0.230062
 C 0.9256 0.74766 0.74666   -0.005742
 C 0.8533 0.74835 0.67145   0.070981
 C 0.8062 0.70127 0.57167   -0.054833
 C 0.7297 0.70114 0.50384   -0.273096
 C 0.6834 0.65193 0.40193   0.68974
 C 0.5197 0.41097 0.12127   0.271956
 C 0.4109 0.39318 0.15948   0.007844
 C 0.3845 0.30486 0.11556   0.056475
 C 0.302 0.21388 0.09368   -0.034874
 C 0.2769 0.13093 0.04423   -0.29774
 C 0.1913 0.04262 0.02932   0.685761
 C 0.3873 0.58508 0.05138   0.230122
 C 0.4256 0.67894 0.17794   -0.005763
 C 0.3533 0.68185 0.10495   0.07099
 C 0.3062 0.73453 0.10493   -0.054826
 C 0.2297 0.72586 0.02856   -0.273086
 C 0.1834 0.78147 0.03147   0.689742
 C 0.4803 0.58903 0.87873   0.271956
 C 0.5891 0.60682 0.84052   0.007844
 C 0.6155 0.69514 0.88444   0.056475
 C 0.698 0.78612 0.90632   -0.034874
 C 0.7231 0.86907 0.95577   -0.29774
 C 0.8087 0.95738 0.97068   0.685761
 C 0.6127 0.41492 0.94862   0.230123
 C 0.5744 0.32106 0.82206   -0.005763
 C 0.6467 0.31815 0.89505   0.07099
 C 0.6938 0.26547 0.89507   -0.054826
 C 0.7703 0.27414 0.97144   -0.273086
 C 0.8166 0.21853 0.96853   0.689742
 C 0.9803 0.10157 0.89127   0.271949
 C 0.0891 0.24858 0.98228   0.007845
 C 0.1155 0.23106 0.92036   0.056458
 C 0.198 0.29168 0.91188   -0.034872
 C 0.2231 0.26733 0.85403   -0.297772
 C 0.3087 0.33802 0.85132   0.685774
 C 0.1127 0.16408 0.19778   0.230062
 C 0.0744 0.25234 0.25334   -0.005742
 C 0.1467 0.25165 0.32855   0.070981
 C 0.1938 0.29873 0.42833   -0.054833
 C 0.2703 0.29886 0.49616   -0.273096
 C 0.3166 0.34807 0.59807   0.68974
 N 0.2975 0.838 0.83262   -0.395948
 N 0.22653 0.90794 0.86355   -0.219429
 N 0.47388 0.85603 0.80295   -0.403254
 N 0.59645 0.9752 0.80595   -0.218254
 N 0.7975 0.96488 0.4595   -0.395936
 N 0.72653 0.86298 0.31859   -0.219429
 N 0.97388 0.17093 0.61785   -0.403226
 N 0.09645 0.2905 0.62125   -0.218196
 N 0.2025 0.03512 0.5405   -0.395937
 N 0.27347 0.13702 0.68141   -0.219429
 N 0.02612 0.82907 0.38215   -0.403226
 N 0.90355 0.7095 0.37875   -0.218196
 N 0.7025 0.162 0.16738   -0.395948
 N 0.77347 0.09206 0.13645   -0.219429
 N 0.52612 0.14397 0.19705   -0.403254
 N 0.40355 0.0248 0.19405   -0.218254
 N 0.99462 0.83262 0.03512   -0.395949
 N 0.95561 0.86355 0.13702   -0.219446
 N 0.94692 0.80295 0.82907   -0.403217
 N 0.83075 0.80595 0.7095   -0.218171
 N 0.49462 0.4595 0.162   -0.395946
 N 0.45561 0.31859 0.09206   -0.219479
 N 0.44692 0.61785 0.14397   -0.403275
 N 0.33075 0.62125 0.0248   -0.218191
 N 0.50538 0.5405 0.838   -0.395946
 N 0.54439 0.68141 0.90794   -0.219479
 N 0.55308 0.38215 0.85603   -0.403275
 N 0.66925 0.37875 0.9752   -0.218191
 N 0.00538 0.16738 0.96488   -0.395949
 N 0.04439 0.13645 0.86298   -0.219446
 N 0.05308 0.19705 0.17093   -0.403217
 N 0.16925 0.19405 0.2905   -0.218171
 O 0.98491 0.01971 0.69348   -0.64161
 O 0.98248 0.94072 0.5788   -0.588707
 O 0.80798 0.04748 0.65386   -0.621362
 O 0.73724 0.89336 0.61238   -0.635823
 O 0.48491 0.79143 0.9652   -0.641595
 O 0.48248 0.90368 0.04176   -0.588697
 O 0.30798 0.65412 0.7605   -0.62135
 O 0.23724 0.62486 0.84388   -0.635826
 O 0.51509 0.20857 0.0348   -0.641595
 O 0.51752 0.09632 0.95824   -0.588697
 O 0.69202 0.34588 0.2395   -0.62135
 O 0.76276 0.37514 0.15612   -0.635826
 O 0.01509 0.98029 0.30652   -0.64161
 O 0.01752 0.05928 0.4212   -0.588707
 O 0.19202 0.95252 0.34614   -0.621362
 O 0.26276 0.10664 0.38762   -0.635823
 O 0.67377 0.69348 0.20857   -0.641604
 O 0.63808 0.5788 0.09632   -0.588704
 O 0.60638 0.65386 0.34588   -0.621335
 O 0.71902 0.61238 0.37514   -0.635821
 O 0.17377 0.9652 0.98029   -0.641605
 O 0.13808 0.04176 0.05928   -0.588693
 O 0.10638 0.7605 0.95252   -0.621344
 O 0.21902 0.84388 0.10664   -0.635822
 O 0.82623 0.0348 0.01971   -0.641605
 O 0.86192 0.95824 0.94072   -0.588694
 O 0.89362 0.2395 0.04748   -0.621344
 O 0.78098 0.15612 0.89336   -0.635822
 O 0.32623 0.30652 0.79143   -0.641604
 O 0.36192 0.4212 0.90368   -0.588704
 O 0.39362 0.34614 0.65412   -0.621335
 O 0.28098 0.38762 0.62486   -0.635821
