{'_ref': 'TBD', '_srcid': 'CAKYAQ_clean', 'submitters': [{'name': 'Dalar Nazarian Jeff Camp and David Sholl', 'email': 'dalar@gatech.edu jcamp6@gatech.edu'}], '_method': 'VASP DFT with PBE;DDEC'}
data_CuH8C13NO4
_symmetry_space_group_name_H-M   'P 1'
_cell_length_a   10.81109966
_cell_length_b   10.84750045
_cell_length_c   14.02100000
_cell_angle_alpha   87.53099883
_cell_angle_beta   89.03899947
_cell_angle_gamma   85.99699973
_symmetry_Int_Tables_number   1
_chemical_formula_structural   CuH8C13NO4
_chemical_formula_sum   'Cu4 H32 C52 N4 O16'
_cell_volume   1638.60003039
_cell_formula_units_Z   4
loop_
 _symmetry_equiv_pos_site_id
 _symmetry_equiv_pos_as_xyz
  1  'x, y, z'
loop_
 _atom_site_label
 _atom_site_fract_x
 _atom_site_fract_y
 _atom_site_fract_z
 _atom_site_charge
 Cu 0.77571 0.65211 0.38626   0.834026
 Cu 0.77908 0.66322 0.19738   0.841811
 Cu 0.22429 0.34789 0.61374   0.834026
 Cu 0.22092 0.33678 0.80262   0.841811
 H 0.7693 0.2548 0.4344   0.099354
 H 0.7645 0.043 0.4329   0.113919
 H 0.7845 0.0587 0.1473   0.111179
 H 0.7887 0.2718 0.1479   0.107228
 H 0.3817 0.6398 0.4357   0.107589
 H 0.1681 0.6334 0.4354   0.104304
 H 0.1733 0.6753 0.1477   0.105581
 H 0.3861 0.681 0.1487   0.107084
 H 0.5954 0.6626 0.5589   0.082922
 H 0.5909 0.6699 0.7222   0.127072
 H 0.9627 0.6605 0.7148   0.116232
 H 0.9559 0.6554 0.553   0.081676
 H 0.9472 0.5889 0.0278   0.069375
 H 0.9516 0.5845 0.8645   0.131524
 H 0.6125 0.7599 0.8642   0.130128
 H 0.6171 0.7547 0.0274   0.083099
 H 0.2307 0.7452 0.5656   0.099353
 H 0.2355 0.957 0.5671   0.113919
 H 0.2155 0.9413 0.8527   0.111179
 H 0.2113 0.7282 0.8521   0.107227
 H 0.6183 0.3602 0.5643   0.107588
 H 0.8319 0.3666 0.5646   0.104304
 H 0.8267 0.3247 0.8523   0.10558
 H 0.6139 0.319 0.8513   0.107083
 H 0.4046 0.3374 0.4411   0.082922
 H 0.4091 0.3301 0.2778   0.127072
 H 0.0373 0.3395 0.2852   0.116231
 H 0.0441 0.3446 0.447   0.081676
 H 0.0528 0.4111 0.9722   0.069376
 H 0.0484 0.4155 0.1355   0.131524
 H 0.3875 0.2401 0.1358   0.130128
 H 0.3829 0.2453 0.9726   0.083099
 C 0.7801 0.4242 0.2926   0.647814
 C 0.5434 0.6633 0.29249   0.65349
 C 0.7721 0.8911 0.2896   0.660193
 C 0.0111 0.6517 0.29101   0.645688
 C 0.7764 0.2859 0.2916   -0.116702
 C 0.7712 0.2157 0.3758   -0.060008
 C 0.7688 0.0893 0.3749   -0.060802
 C 0.7724 0.0298 0.2901   -0.096998
 C 0.7805 0.0986 0.2056   -0.070779
 C 0.7828 0.2257 0.2059   -0.074806
 C 0.4055 0.6614 0.29206   -0.110159
 C 0.3393 0.6471 0.3775   -0.064222
 C 0.2122 0.6435 0.3776   -0.054532
 C 0.1489 0.6551 0.29089   -0.114618
 C 0.2153 0.6685 0.206   -0.062761
 C 0.3421 0.6717 0.2066   -0.065165
 C 0.6709 0.6622 0.5912   0.174414
 C 0.6674 0.6663 0.6892   -0.201596
 C 0.7769 0.6652 0.73913   0.093352
 C 0.8856 0.661 0.6847   -0.192169
 C 0.8809 0.6578 0.5879   0.18026
 C 0.877 0.6214 0.994   0.167503
 C 0.8808 0.6185 0.8962   -0.206903
 C 0.7777 0.667 0.8445   0.104551
 C 0.6814 0.721 0.896   -0.206364
 C 0.6854 0.7184 0.9939   0.172792
 C 0.2199 0.5758 0.7074   0.647814
 C 0.4566 0.3367 0.70751   0.65349
 C 0.2279 0.1089 0.7104   0.660193
 C 0.9889 0.3483 0.70899   0.645688
 C 0.2236 0.7141 0.7084   -0.116702
 C 0.2288 0.7843 0.6242   -0.060008
 C 0.2312 0.9107 0.6251   -0.060802
 C 0.2276 0.9702 0.7099   -0.096998
 C 0.2195 0.9014 0.7944   -0.070779
 C 0.2172 0.7743 0.7941   -0.074805
 C 0.5945 0.3386 0.70794   -0.110159
 C 0.6607 0.3529 0.6225   -0.064222
 C 0.7878 0.3565 0.6224   -0.054532
 C 0.8511 0.3449 0.70911   -0.114618
 C 0.7847 0.3315 0.794   -0.062761
 C 0.6579 0.3283 0.7934   -0.065165
 C 0.3291 0.3378 0.4088   0.174414
 C 0.3326 0.3337 0.3108   -0.201595
 C 0.2231 0.3348 0.26087   0.093352
 C 0.1144 0.339 0.3153   -0.192169
 C 0.1191 0.3422 0.4121   0.18026
 C 0.123 0.3786 0.006   0.167503
 C 0.1192 0.3815 0.1038   -0.206903
 C 0.2223 0.333 0.1555   0.104551
 C 0.3186 0.279 0.104   -0.206364
 C 0.3146 0.2816 0.0061   0.172792
 N 0.7756 0.6578 0.54001   -0.334906
 N 0.78 0.6674 0.0438   -0.322639
 N 0.2244 0.3422 0.45999   -0.334906
 N 0.22 0.3326 0.9562   -0.322639
 O 0.7822 0.47137 0.37188   -0.545117
 O 0.7805 0.48162 0.21319   -0.567209
 O 0.59585 0.6559 0.3724   -0.550687
 O 0.59867 0.6711 0.21306   -0.558712
 O 0.7681 0.83414 0.36859   -0.553924
 O 0.7753 0.8431 0.21015   -0.559737
 O 0.95592 0.6488 0.37061   -0.545636
 O 0.95955 0.653 0.21133   -0.557007
 O 0.2178 0.52863 0.62812   -0.545117
 O 0.2195 0.51838 0.78681   -0.567209
 O 0.40415 0.3441 0.6276   -0.550687
 O 0.40133 0.3289 0.78694   -0.558712
 O 0.2319 0.16586 0.63141   -0.553924
 O 0.2247 0.1569 0.78985   -0.559737
 O 0.04408 0.3512 0.62939   -0.545636
 O 0.04045 0.347 0.78867   -0.557007
