{'_ref': 'TBD', '_srcid': 'CAKYAQ_clean', 'submitters': [{'name': 'Dalar Nazarian Jeff Camp and David Sholl', 'email': 'dalar@gatech.edu jcamp6@gatech.edu'}], '_method': 'VASP DFT with PBE;DDEC'}
data_CuH8C13NO4
_symmetry_space_group_name_H-M   'P 1'
_cell_length_a   10.80440051
_cell_length_b   14.05300047
_cell_length_c   21.67800000
_cell_angle_alpha   89.87800022
_cell_angle_beta   83.36299832
_cell_angle_gamma   88.98100194
_symmetry_Int_Tables_number   1
_chemical_formula_structural   CuH8C13NO4
_chemical_formula_sum   'Cu8 H64 C104 N8 O32'
_cell_volume   3268.88742702
_cell_formula_units_Z   8
loop_
 _symmetry_equiv_pos_site_id
 _symmetry_equiv_pos_as_xyz
  1  'x, y, z'
loop_
 _atom_site_label
 _atom_site_fract_x
 _atom_site_fract_y
 _atom_site_fract_z
 _atom_site_charge
 Cu 0.71846 0.29889 0.67165   0.811683
 Cu 0.72322 0.10993 0.67164   0.830468
 Cu 0.73297 0.29646 0.17047   0.826783
 Cu 0.73731 0.10729 0.17126   0.836231
 Cu 0.28154 0.70111 0.32835   0.811683
 Cu 0.27678 0.89007 0.32836   0.830468
 Cu 0.26703 0.70354 0.82953   0.826783
 Cu 0.26269 0.89271 0.82874   0.836232
 H 0.7723 0.3439 0.8638   0.104492
 H 0.7864 0.343 0.9699   0.105957
 H 0.6807 0.0718 0.9793   0.115653
 H 0.6687 0.0715 0.8741   0.099301
 H 0.3269 0.0595 0.6865   0.105746
 H 0.1132 0.0601 0.6855   0.106687
 H 0.1145 0.3438 0.6559   0.109196
 H 0.328 0.3439 0.6586   0.103993
 H 0.7978 0.0764 0.4715   0.113624
 H 0.7887 0.0731 0.3662   0.096337
 H 0.6849 0.3476 0.3697   0.105332
 H 0.6845 0.3477 0.477   0.106267
 H 0.3411 0.0563 0.1889   0.101777
 H 0.1296 0.0548 0.1829   0.110101
 H 0.129 0.3376 0.1514   0.104933
 H 0.3412 0.3395 0.1557   0.108295
 H 0.9058 0.9371 0.6628   0.080508
 H 0.9118 0.7736 0.6628   0.12972
 H 0.5379 0.779 0.6693   0.121133
 H 0.5442 0.942 0.6715   0.082591
 H 0.893 0.4594 0.1194   0.079582
 H 0.9025 0.6224 0.1161   0.128757
 H 0.5695 0.6325 0.2214   0.135852
 H 0.5743 0.4686 0.2224   0.07732
 H 0.5575 0.9397 0.1748   0.079265
 H 0.5514 0.7766 0.174   0.122759
 H 0.9257 0.7707 0.1589   0.121866
 H 0.9196 0.9345 0.161   0.083537
 H 0.5748 0.4686 0.6247   0.082601
 H 0.5742 0.6314 0.619   0.124518
 H 0.869 0.6282 0.7176   0.129736
 H 0.8569 0.4652 0.7209   0.083437
 H 0.2277 0.6561 0.1362   0.1045
 H 0.2136 0.657 0.0301   0.105961
 H 0.3193 0.9282 0.0207   0.115656
 H 0.3313 0.9285 0.1259   0.099302
 H 0.6731 0.9405 0.3135   0.105746
 H 0.8868 0.9399 0.3145   0.106688
 H 0.8855 0.6562 0.3441   0.109198
 H 0.672 0.6561 0.3414   0.103996
 H 0.2022 0.9236 0.5285   0.113625
 H 0.2113 0.9269 0.6338   0.096338
 H 0.3151 0.6524 0.6303   0.105339
 H 0.3155 0.6523 0.523   0.106271
 H 0.6589 0.9437 0.8111   0.101777
 H 0.8704 0.9452 0.8171   0.110102
 H 0.871 0.6624 0.8486   0.104938
 H 0.6588 0.6605 0.8443   0.108297
 H 0.0942 0.0629 0.3372   0.080509
 H 0.0882 0.2264 0.3372   0.129719
 H 0.4621 0.221 0.3307   0.121133
 H 0.4558 0.058 0.3285   0.082591
 H 0.107 0.5406 0.8806   0.079584
 H 0.0975 0.3776 0.8839   0.128762
 H 0.4305 0.3675 0.7786   0.135852
 H 0.4257 0.5314 0.7776   0.07732
 H 0.4425 0.0603 0.8252   0.079266
 H 0.4486 0.2234 0.826   0.122759
 H 0.0743 0.2293 0.8411   0.121866
 H 0.0804 0.0655 0.839   0.083537
 H 0.4252 0.5314 0.3753   0.082604
 H 0.4258 0.3686 0.381   0.124521
 H 0.131 0.3718 0.2824   0.129738
 H 0.1431 0.5348 0.2791   0.083439
 C 0.7128 0.2065 0.78883   0.638666
 C 0.4869 0.2016 0.67432   0.640734
 C 0.7342 0.2104 0.55425   0.649795
 C 0.9543 0.2019 0.66857   0.646668
 C 0.7293 0.2058 0.28786   0.641121
 C 0.5005 0.2004 0.17544   0.641388
 C 0.7407 0.2071 0.05361   0.654031
 C 0.9694 0.196 0.16573   0.646969
 C 0.7197 0.2072 0.85755   -0.104346
 C 0.7542 0.2882 0.88696   -0.077463
 C 0.762 0.2876 0.95062   -0.070505
 C 0.7351 0.2086 0.98548   -0.088403
 C 0.6998 0.1272 0.95601   -0.065321
 C 0.6926 0.1272 0.89322   -0.063488
 C 0.349 0.2012 0.67234   -0.110203
 C 0.284 0.1169 0.68043   -0.054555
 C 0.157 0.1172 0.67952   -0.065747
 C 0.0926 0.2021 0.66981   -0.109023
 C 0.1575 0.2865 0.66209   -0.063305
 C 0.2845 0.2865 0.66354   -0.069909
 C 0.7361 0.2113 0.48521   -0.087353
 C 0.771 0.131 0.45138   -0.058522
 C 0.7671 0.1296 0.38827   -0.062745
 C 0.7326 0.2087 0.35674   -0.104946
 C 0.7046 0.2913 0.39024   -0.08049
 C 0.7054 0.2914 0.45447   -0.072188
 C 0.3634 0.1985 0.17292   -0.11627
 C 0.2984 0.1131 0.18111   -0.051826
 C 0.1726 0.1123 0.1778   -0.065235
 C 0.1079 0.1963 0.16695   -0.10484
 C 0.1721 0.2808 0.15884   -0.07173
 C 0.2984 0.2819 0.16157   -0.061725
 C 0.8303 0.9044 0.66466   0.170494
 C 0.8348 0.8062 0.66435   -0.204079
 C 0.7247 0.7558 0.66636   0.095188
 C 0.6149 0.8093 0.66847   -0.198158
 C 0.6197 0.9072 0.6694   0.186769
 C 0.8273 0.4952 0.14079   0.172402
 C 0.8335 0.5929 0.13818   -0.216022
 C 0.7369 0.6476 0.16844   0.103063
 C 0.6376 0.5989 0.20038   -0.201408
 C 0.6412 0.5008 0.20057   0.16867
 C 0.6331 0.9049 0.17162   0.182393
 C 0.6287 0.8068 0.1713   -0.196816
 C 0.7371 0.7532 0.16701   0.094181
 C 0.8486 0.8036 0.1625   -0.199675
 C 0.8441 0.9017 0.16346   0.173628
 C 0.6351 0.5019 0.6435   0.167504
 C 0.634 0.5993 0.6399   -0.202944
 C 0.7233 0.6508 0.66775   0.10863
 C 0.8073 0.5976 0.6981   -0.211347
 C 0.8 0.4998 0.6995   0.173996
 C 0.2872 0.7935 0.21117   0.638666
 C 0.5131 0.7984 0.32568   0.640734
 C 0.2658 0.7896 0.44575   0.649795
 C 0.0457 0.7981 0.33143   0.646667
 C 0.2707 0.7942 0.71214   0.641121
 C 0.4995 0.7996 0.82456   0.641388
 C 0.2593 0.7929 0.94639   0.654031
 C 0.0306 0.804 0.83427   0.646969
 C 0.2803 0.7928 0.14245   -0.104345
 C 0.2458 0.7118 0.11304   -0.077464
 C 0.238 0.7124 0.04938   -0.070505
 C 0.2649 0.7914 0.01452   -0.088402
 C 0.3002 0.8728 0.04399   -0.06532
 C 0.3074 0.8728 0.10678   -0.063487
 C 0.651 0.7988 0.32766   -0.110202
 C 0.716 0.8831 0.31957   -0.054554
 C 0.843 0.8828 0.32048   -0.065747
 C 0.9074 0.7979 0.33019   -0.109021
 C 0.8425 0.7135 0.33791   -0.063303
 C 0.7155 0.7135 0.33646   -0.069908
 C 0.2639 0.7887 0.51479   -0.087352
 C 0.229 0.869 0.54862   -0.058519
 C 0.2329 0.8704 0.61173   -0.062745
 C 0.2674 0.7913 0.64326   -0.104945
 C 0.2954 0.7087 0.60976   -0.080491
 C 0.2946 0.7086 0.54553   -0.072188
 C 0.6366 0.8015 0.82708   -0.11627
 C 0.7016 0.8869 0.81889   -0.051826
 C 0.8274 0.8877 0.8222   -0.065234
 C 0.8921 0.8037 0.83305   -0.104838
 C 0.8279 0.7192 0.84116   -0.071731
 C 0.7016 0.7181 0.83843   -0.061723
 C 0.1697 0.0956 0.33534   0.170495
 C 0.1652 0.1938 0.33565   -0.204076
 C 0.2753 0.2442 0.33364   0.095188
 C 0.3851 0.1907 0.33153   -0.198156
 C 0.3803 0.0928 0.3306   0.18677
 C 0.1727 0.5048 0.85921   0.172402
 C 0.1665 0.4071 0.86182   -0.216023
 C 0.2631 0.3524 0.83156   0.103064
 C 0.3624 0.4011 0.79962   -0.201406
 C 0.3588 0.4992 0.79943   0.16867
 C 0.3669 0.0951 0.82838   0.182394
 C 0.3713 0.1932 0.8287   -0.196813
 C 0.2629 0.2468 0.83299   0.094181
 C 0.1514 0.1964 0.8375   -0.199672
 C 0.1559 0.0983 0.83654   0.173629
 C 0.3649 0.4981 0.3565   0.167504
 C 0.366 0.4007 0.3601   -0.202944
 C 0.2767 0.3492 0.33225   0.10863
 C 0.1927 0.4024 0.3019   -0.211345
 C 0.2 0.5002 0.3005   0.173995
 N 0.7246 0.95524 0.66749   -0.333585
 N 0.7351 0.44931 0.17132   -0.322317
 N 0.7383 0.95232 0.16771   -0.336306
 N 0.717 0.45228 0.67214   -0.325045
 N 0.2754 0.04476 0.33251   -0.333586
 N 0.2649 0.55069 0.82868   -0.322317
 N 0.2617 0.04768 0.83229   -0.336306
 N 0.283 0.54772 0.32786   -0.325044
 O 0.7203 0.28564 0.76179   -0.554723
 O 0.70021 0.12729 0.7638   -0.545419
 O 0.53635 0.28073 0.68051   -0.556076
 O 0.54342 0.12198 0.67016   -0.538697
 O 0.71886 0.28962 0.58157   -0.547845
 O 0.7469 0.13116 0.58017   -0.553995
 O 0.90066 0.2811 0.66225   -0.549014
 O 0.90141 0.12246 0.67383   -0.545659
 O 0.71561 0.28464 0.26114   -0.558609
 O 0.7397 0.12626 0.26207   -0.543242
 O 0.5524 0.27963 0.17153   -0.543334
 O 0.55595 0.12097 0.18122   -0.549598
 O 0.7497 0.2866 0.07971   -0.5525
 O 0.735 0.1278 0.08057   -0.555703
 O 0.91385 0.2758 0.16937   -0.559183
 O 0.91793 0.11654 0.1621   -0.540941
 O 0.2797 0.71436 0.23821   -0.554723
 O 0.29979 0.87271 0.2362   -0.545419
 O 0.46365 0.71927 0.31949   -0.556076
 O 0.45658 0.87802 0.32984   -0.538697
 O 0.28114 0.71038 0.41843   -0.547845
 O 0.2531 0.86884 0.41983   -0.553995
 O 0.09934 0.7189 0.33775   -0.549014
 O 0.09859 0.87754 0.32617   -0.545659
 O 0.28439 0.71536 0.73886   -0.55861
 O 0.2603 0.87374 0.73793   -0.543242
 O 0.4476 0.72037 0.82847   -0.543334
 O 0.44405 0.87903 0.81878   -0.549598
 O 0.2503 0.7134 0.92029   -0.5525
 O 0.265 0.8722 0.91943   -0.555703
 O 0.08615 0.7242 0.83063   -0.559183
 O 0.08207 0.88346 0.8379   -0.540941
