{'_ref': 'TBD', '_srcid': 'CAKYAQ_clean', 'submitters': [{'name': 'Dalar Nazarian Jeff Camp and David Sholl', 'email': 'dalar@gatech.edu jcamp6@gatech.edu'}], '_method': 'VASP DFT with PBE;DDEC'}
data_CdH9C14(NO)2
_symmetry_space_group_name_H-M   'P 1'
_cell_length_a   7.77600000
_cell_length_b   16.05299990
_cell_length_c   36.00900000
_cell_angle_alpha   90.00000000
_cell_angle_beta   90.00000000
_cell_angle_gamma   95.23399864
_symmetry_Int_Tables_number   1
_chemical_formula_structural   CdH9C14(NO)2
_chemical_formula_sum   'Cd8 H72 C112 N16 O16'
_cell_volume   4476.19414062
_cell_formula_units_Z   8
loop_
 _symmetry_equiv_pos_site_id
 _symmetry_equiv_pos_as_xyz
  1  'x, y, z'
loop_
 _atom_site_label
 _atom_site_fract_x
 _atom_site_fract_y
 _atom_site_fract_z
 _atom_site_charge
 Cd 0.85959 0.62404 0.86789   0.378832
 Cd 0.36166 0.61115 0.86967   0.240222
 Cd 0.14041 0.87596 0.36789   0.378832
 Cd 0.63834 0.88885 0.36967   0.240222
 Cd 0.14041 0.37596 0.13211   0.378832
 Cd 0.63834 0.38885 0.13033   0.240222
 Cd 0.85959 0.12404 0.63211   0.378832
 Cd 0.36166 0.11115 0.63033   0.240222
 H 0.8941 0.4124 0.0637   0.069419
 H 0.3711 0.2477 0.0729   0.123721
 H 0.4571 0.1728 0.0219   0.106044
 H 0.3146 0.177 0.9655   0.106681
 H 0.0797 0.2561 0.9585   0.12328
 H 0.03 0.4094 0.9508   0.130165
 H 0.8538 0.4676 0.9088   0.054952
 H 0.6282 0.3657 0.0203   0.113834
 H 0.4531 0.4289 0.9786   0.090788
 H 0.5598 0.9909 0.6908   0.098107
 H 0.1015 0.1676 0.6993   0.097098
 H 0.9166 0.1583 0.7497   0.10299
 H 0.961 0.0717 0.7995   0.104841
 H 0.19 0.9879 0.7995   0.117928
 H 0.2578 0.8656 0.7788   0.127452
 H 0.3731 0.7712 0.8177   0.082587
 H 0.8453 0.8386 0.7768   0.098149
 H 0.7355 0.9427 0.7417   0.12148
 H 0.1059 0.0876 0.5637   0.069419
 H 0.6289 0.2523 0.5729   0.123721
 H 0.5429 0.3272 0.5219   0.106044
 H 0.6854 0.323 0.4655   0.106681
 H 0.9203 0.2439 0.4585   0.12328
 H 0.97 0.0906 0.4508   0.130165
 H 0.1462 0.0324 0.4088   0.054952
 H 0.3718 0.1343 0.5203   0.113834
 H 0.5469 0.0711 0.4786   0.090788
 H 0.4402 0.5091 0.1908   0.098107
 H 0.8985 0.3324 0.1993   0.097098
 H 0.0834 0.3417 0.2497   0.10299
 H 0.039 0.4283 0.2995   0.104841
 H 0.81 0.5121 0.2995   0.117928
 H 0.7422 0.6344 0.2788   0.127452
 H 0.6269 0.7288 0.3177   0.082587
 H 0.1547 0.6614 0.2768   0.098149
 H 0.2645 0.5573 0.2417   0.12148
 H 0.1059 0.5876 0.9363   0.069419
 H 0.6289 0.7523 0.9271   0.123721
 H 0.5429 0.8272 0.9781   0.106044
 H 0.6854 0.823 0.0345   0.106681
 H 0.9203 0.7439 0.0415   0.12328
 H 0.97 0.5906 0.0492   0.130165
 H 0.1462 0.5324 0.0912   0.054952
 H 0.3718 0.6343 0.9797   0.113834
 H 0.5469 0.5711 0.0214   0.090788
 H 0.4402 0.0091 0.3092   0.098107
 H 0.8985 0.8324 0.3007   0.097098
 H 0.0834 0.8417 0.2503   0.10299
 H 0.039 0.9283 0.2005   0.104841
 H 0.81 0.0121 0.2005   0.117928
 H 0.7422 0.1344 0.2212   0.127452
 H 0.6269 0.2288 0.1823   0.082587
 H 0.1547 0.1614 0.2232   0.098149
 H 0.2645 0.0573 0.2583   0.12148
 H 0.8941 0.9124 0.4363   0.069419
 H 0.3711 0.7477 0.4271   0.123721
 H 0.4571 0.6728 0.4781   0.106044
 H 0.3146 0.677 0.5345   0.106681
 H 0.0797 0.7561 0.5415   0.12328
 H 0.03 0.9094 0.5492   0.130165
 H 0.8538 0.9676 0.5912   0.054952
 H 0.6282 0.8657 0.4797   0.113834
 H 0.4531 0.9289 0.5214   0.090788
 H 0.5598 0.4909 0.8092   0.098107
 H 0.1015 0.6676 0.8007   0.097098
 H 0.9166 0.6583 0.7503   0.10299
 H 0.961 0.5717 0.7005   0.104841
 H 0.19 0.4879 0.7005   0.117928
 H 0.2578 0.3656 0.7212   0.127452
 H 0.3731 0.2712 0.6823   0.082587
 H 0.8453 0.3386 0.7232   0.098149
 H 0.7355 0.4427 0.7583   0.12148
 C 0.9695 0.3775 0.05304   0.167564
 C 0.1772 0.2983 0.04548   0.15467
 C 0.3146 0.25 0.05019   -0.143555
 C 0.3644 0.2052 0.01968   -0.101359
 C 0.2779 0.2077 0.98543   -0.090331
 C 0.1392 0.2552 0.98084   -0.164417
 C 0.0936 0.3011 0.01126   0.055132
 C 0.8471 0.3845 0.98989   0.148247
 C 0.9145 0.4139 0.95643   -0.189599
 C 0.8099 0.4496 0.93171   0.019375
 C 0.6738 0.3882 0.99821   -0.170977
 C 0.5694 0.426 0.97325   0.008599
 C 0.6376 0.4592 0.94047   -0.174376
 C 0.5359 0.5092 0.91488   0.631403
 C 0.467 0.0097 0.70365   0.170874
 C 0.2499 0.0778 0.71814   0.115066
 C 0.1168 0.1306 0.71866   -0.155097
 C 0.0093 0.1256 0.74909   -0.086819
 C 0.0353 0.0725 0.77926   -0.085137
 C 0.1693 0.0217 0.77932   -0.170126
 C 0.2717 0.0236 0.74766   0.057988
 C 0.4874 0.9162 0.75797   0.147017
 C 0.3766 0.8623 0.77964   -0.187219
 C 0.4453 0.8047 0.8021   0.014758
 C 0.6215 0.7961 0.80181   -0.16429
 C 0.7284 0.8464 0.77813   -0.001532
 C 0.663 0.9079 0.75664   -0.200482
 C 0.6924 0.7339 0.8272   0.618809
 C 0.0305 0.1225 0.55304   0.167564
 C 0.8228 0.2017 0.54548   0.15467
 C 0.6854 0.25 0.55019   -0.143555
 C 0.6356 0.2948 0.51968   -0.101359
 C 0.7221 0.2923 0.48543   -0.090331
 C 0.8608 0.2448 0.48084   -0.164417
 C 0.9064 0.1989 0.51126   0.055132
 C 0.1529 0.1155 0.48989   0.148247
 C 0.0855 0.0861 0.45643   -0.189599
 C 0.1901 0.0504 0.43171   0.019375
 C 0.3262 0.1118 0.49821   -0.170977
 C 0.4306 0.074 0.47325   0.008599
 C 0.3624 0.0408 0.44047   -0.174376
 C 0.4641 0.9908 0.41488   0.631403
 C 0.533 0.4903 0.20365   0.170874
 C 0.7501 0.4222 0.21814   0.115066
 C 0.8832 0.3694 0.21866   -0.155097
 C 0.9907 0.3744 0.24909   -0.086819
 C 0.9647 0.4275 0.27926   -0.085137
 C 0.8307 0.4783 0.27932   -0.170126
 C 0.7283 0.4764 0.24766   0.057988
 C 0.5126 0.5838 0.25797   0.147017
 C 0.6234 0.6377 0.27964   -0.187219
 C 0.5547 0.6953 0.3021   0.014758
 C 0.3785 0.7039 0.30181   -0.16429
 C 0.2716 0.6536 0.27813   -0.001532
 C 0.337 0.5921 0.25664   -0.200482
 C 0.3076 0.7661 0.3272   0.618809
 C 0.0305 0.6225 0.94696   0.167565
 C 0.8228 0.7017 0.95452   0.15467
 C 0.6854 0.75 0.94981   -0.143555
 C 0.6356 0.7948 0.98032   -0.101359
 C 0.7221 0.7923 0.01457   -0.09033
 C 0.8608 0.7448 0.01916   -0.164417
 C 0.9064 0.6989 0.98874   0.055132
 C 0.1529 0.6155 0.01011   0.148248
 C 0.0855 0.5861 0.04357   -0.189599
 C 0.1901 0.5504 0.06829   0.019375
 C 0.3262 0.6118 0.00179   -0.170977
 C 0.4306 0.574 0.02675   0.008599
 C 0.3624 0.5408 0.05953   -0.174375
 C 0.4641 0.4908 0.08512   0.631403
 C 0.533 0.9903 0.29635   0.170875
 C 0.7501 0.9222 0.28186   0.115066
 C 0.8832 0.8694 0.28134   -0.155097
 C 0.9907 0.8744 0.25091   -0.086819
 C 0.9647 0.9275 0.22074   -0.085137
 C 0.8307 0.9783 0.22068   -0.170126
 C 0.7283 0.9764 0.25234   0.057988
 C 0.5126 0.0838 0.24203   0.147017
 C 0.6234 0.1377 0.22036   -0.187219
 C 0.5547 0.1953 0.1979   0.014758
 C 0.3785 0.2039 0.19819   -0.16429
 C 0.2716 0.1536 0.22187   -0.001532
 C 0.337 0.0921 0.24336   -0.200482
 C 0.3076 0.2661 0.1728   0.618809
 C 0.9695 0.8775 0.44696   0.167565
 C 0.1772 0.7983 0.45452   0.15467
 C 0.3146 0.75 0.44981   -0.143555
 C 0.3644 0.7052 0.48032   -0.101359
 C 0.2779 0.7077 0.51457   -0.09033
 C 0.1392 0.7552 0.51916   -0.164417
 C 0.0936 0.8011 0.48874   0.055132
 C 0.8471 0.8845 0.51011   0.148248
 C 0.9145 0.9139 0.54357   -0.189599
 C 0.8099 0.9496 0.56829   0.019375
 C 0.6738 0.8882 0.50179   -0.170977
 C 0.5694 0.926 0.52675   0.008599
 C 0.6376 0.9592 0.55953   -0.174375
 C 0.5359 0.0092 0.58512   0.631403
 C 0.467 0.5097 0.79635   0.170875
 C 0.2499 0.5778 0.78186   0.115066
 C 0.1168 0.6306 0.78134   -0.155097
 C 0.0093 0.6256 0.75091   -0.086819
 C 0.0353 0.5725 0.72074   -0.085137
 C 0.1693 0.5217 0.72068   -0.170126
 C 0.2717 0.5236 0.75234   0.057988
 C 0.4874 0.4162 0.74203   0.147017
 C 0.3766 0.3623 0.72036   -0.187219
 C 0.4453 0.3047 0.6979   0.014758
 C 0.6215 0.2961 0.69819   -0.16429
 C 0.7284 0.3464 0.72187   -0.001532
 C 0.663 0.4079 0.74336   -0.200482
 C 0.6924 0.2339 0.6728   0.618809
 N 0.0953 0.347 0.07128   -0.347659
 N 0.9604 0.3531 0.01679   -0.027462
 N 0.3725 0.0674 0.69087   -0.297041
 N 0.4143 0.9805 0.73771   -0.034907
 N 0.9047 0.153 0.57128   -0.347659
 N 0.0396 0.1469 0.51679   -0.027462
 N 0.6275 0.4326 0.19087   -0.297041
 N 0.5857 0.5195 0.23771   -0.034907
 N 0.9047 0.653 0.92872   -0.347659
 N 0.0396 0.6469 0.98321   -0.027462
 N 0.6275 0.9326 0.30913   -0.297041
 N 0.5857 0.0195 0.26229   -0.034907
 N 0.0953 0.847 0.42872   -0.347659
 N 0.9604 0.8531 0.48321   -0.027462
 N 0.3725 0.5674 0.80913   -0.297041
 N 0.4143 0.4805 0.76229   -0.034907
 O 0.3841 0.522 0.9234   -0.526354
 O 0.6054 0.5388 0.88496   -0.486262
 O 0.8401 0.7123 0.82026   -0.502036
 O 0.6059 0.7065 0.8553   -0.491035
 O 0.6159 0.978 0.4234   -0.526354
 O 0.3946 0.9612 0.38496   -0.486262
 O 0.1599 0.7877 0.32026   -0.502036
 O 0.3941 0.7935 0.3553   -0.491035
 O 0.6159 0.478 0.0766   -0.526354
 O 0.3946 0.4612 0.11504   -0.486262
 O 0.1599 0.2877 0.17974   -0.502037
 O 0.3941 0.2935 0.1447   -0.491035
 O 0.3841 0.022 0.5766   -0.526354
 O 0.6054 0.0388 0.61504   -0.486262
 O 0.8401 0.2123 0.67974   -0.502037
 O 0.6059 0.2065 0.6447   -0.491035
