{'_ref': 'TBD', '_srcid': 'CAKYAQ_clean', 'submitters': [{'name': 'Dalar Nazarian Jeff Camp and David Sholl', 'email': 'dalar@gatech.edu jcamp6@gatech.edu'}], '_method': 'VASP DFT with PBE;DDEC'}
data_Cu3P4H40C34(NO2)6
_symmetry_space_group_name_H-M   'P 1'
_cell_length_a   9.53840000
_cell_length_b   13.90100034
_cell_length_c   26.69230000
_cell_angle_alpha   96.32599785
_cell_angle_beta   90.00000000
_cell_angle_gamma   90.00000000
_symmetry_Int_Tables_number   1
_chemical_formula_structural   Cu3P4H40C34(NO2)6
_chemical_formula_sum   'Cu6 P8 H80 C68 N12 O24'
_cell_volume   3517.67009042
_cell_formula_units_Z   2
loop_
 _symmetry_equiv_pos_site_id
 _symmetry_equiv_pos_as_xyz
  1  'x, y, z'
loop_
 _atom_site_label
 _atom_site_fract_x
 _atom_site_fract_y
 _atom_site_fract_z
 _atom_site_charge
 Cu 0.37699 0.57832 0.92554   0.855789
 Cu 0.87699 0.92168 0.57446   0.855789
 Cu 0.62301 0.42168 0.07446   0.855789
 Cu 0.12301 0.07832 0.42554   0.855789
 Cu 0.0 0.5 0.0   0.955969
 Cu 0.5 0.0 0.5   0.955969
 P 0.64092 0.59856 0.98652   1.309911
 P 0.11669 0.68518 0.95474   1.385404
 P 0.14092 0.90144 0.51348   1.309911
 P 0.61669 0.81482 0.54526   1.385404
 P 0.35908 0.40144 0.01348   1.309911
 P 0.88331 0.31482 0.04526   1.385404
 P 0.85908 0.09856 0.48652   1.309911
 P 0.38331 0.18518 0.45474   1.385404
 H 0.7137 0.9656 0.6669   0.084344
 H 0.6947 0.0742 0.7349   0.119444
 H 0.0181 0.1987 0.6932   0.10389
 H 0.991 0.114 0.6177   0.043974
 H 0.3635 0.7972 0.9388   0.100251
 H 0.5217 0.7703 0.9451   0.100321
 H 0.236 0.7563 0.0264   0.162818
 H 0.2321 0.6433 0.0269   0.152076
 H 0.581 0.9458 0.9625   0.082848
 H 0.4222 0.9716 0.9557   0.074841
 H 0.3614 0.8778 0.0224   0.079868
 H 0.5203 0.8512 0.0286   0.078827
 H 0.9459 0.3267 0.7521   0.102639
 H 0.0478 0.2456 0.768   0.092661
 H 0.8484 0.5184 0.9022   0.102356
 H 0.7597 0.2517 0.7778   0.094368
 H 0.8528 0.1813 0.8063   0.108733
 H 0.1055 0.3248 0.9415   0.093466
 H 0.8341 0.4481 0.8243   0.140017
 H 0.0765 0.2371 0.8653   0.137626
 H 0.2137 0.5344 0.8331   0.084344
 H 0.1947 0.4258 0.7651   0.119445
 H 0.5181 0.3013 0.8068   0.103891
 H 0.491 0.386 0.8823   0.043974
 H 0.8635 0.7028 0.5612   0.100251
 H 0.0217 0.7297 0.5549   0.100321
 H 0.736 0.7437 0.4736   0.162818
 H 0.7321 0.8567 0.4731   0.152076
 H 0.081 0.5542 0.5375   0.082848
 H 0.9222 0.5284 0.5443   0.074841
 H 0.8614 0.6222 0.4776   0.079868
 H 0.0203 0.6488 0.4714   0.078827
 H 0.4459 0.1733 0.7479   0.10264
 H 0.5478 0.2544 0.732   0.092662
 H 0.3484 0.9816 0.5978   0.102356
 H 0.2597 0.2483 0.7222   0.094371
 H 0.3528 0.3187 0.6937   0.108733
 H 0.6055 0.1752 0.5585   0.093466
 H 0.3341 0.0519 0.6757   0.140017
 H 0.5765 0.2629 0.6347   0.137626
 H 0.2863 0.0344 0.3331   0.084344
 H 0.3053 0.9258 0.2651   0.119444
 H 0.9819 0.8013 0.3068   0.10389
 H 0.009 0.886 0.3823   0.043973
 H 0.6365 0.2028 0.0612   0.100251
 H 0.4783 0.2297 0.0549   0.100321
 H 0.764 0.2437 0.9736   0.162817
 H 0.7679 0.3567 0.9731   0.152075
 H 0.419 0.0542 0.0375   0.082843
 H 0.5778 0.0284 0.0443   0.074837
 H 0.6386 0.1222 0.9776   0.079863
 H 0.4797 0.1488 0.9714   0.078822
 H 0.0541 0.6733 0.2479   0.102639
 H 0.9522 0.7544 0.232   0.092661
 H 0.1516 0.4816 0.0978   0.102356
 H 0.2403 0.7483 0.2222   0.094368
 H 0.1472 0.8187 0.1937   0.108732
 H 0.8945 0.6752 0.0585   0.093465
 H 0.1659 0.5519 0.1757   0.140017
 H 0.9235 0.7629 0.1347   0.137625
 H 0.7863 0.4656 0.1669   0.084344
 H 0.8053 0.5742 0.2349   0.119445
 H 0.4819 0.6987 0.1932   0.103891
 H 0.509 0.614 0.1177   0.043973
 H 0.1365 0.2972 0.4388   0.100251
 H 0.9783 0.2703 0.4451   0.100321
 H 0.264 0.2563 0.5264   0.162817
 H 0.2679 0.1433 0.5269   0.152075
 H 0.919 0.4458 0.4625   0.082843
 H 0.0778 0.4716 0.4557   0.074837
 H 0.1386 0.3778 0.5224   0.079863
 H 0.9797 0.3512 0.5286   0.078822
 H 0.5541 0.8267 0.2521   0.10264
 H 0.4522 0.7456 0.268   0.092662
 H 0.6516 0.0184 0.4022   0.102356
 H 0.7403 0.7517 0.2778   0.09437
 H 0.6472 0.6813 0.3063   0.108732
 H 0.3945 0.8248 0.4415   0.093465
 H 0.6659 0.9481 0.3243   0.140017
 H 0.4235 0.7371 0.3653   0.137625
 C 0.7806 0.0145 0.6708   0.183334
 C 0.7711 0.0788 0.7137   -0.244603
 C 0.948 0.1518 0.6889   -0.246004
 C 0.9408 0.0938 0.6445   0.220689
 C 0.4333 0.7807 0.9628   -0.06366
 C 0.2466 0.6948 0.0057   -0.477113
 C 0.4939 0.6557 0.0207   -0.267176
 C 0.4926 0.9574 0.9801   -0.111011
 C 0.4494 0.8663 0.0046   -0.129294
 C 0.8608 0.1434 0.7254   0.161147
 C 0.9611 0.2803 0.7761   -0.169149
 C 0.9 0.4623 0.8935   0.195215
 C 0.8478 0.2167 0.777   -0.163564
 C 0.9626 0.3333 0.8341   0.123911
 C 0.0474 0.349 0.9179   0.241356
 C 0.8892 0.4208 0.8478   -0.227201
 C 0.0346 0.2977 0.8714   -0.247208
 C 0.2806 0.4855 0.8292   0.183335
 C 0.2711 0.4212 0.7863   -0.244602
 C 0.448 0.3482 0.8111   -0.246005
 C 0.4408 0.4062 0.8555   0.220689
 C 0.9333 0.7193 0.5372   -0.06366
 C 0.7466 0.8052 0.4943   -0.477113
 C 0.9939 0.8443 0.4793   -0.267176
 C 0.9926 0.5426 0.5199   -0.111011
 C 0.9494 0.6337 0.4954   -0.129294
 C 0.3608 0.3566 0.7746   0.161147
 C 0.4611 0.2197 0.7239   -0.16915
 C 0.4 0.0377 0.6065   0.195215
 C 0.3478 0.2833 0.723   -0.163565
 C 0.4626 0.1667 0.6659   0.123912
 C 0.5474 0.151 0.5821   0.241356
 C 0.3892 0.0792 0.6522   -0.227201
 C 0.5346 0.2023 0.6286   -0.247207
 C 0.2194 0.9855 0.3292   0.183334
 C 0.2289 0.9212 0.2863   -0.244603
 C 0.052 0.8482 0.3111   -0.246004
 C 0.0592 0.9062 0.3555   0.220689
 C 0.5667 0.2193 0.0372   -0.063661
 C 0.7534 0.3052 0.9943   -0.477112
 C 0.5061 0.3443 0.9793   -0.267176
 C 0.5074 0.0426 0.0199   -0.111009
 C 0.5506 0.1337 0.9954   -0.129292
 C 0.1392 0.8566 0.2746   0.161146
 C 0.0389 0.7197 0.2239   -0.169149
 C 0.1 0.5377 0.1065   0.195215
 C 0.1522 0.7833 0.223   -0.163564
 C 0.0374 0.6667 0.1659   0.123911
 C 0.9526 0.651 0.0821   0.241356
 C 0.1108 0.5792 0.1522   -0.227201
 C 0.9654 0.7023 0.1286   -0.247207
 C 0.7194 0.5145 0.1708   0.183335
 C 0.7289 0.5788 0.2137   -0.244602
 C 0.552 0.6518 0.1889   -0.246004
 C 0.5592 0.5938 0.1445   0.220689
 C 0.0667 0.2807 0.4628   -0.063661
 C 0.2534 0.1948 0.5057   -0.477112
 C 0.0061 0.1557 0.5207   -0.267176
 C 0.0074 0.4574 0.4801   -0.111009
 C 0.0506 0.3663 0.5046   -0.129292
 C 0.6392 0.6434 0.2254   0.161147
 C 0.5389 0.7803 0.2761   -0.16915
 C 0.6 0.9623 0.3935   0.195215
 C 0.6522 0.7167 0.277   -0.163564
 C 0.5374 0.8333 0.3341   0.123912
 C 0.4526 0.849 0.4179   0.241356
 C 0.6108 0.9208 0.3478   -0.227201
 C 0.4654 0.7977 0.3714   -0.247207
 N 0.8728 0.0153 0.6356   -0.269803
 N 0.3898 0.6874 0.9837   0.068399
 N 0.9833 0.4286 0.9304   -0.328099
 N 0.3728 0.4847 0.8644   -0.269803
 N 0.8898 0.8126 0.5163   0.068399
 N 0.4833 0.0714 0.5696   -0.328099
 N 0.1272 0.9847 0.3644   -0.269803
 N 0.6102 0.3126 0.0163   0.068399
 N 0.0167 0.5714 0.0696   -0.328099
 N 0.6272 0.5153 0.1356   -0.269803
 N 0.1102 0.1874 0.4837   0.068399
 N 0.5167 0.9286 0.4304   -0.328099
 O 0.7404 0.6843 0.9758   -0.579676
 O 0.715 0.5295 0.0161   -0.81058
 O 0.5763 0.5536 0.9371   -0.771571
 O 0.0659 0.7813 0.9435   -0.710015
 O 0.9952 0.6273 0.97263   -0.692644
 O 0.1937 0.629 0.91056   -0.770129
 O 0.2404 0.8157 0.5242   -0.579676
 O 0.215 0.9705 0.4839   -0.81058
 O 0.0763 0.9464 0.5629   -0.771571
 O 0.5659 0.7187 0.5565   -0.710015
 O 0.4952 0.8727 0.52737   -0.692644
 O 0.6937 0.871 0.58944   -0.770129
 O 0.2596 0.3157 0.0242   -0.579676
 O 0.285 0.4705 0.9839   -0.81058
 O 0.4237 0.4464 0.0629   -0.771571
 O 0.9341 0.2187 0.0565   -0.710015
 O 0.0048 0.3727 0.02737   -0.692644
 O 0.8063 0.371 0.08944   -0.770129
 O 0.7596 0.1843 0.4758   -0.579676
 O 0.785 0.0295 0.5161   -0.81058
 O 0.9237 0.0536 0.4371   -0.771571
 O 0.4341 0.2813 0.4435   -0.710015
 O 0.5048 0.1273 0.47263   -0.692644
 O 0.3063 0.129 0.41056   -0.770129
