{'_ref': 'TBD', '_srcid': 'CAKYAQ_clean', 'submitters': [{'name': 'Dalar Nazarian Jeff Camp and David Sholl', 'email': 'dalar@gatech.edu jcamp6@gatech.edu'}], '_method': 'VASP DFT with PBE;DDEC'}
data_Co2H18C24N4O9
_symmetry_space_group_name_H-M   'P 1'
_cell_length_a   10.54070023
_cell_length_b   11.82659981
_cell_length_c   14.11220000
_cell_angle_alpha   106.87799859
_cell_angle_beta   102.41099926
_cell_angle_gamma   111.01100124
_symmetry_Int_Tables_number   1
_chemical_formula_structural   Co2H18C24N4O9
_chemical_formula_sum   'Co4 H36 C48 N8 O18'
_cell_volume   1467.8938943
_cell_formula_units_Z   2
loop_
 _symmetry_equiv_pos_site_id
 _symmetry_equiv_pos_as_xyz
  1  'x, y, z'
loop_
 _atom_site_label
 _atom_site_fract_x
 _atom_site_fract_y
 _atom_site_fract_z
 _atom_site_charge
 Co 0.8067 0.50859 0.78733   0.947521
 Co 0.5488 0.76918 0.30993   0.949469
 Co 0.1933 0.49141 0.21267   0.94752
 Co 0.4512 0.23082 0.69007   0.94947
 H 0.878 0.8221 0.3857   0.075854
 H 0.0546 0.8062 0.3195   0.125216
 H 0.0025 0.7293 0.1377   0.105478
 H 0.5934 0.6673 0.1008   0.063035
 H 0.7326 0.994 0.2501   0.073374
 H 0.8464 0.2204 0.3131   0.110248
 H 0.8335 0.3463 0.4668   0.100963
 H 0.6154 0.012 0.4947   0.072977
 H 0.9762 0.81 0.8642   0.081417
 H 0.000999999999998 0.9776 0.8075   0.120579
 H 0.8602 0.9279 0.6365   0.086794
 H 0.6934 0.5463 0.5869   0.071854
 H 0.0745 0.5423 0.709   0.078101
 H 0.3176 0.6054 0.7777   0.13886
 H 0.4327 0.6798 0.9599   0.100683
 H 0.0454 0.604 0.9879   0.060149
 H 0.5814 0.4814 0.7884   0.427301
 H 0.5265 0.4483 0.69   0.428007
 H 0.122 0.1779 0.6143   0.075852
 H 0.9454 0.1938 0.6805   0.125215
 H 0.9975 0.2707 0.8623   0.105481
 H 0.4066 0.3327 0.8992   0.063035
 H 0.2674 0.006 0.7499   0.073387
 H 0.1536 0.7796 0.6869   0.110248
 H 0.1665 0.6537 0.5332   0.10096
 H 0.3846 0.988 0.5053   0.072977
 H 0.0238 0.19 0.1358   0.081438
 H 0.999 0.0224 0.1925   0.120591
 H 0.1398 0.0721 0.3635   0.086792
 H 0.3066 0.4537 0.4131   0.071854
 H 0.9255 0.4577 0.291   0.078099
 H 0.6824 0.3946 0.2223   0.138858
 H 0.5673 0.3202 0.0401   0.100686
 H 0.9546 0.396 0.0121   0.060148
 H 0.4186 0.5186 0.2116   0.427301
 H 0.4735 0.5517 0.31   0.428006
 C 0.8546 0.7874 0.3126   0.161961
 C 0.962 0.7797 0.2734   -0.187366
 C 0.9308 0.7326 0.1655   0.050856
 C 0.7906 0.6904 0.0994   -0.229801
 C 0.6884 0.6981 0.1454   0.215337
 C 0.7421 0.6338 0.9801   0.663887
 C 0.731 0.0437 0.314   0.171019
 C 0.7973 0.1796 0.3505   -0.19583
 C 0.7907 0.2545 0.4421   0.043014
 C 0.7195 0.1915 0.4968   -0.218826
 C 0.6606 0.0549 0.4567   0.208282
 C 0.6989 0.2658 0.5941   0.695217
 C 0.9216 0.7891 0.7949   0.170931
 C 0.9362 0.8905 0.7617   -0.195338
 C 0.8538 0.861 0.66   0.041389
 C 0.7614 0.7301 0.5935   -0.209505
 C 0.7548 0.6344 0.6321   0.209073
 C 0.6664 0.6904 0.4809   0.679983
 C 0.1186 0.5697 0.7816   0.151723
 C 0.2645 0.608 0.8224   -0.191543
 C 0.333 0.6509 0.9308   0.061085
 C 0.2495 0.6495 0.9943   -0.226799
 C 0.1022 0.6071 0.9457   0.210563
 C 0.3065 0.6818 0.1109   0.695965
 C 0.1454 0.2126 0.6874   0.161959
 C 0.038 0.2203 0.7266   -0.187369
 C 0.0692 0.2674 0.8345   0.050851
 C 0.2094 0.3096 0.9006   -0.229804
 C 0.3116 0.3019 0.8546   0.215334
 C 0.2579 0.3662 0.0199   0.663884
 C 0.269 0.9563 0.686   0.171028
 C 0.2027 0.8204 0.6495   -0.195824
 C 0.2093 0.7455 0.5579   0.043014
 C 0.2805 0.8085 0.5032   -0.218825
 C 0.3394 0.9451 0.5433   0.208283
 C 0.3011 0.7342 0.4059   0.695216
 C 0.0784 0.2109 0.2051   0.170926
 C 0.0638 0.1095 0.2383   -0.195332
 C 0.1462 0.139 0.34   0.041396
 C 0.2386 0.2699 0.4065   -0.209505
 C 0.2452 0.3656 0.3679   0.209073
 C 0.3336 0.3096 0.5191   0.679982
 C 0.8814 0.4303 0.2184   0.151718
 C 0.7355 0.392 0.1776   -0.191534
 C 0.667 0.3491 0.0692   0.061096
 C 0.7505 0.3505 0.0057   -0.226798
 C 0.8978 0.3929 0.0543   0.210561
 C 0.6935 0.3182 0.8891   0.695969
 N 0.7186 0.7471 0.25007   -0.370598
 N 0.6648 0.9812 0.36687   -0.343416
 N 0.8325 0.6624 0.7317   -0.367676
 N 0.0366 0.5703 0.8425   -0.359725
 N 0.2814 0.2529 0.74993   -0.370598
 N 0.3352 0.0188 0.63313   -0.343416
 N 0.1675 0.3376 0.2683   -0.367674
 N 0.9634 0.4297 0.1575   -0.359724
 O 0.837 0.6353 0.93974   -0.614225
 O 0.6096 0.5867 0.92987   -0.565402
 O 0.7827 0.3876 0.64073   -0.590437
 O 0.6002 0.2001 0.61958   -0.580198
 O 0.6665 0.7831 0.45485   -0.608288
 O 0.596 0.5702 0.4235   -0.59289
 O 0.2148 0.6349 0.14962   -0.589904
 O 0.4414 0.7516 0.16033   -0.580643
 O 0.574 0.4414 0.74252   -0.829787
 O 0.163 0.3647 0.06026   -0.614226
 O 0.3904 0.4133 0.07013   -0.565402
 O 0.2173 0.6124 0.35927   -0.590436
 O 0.3998 0.7999 0.38042   -0.580198
 O 0.3335 0.2169 0.54515   -0.608287
 O 0.404 0.4298 0.5765   -0.592891
 O 0.7852 0.3651 0.85038   -0.589904
 O 0.5586 0.2484 0.83967   -0.580644
 O 0.426 0.5586 0.25748   -0.829787
