{'_ref': 'TBD', '_srcid': 'CAKYAQ_clean', 'submitters': [{'name': 'Dalar Nazarian Jeff Camp and David Sholl', 'email': 'dalar@gatech.edu jcamp6@gatech.edu'}], '_method': 'VASP DFT with PBE;DDEC'}
data_CoH15C21(NO2)2
_symmetry_space_group_name_H-M   'P 1'
_cell_length_a   14.75999952
_cell_length_b   15.26530015
_cell_length_c   15.26530000
_cell_angle_alpha   100.99899981
_cell_angle_beta   112.54899888
_cell_angle_gamma   112.54900102
_symmetry_Int_Tables_number   1
_chemical_formula_structural   CoH15C21(NO2)2
_chemical_formula_sum   'Co4 H60 C84 N8 O16'
_cell_volume   2693.78300803
_cell_formula_units_Z   4
loop_
 _symmetry_equiv_pos_site_id
 _symmetry_equiv_pos_as_xyz
  1  'x, y, z'
loop_
 _atom_site_label
 _atom_site_fract_x
 _atom_site_fract_y
 _atom_site_fract_z
 _atom_site_charge
 Co 0.36879 0.2779 0.83171   0.890362
 Co 0.13121 0.16829 0.7221   0.890358
 Co 0.63121 0.7221 0.16829   0.890362
 Co 0.86879 0.83171 0.2779   0.890358
 H 0.4086 0.3214 0.1416   0.098197
 H 0.4072 0.3114 0.2876   0.106794
 H 0.0738 0.1126 0.1218   0.105459
 H 0.0747 0.1275 0.9761   0.095953
 H 0.4073 0.257 0.407   0.105626
 H 0.4093 0.2569 0.5575   0.101945
 H 0.0743 0.1375 0.4127   0.0935
 H 0.0729 0.1425 0.2643   0.102384
 H 0.5616 0.2377 0.8655   0.083292
 H 0.7514 0.3228 0.921   0.121562
 H 0.7545 0.5883 0.9983   0.115416
 H 0.5635 0.4967 0.9363   0.084029
 H 0.0444 0.6633 0.0989   0.133775
 H 0.9406 0.6729 0.0309   0.143702
 H 0.9498 0.6478 0.1278   0.146271
 H 0.0914 0.8584 0.6786   0.098197
 H 0.0928 0.7124 0.6886   0.106794
 H 0.4262 0.8782 0.8874   0.105459
 H 0.4253 0.0239 0.8725   0.095952
 H 0.0927 0.593 0.743   0.105626
 H 0.0907 0.4425 0.7431   0.101945
 H 0.4257 0.5873 0.8625   0.0935
 H 0.4271 0.7357 0.8575   0.102384
 H 0.9384 0.1345 0.7623   0.083291
 H 0.7486 0.079 0.6772   0.12156
 H 0.7455 0.0017 0.4117   0.115416
 H 0.9365 0.0637 0.5033   0.084029
 H 0.4556 0.9011 0.3367   0.133775
 H 0.5594 0.9691 0.3271   0.143702
 H 0.5502 0.8722 0.3522   0.146271
 H 0.5914 0.6786 0.8584   0.098198
 H 0.5928 0.6886 0.7124   0.106794
 H 0.9262 0.8874 0.8782   0.105459
 H 0.9253 0.8725 0.0239   0.095953
 H 0.5927 0.743 0.593   0.105626
 H 0.5907 0.7431 0.4425   0.101945
 H 0.9257 0.8625 0.5873   0.0935
 H 0.9271 0.8575 0.7357   0.102384
 H 0.4384 0.7623 0.1345   0.083291
 H 0.2486 0.6772 0.079   0.121557
 H 0.2455 0.4117 0.0017   0.115416
 H 0.4365 0.5033 0.0637   0.084029
 H 0.9556 0.3367 0.9011   0.13377
 H 0.0594 0.3271 0.9691   0.1437
 H 0.0502 0.3522 0.8722   0.14627
 H 0.9086 0.1416 0.3214   0.098198
 H 0.9072 0.2876 0.3114   0.106794
 H 0.5738 0.1218 0.1126   0.105459
 H 0.5747 0.9761 0.1275   0.095951
 H 0.9073 0.407 0.257   0.105626
 H 0.9093 0.5575 0.2569   0.101945
 H 0.5743 0.4127 0.1375   0.0935
 H 0.5729 0.2643 0.1425   0.102384
 H 0.0616 0.8655 0.2377   0.08329
 H 0.2514 0.921 0.3228   0.121555
 H 0.2545 0.9983 0.5883   0.115416
 H 0.0635 0.9363 0.4967   0.084028
 H 0.5444 0.0989 0.6633   0.13377
 H 0.4406 0.0309 0.6729   0.1437
 H 0.4498 0.1278 0.6478   0.14627
 C 0.24307 0.22925 0.94507   0.652112
 C 0.24123 0.22497 0.04155   -0.150318
 C 0.34041 0.27962 0.1372   -0.034826
 C 0.33948 0.27305 0.22471   -0.134976
 C 0.23996 0.2105 0.22276   0.04691
 C 0.14193 0.15595 0.12687   -0.139532
 C 0.14259 0.16405 0.03889   -0.037603
 C 0.23989 0.20424 0.31832   0.041594
 C 0.33984 0.23545 0.40823   -0.140808
 C 0.34116 0.23507 0.49869   -0.033384
 C 0.24284 0.2027 0.5035   -0.14745
 C 0.14262 0.16491 0.41293   -0.027722
 C 0.14177 0.16696 0.32344   -0.128999
 C 0.24403 0.20592 0.6021   0.660078
 C 0.60057 0.30944 0.89178   0.149598
 C 0.7152 0.36021 0.92571   -0.160901
 C 0.77576 0.46645 0.96647   0.030972
 C 0.71675 0.51648 0.97058   -0.173434
 C 0.60154 0.46077 0.93371   0.176389
 C 0.90064 0.52466 0.00618   0.321376
 C 0.9645 0.63717 0.07179   -0.422195
 C 0.25693 0.05493 0.77075   0.652112
 C 0.25877 0.95845 0.77503   -0.150319
 C 0.15959 0.8628 0.72038   -0.034826
 C 0.16052 0.77529 0.72695   -0.134976
 C 0.26004 0.77724 0.7895   0.04691
 C 0.35807 0.87313 0.84405   -0.139532
 C 0.35741 0.96111 0.83595   -0.037603
 C 0.26011 0.68168 0.79576   0.041594
 C 0.16016 0.59177 0.76455   -0.140808
 C 0.15884 0.50131 0.76493   -0.033384
 C 0.25716 0.4965 0.7973   -0.147449
 C 0.35738 0.58707 0.83509   -0.027721
 C 0.35823 0.67656 0.83304   -0.128999
 C 0.25597 0.3979 0.79408   0.660078
 C 0.89943 0.10822 0.69056   0.149597
 C 0.7848 0.07429 0.63979   -0.1609
 C 0.72424 0.03353 0.53355   0.030972
 C 0.78325 0.02942 0.48352   -0.173434
 C 0.89846 0.06629 0.53923   0.176389
 C 0.59936 0.99382 0.47534   0.321376
 C 0.5355 0.92821 0.36283   -0.422195
 C 0.75693 0.77075 0.05493   0.652112
 C 0.75877 0.77503 0.95845   -0.150318
 C 0.65959 0.72038 0.8628   -0.034826
 C 0.66052 0.72695 0.77529   -0.134976
 C 0.76004 0.7895 0.77724   0.04691
 C 0.85807 0.84405 0.87313   -0.139532
 C 0.85741 0.83595 0.96111   -0.037603
 C 0.76011 0.79576 0.68168   0.041594
 C 0.66016 0.76455 0.59177   -0.140808
 C 0.65884 0.76493 0.50131   -0.033383
 C 0.75716 0.7973 0.4965   -0.147449
 C 0.85738 0.83509 0.58707   -0.027722
 C 0.85823 0.83304 0.67656   -0.128999
 C 0.75597 0.79408 0.3979   0.660078
 C 0.39943 0.69056 0.10822   0.149598
 C 0.2848 0.63979 0.07429   -0.160899
 C 0.22424 0.53355 0.03353   0.030972
 C 0.28325 0.48352 0.02942   -0.173434
 C 0.39846 0.53923 0.06629   0.176389
 C 0.09936 0.47534 0.99382   0.321375
 C 0.0355 0.36283 0.92821   -0.422193
 C 0.74307 0.94507 0.22925   0.652112
 C 0.74123 0.04155 0.22497   -0.150319
 C 0.84041 0.1372 0.27962   -0.034826
 C 0.83948 0.22471 0.27305   -0.134976
 C 0.73996 0.22276 0.2105   0.04691
 C 0.64193 0.12687 0.15595   -0.139532
 C 0.64259 0.03889 0.16405   -0.037603
 C 0.73989 0.31832 0.20424   0.041594
 C 0.83984 0.40823 0.23545   -0.140808
 C 0.84116 0.49869 0.23507   -0.033384
 C 0.74284 0.5035 0.2027   -0.147449
 C 0.64262 0.41293 0.16491   -0.027721
 C 0.64177 0.32344 0.16696   -0.128999
 C 0.74403 0.6021 0.20592   0.660078
 C 0.10057 0.89178 0.30944   0.149597
 C 0.2152 0.92571 0.36021   -0.160898
 C 0.27576 0.96647 0.46645   0.030972
 C 0.21675 0.97058 0.51648   -0.173434
 C 0.10154 0.93371 0.46077   0.176389
 C 0.40064 0.00618 0.52466   0.321375
 C 0.4645 0.07179 0.63717   -0.422193
 N 0.5424 0.35807 0.89465   -0.31307
 N 0.94183 0.47159 0.98163   -0.272148
 N 0.9576 0.10535 0.64193   -0.31307
 N 0.55817 0.01837 0.52841   -0.272148
 N 0.4576 0.64193 0.10535   -0.31307
 N 0.05817 0.52841 0.01837   -0.272143
 N 0.0424 0.89465 0.35807   -0.31307
 N 0.44183 0.98163 0.47159   -0.272143
 O 0.14855 0.18136 0.86276   -0.574075
 O 0.33794 0.27981 0.95233   -0.563516
 O 0.33806 0.24233 0.68259   -0.585117
 O 0.14955 0.17089 0.59867   -0.567217
 O 0.35145 0.13724 0.81864   -0.574075
 O 0.16206 0.04767 0.72019   -0.563515
 O 0.16194 0.31741 0.75767   -0.585117
 O 0.35045 0.40133 0.82911   -0.567218
 O 0.85145 0.81864 0.13724   -0.574075
 O 0.66206 0.72019 0.04767   -0.563516
 O 0.66194 0.75767 0.31741   -0.585117
 O 0.85045 0.82911 0.40133   -0.567217
 O 0.64855 0.86276 0.18136   -0.574075
 O 0.83794 0.95233 0.27981   -0.563515
 O 0.83806 0.68259 0.24233   -0.585117
 O 0.64955 0.59867 0.17089   -0.567218
