{'_ref': 'TBD', '_srcid': 'CAKYAQ_clean', 'submitters': [{'name': 'Dalar Nazarian Jeff Camp and David Sholl', 'email': 'dalar@gatech.edu jcamp6@gatech.edu'}], '_method': 'VASP DFT with PBE;DDEC'}
data_CsH5C6O
_symmetry_space_group_name_H-M   'P 1'
_cell_length_a   7.63060000
_cell_length_b   14.84480000
_cell_length_c   18.50700000
_cell_angle_alpha   90.00000000
_cell_angle_beta   90.00000000
_cell_angle_gamma   90.00000000
_symmetry_Int_Tables_number   1
_chemical_formula_structural   CsH5C6O
_chemical_formula_sum   'Cs12 H60 C72 O12'
_cell_volume   2096.3754444
_cell_formula_units_Z   12
loop_
 _symmetry_equiv_pos_site_id
 _symmetry_equiv_pos_as_xyz
  1  'x, y, z'
loop_
 _atom_site_label
 _atom_site_fract_x
 _atom_site_fract_y
 _atom_site_fract_z
 _atom_site_charge
 Cs 0.25 0.47 0.507   0.930349
 Cs 0.75 0.53 0.493   0.930348
 Cs 0.75 0.03 0.007   0.930349
 Cs 0.25 0.97 0.993   0.930348
 Cs 0.103 0.536 0.307   0.938247
 Cs 0.603 0.464 0.693   0.938247
 Cs 0.603 0.964 0.807   0.938247
 Cs 0.103 0.036 0.193   0.938247
 Cs 0.104 0.697 0.604   0.920768
 Cs 0.604 0.303 0.396   0.920768
 Cs 0.604 0.803 0.104   0.920768
 Cs 0.104 0.197 0.896   0.920768
 H 0.38 0.68 0.408   0.117182
 H 0.88 0.32 0.592   0.117182
 H 0.88 0.82 0.908   0.117182
 H 0.38 0.18 0.092   0.117182
 H 0.47 0.83 0.37   0.078791
 H 0.97 0.17 0.63   0.078791
 H 0.97 0.67 0.87   0.078791
 H 0.47 0.33 0.13   0.078791
 H 0.26 0.953 0.372   0.084313
 H 0.76 0.047 0.628   0.084313
 H 0.76 0.547 0.872   0.084313
 H 0.26 0.453 0.128   0.084313
 H 0.96 0.926 0.4   0.069249
 H 0.46 0.074 0.6   0.069249
 H 0.46 0.574 0.9   0.069249
 H 0.96 0.426 0.1   0.069249
 H 0.86 0.77 0.44   0.124347
 H 0.36 0.23 0.56   0.124347
 H 0.36 0.73 0.94   0.124347
 H 0.86 0.27 0.06   0.124347
 H 0.07 0.26 0.49   0.113102
 H 0.57 0.74 0.51   0.113102
 H 0.57 0.24 0.99   0.113102
 H 0.07 0.76 0.01   0.113102
 H 0.24 0.122 0.46   0.093189
 H 0.74 0.878 0.54   0.093189
 H 0.74 0.378 0.96   0.093189
 H 0.24 0.622 0.04   0.093189
 H 0.34 0.1 0.34   0.094618
 H 0.84 0.9 0.66   0.094618
 H 0.84 0.4 0.84   0.094618
 H 0.34 0.6 0.16   0.094618
 H 0.27 0.21 0.243   0.062897
 H 0.77 0.79 0.757   0.062897
 H 0.77 0.29 0.743   0.062897
 H 0.27 0.71 0.257   0.062897
 H 0.1 0.34 0.27   0.086877
 H 0.6 0.66 0.73   0.086877
 H 0.6 0.16 0.77   0.086877
 H 0.1 0.84 0.23   0.086877
 H 0.03 0.59 0.75   0.104536
 H 0.53 0.41 0.25   0.104536
 H 0.53 0.91 0.25   0.104536
 H 0.03 0.09 0.75   0.104536
 H 0.18 0.53 0.855   0.087347
 H 0.68 0.47 0.145   0.087347
 H 0.68 0.97 0.355   0.087347
 H 0.18 0.03 0.645   0.087347
 H 0.31 0.38 0.85   0.09846
 H 0.81 0.62 0.15   0.09846
 H 0.81 0.12 0.35   0.09846
 H 0.31 0.88 0.65   0.09846
 H 0.28 0.288 0.74   0.079108
 H 0.78 0.712 0.26   0.079108
 H 0.78 0.212 0.24   0.079108
 H 0.28 0.788 0.76   0.079108
 H 0.12 0.348 0.64   0.118856
 H 0.62 0.652 0.36   0.118856
 H 0.62 0.152 0.14   0.118856
 H 0.12 0.848 0.86   0.118856
 C 0.11 0.717 0.424   0.391157
 C 0.61 0.283 0.576   0.391157
 C 0.61 0.783 0.924   0.391157
 C 0.11 0.217 0.076   0.391157
 C 0.29 0.7325 0.407   -0.304081
 C 0.79 0.2675 0.593   -0.304081
 C 0.79 0.7675 0.907   -0.304081
 C 0.29 0.2325 0.093   -0.304081
 C 0.34 0.818 0.388   0.002349
 C 0.84 0.182 0.612   0.002349
 C 0.84 0.682 0.888   0.002349
 C 0.34 0.318 0.112   0.002349
 C 0.22 0.888 0.387   -0.219561
 C 0.72 0.112 0.613   -0.219561
 C 0.72 0.612 0.887   -0.219561
 C 0.22 0.388 0.113   -0.219561
 C 0.05 0.872 0.404   -0.006433
 C 0.55 0.128 0.596   -0.006433
 C 0.55 0.628 0.904   -0.006433
 C 0.05 0.372 0.096   -0.006433
 C 0.99 0.786 0.423   -0.332736
 C 0.49 0.214 0.577   -0.332736
 C 0.49 0.714 0.923   -0.332736
 C 0.99 0.286 0.077   -0.332736
 C 0.07 0.308 0.384   0.409705
 C 0.57 0.692 0.616   0.409705
 C 0.57 0.192 0.884   0.409705
 C 0.07 0.808 0.116   0.409705
 C 0.11 0.245 0.436   -0.341849
 C 0.61 0.755 0.564   -0.341849
 C 0.61 0.255 0.936   -0.341849
 C 0.11 0.745 0.064   -0.341849
 C 0.21 0.17 0.419   -0.009919
 C 0.71 0.83 0.581   -0.009919
 C 0.71 0.33 0.919   -0.009919
 C 0.21 0.67 0.081   -0.009919
 C 0.27 0.157 0.35   -0.281259
 C 0.77 0.843 0.65   -0.281259
 C 0.77 0.343 0.85   -0.281259
 C 0.27 0.657 0.15   -0.281259
 C 0.23 0.22 0.297   -0.066109
 C 0.73 0.78 0.703   -0.066109
 C 0.73 0.28 0.797   -0.066109
 C 0.23 0.72 0.203   -0.066109
 C 0.13 0.295 0.314   -0.279507
 C 0.63 0.705 0.686   -0.279507
 C 0.63 0.205 0.814   -0.279507
 C 0.13 0.795 0.186   -0.279507
 C 0.07 0.473 0.686   0.403946
 C 0.57 0.527 0.314   0.403946
 C 0.57 0.027 0.186   0.403946
 C 0.07 0.973 0.814   0.403946
 C 0.08 0.524 0.748   -0.322977
 C 0.58 0.476 0.252   -0.322977
 C 0.58 0.976 0.248   -0.322977
 C 0.08 0.024 0.752   -0.322977
 C 0.17 0.49 0.807   0.005631
 C 0.67 0.51 0.193   0.005631
 C 0.67 0.01 0.307   0.005631
 C 0.17 0.99 0.693   0.005631
 C 0.24 0.405 0.805   -0.278454
 C 0.74 0.595 0.195   -0.278454
 C 0.74 0.095 0.305   -0.278454
 C 0.24 0.905 0.695   -0.278454
 C 0.22 0.354 0.743   -0.054741
 C 0.72 0.646 0.257   -0.054741
 C 0.72 0.146 0.243   -0.054741
 C 0.22 0.854 0.757   -0.054741
 C 0.14 0.388 0.684   -0.287049
 C 0.64 0.612 0.316   -0.287049
 C 0.64 0.112 0.184   -0.287049
 C 0.14 0.888 0.816   -0.287049
 O 0.06 0.6322 0.443   -0.88658
 O 0.56 0.3678 0.557   -0.88658
 O 0.56 0.8678 0.943   -0.88658
 O 0.06 0.1322 0.057   -0.88658
 O 0.98 0.3825 0.401   -0.858418
 O 0.48 0.6175 0.599   -0.858418
 O 0.48 0.1175 0.901   -0.858418
 O 0.98 0.8825 0.099   -0.858418
 O 0.98 0.5068 0.627   -0.88535
 O 0.48 0.4932 0.373   -0.88535
 O 0.48 0.9932 0.127   -0.88535
 O 0.98 0.0068 0.873   -0.88535
