{'_ref': 'TBD', '_srcid': 'CAKYAQ_clean', 'submitters': [{'name': 'Dalar Nazarian Jeff Camp and David Sholl', 'email': 'dalar@gatech.edu jcamp6@gatech.edu'}], '_method': 'VASP DFT with PBE;DDEC'}
data_CoH3C6SNO2
_symmetry_space_group_name_H-M   'P 1'
_cell_length_a   8.75770000
_cell_length_b   8.75769967
_cell_length_c   11.95800000
_cell_angle_alpha   90.00000000
_cell_angle_beta   90.00000000
_cell_angle_gamma   101.79000152
_symmetry_Int_Tables_number   1
_chemical_formula_structural   CoH3C6SNO2
_chemical_formula_sum   'Co4 H12 C24 S4 N4 O8'
_cell_volume   897.797406993
_cell_formula_units_Z   4
loop_
 _symmetry_equiv_pos_site_id
 _symmetry_equiv_pos_as_xyz
  1  'x, y, z'
loop_
 _atom_site_label
 _atom_site_fract_x
 _atom_site_fract_y
 _atom_site_fract_z
 _atom_site_charge
 Co 0.11673 0.11673 0.0   0.67233
 Co 0.88327 0.88327 0.5   0.67233
 Co 0.10513 0.89487 0.25   0.723774
 Co 0.89487 0.10513 0.75   0.723774
 H 0.488 0.14 0.296   0.141707
 H 0.719 0.119 0.19   0.100737
 H 0.4816 0.1404 0.905   0.078429
 H 0.512 0.86 0.796   0.141707
 H 0.281 0.881 0.69   0.100737
 H 0.5184 0.8596 0.405   0.078429
 H 0.86 0.512 0.204   0.141707
 H 0.881 0.281 0.31   0.100735
 H 0.8596 0.5184 0.595   0.078428
 H 0.14 0.488 0.704   0.141707
 H 0.119 0.719 0.81   0.100735
 H 0.1404 0.4816 0.095   0.078428
 C 0.35713 0.14637 0.15276   0.285924
 C 0.49206 0.14014 0.2131   -0.208773
 C 0.62439 0.12781 0.1541   0.051078
 C 0.62348 0.13086 0.03705   -0.226753
 C 0.48519 0.13763 0.9837   0.199731
 C 0.76776 0.12528 0.97166   0.674485
 C 0.64287 0.85363 0.65276   0.285924
 C 0.50794 0.85986 0.7131   -0.208773
 C 0.37561 0.87219 0.6541   0.051078
 C 0.37652 0.86914 0.53705   -0.226753
 C 0.51481 0.86237 0.4837   0.199731
 C 0.23224 0.87472 0.47166   0.674485
 C 0.85363 0.64287 0.34724   0.28593
 C 0.85986 0.50794 0.2869   -0.208766
 C 0.87219 0.37561 0.3459   0.051078
 C 0.86914 0.37652 0.46295   -0.226753
 C 0.86237 0.51481 0.5163   0.199744
 C 0.87472 0.23224 0.52834   0.674486
 C 0.14637 0.35713 0.84724   0.28593
 C 0.14014 0.49206 0.7869   -0.208766
 C 0.12781 0.62439 0.8459   0.051078
 C 0.13086 0.62348 0.96295   -0.226753
 C 0.13763 0.48519 0.0163   0.199744
 C 0.12528 0.76776 0.02834   0.674486
 S 0.17399 0.15643 0.21082   -0.376118
 S 0.82601 0.84357 0.71082   -0.376118
 S 0.84357 0.82601 0.28918   -0.376118
 S 0.15643 0.17399 0.78918   -0.376118
 N 0.35412 0.14152 0.03997   -0.336177
 N 0.64588 0.85848 0.53997   -0.336177
 N 0.85848 0.64588 0.46003   -0.336179
 N 0.14152 0.35412 0.96003   -0.336179
 O 0.88069 0.09235 0.02224   -0.539387
 O 0.23837 0.84279 0.36824   -0.542945
 O 0.11931 0.90765 0.52224   -0.539387
 O 0.76163 0.15721 0.86824   -0.542945
 O 0.90765 0.11931 0.47776   -0.53939
 O 0.15721 0.76163 0.13176   -0.542945
 O 0.09235 0.88069 0.97776   -0.53939
 O 0.84279 0.23837 0.63176   -0.542945
