{'_ref': 'TBD', '_srcid': 'CAKYAQ_clean', 'submitters': [{'name': 'Dalar Nazarian Jeff Camp and David Sholl', 'email': 'dalar@gatech.edu jcamp6@gatech.edu'}], '_method': 'VASP DFT with PBE;DDEC'}
data_CoH3C6SNO2
_symmetry_space_group_name_H-M   'P 1'
_cell_length_a   8.76920000
_cell_length_b   8.76920040
_cell_length_c   12.15180000
_cell_angle_alpha   90.00000000
_cell_angle_beta   90.00000000
_cell_angle_gamma   101.28299671
_symmetry_Int_Tables_number   1
_chemical_formula_structural   CoH3C6SNO2
_chemical_formula_sum   'Co4 H12 C24 S4 N4 O8'
_cell_volume   916.399191732
_cell_formula_units_Z   4
loop_
 _symmetry_equiv_pos_site_id
 _symmetry_equiv_pos_as_xyz
  1  'x, y, z'
loop_
 _atom_site_label
 _atom_site_fract_x
 _atom_site_fract_y
 _atom_site_fract_z
 _atom_site_charge
 Co 0.61878 0.61878 0.5   0.681476
 Co 0.38122 0.38122 0.0   0.681476
 Co 0.39346 0.60654 0.25   0.745019
 Co 0.60654 0.39346 0.75   0.745019
 H 0.63 0.99 0.204   0.140564
 H 0.618 0.218 0.316   0.098309
 H 0.6435 0.9845 0.598   0.083456
 H 0.37 0.01 0.704   0.140564
 H 0.382 0.782 0.816   0.098309
 H 0.3565 0.0155 0.098   0.083455
 H 0.01 0.37 0.296   0.140564
 H 0.782 0.382 0.184   0.098307
 H 0.0155 0.3565 0.902   0.08347
 H 0.99 0.63 0.796   0.140564
 H 0.218 0.618 0.684   0.098307
 H 0.9845 0.6435 0.402   0.083469
 C 0.64339 0.85927 0.34979   0.296869
 C 0.6341 0.9929 0.2915   -0.223555
 C 0.6248 0.126 0.3498   0.065208
 C 0.63013 0.12507 0.46407   -0.228446
 C 0.63811 0.98789 0.5159   0.185902
 C 0.62544 0.27016 0.52915   0.685094
 C 0.35661 0.14073 0.84979   0.296869
 C 0.3659 0.0071 0.7915   -0.223555
 C 0.3752 0.874 0.8498   0.065208
 C 0.36987 0.87493 0.96407   -0.228446
 C 0.36189 0.01211 0.0159   0.185902
 C 0.37456 0.72984 0.02915   0.685094
 C 0.14073 0.35661 0.15021   0.296863
 C 0.0071 0.3659 0.2085   -0.223551
 C 0.874 0.3752 0.1502   0.065204
 C 0.87493 0.36987 0.03593   -0.228433
 C 0.01211 0.36189 0.9841   0.185857
 C 0.72984 0.37456 0.97085   0.685077
 C 0.85927 0.64339 0.65021   0.296863
 C 0.9929 0.6341 0.7085   -0.223551
 C 0.126 0.6248 0.6502   0.065204
 C 0.12507 0.63013 0.53593   -0.228433
 C 0.98789 0.63811 0.4841   0.185857
 C 0.27016 0.62544 0.47085   0.685077
 S 0.65423 0.67677 0.29238   -0.390646
 S 0.34577 0.32323 0.79238   -0.390646
 S 0.32323 0.34577 0.20762   -0.390645
 S 0.67677 0.65423 0.70762   -0.390645
 N 0.64246 0.85664 0.4606   -0.332386
 N 0.35754 0.14336 0.9606   -0.332386
 N 0.14336 0.35754 0.0394   -0.33234
 N 0.85664 0.64246 0.5394   -0.33234
 O 0.60095 0.38509 0.47844   -0.541606
 O 0.64825 0.26011 0.63132   -0.552019
 O 0.39905 0.61491 0.97844   -0.541606
 O 0.35175 0.73989 0.13132   -0.552019
 O 0.61491 0.39905 0.02156   -0.541596
 O 0.73989 0.35175 0.86868   -0.552015
 O 0.38509 0.60095 0.52156   -0.541596
 O 0.26011 0.64825 0.36868   -0.552015
