{'_ref': 'TBD', '_srcid': 'CAKYAQ_clean', 'submitters': [{'name': 'Dalar Nazarian Jeff Camp and David Sholl', 'email': 'dalar@gatech.edu jcamp6@gatech.edu'}], '_method': 'VASP DFT with PBE;DDEC'}
data_ZnH8C14(NO2)2
_symmetry_space_group_name_H-M   'P 1'
_cell_length_a   7.62300000
_cell_length_b   11.18900000
_cell_length_c   16.87300000
_cell_angle_alpha   90.00000000
_cell_angle_beta   90.00000000
_cell_angle_gamma   90.00000000
_symmetry_Int_Tables_number   1
_chemical_formula_structural   ZnH8C14(NO2)2
_chemical_formula_sum   'Zn4 H32 C56 N8 O16'
_cell_volume   1439.16139313
_cell_formula_units_Z   4
loop_
 _symmetry_equiv_pos_site_id
 _symmetry_equiv_pos_as_xyz
  1  'x, y, z'
loop_
 _atom_site_label
 _atom_site_fract_x
 _atom_site_fract_y
 _atom_site_fract_z
 _atom_site_charge
 Zn 0.1014 0.6418 0.0387   0.901194
 Zn 0.3986 0.3582 0.5387   0.90117
 Zn 0.8986 0.1418 0.4613   0.901152
 Zn 0.6014 0.8582 0.9613   0.901189
 H 0.50378 0.63501 0.31473   0.11964
 H 0.45484 0.6731 0.16755   0.137204
 H 0.2205 0.31778 0.14093   0.135812
 H 0.28156 0.27456 0.28772   0.106181
 H 0.74462 0.28833 0.25574   0.099283
 H 0.74401 0.37712 0.12277   0.151207
 H 0.00168 0.7021 0.22344   0.106756
 H 7.00000000009e-05 0.60736 0.3551   0.124333
 H 0.99622 0.36499 0.81473   0.119408
 H 0.04516 0.3269 0.66755   0.137197
 H 0.2795 0.68222 0.64093   0.135688
 H 0.21744 0.7248 0.78891   0.106974
 H 0.75538 0.71167 0.75574   0.099295
 H 0.75599 0.62288 0.62277   0.151206
 H 0.49832 0.2979 0.72344   0.106757
 H 0.49993 0.39264 0.8551   0.124321
 H 0.49622 0.13501 0.18527   0.119352
 H 0.54516 0.1731 0.33245   0.137311
 H 0.7795 0.81778 0.35907   0.135687
 H 0.71744 0.7752 0.21109   0.106972
 H 0.25538 0.78833 0.24426   0.099295
 H 0.25599 0.87712 0.37723   0.151227
 H 0.99832 0.2021 0.27656   0.106841
 H 0.99993 0.10736 0.1449   0.124323
 H 0.00378 0.86499 0.68527   0.119414
 H 0.95484 0.8269 0.83245   0.137199
 H 0.7205 0.18222 0.85907   0.135688
 H 0.78256 0.2248 0.71109   0.106975
 H 0.24462 0.21167 0.74426   0.099296
 H 0.24401 0.12288 0.87723   0.151199
 H 0.50168 0.7979 0.77656   0.10676
 H 0.50007 0.89264 0.6449   0.124321
 C 0.4174 0.4338 0.3959   0.600445
 C 0.3904 0.4545 0.307   -0.035312
 C 0.4411 0.5644 0.2751   -0.077074
 C 0.4134 0.5846 0.1953   -0.144341
 C 0.3346 0.4956 0.1498   0.187033
 C 0.2854 0.3874 0.1806   -0.160123
 C 0.3167 0.3651 0.2611   -0.063057
 C 0.8736 0.3843 0.3953   0.632084
 C 0.8706 0.4416 0.314   -0.033583
 C 0.8013 0.382 0.2486   -0.078719
 C 0.7976 0.4309 0.1748   -0.139236
 C 0.8651 0.5554 0.1646   0.191683
 C 0.9392 0.61 0.2296   -0.161506
 C 0.9412 0.5578 0.3024   -0.053656
 C 0.0826 0.5662 0.8959   0.600573
 C 0.1096 0.5455 0.807   -0.03582
 C 0.0589 0.4356 0.7751   -0.076885
 C 0.0866 0.4154 0.6953   -0.144386
 C 0.1654 0.5044 0.6498   0.186877
 C 0.2146 0.6126 0.6806   -0.159089
 C 0.1833 0.6349 0.7611   -0.064363
 C 0.6264 0.6157 0.8953   0.632021
 C 0.6294 0.5584 0.814   -0.033563
 C 0.6987 0.618 0.7486   -0.078654
 C 0.7024 0.5691 0.6748   -0.139224
 C 0.6349 0.4446 0.6646   0.191659
 C 0.5608 0.39 0.7296   -0.161492
 C 0.5588 0.4422 0.8024   -0.053634
 C 0.5826 0.9338 0.1041   0.600568
 C 0.6096 0.9545 0.193   -0.035823
 C 0.5589 0.0644 0.2249   -0.076947
 C 0.5866 0.0846 0.3047   -0.144433
 C 0.6654 0.9956 0.3502   0.186917
 C 0.7146 0.8874 0.3194   -0.159122
 C 0.6833 0.8651 0.2389   -0.064381
 C 0.1264 0.8843 0.1047   0.632073
 C 0.1294 0.9416 0.186   -0.033721
 C 0.1987 0.882 0.2514   -0.07854
 C 0.2024 0.9309 0.3252   -0.139287
 C 0.1349 0.0554 0.3354   0.19176
 C 0.0608 0.11 0.2704   -0.161804
 C 0.0588 0.0578 0.1976   -0.053528
 C 0.9174 0.0662 0.6041   0.600568
 C 0.8904 0.0455 0.693   -0.035818
 C 0.9411 0.9356 0.7249   -0.076883
 C 0.9134 0.9154 0.8047   -0.14439
 C 0.8346 0.0044 0.8502   0.186906
 C 0.7854 0.1126 0.8194   -0.159097
 C 0.8167 0.1349 0.7389   -0.064358
 C 0.3736 0.1157 0.6047   0.632006
 C 0.3706 0.0584 0.686   -0.033565
 C 0.3013 0.118 0.7514   -0.078652
 C 0.2976 0.0691 0.8252   -0.139233
 C 0.3651 0.9446 0.8354   0.191676
 C 0.4392 0.89 0.7704   -0.161501
 C 0.4412 0.9422 0.6976   -0.053633
 N 0.2965 0.5205 0.0642   -0.162609
 N 0.8587 0.6089 0.0868   -0.200917
 N 0.2035 0.4795 0.5642   -0.162474
 N 0.6413 0.3911 0.5868   -0.200865
 N 0.7035 0.0205 0.4358   -0.162531
 N 0.1413 0.1089 0.4132   -0.200729
 N 0.7965 0.9795 0.9358   -0.16254
 N 0.3587 0.8911 0.9132   -0.200909
 O 0.4818 0.5117 0.4383   -0.526442
 O 0.3652 0.3313 0.4238   -0.56714
 O 0.8227 0.2764 0.3971   -0.588882
 O 0.9199 0.4446 0.454   -0.500256
 O 0.0182 0.4883 0.9383   -0.526372
 O 0.1348 0.6687 0.9238   -0.567123
 O 0.6773 0.7236 0.8971   -0.588913
 O 0.5801 0.5554 0.954   -0.50024
 O 0.5182 0.0117 0.0617   -0.526384
 O 0.6348 0.8313 0.0762   -0.567119
 O 0.1773 0.7764 0.1029   -0.588933
 O 0.0801 0.9446 0.046   -0.500325
 O 0.9818 0.9883 0.5617   -0.526365
 O 0.8652 0.1687 0.5762   -0.567103
 O 0.3227 0.2236 0.6029   -0.588887
 O 0.4199 0.0554 0.546   -0.500186
