{'_ref': 'TBD', '_srcid': 'CAKYAQ_clean', 'submitters': [{'name': 'Dalar Nazarian Jeff Camp and David Sholl', 'email': 'dalar@gatech.edu jcamp6@gatech.edu'}], '_method': 'VASP DFT with PBE;DDEC'}
data_Gd3P4H8(CO3)8
_symmetry_space_group_name_H-M   'P 1'
_cell_length_a   11.07570000
_cell_length_b   13.04330000
_cell_length_c   25.70140000
_cell_angle_alpha   90.00000000
_cell_angle_beta   90.00000000
_cell_angle_gamma   90.00000000
_symmetry_Int_Tables_number   1
_chemical_formula_structural   Gd3P4H8(CO3)8
_chemical_formula_sum   'Gd12 P16 H32 C32 O96'
_cell_volume   3712.91876887
_cell_formula_units_Z   4
loop_
 _symmetry_equiv_pos_site_id
 _symmetry_equiv_pos_as_xyz
  1  'x, y, z'
loop_
 _atom_site_label
 _atom_site_fract_x
 _atom_site_fract_y
 _atom_site_fract_z
 _atom_site_charge
 Gd 0.97942 0.65703 0.21878   2.220291
 Gd 0.47942 0.84297 0.28122   2.220291
 Gd 0.52058 0.65703 0.78122   2.220291
 Gd 0.02058 0.84297 0.71878   2.220291
 Gd 0.02058 0.34297 0.78122   2.220291
 Gd 0.52058 0.15703 0.71878   2.22029
 Gd 0.47942 0.34297 0.21878   2.220291
 Gd 0.97942 0.15703 0.28122   2.22029
 Gd 0.25 0.49213 0.0   2.186563
 Gd 0.75 0.00787 0.5   2.186563
 Gd 0.75 0.50787 0.0   2.186563
 Gd 0.25 0.99213 0.5   2.186563
 P 0.15275 0.81144 0.30396   1.492803
 P 0.31099 0.70174 0.08165   1.328824
 P 0.65275 0.68856 0.19604   1.492803
 P 0.81099 0.79826 0.41835   1.328824
 P 0.34725 0.81144 0.69604   1.492803
 P 0.18901 0.70174 0.91835   1.328824
 P 0.84725 0.68856 0.80396   1.492803
 P 0.68901 0.79826 0.58165   1.328824
 P 0.84725 0.18856 0.69604   1.492803
 P 0.68901 0.29826 0.91835   1.328824
 P 0.34725 0.31144 0.80396   1.492803
 P 0.18901 0.20174 0.58165   1.328824
 P 0.65275 0.18856 0.30396   1.492803
 P 0.81099 0.29826 0.08165   1.328824
 P 0.15275 0.31144 0.19604   1.492803
 P 0.31099 0.20174 0.41835   1.328824
 H 0.1006 0.8906 0.2246   0.15674
 H 0.1952 0.0084 0.2749   0.42731
 H 0.2626 0.5737 0.1415   0.162743
 H 0.248 0.6859 0.1923   0.422653
 H 0.6006 0.6094 0.2754   0.15674
 H 0.6952 0.4916 0.2251   0.42731
 H 0.7626 0.9263 0.3585   0.162743
 H 0.748 0.8141 0.3077   0.422653
 H 0.3994 0.8906 0.7754   0.15674
 H 0.3048 0.0084 0.7251   0.42731
 H 0.2374 0.5737 0.8585   0.162743
 H 0.252 0.6859 0.8077   0.422653
 H 0.8994 0.6094 0.7246   0.15674
 H 0.8048 0.4916 0.7749   0.42731
 H 0.7374 0.9263 0.6415   0.162743
 H 0.752 0.8141 0.6923   0.422653
 H 0.8994 0.1094 0.7754   0.15674
 H 0.8048 0.9916 0.7251   0.427309
 H 0.7374 0.4263 0.8585   0.162743
 H 0.752 0.3141 0.8077   0.422653
 H 0.3994 0.3906 0.7246   0.15674
 H 0.3048 0.5084 0.7749   0.427309
 H 0.2374 0.0737 0.6415   0.162743
 H 0.252 0.1859 0.6923   0.422653
 H 0.6006 0.1094 0.2246   0.15674
 H 0.6952 0.9916 0.2749   0.427309
 H 0.7626 0.4263 0.1415   0.162743
 H 0.748 0.3141 0.1923   0.422653
 H 0.1006 0.3906 0.2754   0.15674
 H 0.1952 0.5084 0.2251   0.427309
 H 0.2626 0.0737 0.3585   0.162743
 H 0.248 0.1859 0.3077   0.422653
 C 0.0818 0.9073 0.2617   -0.381687
 C 0.9451 0.9017 0.26989   0.779386
 C 0.2158 0.6348 0.12945   -0.355966
 C 0.0989 0.5941 0.1048   0.833354
 C 0.5818 0.5927 0.2383   -0.381687
 C 0.4451 0.5983 0.23011   0.779386
 C 0.7158 0.8652 0.37055   -0.355966
 C 0.5989 0.9059 0.3952   0.833354
 C 0.4182 0.9073 0.7383   -0.381687
 C 0.5549 0.9017 0.73011   0.779386
 C 0.2842 0.6348 0.87055   -0.355966
 C 0.4011 0.5941 0.8952   0.833353
 C 0.9182 0.5927 0.7617   -0.381687
 C 0.0549 0.5983 0.76989   0.779386
 C 0.7842 0.8652 0.62945   -0.355966
 C 0.9011 0.9059 0.6048   0.833353
 C 0.9182 0.0927 0.7383   -0.381687
 C 0.0549 0.0983 0.73011   0.779386
 C 0.7842 0.3652 0.87055   -0.355966
 C 0.9011 0.4059 0.8952   0.833353
 C 0.4182 0.4073 0.7617   -0.381687
 C 0.5549 0.4017 0.76989   0.779386
 C 0.2842 0.1348 0.62945   -0.355966
 C 0.4011 0.0941 0.6048   0.833354
 C 0.5818 0.0927 0.2617   -0.381687
 C 0.4451 0.0983 0.26989   0.779386
 C 0.7158 0.3652 0.12945   -0.355966
 C 0.5989 0.4059 0.1048   0.833353
 C 0.0818 0.4073 0.2383   -0.381687
 C 0.9451 0.4017 0.23011   0.779386
 C 0.2158 0.1348 0.37055   -0.355966
 C 0.0989 0.0941 0.3952   0.833353
 O 0.1215 0.7089 0.28085   -0.900459
 O 0.0987 0.8276 0.35946   -0.566706
 O 0.2833 0.8378 0.30722   -0.898508
 O 0.1221 0.0086 0.27274   -0.555927
 O 0.8973 0.8147 0.26448   -0.706228
 O 0.8893 0.9827 0.28109   -0.661276
 O 0.3581 0.6178 0.04621   -0.843425
 O 0.2344 0.7795 0.05048   -0.486498
 O 0.408 0.7578 0.11241   -0.5318
 O 0.1855 0.6927 0.17512   -0.58457
 O 0.1044 0.5577 0.06039   -0.742881
 O 0.0035 0.6011 0.13156   -0.701456
 O 0.6215 0.7911 0.21915   -0.900459
 O 0.5987 0.6724 0.14054   -0.566705
 O 0.7833 0.6622 0.19278   -0.898508
 O 0.6221 0.4914 0.22726   -0.555927
 O 0.3973 0.6853 0.23552   -0.706228
 O 0.3893 0.5173 0.21891   -0.661276
 O 0.8581 0.8822 0.45379   -0.843425
 O 0.7344 0.7205 0.44952   -0.486498
 O 0.908 0.7422 0.38759   -0.531799
 O 0.6855 0.8073 0.32488   -0.58457
 O 0.6044 0.9423 0.43961   -0.742881
 O 0.5035 0.8989 0.36844   -0.701456
 O 0.3785 0.7089 0.71915   -0.900459
 O 0.4013 0.8276 0.64054   -0.566706
 O 0.2167 0.8378 0.69278   -0.898508
 O 0.3779 0.0086 0.72726   -0.555927
 O 0.6027 0.8147 0.73552   -0.706228
 O 0.6107 0.9827 0.71891   -0.661276
 O 0.1419 0.6178 0.95379   -0.843425
 O 0.2656 0.7795 0.94952   -0.486495
 O 0.092 0.7578 0.88759   -0.5318
 O 0.3145 0.6927 0.82488   -0.58457
 O 0.3956 0.5577 0.93961   -0.742881
 O 0.4965 0.6011 0.86844   -0.701456
 O 0.8785 0.7911 0.78085   -0.900459
 O 0.9013 0.6724 0.85946   -0.566705
 O 0.7167 0.6622 0.80722   -0.898508
 O 0.8779 0.4914 0.77274   -0.555927
 O 0.1027 0.6853 0.76448   -0.706228
 O 0.1107 0.5173 0.78109   -0.661276
 O 0.6419 0.8822 0.54621   -0.843425
 O 0.7656 0.7205 0.55048   -0.486495
 O 0.592 0.7422 0.61241   -0.531799
 O 0.8145 0.8073 0.67512   -0.58457
 O 0.8956 0.9423 0.56039   -0.742881
 O 0.9965 0.8989 0.63156   -0.701456
 O 0.8785 0.2911 0.71915   -0.900459
 O 0.9013 0.1724 0.64054   -0.566706
 O 0.7167 0.1622 0.69278   -0.898508
 O 0.8779 0.9914 0.72726   -0.555927
 O 0.1027 0.1853 0.73552   -0.706228
 O 0.1107 0.0173 0.71891   -0.661276
 O 0.6419 0.3822 0.95379   -0.843425
 O 0.7656 0.2205 0.94952   -0.486498
 O 0.592 0.2422 0.88759   -0.5318
 O 0.8145 0.3073 0.82488   -0.58457
 O 0.8956 0.4423 0.93961   -0.742881
 O 0.9965 0.3989 0.86844   -0.701456
 O 0.3785 0.2089 0.78085   -0.900459
 O 0.4013 0.3276 0.85946   -0.566705
 O 0.2167 0.3378 0.80722   -0.898508
 O 0.3779 0.5086 0.77274   -0.555927
 O 0.6027 0.3147 0.76448   -0.706228
 O 0.6107 0.4827 0.78109   -0.661276
 O 0.1419 0.1178 0.54621   -0.843425
 O 0.2656 0.2795 0.55048   -0.486498
 O 0.092 0.2578 0.61241   -0.531799
 O 0.3145 0.1927 0.67512   -0.58457
 O 0.3956 0.0577 0.56039   -0.742881
 O 0.4965 0.1011 0.63156   -0.701456
 O 0.6215 0.2911 0.28085   -0.900459
 O 0.5987 0.1724 0.35946   -0.566706
 O 0.7833 0.1622 0.30722   -0.898508
 O 0.6221 0.9914 0.27274   -0.555927
 O 0.3973 0.1853 0.26448   -0.706228
 O 0.3893 0.0173 0.28109   -0.661276
 O 0.8581 0.3822 0.04621   -0.843425
 O 0.7344 0.2205 0.05048   -0.486495
 O 0.908 0.2422 0.11241   -0.5318
 O 0.6855 0.3073 0.17512   -0.58457
 O 0.6044 0.4423 0.06039   -0.742881
 O 0.5035 0.3989 0.13156   -0.701456
 O 0.1215 0.2089 0.21915   -0.900459
 O 0.0987 0.3276 0.14054   -0.566705
 O 0.2833 0.3378 0.19278   -0.898508
 O 0.1221 0.5086 0.22726   -0.555927
 O 0.8973 0.3147 0.23552   -0.706228
 O 0.8893 0.4827 0.21891   -0.661276
 O 0.3581 0.1178 0.45379   -0.843425
 O 0.2344 0.2795 0.44952   -0.486495
 O 0.408 0.2578 0.38759   -0.531799
 O 0.1855 0.1927 0.32488   -0.58457
 O 0.1044 0.0577 0.43961   -0.742881
 O 0.0035 0.1011 0.36844   -0.701456
