{'_ref': 'TBD', '_srcid': 'CAKYAQ_clean', 'submitters': [{'name': 'Dalar Nazarian Jeff Camp and David Sholl', 'email': 'dalar@gatech.edu jcamp6@gatech.edu'}], '_method': 'VASP DFT with PBE;DDEC'}
data_CdH30C30(N6F)2
_symmetry_space_group_name_H-M   'P 1'
_cell_length_a   10.92619980
_cell_length_b   10.92620027
_cell_length_c   10.92620000
_cell_angle_alpha   66.54680153
_cell_angle_beta   66.54680047
_cell_angle_gamma   66.54680294
_symmetry_Int_Tables_number   1
_chemical_formula_structural   CdH30C30(N6F)2
_chemical_formula_sum   'Cd1 H30 C30 N12 F2'
_cell_volume   1052.342653
_cell_formula_units_Z   1
loop_
 _symmetry_equiv_pos_site_id
 _symmetry_equiv_pos_as_xyz
  1  'x, y, z'
loop_
 _atom_site_label
 _atom_site_fract_x
 _atom_site_fract_y
 _atom_site_fract_z
 _atom_site_charge
 Cd 0.0 0.0 0.0   0.808111
 H 0.8285 0.2996 0.4303   0.112638
 H 0.4303 0.8285 0.2996   0.112638
 H 0.2996 0.4303 0.8285   0.112638
 H 0.7004 0.1715 0.5697   0.112632
 H 0.1715 0.5697 0.7004   0.112632
 H 0.5697 0.7004 0.1715   0.112632
 H 0.1715 0.7004 0.5697   0.112639
 H 0.5697 0.1715 0.7004   0.112639
 H 0.7004 0.5697 0.1715   0.112639
 H 0.2996 0.8285 0.4303   0.112632
 H 0.8285 0.4303 0.2996   0.112633
 H 0.4303 0.2996 0.8285   0.112632
 H 0.6676 0.1559 0.1559   0.104632
 H 0.5749 0.30575 0.30575   0.133905
 H 0.1559 0.6676 0.1559   0.104632
 H 0.30575 0.5749 0.30575   0.13391
 H 0.1559 0.1559 0.6676   0.104632
 H 0.30575 0.30575 0.5749   0.133916
 H 0.8441 0.3324 0.8441   0.104631
 H 0.69425 0.4251 0.69425   0.133905
 H 0.3324 0.8441 0.8441   0.104631
 H 0.4251 0.69425 0.69425   0.133911
 H 0.8441 0.8441 0.3324   0.104632
 H 0.69425 0.69425 0.4251   0.133916
 H 0.80035 0.80035 0.0177   0.105231
 H 0.0177 0.80035 0.80035   0.105228
 H 0.80035 0.0177 0.80035   0.105225
 H 0.19965 0.19965 0.9823   0.105231
 H 0.19965 0.9823 0.19965   0.105228
 H 0.9823 0.19965 0.19965   0.105225
 C 0.892 0.20705 0.20705   0.157818
 C 0.7205 0.18345 0.18345   0.032422
 C 0.6685 0.266 0.266   -0.199606
 C 0.7793 0.36135 0.36135   -0.0704
 C 0.63382 0.43337 0.43337   -0.019978
 C 0.20705 0.892 0.20705   0.157813
 C 0.18345 0.7205 0.18345   0.032422
 C 0.266 0.6685 0.266   -0.199603
 C 0.36135 0.7793 0.36135   -0.070399
 C 0.43337 0.63382 0.43337   -0.019979
 C 0.20705 0.20705 0.892   0.157806
 C 0.18345 0.18345 0.7205   0.032422
 C 0.266 0.266 0.6685   -0.199602
 C 0.36135 0.36135 0.7793   -0.070399
 C 0.43337 0.43337 0.63382   -0.019979
 C 0.79295 0.108 0.79295   0.157819
 C 0.81655 0.2795 0.81655   0.03243
 C 0.734 0.3315 0.734   -0.199603
 C 0.63865 0.2207 0.63865   -0.070401
 C 0.56663 0.36618 0.56663   -0.019967
 C 0.108 0.79295 0.79295   0.157812
 C 0.2795 0.81655 0.81655   0.03243
 C 0.3315 0.734 0.734   -0.199605
 C 0.2207 0.63865 0.63865   -0.070403
 C 0.36618 0.56663 0.56663   -0.019966
 C 0.79295 0.79295 0.108   0.157807
 C 0.81655 0.81655 0.2795   0.03243
 C 0.734 0.734 0.3315   -0.199602
 C 0.63865 0.63865 0.2207   -0.070401
 C 0.56663 0.56663 0.36618   -0.019967
 N 0.85452 0.85452 0.13847   -0.372241
 N 0.13847 0.85452 0.85452   -0.372242
 N 0.85452 0.13847 0.85452   -0.372243
 N 0.14548 0.14548 0.86153   -0.372241
 N 0.14548 0.86153 0.14548   -0.372241
 N 0.86153 0.14548 0.14548   -0.372242
 N 0.77914 0.28064 0.28064   0.050249
 N 0.28064 0.77914 0.28064   0.050247
 N 0.28064 0.28064 0.77914   0.050248
 N 0.71936 0.22086 0.71936   0.050247
 N 0.22086 0.71936 0.71936   0.050251
 N 0.71936 0.71936 0.22086   0.050248
 F 0.19503 0.19503 0.19503   -0.845984
 F 0.80497 0.80497 0.80497   -0.845984
