{'_ref': 'TBD', '_srcid': 'CAKYAQ_clean', 'submitters': [{'name': 'Dalar Nazarian Jeff Camp and David Sholl', 'email': 'dalar@gatech.edu jcamp6@gatech.edu'}], '_method': 'VASP DFT with PBE;DDEC'}
data_CdH8C15(NO2)2
_symmetry_space_group_name_H-M   'P 1'
_cell_length_a   14.76600027
_cell_length_b   17.64089993
_cell_length_c   17.64090000
_cell_angle_alpha   79.91230137
_cell_angle_beta   65.25909972
_cell_angle_gamma   65.25900176
_symmetry_Int_Tables_number   1
_chemical_formula_structural   CdH8C15(NO2)2
_chemical_formula_sum   'Cd8 H64 C120 N16 O32'
_cell_volume   3790.32310228
_cell_formula_units_Z   8
loop_
 _symmetry_equiv_pos_site_id
 _symmetry_equiv_pos_as_xyz
  1  'x, y, z'
loop_
 _atom_site_label
 _atom_site_fract_x
 _atom_site_fract_y
 _atom_site_fract_z
 _atom_site_charge
 Cd 0.53773 0.5828 0.42678   1.057524
 Cd 0.04731 0.9172 0.07322   1.056991
 Cd 0.96451 0.57322 0.0828   1.058169
 Cd 0.12053 0.92678 0.4172   1.057162
 Cd 0.46227 0.4172 0.57322   1.057524
 Cd 0.95269 0.0828 0.92678   1.056991
 Cd 0.03549 0.42678 0.9172   1.058169
 Cd 0.87947 0.07322 0.5828   1.057162
 H 0.6738 0.4308 0.1686   0.379714
 H 0.748 0.7484 0.2194   0.083244
 H 0.7598 0.8513 0.2799   0.122146
 H 0.7781 0.5879 0.4115   0.119062
 H 0.7808 0.8693 0.5259   0.107152
 H 0.8242 0.7331 0.5759   0.104873
 H 0.7886 0.6342 0.5302   0.126025
 H 0.7724 0.8956 0.3914   0.110358
 H 0.7732 0.0692 0.3314   0.379685
 H 0.2158 0.7516 0.2806   0.082803
 H 0.391 0.6487 0.2201   0.122383
 H 0.2775 0.9121 0.0885   0.11897
 H 0.676 0.6307 0.9741   0.107263
 H 0.6332 0.7669 0.9241   0.102446
 H 0.453 0.8658 0.9698   0.125389
 H 0.5594 0.6044 0.1086   0.110623
 H 0.8424 0.8314 0.9308   0.379709
 H 0.9674 0.7806 0.2484   0.083784
 H 0.0397 0.7201 0.3513   0.121798
 H 0.1896 0.5885 0.0879   0.119678
 H 0.3067 0.4741 0.3693   0.107723
 H 0.4001 0.4241 0.2331   0.103042
 H 0.3188 0.4698 0.1342   0.125394
 H 0.1638 0.6086 0.3956   0.111013
 H 0.1046 0.6686 0.5692   0.380364
 H 0.4964 0.7194 0.2516   0.082692
 H 0.6111 0.7799 0.1487   0.122061
 H 0.366 0.9115 0.4121   0.118964
 H 0.6501 0.0259 0.1307   0.109434
 H 0.5573 0.0759 0.2669   0.102969
 H 0.4228 0.0302 0.3658   0.125479
 H 0.668 0.8914 0.1044   0.110085
 H 0.3262 0.5692 0.8314   0.379714
 H 0.252 0.2516 0.7806   0.083244
 H 0.2402 0.1487 0.7201   0.122146
 H 0.2219 0.4121 0.5885   0.119062
 H 0.2192 0.1307 0.4741   0.107152
 H 0.1758 0.2669 0.4241   0.104873
 H 0.2114 0.3658 0.4698   0.126025
 H 0.2276 0.1044 0.6086   0.110359
 H 0.2268 0.9308 0.6686   0.379685
 H 0.7842 0.2484 0.7194   0.082803
 H 0.609 0.3513 0.7799   0.122383
 H 0.7225 0.0879 0.9115   0.118971
 H 0.324 0.3693 0.0259   0.107263
 H 0.3668 0.2331 0.0759   0.102446
 H 0.547 0.1342 0.0302   0.125389
 H 0.4406 0.3956 0.8914   0.110623
 H 0.1576 0.1686 0.0692   0.379709
 H 0.0326 0.2194 0.7516   0.083784
 H 0.9603 0.2799 0.6487   0.121798
 H 0.8104 0.4115 0.9121   0.119678
 H 0.6933 0.5259 0.6307   0.107723
 H 0.5999 0.5759 0.7669   0.103042
 H 0.6812 0.5302 0.8658   0.125394
 H 0.8362 0.3914 0.6044   0.111013
 H 0.8954 0.3314 0.4308   0.380364
 H 0.5036 0.2806 0.7484   0.082692
 H 0.3889 0.2201 0.8513   0.122061
 H 0.634 0.0885 0.5879   0.118964
 H 0.3499 0.9741 0.8693   0.109434
 H 0.4427 0.9241 0.7331   0.102969
 H 0.5772 0.9698 0.6342   0.125479
 H 0.332 0.1086 0.8956   0.110085
 C 0.7518 0.5991 0.2669   0.443203
 C 0.6844 0.5187 0.2473   -0.027548
 C 0.6103 0.4766 0.2686   0.6206
 C 0.7713 0.5217 0.1743   0.022107
 C 0.8209 0.4777 0.0945   0.632347
 C 0.7634 0.6584 0.3078   -0.099361
 C 0.7562 0.7374 0.2702   -0.086218
 C 0.7807 0.7013 0.4225   0.05772
 C 0.7666 0.7816 0.3862   0.048731
 C 0.7607 0.8007 0.3065   -0.112588
 C 0.7747 0.6392 0.3856   -0.139092
 C 0.7852 0.8277 0.4971   -0.080543
 C 0.803 0.7461 0.5309   -0.087661
 C 0.7904 0.6831 0.5009   -0.141696
 C 0.7744 0.8453 0.4191   -0.139973
 C 0.1178 0.9009 0.2331   0.443768
 C 0.9504 0.9813 0.2527   -0.027298
 C 0.8555 0.0234 0.2314   0.619279
 C 0.9673 0.9783 0.3257   0.022565
 C 0.8931 0.0223 0.4055   0.635654
 C 0.2296 0.8416 0.1922   -0.098187
 C 0.2638 0.7626 0.2298   -0.085411
 C 0.4045 0.7987 0.0775   0.056184
 C 0.4344 0.7184 0.1138   0.049329
 C 0.3679 0.6993 0.1935   -0.113198
 C 0.2995 0.8608 0.1144   -0.139003
 C 0.61 0.6723 0.0029   -0.082949
 C 0.58 0.7539 0.9691   -0.081974
 C 0.4744 0.8169 0.9991   -0.140951
 C 0.5388 0.6547 0.0809   -0.140574
 C 0.0187 0.7331 0.0991   0.442578
 C 0.9317 0.7527 0.0187   -0.025728
 C 0.8789 0.7314 0.9766   0.616321
 C 0.9456 0.8257 0.0217   0.022993
 C 0.9154 0.9055 0.9777   0.632114
 C 0.0712 0.6922 0.1584   -0.098262
 C 0.0264 0.7298 0.2374   -0.085165
 C 0.2032 0.5775 0.2013   0.056478
 C 0.1528 0.6138 0.2816   0.050332
 C 0.0672 0.6935 0.3007   -0.11449
 C 0.1603 0.6144 0.1392   -0.140746
 C 0.2823 0.5029 0.3277   -0.083605
 C 0.3339 0.4691 0.2461   -0.081666
 C 0.2913 0.4991 0.1831   -0.141598
 C 0.1935 0.5809 0.3453   -0.140856
 C 0.3509 0.7669 0.4009   0.441366
 C 0.2031 0.7473 0.4813   -0.024359
 C 0.0869 0.7686 0.5234   0.616233
 C 0.293 0.6743 0.4783   0.018045
 C 0.2986 0.5945 0.5223   0.635176
 C 0.4218 0.8078 0.3416   -0.101137
 C 0.4936 0.7702 0.2626   -0.082727
 C 0.482 0.9225 0.2987   0.055805
 C 0.5482 0.8862 0.2184   0.051327
 C 0.5614 0.8065 0.1993   -0.115531
 C 0.4139 0.8856 0.3608   -0.137045
 C 0.6129 0.9971 0.1723   -0.086341
 C 0.5491 0.0309 0.2539   -0.08295
 C 0.4735 0.000900000000001 0.3169   -0.141505
 C 0.6197 0.9191 0.1547   -0.13859
 C 0.2482 0.4009 0.7331   0.443203
 C 0.3156 0.4813 0.7527   -0.027548
 C 0.3897 0.5234 0.7314   0.6206
 C 0.2287 0.4783 0.8257   0.022107
 C 0.1791 0.5223 0.9055   0.632347
 C 0.2366 0.3416 0.6922   -0.099361
 C 0.2438 0.2626 0.7298   -0.086218
 C 0.2193 0.2987 0.5775   0.057721
 C 0.2334 0.2184 0.6138   0.048731
 C 0.2393 0.1993 0.6935   -0.112588
 C 0.2253 0.3608 0.6144   -0.139092
 C 0.2148 0.1723 0.5029   -0.080543
 C 0.197 0.2539 0.4691   -0.087661
 C 0.2096 0.3169 0.4991   -0.141697
 C 0.2256 0.1547 0.5809   -0.139973
 C 0.8822 0.0991 0.7669   0.443768
 C 0.0496 0.0187 0.7473   -0.027298
 C 0.1445 0.9766 0.7686   0.619279
 C 0.0327 0.0217 0.6743   0.022565
 C 0.1069 0.9777 0.5945   0.635654
 C 0.7704 0.1584 0.8078   -0.098186
 C 0.7362 0.2374 0.7702   -0.085411
 C 0.5955 0.2013 0.9225   0.056184
 C 0.5656 0.2816 0.8862   0.049329
 C 0.6321 0.3007 0.8065   -0.113198
 C 0.7005 0.1392 0.8856   -0.139003
 C 0.39 0.3277 0.9971   -0.082949
 C 0.42 0.2461 0.0309   -0.081974
 C 0.5256 0.1831 0.000900000000001   -0.140951
 C 0.4612 0.3453 0.9191   -0.140574
 C 0.9813 0.2669 0.9009   0.442578
 C 0.0683 0.2473 0.9813   -0.025728
 C 0.1211 0.2686 0.0234   0.616321
 C 0.0544 0.1743 0.9783   0.022993
 C 0.0846 0.0945 0.0223   0.632114
 C 0.9288 0.3078 0.8416   -0.098262
 C 0.9736 0.2702 0.7626   -0.085165
 C 0.7968 0.4225 0.7987   0.056478
 C 0.8472 0.3862 0.7184   0.050332
 C 0.9328 0.3065 0.6993   -0.11449
 C 0.8397 0.3856 0.8608   -0.140746
 C 0.7177 0.4971 0.6723   -0.083605
 C 0.6661 0.5309 0.7539   -0.081666
 C 0.7087 0.5009 0.8169   -0.141598
 C 0.8065 0.4191 0.6547   -0.140856
 C 0.6491 0.2331 0.5991   0.441366
 C 0.7969 0.2527 0.5187   -0.024359
 C 0.9131 0.2314 0.4766   0.616233
 C 0.707 0.3257 0.5217   0.018045
 C 0.7014 0.4055 0.4777   0.635177
 C 0.5782 0.1922 0.6584   -0.101137
 C 0.5064 0.2298 0.7374   -0.082727
 C 0.518 0.0775 0.7013   0.055805
 C 0.4518 0.1138 0.7816   0.051327
 C 0.4386 0.1935 0.8007   -0.115531
 C 0.5861 0.1144 0.6392   -0.137045
 C 0.3871 0.0029 0.8277   -0.086341
 C 0.4509 0.9691 0.7461   -0.08295
 C 0.5265 0.9991 0.6831   -0.141505
 C 0.3803 0.0809 0.8453   -0.13859
 N 0.6714 0.5695 0.3059   -0.467922
 N 0.8116 0.5724 0.1884   -0.459063
 N 0.0468 0.9305 0.1941   -0.469502
 N 0.0724 0.9276 0.3116   -0.458791
 N 0.9773 0.6941 0.0695   -0.468228
 N 0.0 0.8116 0.0724   -0.460082
 N 0.2409 0.8059 0.4305   -0.467224
 N 0.384 0.6884 0.4276   -0.456017
 N 0.3286 0.4305 0.6941   -0.467922
 N 0.1884 0.4276 0.8116   -0.459063
 N 0.9532 0.0695 0.8059   -0.469502
 N 0.9276 0.0724 0.6884   -0.458791
 N 0.0227 0.3059 0.9305   -0.468228
 N 0.0 0.1884 0.9276   -0.460082
 N 0.7591 0.1941 0.5695   -0.467224
 N 0.616 0.3116 0.5724   -0.456017
 O 0.537 0.4849 0.3383   -0.530149
 O 0.6238 0.4288 0.212   -0.484906
 O 0.9027 0.4878 0.0412   -0.608574
 O 0.7813 0.431 0.0836   -0.569808
 O 0.8602 0.0151 0.1617   -0.53028
 O 0.7646 0.0712 0.288   -0.484467
 O 0.9317 0.0122 0.4588   -0.610967
 O 0.7959 0.069 0.4164   -0.570059
 O 0.8753 0.6617 0.9849   -0.52943
 O 0.8358 0.788 0.9288   -0.482422
 O 0.9439 0.9588 0.9878   -0.608704
 O 0.8649 0.9164 0.931   -0.569259
 O 0.0219 0.8383 0.5151   -0.5289
 O 0.0526 0.712 0.5712   -0.484672
 O 0.3905 0.5412 0.5122   -0.611156
 O 0.2123 0.5836 0.569   -0.569315
 O 0.463 0.5151 0.6617   -0.530149
 O 0.3762 0.5712 0.788   -0.484907
 O 0.0973 0.5122 0.9588   -0.608574
 O 0.2187 0.569 0.9164   -0.569808
 O 0.1398 0.9849 0.8383   -0.53028
 O 0.2354 0.9288 0.712   -0.484467
 O 0.0683 0.9878 0.5412   -0.610967
 O 0.2041 0.931 0.5836   -0.570059
 O 0.1247 0.3383 0.0151   -0.52943
 O 0.1642 0.212 0.0712   -0.482422
 O 0.0561 0.0412 0.0122   -0.608704
 O 0.1351 0.0836 0.069   -0.569259
 O 0.9781 0.1617 0.4849   -0.5289
 O 0.9474 0.288 0.4288   -0.484672
 O 0.6095 0.4588 0.4878   -0.611156
 O 0.7877 0.4164 0.431   -0.569315
