{'_ref': 'TBD', '_srcid': 'CAKYAQ_clean', 'submitters': [{'name': 'Dalar Nazarian Jeff Camp and David Sholl', 'email': 'dalar@gatech.edu jcamp6@gatech.edu'}], '_method': 'VASP DFT with PBE;DDEC'}
data_DyH3(C3O2)3
_symmetry_space_group_name_H-M   'P 1'
_cell_length_a   10.90970039
_cell_length_b   10.90969979
_cell_length_c   19.51000000
_cell_angle_alpha   75.46870149
_cell_angle_beta   75.46870230
_cell_angle_gamma   64.10820098
_symmetry_Int_Tables_number   1
_chemical_formula_structural   DyH3(C3O2)3
_chemical_formula_sum   'Dy4 H12 C36 O24'
_cell_volume   1995.37799902
_cell_formula_units_Z   4
loop_
 _symmetry_equiv_pos_site_id
 _symmetry_equiv_pos_as_xyz
  1  'x, y, z'
loop_
 _atom_site_label
 _atom_site_fract_x
 _atom_site_fract_y
 _atom_site_fract_z
 _atom_site_charge
 Dy 0.75382 0.09646 0.08305   2.188663
 Dy 0.90354 0.24618 0.41695   2.188663
 Dy 0.24618 0.90354 0.91695   2.188663
 Dy 0.09646 0.75382 0.58305   2.188663
 H 0.3312 0.0998 0.0317   0.113572
 H 0.2977 0.1881 0.2238   0.116971
 H 0.9808 0.1572 0.1723   0.104174
 H 0.9002 0.6688 0.4683   0.113572
 H 0.8119 0.7023 0.2762   0.11697
 H 0.8428 0.0192 0.3277   0.104173
 H 0.6688 0.9002 0.9683   0.113571
 H 0.7023 0.8119 0.7762   0.116971
 H 0.0192 0.8428 0.8277   0.104174
 H 0.0998 0.3312 0.5317   0.113571
 H 0.1881 0.2977 0.7238   0.11697
 H 0.1572 0.9808 0.6723   0.104173
 C 0.0862 0.0932 0.0438   0.829097
 C 0.1496 0.1218 0.0951   -0.225406
 C 0.2808 0.1182 0.0767   0.041952
 C 0.3376 0.1416 0.1248   -0.168329
 C 0.2599 0.1711 0.1913   0.034815
 C 0.1288 0.1754 0.2097   -0.159843
 C 0.0708 0.1522 0.1609   0.043453
 C 0.4844 0.1304 0.1062   0.724916
 C 0.046 0.202 0.2829   0.693284
 C 0.9068 0.9138 0.4562   0.829097
 C 0.8782 0.8504 0.4049   -0.225406
 C 0.8818 0.7192 0.4233   0.041953
 C 0.8584 0.6624 0.3752   -0.168329
 C 0.8289 0.7401 0.3087   0.034815
 C 0.8246 0.8712 0.2903   -0.159843
 C 0.8478 0.9292 0.3391   0.043453
 C 0.8696 0.5156 0.3938   0.724916
 C 0.798 0.954 0.2171   0.693284
 C 0.9138 0.9068 0.9562   0.829097
 C 0.8504 0.8782 0.9049   -0.225406
 C 0.7192 0.8818 0.9233   0.041952
 C 0.6624 0.8584 0.8752   -0.168329
 C 0.7401 0.8289 0.8087   0.034815
 C 0.8712 0.8246 0.7903   -0.159843
 C 0.9292 0.8478 0.8391   0.043453
 C 0.5156 0.8696 0.8938   0.724916
 C 0.954 0.798 0.7171   0.693284
 C 0.0932 0.0862 0.5438   0.829097
 C 0.1218 0.1496 0.5951   -0.225407
 C 0.1182 0.2808 0.5767   0.041953
 C 0.1416 0.3376 0.6248   -0.168329
 C 0.1711 0.2599 0.6913   0.034815
 C 0.1754 0.1288 0.7097   -0.159843
 C 0.1522 0.0708 0.6609   0.043453
 C 0.1304 0.4844 0.6062   0.724916
 C 0.202 0.046 0.7829   0.693284
 O 0.1509 0.0815 0.9816   -0.723926
 O 0.5541 0.0997 0.0509   -0.701796
 O 0.5285 0.1591 0.151   -0.746596
 O 0.105 0.205 0.3291   -0.660095
 O 0.9252 0.2168 0.2952   -0.658173
 O 0.9727 0.0819 0.0654   -0.846733
 O 0.9185 0.8491 0.5184   -0.723926
 O 0.9003 0.4459 0.4491   -0.701796
 O 0.8409 0.4715 0.349   -0.746597
 O 0.795 0.895 0.1709   -0.660095
 O 0.7832 0.0748 0.2048   -0.658173
 O 0.9181 0.0273 0.4346   -0.846733
 O 0.8491 0.9185 0.0184   -0.723926
 O 0.4459 0.9003 0.9491   -0.701796
 O 0.4715 0.8409 0.849   -0.746596
 O 0.895 0.795 0.6709   -0.660095
 O 0.0748 0.7832 0.7048   -0.658173
 O 0.0273 0.9181 0.9346   -0.846733
 O 0.0815 0.1509 0.4816   -0.723926
 O 0.0997 0.5541 0.5509   -0.701796
 O 0.1591 0.5285 0.651   -0.746597
 O 0.205 0.105 0.8291   -0.660095
 O 0.2168 0.9252 0.7952   -0.658173
 O 0.0819 0.9727 0.5654   -0.846733
