{'_ref': 'TBD', '_srcid': 'CAKYAQ_clean', 'submitters': [{'name': 'Dalar Nazarian Jeff Camp and David Sholl', 'email': 'dalar@gatech.edu jcamp6@gatech.edu'}], '_method': 'VASP DFT with PBE;DDEC'}
data_TmH3(C3O2)3
_symmetry_space_group_name_H-M   'P 1'
_cell_length_a   10.86619956
_cell_length_b   10.86620009
_cell_length_c   19.63200000
_cell_angle_alpha   75.61050139
_cell_angle_beta   75.61050067
_cell_angle_gamma   64.47650104
_symmetry_Int_Tables_number   1
_chemical_formula_structural   TmH3(C3O2)3
_chemical_formula_sum   'Tm4 H12 C36 O24'
_cell_volume   1999.49216246
_cell_formula_units_Z   4
loop_
 _symmetry_equiv_pos_site_id
 _symmetry_equiv_pos_as_xyz
  1  'x, y, z'
loop_
 _atom_site_label
 _atom_site_fract_x
 _atom_site_fract_y
 _atom_site_fract_z
 _atom_site_charge
 Tm 0.75436 0.0958 0.08307   2.061062
 Tm 0.9042 0.24564 0.41693   2.061062
 Tm 0.24564 0.9042 0.91693   2.061061
 Tm 0.0958 0.75436 0.58307   2.061061
 H 0.3324 0.0984 0.032   0.119585
 H 0.9814 0.1548 0.1725   0.102544
 H 0.2983 0.1923 0.2231   0.117851
 H 0.9016 0.6676 0.468   0.119585
 H 0.8452 0.0186 0.3275   0.102543
 H 0.8077 0.7017 0.2769   0.117851
 H 0.6676 0.9016 0.968   0.119584
 H 0.0186 0.8452 0.8275   0.102544
 H 0.7017 0.8077 0.7769   0.117851
 H 0.0984 0.3324 0.532   0.119584
 H 0.1548 0.9814 0.6725   0.102543
 H 0.1923 0.2983 0.7231   0.11785
 C 0.4846 0.1318 0.1079   0.689846
 C 0.3366 0.143 0.1254   -0.162349
 C 0.2813 0.1177 0.0765   0.042361
 C 0.1476 0.1218 0.0952   -0.213877
 C 0.071 0.1518 0.1608   0.040987
 C 0.1282 0.178 0.2104   -0.158087
 C 0.2598 0.174 0.1913   0.030928
 C 0.0448 0.2044 0.283   0.672286
 C 0.0849 0.0913 0.0438   0.8054
 C 0.8682 0.5154 0.3921   0.689846
 C 0.857 0.6634 0.3746   -0.162349
 C 0.8823 0.7187 0.4235   0.042361
 C 0.8782 0.8524 0.4048   -0.213877
 C 0.8482 0.929 0.3392   0.040987
 C 0.822 0.8718 0.2896   -0.158087
 C 0.826 0.7402 0.3087   0.030928
 C 0.7956 0.9552 0.217   0.672286
 C 0.9087 0.9151 0.4562   0.8054
 C 0.5154 0.8682 0.8921   0.689846
 C 0.6634 0.857 0.8746   -0.162349
 C 0.7187 0.8823 0.9235   0.042361
 C 0.8524 0.8782 0.9048   -0.213878
 C 0.929 0.8482 0.8392   0.040986
 C 0.8718 0.822 0.7896   -0.158087
 C 0.7402 0.826 0.8087   0.030928
 C 0.9552 0.7956 0.717   0.672286
 C 0.9151 0.9087 0.9562   0.805399
 C 0.1318 0.4846 0.6079   0.689846
 C 0.143 0.3366 0.6254   -0.162349
 C 0.1177 0.2813 0.5765   0.042361
 C 0.1218 0.1476 0.5952   -0.213878
 C 0.1518 0.071 0.6608   0.040986
 C 0.178 0.1282 0.7104   -0.158087
 C 0.174 0.2598 0.6913   0.030928
 C 0.2044 0.0448 0.783   0.672286
 C 0.0913 0.0849 0.5438   0.805399
 O 0.5573 0.0909 0.0528   -0.678471
 O 0.5294 0.1688 0.1488   -0.69607
 O 0.1038 0.2082 0.3302   -0.638285
 O 0.9232 0.2164 0.2966   -0.623899
 O 0.9725 0.0797 0.0663   -0.801972
 O 0.1497 0.0813 0.981   -0.709837
 O 0.9091 0.4427 0.4472   -0.678471
 O 0.8312 0.4706 0.3512   -0.69607
 O 0.7918 0.8962 0.1698   -0.638285
 O 0.7836 0.0768 0.2034   -0.623899
 O 0.9203 0.0275 0.4337   -0.801972
 O 0.9187 0.8503 0.519   -0.709837
 O 0.4427 0.9091 0.9472   -0.678471
 O 0.4706 0.8312 0.8512   -0.69607
 O 0.8962 0.7918 0.6698   -0.638285
 O 0.0768 0.7836 0.7034   -0.623899
 O 0.0275 0.9203 0.9337   -0.801972
 O 0.8503 0.9187 0.019   -0.709837
 O 0.0909 0.5573 0.5528   -0.678471
 O 0.1688 0.5294 0.6488   -0.69607
 O 0.2082 0.1038 0.8302   -0.638285
 O 0.2164 0.9232 0.7966   -0.623899
 O 0.0797 0.9725 0.5663   -0.801972
 O 0.0813 0.1497 0.481   -0.709837
