{'_ref': 'TBD', '_srcid': 'CAKYAQ_clean', 'submitters': [{'name': 'Dalar Nazarian Jeff Camp and David Sholl', 'email': 'dalar@gatech.edu jcamp6@gatech.edu'}], '_method': 'VASP DFT with PBE;DDEC'}
data_YbH3(C3O2)3
_symmetry_space_group_name_H-M   'P 1'
_cell_length_a   10.83079977
_cell_length_b   10.83080005
_cell_length_c   19.55700000
_cell_angle_alpha   75.69249846
_cell_angle_beta   75.69249808
_cell_angle_gamma   64.70670001
_symmetry_Int_Tables_number   1
_chemical_formula_structural   YbH3(C3O2)3
_chemical_formula_sum   'Yb4 H12 C36 O24'
_cell_volume   1983.48332374
_cell_formula_units_Z   4
loop_
 _symmetry_equiv_pos_site_id
 _symmetry_equiv_pos_as_xyz
  1  'x, y, z'
loop_
 _atom_site_label
 _atom_site_fract_x
 _atom_site_fract_y
 _atom_site_fract_z
 _atom_site_charge
 Yb 0.59575 0.25461 0.08293   1.477023
 Yb 0.74539 0.40425 0.41707   1.477022
 Yb 0.40425 0.74539 0.91707   1.477022
 Yb 0.25461 0.59575 0.58293   1.477022
 H 0.514 0.344 0.327   0.08084
 H 0.223 0.313 0.284   0.003196
 H 0.174 0.4 0.471   0.115976
 H 0.656 0.486 0.173   0.08084
 H 0.687 0.777 0.216   0.003196
 H 0.6 0.826 0.029   0.115976
 H 0.486 0.656 0.673   0.08084
 H 0.777 0.687 0.716   0.003196
 H 0.826 0.6 0.529   0.115975
 H 0.344 0.514 0.827   0.08084
 H 0.313 0.223 0.784   0.003196
 H 0.4 0.174 0.971   0.115975
 C 0.454 0.295 0.2172   0.642651
 C 0.3743 0.3207 0.2892   -0.202923
 C 0.4302 0.3472 0.3383   0.073088
 C 0.3532 0.3774 0.4056   -0.202488
 C 0.2206 0.3822 0.4227   0.039644
 C 0.1636 0.3552 0.3748   -0.195171
 C 0.2411 0.3259 0.3081   0.189528
 C 0.017 0.3662 0.3927   0.654539
 C 0.4153 0.4083 0.4567   0.741048
 C 0.705 0.546 0.2828   0.642652
 C 0.6793 0.6257 0.2108   -0.202924
 C 0.6528 0.5698 0.1617   0.073088
 C 0.6226 0.6468 0.0944   -0.202489
 C 0.6178 0.7794 0.0773   0.039644
 C 0.6448 0.8364 0.1252   -0.195171
 C 0.6741 0.7589 0.1919   0.189528
 C 0.6338 0.983 0.1073   0.654539
 C 0.5917 0.5847 0.0433   0.741047
 C 0.546 0.705 0.7828   0.642651
 C 0.6257 0.6793 0.7108   -0.202923
 C 0.5698 0.6528 0.6617   0.073088
 C 0.6468 0.6226 0.5944   -0.202489
 C 0.7794 0.6178 0.5773   0.039644
 C 0.8364 0.6448 0.6252   -0.195171
 C 0.7589 0.6741 0.6919   0.189528
 C 0.983 0.6338 0.6073   0.654539
 C 0.5847 0.5917 0.5433   0.741048
 C 0.295 0.454 0.7172   0.642652
 C 0.3207 0.3743 0.7892   -0.202924
 C 0.3472 0.4302 0.8383   0.073089
 C 0.3774 0.3532 0.9056   -0.202489
 C 0.3822 0.2206 0.9227   0.039644
 C 0.3552 0.1636 0.8748   -0.195171
 C 0.3259 0.2411 0.8081   0.189528
 C 0.3662 0.017 0.8927   0.654539
 C 0.4083 0.4153 0.9567   0.741048
 O 0.5789 0.2811 0.2029   -0.508306
 O 0.3965 0.2895 0.1702   -0.529768
 O 0.9711 0.3279 0.3512   -0.56911
 O 0.9398 0.4112 0.4466   -0.565197
 O 0.5286 0.4214 0.4332   -0.664489
 O 0.3499 0.4197 0.5182   -0.580078
 O 0.7189 0.4211 0.2971   -0.508307
 O 0.7105 0.6035 0.3298   -0.529768
 O 0.6721 0.0289 0.1488   -0.56911
 O 0.5888 0.0602 0.0534   -0.565197
 O 0.5786 0.4714 0.0668   -0.664489
 O 0.5803 0.6501 0.9818   -0.580078
 O 0.4211 0.7189 0.7971   -0.508306
 O 0.6035 0.7105 0.8298   -0.529768
 O 0.0289 0.6721 0.6488   -0.56911
 O 0.0602 0.5888 0.5534   -0.565197
 O 0.4714 0.5786 0.5668   -0.664489
 O 0.6501 0.5803 0.4818   -0.580078
 O 0.2811 0.5789 0.7029   -0.508307
 O 0.2895 0.3965 0.6702   -0.529768
 O 0.3279 0.9711 0.8512   -0.56911
 O 0.4112 0.9398 0.9466   -0.565197
 O 0.4214 0.5286 0.9332   -0.664489
 O 0.4197 0.3499 0.0182   -0.580078
