{'_ref': 'TBD', '_srcid': 'CAKYAQ_clean', 'submitters': [{'name': 'Dalar Nazarian Jeff Camp and David Sholl', 'email': 'dalar@gatech.edu jcamp6@gatech.edu'}], '_method': 'VASP DFT with PBE;DDEC'}
data_HoH3(C3O2)3
_symmetry_space_group_name_H-M   'P 1'
_cell_length_a   10.90509984
_cell_length_b   10.90510015
_cell_length_c   19.69800000
_cell_angle_alpha   75.63850014
_cell_angle_beta   75.63849972
_cell_angle_gamma   64.55429751
_symmetry_Int_Tables_number   1
_chemical_formula_structural   HoH3(C3O2)3
_chemical_formula_sum   'Ho4 H12 C36 O24'
_cell_volume   2022.19414116
_cell_formula_units_Z   4
loop_
 _symmetry_equiv_pos_site_id
 _symmetry_equiv_pos_as_xyz
  1  'x, y, z'
loop_
 _atom_site_label
 _atom_site_fract_x
 _atom_site_fract_y
 _atom_site_fract_z
 _atom_site_charge
 Ho 0.25461 0.59547 0.08316   2.095664
 Ho 0.40453 0.74539 0.41684   2.095664
 Ho 0.74539 0.40453 0.91684   2.095665
 Ho 0.59547 0.25461 0.58316   2.095664
 H 0.4808 0.6574 0.1731   0.099404
 H 0.7963 0.6911 0.2238   0.116532
 H 0.8316 0.5996 0.0329   0.117286
 H 0.3426 0.5192 0.3269   0.099404
 H 0.3089 0.2037 0.2762   0.116532
 H 0.4004 0.1684 0.4671   0.117286
 H 0.5192 0.3426 0.8269   0.099404
 H 0.2037 0.3089 0.7762   0.116532
 H 0.1684 0.4004 0.9671   0.117286
 H 0.6574 0.4808 0.6731   0.099404
 H 0.6911 0.7963 0.7238   0.116532
 H 0.5996 0.8316 0.5329   0.117286
 C 0.9825 0.6339 0.1083   0.691458
 C 0.5456 0.703 0.2825   0.683425
 C 0.586 0.594 0.0438   0.824081
 C 0.645 0.6224 0.0945   -0.228456
 C 0.5704 0.6534 0.161   0.053787
 C 0.6271 0.6783 0.2101   -0.164335
 C 0.7581 0.6741 0.1917   0.041431
 C 0.8351 0.6449 0.1256   -0.168618
 C 0.7799 0.6191 0.077   0.045737
 C 0.3661 0.0175 0.3917   0.691458
 C 0.297 0.4544 0.2175   0.683428
 C 0.406 0.414 0.4562   0.824081
 C 0.3776 0.355 0.4055   -0.228457
 C 0.3466 0.4296 0.339   0.053789
 C 0.3217 0.3729 0.2899   -0.164337
 C 0.3259 0.2419 0.3083   0.041432
 C 0.3551 0.1649 0.3744   -0.168618
 C 0.3809 0.2201 0.423   0.045737
 C 0.0175 0.3661 0.8917   0.691458
 C 0.4544 0.297 0.7175   0.683425
 C 0.414 0.406 0.9562   0.824081
 C 0.355 0.3776 0.9055   -0.228456
 C 0.4296 0.3466 0.839   0.053788
 C 0.3729 0.3217 0.7899   -0.164335
 C 0.2419 0.3259 0.8083   0.041431
 C 0.1649 0.3551 0.8744   -0.168618
 C 0.2201 0.3809 0.923   0.045737
 C 0.6339 0.9825 0.6083   0.691458
 C 0.703 0.5456 0.7825   0.683428
 C 0.594 0.586 0.5438   0.824081
 C 0.6224 0.645 0.5945   -0.228457
 C 0.6534 0.5704 0.661   0.053789
 C 0.6783 0.6271 0.7101   -0.164337
 C 0.6741 0.7581 0.6917   0.041432
 C 0.6449 0.8351 0.6256   -0.168618
 C 0.6191 0.7799 0.577   0.045737
 O 0.0561 0.5943 0.0526   -0.69743
 O 0.0268 0.6656 0.1508   -0.688853
 O 0.6044 0.7062 0.3292   -0.646748
 O 0.4228 0.7178 0.2965   -0.642646
 O 0.4731 0.5803 0.0663   -0.825392
 O 0.6494 0.5828 0.9818   -0.706326
 O 0.4057 0.9439 0.4474   -0.69743
 O 0.3344 0.9732 0.3492   -0.688853
 O 0.2938 0.3956 0.1708   -0.64675
 O 0.2822 0.5772 0.2035   -0.642646
 O 0.4197 0.5269 0.4337   -0.825392
 O 0.4172 0.3506 0.5182   -0.706327
 O 0.9439 0.4057 0.9474   -0.69743
 O 0.9732 0.3344 0.8492   -0.688853
 O 0.3956 0.2938 0.6708   -0.646748
 O 0.5772 0.2822 0.7035   -0.642646
 O 0.5269 0.4197 0.9337   -0.825392
 O 0.3506 0.4172 0.0182   -0.706326
 O 0.5943 0.0561 0.5526   -0.69743
 O 0.6656 0.0268 0.6508   -0.688853
 O 0.7062 0.6044 0.8292   -0.64675
 O 0.7178 0.4228 0.7965   -0.642646
 O 0.5803 0.4731 0.5663   -0.825392
 O 0.5828 0.6494 0.4818   -0.706327
