{'_ref': 'TBD', '_srcid': 'CAKYAQ_clean', 'submitters': [{'name': 'Dalar Nazarian Jeff Camp and David Sholl', 'email': 'dalar@gatech.edu jcamp6@gatech.edu'}], '_method': 'VASP DFT with PBE;DDEC'}
data_FeH2(CO2)2
_symmetry_space_group_name_H-M   'P 1'
_cell_length_a   9.90230000
_cell_length_b   11.33899960
_cell_length_c   14.87660000
_cell_angle_alpha   90.95939925
_cell_angle_beta   90.00000000
_cell_angle_gamma   90.00000000
_symmetry_Int_Tables_number   1
_chemical_formula_structural   FeH2(CO2)2
_chemical_formula_sum   'Fe12 H24 C24 O48'
_cell_volume   1670.14284756
_cell_formula_units_Z   12
loop_
 _symmetry_equiv_pos_site_id
 _symmetry_equiv_pos_as_xyz
  1  'x, y, z'
loop_
 _atom_site_label
 _atom_site_fract_x
 _atom_site_fract_y
 _atom_site_fract_z
 _atom_site_charge
 Fe 0.92069 0.75484 0.13363   1.035256
 Fe 0.88923 0.262 0.69097   1.047718
 Fe 0.42069 0.74516 0.36637   1.035256
 Fe 0.38923 0.238 0.80903   1.047718
 Fe 0.07931 0.24516 0.86637   1.035259
 Fe 0.11077 0.738 0.30903   1.047721
 Fe 0.57931 0.25484 0.63363   1.035259
 Fe 0.61077 0.762 0.19097   1.047721
 Fe 0.0 0.5 0.0   1.100359
 Fe 0.5 0.0 0.5   1.100358
 Fe 0.0 0.0 0.0   1.085708
 Fe 0.5 0.5 0.5   1.085708
 H 0.757 0.8651 0.3691   0.014116
 H 0.036 0.469 0.267   0.026265
 H 0.613 0.552 0.051   0.013997
 H 0.214 0.975 0.217   0.006855
 H 0.152 0.6957 0.9307   -0.00167
 H 0.709 0.991 0.011   0.010878
 H 0.257 0.6349 0.1309   0.014117
 H 0.536 0.031 0.233   0.026264
 H 0.113 0.948 0.449   0.013998
 H 0.714 0.525 0.283   0.006854
 H 0.652 0.8043 0.5693   -0.00167
 H 0.209 0.509 0.489   0.010878
 H 0.243 0.1349 0.6309   0.014116
 H 0.964 0.531 0.733   0.026271
 H 0.387 0.448 0.949   0.013984
 H 0.786 0.025 0.783   0.006856
 H 0.848 0.3043 0.0693   -0.00166
 H 0.291 0.009 0.989   0.010875
 H 0.743 0.3651 0.8691   0.014117
 H 0.464 0.969 0.767   0.02627
 H 0.887 0.052 0.551   0.013985
 H 0.286 0.475 0.717   0.006855
 H 0.348 0.1957 0.4307   -0.00166
 H 0.791 0.491 0.511   0.010875
 C 0.8295 0.83106 0.32976   0.645139
 C 0.021 0.5146 0.2091   0.626822
 C 0.7106 0.5712 0.0549   0.649679
 C 0.137 0.9503 0.1817   0.65517
 C 0.1008 0.743 0.9674   0.696747
 C 0.7206 0.93092 0.05442   0.673355
 C 0.3295 0.66894 0.17024   0.645128
 C 0.521 0.9854 0.2909   0.626819
 C 0.2106 0.9288 0.4451   0.649678
 C 0.637 0.5497 0.3183   0.655164
 C 0.6008 0.757 0.5326   0.696745
 C 0.2206 0.56908 0.44558   0.673355
 C 0.1705 0.16894 0.67024   0.645139
 C 0.979 0.4854 0.7909   0.626821
 C 0.2894 0.4288 0.9451   0.649683
 C 0.863 0.0497 0.8183   0.655171
 C 0.8992 0.257 0.0326   0.696746
 C 0.2794 0.06908 0.94558   0.673355
 C 0.6705 0.33106 0.82976   0.645127
 C 0.479 0.0146 0.7091   0.626818
 C 0.7894 0.0712 0.5549   0.649682
 C 0.363 0.4503 0.6817   0.655165
 C 0.3992 0.243 0.4674   0.696743
 C 0.7794 0.43092 0.55442   0.673355
 O 0.80166 0.81001 0.24741   -0.619955
 O 0.94005 0.81283 0.36693   -0.559005
 O 0.00565 0.62494 0.21714   -0.621465
 O 0.0103 0.45638 0.13798   -0.571482
 O 0.74227 0.65142 0.11192   -0.63719
 O 0.78965 0.5146 0.0063   -0.566448
 O 0.08618 0.84928 0.19408   -0.638704
 O 0.11119 0.01753 0.12003   -0.568812
 O 0.02586 0.68641 0.02261   -0.647614
 O 0.11017 0.85003 0.96143   -0.572671
 O 0.84297 0.89748 0.06256   -0.624074
 O 0.62224 0.89427 0.09707   -0.565933
 O 0.30166 0.68999 0.25259   -0.619954
 O 0.44005 0.68717 0.13307   -0.559004
 O 0.50565 0.87506 0.28286   -0.621465
 O 0.5103 0.04362 0.36202   -0.571482
 O 0.24227 0.84858 0.38808   -0.637189
 O 0.28965 0.9854 0.4937   -0.566448
 O 0.58618 0.65072 0.30592   -0.638704
 O 0.61119 0.48247 0.37997   -0.568811
 O 0.52586 0.81359 0.47739   -0.647614
 O 0.61017 0.64997 0.53857   -0.572671
 O 0.34297 0.60252 0.43744   -0.624074
 O 0.12224 0.60573 0.40293   -0.565934
 O 0.19834 0.18999 0.75259   -0.619955
 O 0.05995 0.18717 0.63307   -0.559005
 O 0.99435 0.37506 0.78286   -0.621465
 O 0.9897 0.54362 0.86202   -0.571484
 O 0.25773 0.34858 0.88808   -0.637191
 O 0.21035 0.4854 0.9937   -0.566451
 O 0.91382 0.15072 0.80592   -0.638705
 O 0.88881 0.98247 0.87997   -0.568811
 O 0.97414 0.31359 0.97739   -0.647615
 O 0.88983 0.14997 0.03857   -0.572671
 O 0.15703 0.10252 0.93744   -0.624074
 O 0.37776 0.10573 0.90293   -0.565933
 O 0.69834 0.31001 0.74741   -0.619954
 O 0.55995 0.31283 0.86693   -0.559004
 O 0.49435 0.12494 0.71714   -0.621465
 O 0.4897 0.95638 0.63798   -0.571483
 O 0.75773 0.15142 0.61192   -0.63719
 O 0.71035 0.0146 0.5063   -0.566451
 O 0.41382 0.34928 0.69408   -0.638704
 O 0.38881 0.51753 0.62003   -0.568811
 O 0.47414 0.18641 0.52261   -0.647614
 O 0.38983 0.35003 0.46143   -0.572671
 O 0.65703 0.39748 0.56256   -0.624074
 O 0.87776 0.39427 0.59707   -0.565934
