{'_ref': 'TBD', '_srcid': 'CAKYAQ_clean', 'submitters': [{'name': 'Dalar Nazarian Jeff Camp and David Sholl', 'email': 'dalar@gatech.edu jcamp6@gatech.edu'}], '_method': 'VASP DFT with PBE;DDEC'}
data_FeH2(CO2)2
_symmetry_space_group_name_H-M   'P 1'
_cell_length_a   9.99220000
_cell_length_b   11.41359980
_cell_length_c   14.97070000
_cell_angle_alpha   91.12160029
_cell_angle_beta   90.00000000
_cell_angle_gamma   90.00000000
_symmetry_Int_Tables_number   1
_chemical_formula_structural   FeH2(CO2)2
_chemical_formula_sum   'Fe12 H24 C24 O48'
_cell_volume   1707.03587863
_cell_formula_units_Z   12
loop_
 _symmetry_equiv_pos_site_id
 _symmetry_equiv_pos_as_xyz
  1  'x, y, z'
loop_
 _atom_site_label
 _atom_site_fract_x
 _atom_site_fract_y
 _atom_site_fract_z
 _atom_site_charge
 Fe 0.92406 0.75482 0.13371   1.039222
 Fe 0.88419 0.26132 0.69274   1.049952
 Fe 0.42406 0.74518 0.36629   1.039222
 Fe 0.38419 0.23868 0.80726   1.049952
 Fe 0.07594 0.24518 0.86629   1.039222
 Fe 0.11581 0.73868 0.30726   1.049952
 Fe 0.57594 0.25482 0.63371   1.039222
 Fe 0.61581 0.76132 0.19274   1.049952
 Fe 0.0 0.5 0.0   1.084981
 Fe 0.5 0.0 0.5   1.084981
 Fe 0.0 0.0 0.0   1.100228
 Fe 0.5 0.5 0.5   1.100228
 H 0.765 0.859 0.369   0.011903
 H 0.054 0.478 0.259   0.01089
 H 0.623 0.558 0.054   0.001317
 H 0.221 0.974 0.218   0.012453
 H 0.146 0.697 0.926   0.002527
 H 0.71 0.993 0.02   0.00672
 H 0.265 0.641 0.131   0.011904
 H 0.554 0.022 0.241   0.010889
 H 0.123 0.942 0.446   0.001317
 H 0.721 0.526 0.282   0.012452
 H 0.646 0.803 0.574   0.002527
 H 0.21 0.507 0.48   0.00672
 H 0.235 0.141 0.631   0.011904
 H 0.946 0.522 0.741   0.010889
 H 0.377 0.442 0.946   0.001314
 H 0.779 0.026 0.782   0.012452
 H 0.854 0.303 0.074   0.002525
 H 0.29 0.007 0.98   0.006719
 H 0.735 0.359 0.869   0.011904
 H 0.446 0.978 0.759   0.010888
 H 0.877 0.058 0.554   0.001314
 H 0.279 0.474 0.718   0.012451
 H 0.354 0.197 0.426   0.002525
 H 0.79 0.493 0.52   0.006719
 C 0.8354 0.8276 0.3295   0.653516
 C 0.0282 0.517 0.2064   0.665438
 C 0.7147 0.5709 0.0583   0.682362
 C 0.1425 0.9471 0.1787   0.636956
 C 0.0948 0.7427 0.9652   0.691116
 C 0.7255 0.9332 0.0595   0.686637
 C 0.3354 0.6724 0.1705   0.653516
 C 0.5282 0.983 0.2936   0.665437
 C 0.2147 0.9291 0.4417   0.682362
 C 0.6425 0.5529 0.3213   0.636956
 C 0.5948 0.7573 0.5348   0.691116
 C 0.2255 0.5668 0.4405   0.686637
 C 0.1646 0.1724 0.6705   0.653516
 C 0.9718 0.483 0.7936   0.665438
 C 0.2853 0.4291 0.9417   0.682362
 C 0.8575 0.0529 0.8213   0.636956
 C 0.9052 0.2573 0.0348   0.691116
 C 0.2745 0.0668 0.9405   0.686638
 C 0.6646 0.3276 0.8295   0.653515
 C 0.4718 0.017 0.7064   0.665437
 C 0.7853 0.0709 0.5583   0.682362
 C 0.3575 0.4471 0.6787   0.636956
 C 0.4052 0.2427 0.4652   0.691116
 C 0.7745 0.4332 0.5595   0.686638
 O 0.80685 0.80759 0.24839   -0.62036
 O 0.94605 0.8113 0.3653   -0.565172
 O 0.01183 0.62623 0.21553   -0.637779
 O 0.0165 0.45942 0.13672   -0.577924
 O 0.74605 0.65256 0.11276   -0.649551
 O 0.791 0.51348 0.01038   -0.575716
 O 0.08831 0.84886 0.19316   -0.633214
 O 0.1173 0.01262 0.11662   -0.564598
 O 0.02494 0.68654 0.02164   -0.641997
 O 0.1027 0.84918 0.95918   -0.578437
 O 0.84679 0.89897 0.06527   -0.629578
 O 0.62853 0.89417 0.10057   -0.569283
 O 0.30685 0.69241 0.25161   -0.62036
 O 0.44605 0.6887 0.1347   -0.565172
 O 0.51183 0.87377 0.28447   -0.637779
 O 0.5165 0.04058 0.36328   -0.577924
 O 0.24605 0.84744 0.38724   -0.649551
 O 0.291 0.98652 0.48962   -0.575716
 O 0.58831 0.65114 0.30684   -0.633214
 O 0.6173 0.48738 0.38338   -0.564598
 O 0.52494 0.81346 0.47836   -0.641997
 O 0.6027 0.65082 0.54082   -0.578437
 O 0.34679 0.60103 0.43473   -0.629578
 O 0.12853 0.60583 0.39943   -0.569283
 O 0.19315 0.19241 0.75161   -0.62036
 O 0.05395 0.1887 0.6347   -0.565172
 O 0.98817 0.37377 0.78447   -0.637779
 O 0.9835 0.54058 0.86328   -0.577924
 O 0.25395 0.34744 0.88724   -0.649551
 O 0.209 0.48652 0.98962   -0.575716
 O 0.91169 0.15114 0.80684   -0.633214
 O 0.8827 0.98738 0.88338   -0.564598
 O 0.97506 0.31346 0.97836   -0.641998
 O 0.8973 0.15082 0.04082   -0.578437
 O 0.15321 0.10103 0.93473   -0.629578
 O 0.37147 0.10583 0.89943   -0.569283
 O 0.69315 0.30759 0.74839   -0.62036
 O 0.55395 0.3113 0.8653   -0.565172
 O 0.48817 0.12623 0.71553   -0.637779
 O 0.4835 0.95942 0.63672   -0.577924
 O 0.75395 0.15256 0.61276   -0.649551
 O 0.709 0.01348 0.51038   -0.575716
 O 0.41169 0.34886 0.69316   -0.633214
 O 0.3827 0.51262 0.61662   -0.564598
 O 0.47506 0.18654 0.52164   -0.641998
 O 0.3973 0.34918 0.45918   -0.578437
 O 0.65321 0.39897 0.56527   -0.629578
 O 0.87147 0.39417 0.60057   -0.569283
