{'_ref': 'TBD', '_srcid': 'CAKYAQ_clean', 'submitters': [{'name': 'Dalar Nazarian Jeff Camp and David Sholl', 'email': 'dalar@gatech.edu jcamp6@gatech.edu'}], '_method': 'VASP DFT with PBE;DDEC'}
data_Nd2Cu3H24(C4O5)6
_symmetry_space_group_name_H-M   'P 1'
_cell_length_a   14.75100000
_cell_length_b   15.06450026
_cell_length_c   15.06450000
_cell_angle_alpha   119.99999942
_cell_angle_beta   90.00000000
_cell_angle_gamma   90.00000000
_symmetry_Int_Tables_number   1
_chemical_formula_structural   Nd2Cu3H24(C4O5)6
_chemical_formula_sum   'Nd4 Cu6 H48 C48 O60'
_cell_volume   2899.08900166
_cell_formula_units_Z   2
loop_
 _symmetry_equiv_pos_site_id
 _symmetry_equiv_pos_as_xyz
  1  'x, y, z'
loop_
 _atom_site_label
 _atom_site_fract_x
 _atom_site_fract_y
 _atom_site_fract_z
 _atom_site_charge
 Nd 0.25 0.33333 0.66666   2.228534
 Nd 0.25 0.66667 0.33334   2.228534
 Nd 0.75 0.66667 0.33334   2.228542
 Nd 0.75 0.33333 0.66666   2.228542
 Cu 0.0 0.5 0.5   1.055779
 Cu 0.0 0.0 0.5   1.055788
 Cu 0.0 0.5 0.0   1.055788
 Cu 0.5 0.0 0.5   1.05578
 Cu 0.5 0.5 0.5   1.055787
 Cu 0.5 0.5 0.0   1.055789
 H 0.8373 0.7882 0.1526   0.098619
 H 0.7597 0.711 0.0883   0.08619
 H 0.8373 0.3644 0.2118   0.098626
 H 0.7597 0.3773 0.289   0.086189
 H 0.8373 0.8474 0.6356   0.098632
 H 0.7597 0.9117 0.6227   0.086198
 H 0.8373 0.2118 0.8474   0.098618
 H 0.7597 0.289 0.9117   0.08619
 H 0.8373 0.6356 0.7882   0.098626
 H 0.7597 0.6227 0.711   0.086189
 H 0.8373 0.1526 0.3644   0.098632
 H 0.7597 0.0883 0.3773   0.086198
 H 0.6627 0.6356 0.8474   0.098618
 H 0.7403 0.6227 0.9117   0.086189
 H 0.6627 0.1526 0.7882   0.098626
 H 0.7403 0.0883 0.711   0.086188
 H 0.6627 0.2118 0.3644   0.098632
 H 0.7403 0.289 0.3773   0.086197
 H 0.6627 0.3644 0.1526   0.098618
 H 0.7403 0.3773 0.0883   0.086189
 H 0.6627 0.8474 0.2118   0.098625
 H 0.7403 0.9117 0.289   0.086188
 H 0.6627 0.7882 0.6356   0.098632
 H 0.7403 0.711 0.6227   0.086197
 H 0.1627 0.2118 0.8474   0.09862
 H 0.2403 0.289 0.9117   0.08619
 H 0.1627 0.6356 0.7882   0.098627
 H 0.2403 0.6227 0.711   0.086189
 H 0.1627 0.1526 0.3644   0.098633
 H 0.2403 0.0883 0.3773   0.086198
 H 0.1627 0.7882 0.1526   0.09862
 H 0.2403 0.711 0.0883   0.08619
 H 0.1627 0.3644 0.2118   0.098627
 H 0.2403 0.3773 0.289   0.086189
 H 0.1627 0.8474 0.6356   0.098633
 H 0.2403 0.9117 0.6227   0.086198
 H 0.3373 0.3644 0.1526   0.09862
 H 0.2597 0.3773 0.0883   0.086189
 H 0.3373 0.8474 0.2118   0.098627
 H 0.2597 0.9117 0.289   0.086188
 H 0.3373 0.7882 0.6356   0.098633
 H 0.2597 0.711 0.6227   0.086197
 H 0.3373 0.6356 0.8474   0.09862
 H 0.2597 0.6227 0.9117   0.086189
 H 0.3373 0.1526 0.7882   0.098627
 H 0.2597 0.0883 0.711   0.086188
 H 0.3373 0.2118 0.3644   0.098633
 H 0.2597 0.289 0.3773   0.086197
 C 0.3601 0.1278 0.6436   0.72286
 C 0.6996 0.854 0.2681   -0.052074
 C 0.3601 0.5158 0.8722   0.722858
 C 0.6996 0.4141 0.146   -0.052068
 C 0.3601 0.3564 0.4842   0.722845
 C 0.6996 0.7319 0.5859   -0.052089
 C 0.3601 0.8722 0.3564   0.72286
 C 0.6996 0.146 0.7319   -0.052074
 C 0.3601 0.4842 0.1278   0.722857
 C 0.6996 0.5859 0.854   -0.052068
 C 0.3601 0.6436 0.5158   0.722845
 C 0.6996 0.2681 0.4141   -0.052089
 C 0.1399 0.4842 0.3564   0.72286
 C 0.8004 0.5859 0.7319   -0.052075
 C 0.1399 0.6436 0.1278   0.722857
 C 0.8004 0.2681 0.854   -0.052068
 C 0.1399 0.8722 0.5158   0.722844
 C 0.8004 0.146 0.4141   -0.05209
 C 0.1399 0.5158 0.6436   0.72286
 C 0.8004 0.4141 0.2681   -0.052075
 C 0.1399 0.3564 0.8722   0.722857
 C 0.8004 0.7319 0.146   -0.052069
 C 0.1399 0.1278 0.4842   0.722844
 C 0.8004 0.854 0.5859   -0.05209
 C 0.6399 0.8722 0.3564   0.722861
 C 0.3004 0.146 0.7319   -0.052074
 C 0.6399 0.4842 0.1278   0.722859
 C 0.3004 0.5859 0.854   -0.052068
 C 0.6399 0.6436 0.5158   0.722846
 C 0.3004 0.2681 0.4141   -0.05209
 C 0.6399 0.1278 0.6436   0.722861
 C 0.3004 0.854 0.2681   -0.052074
 C 0.6399 0.5158 0.8722   0.722858
 C 0.3004 0.4141 0.146   -0.052069
 C 0.6399 0.3564 0.4842   0.722846
 C 0.3004 0.7319 0.5859   -0.05209
 C 0.8601 0.5158 0.6436   0.722861
 C 0.1996 0.4141 0.2681   -0.052075
 C 0.8601 0.3564 0.8722   0.722858
 C 0.1996 0.7319 0.146   -0.052069
 C 0.8601 0.1278 0.4842   0.722846
 C 0.1996 0.854 0.5859   -0.05209
 C 0.8601 0.4842 0.3564   0.722861
 C 0.1996 0.5859 0.7319   -0.052075
 C 0.8601 0.6436 0.1278   0.722858
 C 0.1996 0.2681 0.854   -0.052069
 C 0.8601 0.8722 0.5158   0.722845
 C 0.1996 0.146 0.4141   -0.05209
 O 0.3589 0.1925 0.6144   -0.701562
 O 0.4076 0.049 0.6071   -0.61423
 O 0.3589 0.4219 0.8075   -0.701571
 O 0.4076 0.5581 0.951   -0.61423
 O 0.3589 0.3856 0.5781   -0.701548
 O 0.4076 0.3929 0.4419   -0.614221
 O 0.3589 0.8075 0.3856   -0.701562
 O 0.4076 0.951 0.3929   -0.61423
 O 0.3589 0.5781 0.1925   -0.701571
 O 0.4076 0.4419 0.049   -0.61423
 O 0.3589 0.6144 0.4219   -0.701548
 O 0.4076 0.6071 0.5581   -0.614221
 O 0.1411 0.5781 0.3856   -0.701562
 O 0.0924 0.4419 0.3929   -0.614229
 O 0.1411 0.6144 0.1925   -0.701571
 O 0.0924 0.6071 0.049   -0.61423
 O 0.1411 0.8075 0.4219   -0.701548
 O 0.0924 0.951 0.5581   -0.61422
 O 0.1411 0.4219 0.6144   -0.701563
 O 0.0924 0.5581 0.6071   -0.61423
 O 0.1411 0.3856 0.8075   -0.701571
 O 0.0924 0.3929 0.951   -0.61423
 O 0.1411 0.1925 0.5781   -0.701548
 O 0.0924 0.049 0.4419   -0.614221
 O 0.6411 0.8075 0.3856   -0.701562
 O 0.5924 0.951 0.3929   -0.61423
 O 0.6411 0.5781 0.1925   -0.701572
 O 0.5924 0.4419 0.049   -0.61423
 O 0.6411 0.6144 0.4219   -0.701548
 O 0.5924 0.6071 0.5581   -0.614221
 O 0.6411 0.1925 0.6144   -0.701562
 O 0.5924 0.049 0.6071   -0.61423
 O 0.6411 0.4219 0.8075   -0.701572
 O 0.5924 0.5581 0.951   -0.61423
 O 0.6411 0.3856 0.5781   -0.701548
 O 0.5924 0.3929 0.4419   -0.614221
 O 0.8589 0.4219 0.6144   -0.701563
 O 0.9076 0.5581 0.6071   -0.614229
 O 0.8589 0.3856 0.8075   -0.701571
 O 0.9076 0.3929 0.951   -0.61423
 O 0.8589 0.1925 0.5781   -0.701548
 O 0.9076 0.049 0.4419   -0.614221
 O 0.8589 0.5781 0.3856   -0.701563
 O 0.9076 0.4419 0.3929   -0.61423
 O 0.8589 0.6144 0.1925   -0.701571
 O 0.9076 0.6071 0.049   -0.61423
 O 0.8589 0.8075 0.4219   -0.701548
 O 0.9076 0.951 0.5581   -0.614221
 O 0.75 0.76375 0.23625   -0.350362
 O 0.75 0.4725 0.23625   -0.350362
 O 0.75 0.76375 0.5275   -0.350337
 O 0.75 0.23625 0.76375   -0.350362
 O 0.75 0.5275 0.76375   -0.350362
 O 0.75 0.23625 0.4725   -0.350337
 O 0.25 0.23625 0.76375   -0.350361
 O 0.25 0.5275 0.76375   -0.350361
 O 0.25 0.23625 0.4725   -0.350337
 O 0.25 0.76375 0.23625   -0.350361
 O 0.25 0.4725 0.23625   -0.350361
 O 0.25 0.76375 0.5275   -0.350337
