{'_ref': 'TBD', '_srcid': 'CAKYAQ_clean', 'submitters': [{'name': 'Dalar Nazarian Jeff Camp and David Sholl', 'email': 'dalar@gatech.edu jcamp6@gatech.edu'}], '_method': 'VASP DFT with PBE;DDEC'}
data_CeH38C22(NO2)4
_symmetry_space_group_name_H-M   'P 1'
_cell_length_a   8.50900016
_cell_length_b   17.15789990
_cell_length_c   17.15790000
_cell_angle_alpha   61.29199997
_cell_angle_beta   82.50549706
_cell_angle_gamma   82.50549723
_symmetry_Int_Tables_number   1
_chemical_formula_structural   CeH38C22(NO2)4
_chemical_formula_sum   'Ce2 H76 C44 N8 O16'
_cell_volume   2171.68262746
_cell_formula_units_Z   2
loop_
 _symmetry_equiv_pos_site_id
 _symmetry_equiv_pos_as_xyz
  1  'x, y, z'
loop_
 _atom_site_label
 _atom_site_fract_x
 _atom_site_fract_y
 _atom_site_fract_z
 _atom_site_charge
 Ce 0.25 0.99093 0.00907   1.318253
 Ce 0.75 0.00907 0.99093   1.318266
 H 0.8697 0.1035 0.3505   0.223856
 H 0.9552 0.8039 0.7499   0.100716
 H 0.843 0.8749 0.7485   0.096321
 H 0.8136 0.7953 0.6785   0.076463
 H 0.7882 0.897 0.6074   0.073419
 H 0.0251 0.8083 0.4885   0.069872
 H 0.8349 0.7874 0.5378   0.075464
 H 0.7932 0.9462 0.4602   0.106452
 H 0.826 0.9152 0.4022   0.085014
 H 0.0739 0.9582 0.3632   0.079712
 H 0.0649 0.9931 0.4341   0.094605
 H 0.1712 0.8663 0.7923   0.105195
 H 0.2378 0.9706 0.7166   0.128183
 H 0.9254 0.9486 0.8166   0.143338
 H 0.9883 0.0399 0.7477   0.127645
 H 0.1155 0.7196 0.7006   0.066889
 H 0.0463 0.6957 0.6377   0.02747
 H 0.2114 0.7771 0.5211   0.109446
 H 0.3311 0.6924 0.616   0.129366
 H 0.6303 0.6495 0.8965   0.223856
 H 0.5448 0.2501 0.1961   0.100716
 H 0.657 0.2515 0.1251   0.096321
 H 0.6864 0.3215 0.2047   0.076463
 H 0.7118 0.3926 0.103   0.073419
 H 0.4749 0.5115 0.1917   0.069874
 H 0.6651 0.4622 0.2126   0.075464
 H 0.7068 0.5398 0.0538   0.106452
 H 0.674 0.5978 0.0848   0.085014
 H 0.4261 0.6368 0.0418   0.079712
 H 0.4351 0.5659 0.0069   0.094605
 H 0.3288 0.2077 0.1337   0.105195
 H 0.2622 0.2834 0.0294   0.128183
 H 0.5746 0.1834 0.0514   0.143338
 H 0.5117 0.2523 0.9601   0.127645
 H 0.3845 0.2994 0.2804   0.066889
 H 0.4537 0.3623 0.3043   0.027471
 H 0.2886 0.4789 0.2229   0.109448
 H 0.1689 0.384 0.3076   0.129368
 H 0.1303 0.8965 0.6495   0.223856
 H 0.0448 0.1961 0.2501   0.100716
 H 0.157 0.1251 0.2515   0.096323
 H 0.1864 0.2047 0.3215   0.076461
 H 0.2118 0.103 0.3926   0.073419
 H 0.9749 0.1917 0.5115   0.069876
 H 0.1651 0.2126 0.4622   0.075466
 H 0.2068 0.0538 0.5398   0.106452
 H 0.174 0.0848 0.5978   0.085015
 H 0.9261 0.0418 0.6368   0.079712
 H 0.9351 0.0069 0.5659   0.094603
 H 0.8288 0.1337 0.2077   0.105195
 H 0.7622 0.0294 0.2834   0.128185
 H 0.0746 0.0514 0.1834   0.143338
 H 0.0117 0.9601 0.2523   0.127649
 H 0.8845 0.2804 0.2994   0.066887
 H 0.9537 0.3043 0.3623   0.027474
 H 0.7886 0.2229 0.4789   0.109447
 H 0.6689 0.3076 0.384   0.129374
 H 0.3697 0.3505 0.1035   0.223856
 H 0.4552 0.7499 0.8039   0.100716
 H 0.343 0.7485 0.8749   0.096323
 H 0.3136 0.6785 0.7953   0.076461
 H 0.2882 0.6074 0.897   0.073419
 H 0.5251 0.4885 0.8083   0.069877
 H 0.3349 0.5378 0.7874   0.075467
 H 0.2932 0.4602 0.9462   0.106452
 H 0.326 0.4022 0.9152   0.085015
 H 0.5739 0.3632 0.9582   0.079712
 H 0.5649 0.4341 0.9931   0.094603
 H 0.6712 0.7923 0.8663   0.105195
 H 0.7378 0.7166 0.9706   0.128185
 H 0.4254 0.8166 0.9486   0.143338
 H 0.4883 0.7477 0.0399   0.127649
 H 0.6155 0.7006 0.7196   0.066887
 H 0.5463 0.6377 0.6957   0.027474
 H 0.7114 0.5211 0.7771   0.109449
 H 0.8311 0.616 0.6924   0.129375
 C 0.072 0.137 0.285   -0.131832
 C 0.128 0.1565 0.3539   -0.006962
 C 0.068 0.1694 0.4886   0.004632
 C 0.13 0.0789 0.5569   -0.133355
 C 0.996 0.0179 0.6051   -0.066125
 C 0.866 0.0679 0.2535   -0.049715
 C 0.976 0.0266 0.2046   -0.37632
 C 0.8961 0.028 0.1314   0.751282
 C 0.105 0.7518 0.6326   0.05349
 C 0.268 0.7574 0.5816   -0.423865
 C 0.366 0.827 0.5764   0.748669
 C 0.428 0.715 0.863   -0.131832
 C 0.372 0.6461 0.8435   -0.006962
 C 0.432 0.5114 0.8306   0.004632
 C 0.37 0.4431 0.9211   -0.133355
 C 0.504 0.3949 0.9821   -0.066125
 C 0.634 0.7465 0.9321   -0.049715
 C 0.524 0.7954 0.9734   -0.37632
 C 0.6039 0.8686 0.972   0.751282
 C 0.395 0.3674 0.2482   0.05349
 C 0.232 0.4184 0.2426   -0.423867
 C 0.134 0.4236 0.173   0.748669
 C 0.928 0.863 0.715   -0.131832
 C 0.872 0.8435 0.6461   -0.006963
 C 0.932 0.8306 0.5114   0.004634
 C 0.87 0.9211 0.4431   -0.133355
 C 0.004 0.9821 0.3949   -0.066126
 C 0.134 0.9321 0.7465   -0.049715
 C 0.024 0.9734 0.7954   -0.376319
 C 0.1039 0.972 0.8686   0.751281
 C 0.895 0.2482 0.3674   0.053489
 C 0.732 0.2426 0.4184   -0.423868
 C 0.634 0.173 0.4236   0.74867
 C 0.572 0.285 0.137   -0.131832
 C 0.628 0.3539 0.1565   -0.006963
 C 0.568 0.4886 0.1694   0.004634
 C 0.63 0.5569 0.0789   -0.133355
 C 0.496 0.6051 0.0179   -0.066126
 C 0.366 0.2535 0.0679   -0.049715
 C 0.476 0.2046 0.0266   -0.376319
 C 0.3961 0.1314 0.028   0.751282
 C 0.605 0.6326 0.7518   0.053489
 C 0.768 0.5816 0.7574   -0.423869
 C 0.866 0.5764 0.827   0.74867
 N 0.9459 0.0715 0.3253   0.080561
 N 0.000999999999998 0.1676 0.4134   -0.29164
 N 0.5541 0.6747 0.9285   0.080561
 N 0.499 0.5866 0.8324   -0.29164
 N 0.0541 0.9285 0.6747   0.080561
 N 0.999 0.8324 0.5866   -0.29164
 N 0.4459 0.3253 0.0715   0.080561
 N 0.501 0.4134 0.1676   -0.29164
 O 0.9851 0.0094 0.0746   -0.742519
 O 0.2498 0.9579 0.8749   -0.595825
 O 0.3299 0.8602 0.628   -0.701282
 O 0.486 0.8463 0.5213   -0.697762
 O 0.5149 0.9254 0.9906   -0.742519
 O 0.2502 0.1251 0.0421   -0.595825
 O 0.1701 0.372 0.1398   -0.701282
 O 0.014 0.4787 0.1537   -0.697762
 O 0.0149 0.9906 0.9254   -0.74252
 O 0.7502 0.0421 0.1251   -0.595825
 O 0.6701 0.1398 0.372   -0.701282
 O 0.514 0.1537 0.4787   -0.697762
 O 0.4851 0.0746 0.0094   -0.74252
 O 0.7498 0.8749 0.9579   -0.595825
 O 0.8299 0.628 0.8602   -0.701282
 O 0.986 0.5213 0.8463   -0.697762
