{'_ref': 'TBD', '_srcid': 'CAKYAQ_clean', 'submitters': [{'name': 'Dalar Nazarian Jeff Camp and David Sholl', 'email': 'dalar@gatech.edu jcamp6@gatech.edu'}], '_method': 'VASP DFT with PBE;DDEC'}
data_FeH2(CO2)2
_symmetry_space_group_name_H-M   'P 1'
_cell_length_a   9.98030000
_cell_length_b   11.45249984
_cell_length_c   14.86190000
_cell_angle_alpha   91.27799824
_cell_angle_beta   90.00000000
_cell_angle_gamma   90.00000000
_symmetry_Int_Tables_number   1
_chemical_formula_structural   FeH2(CO2)2
_chemical_formula_sum   'Fe12 H24 C24 O48'
_cell_volume   1698.28345968
_cell_formula_units_Z   12
loop_
 _symmetry_equiv_pos_site_id
 _symmetry_equiv_pos_as_xyz
  1  'x, y, z'
loop_
 _atom_site_label
 _atom_site_fract_x
 _atom_site_fract_y
 _atom_site_fract_z
 _atom_site_charge
 Fe 0.92377 0.75591 0.13368   1.038999
 Fe 0.88453 0.26049 0.69198   1.047213
 Fe 0.42377 0.74409 0.36632   1.038999
 Fe 0.38453 0.23951 0.80802   1.047213
 Fe 0.07623 0.24409 0.86632   1.038998
 Fe 0.11547 0.73951 0.30802   1.047213
 Fe 0.57623 0.25591 0.63368   1.038998
 Fe 0.61547 0.76049 0.19198   1.047213
 Fe 0.0 0.5 0.0   1.079474
 Fe 0.5 0.0 0.5   1.079474
 Fe 0.0 0.0 0.0   1.096335
 Fe 0.5 0.5 0.5   1.096335
 H 0.758 0.8428 0.3708   0.007908
 H 0.056 0.4713 0.2613   0.023375
 H 0.62 0.5536 0.0516   0.008596
 H 0.206 0.978 0.223   0.006315
 H 0.146 0.6961 0.9271   0.000485
 H 0.708 0.0017 0.0217   0.018169
 H 0.258 0.6572 0.1292   0.007908
 H 0.556 0.0287 0.2387   0.023374
 H 0.12 0.9464 0.4484   0.008596
 H 0.706 0.522 0.277   0.006314
 H 0.646 0.8039 0.5729   0.000485
 H 0.208 0.4983 0.4783   0.018168
 H 0.242 0.1572 0.6292   0.007908
 H 0.944 0.5287 0.7387   0.023374
 H 0.38 0.4464 0.9484   0.008595
 H 0.794 0.022 0.777   0.006315
 H 0.854 0.3039 0.0729   0.000484
 H 0.292 0.9983 0.9783   0.018169
 H 0.742 0.3428 0.8708   0.007908
 H 0.444 0.9713 0.7613   0.023373
 H 0.88 0.0536 0.5516   0.008595
 H 0.294 0.478 0.723   0.006314
 H 0.354 0.1961 0.4271   0.000484
 H 0.792 0.5017 0.5217   0.018168
 C 0.833 0.81926 0.33286   0.657418
 C 0.0305 0.51781 0.20651   0.633677
 C 0.7133 0.57093 0.05643   0.663668
 C 0.1382 0.9511 0.1819   0.661044
 C 0.0956 0.74238 0.96538   0.69368
 C 0.7257 0.93699 0.06159   0.662329
 C 0.333 0.68074 0.16714   0.657418
 C 0.5305 0.98219 0.29349   0.633676
 C 0.2133 0.92907 0.44357   0.663668
 C 0.6382 0.5489 0.3181   0.661044
 C 0.5956 0.75762 0.53462   0.69368
 C 0.2257 0.56301 0.43841   0.662329
 C 0.167 0.18074 0.66714   0.657418
 C 0.9695 0.48219 0.79349   0.633677
 C 0.2867 0.42907 0.94357   0.663667
 C 0.8618 0.0489 0.8181   0.661043
 C 0.9044 0.25762 0.03462   0.693681
 C 0.2743 0.06301 0.93841   0.662329
 C 0.667 0.31926 0.83286   0.657417
 C 0.4695 0.01781 0.70651   0.633676
 C 0.7867 0.07093 0.55643   0.663667
 C 0.3618 0.4511 0.6819   0.661044
 C 0.4044 0.24238 0.46538   0.693681
 C 0.7743 0.43699 0.56159   0.662329
 O 0.80613 0.80349 0.24967   -0.626262
 O 0.94314 0.80362 0.36889   -0.560092
 O 0.01358 0.62716 0.21478   -0.623277
 O 0.01456 0.45797 0.13737   -0.567503
 O 0.74544 0.65416 0.10994   -0.639049
 O 0.79106 0.51293 0.00825   -0.574786
 O 0.0857 0.85161 0.19564   -0.645786
 O 0.11513 0.01453 0.11806   -0.568413
 O 0.02476 0.6869 0.02232   -0.642444
 O 0.10313 0.84846 0.95847   -0.578609
 O 0.84662 0.90087 0.06615   -0.62289
 O 0.62902 0.89759 0.10283   -0.561666
 O 0.30613 0.69651 0.25033   -0.626261
 O 0.44314 0.69638 0.13111   -0.560092
 O 0.51358 0.87284 0.28522   -0.623277
 O 0.51456 0.04203 0.36263   -0.567503
 O 0.24544 0.84584 0.39006   -0.639049
 O 0.29106 0.98707 0.49175   -0.574786
 O 0.5857 0.64839 0.30436   -0.645786
 O 0.61513 0.48547 0.38194   -0.568413
 O 0.52476 0.8131 0.47768   -0.642444
 O 0.60313 0.65154 0.54153   -0.578609
 O 0.34662 0.59913 0.43385   -0.62289
 O 0.12902 0.60241 0.39717   -0.561666
 O 0.19387 0.19651 0.75033   -0.626261
 O 0.05686 0.19638 0.63111   -0.560092
 O 0.98642 0.37284 0.78522   -0.623277
 O 0.98544 0.54203 0.86263   -0.567503
 O 0.25456 0.34584 0.89006   -0.639049
 O 0.20894 0.48707 0.99175   -0.574786
 O 0.9143 0.14839 0.80436   -0.645786
 O 0.88487 0.98547 0.88194   -0.568413
 O 0.97524 0.3131 0.97768   -0.642444
 O 0.89687 0.15154 0.04153   -0.578608
 O 0.15338 0.09913 0.93385   -0.62289
 O 0.37098 0.10241 0.89717   -0.561666
 O 0.69387 0.30349 0.74967   -0.626261
 O 0.55686 0.30362 0.86889   -0.560092
 O 0.48642 0.12716 0.71478   -0.623277
 O 0.48544 0.95797 0.63737   -0.567503
 O 0.75456 0.15416 0.60994   -0.639049
 O 0.70894 0.01293 0.50825   -0.574786
 O 0.4143 0.35161 0.69564   -0.645786
 O 0.38487 0.51453 0.61806   -0.568413
 O 0.47524 0.1869 0.52232   -0.642444
 O 0.39687 0.34846 0.45847   -0.578608
 O 0.65338 0.40087 0.56615   -0.62289
 O 0.87098 0.39759 0.60283   -0.561666
