{'_ref': 'TBD', '_srcid': 'CAKYAQ_clean', 'submitters': [{'name': 'Dalar Nazarian Jeff Camp and David Sholl', 'email': 'dalar@gatech.edu jcamp6@gatech.edu'}], '_method': 'VASP DFT with PBE;DDEC'}
data_FeH2(CO2)2
_symmetry_space_group_name_H-M   'P 1'
_cell_length_a   9.84740000
_cell_length_b   11.33689966
_cell_length_c   14.45070000
_cell_angle_alpha   91.14170040
_cell_angle_beta   90.00000000
_cell_angle_gamma   90.00000000
_symmetry_Int_Tables_number   1
_chemical_formula_structural   FeH2(CO2)2
_chemical_formula_sum   'Fe12 H24 C24 O48'
_cell_volume   1612.94121781
_cell_formula_units_Z   12
loop_
 _symmetry_equiv_pos_site_id
 _symmetry_equiv_pos_as_xyz
  1  'x, y, z'
loop_
 _atom_site_label
 _atom_site_fract_x
 _atom_site_fract_y
 _atom_site_fract_z
 _atom_site_charge
 Fe 0.91782 0.75529 0.13235   1.040291
 Fe 0.89607 0.26095 0.68536   1.055542
 Fe 0.41782 0.74471 0.36765   1.040291
 Fe 0.39607 0.23905 0.81464   1.055542
 Fe 0.08218 0.24471 0.86765   1.040288
 Fe 0.10393 0.73905 0.31464   1.055539
 Fe 0.58218 0.25529 0.63235   1.040288
 Fe 0.60393 0.76095 0.18536   1.055539
 Fe 0.0 0.5 0.0   1.067847
 Fe 0.5 0.0 0.5   1.067847
 Fe 0.0 0.0 0.0   1.07788
 Fe 0.5 0.5 0.5   1.07788
 H 0.7472 0.8607 0.3684   -0.001493
 H 0.0222 0.4729 0.2699   0.0161
 H 0.615 0.5572 0.0341   0.007917
 H 0.1725 0.9905 0.2422   0.00505
 H 0.1697 0.698 0.9315   0.010506
 H 0.6987 0.9834 0.9967   0.015298
 H 0.2472 0.6393 0.1316   -0.001493
 H 0.5222 0.0271 0.2301   0.016099
 H 0.115 0.9428 0.4659   0.007916
 H 0.6725 0.5095 0.2578   0.005049
 H 0.6697 0.802 0.5685   0.010506
 H 0.1987 0.5166 0.5033   0.015297
 H 0.2528 0.1393 0.6316   -0.001493
 H 0.9778 0.5271 0.7301   0.016099
 H 0.385 0.4428 0.9659   0.007907
 H 0.8275 0.0095 0.7578   0.00505
 H 0.8303 0.302 0.0685   0.010507
 H 0.3013 0.0166 0.0033   0.015296
 H 0.7528 0.3607 0.8684   -0.001493
 H 0.4778 0.9729 0.7699   0.016099
 H 0.885 0.0572 0.5341   0.007906
 H 0.3275 0.4905 0.7422   0.005049
 H 0.3303 0.198 0.4315   0.010507
 H 0.8013 0.4834 0.4967   0.015296
 C 0.8197 0.8296 0.332   0.67663
 C 0.0054 0.5142 0.2145   0.657589
 C 0.7085 0.5748 0.0429   0.658525
 C 0.119 0.9595 0.1928   0.660734
 C 0.1115 0.7438 0.9705   0.677669
 C 0.7148 0.9269 0.0431   0.668742
 C 0.3197 0.6704 0.168   0.676625
 C 0.5054 0.9858 0.2855   0.657586
 C 0.2085 0.9252 0.4571   0.658525
 C 0.619 0.5405 0.3072   0.660732
 C 0.6115 0.7562 0.5295   0.677667
 C 0.2148 0.5731 0.4569   0.668742
 C 0.1803 0.1704 0.668   0.67663
 C 0.9946 0.4858 0.7855   0.657589
 C 0.2915 0.4252 0.9571   0.658527
 C 0.881 0.0405 0.8072   0.660735
 C 0.8885 0.2562 0.0295   0.677669
 C 0.2852 0.0731 0.9569   0.668743
 C 0.6803 0.3296 0.832   0.676624
 C 0.4946 0.0142 0.7145   0.657586
 C 0.7915 0.0748 0.5429   0.658528
 C 0.381 0.4595 0.6928   0.660733
 C 0.3885 0.2438 0.4705   0.677667
 C 0.7852 0.4269 0.5431   0.668743
 O 0.79525 0.80939 0.24629   -0.62922
 O 0.92869 0.81266 0.37206   -0.564139
 O 0.99955 0.62592 0.22092   -0.634457
 O 0.9911 0.45417 0.14267   -0.575423
 O 0.73809 0.65165 0.10505   -0.64225
 O 0.7905 0.52083 0.99273   -0.564274
 O 0.07955 0.85225 0.19885   -0.649354
 O 0.09391 0.02589 0.12899   -0.560707
 O 0.03007 0.6871 0.0231   -0.639116
 O 0.12115 0.85116 0.96586   -0.569812
 O 0.8383 0.89588 0.05688   -0.627163
 O 0.61433 0.88908 0.08538   -0.566034
 O 0.29525 0.69061 0.25371   -0.629219
 O 0.42869 0.68734 0.12794   -0.564139
 O 0.49955 0.87408 0.27908   -0.634457
 O 0.4911 0.04583 0.35733   -0.575423
 O 0.23809 0.84835 0.39495   -0.64225
 O 0.2905 0.97917 0.50727   -0.564274
 O 0.57955 0.64775 0.30115   -0.649354
 O 0.59391 0.47411 0.37101   -0.560707
 O 0.53007 0.8129 0.4769   -0.639116
 O 0.62115 0.64884 0.53414   -0.569812
 O 0.3383 0.60412 0.44312   -0.627163
 O 0.11433 0.61092 0.41462   -0.566034
 O 0.20475 0.19061 0.75371   -0.62922
 O 0.07131 0.18734 0.62794   -0.564139
 O 0.000450000000001 0.37408 0.77908   -0.634457
 O 0.0089 0.54583 0.85733   -0.575422
 O 0.26191 0.34835 0.89495   -0.642251
 O 0.2095 0.47917 0.00727   -0.564274
 O 0.92045 0.14775 0.80115   -0.649354
 O 0.90609 0.97411 0.87101   -0.560707
 O 0.96993 0.3129 0.9769   -0.639115
 O 0.87885 0.14884 0.03414   -0.569813
 O 0.1617 0.10412 0.94312   -0.627163
 O 0.38567 0.11092 0.91462   -0.566034
 O 0.70475 0.30939 0.74629   -0.629219
 O 0.57131 0.31266 0.87206   -0.564139
 O 0.50045 0.12592 0.72092   -0.634457
 O 0.5089 0.95417 0.64267   -0.575422
 O 0.76191 0.15165 0.60505   -0.642251
 O 0.7095 0.02083 0.49273   -0.564275
 O 0.42045 0.35225 0.69885   -0.649354
 O 0.40609 0.52589 0.62899   -0.560707
 O 0.46993 0.1871 0.5231   -0.639115
 O 0.37885 0.35116 0.46586   -0.569813
 O 0.6617 0.39588 0.55688   -0.627163
 O 0.88567 0.38908 0.58538   -0.566034
