{'_ref': 'TBD', '_srcid': 'CAKYAQ_clean', 'submitters': [{'name': 'Dalar Nazarian Jeff Camp and David Sholl', 'email': 'dalar@gatech.edu jcamp6@gatech.edu'}], '_method': 'VASP DFT with PBE;DDEC'}
data_FeH2(CO2)2
_symmetry_space_group_name_H-M   'P 1'
_cell_length_a   9.75770000
_cell_length_b   11.31900023
_cell_length_c   14.51560000
_cell_angle_alpha   91.06170056
_cell_angle_beta   90.00000000
_cell_angle_gamma   90.00000000
_symmetry_Int_Tables_number   1
_chemical_formula_structural   FeH2(CO2)2
_chemical_formula_sum   'Fe12 H24 C24 O48'
_cell_volume   1602.93516656
_cell_formula_units_Z   12
loop_
 _symmetry_equiv_pos_site_id
 _symmetry_equiv_pos_as_xyz
  1  'x, y, z'
loop_
 _atom_site_label
 _atom_site_fract_x
 _atom_site_fract_y
 _atom_site_fract_z
 _atom_site_charge
 Fe 0.91571 0.75587 0.13143   1.033089
 Fe 0.90021 0.26134 0.68501   1.055301
 Fe 0.41571 0.74413 0.36857   1.033088
 Fe 0.40021 0.23866 0.81499   1.055301
 Fe 0.08429 0.24413 0.86857   1.033088
 Fe 0.09979 0.73866 0.31499   1.055301
 Fe 0.58429 0.25587 0.63143   1.033088
 Fe 0.59979 0.76134 0.18501   1.055301
 Fe 0.0 0.5 0.0   1.068645
 Fe 0.5 0.0 0.5   1.068645
 Fe 0.0 0.0 0.0   1.083723
 Fe 0.5 0.5 0.5   1.083723
 H 0.7434 0.8671 0.3651   -0.001703
 H 0.0162 0.4715 0.2698   0.017009
 H 0.6112 0.5595 0.0329   0.007199
 H 0.1838 0.9838 0.2384   0.004087
 H 0.1786 0.6976 0.9369   0.012304
 H 0.6957 0.9918 0.0029   0.01214
 H 0.2434 0.6329 0.1349   -0.001703
 H 0.5162 0.0285 0.2302   0.017009
 H 0.1112 0.9405 0.4671   0.007199
 H 0.6838 0.5162 0.2616   0.004086
 H 0.6786 0.8024 0.5631   0.012304
 H 0.1957 0.5082 0.4971   0.01214
 H 0.2566 0.1329 0.6349   -0.001703
 H 0.9838 0.5285 0.7302   0.017009
 H 0.3888 0.4405 0.9671   0.007191
 H 0.8162 0.0162 0.7616   0.004086
 H 0.8214 0.3024 0.0631   0.012302
 H 0.3043 0.0082 0.9971   0.01214
 H 0.7566 0.3671 0.8651   -0.001703
 H 0.4838 0.9715 0.7698   0.017009
 H 0.8888 0.0595 0.5329   0.00719
 H 0.3162 0.4838 0.7384   0.004086
 H 0.3214 0.1976 0.4369   0.012302
 H 0.8043 0.4918 0.5029   0.012139
 C 0.8162 0.83447 0.32937   0.676798
 C 0.000900000000001 0.51323 0.21453   0.656458
 C 0.7055 0.57709 0.04189   0.662463
 C 0.1264 0.95527 0.19007   0.658188
 C 0.1142 0.74298 0.97168   0.672747
 C 0.7116 0.93131 0.04611   0.671588
 C 0.3162 0.66553 0.17063   0.676794
 C 0.5009 0.98677 0.28547   0.656457
 C 0.2055 0.92291 0.45811   0.662463
 C 0.6264 0.54473 0.30993   0.658187
 C 0.6142 0.75702 0.52832   0.672746
 C 0.2116 0.56869 0.45389   0.671588
 C 0.1838 0.16553 0.67063   0.676797
 C 0.9991 0.48677 0.78547   0.656458
 C 0.2945 0.42291 0.95811   0.662464
 C 0.8736 0.04473 0.80993   0.658188
 C 0.8858 0.25702 0.02832   0.672747
 C 0.2884 0.06869 0.95389   0.671588
 C 0.6838 0.33447 0.82937   0.676793
 C 0.4991 0.01323 0.71453   0.656457
 C 0.7945 0.07709 0.54189   0.662464
 C 0.3736 0.45527 0.69007   0.658187
 C 0.3858 0.24298 0.47168   0.672746
 C 0.7884 0.43131 0.54611   0.671588
 O 0.79149 0.8123 0.2445   -0.627625
 O 0.926 0.81745 0.36949   -0.565021
 O 0.9937 0.62532 0.22109   -0.636881
 O 0.98983 0.45392 0.14255   -0.572609
 O 0.73471 0.65224 0.10438   -0.638022
 O 0.78871 0.52416 0.99116   -0.568974
 O 0.07996 0.85041 0.19759   -0.645588
 O 0.10418 0.02306 0.12629   -0.561323
 O 0.03177 0.68633 0.02387   -0.63712
 O 0.11717 0.85112 0.96278   -0.570284
 O 0.83593 0.89797 0.05699   -0.623814
 O 0.60985 0.89178 0.08679   -0.566582
 O 0.29149 0.6877 0.2555   -0.627624
 O 0.426 0.68255 0.13051   -0.56502
 O 0.4937 0.87468 0.27891   -0.636881
 O 0.48983 0.04608 0.35745   -0.572609
 O 0.23471 0.84776 0.39562   -0.638022
 O 0.28871 0.97584 0.50884   -0.568974
 O 0.57996 0.64959 0.30241   -0.645588
 O 0.60418 0.47694 0.37371   -0.561323
 O 0.53177 0.81367 0.47613   -0.63712
 O 0.61717 0.64888 0.53722   -0.570284
 O 0.33593 0.60203 0.44301   -0.623814
 O 0.10985 0.60822 0.41321   -0.566582
 O 0.20851 0.1877 0.7555   -0.627625
 O 0.074 0.18255 0.63051   -0.56502
 O 0.0063 0.37468 0.77891   -0.636881
 O 0.01017 0.54608 0.85745   -0.572609
 O 0.26529 0.34776 0.89562   -0.638023
 O 0.21129 0.47584 0.00884   -0.568974
 O 0.92004 0.14959 0.80241   -0.645588
 O 0.89582 0.97694 0.87371   -0.561322
 O 0.96823 0.31367 0.97613   -0.63712
 O 0.88283 0.14888 0.03722   -0.570284
 O 0.16407 0.10203 0.94301   -0.623814
 O 0.39015 0.10822 0.91321   -0.566582
 O 0.70851 0.3123 0.7445   -0.627624
 O 0.574 0.31745 0.86949   -0.56502
 O 0.5063 0.12532 0.72109   -0.636881
 O 0.51017 0.95392 0.64255   -0.572609
 O 0.76529 0.15224 0.60438   -0.638023
 O 0.71129 0.02416 0.49116   -0.568974
 O 0.42004 0.35041 0.69759   -0.645588
 O 0.39582 0.52306 0.62629   -0.561322
 O 0.46823 0.18633 0.52387   -0.63712
 O 0.38283 0.35112 0.46278   -0.570284
 O 0.66407 0.39797 0.55699   -0.623814
 O 0.89015 0.39178 0.58679   -0.566582
