{'_ref': 'TBD', '_srcid': 'CAKYAQ_clean', 'submitters': [{'name': 'Dalar Nazarian Jeff Camp and David Sholl', 'email': 'dalar@gatech.edu jcamp6@gatech.edu'}], '_method': 'VASP DFT with PBE;DDEC'}
data_FeH2(CO2)2
_symmetry_space_group_name_H-M   'P 1'
_cell_length_a   9.88200000
_cell_length_b   11.39830032
_cell_length_c   14.61440000
_cell_angle_alpha   91.32229902
_cell_angle_beta   90.00000000
_cell_angle_gamma   90.00000000
_symmetry_Int_Tables_number   1
_chemical_formula_structural   FeH2(CO2)2
_chemical_formula_sum   'Fe12 H24 C24 O48'
_cell_volume   1645.69848278
_cell_formula_units_Z   12
loop_
 _symmetry_equiv_pos_site_id
 _symmetry_equiv_pos_as_xyz
  1  'x, y, z'
loop_
 _atom_site_label
 _atom_site_fract_x
 _atom_site_fract_y
 _atom_site_fract_z
 _atom_site_charge
 Fe 0.91847 0.75605 0.13196   1.035903
 Fe 0.89465 0.26017 0.68717   1.049912
 Fe 0.41847 0.74395 0.36804   1.035903
 Fe 0.39465 0.23983 0.81283   1.049912
 Fe 0.08153 0.24395 0.86804   1.035902
 Fe 0.10535 0.73983 0.31283   1.049911
 Fe 0.58153 0.25605 0.63196   1.035902
 Fe 0.60535 0.76017 0.18717   1.049911
 Fe 0.0 0.5 0.0   0.808641
 Fe 0.5 0.0 0.5   0.808641
 Fe 0.0 0.0 0.0   1.097058
 Fe 0.5 0.5 0.5   1.097058
 H 0.7524 0.8597 0.3661   -0.003359
 H 0.025 0.4758 0.2655   0.014176
 H 0.6188 0.5587 0.0379   0.007361
 H 0.188 0.9803 0.2328   -0.003239
 H 0.1681 0.7 0.934   0.00727
 H 0.7001 0.9915 0.0107   0.008046
 H 0.2524 0.6403 0.1339   -0.003359
 H 0.525 0.0242 0.2345   0.014176
 H 0.1188 0.9413 0.4621   0.007361
 H 0.688 0.5197 0.2672   -0.003239
 H 0.6681 0.8 0.566   0.00727
 H 0.2001 0.5085 0.4893   0.008046
 H 0.2476 0.1403 0.6339   -0.003359
 H 0.975 0.5242 0.7345   0.014177
 H 0.3812 0.4413 0.9621   0.007362
 H 0.812 0.0197 0.7672   -0.003239
 H 0.8319 0.3 0.066   0.00727
 H 0.2999 0.0085 0.9893   0.008046
 H 0.7476 0.3597 0.8661   -0.003359
 H 0.475 0.9758 0.7655   0.014177
 H 0.8812 0.0587 0.5379   0.007362
 H 0.312 0.4803 0.7328   -0.003238
 H 0.3319 0.2 0.434   0.00727
 H 0.7999 0.4915 0.5107   0.008047
 C 0.8226 0.83011 0.33001   0.68571
 C 0.0081 0.51609 0.21209   0.657016
 C 0.71 0.5762 0.0455   0.658065
 C 0.1295 0.95291 0.18721   0.678357
 C 0.1081 0.74375 0.97015   0.677385
 C 0.7168 0.93134 0.05114   0.682914
 C 0.3226 0.66989 0.16999   0.685711
 C 0.5081 0.98391 0.28791   0.657016
 C 0.21 0.9238 0.4545   0.658065
 C 0.6295 0.54709 0.31279   0.678357
 C 0.6081 0.75625 0.52985   0.677385
 C 0.2168 0.56866 0.44886   0.682914
 C 0.1774 0.16989 0.66999   0.68571
 C 0.9919 0.48391 0.78791   0.657016
 C 0.29 0.4238 0.9545   0.658065
 C 0.8705 0.04709 0.81279   0.678357
 C 0.8919 0.25625 0.02985   0.677385
 C 0.2832 0.06866 0.94886   0.682914
 C 0.6774 0.33011 0.83001   0.685711
 C 0.4919 0.01609 0.71209   0.657016
 C 0.79 0.0762 0.5455   0.658065
 C 0.3705 0.45291 0.68721   0.678357
 C 0.3919 0.24375 0.47015   0.677385
 C 0.7832 0.43134 0.55114   0.682914
 O 0.79637 0.80903 0.24623   -0.628653
 O 0.93257 0.81509 0.36829   -0.571685
 O 0.00102 0.62674 0.21881   -0.63369
 O 0.9946 0.45693 0.14113   -0.530901
 O 0.73921 0.65248 0.10611   -0.634633
 O 0.79027 0.52223 0.99503   -0.520866
 O 0.08163 0.85119 0.19668   -0.647469
 O 0.107 0.01926 0.12416   -0.573285
 O 0.03008 0.68662 0.02303   -0.593599
 O 0.1113 0.84997 0.96267   -0.574455
 O 0.84029 0.89862 0.05983   -0.634046
 O 0.6184 0.89098 0.09116   -0.565086
 O 0.29637 0.69097 0.25377   -0.628653
 O 0.43257 0.68491 0.13171   -0.571685
 O 0.50102 0.87326 0.28119   -0.63369
 O 0.4946 0.04307 0.35887   -0.530901
 O 0.23921 0.84752 0.39389   -0.634633
 O 0.29027 0.97777 0.50497   -0.520866
 O 0.58163 0.64881 0.30332   -0.647469
 O 0.607 0.48074 0.37584   -0.573285
 O 0.53008 0.81338 0.47697   -0.593599
 O 0.6113 0.65003 0.53733   -0.574455
 O 0.34029 0.60138 0.44017   -0.634046
 O 0.1184 0.60902 0.40884   -0.565086
 O 0.20363 0.19097 0.75377   -0.628653
 O 0.06743 0.18491 0.63171   -0.571685
 O 0.99898 0.37326 0.78119   -0.63369
 O 0.0054 0.54307 0.85887   -0.530901
 O 0.26079 0.34752 0.89389   -0.634633
 O 0.20973 0.47777 0.00497   -0.520867
 O 0.91837 0.14881 0.80332   -0.647469
 O 0.893 0.98074 0.87584   -0.573285
 O 0.96992 0.31338 0.97697   -0.593599
 O 0.8887 0.15003 0.03733   -0.574455
 O 0.15971 0.10138 0.94017   -0.634046
 O 0.3816 0.10902 0.90884   -0.565086
 O 0.70363 0.30903 0.74623   -0.628653
 O 0.56743 0.31509 0.86829   -0.571685
 O 0.49898 0.12674 0.71881   -0.63369
 O 0.5054 0.95693 0.64113   -0.530901
 O 0.76079 0.15248 0.60611   -0.634633
 O 0.70973 0.02223 0.49503   -0.520867
 O 0.41837 0.35119 0.69668   -0.647469
 O 0.393 0.51926 0.62416   -0.573285
 O 0.46992 0.18662 0.52303   -0.593599
 O 0.3887 0.34997 0.46267   -0.574455
 O 0.65971 0.39862 0.55983   -0.634046
 O 0.8816 0.39098 0.59116   -0.565086
