{'_ref': 'TBD', '_srcid': 'CAKYAQ_clean', 'submitters': [{'name': 'Dalar Nazarian Jeff Camp and David Sholl', 'email': 'dalar@gatech.edu jcamp6@gatech.edu'}], '_method': 'VASP DFT with PBE;DDEC'}
data_FeH2(CO2)2
_symmetry_space_group_name_H-M   'P 1'
_cell_length_a   9.80580000
_cell_length_b   11.34159968
_cell_length_c   14.55340000
_cell_angle_alpha   91.19620251
_cell_angle_beta   90.00000000
_cell_angle_gamma   90.00000000
_symmetry_Int_Tables_number   1
_chemical_formula_structural   FeH2(CO2)2
_chemical_formula_sum   'Fe12 H24 C24 O48'
_cell_volume   1618.18121388
_cell_formula_units_Z   12
loop_
 _symmetry_equiv_pos_site_id
 _symmetry_equiv_pos_as_xyz
  1  'x, y, z'
loop_
 _atom_site_label
 _atom_site_fract_x
 _atom_site_fract_y
 _atom_site_fract_z
 _atom_site_charge
 Fe 0.91673 0.75594 0.13164   1.037831
 Fe 0.8982 0.26085 0.68576   1.055504
 Fe 0.41673 0.74406 0.36836   1.037831
 Fe 0.3982 0.23915 0.81424   1.055504
 Fe 0.08327 0.24406 0.86836   1.037832
 Fe 0.1018 0.73915 0.31424   1.055505
 Fe 0.58327 0.25594 0.63164   1.037832
 Fe 0.6018 0.76085 0.18576   1.055505
 Fe 0.0 0.5 0.0   1.072652
 Fe 0.5 0.0 0.5   1.072652
 Fe 0.0 0.0 0.0   1.079935
 Fe 0.5 0.5 0.5   1.079935
 H 0.7455 0.8643 0.366   0.000936
 H 0.0185 0.4728 0.2692   0.017554
 H 0.6132 0.559 0.0344   0.006426
 H 0.1846 0.9834 0.237   0.002597
 H 0.1748 0.698 0.9356   0.010238
 H 0.6972 0.9924 0.0055   0.012443
 H 0.2455 0.6357 0.134   0.000936
 H 0.5185 0.0272 0.2308   0.017555
 H 0.1132 0.941 0.4656   0.006426
 H 0.6846 0.5166 0.263   0.002597
 H 0.6748 0.802 0.5644   0.010238
 H 0.1972 0.5076 0.4945   0.012444
 H 0.2545 0.1357 0.634   0.000936
 H 0.9815 0.5272 0.7308   0.017554
 H 0.3868 0.441 0.9656   0.006425
 H 0.8154 0.0166 0.763   0.002597
 H 0.8252 0.302 0.0644   0.010238
 H 0.3028 0.0076 0.9945   0.012444
 H 0.7545 0.3643 0.866   0.000936
 H 0.4815 0.9728 0.7692   0.017555
 H 0.8868 0.059 0.5344   0.006425
 H 0.3154 0.4834 0.737   0.002598
 H 0.3252 0.198 0.4356   0.010238
 H 0.8028 0.4924 0.5055   0.012444
 C 0.8181 0.83289 0.32979   0.673747
 C 0.003 0.51418 0.21408   0.655436
 C 0.7071 0.57679 0.04309   0.663999
 C 0.1269 0.95479 0.18909   0.661663
 C 0.1119 0.74327 0.97127   0.675945
 C 0.7136 0.93138 0.04788   0.67258
 C 0.3181 0.66711 0.17021   0.673747
 C 0.503 0.98582 0.28592   0.655436
 C 0.2071 0.92321 0.45691   0.663999
 C 0.6269 0.54521 0.31091   0.661663
 C 0.6119 0.75673 0.52873   0.675945
 C 0.2136 0.56862 0.45212   0.67258
 C 0.1819 0.16711 0.67021   0.673747
 C 0.997 0.48582 0.78592   0.655436
 C 0.2929 0.42321 0.95691   0.663999
 C 0.8731 0.04521 0.81091   0.661663
 C 0.8881 0.25673 0.02873   0.675945
 C 0.2864 0.06862 0.95212   0.67258
 C 0.6819 0.33289 0.82979   0.673747
 C 0.497 0.01418 0.71408   0.655436
 C 0.7929 0.07679 0.54309   0.663999
 C 0.3731 0.45479 0.68909   0.661663
 C 0.3881 0.24327 0.47127   0.675945
 C 0.7864 0.43138 0.54788   0.67258
 O 0.79344 0.81098 0.24494   -0.628093
 O 0.92836 0.81671 0.36891   -0.565295
 O 0.99631 0.626 0.22021   -0.635202
 O 0.9911 0.45461 0.14221   -0.575166
 O 0.73633 0.65238 0.10509   -0.639684
 O 0.78935 0.52356 0.99256   -0.569461
 O 0.08019 0.85066 0.19718   -0.646789
 O 0.10503 0.02184 0.12558   -0.562369
 O 0.03126 0.68625 0.02376   -0.639857
 O 0.11538 0.85062 0.96282   -0.568658
 O 0.83733 0.89806 0.05787   -0.625098
 O 0.6132 0.89137 0.08847   -0.567524
 O 0.29344 0.68902 0.25506   -0.628093
 O 0.42836 0.68329 0.13109   -0.565295
 O 0.49631 0.874 0.27979   -0.635202
 O 0.4911 0.04539 0.35779   -0.575166
 O 0.23633 0.84762 0.39491   -0.639684
 O 0.28935 0.97644 0.50744   -0.569461
 O 0.58019 0.64934 0.30282   -0.646789
 O 0.60503 0.47816 0.37442   -0.562369
 O 0.53126 0.81375 0.47624   -0.639857
 O 0.61538 0.64938 0.53718   -0.568658
 O 0.33733 0.60194 0.44213   -0.625098
 O 0.1132 0.60863 0.41153   -0.567524
 O 0.20656 0.18902 0.75506   -0.628093
 O 0.07164 0.18329 0.63109   -0.565295
 O 0.00369 0.374 0.77979   -0.635202
 O 0.0089 0.54539 0.85779   -0.575166
 O 0.26367 0.34762 0.89491   -0.639684
 O 0.21065 0.47644 0.00744   -0.569461
 O 0.91981 0.14934 0.80282   -0.646789
 O 0.89497 0.97816 0.87442   -0.562368
 O 0.96874 0.31375 0.97624   -0.639857
 O 0.88462 0.14938 0.03718   -0.568658
 O 0.16267 0.10194 0.94213   -0.625098
 O 0.3868 0.10863 0.91153   -0.567524
 O 0.70656 0.31098 0.74494   -0.628093
 O 0.57164 0.31671 0.86891   -0.565295
 O 0.50369 0.126 0.72021   -0.635202
 O 0.5089 0.95461 0.64221   -0.575166
 O 0.76367 0.15238 0.60509   -0.639684
 O 0.71065 0.02356 0.49256   -0.569461
 O 0.41981 0.35066 0.69718   -0.646789
 O 0.39497 0.52184 0.62558   -0.562368
 O 0.46874 0.18625 0.52376   -0.639857
 O 0.38462 0.35062 0.46282   -0.568658
 O 0.66267 0.39806 0.55787   -0.625098
 O 0.8868 0.39137 0.58847   -0.567524
