{'_ref': 'TBD', '_srcid': 'CAKYAQ_clean', 'submitters': [{'name': 'Dalar Nazarian Jeff Camp and David Sholl', 'email': 'dalar@gatech.edu jcamp6@gatech.edu'}], '_method': 'VASP DFT with PBE;DDEC'}
data_Zn5H60C88(NO6)4
_symmetry_space_group_name_H-M   'P 1'
_cell_length_a   15.64800041
_cell_length_b   16.34200000
_cell_length_c   16.98400000
_cell_angle_alpha   90.00000000
_cell_angle_beta   103.23000069
_cell_angle_gamma   90.00000000
_symmetry_Int_Tables_number   1
_chemical_formula_structural   Zn5H60C88(NO6)4
_chemical_formula_sum   'Zn10 H120 C176 N8 O48'
_cell_volume   4227.87161774
_cell_formula_units_Z   2
loop_
 _symmetry_equiv_pos_site_id
 _symmetry_equiv_pos_as_xyz
  1  'x, y, z'
loop_
 _atom_site_label
 _atom_site_fract_x
 _atom_site_fract_y
 _atom_site_fract_z
 _atom_site_charge
 Zn 0.63423 0.04109 0.55877   0.976224
 Zn 0.94659 0.9922 0.17468   1.014878
 Zn 0.86577 0.54109 0.44123   0.976224
 Zn 0.55341 0.4922 0.82532   1.014878
 Zn 0.36577 0.95891 0.44123   0.976224
 Zn 0.05341 0.0078 0.82532   1.014878
 Zn 0.13423 0.45891 0.55877   0.976224
 Zn 0.44659 0.5078 0.17468   1.014878
 Zn 0.0 0.0 0.0   1.104452
 Zn 0.5 0.5 0.0   1.104452
 H 0.7985 0.9633 0.6531   0.06729
 H 0.8445 0.8419 0.7092   0.121448
 H 0.7497 0.7354 0.7092   0.125579
 H 0.5547 0.8934 0.6135   0.079951
 H 0.4555 0.715 0.6406   0.090033
 H 0.4714 0.8023 0.6081   0.082358
 H 0.4123 0.9044 0.6798   0.109248
 H 0.3837 0.9597 0.7968   0.1058
 H 0.4982 0.7657 0.919   0.10333
 H 0.5244 0.714 0.802   0.104102
 H 0.3319 0.9913 0.8986   0.10652
 H 0.3082 0.0425 0.0177   0.08832
 H 0.4651 0.8761 0.1423   0.105154
 H 0.4984 0.8289 0.0251   0.098495
 H 0.3561 0.0562 0.1654   0.114939
 H 0.4143 0.9869 0.2147   0.111013
 H 0.2006 0.0358 0.1186   0.135068
 H 0.0849 0.8613 0.2235   0.142634
 H 0.2227 0.8104 0.2813   0.123989
 H 0.3455 0.8674 0.2536   0.130722
 H 0.9039 0.1679 0.5583   0.101721
 H 0.9932 0.2815 0.577   0.104652
 H 0.7861 0.4269 0.5558   0.099652
 H 0.6947 0.3132 0.537   0.103714
 H 0.6749 0.3063 0.0956   0.097221
 H 0.7455 0.3028 0.8823   0.103738
 H 0.844 0.1997 0.9292   0.082629
 H 0.7714 0.1997 0.1401   0.097551
 H 0.8957 0.9252 0.4115   0.099294
 H 0.0928 0.0831 0.4494   0.086525
 H 0.7015 0.4633 0.3469   0.06729
 H 0.6555 0.3419 0.2908   0.121449
 H 0.7503 0.2354 0.2908   0.12558
 H 0.9453 0.3934 0.3865   0.079951
 H 0.0445 0.215 0.3594   0.090033
 H 0.0286 0.3023 0.3919   0.082358
 H 0.0877 0.4044 0.3202   0.109248
 H 0.1163 0.4597 0.2032   0.1058
 H 0.0018 0.2657 0.081   0.10333
 H 0.9756 0.214 0.198   0.104102
 H 0.1681 0.4913 0.1014   0.10652
 H 0.1918 0.5425 0.9823   0.08832
 H 0.0349 0.3761 0.8577   0.105154
 H 0.0016 0.3289 0.9749   0.098496
 H 0.1439 0.5562 0.8346   0.114939
 H 0.0857 0.4869 0.7853   0.111013
 H 0.2994 0.5358 0.8814   0.135068
 H 0.4151 0.3613 0.7765   0.142634
 H 0.2773 0.3104 0.7187   0.123989
 H 0.1545 0.3674 0.7464   0.130723
 H 0.5961 0.6679 0.4417   0.101721
 H 0.5068 0.7815 0.423   0.104653
 H 0.7139 0.9269 0.4442   0.099651
 H 0.8053 0.8132 0.463   0.103713
 H 0.8251 0.8063 0.9044   0.097222
 H 0.7545 0.8028 0.1177   0.103738
 H 0.656 0.6997 0.0708   0.08263
 H 0.7286 0.6997 0.8599   0.097552
 H 0.6043 0.4252 0.5885   0.099293
 H 0.4072 0.5831 0.5506   0.086525
 H 0.2015 0.0367 0.3469   0.06729
 H 0.1555 0.1581 0.2908   0.121448
 H 0.2503 0.2646 0.2908   0.12558
 H 0.4453 0.1066 0.3865   0.079951
 H 0.5445 0.285 0.3594   0.090033
 H 0.5286 0.1977 0.3919   0.082358
 H 0.5877 0.0956 0.3202   0.109248
 H 0.6163 0.0403 0.2032   0.105798
 H 0.5018 0.2343 0.081   0.10333
 H 0.4756 0.286 0.198   0.104102
 H 0.6681 0.0087 0.1014   0.106519
 H 0.6918 0.9575 0.9823   0.08832
 H 0.5349 0.1239 0.8577   0.105153
 H 0.5016 0.1711 0.9749   0.098495
 H 0.6439 0.9438 0.8346   0.114939
 H 0.5857 0.0131 0.7853   0.111013
 H 0.7994 0.9642 0.8814   0.135069
 H 0.9151 0.1387 0.7765   0.142635
 H 0.7773 0.1896 0.7187   0.123987
 H 0.6545 0.1326 0.7464   0.130723
 H 0.0961 0.8321 0.4417   0.101721
 H 0.0068 0.7185 0.423   0.104653
 H 0.2139 0.5731 0.4442   0.099651
 H 0.3053 0.6868 0.463   0.103714
 H 0.3251 0.6937 0.9044   0.097222
 H 0.2545 0.6972 0.1177   0.103736
 H 0.156 0.8003 0.0708   0.08263
 H 0.2286 0.8003 0.8599   0.097552
 H 0.1043 0.0748 0.5885   0.099294
 H 0.9072 0.9169 0.5506   0.086525
 H 0.2985 0.5367 0.6531   0.06729
 H 0.3445 0.6581 0.7092   0.121448
 H 0.2497 0.7646 0.7092   0.125581
 H 0.0547 0.6066 0.6135   0.079951
 H 0.9555 0.785 0.6406   0.090033
 H 0.9714 0.6977 0.6081   0.082358
 H 0.9123 0.5956 0.6798   0.109248
 H 0.8837 0.5403 0.7968   0.105798
 H 0.9982 0.7343 0.919   0.10333
 H 0.0244 0.786 0.802   0.104102
 H 0.8319 0.5087 0.8986   0.106519
 H 0.8082 0.4575 0.0177   0.08832
 H 0.9651 0.6239 0.1423   0.105153
 H 0.9984 0.6711 0.0251   0.098496
 H 0.8561 0.4438 0.1654   0.114939
 H 0.9143 0.5131 0.2147   0.111013
 H 0.7006 0.4642 0.1186   0.135069
 H 0.5849 0.6387 0.2235   0.142635
 H 0.7227 0.6896 0.2813   0.123987
 H 0.8455 0.6326 0.2536   0.130723
 H 0.4039 0.3321 0.5583   0.101721
 H 0.4932 0.2185 0.577   0.104654
 H 0.2861 0.0731 0.5558   0.09965
 H 0.1947 0.1868 0.537   0.103714
 H 0.1749 0.1937 0.0956   0.097223
 H 0.2455 0.1972 0.8823   0.103735
 H 0.344 0.3003 0.9292   0.08263
 H 0.2714 0.3003 0.1401   0.097552
 H 0.3957 0.5748 0.4115   0.099293
 H 0.5928 0.4169 0.4494   0.086525
 C 0.7563 0.9236 0.6546   0.177231
 C 0.7848 0.8495 0.6878   -0.154451
 C 0.7292 0.7869 0.6907   -0.109046
 C 0.6312 0.8046 0.662   0.221459
 C 0.6135 0.8795 0.6322   -0.102563
 C 0.4896 0.7648 0.6532   0.073836
 C 0.4711 0.8034 0.7296   0.001357
 C 0.4298 0.8762 0.7284   -0.118142
 C 0.4128 0.9098 0.7993   -0.111286
 C 0.4382 0.8705 0.872   0.027541
 C 0.4804 0.7951 0.8712   -0.105385
 C 0.4958 0.764 0.8006   -0.09497
 C 0.4198 0.9036 0.9477   0.025838
 C 0.361 0.9683 0.9474   -0.091176
 C 0.3458 0.9982 0.0193   -0.104579
 C 0.3843 0.9648 0.0925   0.02273
 C 0.4394 0.9009 0.0934   -0.1221
 C 0.4584 0.8715 0.0221   -0.090783
 C 0.3647 0.9975 0.1698   -0.093619
 C 0.2035 0.9899 0.1515   -0.096298
 C 0.1265 0.9558 0.1641   0.365003
 C 0.1346 0.8865 0.2135   -0.152305
 C 0.2173 0.8557 0.2474   -0.064024
 C 0.2906 0.8902 0.2323   -0.02695
 C 0.7317 0.1556 0.5454   0.678762
 C 0.7933 0.2277 0.5498   -0.122388
 C 0.8794 0.2196 0.559   -0.048908
 C 0.9328 0.2881 0.5696   -0.036702
 C 0.899 0.3652 0.5695   -0.165452
 C 0.9583 0.4378 0.5781   0.7053
 C 0.81 0.3747 0.5571   -0.055476
 C 0.7553 0.3069 0.5463   -0.075613
 C 0.6335 0.38 0.9527   0.685601
 C 0.7074 0.2838 0.0615   -0.073276
 C 0.698 0.3141 0.9828   -0.130825
 C 0.7502 0.282 0.9341   -0.063765
 C 0.8085 0.2198 0.9618   -0.058249
 C 0.8145 0.1871 0.0381   -0.132779
 C 0.7655 0.2202 0.0881   -0.049926
 C 0.874 0.117 0.0648   0.695948
 C 0.9892 0.0084 0.3287   0.651119
 C 0.9948 0.0042 0.4183   -0.103184
 C 0.9383 0.9554 0.447   -0.067064
 C 0.0552 0.049 0.4696   -0.054245
 C 0.7437 0.4236 0.3454   0.177231
 C 0.7152 0.3495 0.3122   -0.154452
 C 0.7708 0.2869 0.3093   -0.109045
 C 0.8688 0.3046 0.338   0.221459
 C 0.8865 0.3795 0.3678   -0.102563
 C 0.0104 0.2648 0.3468   0.073836
 C 0.0289 0.3034 0.2704   0.001357
 C 0.0702 0.3762 0.2716   -0.118142
 C 0.0872 0.4098 0.2007   -0.111286
 C 0.0618 0.3705 0.128   0.027541
 C 0.0196 0.2951 0.1288   -0.105384
 C 0.0042 0.264 0.1994   -0.09497
 C 0.0802 0.4036 0.0523   0.025838
 C 0.139 0.4683 0.0526   -0.091176
 C 0.1542 0.4982 0.9807   -0.104579
 C 0.1157 0.4648 0.9075   0.02273
 C 0.0606 0.4009 0.9066   -0.1221
 C 0.0416 0.3715 0.9779   -0.090783
 C 0.1353 0.4975 0.8302   -0.093619
 C 0.2965 0.4899 0.8485   -0.096298
 C 0.3735 0.4558 0.8359   0.365003
 C 0.3654 0.3865 0.7865   -0.152305
 C 0.2827 0.3557 0.7526   -0.064024
 C 0.2094 0.3902 0.7677   -0.02695
 C 0.7683 0.6556 0.4546   0.678762
 C 0.7067 0.7277 0.4502   -0.122387
 C 0.6206 0.7196 0.441   -0.048908
 C 0.5672 0.7881 0.4304   -0.036702
 C 0.601 0.8652 0.4305   -0.165452
 C 0.5417 0.9378 0.4219   0.7053
 C 0.69 0.8747 0.4429   -0.055476
 C 0.7447 0.8069 0.4537   -0.075612
 C 0.8665 0.88 0.0473   0.685601
 C 0.7926 0.7838 0.9385   -0.073277
 C 0.802 0.8141 0.0172   -0.130825
 C 0.7498 0.782 0.0659   -0.063764
 C 0.6915 0.7198 0.0382   -0.058249
 C 0.6855 0.6871 0.9619   -0.132779
 C 0.7345 0.7202 0.9119   -0.049925
 C 0.626 0.617 0.9352   0.695948
 C 0.5108 0.5084 0.6713   0.651119
 C 0.5052 0.5042 0.5817   -0.103184
 C 0.5617 0.4554 0.553   -0.067064
 C 0.4448 0.549 0.5304   -0.054245
 C 0.2437 0.0764 0.3454   0.177231
 C 0.2152 0.1505 0.3122   -0.154451
 C 0.2708 0.2131 0.3093   -0.109046
 C 0.3688 0.1954 0.338   0.221459
 C 0.3865 0.1205 0.3678   -0.102563
 C 0.5104 0.2352 0.3468   0.073836
 C 0.5289 0.1966 0.2704   0.001357
 C 0.5702 0.1238 0.2716   -0.118142
 C 0.5872 0.0902 0.2007   -0.111286
 C 0.5618 0.1295 0.128   0.027541
 C 0.5196 0.2049 0.1288   -0.105385
 C 0.5042 0.236 0.1994   -0.09497
 C 0.5802 0.0964 0.0523   0.025837
 C 0.639 0.0317 0.0526   -0.091177
 C 0.6542 0.0018 0.9807   -0.10458
 C 0.6157 0.0352 0.9075   0.022729
 C 0.5606 0.0991 0.9066   -0.122101
 C 0.5416 0.1285 0.9779   -0.090784
 C 0.6353 0.0025 0.8302   -0.093619
 C 0.7965 0.0101 0.8485   -0.096298
 C 0.8735 0.0442 0.8359   0.365003
 C 0.8654 0.1135 0.7865   -0.152305
 C 0.7827 0.1443 0.7526   -0.064023
 C 0.7094 0.1098 0.7677   -0.026951
 C 0.2683 0.8444 0.4546   0.678762
 C 0.2067 0.7723 0.4502   -0.122387
 C 0.1206 0.7804 0.441   -0.048908
 C 0.0672 0.7119 0.4304   -0.036702
 C 0.101 0.6348 0.4305   -0.165452
 C 0.0417 0.5622 0.4219   0.7053
 C 0.19 0.6253 0.4429   -0.055476
 C 0.2447 0.6931 0.4537   -0.075613
 C 0.3665 0.62 0.0473   0.685601
 C 0.2926 0.7162 0.9385   -0.073277
 C 0.302 0.6859 0.0172   -0.130826
 C 0.2498 0.718 0.0659   -0.063763
 C 0.1915 0.7802 0.0382   -0.05825
 C 0.1855 0.8129 0.9619   -0.13278
 C 0.2345 0.7798 0.9119   -0.049926
 C 0.126 0.883 0.9352   0.695947
 C 0.0108 0.9916 0.6713   0.651119
 C 0.0052 0.9958 0.5817   -0.103183
 C 0.0617 0.0446 0.553   -0.067066
 C 0.9448 0.951 0.5304   -0.054247
 C 0.2563 0.5764 0.6546   0.177231
 C 0.2848 0.6505 0.6878   -0.154451
 C 0.2292 0.7131 0.6907   -0.109045
 C 0.1312 0.6954 0.662   0.221459
 C 0.1135 0.6205 0.6322   -0.102563
 C 0.9896 0.7352 0.6532   0.073836
 C 0.9711 0.6966 0.7296   0.001357
 C 0.9298 0.6238 0.7284   -0.118142
 C 0.9128 0.5902 0.7993   -0.111286
 C 0.9382 0.6295 0.872   0.027541
 C 0.9804 0.7049 0.8712   -0.105384
 C 0.9958 0.736 0.8006   -0.09497
 C 0.9198 0.5964 0.9477   0.025837
 C 0.861 0.5317 0.9474   -0.091177
 C 0.8458 0.5018 0.0193   -0.10458
 C 0.8843 0.5352 0.0925   0.022729
 C 0.9394 0.5991 0.0934   -0.122101
 C 0.9584 0.6285 0.0221   -0.090785
 C 0.8647 0.5025 0.1698   -0.093619
 C 0.7035 0.5101 0.1515   -0.096298
 C 0.6265 0.5442 0.1641   0.365003
 C 0.6346 0.6135 0.2135   -0.152305
 C 0.7173 0.6443 0.2474   -0.064023
 C 0.7906 0.6098 0.2323   -0.026951
 C 0.2317 0.3444 0.5454   0.678762
 C 0.2933 0.2723 0.5498   -0.122387
 C 0.3794 0.2804 0.559   -0.048908
 C 0.4328 0.2119 0.5696   -0.036703
 C 0.399 0.1348 0.5695   -0.165452
 C 0.4583 0.0622 0.5781   0.7053
 C 0.31 0.1253 0.5571   -0.055475
 C 0.2553 0.1931 0.5463   -0.075613
 C 0.1335 0.12 0.9527   0.685601
 C 0.2074 0.2162 0.0615   -0.073277
 C 0.198 0.1859 0.9828   -0.130826
 C 0.2502 0.218 0.9341   -0.063763
 C 0.3085 0.2802 0.9618   -0.05825
 C 0.3145 0.3129 0.0381   -0.13278
 C 0.2655 0.2798 0.0881   -0.049926
 C 0.374 0.383 0.0648   0.695947
 C 0.4892 0.4916 0.3287   0.651119
 C 0.4948 0.4958 0.4183   -0.103183
 C 0.4383 0.5446 0.447   -0.067066
 C 0.5552 0.451 0.4696   -0.054247
 N 0.6784 0.9418 0.6263   -0.338252
 N 0.283 0.9574 0.1863   0.120699
 N 0.8216 0.4418 0.3737   -0.338252
 N 0.217 0.4574 0.8137   0.1207
 N 0.3216 0.0582 0.3737   -0.338252
 N 0.717 0.0426 0.8137   0.1207
 N 0.1784 0.5582 0.6263   -0.338252
 N 0.783 0.5426 0.1863   0.1207
 O 0.7586 0.0864 0.5566   -0.623141
 O 0.6551 0.1655 0.5394   -0.601621
 O 0.0391 0.427 0.6126   -0.627936
 O 0.9298 0.5051 0.5503   -0.600616
 O 0.9152 0.0895 0.01631   -0.612127
 O 0.8784 0.08897 0.13438   -0.598973
 O 0.6233 0.3988 0.87924   -0.609429
 O 0.5951 0.4121 0.000999999999998   -0.602165
 O 0.0336 0.0593 0.3005   -0.605967
 O 0.9422 0.9573 0.28428   -0.608477
 O 0.05069 0.98789 0.12882   -0.627471
 O 0.5852 0.7454 0.6637   -0.186737
 O 0.7414 0.5864 0.4434   -0.623141
 O 0.8449 0.6655 0.4606   -0.601621
 O 0.4609 0.927 0.3874   -0.627936
 O 0.5702 0.0051 0.4497   -0.600616
 O 0.5848 0.5895 0.98369   -0.612127
 O 0.6216 0.58897 0.86562   -0.598973
 O 0.8767 0.8988 0.12076   -0.609429
 O 0.9049 0.9121 0.999   -0.602165
 O 0.4664 0.5593 0.6995   -0.605967
 O 0.5578 0.4573 0.71572   -0.608478
 O 0.44931 0.48789 0.87118   -0.627471
 O 0.9148 0.2454 0.3363   -0.186737
 O 0.2414 0.9136 0.4434   -0.623141
 O 0.3449 0.8345 0.4606   -0.601621
 O 0.9609 0.573 0.3874   -0.627936
 O 0.0702 0.4949 0.4497   -0.600617
 O 0.0848 0.9105 0.98369   -0.612127
 O 0.1216 0.91103 0.86562   -0.598973
 O 0.3767 0.6012 0.12076   -0.609429
 O 0.4049 0.5879 0.999   -0.602165
 O 0.9664 0.9407 0.6995   -0.605967
 O 0.0578 0.0427 0.71572   -0.608477
 O 0.94931 0.01211 0.87118   -0.627471
 O 0.4148 0.2546 0.3363   -0.186737
 O 0.2586 0.4136 0.5566   -0.623141
 O 0.1551 0.3345 0.5394   -0.601621
 O 0.5391 0.073 0.6126   -0.627936
 O 0.4298 0.9949 0.5503   -0.600616
 O 0.4152 0.4105 0.01631   -0.612127
 O 0.3784 0.41103 0.13438   -0.598973
 O 0.1233 0.1012 0.87924   -0.609429
 O 0.0951 0.0879 0.000999999999998   -0.602166
 O 0.5336 0.4407 0.3005   -0.605967
 O 0.4422 0.5427 0.28428   -0.608478
 O 0.55069 0.51211 0.12882   -0.627471
 O 0.0852 0.7546 0.6637   -0.186737
