{'_ref': 'TBD', '_srcid': 'CAKYAQ_clean', 'submitters': [{'name': 'Dalar Nazarian Jeff Camp and David Sholl', 'email': 'dalar@gatech.edu jcamp6@gatech.edu'}], '_method': 'VASP DFT with PBE;DDEC'}
data_SrH4(C3O2)3
_symmetry_space_group_name_H-M   'P 1'
_cell_length_a   7.26599963
_cell_length_b   8.36799995
_cell_length_c   10.16300000
_cell_angle_alpha   94.81000311
_cell_angle_beta   105.18000183
_cell_angle_gamma   109.18000225
_symmetry_Int_Tables_number   1
_chemical_formula_structural   SrH4(C3O2)3
_chemical_formula_sum   'Sr2 H8 C18 O12'
_cell_volume   553.396682484
_cell_formula_units_Z   2
loop_
 _symmetry_equiv_pos_site_id
 _symmetry_equiv_pos_as_xyz
  1  'x, y, z'
loop_
 _atom_site_label
 _atom_site_fract_x
 _atom_site_fract_y
 _atom_site_fract_z
 _atom_site_charge
 Sr 0.3104 0.55235 0.62482   1.65183
 Sr 0.6896 0.44765 0.37518   1.651839
 H 0.8088 0.0625 0.1949   0.104664
 H 0.8015 0.0931 0.8022   0.098578
 H 0.2354 0.455 0.1144   0.093401
 H 0.542 0.692 0.005   0.42976
 H 0.1912 0.9375 0.8051   0.104664
 H 0.1985 0.9069 0.1978   0.098578
 H 0.7646 0.545 0.8856   0.0934
 H 0.458 0.308 0.995   0.429759
 C 0.0367 0.2728 0.1787   -0.161399
 C 0.8666 0.1181 0.1319   0.030912
 C 0.7847 0.0483 0.9907   -0.218764
 C 0.8632 0.1369 0.8967   0.049743
 C 0.0345 0.2921 0.9409   -0.161281
 C 0.1194 0.3548 0.0826   0.017153
 C 0.126 0.3471 0.3317   0.7764
 C 0.6127 0.8814 0.9337   0.708743
 C 0.1206 0.3819 0.8366   0.672043
 C 0.9633 0.7272 0.8213   -0.1614
 C 0.1334 0.8819 0.8681   0.030909
 C 0.2153 0.9517 0.0093   -0.218765
 C 0.1368 0.8631 0.1033   0.049742
 C 0.9655 0.7079 0.0591   -0.161282
 C 0.8806 0.6452 0.9174   0.01715
 C 0.874 0.6529 0.6683   0.7764
 C 0.3873 0.1186 0.0663   0.708738
 C 0.8794 0.6181 0.1634   0.672041
 O 0.3165 0.4092 0.3785   -0.792128
 O 0.0041 0.3429 0.4004   -0.742194
 O 0.5544 0.792 0.027   -0.549487
 O 0.5322 0.8277 0.8092   -0.608685
 O 0.0227 0.3338 0.7116   -0.6754
 O 0.2942 0.5072 0.879   -0.723883
 O 0.6835 0.5908 0.6215   -0.792128
 O 0.9959 0.6571 0.5996   -0.742194
 O 0.4456 0.208 0.973   -0.549486
 O 0.4678 0.1723 0.1908   -0.608685
 O 0.9773 0.6662 0.2884   -0.6754
 O 0.7058 0.4928 0.121   -0.723883
