{'_ref': 'TBD', '_srcid': 'CAKYAQ_clean', 'submitters': [{'name': 'Dalar Nazarian Jeff Camp and David Sholl', 'email': 'dalar@gatech.edu jcamp6@gatech.edu'}], '_method': 'VASP DFT with PBE;DDEC'}
data_CaH4(C2O)4
_symmetry_space_group_name_H-M   'P 1'
_cell_length_a   10.68399974
_cell_length_b   13.84820037
_cell_length_c   14.96040000
_cell_angle_alpha   76.46660105
_cell_angle_beta   69.07919910
_cell_angle_gamma   67.30940083
_symmetry_Int_Tables_number   1
_chemical_formula_structural   CaH4(C2O)4
_chemical_formula_sum   'Ca6 H24 C48 O24'
_cell_volume   1895.56831928
_cell_formula_units_Z   6
loop_
 _symmetry_equiv_pos_site_id
 _symmetry_equiv_pos_as_xyz
  1  'x, y, z'
loop_
 _atom_site_label
 _atom_site_fract_x
 _atom_site_fract_y
 _atom_site_fract_z
 _atom_site_charge
 Ca 0.50665 0.9681 0.38326   1.557529
 Ca 0.85801 0.5319 0.11674   1.558213
 Ca 0.49335 0.0319 0.61674   1.557531
 Ca 0.14199 0.4681 0.88326   1.558215
 Ca 0.78306 0.75 0.25   1.604669
 Ca 0.21694 0.25 0.75   1.604669
 H 0.7294 0.1805 0.2457   0.110102
 H 0.8171 0.3121 0.1491   0.088558
 H 0.1387 0.0944 0.984   0.095349
 H 0.0541 0.9625 0.0847   0.108194
 H 0.6306 0.8378 0.0646   0.095332
 H 0.3692 0.1379 0.0951   0.110005
 H 0.1556 0.3195 0.2543   0.110345
 H 0.2783 0.1879 0.3509   0.089166
 H 0.2171 0.4056 0.516   0.093664
 H 0.1013 0.5375 0.4153   0.107877
 H 0.533 0.6622 0.4354   0.095824
 H 0.6022 0.3621 0.4049   0.108977
 H 0.2706 0.8195 0.7543   0.110102
 H 0.1829 0.6879 0.8509   0.088558
 H 0.8613 0.9056 0.016   0.095349
 H 0.9459 0.0375 0.9153   0.108194
 H 0.3694 0.1622 0.9354   0.095332
 H 0.6308 0.8621 0.9049   0.110005
 H 0.8444 0.6805 0.7457   0.110345
 H 0.7217 0.8121 0.6491   0.089166
 H 0.7829 0.5944 0.484   0.093664
 H 0.8987 0.4625 0.5847   0.107877
 H 0.467 0.3378 0.5646   0.095823
 H 0.3978 0.6379 0.5951   0.108977
 C 0.8216 0.9751 0.2367   0.744312
 C 0.8826 0.0586 0.1744   -0.115418
 C 0.8132 0.1629 0.1929   -0.058649
 C 0.8647 0.2411 0.1353   -0.042736
 C 0.987 0.2159 0.0567   -0.170821
 C 0.0406 0.3023 0.9937   0.798302
 C 0.0563 0.1119 0.0377   -0.036198
 C 0.005 0.0338 0.097   -0.059372
 C 0.4986 0.9717 0.1985   0.727491
 C 0.4983 0.9853 0.0957   -0.117786
 C 0.577 0.9038 0.0386   -0.058107
 C 0.4223 0.0815 0.0565   -0.059653
 C 0.0334 0.5249 0.2633   0.745777
 C 0.1156 0.4414 0.3256   -0.116447
 C 0.169 0.3371 0.3071   -0.059545
 C 0.2411 0.2589 0.3647   -0.042881
 C 0.2596 0.2841 0.4433   -0.170514
 C 0.3366 0.1977 0.5063   0.798716
 C 0.2059 0.3881 0.4623   -0.031733
 C 0.1358 0.4662 0.403   -0.06141
 C 0.6688 0.5283 0.3015   0.727343
 C 0.5793 0.5147 0.4043   -0.116043
 C 0.5194 0.5962 0.4614   -0.060109
 C 0.5603 0.4185 0.4435   -0.058969
 C 0.1784 0.0249 0.7633   0.744312
 C 0.1174 0.9414 0.8256   -0.115418
 C 0.1868 0.8371 0.8071   -0.058649
 C 0.1353 0.7589 0.8647   -0.042736
 C 0.013 0.7841 0.9433   -0.170821
 C 0.9594 0.6977 0.0063   0.798302
 C 0.9437 0.8881 0.9623   -0.036198
 C 0.995 0.9662 0.903   -0.059373
 C 0.5014 0.0283 0.8015   0.727491
 C 0.5017 0.0147 0.9043   -0.117786
 C 0.423 0.0962 0.9614   -0.058108
 C 0.5777 0.9185 0.9435   -0.059654
 C 0.9666 0.4751 0.7367   0.745777
 C 0.8844 0.5586 0.6744   -0.116447
 C 0.831 0.6629 0.6929   -0.059545
 C 0.7589 0.7411 0.6353   -0.042882
 C 0.7404 0.7159 0.5567   -0.170514
 C 0.6634 0.8023 0.4937   0.798716
 C 0.7941 0.6119 0.5377   -0.031733
 C 0.8642 0.5338 0.597   -0.061411
 C 0.3312 0.4717 0.6985   0.727343
 C 0.4207 0.4853 0.5957   -0.116043
 C 0.4806 0.4038 0.5386   -0.06011
 C 0.4397 0.5815 0.5565   -0.05897
 O 0.71126 0.00599 0.30709   -0.757743
 O 0.87973 0.88307 0.21387   -0.701204
 O 0.13203 0.28499 0.91335   -0.769936
 O 0.99317 0.39136 0.0249   -0.809017
 O 0.57412 0.88491 0.23285   -0.804712
 O 0.42305 0.04755 0.24755   -0.676413
 O 0.02434 0.49401 0.19291   -0.758312
 O 0.97667 0.61693 0.28613   -0.701128
 O 0.33037 0.21501 0.58665   -0.771067
 O 0.40943 0.10864 0.4751   -0.808862
 O 0.69188 0.61509 0.26715   -0.804037
 O 0.71815 0.45245 0.25245   -0.67692
 O 0.28874 0.99401 0.69291   -0.757743
 O 0.12027 0.11693 0.78613   -0.701204
 O 0.86797 0.71501 0.08665   -0.769936
 O 0.00683 0.60864 0.9751   -0.809017
 O 0.42588 0.11509 0.76715   -0.804712
 O 0.57695 0.95245 0.75245   -0.676413
 O 0.97566 0.50599 0.80709   -0.758312
 O 0.02333 0.38307 0.71387   -0.701128
 O 0.66963 0.78499 0.41335   -0.771067
 O 0.59057 0.89136 0.5249   -0.808862
 O 0.30812 0.38491 0.73285   -0.804037
 O 0.28185 0.54755 0.74755   -0.67692
