{'_ref': 'TBD', '_srcid': 'CAKYAQ_clean', 'submitters': [{'name': 'Dalar Nazarian Jeff Camp and David Sholl', 'email': 'dalar@gatech.edu jcamp6@gatech.edu'}], '_method': 'VASP DFT with PBE;DDEC'}
data_SrH4(C2O)4
_symmetry_space_group_name_H-M   'P 1'
_cell_length_a   9.82890000
_cell_length_b   10.61229966
_cell_length_c   10.61230000
_cell_angle_alpha   120.00000106
_cell_angle_beta   90.00000000
_cell_angle_gamma   90.00000000
_symmetry_Int_Tables_number   1
_chemical_formula_structural   SrH4(C2O)4
_chemical_formula_sum   'Sr3 H12 C24 O12'
_cell_volume   958.637838039
_cell_formula_units_Z   3
loop_
 _symmetry_equiv_pos_site_id
 _symmetry_equiv_pos_as_xyz
  1  'x, y, z'
loop_
 _atom_site_label
 _atom_site_fract_x
 _atom_site_fract_y
 _atom_site_fract_z
 _atom_site_charge
 Sr 0.16665 0.90139 0.02178   1.635054
 Sr 0.83332 0.12039 0.09861   1.635021
 Sr 0.49998 0.97822 0.87961   1.635128
 H 0.8967 0.133 0.7844   0.089191
 H 0.8279 0.1481 0.5844   0.106865
 H 0.1933 0.0074 0.4022   0.08693
 H 0.2623 0.9925 0.6018   0.091814
 H 0.56337 0.6514 0.867   0.089671
 H 0.49457 0.4363 0.8519   0.107325
 H 0.85997 0.3948 0.9926   0.086884
 H 0.92897 0.6093 0.0075   0.091909
 H 0.23003 0.2156 0.3486   0.089544
 H 0.16123 0.4156 0.5637   0.107307
 H 0.52663 0.5978 0.6052   0.086305
 H 0.59563 0.3982 0.3907   0.092271
 C 0.1283 0.0491 0.8442   0.785253
 C 0.0862 0.0619 0.7141   -0.14442
 C 0.9568 0.1078 0.7077   -0.046343
 C 0.9156 0.1168 0.5875   -0.05564
 C 0.0033 0.0798 0.472   -0.121957
 C 0.9543 0.0885 0.3423   0.726982
 C 0.1333 0.033 0.479   -0.075596
 C 0.1748 0.024 0.5985   -0.039538
 C 0.79497 0.7951 0.9509   0.786758
 C 0.75287 0.6522 0.9381   -0.145378
 C 0.62347 0.5999 0.8922   -0.046004
 C 0.58227 0.4707 0.8832   -0.057144
 C 0.66997 0.3922 0.9202   -0.120975
 C 0.62097 0.2538 0.9115   0.725244
 C 0.79997 0.446 0.967   -0.075526
 C 0.84147 0.5745 0.976   -0.039359
 C 0.46163 0.1558 0.2049   0.785919
 C 0.41953 0.2859 0.3478   -0.145312
 C 0.29013 0.2923 0.4001   -0.046185
 C 0.24893 0.4125 0.5293   -0.056942
 C 0.33663 0.528 0.6078   -0.121634
 C 0.28763 0.6577 0.7462   0.726083
 C 0.46663 0.521 0.554   -0.074488
 C 0.50813 0.4015 0.4255   -0.039792
 O 0.0415 0.0747 0.9418   -0.795566
 O 0.2461 0.0071 0.8476   -0.75941
 O 0.8319 0.1146 0.3359   -0.673886
 O 0.0396 0.0741 0.247   -0.809821
 O 0.70817 0.8671 0.9253   -0.796229
 O 0.91277 0.8405 0.9929   -0.759992
 O 0.49857 0.2213 0.8854   -0.673142
 O 0.70627 0.1729 0.9259   -0.809011
 O 0.37483 0.0582 0.1329   -0.795875
 O 0.57943 0.1524 0.1595   -0.759504
 O 0.16523 0.6641 0.7787   -0.673115
 O 0.37293 0.753 0.8271   -0.809673
