{'_ref': 'TBD', '_srcid': 'CAKYAQ_clean', 'submitters': [{'name': 'Dalar Nazarian Jeff Camp and David Sholl', 'email': 'dalar@gatech.edu jcamp6@gatech.edu'}], '_method': 'VASP DFT with PBE;DDEC'}
data_SrH4(C2O)4
_symmetry_space_group_name_H-M   'P 1'
_cell_length_a   9.80600000
_cell_length_b   10.59899978
_cell_length_c   10.59900000
_cell_angle_alpha   120.00000069
_cell_angle_beta   90.00000000
_cell_angle_gamma   90.00000000
_symmetry_Int_Tables_number   1
_chemical_formula_structural   SrH4(C2O)4
_chemical_formula_sum   'Sr3 H12 C24 O12'
_cell_volume   954.008606927
_cell_formula_units_Z   3
loop_
 _symmetry_equiv_pos_site_id
 _symmetry_equiv_pos_as_xyz
  1  'x, y, z'
loop_
 _atom_site_label
 _atom_site_fract_x
 _atom_site_fract_y
 _atom_site_fract_z
 _atom_site_charge
 Sr 0.12349 0.68831 0.23478   1.63504
 Sr 0.45682 0.54647 0.31169   1.634796
 Sr 0.79016 0.76522 0.45353   1.634643
 H 0.52077 0.5278 0.9826   0.088102
 H 0.45037 0.5146 0.7689   0.108375
 H 0.81477 0.666 0.7315   0.088351
 H 0.88577 0.6782 0.9458   0.094216
 H 0.8541 0.4548 0.4722   0.087774
 H 0.7837 0.2543 0.4854   0.108393
 H 0.1481 0.0655 0.334   0.088087
 H 0.2191 0.2676 0.3218   0.093997
 H 0.18744 0.0174 0.5452   0.088221
 H 0.11704 0.2311 0.7457   0.108614
 H 0.48144 0.2685 0.9345   0.088131
 H 0.55244 0.0542 0.7324   0.093879
 C 0.753 0.6161 0.1287   0.779491
 C 0.7095 0.6034 0.9856   -0.145759
 C 0.58 0.5553 0.9321   -0.042005
 C 0.5377 0.5476 0.8041   -0.058539
 C 0.6253 0.589 0.7273   -0.121298
 C 0.5752 0.5797 0.5882   0.72027
 C 0.7558 0.638 0.7817   -0.075686
 C 0.7985 0.6454 0.9101   -0.042006
 C 0.08633 0.5126 0.3839   0.779783
 C 0.04283 0.3822 0.3966   -0.147179
 C 0.91333 0.3768 0.4447   -0.040364
 C 0.87103 0.2565 0.4524   -0.058802
 C 0.95863 0.1383 0.411   -0.121113
 C 0.90853 0.0085 0.4203   0.719421
 C 0.08913 0.1437 0.362   -0.075515
 C 0.13183 0.2647 0.3546   -0.041373
 C 0.41967 0.8713 0.4874   0.780094
 C 0.37617 0.0144 0.6178   -0.146751
 C 0.24667 0.0679 0.6232   -0.041266
 C 0.20437 0.1959 0.7435   -0.059353
 C 0.29197 0.2727 0.8617   -0.121127
 C 0.24187 0.4118 0.9915   0.720784
 C 0.42247 0.2183 0.8563   -0.076062
 C 0.46517 0.0899 0.7353   -0.040642
 O 0.871 0.6593 0.1747   -0.758872
 O 0.6664 0.5874 0.1994   -0.792783
 O 0.4524 0.5568 0.5576   -0.663567
 O 0.66192 0.5934 0.5065   -0.813202
 O 0.20433 0.5154 0.3407   -0.758995
 O 0.99973 0.612 0.4126   -0.79285
 O 0.78573 0.000799999999998 0.4432   -0.663189
 O 0.99525 0.9131 0.4066   -0.812771
 O 0.53767 0.8253 0.4846   -0.759033
 O 0.33307 0.8006 0.388   -0.793312
 O 0.11907 0.4424 0.9992   -0.664054
 O 0.32859 0.4935 0.0869   -0.812995
