{'_ref': 'TBD', '_srcid': 'CAKYAQ_clean', 'submitters': [{'name': 'Dalar Nazarian Jeff Camp and David Sholl', 'email': 'dalar@gatech.edu jcamp6@gatech.edu'}], '_method': 'VASP DFT with PBE;DDEC'}
data_SrH4(C2O)4
_symmetry_space_group_name_H-M   'P 1'
_cell_length_a   9.84170000
_cell_length_b   10.62020001
_cell_length_c   10.62020000
_cell_angle_alpha   119.99999998
_cell_angle_beta   90.00000000
_cell_angle_gamma   90.00000000
_symmetry_Int_Tables_number   1
_chemical_formula_structural   SrH4(C2O)4
_chemical_formula_sum   'Sr3 H12 C24 O12'
_cell_volume   961.315944119
_cell_formula_units_Z   3
loop_
 _symmetry_equiv_pos_site_id
 _symmetry_equiv_pos_as_xyz
  1  'x, y, z'
loop_
 _atom_site_label
 _atom_site_fract_x
 _atom_site_fract_y
 _atom_site_fract_z
 _atom_site_charge
 Sr 0.5001 0.6883 0.45365   1.635521
 Sr 0.16677 0.76535 0.3117   1.635177
 Sr 0.83343 0.54635 0.23465   1.635472
 H 0.2309 0.4504 0.9845   0.088992
 H 0.1618 0.2508 0.7703   0.107777
 H 0.5272 0.0697 0.7279   0.086253
 H 0.5955 0.2693 0.9426   0.092097
 H 0.89757 0.5341 0.5496   0.088696
 H 0.82847 0.5195 0.7492   0.107372
 H 0.19387 0.6582 0.9303   0.086414
 H 0.26217 0.6733 0.7307   0.091865
 H 0.56423 0.0155 0.4659   0.088631
 H 0.49513 0.2297 0.4805   0.107687
 H 0.86053 0.2721 0.3418   0.086513
 H 0.92883 0.0574 0.3267   0.092185
 C 0.4618 0.5104 0.1291   0.785995
 C 0.4188 0.3807 0.9857   -0.143254
 C 0.291 0.3738 0.9332   -0.045543
 C 0.2494 0.2541 0.8044   -0.057347
 C 0.3378 0.1387 0.7256   -0.12251
 C 0.2882 0.0094 0.5874   0.726154
 C 0.4669 0.1461 0.7791   -0.071649
 C 0.508 0.2657 0.9079   -0.043425
 C 0.12847 0.6187 0.4896   0.785778
 C 0.08547 0.605 0.6193   -0.143355
 C 0.95767 0.5594 0.6262   -0.04489
 C 0.91607 0.5503 0.7459   -0.056973
 C 0.00447 0.5869 0.8613   -0.123358
 C 0.95487 0.578 0.9906   0.727083
 C 0.13357 0.633 0.8539   -0.071803
 C 0.17467 0.6422 0.7343   -0.042793
 C 0.79513 0.8709 0.3813   0.786613
 C 0.75213 0.0143 0.395   -0.142702
 C 0.62433 0.0668 0.4406   -0.045076
 C 0.58273 0.1956 0.4497   -0.057491
 C 0.67113 0.2744 0.4131   -0.123149
 C 0.62153 0.4126 0.422   0.726582
 C 0.80023 0.2209 0.367   -0.072046
 C 0.84133 0.0921 0.3578   -0.04333
 O 0.3749 0.6076 0.2005   -0.796731
 O 0.5794 0.5145 0.1738   -0.757154
 O 0.1664 0.0038 0.5536   -0.673249
 O 0.3735 0.9135 0.507   -0.811717
 O 0.04157 0.5929 0.3924   -0.796484
 O 0.24607 0.6593 0.4855   -0.757158
 O 0.83307 0.5498 0.9962   -0.673668
 O 0.04017 0.5935 0.0865   -0.812067
 O 0.70823 0.7995 0.4071   -0.796928
 O 0.91273 0.8262 0.3407   -0.757537
 O 0.49973 0.4464 0.4502   -0.673236
 O 0.70683 0.493 0.4065   -0.812231
