{'_ref': 'TBD', '_srcid': 'CAKYAQ_clean', 'submitters': [{'name': 'Dalar Nazarian Jeff Camp and David Sholl', 'email': 'dalar@gatech.edu jcamp6@gatech.edu'}], '_method': 'VASP DFT with PBE;DDEC'}
data_SrH4(C2O)4
_symmetry_space_group_name_H-M   'P 1'
_cell_length_a   9.87310000
_cell_length_b   10.63960010
_cell_length_c   10.63960000
_cell_angle_alpha   119.99999969
_cell_angle_beta   90.00000000
_cell_angle_gamma   90.00000000
_symmetry_Int_Tables_number   1
_chemical_formula_structural   SrH4(C2O)4
_chemical_formula_sum   'Sr3 H12 C24 O12'
_cell_volume   967.909548996
_cell_formula_units_Z   3
loop_
 _symmetry_equiv_pos_site_id
 _symmetry_equiv_pos_as_xyz
  1  'x, y, z'
loop_
 _atom_site_label
 _atom_site_fract_x
 _atom_site_fract_y
 _atom_site_fract_z
 _atom_site_charge
 Sr 0.8632 0.76565 0.45368   1.636797
 Sr 0.52987 0.68803 0.23435   1.637061
 Sr 0.19653 0.54632 0.31197   1.636545
 H 0.7686 0.6739 0.9435   0.090594
 H 0.8356 0.6539 0.7261   0.087429
 H 0.2004 0.5207 0.7703   0.108298
 H 0.1331 0.5357 0.9841   0.086582
 H 0.43527 0.2696 0.3261   0.090024
 H 0.50227 0.0722 0.3461   0.087738
 H 0.86707 0.2496 0.4793   0.108236
 H 0.79977 0.4484 0.4643   0.086443
 H 0.10193 0.0565 0.7304   0.090175
 H 0.16893 0.2739 0.9278   0.087729
 H 0.53373 0.2297 0.7504   0.108442
 H 0.46643 0.0159 0.5516   0.086353
 C 0.902 0.6193 0.1284   0.796274
 C 0.9437 0.6048 0.9874   -0.150141
 C 0.8556 0.6417 0.9087   -0.037912
 C 0.8964 0.6308 0.7782   -0.078957
 C 0.0249 0.5867 0.7255   -0.116163
 C 0.0728 0.5773 0.5864   0.728118
 C 0.1129 0.5511 0.8044   -0.061374
 C 0.0722 0.5602 0.9331   -0.042166
 C 0.56867 0.5091 0.3807   0.796313
 C 0.61037 0.3826 0.3952   -0.149774
 C 0.52227 0.267 0.3583   -0.037405
 C 0.56307 0.1474 0.3692   -0.079582
 C 0.69157 0.1388 0.4133   -0.115778
 C 0.73947 0.0091 0.4227   0.728594
 C 0.77957 0.2533 0.4489   -0.061639
 C 0.73887 0.3729 0.4398   -0.041992
 C 0.23533 0.8716 0.4909   0.794762
 C 0.27703 0.0126 0.6174   -0.148767
 C 0.18893 0.0913 0.733   -0.038039
 C 0.22973 0.2218 0.8526   -0.078991
 C 0.35823 0.2745 0.8612   -0.11628
 C 0.40613 0.4136 0.9909   0.728017
 C 0.44623 0.1956 0.7467   -0.06194
 C 0.40553 0.0669 0.6271   -0.042025
 O 0.7849 0.6583 0.1729   -0.756896
 O 0.9885 0.5947 0.201   -0.804425
 O 0.9894 0.5952 0.5081   -0.804957
 O 0.1952 0.5501 0.5535   -0.681002
 O 0.45157 0.5146 0.3417   -0.756985
 O 0.65517 0.6063 0.4053   -0.804595
 O 0.65607 0.9129 0.4048   -0.8052
 O 0.86187 0.0034 0.4499   -0.681254
 O 0.11823 0.8271 0.4854   -0.755872
 O 0.32183 0.799 0.3937   -0.804406
 O 0.32273 0.4919 0.0871   -0.804944
 O 0.52853 0.4465 0.9966   -0.681061
