{'_ref': 'TBD', '_srcid': 'CAKYAQ_clean', 'submitters': [{'name': 'Dalar Nazarian Jeff Camp and David Sholl', 'email': 'dalar@gatech.edu jcamp6@gatech.edu'}], '_method': 'VASP DFT with PBE;DDEC'}
data_Zn3H16C20(N4O5)2
_symmetry_space_group_name_H-M   'P 1'
_cell_length_a   11.32100000
_cell_length_b   11.32100035
_cell_length_c   19.87200000
_cell_angle_alpha   90.00000000
_cell_angle_beta   90.00000000
_cell_angle_gamma   119.99999898
_symmetry_Int_Tables_number   1
_chemical_formula_structural   Zn3H16C20(N4O5)2
_chemical_formula_sum   'Zn9 H48 C60 N24 O30'
_cell_volume   2205.67646328
_cell_formula_units_Z   3
loop_
 _symmetry_equiv_pos_site_id
 _symmetry_equiv_pos_as_xyz
  1  'x, y, z'
loop_
 _atom_site_label
 _atom_site_fract_x
 _atom_site_fract_y
 _atom_site_fract_z
 _atom_site_charge
 Zn 0.11015 0.40838 0.77826   0.895095
 Zn 0.29823 0.88985 0.11159   0.895058
 Zn 0.59162 0.70177 0.44493   0.895099
 Zn 0.70177 0.59162 0.22174   0.895095
 Zn 0.40838 0.11015 0.88841   0.895058
 Zn 0.88985 0.29823 0.55507   0.8951
 Zn 0.62177 0.0 0.5   1.067326
 Zn 0.37823 0.37823 0.83333   1.067117
 Zn 0.0 0.62177 0.16667   1.067116
 H 0.1575 0.71 0.7645   0.095795
 H 0.203 0.8375 0.6611   0.155833
 H 0.0869 0.1791 0.5317   0.120811
 H 0.3184 0.2739 0.5717   0.146981
 H 0.4678 0.4749 0.6578   0.15666
 H 0.4223 0.5833 0.6685   0.15115
 H 0.15 0.7203 0.5308   0.139334
 H 0.2092 0.624 0.5228   0.131971
 H 0.5525 0.8425 0.09783   0.095776
 H 0.6345 0.797 0.99443   0.155839
 H 0.0922 0.9131 0.86503   0.120768
 H 0.9555 0.6816 0.90503   0.146934
 H 0.0071 0.5322 0.99113   0.156589
 H 0.161 0.5777 0.00183   0.151062
 H 0.5703 0.85 0.86413   0.139339
 H 0.4148 0.7908 0.85613   0.131912
 H 0.29 0.4475 0.43117   0.095828
 H 0.1625 0.3655 0.32777   0.155841
 H 0.8209 0.9078 0.19837   0.120792
 H 0.7261 0.0445 0.23837   0.146878
 H 0.5251 0.9929 0.32447   0.156651
 H 0.4167 0.839 0.33517   0.151055
 H 0.2797 0.4297 0.19747   0.13929
 H 0.376 0.5852 0.18947   0.131919
 H 0.4475 0.29 0.2355   0.095796
 H 0.3655 0.1625 0.3389   0.155825
 H 0.9078 0.8209 0.4683   0.120791
 H 0.0445 0.7261 0.4283   0.146983
 H 0.9929 0.5251 0.3422   0.156662
 H 0.839 0.4167 0.3315   0.151152
 H 0.4297 0.2797 0.4692   0.139332
 H 0.5852 0.376 0.4772   0.131971
 H 0.71 0.1575 0.90217   0.095777
 H 0.8375 0.203 0.00557   0.155831
 H 0.1791 0.0869 0.13497   0.120747
 H 0.2739 0.3184 0.09497   0.146937
 H 0.4749 0.4678 0.00887   0.15659
 H 0.5833 0.4223 0.99817   0.151064
 H 0.7203 0.15 0.13587   0.139337
 H 0.624 0.2092 0.14387   0.131913
 H 0.8425 0.5525 0.56883   0.095829
 H 0.797 0.6345 0.67223   0.155833
 H 0.9131 0.0922 0.80163   0.120772
 H 0.6816 0.9555 0.76163   0.146879
 H 0.5322 0.0071 0.67553   0.156652
 H 0.5777 0.161 0.66483   0.151057
 H 0.85 0.5703 0.80253   0.139287
 H 0.7908 0.4148 0.81053   0.13192
 C 0.168 0.6805 0.7224   0.056955
 C 0.1923 0.7509 0.6657   -0.121153
 C 0.18 0.5555 0.6449   0.18095
 C 0.1867 0.4465 0.61   0.161269
 C 0.1346 0.2593 0.5564   0.044105
 C 0.2625 0.3114 0.578   -0.117811
 C 0.4306 0.5251 0.6353   -0.267587
 C 0.5299 0.614 0.5818   0.688795
 C 0.2241 0.7065 0.5451   -0.206026
 C 0.3788 0.8041 0.5356   0.62331
 C 0.5125 0.832 0.05573   0.056964
 C 0.5586 0.8077 0.99903   -0.121089
 C 0.3755 0.82 0.97823   0.181269
 C 0.2598 0.8133 0.94333   0.16113
 C 0.1247 0.8654 0.88973   0.044086
 C 0.0489 0.7375 0.91133   -0.117698
 C 0.0945 0.5694 0.96863   -0.267362
 C 0.0841 0.4701 0.91513   0.688718
 C 0.4824 0.7759 0.87843   -0.205917
 C 0.4253 0.6212 0.86893   0.623301
 C 0.3195 0.4875 0.38907   0.056842
 C 0.2491 0.4414 0.33237   -0.121111
 C 0.4445 0.6245 0.31157   0.180554
 C 0.5535 0.7402 0.27667   0.1614
 C 0.7407 0.8753 0.22307   0.044083
 C 0.6886 0.9511 0.24467   -0.117526
 C 0.4749 0.9055 0.30197   -0.26737
 C 0.386 0.9159 0.24847   0.688758
 C 0.2935 0.5176 0.21177   -0.205941
 C 0.1959 0.5747 0.20227   0.623116
 C 0.4875 0.3195 0.2776   0.056955
 C 0.4414 0.2491 0.3343   -0.121148
 C 0.6245 0.4445 0.3551   0.18095
 C 0.7402 0.5535 0.39   0.161269
 C 0.8753 0.7407 0.4436   0.044107
 C 0.9511 0.6886 0.422   -0.117814
 C 0.9055 0.4749 0.3647   -0.267588
 C 0.9159 0.386 0.4182   0.688797
 C 0.5176 0.2935 0.4549   -0.206026
 C 0.5747 0.1959 0.4644   0.623309
 C 0.6805 0.168 0.94427   0.056964
 C 0.7509 0.1923 0.000970000000002   -0.121084
 C 0.5555 0.18 0.02177   0.181269
 C 0.4465 0.1867 0.05667   0.16113
 C 0.2593 0.1346 0.11027   0.044089
 C 0.3114 0.2625 0.08867   -0.1177
 C 0.5251 0.4306 0.03137   -0.267363
 C 0.614 0.5299 0.08487   0.688719
 C 0.7065 0.2241 0.12157   -0.205916
 C 0.8041 0.3788 0.13107   0.6233
 C 0.832 0.5125 0.61093   0.056843
 C 0.8077 0.5586 0.66763   -0.121106
 C 0.82 0.3755 0.68843   0.180554
 C 0.8133 0.2598 0.72333   0.1614
 C 0.8654 0.1247 0.77693   0.044086
 C 0.7375 0.0489 0.75533   -0.117528
 C 0.5694 0.0945 0.69803   -0.267371
 C 0.4701 0.0841 0.75153   0.688759
 C 0.7759 0.4824 0.78823   -0.20594
 C 0.6212 0.4253 0.79773   0.623115
 N 0.1608 0.5596 0.71   -0.379776
 N 0.1985 0.6709 0.6147   0.064714
 N 0.083 0.3425 0.5763   -0.40009
 N 0.2965 0.4293 0.6107   0.119187
 N 0.3988 0.8392 0.04333   -0.380071
 N 0.4724 0.8015 0.94803   0.064669
 N 0.2595 0.917 0.90963   -0.399925
 N 0.1328 0.7035 0.94403   0.119119
 N 0.4404 0.6012 0.37667   -0.379398
 N 0.3291 0.5276 0.28137   0.064787
 N 0.6575 0.7405 0.24297   -0.400199
 N 0.5707 0.8672 0.27737   0.119016
 N 0.6012 0.4404 0.29   -0.379776
 N 0.5276 0.3291 0.3853   0.064713
 N 0.7405 0.6575 0.4237   -0.400091
 N 0.8672 0.5707 0.3893   0.119188
 N 0.5596 0.1608 0.95667   -0.380071
 N 0.6709 0.1985 0.05197   0.064668
 N 0.3425 0.083 0.09037   -0.399927
 N 0.4293 0.2965 0.05597   0.11912
 N 0.8392 0.3988 0.62333   -0.379398
 N 0.8015 0.4724 0.71863   0.064786
 N 0.917 0.2595 0.75703   -0.4002
 N 0.7035 0.1328 0.72263   0.119016
 O 0.4831 0.5947 0.522   -0.653002
 O 0.6455 0.6979 0.5992   -0.571825
 O 0.6731 0.8932 0.4429   -0.622454
 O 0.4633 0.841 0.5846   -0.566078
 O 0.4216 0.8541 0.4775   -0.560764
 O 0.1116 0.5169 0.85533   -0.653022
 O 0.0524 0.3545 0.93253   -0.571847
 O 0.2201 0.3269 0.77623   -0.622307
 O 0.3777 0.5367 0.91793   -0.566139
 O 0.4325 0.5784 0.81083   -0.56073
 O 0.4053 0.8884 0.18867   -0.653034
 O 0.3021 0.9476 0.26587   -0.571874
 O 0.1068 0.7799 0.10957   -0.622235
 O 0.159 0.6223 0.25127   -0.566023
 O 0.1459 0.5675 0.14417   -0.560722
 O 0.8884 0.4053 0.478   -0.653003
 O 0.9476 0.3021 0.4008   -0.571825
 O 0.7799 0.1068 0.5571   -0.622456
 O 0.6223 0.159 0.4154   -0.566078
 O 0.5675 0.1459 0.5225   -0.560762
 O 0.5947 0.4831 0.14467   -0.653022
 O 0.6979 0.6455 0.06747   -0.571848
 O 0.8932 0.6731 0.22377   -0.622307
 O 0.841 0.4633 0.08207   -0.566139
 O 0.8541 0.4216 0.18917   -0.56073
 O 0.5169 0.1116 0.81133   -0.653034
 O 0.3545 0.0524 0.73413   -0.571874
 O 0.3269 0.2201 0.89043   -0.622236
 O 0.5367 0.3777 0.74873   -0.566023
 O 0.5784 0.4325 0.85583   -0.560722
