{'_ref': 'TBD', '_srcid': 'CAKYAQ_clean', 'submitters': [{'name': 'Dalar Nazarian Jeff Camp and David Sholl', 'email': 'dalar@gatech.edu jcamp6@gatech.edu'}], '_method': 'VASP DFT with PBE;DDEC'}
data_ZnH2(C3O2)2
_symmetry_space_group_name_H-M   'P 1'
_cell_length_a   10.08609997
_cell_length_b   10.25270000
_cell_length_c   16.40130000
_cell_angle_alpha   90.00000000
_cell_angle_beta   95.47800105
_cell_angle_gamma   90.00000000
_symmetry_Int_Tables_number   1
_chemical_formula_structural   ZnH2(C3O2)2
_chemical_formula_sum   'Zn6 H12 C36 O24'
_cell_volume   1688.30844311
_cell_formula_units_Z   6
loop_
 _symmetry_equiv_pos_site_id
 _symmetry_equiv_pos_as_xyz
  1  'x, y, z'
loop_
 _atom_site_label
 _atom_site_fract_x
 _atom_site_fract_y
 _atom_site_fract_z
 _atom_site_charge
 Zn 0.2279 0.76087 0.07645   0.952637
 Zn 0.7721 0.26087 0.42355   0.952637
 Zn 0.7721 0.23913 0.92355   0.952637
 Zn 0.2279 0.73913 0.57645   0.952637
 Zn 0.0 0.0 0.0   1.027047
 Zn 0.0 0.5 0.5   1.027047
 H 0.6793 0.7771 0.0777   0.113757
 H 0.9551 0.6438 0.2501   0.108773
 H 0.5687 0.5636 0.2643   0.113979
 H 0.3207 0.2771 0.4223   0.113757
 H 0.0449 0.1438 0.2499   0.108773
 H 0.4313 0.0636 0.2357   0.113979
 H 0.3207 0.2229 0.9223   0.113757
 H 0.0449 0.3562 0.7499   0.108773
 H 0.4313 0.4364 0.7357   0.113979
 H 0.6793 0.7229 0.5777   0.113757
 H 0.9551 0.8562 0.7501   0.108773
 H 0.5687 0.9364 0.7643   0.113979
 C 0.4577 0.6926 0.1344   0.659174
 C 0.9411 0.7794 0.11062   0.709661
 C 0.8023 0.5218 0.34925   0.717932
 C 0.601 0.674 0.16658   -0.142962
 C 0.7013 0.7307 0.12582   0.026273
 C 0.8346 0.7187 0.15659   -0.184705
 C 0.8665 0.6509 0.22883   0.022421
 C 0.7672 0.5934 0.26988   -0.161049
 C 0.635 0.604 0.23775   0.031387
 C 0.5423 0.1926 0.3656   0.659173
 C 0.0589 0.2794 0.38938   0.709661
 C 0.1977 0.0218 0.15075   0.717932
 C 0.399 0.174 0.33342   -0.142962
 C 0.2987 0.2307 0.37418   0.026273
 C 0.1654 0.2187 0.34341   -0.184705
 C 0.1335 0.1509 0.27117   0.022422
 C 0.2328 0.0934 0.23012   -0.161049
 C 0.365 0.104 0.26225   0.031387
 C 0.5423 0.3074 0.8656   0.659173
 C 0.0589 0.2206 0.88938   0.709661
 C 0.1977 0.4782 0.65075   0.717931
 C 0.399 0.326 0.83342   -0.142962
 C 0.2987 0.2693 0.87418   0.026273
 C 0.1654 0.2813 0.84341   -0.184705
 C 0.1335 0.3491 0.77117   0.022421
 C 0.2328 0.4066 0.73012   -0.161049
 C 0.365 0.396 0.76225   0.031387
 C 0.4577 0.8074 0.6344   0.659173
 C 0.9411 0.7206 0.61062   0.709661
 C 0.8023 0.9782 0.84925   0.717932
 C 0.601 0.826 0.66658   -0.142962
 C 0.7013 0.7693 0.62582   0.026273
 C 0.8346 0.7813 0.65659   -0.184705
 C 0.8665 0.8491 0.72883   0.022422
 C 0.7672 0.9066 0.76988   -0.161049
 C 0.635 0.896 0.73775   0.031387
 O 0.36732 0.66443 0.17817   -0.565303
 O 0.43343 0.73831 0.06306   -0.562045
 O 0.9021 0.85529 0.05355   -0.593525
 O 0.05972 0.74724 0.1328   -0.56779
 O 0.9097 0.5534 0.38821   -0.611284
 O 0.72093 0.43764 0.36846   -0.580853
 O 0.63268 0.16443 0.32183   -0.565303
 O 0.56657 0.23831 0.43694   -0.562045
 O 0.0979 0.35529 0.44645   -0.593525
 O 0.94028 0.24724 0.3672   -0.56779
 O 0.0903 0.0534 0.11179   -0.611284
 O 0.27907 0.93764 0.13154   -0.580853
 O 0.63268 0.33557 0.82183   -0.565303
 O 0.56657 0.26169 0.93694   -0.562045
 O 0.0979 0.14471 0.94645   -0.593525
 O 0.94028 0.25276 0.8672   -0.56779
 O 0.0903 0.4466 0.61179   -0.611284
 O 0.27907 0.56236 0.63154   -0.580853
 O 0.36732 0.83557 0.67817   -0.565303
 O 0.43343 0.76169 0.56306   -0.562045
 O 0.9021 0.64471 0.55355   -0.593525
 O 0.05972 0.75276 0.6328   -0.56779
 O 0.9097 0.9466 0.88821   -0.611284
 O 0.72093 0.06236 0.86846   -0.580853
