{'_ref': 'TBD', '_srcid': 'CAKYAQ_clean', 'submitters': [{'name': 'Dalar Nazarian Jeff Camp and David Sholl', 'email': 'dalar@gatech.edu jcamp6@gatech.edu'}], '_method': 'VASP DFT with PBE;DDEC'}
data_CuH3C9O4
_symmetry_space_group_name_H-M   'P 1'
_cell_length_a   15.12620012
_cell_length_b   15.12619995
_cell_length_c   15.12620000
_cell_angle_alpha   103.59399999
_cell_angle_beta   103.59399984
_cell_angle_gamma   103.59400105
_symmetry_Int_Tables_number   1
_chemical_formula_structural   CuH3C9O4
_chemical_formula_sum   'Cu6 H18 C54 O24'
_cell_volume   3111.54108701
_cell_formula_units_Z   6
loop_
 _symmetry_equiv_pos_site_id
 _symmetry_equiv_pos_as_xyz
  1  'x, y, z'
loop_
 _atom_site_label
 _atom_site_fract_x
 _atom_site_fract_y
 _atom_site_fract_z
 _atom_site_charge
 Cu 0.57499 0.97998 0.97998   0.893214
 Cu 0.97998 0.57499 0.97998   0.893212
 Cu 0.97998 0.97998 0.57499   0.893209
 Cu 0.02002 0.42501 0.02002   0.893214
 Cu 0.42501 0.02002 0.02002   0.893212
 Cu 0.02002 0.02002 0.42501   0.89321
 H 0.5081 0.6957 0.9817   0.122433
 H 0.9817 0.5081 0.6957   0.122433
 H 0.6957 0.9817 0.5081   0.122433
 H 0.3043 0.4919 0.0183   0.122433
 H 0.4919 0.0183 0.3043   0.122433
 H 0.0183 0.3043 0.4919   0.122433
 H 0.4919 0.3043 0.0183   0.122431
 H 0.0183 0.4919 0.3043   0.122431
 H 0.3043 0.0183 0.4919   0.122431
 H 0.6957 0.5081 0.9817   0.122431
 H 0.5081 0.9817 0.6957   0.122431
 H 0.9817 0.6957 0.5081   0.122431
 H 0.25975 0.74025 0.0   0.115573
 H 0.0 0.25975 0.74025   0.115573
 H 0.74025 0.0 0.25975   0.115573
 H 0.74025 0.25975 0.0   0.115571
 H 0.0 0.74025 0.25975   0.115571
 H 0.25975 0.0 0.74025   0.11557
 C 0.425 0.83 0.9845   0.684635
 C 0.3889 0.732 0.9893   -0.132463
 C 0.4468 0.6742 0.9892   -0.053679
 C 0.9845 0.425 0.83   0.684635
 C 0.9893 0.3889 0.732   -0.132463
 C 0.9892 0.4468 0.6742   -0.053678
 C 0.83 0.9845 0.425   0.684635
 C 0.732 0.9893 0.3889   -0.132463
 C 0.6742 0.9892 0.4468   -0.053678
 C 0.17 0.575 0.0155   0.684635
 C 0.268 0.6111 0.0107   -0.132461
 C 0.3258 0.5532 0.0108   -0.053677
 C 0.575 0.0155 0.17   0.684635
 C 0.6111 0.0107 0.268   -0.132461
 C 0.5532 0.0108 0.3258   -0.053676
 C 0.0155 0.17 0.575   0.684635
 C 0.0107 0.268 0.6111   -0.13246
 C 0.0108 0.3258 0.5532   -0.053676
 C 0.575 0.17 0.0155   0.684635
 C 0.6111 0.268 0.0107   -0.13246
 C 0.5532 0.3258 0.0108   -0.053672
 C 0.0155 0.575 0.17   0.684635
 C 0.0107 0.6111 0.268   -0.13246
 C 0.0108 0.5532 0.3258   -0.053671
 C 0.17 0.0155 0.575   0.684635
 C 0.268 0.0107 0.6111   -0.13246
 C 0.3258 0.0108 0.5532   -0.053671
 C 0.83 0.425 0.9845   0.684635
 C 0.732 0.3889 0.9893   -0.132458
 C 0.6742 0.4468 0.9892   -0.05367
 C 0.425 0.9845 0.83   0.684635
 C 0.3889 0.9893 0.732   -0.132458
 C 0.4468 0.9892 0.6742   -0.053669
 C 0.9845 0.83 0.425   0.684635
 C 0.9893 0.732 0.3889   -0.132457
 C 0.9892 0.6742 0.4468   -0.053669
 C 0.29975 0.70025 0.0   -0.003368
 C 0.41565 0.58435 0.0   0.079059
 C 0.47525 0.52475 0.0   -0.090888
 C 0.0 0.29975 0.70025   -0.003368
 C 0.0 0.41565 0.58435   0.079059
 C 0.0 0.47525 0.52475   -0.090888
 C 0.70025 0.0 0.29975   -0.003368
 C 0.58435 0.0 0.41565   0.079059
 C 0.52475 0.0 0.47525   -0.090888
 C 0.70025 0.29975 0.0   -0.003367
 C 0.58435 0.41565 0.0   0.078979
 C 0.52475 0.47525 0.0   -0.090446
 C 0.0 0.70025 0.29975   -0.003367
 C 0.0 0.58435 0.41565   0.078979
 C 0.0 0.52475 0.47525   -0.090446
 C 0.29975 0.0 0.70025   -0.003367
 C 0.41565 0.0 0.58435   0.07898
 C 0.47525 0.0 0.52475   -0.090446
 O 0.50253 0.84977 0.9673   -0.562317
 O 0.3758 0.884 0.000100000000003   -0.555499
 O 0.9673 0.50253 0.84977   -0.562317
 O 0.000100000000003 0.3758 0.884   -0.555499
 O 0.84977 0.9673 0.50253   -0.562317
 O 0.884 0.000100000000003 0.3758   -0.555499
 O 0.15023 0.49747 0.0327   -0.562318
 O 0.116 0.6242 0.9999   -0.555499
 O 0.49747 0.0327 0.15023   -0.562318
 O 0.6242 0.9999 0.116   -0.5555
 O 0.0327 0.15023 0.49747   -0.562317
 O 0.9999 0.116 0.6242   -0.555499
 O 0.49747 0.15023 0.0327   -0.562317
 O 0.6242 0.116 0.9999   -0.5555
 O 0.0327 0.49747 0.15023   -0.562317
 O 0.9999 0.6242 0.116   -0.5555
 O 0.15023 0.0327 0.49747   -0.562317
 O 0.116 0.9999 0.6242   -0.5555
 O 0.84977 0.50253 0.9673   -0.562317
 O 0.884 0.3758 0.000100000000003   -0.555501
 O 0.50253 0.9673 0.84977   -0.562318
 O 0.3758 0.000100000000003 0.884   -0.5555
 O 0.9673 0.84977 0.50253   -0.562317
 O 0.000100000000003 0.884 0.3758   -0.5555
