{'_ref': 'TBD', '_srcid': 'CAKYAQ_clean', 'submitters': [{'name': 'Dalar Nazarian Jeff Camp and David Sholl', 'email': 'dalar@gatech.edu jcamp6@gatech.edu'}], '_method': 'VASP DFT with PBE;DDEC'}
data_La2Zn3H24(C4O5)6
_symmetry_space_group_name_H-M   'P 1'
_cell_length_a   15.11800000
_cell_length_b   15.37079976
_cell_length_c   15.37080000
_cell_angle_alpha   120.00000052
_cell_angle_beta   90.00000000
_cell_angle_gamma   90.00000000
_symmetry_Int_Tables_number   1
_chemical_formula_structural   La2Zn3H24(C4O5)6
_chemical_formula_sum   'La4 Zn6 H48 C48 O60'
_cell_volume   3093.27055182
_cell_formula_units_Z   2
loop_
 _symmetry_equiv_pos_site_id
 _symmetry_equiv_pos_as_xyz
  1  'x, y, z'
loop_
 _atom_site_label
 _atom_site_fract_x
 _atom_site_fract_y
 _atom_site_fract_z
 _atom_site_charge
 La 0.75 0.33333 0.66666   2.075172
 La 0.75 0.66667 0.33334   2.075172
 La 0.25 0.66667 0.33334   2.075175
 La 0.25 0.33333 0.66666   2.075175
 Zn 0.0 0.5 0.5   1.185609
 Zn 0.0 0.0 0.5   1.185606
 Zn 0.0 0.5 0.0   1.185616
 Zn 0.5 0.0 0.5   1.185609
 Zn 0.5 0.5 0.5   1.185605
 Zn 0.5 0.5 0.0   1.185616
 H 0.7606 0.287 0.3789   0.087254
 H 0.8358 0.2113 0.3672   0.097594
 H 0.7606 0.0919 0.713   0.08725
 H 0.8358 0.1559 0.7887   0.097593
 H 0.7606 0.6211 0.9081   0.087251
 H 0.8358 0.6328 0.8441   0.097586
 H 0.7606 0.713 0.6211   0.087254
 H 0.8358 0.7887 0.6328   0.097594
 H 0.7606 0.9081 0.287   0.08725
 H 0.8358 0.8441 0.2113   0.097593
 H 0.7606 0.3789 0.0919   0.087251
 H 0.8358 0.3672 0.1559   0.097586
 H 0.7394 0.9081 0.6211   0.087254
 H 0.6642 0.8441 0.6328   0.097594
 H 0.7394 0.3789 0.287   0.087249
 H 0.6642 0.3672 0.2113   0.097593
 H 0.7394 0.713 0.0919   0.08725
 H 0.6642 0.7887 0.1559   0.097586
 H 0.7394 0.0919 0.3789   0.087254
 H 0.6642 0.1559 0.3672   0.097594
 H 0.7394 0.6211 0.713   0.087249
 H 0.6642 0.6328 0.7887   0.097593
 H 0.7394 0.287 0.9081   0.08725
 H 0.6642 0.2113 0.8441   0.097586
 H 0.2394 0.713 0.6211   0.087254
 H 0.1642 0.7887 0.6328   0.097595
 H 0.2394 0.9081 0.287   0.08725
 H 0.1642 0.8441 0.2113   0.097594
 H 0.2394 0.3789 0.0919   0.087251
 H 0.1642 0.3672 0.1559   0.097587
 H 0.2394 0.287 0.3789   0.087254
 H 0.1642 0.2113 0.3672   0.097595
 H 0.2394 0.0919 0.713   0.08725
 H 0.1642 0.1559 0.7887   0.097594
 H 0.2394 0.6211 0.9081   0.087251
 H 0.1642 0.6328 0.8441   0.097587
 H 0.2606 0.0919 0.3789   0.087254
 H 0.3358 0.1559 0.3672   0.097595
 H 0.2606 0.6211 0.713   0.087249
 H 0.3358 0.6328 0.7887   0.097594
 H 0.2606 0.287 0.9081   0.08725
 H 0.3358 0.2113 0.8441   0.097587
 H 0.2606 0.9081 0.6211   0.087254
 H 0.3358 0.8441 0.6328   0.097595
 H 0.2606 0.3789 0.287   0.087249
 H 0.3358 0.3672 0.2113   0.097594
 H 0.2606 0.713 0.0919   0.08725
 H 0.3358 0.7887 0.1559   0.097587
 C 0.8584 0.353 0.4827   0.728433
 C 0.7999 0.2669 0.4156   -0.064679
 C 0.8584 0.1297 0.647   0.728453
 C 0.7999 0.1487 0.7331   -0.064683
 C 0.8584 0.5173 0.8703   0.728455
 C 0.7999 0.5844 0.8513   -0.064674
 C 0.8584 0.647 0.5173   0.728433
 C 0.7999 0.7331 0.5844   -0.064679
 C 0.8584 0.8703 0.353   0.728453
 C 0.7999 0.8513 0.2669   -0.064683
 C 0.8584 0.4827 0.1297   0.728455
 C 0.7999 0.4156 0.1487   -0.064674
 C 0.6416 0.8703 0.5173   0.728433
 C 0.7001 0.8513 0.5844   -0.064679
 C 0.6416 0.4827 0.353   0.728452
 C 0.7001 0.4156 0.2669   -0.064683
 C 0.6416 0.647 0.1297   0.728455
 C 0.7001 0.7331 0.1487   -0.064674
 C 0.6416 0.1297 0.4827   0.728433
 C 0.7001 0.1487 0.4156   -0.064679
 C 0.6416 0.5173 0.647   0.728452
 C 0.7001 0.5844 0.7331   -0.064683
 C 0.6416 0.353 0.8703   0.728455
 C 0.7001 0.2669 0.8513   -0.064674
 C 0.1416 0.647 0.5173   0.728434
 C 0.2001 0.7331 0.5844   -0.064679
 C 0.1416 0.8703 0.353   0.728453
 C 0.2001 0.8513 0.2669   -0.064683
 C 0.1416 0.4827 0.1297   0.728456
 C 0.2001 0.4156 0.1487   -0.064675
 C 0.1416 0.353 0.4827   0.728434
 C 0.2001 0.2669 0.4156   -0.064679
 C 0.1416 0.1297 0.647   0.728453
 C 0.2001 0.1487 0.7331   -0.064683
 C 0.1416 0.5173 0.8703   0.728456
 C 0.2001 0.5844 0.8513   -0.064675
 C 0.3584 0.1297 0.4827   0.728433
 C 0.2999 0.1487 0.4156   -0.064679
 C 0.3584 0.5173 0.647   0.728453
 C 0.2999 0.5844 0.7331   -0.064683
 C 0.3584 0.353 0.8703   0.728455
 C 0.2999 0.2669 0.8513   -0.064675
 C 0.3584 0.8703 0.5173   0.728433
 C 0.2999 0.8513 0.5844   -0.064679
 C 0.3584 0.4827 0.353   0.728453
 C 0.2999 0.4156 0.2669   -0.064683
 C 0.3584 0.647 0.1297   0.728455
 C 0.2999 0.7331 0.1487   -0.064675
 O 0.85804 0.38205 0.5749   -0.684566
 O 0.90405 0.38918 0.44119   -0.645633
 O 0.85804 0.19285 0.61795   -0.684597
 O 0.90405 0.05201 0.61082   -0.645642
 O 0.85804 0.4251 0.80715   -0.68461
 O 0.90405 0.55881 0.94799   -0.645646
 O 0.85804 0.61795 0.4251   -0.684566
 O 0.90405 0.61082 0.55881   -0.645633
 O 0.85804 0.80715 0.38205   -0.684597
 O 0.90405 0.94799 0.38918   -0.645642
 O 0.85804 0.5749 0.19285   -0.68461
 O 0.90405 0.44119 0.05201   -0.645646
 O 0.64196 0.80715 0.4251   -0.684566
 O 0.59595 0.94799 0.55881   -0.645633
 O 0.64196 0.5749 0.38205   -0.684597
 O 0.59595 0.44119 0.38918   -0.645642
 O 0.64196 0.61795 0.19285   -0.68461
 O 0.59595 0.61082 0.05201   -0.645646
 O 0.64196 0.19285 0.5749   -0.684566
 O 0.59595 0.05201 0.44119   -0.645633
 O 0.64196 0.4251 0.61795   -0.684597
 O 0.59595 0.55881 0.61082   -0.645642
 O 0.64196 0.38205 0.80715   -0.68461
 O 0.59595 0.38918 0.94799   -0.645646
 O 0.14196 0.61795 0.4251   -0.684567
 O 0.09595 0.61082 0.55881   -0.645633
 O 0.14196 0.80715 0.38205   -0.684597
 O 0.09595 0.94799 0.38918   -0.645642
 O 0.14196 0.5749 0.19285   -0.68461
 O 0.09595 0.44119 0.05201   -0.645645
 O 0.14196 0.38205 0.5749   -0.684567
 O 0.09595 0.38918 0.44119   -0.645633
 O 0.14196 0.19285 0.61795   -0.684597
 O 0.09595 0.05201 0.61082   -0.645642
 O 0.14196 0.4251 0.80715   -0.68461
 O 0.09595 0.55881 0.94799   -0.645646
 O 0.35804 0.19285 0.5749   -0.684566
 O 0.40405 0.05201 0.44119   -0.645633
 O 0.35804 0.4251 0.61795   -0.684597
 O 0.40405 0.55881 0.61082   -0.645642
 O 0.35804 0.38205 0.80715   -0.68461
 O 0.40405 0.38918 0.94799   -0.645645
 O 0.35804 0.80715 0.4251   -0.684566
 O 0.40405 0.94799 0.55881   -0.645633
 O 0.35804 0.5749 0.38205   -0.684597
 O 0.40405 0.44119 0.38918   -0.645642
 O 0.35804 0.61795 0.19285   -0.68461
 O 0.40405 0.61082 0.05201   -0.645645
 O 0.75 0.23609 0.47218   -0.321287
 O 0.75 0.23609 0.76391   -0.32129
 O 0.75 0.52782 0.76391   -0.32129
 O 0.75 0.76391 0.52782   -0.321287
 O 0.75 0.76391 0.23609   -0.32129
 O 0.75 0.47218 0.23609   -0.32129
 O 0.25 0.76391 0.52782   -0.321287
 O 0.25 0.76391 0.23609   -0.32129
 O 0.25 0.47218 0.23609   -0.32129
 O 0.25 0.23609 0.47218   -0.321287
 O 0.25 0.23609 0.76391   -0.32129
 O 0.25 0.52782 0.76391   -0.32129
