{'_ref': 'TBD', '_srcid': 'CAKYAQ_clean', 'submitters': [{'name': 'Dalar Nazarian Jeff Camp and David Sholl', 'email': 'dalar@gatech.edu jcamp6@gatech.edu'}], '_method': 'VASP DFT with PBE;DDEC'}
data_NiH15C25N2O7
_symmetry_space_group_name_H-M   'P 1'
_cell_length_a   11.28560013
_cell_length_b   11.28560011
_cell_length_c   27.05900000
_cell_angle_alpha   94.05400084
_cell_angle_beta   94.05400084
_cell_angle_gamma   119.70399714
_symmetry_Int_Tables_number   1
_chemical_formula_structural   NiH15C25N2O7
_chemical_formula_sum   'Ni4 H60 C100 N8 O28'
_cell_volume   2963.69492018
_cell_formula_units_Z   4
loop_
 _symmetry_equiv_pos_site_id
 _symmetry_equiv_pos_as_xyz
  1  'x, y, z'
loop_
 _atom_site_label
 _atom_site_fract_x
 _atom_site_fract_y
 _atom_site_fract_z
 _atom_site_charge
 Ni 0.75526 0.51254 0.57532   0.775433
 Ni 0.74039 0.37047 0.39196   0.842975
 Ni 0.51254 0.75526 0.07532   0.775432
 Ni 0.37047 0.74039 0.89196   0.842973
 H 0.7783 0.4593 0.7453   0.112177
 H 0.7896 0.5228 0.8257   0.075279
 H 0.7742 0.7134 0.8529   0.132741
 H 0.9802 0.0786 0.7939   0.155479
 H 0.1297 0.2469 0.8572   0.066947
 H 0.076 0.2414 0.9364   0.080266
 H 0.8687 0.0551 0.9548   0.079374
 H 0.0095 0.0933 0.5074   0.093198
 H 0.8655 0.9409 0.4446   0.081771
 H 0.6985 0.9669 0.4012   0.134922
 H 0.4822 0.9636 0.4518   0.133426
 H 0.2805 0.7707 0.4142   0.083727
 H 0.2172 0.7504 0.3295   0.129113
 H 0.344 0.9244 0.285   0.124783
 H 0.8712 0.8212 0.5921   0.105934
 H 0.0637 0.0233 0.5913   0.14558
 H 0.2573 0.8231 0.5566   0.139443
 H 0.0555 0.6173 0.558   0.09714
 H 0.6472 0.212 0.5784   0.113655
 H 0.4434 0.0024 0.5762   0.155914
 H 0.2392 0.21 0.5707   0.148024
 H 0.444 0.4018 0.5695   0.102062
 H 0.8879 0.2579 0.3275   0.099295
 H 0.091 0.2628 0.3246   0.150526
 H 0.2354 0.5324 0.448   0.146417
 H 0.0325 0.5253 0.4452   0.086178
 H 0.5508 0.4122 0.322   0.113999
 H 0.3616 0.438 0.3187   0.148253
 H 0.3287 0.3635 0.4604   0.131743
 H 0.523 0.3428 0.4605   0.064363
 H 0.4593 0.7783 0.2453   0.11204
 H 0.5228 0.7896 0.3257   0.075241
 H 0.7134 0.7742 0.3529   0.132671
 H 0.0786 0.9802 0.2939   0.155193
 H 0.2469 0.1297 0.3572   0.066937
 H 0.2414 0.076 0.4364   0.0802
 H 0.0551 0.8687 0.4548   0.079307
 H 0.0933 0.0095 0.0074   0.093152
 H 0.9409 0.8655 0.9446   0.08174
 H 0.9669 0.6985 0.9012   0.134832
 H 0.9636 0.4822 0.9518   0.133428
 H 0.7707 0.2805 0.9142   0.083723
 H 0.7504 0.2172 0.8295   0.129041
 H 0.9244 0.344 0.785   0.124623
 H 0.8212 0.8712 0.0921   0.105933
 H 0.0233 0.0637 0.0913   0.14558
 H 0.8231 0.2573 0.0566   0.139443
 H 0.6173 0.0555 0.058   0.09714
 H 0.212 0.6472 0.0784   0.113645
 H 0.0024 0.4434 0.0762   0.155916
 H 0.21 0.2392 0.0707   0.148025
 H 0.4018 0.444 0.0695   0.102062
 H 0.2579 0.8879 0.8275   0.099298
 H 0.2628 0.091 0.8246   0.150349
 H 0.5324 0.2354 0.948   0.146417
 H 0.5253 0.0325 0.9452   0.086164
 H 0.4122 0.5508 0.822   0.114002
 H 0.438 0.3616 0.8187   0.148204
 H 0.3635 0.3287 0.9604   0.131712
 H 0.3428 0.523 0.9605   0.064338
 C 0.7524 0.5702 0.6643   0.601005
 C 0.7281 0.8159 0.6969   0.605356
 C 0.7547 0.6111 0.7178   -0.092167
 C 0.7718 0.5364 0.7549   -0.078074
 C 0.7786 0.5744 0.8024   -0.040325
 C 0.7699 0.6883 0.819   -0.214536
 C 0.7548 0.7634 0.7835   0.261309
 C 0.7448 0.7264 0.7328   -0.105977
 C 0.8339 0.9735 0.8374   0.273884
 C 0.9572 0.0762 0.8263   -0.220062
 C 0.0464 0.1758 0.8644   -0.025062
 C 0.0157 0.1725 0.9112   -0.144002
 C 0.8891 0.0617 0.9221   -0.031355
 C 0.7977 0.9649 0.8845   -0.219487
 C 0.6645 0.8503 0.8981   0.676246
 C 0.8303 0.2401 0.482   -0.277606
 C 0.9326 0.2232 0.5074   0.013489
 C 0.9422 0.1068 0.4912   -0.135455
 C 0.8574 0.0174 0.4538   0.024121
 C 0.7579 0.0315 0.4276   -0.23722
 C 0.7505 0.1485 0.4426   0.269411
 C 0.8128 0.3644 0.4987   0.667701
 C 0.0327 0.3219 0.5513   0.627948
 C 0.5315 0.0561 0.3891   0.261029
 C 0.4542 0.9546 0.4179   -0.237911
 C 0.3346 0.8398 0.3955   -0.018843
 C 0.2961 0.8285 0.3451   -0.140798
 C 0.3735 0.9317 0.3186   0.020973
 C 0.4946 0.0476 0.3395   -0.24381
 C 0.572 0.152 0.3064   0.582968
 C 0.9502 0.8204 0.585   0.182168
 C 0.0654 0.9422 0.5843   -0.161421
 C 0.187 0.9486 0.5734   0.090305
 C 0.1789 0.8251 0.564   -0.182173
 C 0.0565 0.6997 0.565   0.207705
 C 0.5638 0.2104 0.576   0.185189
 C 0.4401 0.0829 0.575   -0.193546
 C 0.316 0.0782 0.5723   0.098921
 C 0.3192 0.2054 0.5713   -0.171072
 C 0.4433 0.3195 0.5713   0.167057
 C 0.9597 0.3143 0.3524   0.199206
 C 0.0819 0.3169 0.3499   -0.20765
 C 0.1902 0.4012 0.3856   0.10306
 C 0.166 0.4766 0.4224   -0.201898
 C 0.0438 0.4696 0.4213   0.169165
 C 0.5044 0.3998 0.35   0.183573
 C 0.3905 0.4155 0.3478   -0.199942
 C 0.3192 0.3978 0.3885   0.111638
 C 0.371 0.372 0.4315   -0.197217
 C 0.4878 0.3586 0.4312   0.183248
 C 0.5702 0.7524 0.1643   0.601007
 C 0.8159 0.7281 0.1969   0.605366
 C 0.6111 0.7547 0.2178   -0.092179
 C 0.5364 0.7718 0.2549   -0.078065
 C 0.5744 0.7786 0.3024   -0.040375
 C 0.6883 0.7699 0.319   -0.214575
 C 0.7634 0.7548 0.2835   0.261308
 C 0.7264 0.7448 0.2328   -0.105976
 C 0.9735 0.8339 0.3374   0.273854
 C 0.0762 0.9572 0.3263   -0.219992
 C 0.1758 0.0464 0.3644   -0.02516
 C 0.1725 0.0157 0.4112   -0.144073
 C 0.0617 0.8891 0.4221   -0.031369
 C 0.9649 0.7977 0.3845   -0.219499
 C 0.8503 0.6645 0.3981   0.676238
 C 0.2401 0.8303 0.982   -0.277607
 C 0.2232 0.9326 0.0074   0.013487
 C 0.1068 0.9422 0.9912   -0.13548
 C 0.0174 0.8574 0.9538   0.024076
 C 0.0315 0.7579 0.9276   -0.237205
 C 0.1485 0.7505 0.9426   0.269416
 C 0.3644 0.8128 0.9987   0.667696
 C 0.3219 0.0327 0.0513   0.627959
 C 0.0561 0.5315 0.8891   0.261023
 C 0.9546 0.4542 0.9179   -0.237934
 C 0.8398 0.3346 0.8955   -0.018865
 C 0.8285 0.2961 0.8451   -0.140768
 C 0.9317 0.3735 0.8186   0.020997
 C 0.0476 0.4946 0.8395   -0.243848
 C 0.152 0.572 0.8064   0.582939
 C 0.8204 0.9502 0.085   0.182168
 C 0.9422 0.0654 0.0843   -0.161421
 C 0.9486 0.187 0.0734   0.090304
 C 0.8251 0.1789 0.064   -0.182174
 C 0.6997 0.0565 0.065   0.207704
 C 0.2104 0.5638 0.076   0.185194
 C 0.0829 0.4401 0.075   -0.193561
 C 0.0782 0.316 0.0723   0.098923
 C 0.2054 0.3192 0.0713   -0.171073
 C 0.3195 0.4433 0.0713   0.167057
 C 0.3143 0.9597 0.8524   0.199183
 C 0.3169 0.0819 0.8499   -0.207659
 C 0.4012 0.1902 0.8856   0.103042
 C 0.4766 0.166 0.9224   -0.201896
 C 0.4696 0.0438 0.9213   0.16916
 C 0.3998 0.5044 0.85   0.183538
 C 0.4155 0.3905 0.8478   -0.199959
 C 0.3978 0.3192 0.8885   0.111627
 C 0.372 0.371 0.9315   -0.197233
 C 0.3586 0.4878 0.9312   0.183253
 N 0.9422 0.6974 0.5759   -0.311824
 N 0.5631 0.3257 0.5736   -0.323782
 N 0.9357 0.3843 0.3866   -0.289044
 N 0.5506 0.3676 0.3908   -0.299558
 N 0.6974 0.9422 0.0759   -0.311824
 N 0.3257 0.5631 0.0736   -0.323783
 N 0.3843 0.9357 0.8866   -0.289041
 N 0.3676 0.5506 0.8908   -0.299555
 O 0.8068 0.499 0.6517   -0.402717
 O 0.6971 0.6039 0.6312   -0.471492
 O 0.8342 0.9026 0.6807   -0.526256
 O 0.6083 0.7979 0.6866   -0.3861
 O 0.7422 0.8782 0.7969   -0.254676
 O 0.5589 0.8311 0.8715   -0.540836
 O 0.6691 0.7935 0.9339   -0.591735
 O 0.0236 0.2788 0.5923   -0.485415
 O 0.1191 0.4387 0.5424   -0.576777
 O 0.8264 0.397 0.5445   -0.494283
 O 0.7813 0.4181 0.4665   -0.565089
 O 0.6543 0.1709 0.414   -0.269785
 O 0.6783 0.2701 0.3228   -0.533012
 O 0.5284 0.1202 0.26   -0.515709
 O 0.499 0.8068 0.1517   -0.40272
 O 0.6039 0.6971 0.1312   -0.471492
 O 0.9026 0.8342 0.1807   -0.526257
 O 0.7979 0.6083 0.1866   -0.386216
 O 0.8782 0.7422 0.2969   -0.254672
 O 0.8311 0.5589 0.3715   -0.540831
 O 0.7935 0.6691 0.4339   -0.591703
 O 0.2788 0.0236 0.0923   -0.485516
 O 0.4387 0.1191 0.0424   -0.576779
 O 0.397 0.8264 0.0445   -0.494283
 O 0.4181 0.7813 0.9665   -0.565054
 O 0.1709 0.6543 0.914   -0.26979
 O 0.2701 0.6783 0.8228   -0.533038
 O 0.1202 0.5284 0.76   -0.515895
