{'_ref': 'TBD', '_srcid': 'CAKYAQ_clean', 'submitters': [{'name': 'Dalar Nazarian Jeff Camp and David Sholl', 'email': 'dalar@gatech.edu jcamp6@gatech.edu'}], '_method': 'VASP DFT with PBE;DDEC'}
data_CdH14C20(NO)4
_symmetry_space_group_name_H-M   'P 1'
_cell_length_a   9.14700001
_cell_length_b   9.21900001
_cell_length_c   14.60400000
_cell_angle_alpha   97.97300248
_cell_angle_beta   104.95599955
_cell_angle_gamma   104.56499754
_symmetry_Int_Tables_number   1
_chemical_formula_structural   CdH14C20(NO)4
_chemical_formula_sum   'Cd2 H28 C40 N8 O8'
_cell_volume   1123.91546946
_cell_formula_units_Z   2
loop_
 _symmetry_equiv_pos_site_id
 _symmetry_equiv_pos_as_xyz
  1  'x, y, z'
loop_
 _atom_site_label
 _atom_site_fract_x
 _atom_site_fract_y
 _atom_site_fract_z
 _atom_site_charge
 Cd 0.59716 0.07904 0.18877   0.950456
 Cd 0.33834 0.24758 0.59602   0.965928
 H 0.9253 0.1596 0.5066   0.102358
 H 0.7566 0.1703 0.606   0.13894
 H 0.1761 0.205 0.775   0.1033
 H 0.1059 0.2884 0.9089   0.140634
 H 0.9956 0.2513 0.0385   0.078765
 H 0.5663 0.091 0.8557   0.102159
 H 0.6543 0.1071 0.7258   0.113408
 H 0.1802 0.1683 0.3632   0.108764
 H 0.0154 0.2908 0.262   0.137351
 H 0.1954 0.5521 0.5244   0.103474
 H 0.034 0.6955 0.486   0.130417
 H 0.9027 0.8701 0.4277   0.09509
 H 0.7922 0.6409 0.1578   0.095168
 H 0.9335 0.4748 0.2067   0.125841
 H 0.2616 0.1381 0.2265   0.082524
 H 0.9965 0.0142 0.1239   0.137225
 H 0.2729 0.7835 0.057   0.095195
 H 0.7801 0.7923 0.0342   0.13181
 H 0.5799 0.6219 0.9063   0.097552
 H 0.8797 0.4998 0.7839   0.08821
 H 0.0892 0.6836 0.9027   0.123453
 H 0.7017 0.1898 0.4203   0.111118
 H 0.6543 0.3902 0.5208   0.130982
 H 0.5297 0.4389 0.2473   0.107582
 H 0.6484 0.6341 0.5675   0.126586
 H 0.5493 0.8206 0.6206   0.107842
 H 0.3572 0.8449 0.343   0.100216
 H 0.4321 0.6241 0.2938   0.118498
 C 0.9551 0.1718 0.5737   0.003761
 C 0.8632 0.1757 0.6277   -0.118896
 C 0.0939 0.196 0.7195   0.197615
 C 0.8882 0.1881 0.8033   0.120295
 C 0.9979 0.2442 0.8977   -0.224714
 C 0.928 0.2269 0.9753   0.00305
 C 0.7778 0.18 0.9619   -0.156404
 C 0.6746 0.13 0.8655   0.015638
 C 0.7255 0.1364 0.7882   -0.161632
 C 0.7076 0.1569 0.0442   0.666111
 C 0.164 0.2618 0.383   0.055538
 C 0.0732 0.3288 0.3273   -0.132676
 C 0.1729 0.4724 0.4714   0.143033
 C 0.0024 0.5705 0.353   0.114931
 C 0.9895 0.6855 0.4197   -0.190775
 C 0.9067 0.7882 0.3843   0.0049
 C 0.8339 0.7676 0.2883   -0.150181
 C 0.8434 0.6526 0.2235   -0.015173
 C 0.9269 0.5522 0.2522   -0.174075
 C 0.7423 0.8753 0.2548   0.627197
 C 0.2307 0.0521 0.1764   0.039867
 C 0.0853 0.9842 0.1212   -0.11977
 C 0.2382 0.8608 0.084   0.173279
 C 0.9573 0.7559 0.9825   0.119084
 C 0.8027 0.7383 0.9836   -0.17221
 C 0.684 0.6362 0.9057   0.00329
 C 0.707 0.5549 0.8282   -0.137455
 C 0.86 0.5641 0.8312   -0.002799
 C 0.986 0.67 0.9048   -0.206354
 C 0.5771 0.445 0.7484   0.662275
 C 0.6611 0.2663 0.399   0.051781
 C 0.6388 0.3774 0.4543   -0.114518
 C 0.5688 0.4043 0.3028   0.158179
 C 0.536 0.6055 0.4228   0.147598
 C 0.5821 0.6709 0.5231   -0.165601
 C 0.53 0.7867 0.5543   -0.020563
 C 0.4449 0.8582 0.4881   -0.162932
 C 0.4098 0.7998 0.3889   0.001459
 C 0.4579 0.6667 0.3596   -0.195902
 C 0.4012 0.9895 0.5226   0.62844
 N 0.111 0.1896 0.6359   -0.396559
 N 0.9478 0.1888 0.7204   0.026449
 N 0.2294 0.3537 0.4741   -0.415694
 N 0.0805 0.4628 0.3835   0.054744
 N 0.3317 0.9788 0.1501   -0.393468
 N 0.0875 0.86 0.0582   0.038185
 N 0.6148 0.2805 0.3038   -0.40401
 N 0.5869 0.4745 0.395   0.008507
 O 0.8059 0.169 0.1271   -0.635194
 O 0.5677 0.1311 0.0324   -0.588065
 O 0.7599 0.9974 0.312   -0.59164
 O 0.6529 0.8383 0.1664   -0.614175
 O 0.5982 0.4077 0.6696   -0.610493
 O 0.447 0.3848 0.7638   -0.632168
 O 0.3926 0.0152 0.6124   -0.63089
 O 0.3584 0.0715 0.468   -0.581065
