{'_ref': 'TBD', '_srcid': 'CAKYAQ_clean', 'submitters': [{'name': 'Dalar Nazarian Jeff Camp and David Sholl', 'email': 'dalar@gatech.edu jcamp6@gatech.edu'}], '_method': 'VASP DFT with PBE;DDEC'}
data_CdH19C25N5O4
_symmetry_space_group_name_H-M   'P 1'
_cell_length_a   13.13900000
_cell_length_b   14.86500000
_cell_length_c   14.86500000
_cell_angle_alpha   90.00000000
_cell_angle_beta   90.00000000
_cell_angle_gamma   90.00000000
_symmetry_Int_Tables_number   1
_chemical_formula_structural   CdH19C25N5O4
_chemical_formula_sum   'Cd4 H76 C100 N20 O16'
_cell_volume   2903.30150827
_cell_formula_units_Z   4
loop_
 _symmetry_equiv_pos_site_id
 _symmetry_equiv_pos_as_xyz
  1  'x, y, z'
loop_
 _atom_site_label
 _atom_site_fract_x
 _atom_site_fract_y
 _atom_site_fract_z
 _atom_site_charge
 Cd 0.5 0.73053 0.73053   0.903163
 Cd 0.0 0.26947 0.26947   0.903163
 Cd 0.75 0.76947 0.23053   0.903164
 Cd 0.25 0.23053 0.76947   0.903164
 H 0.4187 0.9535 0.687   0.114129
 H 0.2699 0.9946 0.5969   0.134855
 H 0.2994 0.7282 0.5958   0.106635
 H 0.1962 0.9504 0.4396   0.100554
 H 0.0556 0.9312 0.3449   0.101541
 H 0.9663 0.7207 0.4938   0.097714
 H 0.1089 0.7372 0.5862   0.126695
 H 0.4566 0.5245 0.7013   0.064246
 H 0.459 0.4032 0.5927   0.136997
 H 0.5813 0.687 0.9535   0.114129
 H 0.7301 0.5969 0.9946   0.134855
 H 0.7006 0.5958 0.7282   0.106635
 H 0.8038 0.4396 0.9504   0.100554
 H 0.9444 0.3449 0.9312   0.101541
 H 0.0337 0.4938 0.7207   0.097713
 H 0.8911 0.5862 0.7372   0.126693
 H 0.5434 0.7013 0.5245   0.064246
 H 0.541 0.5927 0.4032   0.136997
 H 0.5 0.4459 0.4459   0.082677
 H 0.9187 0.0465 0.313   0.11413
 H 0.7699 0.0054 0.4031   0.134855
 H 0.7994 0.2718 0.4042   0.106635
 H 0.6962 0.0496 0.5604   0.100554
 H 0.5556 0.0688 0.6551   0.101543
 H 0.4663 0.2793 0.5062   0.097712
 H 0.6089 0.2628 0.4138   0.126695
 H 0.9566 0.4755 0.2987   0.064246
 H 0.959 0.5968 0.4073   0.136997
 H 0.0813 0.313 0.0465   0.11413
 H 0.2301 0.4031 0.0054   0.134855
 H 0.2006 0.4042 0.2718   0.106635
 H 0.3038 0.5604 0.0496   0.100554
 H 0.4444 0.6551 0.0688   0.101543
 H 0.5337 0.5062 0.2793   0.097712
 H 0.3911 0.4138 0.2628   0.126693
 H 0.0434 0.2987 0.4755   0.064246
 H 0.041 0.4073 0.5968   0.136997
 H 0.0 0.5541 0.5541   0.082674
 H 0.6687 0.813 0.4535   0.114129
 H 0.5199 0.9031 0.4946   0.134855
 H 0.5494 0.9042 0.2282   0.106635
 H 0.4462 0.0604 0.4504   0.100555
 H 0.3056 0.1551 0.4312   0.101542
 H 0.2163 0.0062 0.2207   0.097714
 H 0.3589 0.9138 0.2372   0.126696
 H 0.7066 0.7987 0.0245   0.064247
 H 0.709 0.9073 0.9032   0.136997
 H 0.8313 0.5465 0.187   0.114129
 H 0.9801 0.5054 0.0969   0.134855
 H 0.9506 0.7718 0.0958   0.106635
 H 0.0538 0.5496 0.9396   0.100554
 H 0.1944 0.5688 0.8449   0.101542
 H 0.2837 0.7793 0.9938   0.097714
 H 0.1411 0.7628 0.0862   0.126694
 H 0.7934 0.9755 0.2013   0.064247
 H 0.791 0.0968 0.0927   0.136997
 H 0.75 0.0541 0.9459   0.082677
 H 0.1687 0.187 0.5465   0.114131
 H 0.0199 0.0969 0.5054   0.134855
 H 0.0494 0.0958 0.7718   0.106635
 H 0.9462 0.9396 0.5496   0.100554
 H 0.8056 0.8449 0.5688   0.101543
 H 0.7163 0.9938 0.7793   0.097713
 H 0.8589 0.0862 0.7628   0.126695
 H 0.2066 0.2013 0.9755   0.064247
 H 0.209 0.0927 0.0968   0.136997
 H 0.3313 0.4535 0.813   0.114131
 H 0.4801 0.4946 0.9031   0.134855
 H 0.4506 0.2282 0.9042   0.106635
 H 0.5538 0.4504 0.0604   0.100554
 H 0.6944 0.4312 0.1551   0.101543
 H 0.7837 0.2207 0.0062   0.097712
 H 0.6411 0.2372 0.9138   0.126693
 H 0.2934 0.0245 0.7987   0.064247
 H 0.291 0.9032 0.9073   0.136997
 H 0.25 0.9459 0.0541   0.082674
 C 0.3761 0.9136 0.657   0.041391
 C 0.2939 0.9368 0.6077   -0.140411
 C 0.3112 0.7887 0.6073   0.132216
 C 0.1641 0.8459 0.5213   0.132801
 C 0.1502 0.904 0.4499   -0.184447
 C 0.066 0.8923 0.393   -0.017154
 C 0.9984 0.8225 0.4089   -0.134573
 C 0.0132 0.766 0.482   -0.011353
 C 0.0978 0.7763 0.5384   -0.194951
 C 0.9081 0.8074 0.3482   0.627515
 C 0.475 0.5364 0.642   0.160499
 C 0.474 0.4623 0.5775   -0.180079
 C 0.6239 0.657 0.9136   0.041391
 C 0.7061 0.6077 0.9368   -0.140411
 C 0.6888 0.6073 0.7887   0.132216
 C 0.8359 0.5213 0.8459   0.132801
 C 0.8498 0.4499 0.904   -0.184447
 C 0.934 0.393 0.8923   -0.017154
 C 0.0016 0.4089 0.8225   -0.134573
 C 0.9868 0.482 0.766   -0.011354
 C 0.9022 0.5384 0.7763   -0.194951
 C 0.0919 0.3482 0.8074   0.627515
 C 0.525 0.642 0.5364   0.160499
 C 0.526 0.5775 0.4623   -0.18008
 C 0.5 0.4901 0.4901   -0.011115
 C 0.8761 0.0864 0.343   0.041391
 C 0.7939 0.0632 0.3923   -0.140411
 C 0.8112 0.2113 0.3927   0.132216
 C 0.6641 0.1541 0.4787   0.132801
 C 0.6502 0.096 0.5501   -0.184447
 C 0.566 0.1077 0.607   -0.017154
 C 0.4984 0.1775 0.5911   -0.134573
 C 0.5132 0.234 0.518   -0.011354
 C 0.5978 0.2237 0.4616   -0.194954
 C 0.4081 0.1926 0.6518   0.627515
 C 0.975 0.4636 0.358   0.1605
 C 0.974 0.5377 0.4225   -0.180085
 C 0.1239 0.343 0.0864   0.041391
 C 0.2061 0.3923 0.0632   -0.140411
 C 0.1888 0.3927 0.2113   0.132216
 C 0.3359 0.4787 0.1541   0.132801
 C 0.3498 0.5501 0.096   -0.184447
 C 0.434 0.607 0.1077   -0.017154
 C 0.5016 0.5911 0.1775   -0.134573
 C 0.4868 0.518 0.234   -0.011354
 C 0.4022 0.4616 0.2237   -0.194953
 C 0.5919 0.6518 0.1926   0.627515
 C 0.025 0.358 0.4636   0.160499
 C 0.026 0.4225 0.5377   -0.180086
 C 0.0 0.5099 0.5099   -0.011116
 C 0.6261 0.843 0.4136   0.041391
 C 0.5439 0.8923 0.4368   -0.140409
 C 0.5612 0.8927 0.2887   0.132217
 C 0.4141 0.9787 0.3459   0.132802
 C 0.4002 0.0501 0.404   -0.184447
 C 0.316 0.107 0.3923   -0.017154
 C 0.2484 0.0911 0.3225   -0.134573
 C 0.2632 0.018 0.266   -0.011353
 C 0.3478 0.9616 0.2763   -0.194953
 C 0.1581 0.1518 0.3074   0.627516
 C 0.725 0.858 0.0364   0.160499
 C 0.724 0.9225 0.9623   -0.180079
 C 0.8739 0.5864 0.157   0.041391
 C 0.9561 0.5632 0.1077   -0.140409
 C 0.9388 0.7113 0.1073   0.132217
 C 0.0859 0.6541 0.0213   0.132801
 C 0.0998 0.596 0.9499   -0.184447
 C 0.184 0.6077 0.893   -0.017154
 C 0.2516 0.6775 0.9089   -0.134573
 C 0.2368 0.734 0.982   -0.011353
 C 0.1522 0.7237 0.0384   -0.194952
 C 0.3419 0.6926 0.8482   0.627516
 C 0.775 0.9636 0.142   0.160499
 C 0.776 0.0377 0.0775   -0.18008
 C 0.75 0.0099 0.9901   -0.011115
 C 0.1261 0.157 0.5864   0.041391
 C 0.0439 0.1077 0.5632   -0.140409
 C 0.0612 0.1073 0.7113   0.132217
 C 0.9141 0.0213 0.6541   0.132802
 C 0.9002 0.9499 0.596   -0.184447
 C 0.816 0.893 0.6077   -0.017154
 C 0.7484 0.9089 0.6775   -0.134574
 C 0.7632 0.982 0.734   -0.011354
 C 0.8478 0.0384 0.7237   -0.194955
 C 0.6581 0.8482 0.6926   0.627516
 C 0.225 0.142 0.9636   0.1605
 C 0.224 0.0775 0.0377   -0.180085
 C 0.3739 0.4136 0.843   0.041391
 C 0.4561 0.4368 0.8923   -0.140409
 C 0.4388 0.2887 0.8927   0.132217
 C 0.5859 0.3459 0.9787   0.132801
 C 0.5998 0.404 0.0501   -0.184447
 C 0.684 0.3923 0.107   -0.017154
 C 0.7516 0.3225 0.0911   -0.134574
 C 0.7368 0.266 0.018   -0.011354
 C 0.6522 0.2763 0.9616   -0.194954
 C 0.8419 0.3074 0.1518   0.627516
 C 0.275 0.0364 0.858   0.160499
 C 0.276 0.9623 0.9225   -0.180087
 C 0.25 0.9901 0.0099   -0.011116
 N 0.3872 0.8199 0.6558   -0.365832
 N 0.2527 0.8572 0.5766   0.030271
 N 0.6128 0.6558 0.8199   -0.365832
 N 0.7473 0.5766 0.8572   0.030271
 N 0.5 0.6198 0.6198   -0.328432
 N 0.8872 0.1801 0.3442   -0.365832
 N 0.7527 0.1428 0.4234   0.030271
 N 0.1128 0.3442 0.1801   -0.365832
 N 0.2473 0.4234 0.1428   0.030271
 N 0.0 0.3802 0.3802   -0.328432
 N 0.6372 0.8442 0.3199   -0.365832
 N 0.5027 0.9234 0.3572   0.030271
 N 0.8628 0.6801 0.1558   -0.365832
 N 0.9973 0.6428 0.0766   0.030271
 N 0.75 0.8802 0.1198   -0.328432
 N 0.1372 0.1558 0.6801   -0.365832
 N 0.0027 0.0766 0.6428   0.030271
 N 0.3628 0.3199 0.8442   -0.365832
 N 0.4973 0.3572 0.9234   0.030271
 N 0.25 0.1198 0.8802   -0.328432
 O 0.8987 0.8594 0.282   -0.617386
 O 0.8475 0.7446 0.3648   -0.585015
 O 0.1013 0.282 0.8594   -0.617386
 O 0.1525 0.3648 0.7446   -0.585015
 O 0.3987 0.1406 0.718   -0.617386
 O 0.3475 0.2554 0.6352   -0.585015
 O 0.6013 0.718 0.1406   -0.617386
 O 0.6525 0.6352 0.2554   -0.585015
 O 0.1487 0.218 0.3594   -0.617386
 O 0.0975 0.1352 0.2446   -0.585015
 O 0.3513 0.6406 0.782   -0.617386
 O 0.4025 0.7554 0.8648   -0.585015
 O 0.6487 0.782 0.6406   -0.617386
 O 0.5975 0.8648 0.7554   -0.585015
 O 0.8513 0.3594 0.218   -0.617386
 O 0.9025 0.2446 0.1352   -0.585015
