{'_ref': 'TBD', '_srcid': 'CAKYAQ_clean', 'submitters': [{'name': 'Dalar Nazarian Jeff Camp and David Sholl', 'email': 'dalar@gatech.edu jcamp6@gatech.edu'}], '_method': 'VASP DFT with PBE;DDEC'}
data_TmH3C9NO8
_symmetry_space_group_name_H-M   'P 1'
_cell_length_a   9.68900000
_cell_length_b   11.21099975
_cell_length_c   12.85100000
_cell_angle_alpha   90.00000000
_cell_angle_beta   90.00000000
_cell_angle_gamma   111.72599870
_symmetry_Int_Tables_number   1
_chemical_formula_structural   TmH3C9NO8
_chemical_formula_sum   'Tm4 H12 C36 N4 O32'
_cell_volume   1296.75948416
_cell_formula_units_Z   4
loop_
 _symmetry_equiv_pos_site_id
 _symmetry_equiv_pos_as_xyz
  1  'x, y, z'
loop_
 _atom_site_label
 _atom_site_fract_x
 _atom_site_fract_y
 _atom_site_fract_z
 _atom_site_charge
 Tm 0.1447 0.3577 0.34758   2.125397
 Tm 0.3553 0.6423 0.84758   2.125397
 Tm 0.8553 0.6423 0.65242   2.125395
 Tm 0.6447 0.3577 0.15242   2.125395
 H 0.8476 0.999 0.4236   0.124944
 H 0.5158 0.9507 0.6862   0.114684
 H 0.5606 0.2621 0.5135   0.119108
 H 0.6524 0.000999999999998 0.9236   0.124944
 H 0.9842 0.0493 0.1862   0.114684
 H 0.9394 0.7379 0.0135   0.119108
 H 0.1524 0.000999999999998 0.5764   0.124943
 H 0.4842 0.0493 0.3138   0.114684
 H 0.4394 0.7379 0.4865   0.119108
 H 0.3476 0.999 0.0764   0.124944
 H 0.0158 0.9507 0.8138   0.114684
 H 0.0606 0.2621 0.9865   0.119108
 C 0.3448 0.144 0.5356   -0.125355
 C 0.2552 0.0288 0.5824   0.038677
 C 0.3184 0.9555 0.6378   -0.180323
 C 0.472 0.9979 0.6482   0.013744
 C 0.5571 0.1106 0.6014   -0.066628
 C 0.499 0.1861 0.5446   -0.021128
 C 0.2759 0.2221 0.4757   0.679344
 C 0.2228 0.8312 0.6879   0.848199
 C 0.9498 0.5056 0.4546   0.600505
 C 0.1552 0.856 0.0356   -0.125355
 C 0.2448 0.9712 0.0824   0.038677
 C 0.1816 0.0445 0.1378   -0.180323
 C 0.028 0.0021 0.1482   0.013744
 C 0.9429 0.8894 0.1014   -0.066628
 C 0.000999999999998 0.8139 0.0446   -0.021128
 C 0.2241 0.7779 0.9757   0.679344
 C 0.2772 0.1688 0.1879   0.848199
 C 0.5502 0.4944 0.9546   0.600505
 C 0.6552 0.856 0.4644   -0.125355
 C 0.7448 0.9712 0.4176   0.038677
 C 0.6816 0.0445 0.3622   -0.180323
 C 0.528 0.0021 0.3518   0.013745
 C 0.4429 0.8894 0.3986   -0.066627
 C 0.501 0.8139 0.4554   -0.021127
 C 0.7241 0.7779 0.5243   0.679344
 C 0.7772 0.1688 0.3121   0.848198
 C 0.0502 0.4944 0.5454   0.600509
 C 0.8448 0.144 0.9644   -0.125355
 C 0.7552 0.0288 0.9176   0.038677
 C 0.8184 0.9555 0.8622   -0.180323
 C 0.972 0.9979 0.8518   0.013745
 C 0.0571 0.1106 0.8986   -0.066627
 C 0.999 0.1861 0.9554   -0.021127
 C 0.7759 0.2221 0.0243   0.679344
 C 0.7228 0.8312 0.8121   0.848199
 C 0.4498 0.5056 0.0454   0.600509
 N 0.7211 0.1558 0.6111   0.602807
 N 0.7789 0.8442 0.1111   0.602807
 N 0.2789 0.8442 0.3889   0.602807
 N 0.2211 0.1558 0.8889   0.602807
 O 0.3602 0.3282 0.4353   -0.679166
 O 0.1381 0.1852 0.4677   -0.606108
 O 0.9141 0.1995 0.3159   -0.735127
 O 0.2874 0.7667 0.7314   -0.781838
 O 0.7724 0.0902 0.662   -0.355389
 O 0.7954 0.253 0.5669   -0.365436
 O 0.854 0.5517 0.4762   -0.641086
 O 0.9743 0.4683 0.3681   -0.709826
 O 0.1398 0.6718 0.9353   -0.679166
 O 0.3619 0.8148 0.9677   -0.606108
 O 0.5859 0.8005 0.8159   -0.735127
 O 0.2126 0.2333 0.2314   -0.781838
 O 0.7276 0.9098 0.162   -0.355389
 O 0.7046 0.747 0.0669   -0.365436
 O 0.646 0.4483 0.9762   -0.641086
 O 0.5257 0.5317 0.8681   -0.709826
 O 0.6398 0.6718 0.5647   -0.679167
 O 0.8619 0.8148 0.5323   -0.606109
 O 0.0859 0.8005 0.6841   -0.735127
 O 0.7126 0.2333 0.2686   -0.781838
 O 0.2276 0.9098 0.338   -0.355389
 O 0.2046 0.747 0.4331   -0.365436
 O 0.146 0.4483 0.5238   -0.641086
 O 0.0257 0.5317 0.6319   -0.709826
 O 0.8602 0.3282 0.0647   -0.679167
 O 0.6381 0.1852 0.0323   -0.606109
 O 0.4141 0.1995 0.1841   -0.735127
 O 0.7874 0.7667 0.7686   -0.781838
 O 0.2724 0.0902 0.838   -0.355389
 O 0.2954 0.253 0.9331   -0.365436
 O 0.354 0.5517 0.0238   -0.641086
 O 0.4743 0.4683 0.1319   -0.709826
