{'_ref': 'TBD', '_srcid': 'CAKYAQ_clean', 'submitters': [{'name': 'Dalar Nazarian Jeff Camp and David Sholl', 'email': 'dalar@gatech.edu jcamp6@gatech.edu'}], '_method': 'VASP DFT with PBE;DDEC'}
data_Zn2H11C16N2O7
_symmetry_space_group_name_H-M   'P 1'
_cell_length_a   8.54160048
_cell_length_b   13.66879966
_cell_length_c   18.22500000
_cell_angle_alpha   88.27020007
_cell_angle_beta   84.45590001
_cell_angle_gamma   71.79320161
_symmetry_Int_Tables_number   1
_chemical_formula_structural   Zn2H11C16N2O7
_chemical_formula_sum   'Zn8 H44 C64 N8 O28'
_cell_volume   2011.84590321
_cell_formula_units_Z   4
loop_
 _symmetry_equiv_pos_site_id
 _symmetry_equiv_pos_as_xyz
  1  'x, y, z'
loop_
 _atom_site_label
 _atom_site_fract_x
 _atom_site_fract_y
 _atom_site_fract_z
 _atom_site_charge
 Zn 0.37707 0.44664 0.47113   0.996191
 Zn 0.18991 0.6756 0.50836   0.927931
 Zn 0.17629 0.44664 0.02887   0.9955
 Zn 0.13449 0.6756 0.99164   0.928711
 Zn 0.62293 0.55336 0.52887   0.996191
 Zn 0.81009 0.3244 0.49164   0.927931
 Zn 0.82371 0.55336 0.97113   0.9955
 Zn 0.86551 0.3244 0.00836   0.928711
 H 0.6674 0.3838 0.2407   0.133061
 H 0.479 0.6504 0.1634   0.137733
 H 0.3485 0.6132 0.2137   0.147188
 H 0.2728 0.9878 0.6068   0.129761
 H 0.2252 0.8344 0.6127   0.095173
 H 0.1707 0.8432 0.4049   0.096112
 H 0.2118 0.9994 0.3942   0.128916
 H 0.3604 0.117 0.5919   0.1136
 H 0.4193 0.2678 0.5765   0.09472
 H 0.2462 0.3088 0.3873   0.086151
 H 0.1961 0.154 0.3949   0.121322
 H 0.9488 0.3838 0.2593   0.132899
 H 0.8706 0.6504 0.3366   0.137274
 H 0.0383 0.6132 0.2863   0.147036
 H 0.7394 0.9878 0.8932   0.130695
 H 0.9404 0.8344 0.8873   0.094394
 H 0.9861 0.8432 0.0951   0.095676
 H 0.7888 0.9994 0.1058   0.128433
 H 0.5226 0.117 0.9081   0.114264
 H 0.3129 0.2678 0.9235   0.094827
 H 0.445 0.3088 0.1127   0.086011
 H 0.6499 0.154 0.1051   0.121376
 H 0.3326 0.6162 0.7593   0.133062
 H 0.521 0.3496 0.8366   0.137735
 H 0.6515 0.3868 0.7863   0.147188
 H 0.7272 0.0122 0.3932   0.129759
 H 0.7748 0.1656 0.3873   0.095174
 H 0.8293 0.1568 0.5951   0.096112
 H 0.7882 0.000599999999999 0.6058   0.128913
 H 0.6396 0.883 0.4081   0.1136
 H 0.5807 0.7322 0.4235   0.09472
 H 0.7538 0.6912 0.6127   0.086151
 H 0.8039 0.846 0.6051   0.121323
 H 0.0512 0.6162 0.7407   0.132901
 H 0.1294 0.3496 0.6634   0.137275
 H 0.9617 0.3868 0.7137   0.147036
 H 0.2606 0.0122 0.1068   0.130693
 H 0.0596 0.1656 0.1127   0.094395
 H 0.0139 0.1568 0.9049   0.095676
 H 0.2112 0.000599999999999 0.8942   0.12843
 H 0.4774 0.883 0.0919   0.114264
 H 0.6871 0.7322 0.0765   0.094827
 H 0.555 0.6912 0.8873   0.086011
 H 0.3501 0.846 0.8949   0.121376
 C 0.50182 0.48636 0.31885   0.636207
 C 0.58653 0.44794 0.24237   -0.266569
 C 0.55904 0.49332 0.18191   0.044552
 C 0.68052 0.45456 0.11382   0.658347
 C 0.42729 0.59642 0.17038   -0.368097
 C 0.33712 0.59056 0.10263   0.754973
 C 0.25 0.9604 0.56449   -0.203921
 C 0.22315 0.8681 0.56757   0.169799
 C 0.1906 0.8732 0.44671   0.183458
 C 0.21503 0.96714 0.43999   -0.210373
 C 0.24389 0.01422 0.49966   0.109952
 C 0.27584 0.11372 0.49394   0.078932
 C 0.33904 0.15332 0.54813   -0.188097
 C 0.3716 0.2452 0.53931   0.172708
 C 0.27299 0.26842 0.42908   0.196798
 C 0.24134 0.17512 0.43356   -0.201109
 C 0.01182 0.48636 0.18115   0.635916
 C 0.96553 0.44794 0.25763   -0.266516
 C 0.94764 0.49332 0.31809   0.045671
 C 0.86492 0.45456 0.38618   0.65822
 C 0.97629 0.59642 0.32962   -0.368275
 C 0.07232 0.59056 0.39737   0.756504
 C 0.7896 0.9604 0.93551   -0.205927
 C 0.90875 0.8681 0.93243   0.170715
 C 0.9362 0.8732 0.05329   0.184543
 C 0.81783 0.96714 0.06001   -0.210866
 C 0.74189 0.01422 0.000340000000001   0.110458
 C 0.61044 0.11372 0.00606   0.078775
 C 0.50764 0.15332 0.95187   -0.188607
 C 0.3832 0.2452 0.96069   0.17225
 C 0.45859 0.26842 0.07092   0.196677
 C 0.58354 0.17512 0.06644   -0.200965
 C 0.49818 0.51364 0.68115   0.636207
 C 0.41347 0.55206 0.75763   -0.266569
 C 0.44096 0.50668 0.81809   0.044552
 C 0.31948 0.54544 0.88618   0.658347
 C 0.57271 0.40358 0.82962   -0.368098
 C 0.66288 0.40944 0.89737   0.754973
 C 0.75 0.0396 0.43551   -0.203921
 C 0.77685 0.1319 0.43243   0.169798
 C 0.8094 0.1268 0.55329   0.183458
 C 0.78497 0.03286 0.56001   -0.210372
 C 0.75611 0.98578 0.50034   0.109952
 C 0.72416 0.88628 0.50606   0.078932
 C 0.66096 0.84668 0.45187   -0.188097
 C 0.6284 0.7548 0.46069   0.172707
 C 0.72701 0.73158 0.57092   0.196798
 C 0.75866 0.82488 0.56644   -0.201109
 C 0.98818 0.51364 0.81885   0.635916
 C 0.03447 0.55206 0.74237   -0.266516
 C 0.05236 0.50668 0.68191   0.045672
 C 0.13508 0.54544 0.61382   0.65822
 C 0.02371 0.40358 0.67038   -0.368276
 C 0.92768 0.40944 0.60263   0.756504
 C 0.2104 0.0396 0.06449   -0.205927
 C 0.09125 0.1319 0.06757   0.170714
 C 0.0638 0.1268 0.94671   0.184543
 C 0.18217 0.03286 0.93999   -0.210865
 C 0.25811 0.98578 0.99966   0.110458
 C 0.38956 0.88628 0.99394   0.078775
 C 0.49236 0.84668 0.04813   -0.188607
 C 0.6168 0.7548 0.03931   0.17225
 C 0.54141 0.73158 0.92908   0.196676
 C 0.41646 0.82488 0.93356   -0.200965
 N 0.19409 0.82328 0.5091   -0.333283
 N 0.33767 0.30248 0.47995   -0.282918
 N 0.98263 0.82328 0.9909   -0.332442
 N 0.35985 0.30248 0.02005   -0.282206
 N 0.80591 0.17672 0.4909   -0.333283
 N 0.66233 0.69752 0.52005   -0.282918
 N 0.01737 0.17672 0.0091   -0.332442
 N 0.64015 0.69752 0.97995   -0.282206
 O 0.45156 0.58868 0.32822   -0.438758
 O 0.50173 0.41118 0.36589   -0.586231
 O 0.74782 0.35804 0.10537   -0.617557
 O 0.7048 0.52102 0.07316   -0.55217
 O 0.3365 0.5078 0.08071   -0.590161
 O 0.26562 0.67644 0.0733   -0.656016
 O 0.41104 0.59334 0.47435   -0.718615
 O 0.95976 0.58868 0.17178   -0.438824
 O 0.08709 0.41118 0.13411   -0.586204
 O 0.89414 0.35804 0.39463   -0.617638
 O 0.77418 0.52102 0.42684   -0.551551
 O 0.1557 0.5078 0.41929   -0.591283
 O 0.05794 0.67644 0.4267   -0.656346
 O 0.99562 0.59334 0.02565   -0.718882
 O 0.54844 0.41132 0.67178   -0.438758
 O 0.49827 0.58882 0.63411   -0.586231
 O 0.25218 0.64196 0.89463   -0.617557
 O 0.2952 0.47898 0.92684   -0.55217
 O 0.6635 0.4922 0.91929   -0.590161
 O 0.73438 0.32356 0.9267   -0.656016
 O 0.58896 0.40666 0.52565   -0.718615
 O 0.04024 0.41132 0.82822   -0.438824
 O 0.91291 0.58882 0.86589   -0.586204
 O 0.10586 0.64196 0.60537   -0.617638
 O 0.22582 0.47898 0.57316   -0.551551
 O 0.8443 0.4922 0.58071   -0.591284
 O 0.94206 0.32356 0.5733   -0.656346
 O 0.00438 0.40666 0.97435   -0.718882
