{'_ref': 'TBD', '_srcid': 'CAKYAQ_clean', 'submitters': [{'name': 'Dalar Nazarian Jeff Camp and David Sholl', 'email': 'dalar@gatech.edu jcamp6@gatech.edu'}], '_method': 'VASP DFT with PBE;DDEC'}
data_ZnH11C16(NO3)2
_symmetry_space_group_name_H-M   'P 1'
_cell_length_a   11.44200000
_cell_length_b   13.37300041
_cell_length_c   15.80700000
_cell_angle_alpha   90.00000000
_cell_angle_beta   90.00000000
_cell_angle_gamma   101.35999945
_symmetry_Int_Tables_number   1
_chemical_formula_structural   ZnH11C16(NO3)2
_chemical_formula_sum   'Zn4 H44 C64 N8 O24'
_cell_volume   2371.30551981
_cell_formula_units_Z   4
loop_
 _symmetry_equiv_pos_site_id
 _symmetry_equiv_pos_as_xyz
  1  'x, y, z'
loop_
 _atom_site_label
 _atom_site_fract_x
 _atom_site_fract_y
 _atom_site_fract_z
 _atom_site_charge
 Zn 0.42889 0.89163 0.57884   0.8861
 Zn 0.57111 0.60837 0.07884   0.8861
 Zn 0.57111 0.10837 0.42116   0.8861
 Zn 0.42889 0.39163 0.92116   0.8861
 H 0.6098 0.8265 0.8845   0.16332
 H 0.6004 0.8412 0.7864   0.142431
 H 0.3841 0.6179 0.766   0.136551
 H 0.039 0.9636 0.6888   0.140472
 H 0.2378 0.9605 0.6844   0.086168
 H 0.1998 0.806 0.478   0.077883
 H 0.0012 0.8084 0.4723   0.134567
 H 0.8664 0.0022 0.6633   0.133397
 H 0.6668 0.0023 0.6602   0.088634
 H 0.614 0.7763 0.5014   0.085841
 H 0.8114 0.7723 0.4997   0.134186
 H 0.3902 0.6735 0.3845   0.163319
 H 0.3996 0.6588 0.2864   0.142431
 H 0.6159 0.8821 0.266   0.136551
 H 0.961 0.5364 0.1888   0.140472
 H 0.7622 0.5395 0.1844   0.086168
 H 0.8002 0.694 0.978   0.077883
 H 0.9988 0.6916 0.9723   0.134567
 H 0.1336 0.4978 0.1633   0.133397
 H 0.3332 0.4977 0.1602   0.088634
 H 0.386 0.7237 0.0014   0.085841
 H 0.1886 0.7277 0.9997   0.134186
 H 0.3902 0.1735 0.1155   0.16332
 H 0.3996 0.1588 0.2136   0.142431
 H 0.6159 0.3821 0.234   0.136551
 H 0.961 0.0364 0.3112   0.140472
 H 0.7622 0.0395 0.3156   0.086168
 H 0.8002 0.194 0.522   0.077883
 H 0.9988 0.1916 0.5277   0.134567
 H 0.1336 0.9978 0.3367   0.133397
 H 0.3332 0.9977 0.3398   0.088634
 H 0.386 0.2237 0.4986   0.085841
 H 0.1886 0.2277 0.5003   0.134186
 H 0.6098 0.3265 0.6155   0.163319
 H 0.6004 0.3412 0.7136   0.142431
 H 0.3841 0.1179 0.734   0.136551
 H 0.039 0.4636 0.8112   0.140472
 H 0.2378 0.4605 0.8156   0.086168
 H 0.1998 0.306 0.022   0.077883
 H 0.0012 0.3084 0.0277   0.134567
 H 0.8664 0.5022 0.8367   0.133397
 H 0.6668 0.5023 0.8398   0.088634
 H 0.614 0.2763 0.9986   0.085841
 H 0.8114 0.2723 0.000300000000003   0.134185
 C 0.4248 0.7462 0.69022   0.655677
 C 0.7374 0.7684 0.81869   0.670837
 C 0.6137 0.79377 0.8301   -0.363453
 C 0.4376 0.67989 0.76306   -0.20327
 C 0.51865 0.69989 0.82547   0.018335
 C 0.51746 0.62279 0.89441   0.622845
 C 0.0694 0.9322 0.64365   -0.200506
 C 0.1896 0.93 0.64036   0.177466
 C 0.16724 0.8408 0.51999   0.177674
 C 0.04705 0.8404 0.51685   -0.19555
 C 0.99471 0.88777 0.58   0.098038
 C 0.86503 0.88894 0.58066   0.096427
 C 0.81687 0.95578 0.62887   -0.183231
 C 0.69638 0.95536 0.62717   0.1756
 C 0.66541 0.82337 0.53411   0.180737
 C 0.78438 0.82052 0.53286   -0.190785
 C 0.5752 0.7538 0.19022   0.655677
 C 0.2626 0.7316 0.31869   0.670837
 C 0.3863 0.70623 0.3301   -0.363453
 C 0.5624 0.82011 0.26306   -0.20327
 C 0.48135 0.80011 0.32547   0.018335
 C 0.48254 0.87721 0.39441   0.622845
 C 0.9306 0.5678 0.14365   -0.200506
 C 0.8104 0.57 0.14036   0.177466
 C 0.83276 0.6592 0.01999   0.177674
 C 0.95295 0.6596 0.01685   -0.19555
 C 0.00529 0.61223 0.08   0.098038
 C 0.13497 0.61106 0.08066   0.096427
 C 0.18313 0.54422 0.12887   -0.183231
 C 0.30362 0.54464 0.12717   0.1756
 C 0.33459 0.67663 0.03411   0.180737
 C 0.21562 0.67948 0.03286   -0.190784
 C 0.5752 0.2538 0.30978   0.655677
 C 0.2626 0.2316 0.18131   0.670837
 C 0.3863 0.20623 0.1699   -0.363453
 C 0.5624 0.32011 0.23694   -0.20327
 C 0.48135 0.30011 0.17453   0.018335
 C 0.48254 0.37721 0.10559   0.622845
 C 0.9306 0.0678 0.35635   -0.200506
 C 0.8104 0.07 0.35964   0.177466
 C 0.83276 0.1592 0.48001   0.177674
 C 0.95295 0.1596 0.48315   -0.19555
 C 0.00529 0.11223 0.42   0.098038
 C 0.13497 0.11106 0.41934   0.096427
 C 0.18313 0.04422 0.37113   -0.183231
 C 0.30362 0.04464 0.37283   0.1756
 C 0.33459 0.17663 0.46589   0.180737
 C 0.21562 0.17948 0.46714   -0.190784
 C 0.4248 0.2462 0.80978   0.655677
 C 0.7374 0.2684 0.68131   0.670837
 C 0.6137 0.29377 0.6699   -0.363453
 C 0.4376 0.17989 0.73694   -0.20327
 C 0.51865 0.19989 0.67453   0.018335
 C 0.51746 0.12279 0.60559   0.622845
 C 0.0694 0.4322 0.85635   -0.200506
 C 0.1896 0.43 0.85964   0.177466
 C 0.16724 0.3408 0.98001   0.177674
 C 0.04705 0.3404 0.98315   -0.19555
 C 0.99471 0.38777 0.92   0.098038
 C 0.86503 0.38894 0.91934   0.096427
 C 0.81687 0.45578 0.87113   -0.183231
 C 0.69638 0.45536 0.87283   0.1756
 C 0.66541 0.32337 0.96589   0.180737
 C 0.78438 0.32052 0.96714   -0.190784
 N 0.6199 0.88936 0.57928   -0.335091
 N 0.23948 0.88807 0.57974   -0.3086
 N 0.3801 0.61064 0.07928   -0.335091
 N 0.76052 0.61193 0.07974   -0.3086
 N 0.3801 0.11064 0.42072   -0.335091
 N 0.76052 0.11193 0.42026   -0.3086
 N 0.6199 0.38936 0.92072   -0.335091
 N 0.23948 0.38807 0.92026   -0.3086
 O 0.82474 0.83876 0.84373   -0.416386
 O 0.75163 0.69085 0.78926   -0.484822
 O 0.41652 0.71169 0.6181   -0.522451
 O 0.42255 0.8387 0.70521   -0.54113
 O 0.58283 0.65173 0.95734   -0.557597
 O 0.45077 0.53731 0.88545   -0.580316
 O 0.17526 0.66124 0.34373   -0.416386
 O 0.24837 0.80915 0.28926   -0.484822
 O 0.58348 0.78831 0.1181   -0.522451
 O 0.57745 0.6613 0.20521   -0.54113
 O 0.41717 0.84827 0.45734   -0.557597
 O 0.54923 0.96269 0.38545   -0.580316
 O 0.17526 0.16124 0.15627   -0.416386
 O 0.24837 0.30915 0.21074   -0.484822
 O 0.58348 0.28831 0.3819   -0.522451
 O 0.57745 0.1613 0.29479   -0.54113
 O 0.41717 0.34827 0.04266   -0.557597
 O 0.54923 0.46269 0.11455   -0.580316
 O 0.82474 0.33876 0.65627   -0.416386
 O 0.75163 0.19085 0.71074   -0.484822
 O 0.41652 0.21169 0.8819   -0.522451
 O 0.42255 0.3387 0.79479   -0.54113
 O 0.58283 0.15173 0.54266   -0.557597
 O 0.45077 0.03731 0.61455   -0.580316
