{'_ref': 'TBD', '_srcid': 'CAKYAQ_clean', 'submitters': [{'name': 'Dalar Nazarian Jeff Camp and David Sholl', 'email': 'dalar@gatech.edu jcamp6@gatech.edu'}], '_method': 'VASP DFT with PBE;DDEC'}
data_CoHC5O4
_symmetry_space_group_name_H-M   'P 1'
_cell_length_a   9.40980011
_cell_length_b   9.40980021
_cell_length_c   11.74200000
_cell_angle_alpha   90.31819785
_cell_angle_beta   90.31819786
_cell_angle_gamma   110.04100145
_symmetry_Int_Tables_number   1
_chemical_formula_structural   CoHC5O4
_chemical_formula_sum   'Co4 H4 C20 O16'
_cell_volume   976.686245172
_cell_formula_units_Z   4
loop_
 _symmetry_equiv_pos_site_id
 _symmetry_equiv_pos_as_xyz
  1  'x, y, z'
loop_
 _atom_site_label
 _atom_site_fract_x
 _atom_site_fract_y
 _atom_site_fract_z
 _atom_site_charge
 Co 0.11278 0.88722 0.5   1.010709
 Co 0.8585 0.8687 0.68848   1.12564
 Co 0.88722 0.11278 0.0   1.010707
 Co 0.8687 0.8585 0.18848   1.125638
 H 0.931 0.4348 0.2346   0.120105
 H 0.8777 0.3309 0.6178   0.114314
 H 0.4348 0.931 0.7346   0.120103
 H 0.3309 0.8777 0.1178   0.114311
 C 0.8616 0.5966 0.5904   0.684333
 C 0.9083 0.6657 0.3298   0.685561
 C 0.9182 0.1578 0.2608   0.695712
 C 0.9344 0.11 0.5201   0.718142
 C 0.891 0.4932 0.504   -0.124509
 C 0.9078 0.5238 0.3873   -0.08188
 C 0.922 0.4142 0.3121   -0.032924
 C 0.923 0.275 0.3504   -0.079996
 C 0.913 0.2454 0.4683   -0.072936
 C 0.8919 0.3533 0.5408   -0.014368
 C 0.5966 0.8616 0.0904   0.684339
 C 0.6657 0.9083 0.8298   0.685561
 C 0.1578 0.9182 0.7608   0.695723
 C 0.11 0.9344 0.0201   0.718146
 C 0.4932 0.891 0.004   -0.124512
 C 0.5238 0.9078 0.8873   -0.081881
 C 0.4142 0.922 0.8121   -0.032914
 C 0.275 0.923 0.8504   -0.079999
 C 0.2454 0.913 0.9683   -0.072938
 C 0.3533 0.8919 0.0408   -0.014357
 O 0.9017 0.7407 0.5651   -0.705299
 O 0.7995 0.5479 0.6776   -0.501393
 O 0.0057 0.7937 0.3458   -0.61213
 O 0.8053 0.6483 0.2531   -0.540344
 O 0.9599 0.2029 0.1629   -0.625184
 O 0.8642 0.0218 0.2914   -0.566462
 O 0.0438 0.071 0.4856   -0.607177
 O 0.847 0.0442 0.5989   -0.589919
 O 0.7407 0.9017 0.0651   -0.7053
 O 0.5479 0.7995 0.1776   -0.501393
 O 0.7937 0.0057 0.8458   -0.612134
 O 0.6483 0.8053 0.7531   -0.540342
 O 0.2029 0.9599 0.6629   -0.625187
 O 0.0218 0.8642 0.7914   -0.566465
 O 0.071 0.0438 0.9856   -0.607179
 O 0.0442 0.847 0.0989   -0.589923
