{'_ref': 'TBD', '_srcid': 'CAKYAQ_clean', 'submitters': [{'name': 'Dalar Nazarian Jeff Camp and David Sholl', 'email': 'dalar@gatech.edu jcamp6@gatech.edu'}], '_method': 'VASP DFT with PBE;DDEC'}
data_V2NiH12C15N3O4
_symmetry_space_group_name_H-M   'P 1'
_cell_length_a   11.24020004
_cell_length_b   11.53660025
_cell_length_c   16.19627625
_cell_angle_alpha   104.94502184
_cell_angle_beta   110.30377246
_cell_angle_gamma   89.99999728
_symmetry_Int_Tables_number   1
_chemical_formula_structural   V2NiH12C15N3O4
_chemical_formula_sum   'V8 Ni4 H48 C60 N12 O16'
_cell_volume   1893.80342913
_cell_formula_units_Z   4
loop_
 _symmetry_equiv_pos_site_id
 _symmetry_equiv_pos_as_xyz
  1  'x, y, z'
loop_
 _atom_site_label
 _atom_site_fract_x
 _atom_site_fract_y
 _atom_site_fract_z
 _atom_site_charge
 V 0.98161 0.82137 0.78634   1.201911
 V 0.76163 0.56417 0.71034   1.211378
 V 0.19527 0.67863 0.21366   1.201373
 V 0.05129 0.93583 0.28966   1.211833
 V 0.01839 0.17863 0.21366   1.201903
 V 0.23837 0.43583 0.28966   1.21137
 V 0.80473 0.32137 0.78634   1.201365
 V 0.94871 0.06417 0.71034   1.211825
 Ni 0.5 0.5 0.5   0.701065
 Ni 0.0 0.0 0.5   0.700094
 Ni 0.0 0.5 0.0   0.445067
 Ni 0.0 0.0 0.0   0.445489
 H 0.5 0.641 0.36   0.029319
 H 0.59 0.637 0.264   0.091207
 H 0.791 0.364 0.318   0.110092
 H 0.686 0.36 0.422   0.071919
 H 0.803 0.69 0.236   0.10533
 H 0.911 0.678 0.13   0.049814
 H 0.864 0.331 0.058   0.079344
 H 0.773 0.329 0.156   0.079023
 H 0.317 0.687 0.44   0.068489
 H 0.303 0.877 0.426   0.131234
 H 0.6943 0.9345 0.593   0.130329
 H 0.682 0.744 0.6   0.089899
 H 0.14 0.859 0.64   0.029374
 H 0.326 0.863 0.736   0.091458
 H 0.473 0.136 0.682   0.1097
 H 0.264 0.14 0.578   0.071959
 H 0.567 0.81 0.764   0.105234
 H 0.781 0.822 0.87   0.049586
 H 0.806 0.169 0.942   0.079694
 H 0.617 0.171 0.844   0.078953
 H 0.877 0.813 0.56   0.067887
 H 0.877 0.623 0.574   0.131045
 H 0.1013 0.5655 0.407   0.130377
 H 0.082 0.756 0.4   0.088951
 H 0.5 0.359 0.64   0.029319
 H 0.41 0.363 0.736   0.091207
 H 0.209 0.636 0.682   0.110092
 H 0.314 0.64 0.578   0.071919
 H 0.197 0.31 0.764   0.105329
 H 0.089 0.322 0.87   0.049814
 H 0.136 0.669 0.942   0.079344
 H 0.227 0.671 0.844   0.079024
 H 0.683 0.313 0.56   0.068489
 H 0.697 0.123 0.574   0.131234
 H 0.3057 0.0655 0.407   0.130329
 H 0.318 0.256 0.4   0.089899
 H 0.86 0.141 0.36   0.029374
 H 0.674 0.137 0.264   0.091458
 H 0.527 0.864 0.318   0.109699
 H 0.736 0.86 0.422   0.071959
 H 0.433 0.19 0.236   0.105234
 H 0.219 0.178 0.13   0.049586
 H 0.194 0.831 0.058   0.079694
 H 0.383 0.829 0.156   0.078954
 H 0.123 0.187 0.44   0.067886
 H 0.123 0.377 0.426   0.131045
 H 0.8987 0.4345 0.593   0.130377
 H 0.918 0.244 0.6   0.088951
 C 0.5635 0.5811 0.3524   0.08896
 C 0.6183 0.5858 0.2888   -0.152266
 C 0.7011 0.5029 0.2712   0.093748
 C 0.7253 0.4167 0.3208   -0.193992
 C 0.6678 0.4195 0.3836   0.142371
 C 0.7637 0.5053 0.2046   0.095581
 C 0.8032 0.6119 0.193   -0.203865
 C 0.8659 0.6076 0.1326   0.137555
 C 0.8525 0.403 0.0944   0.156932
 C 0.7879 0.3989 0.1524   -0.183418
 C 0.38905 0.7428 0.4723   0.127843
 C 0.3872 0.8591 0.4638   -0.209452
 C 0.49798 0.938 0.50596   0.086339
 C 0.6032 0.894 0.558   -0.188075
 C 0.5981 0.7764 0.5652   0.117306
 C 0.2111 0.9189 0.6476   0.088506
 C 0.3295 0.9142 0.7112   -0.151723
 C 0.4299 0.9971 0.7288   0.093902
 C 0.4045 0.0833 0.6792   -0.194112
 C 0.2842 0.0805 0.6164   0.143118
 C 0.5591 0.9947 0.7954   0.094439
 C 0.6102 0.8881 0.807   -0.203049
 C 0.7333 0.8924 0.8674   0.137631
 C 0.7581 0.097 0.9056   0.15771
 C 0.6355 0.1011 0.8476   -0.182736
 C 0.91675 0.7572 0.5277   0.128991
 C 0.9234 0.6409 0.5362   -0.210216
 C 0.99202 0.562 0.49404   0.086062
 C 0.0452 0.606 0.442   -0.188016
 C 0.0329 0.7236 0.4348   0.118425
 C 0.4365 0.4189 0.6476   0.08896
 C 0.3817 0.4142 0.7112   -0.152267
 C 0.2989 0.4971 0.7288   0.093748
 C 0.2747 0.5833 0.6792   -0.193991
 C 0.3322 0.5805 0.6164   0.142371
 C 0.2363 0.4947 0.7954   0.095581
 C 0.1968 0.3881 0.807   -0.203863
 C 0.1341 0.3924 0.8674   0.137555
 C 0.1475 0.597 0.9056   0.156932
 C 0.2121 0.6011 0.8476   -0.183416
 C 0.61095 0.2572 0.5277   0.127843
 C 0.6128 0.1409 0.5362   -0.209452
 C 0.50202 0.062 0.49404   0.086344
 C 0.3968 0.106 0.442   -0.188076
 C 0.4019 0.2236 0.4348   0.117306
 C 0.7889 0.0811 0.3524   0.088506
 C 0.6705 0.0858 0.2888   -0.151724
 C 0.5701 0.0029 0.2712   0.093902
 C 0.5955 0.9167 0.3208   -0.194112
 C 0.7158 0.9195 0.3836   0.143117
 C 0.4409 0.0053 0.2046   0.09444
 C 0.3898 0.1119 0.193   -0.203047
 C 0.2667 0.1076 0.1326   0.137631
 C 0.2419 0.903 0.0944   0.15771
 C 0.3645 0.8989 0.1524   -0.182734
 C 0.08325 0.2428 0.4723   0.128991
 C 0.0766 0.3591 0.4638   -0.210216
 C 0.00798 0.438 0.50596   0.086067
 C 0.9548 0.394 0.558   -0.188016
 C 0.9671 0.2764 0.5652   0.118425
 N 0.58802 0.5012 0.40084   -0.2963
 N 0.49236 0.6983 0.52052   -0.306871
 N 0.89121 0.5049 0.08302   -0.249321
 N 0.18718 0.9988 0.59916   -0.296566
 N 0.97184 0.8017 0.47948   -0.306482
 N 0.80819 0.9951 0.91698   -0.251157
 N 0.41198 0.4988 0.59916   -0.2963
 N 0.50764 0.3017 0.47948   -0.306871
 N 0.10879 0.4951 0.91698   -0.249321
 N 0.81282 0.0012 0.40084   -0.296566
 N 0.02816 0.1983 0.52052   -0.306482
 N 0.19181 0.0049 0.08302   -0.251157
 O 0.67411 0.5281 0.59942   -0.730599
 O 0.02134 0.8634 0.89948   -0.727349
 O 0.83655 0.4344 0.7369   -0.805737
 O 0.88159 0.6821 0.73518   -0.821154
 O 0.07469 0.9719 0.40058   -0.730329
 O 0.12186 0.6366 0.10052   -0.727377
 O 0.09965 0.0656 0.2631   -0.80622
 O 0.14641 0.8179 0.26482   -0.821601
 O 0.32589 0.4719 0.40058   -0.730598
 O 0.97866 0.1366 0.10052   -0.727349
 O 0.16345 0.5656 0.2631   -0.805737
 O 0.11841 0.3179 0.26482   -0.821153
 O 0.92531 0.0281 0.59942   -0.730328
 O 0.87814 0.3634 0.89948   -0.727376
 O 0.90035 0.9344 0.7369   -0.80622
 O 0.85359 0.1821 0.73518   -0.821599
