{'_ref': 'TBD', '_srcid': 'CAKYAQ_clean', 'submitters': [{'name': 'Dalar Nazarian Jeff Camp and David Sholl', 'email': 'dalar@gatech.edu jcamp6@gatech.edu'}], '_method': 'VASP DFT with PBE;DDEC'}
data_NdH12(C3O2)3
_symmetry_space_group_name_H-M   'P 1'
_cell_length_a   8.62659950
_cell_length_b   9.91899959
_cell_length_c   11.69400000
_cell_angle_alpha   74.69999805
_cell_angle_beta   69.75000165
_cell_angle_gamma   85.91999775
_symmetry_Int_Tables_number   1
_chemical_formula_structural   NdH12(C3O2)3
_chemical_formula_sum   'Nd2 H24 C18 O12'
_cell_volume   905.278224202
_cell_formula_units_Z   2
loop_
 _symmetry_equiv_pos_site_id
 _symmetry_equiv_pos_as_xyz
  1  'x, y, z'
loop_
 _atom_site_label
 _atom_site_fract_x
 _atom_site_fract_y
 _atom_site_fract_z
 _atom_site_charge
 Nd 0.24553 0.47759 0.01184   2.26281
 Nd 0.75447 0.52241 0.98816   2.262807
 H 0.232 0.5257 0.3282   0.138534
 H 0.2529 0.6879 0.2744   0.125965
 H 0.4054 0.7025 0.3968   0.068847
 H 0.4153 0.5391 0.4388   0.063057
 H 0.1222 0.6908 0.5076   0.067388
 H 0.1243 0.5272 0.5433   0.066397
 H 0.2949 0.5391 0.6631   0.129343
 H 0.2669 0.7003 0.6373   0.131563
 H 0.2501 0.9825 0.2174   0.119511
 H 0.2202 0.9709 0.0954   0.113036
 H 0.4785 0.8795 0.101   0.064422
 H 0.5343 0.0261 0.102   0.065417
 H 0.768 0.4743 0.6718   0.138535
 H 0.7471 0.3121 0.7256   0.125964
 H 0.5946 0.2975 0.6032   0.068846
 H 0.5847 0.4609 0.5612   0.063059
 H 0.8778 0.3092 0.4924   0.067388
 H 0.8757 0.4728 0.4567   0.066395
 H 0.7051 0.4609 0.3369   0.129344
 H 0.7331 0.2997 0.3627   0.131562
 H 0.7499 0.0175 0.7826   0.119511
 H 0.7798 0.0291 0.9046   0.113034
 H 0.5215 0.1205 0.899   0.064422
 H 0.4657 0.9739 0.898   0.065415
 C 0.455 0.5846 0.1926   0.786267
 C 0.3085 0.6039 0.3026   -0.358298
 C 0.3455 0.6154 0.4168   -0.065698
 C 0.1878 0.6107 0.5286   -0.06465
 C 0.2166 0.6111 0.6488   -0.351771
 C 0.0647 0.5874 0.7642   0.811601
 C 0.2607 0.1722 0.0924   0.741704
 C 0.287 0.0171 0.1263   -0.319304
 C 0.4675 0.9795 0.0714   -0.077202
 C 0.545 0.4154 0.8074   0.786267
 C 0.6915 0.3961 0.6974   -0.358298
 C 0.6545 0.3846 0.5832   -0.065698
 C 0.8122 0.3893 0.4714   -0.06465
 C 0.7834 0.3889 0.3512   -0.351771
 C 0.9353 0.4126 0.2358   0.811601
 C 0.7393 0.8278 0.9076   0.741704
 C 0.713 0.9829 0.8737   -0.319304
 C 0.5325 0.0205 0.9286   -0.077199
 O 0.431 0.5353 0.11038   -0.868059
 O 0.5998 0.6156 0.18011   -0.660429
 O 0.077 0.5441 0.87283   -0.901568
 O 0.9236 0.6067 0.7541   -0.6648
 O 0.3629 0.2538 0.0975   -0.723085
 O 0.141 0.2197 0.0577   -0.700994
 O 0.569 0.4647 0.88962   -0.868059
 O 0.4002 0.3844 0.81989   -0.660429
 O 0.923 0.4559 0.12717   -0.901568
 O 0.0764 0.3933 0.2459   -0.6648
 O 0.6371 0.7462 0.9025   -0.723085
 O 0.859 0.7803 0.9423   -0.700994
