{'_ref': 'TBD', '_srcid': 'CAKYAQ_clean', 'submitters': [{'name': 'Dalar Nazarian Jeff Camp and David Sholl', 'email': 'dalar@gatech.edu jcamp6@gatech.edu'}], '_method': 'VASP DFT with PBE;DDEC'}
data_V2P2H6C2O7
_symmetry_space_group_name_H-M   'P 1'
_cell_length_a   7.46700000
_cell_length_b   7.88155719
_cell_length_c   9.32890000
_cell_angle_alpha   90.00000000
_cell_angle_beta   90.00000000
_cell_angle_gamma   118.27442192
_symmetry_Int_Tables_number   1
_chemical_formula_structural   V2P2H6C2O7
_chemical_formula_sum   'V4 P4 H12 C4 O14'
_cell_volume   483.516330998
_cell_formula_units_Z   2
loop_
 _symmetry_equiv_pos_site_id
 _symmetry_equiv_pos_as_xyz
  1  'x, y, z'
loop_
 _atom_site_label
 _atom_site_fract_x
 _atom_site_fract_y
 _atom_site_fract_z
 _atom_site_charge
 V 0.03338 0.47832 0.75   0.999687
 V 0.96662 0.52168 0.25   0.999688
 V 0.44494 0.47832 0.75   1.000631
 V 0.55506 0.52168 0.25   1.000632
 P 0.34326 0.68652 0.484   1.456563
 P 0.65674 0.31348 0.984   1.456563
 P 0.34326 0.68652 0.016   1.456562
 P 0.65674 0.31348 0.516   1.456562
 H 0.3622 0.9388 0.6198   0.133817
 H 0.6378 0.0612 0.1198   0.133817
 H 0.5766 0.9388 0.8802   0.13403
 H 0.4234 0.0612 0.3802   0.13403
 H 0.6378 0.0612 0.3802   0.133811
 H 0.3622 0.9388 0.8802   0.133811
 H 0.4234 0.0612 0.1198   0.134023
 H 0.5766 0.9388 0.6198   0.134023
 H 0.92 0.84 0.192   0.457688
 H 0.08 0.16 0.692   0.457688
 H 0.92 0.84 0.308   0.457703
 H 0.08 0.16 0.808   0.457703
 C 0.46123 0.92246 0.5585   -0.446746
 C 0.53877 0.07754 0.0585   -0.446746
 C 0.46123 0.92246 0.9415   -0.446751
 C 0.53877 0.07754 0.4415   -0.446751
 O 0.16216 0.66734 0.39904   -0.78721
 O 0.83784 0.33266 0.89904   -0.78721
 O 0.50518 0.66734 0.10096   -0.787286
 O 0.49482 0.33266 0.60096   -0.787286
 O 0.83784 0.33266 0.60096   -0.78721
 O 0.16216 0.66734 0.10096   -0.78721
 O 0.49482 0.33266 0.89904   -0.787286
 O 0.50518 0.66734 0.39904   -0.787286
 O 0.26945 0.5389 0.61055   -0.800685
 O 0.73055 0.4611 0.11055   -0.800685
 O 0.26945 0.5389 0.88945   -0.800685
 O 0.73055 0.4611 0.38945   -0.800685
 O 0.89074 0.78148 0.25   -0.720658
 O 0.10926 0.21852 0.75   -0.720658
