{'_ref': 'TBD', '_srcid': 'CAKYAQ_clean', 'submitters': [{'name': 'Dalar Nazarian Jeff Camp and David Sholl', 'email': 'dalar@gatech.edu jcamp6@gatech.edu'}], '_method': 'VASP DFT with PBE;DDEC'}
data_Zn2SiH16(C7O2)4
_symmetry_space_group_name_H-M   'P 1'
_cell_length_a   12.70600000
_cell_length_b   12.70600000
_cell_length_c   23.81700000
_cell_angle_alpha   90.00000000
_cell_angle_beta   90.00000000
_cell_angle_gamma   90.00000000
_symmetry_Int_Tables_number   1
_chemical_formula_structural   Zn2SiH16(C7O2)4
_chemical_formula_sum   'Zn4 Si2 H32 C56 O16'
_cell_volume   3845.07449821
_cell_formula_units_Z   2
loop_
 _symmetry_equiv_pos_site_id
 _symmetry_equiv_pos_as_xyz
  1  'x, y, z'
loop_
 _atom_site_label
 _atom_site_fract_x
 _atom_site_fract_y
 _atom_site_fract_z
 _atom_site_charge
 Zn 0.61758 0.0 0.0   1.175335
 Zn 0.38242 0.0 0.0   1.175332
 Zn 0.0 0.61758 0.5   1.175335
 Zn 0.0 0.38242 0.5   1.175332
 Si 0.5 0.5 0.75   0.88239
 Si 0.5 0.5 0.25   0.88239
 H 0.6591 0.6336 0.8044   0.082874
 H 0.6576 0.7645 0.8714   0.104207
 H 0.3409 0.3664 0.8044   0.082874
 H 0.3424 0.2355 0.8714   0.104207
 H 0.3664 0.6591 0.3044   0.082874
 H 0.2355 0.6576 0.3714   0.104207
 H 0.6336 0.3409 0.3044   0.082874
 H 0.7645 0.3424 0.3714   0.104207
 H 0.3409 0.6336 0.1956   0.082874
 H 0.3424 0.7645 0.1286   0.104206
 H 0.6591 0.3664 0.1956   0.082874
 H 0.6576 0.2355 0.1286   0.104206
 H 0.6336 0.6591 0.6956   0.082874
 H 0.7645 0.6576 0.6286   0.104206
 H 0.3664 0.3409 0.6956   0.082874
 H 0.2355 0.3424 0.6286   0.104206
 H 0.3409 0.3664 0.1956   0.082868
 H 0.3424 0.2355 0.1286   0.104182
 H 0.6591 0.6336 0.1956   0.082868
 H 0.6576 0.7645 0.1286   0.104182
 H 0.6336 0.3409 0.6956   0.082868
 H 0.7645 0.3424 0.6286   0.104182
 H 0.3664 0.6591 0.6956   0.082868
 H 0.2355 0.6576 0.6286   0.104182
 H 0.6591 0.3664 0.8044   0.082868
 H 0.6576 0.2355 0.8714   0.10418
 H 0.3409 0.6336 0.8044   0.082868
 H 0.3424 0.7645 0.8714   0.10418
 H 0.3664 0.3409 0.3044   0.082868
 H 0.2355 0.3424 0.3714   0.10418
 H 0.6336 0.6591 0.3044   0.082868
 H 0.7645 0.6576 0.3714   0.10418
 C 0.59369 0.65927 0.81807   -0.013791
 C 0.59277 0.73692 0.85812   -0.059875
 C 0.40631 0.34073 0.81807   -0.01379
 C 0.40723 0.26308 0.85812   -0.059876
 C 0.34073 0.59369 0.31807   -0.013791
 C 0.26308 0.59277 0.35812   -0.059875
 C 0.65927 0.40631 0.31807   -0.01379
 C 0.73692 0.40723 0.35812   -0.059876
 C 0.40631 0.65927 0.18193   -0.01379
 C 0.40723 0.73692 0.14188   -0.059876
 C 0.59369 0.34073 0.18193   -0.01379
 C 0.59277 0.26308 0.14188   -0.059877
 C 0.65927 0.59369 0.68193   -0.01379
 C 0.73692 0.59277 0.64188   -0.059876
 C 0.34073 0.40631 0.68193   -0.01379
 C 0.26308 0.40723 0.64188   -0.059877
 C 0.40631 0.34073 0.18193   -0.013792
 C 0.40723 0.26308 0.14188   -0.059847
 C 0.59369 0.65927 0.18193   -0.013792
 C 0.59277 0.73692 0.14188   -0.059846
 C 0.65927 0.40631 0.68193   -0.013792
 C 0.73692 0.40723 0.64188   -0.059846
 C 0.34073 0.59369 0.68193   -0.013792
 C 0.26308 0.59277 0.64188   -0.059847
 C 0.59369 0.34073 0.81807   -0.013792
 C 0.59277 0.26308 0.85812   -0.059845
 C 0.40631 0.65927 0.81807   -0.013793
 C 0.40723 0.73692 0.85812   -0.059844
 C 0.34073 0.40631 0.31807   -0.013793
 C 0.26308 0.40723 0.35812   -0.059844
 C 0.65927 0.59369 0.31807   -0.013792
 C 0.73692 0.59277 0.35812   -0.059845
 C 0.5 0.61743 0.79711   -0.346683
 C 0.5 0.7755 0.87939   -0.12226
 C 0.5 0.8588 0.92364   0.725996
 C 0.5 0.38257 0.79711   -0.346684
 C 0.5 0.2245 0.87939   -0.122254
 C 0.5 0.1412 0.92364   0.725997
 C 0.38257 0.5 0.29711   -0.346683
 C 0.2245 0.5 0.37939   -0.12226
 C 0.1412 0.5 0.42364   0.725996
 C 0.61743 0.5 0.29711   -0.346684
 C 0.7755 0.5 0.37939   -0.122254
 C 0.8588 0.5 0.42364   0.725997
 C 0.5 0.61743 0.20289   -0.346684
 C 0.5 0.7755 0.12061   -0.122253
 C 0.5 0.8588 0.07636   0.725997
 C 0.5 0.38257 0.20289   -0.346685
 C 0.5 0.2245 0.12061   -0.122246
 C 0.5 0.1412 0.07636   0.725997
 C 0.61743 0.5 0.70289   -0.346684
 C 0.7755 0.5 0.62061   -0.122253
 C 0.8588 0.5 0.57636   0.725997
 C 0.38257 0.5 0.70289   -0.346685
 C 0.2245 0.5 0.62061   -0.122246
 C 0.1412 0.5 0.57636   0.725997
 O 0.58849 0.88956 0.9414   -0.646075
 O 0.41151 0.11044 0.9414   -0.646075
 O 0.11044 0.58849 0.4414   -0.646075
 O 0.88956 0.41151 0.4414   -0.646075
 O 0.41151 0.88956 0.0586   -0.646075
 O 0.58849 0.11044 0.0586   -0.646075
 O 0.88956 0.58849 0.5586   -0.646075
 O 0.11044 0.41151 0.5586   -0.646075
 O 0.41151 0.11044 0.0586   -0.646074
 O 0.58849 0.88956 0.0586   -0.646074
 O 0.88956 0.41151 0.5586   -0.646074
 O 0.11044 0.58849 0.5586   -0.646074
 O 0.58849 0.11044 0.9414   -0.646074
 O 0.41151 0.88956 0.9414   -0.646074
 O 0.11044 0.41151 0.4414   -0.646074
 O 0.88956 0.58849 0.4414   -0.646074
