{'_ref': 'TBD', '_srcid': 'CAKYAQ_clean', 'submitters': [{'name': 'Dalar Nazarian Jeff Camp and David Sholl', 'email': 'dalar@gatech.edu jcamp6@gatech.edu'}], '_method': 'VASP DFT with PBE;DDEC'}
data_Zn3Si2H34(C7O2)8
_symmetry_space_group_name_H-M   'P 1'
_cell_length_a   13.84429985
_cell_length_b   14.56150022
_cell_length_c   23.96590000
_cell_angle_alpha   79.22990125
_cell_angle_beta   73.21190051
_cell_angle_gamma   61.61639915
_symmetry_Int_Tables_number   1
_chemical_formula_structural   Zn3Si2H34(C7O2)8
_chemical_formula_sum   'Zn6 Si4 H68 C112 O32'
_cell_volume   4062.35731573
_cell_formula_units_Z   2
loop_
 _symmetry_equiv_pos_site_id
 _symmetry_equiv_pos_as_xyz
  1  'x, y, z'
loop_
 _atom_site_label
 _atom_site_fract_x
 _atom_site_fract_y
 _atom_site_fract_z
 _atom_site_charge
 Zn 0.26978 0.08502 0.95488   0.949288
 Zn 0.30968 0.41498 0.54512   0.948881
 Zn 0.73022 0.91498 0.04512   0.949288
 Zn 0.69032 0.58502 0.45488   0.948881
 Zn 0.5 0.0 0.0   1.126833
 Zn 0.5 0.5 0.5   1.125488
 Si 0.64702 0.44778 0.8348   0.88051
 Si 0.9296 0.05222 0.6652   0.88052
 Si 0.35298 0.55222 0.1652   0.88051
 Si 0.0704 0.94778 0.3348   0.88052
 H 0.2626 0.1702 0.8642   0.413913
 H 0.4705 0.8305 0.8271   0.103802
 H 0.5545 0.6679 0.7889   0.077806
 H 0.5935 0.529 0.9478   0.076777
 H 0.5154 0.6933 0.9853   0.086956
 H 0.5521 0.156 0.883   0.090714
 H 0.4149 0.5077 0.9105   0.08373
 H 0.3002 0.4258 0.9466   0.110378
 H 0.8046 0.4537 0.7193   0.068521
 H 0.789 0.4906 0.6228   0.101056
 H 0.4687 0.5274 0.6734   0.112724
 H 0.4857 0.4878 0.77   0.082806
 H 0.7703 0.2524 0.9002   0.077479
 H 0.9479 0.1588 0.921   0.127324
 H 0.0371 0.3743 0.8169   0.112053
 H 0.8579 0.4646 0.7978   0.089951
 H 0.6682 0.2369 0.8431   0.075356
 H 0.297 0.3298 0.6358   0.414486
 H 0.1281 0.6695 0.6729   0.103834
 H 0.0113 0.8321 0.7111   0.07862
 H 0.0703 0.971 0.5522   0.076968
 H 0.194 0.8067 0.5147   0.087334
 H 0.5911 0.344 0.617   0.090322
 H 0.8331 0.9923 0.5895   0.083494
 H 0.6726 0.0742 0.5534   0.110021
 H 0.9776 0.0463 0.7807   0.068821
 H 0.9024 0.0094 0.8772   0.101836
 H 0.6695 0.9726 0.8266   0.113136
 H 0.7435 0.0122 0.73   0.081613
 H 0.9229 0.2476 0.5998   0.077255
 H 0.0277 0.3412 0.579   0.126771
 H 0.2283 0.1257 0.6831   0.112825
 H 0.1203 0.0354 0.7022   0.090339
 H 0.7482 0.2631 0.6569   0.074918
 H 0.7374 0.8298 0.1358   0.413913
 H 0.5295 0.1695 0.1729   0.103802
 H 0.4455 0.3321 0.2111   0.077806
 H 0.4065 0.471 0.0522   0.076777
 H 0.4846 0.3067 0.0147   0.086956
 H 0.4479 0.844 0.117   0.090714
 H 0.5851 0.4923 0.0895   0.08373
 H 0.6998 0.5742 0.0534   0.110378
 H 0.1954 0.5463 0.2807   0.068521
 H 0.211 0.5094 0.3772   0.101056
 H 0.5313 0.4726 0.3266   0.112724
 H 0.5143 0.5122 0.23   0.082806
 H 0.2297 0.7476 0.0998   0.077479
 H 0.0521 0.8412 0.079   0.127324
 H 0.9629 0.6257 0.1831   0.112053
 H 0.1421 0.5354 0.2022   0.089951
 H 0.3318 0.7631 0.1569   0.075356
 H 0.703 0.6702 0.3642   0.414486
 H 0.8719 0.3305 0.3271   0.103834
 H 0.9887 0.1679 0.2889   0.07862
 H 0.9297 0.029 0.4478   0.076968
 H 0.806 0.1933 0.4853   0.087334
 H 0.4089 0.656 0.383   0.090322
 H 0.1669 0.0077 0.4105   0.083494
 H 0.3274 0.9258 0.4466   0.11002
 H 0.0224 0.9537 0.2193   0.068821
 H 0.0976 0.9906 0.1228   0.101837
 H 0.3305 0.0274 0.1734   0.113136
 H 0.2565 0.9878 0.27   0.081613
 H 0.0771 0.7524 0.4002   0.077255
 H 0.9723 0.6588 0.421   0.126772
 H 0.7717 0.8743 0.3169   0.112825
 H 0.8797 0.9646 0.2978   0.090339
 H 0.2518 0.7369 0.3431   0.074918
 C 0.43738 0.8815 0.93434   0.710818
 C 0.48929 0.77647 0.90955   -0.087653
 C 0.49796 0.76883 0.85165   -0.088818
 C 0.54653 0.67187 0.82927   0.001324
 C 0.58361 0.58067 0.86391   -0.366452
 C 0.5703 0.5903 0.9225   -0.00107
 C 0.5233 0.6885 0.9451   -0.068652
 C 0.41683 0.28193 0.92121   -0.100025
 C 0.52461 0.2277 0.88888   -0.056528
 C 0.55573 0.38162 0.87152   -0.356564
 C 0.44375 0.43595 0.90415   -0.01016
 C 0.3764 0.38663 0.92677   -0.067109
 C 0.34226 0.22887 0.94701   0.651703
 C 0.7359 0.46847 0.71033   -0.008618
 C 0.72651 0.49069 0.65269   -0.07002
 C 0.62835 0.51262 0.63828   -0.107706
 C 0.53727 0.51212 0.68254   -0.067487
 C 0.54764 0.48899 0.74013   -0.008916
 C 0.64672 0.46755 0.75481   -0.34892
 C 0.79313 0.36853 0.84701   -0.326442
 C 0.00938 0.25854 0.8705   -0.140126
 C 0.12472 0.19983 0.88313   0.672346
 C 0.82498 0.27754 0.8831   0.012284
 C 0.9305 0.2206 0.896   -0.063763
 C 0.98249 0.34918 0.83404   -0.084433
 C 0.87541 0.40281 0.82277   0.010617
 C 0.61678 0.53457 0.57627   0.692132
 C 0.59359 0.2763 0.86472   -0.008557
 C 0.25322 0.6185 0.56566   0.709237
 C 0.17531 0.72353 0.59045   -0.086161
 C 0.11844 0.73117 0.64835   -0.088852
 C 0.04767 0.82813 0.67073   0.000268
 C 0.02819 0.91933 0.63609   -0.365657
 C 0.0831 0.9097 0.5775   -0.001103
 C 0.1569 0.8115 0.5549   -0.070381
 C 0.61997 0.21807 0.57879   -0.099553
 C 0.64119 0.2723 0.61112   -0.057479
 C 0.80887 0.11838 0.62848   -0.356424
 C 0.78385 0.06405 0.59585   -0.010518
 C 0.6898 0.11337 0.57323   -0.066381
 C 0.51814 0.27113 0.55299   0.652397
 C 0.9147 0.03153 0.78967   -0.008383
 C 0.86989 0.00931 0.84731   -0.071123
 C 0.77925 0.98738 0.86172   -0.107604
 C 0.73193 0.98788 0.81746   -0.068814
 C 0.77676 0.01101 0.75987   -0.006138
 C 0.86908 0.03245 0.74519   -0.349959
 C 0.00867 0.13147 0.65299   -0.326368
 C 0.13842 0.24146 0.6295   -0.140201
 C 0.20768 0.30017 0.61687   0.673651
 C 0.98562 0.22246 0.6169   0.012086
 C 0.0471 0.2794 0.604   -0.063252
 C 0.16571 0.15082 0.66596   -0.085476
 C 0.10099 0.09719 0.67723   0.010366
 C 0.72762 0.96543 0.92373   0.689988
 C 0.73461 0.2237 0.63528   -0.007416
 C 0.56262 0.1185 0.06566   0.710818
 C 0.51071 0.22353 0.09045   -0.087653
 C 0.50204 0.23117 0.14835   -0.088818
 C 0.45347 0.32813 0.17073   0.001324
 C 0.41639 0.41933 0.13609   -0.366452
 C 0.4297 0.4097 0.0775   -0.00107
 C 0.4767 0.3115 0.0549   -0.068652
 C 0.58317 0.71807 0.07879   -0.100025
 C 0.47539 0.7723 0.11112   -0.056528
 C 0.44427 0.61838 0.12848   -0.356564
 C 0.55625 0.56405 0.09585   -0.01016
 C 0.6236 0.61337 0.07323   -0.067109
 C 0.65774 0.77113 0.05299   0.651703
 C 0.2641 0.53153 0.28967   -0.008618
 C 0.27349 0.50931 0.34731   -0.07002
 C 0.37165 0.48738 0.36172   -0.107706
 C 0.46273 0.48788 0.31746   -0.067487
 C 0.45236 0.51101 0.25987   -0.008916
 C 0.35328 0.53245 0.24519   -0.34892
 C 0.20687 0.63147 0.15299   -0.326442
 C 0.99062 0.74146 0.1295   -0.140126
 C 0.87528 0.80017 0.11687   0.672346
 C 0.17502 0.72246 0.1169   0.012284
 C 0.0695 0.7794 0.104   -0.063763
 C 0.01751 0.65082 0.16596   -0.084433
 C 0.12459 0.59719 0.17723   0.010617
 C 0.38322 0.46543 0.42373   0.692132
 C 0.40641 0.7237 0.13528   -0.008557
 C 0.74678 0.3815 0.43434   0.709237
 C 0.82469 0.27647 0.40955   -0.086161
 C 0.88156 0.26883 0.35165   -0.088852
 C 0.95233 0.17187 0.32927   0.000268
 C 0.97181 0.08067 0.36391   -0.365657
 C 0.9169 0.0903 0.4225   -0.001103
 C 0.8431 0.1885 0.4451   -0.070382
 C 0.38003 0.78193 0.42121   -0.099553
 C 0.35881 0.7277 0.38888   -0.057479
 C 0.19113 0.88162 0.37152   -0.356424
 C 0.21615 0.93595 0.40415   -0.010518
 C 0.3102 0.88663 0.42677   -0.066381
 C 0.48186 0.72887 0.44701   0.652397
 C 0.0853 0.96847 0.21033   -0.008383
 C 0.13011 0.99069 0.15269   -0.071123
 C 0.22075 0.01262 0.13828   -0.107604
 C 0.26807 0.01212 0.18254   -0.068814
 C 0.22324 0.98899 0.24013   -0.006138
 C 0.13092 0.96755 0.25481   -0.349959
 C 0.99133 0.86853 0.34701   -0.326368
 C 0.86158 0.75854 0.3705   -0.140201
 C 0.79232 0.69983 0.38313   0.673651
 C 0.01438 0.77754 0.3831   0.012086
 C 0.9529 0.7206 0.396   -0.063253
 C 0.83429 0.84918 0.33404   -0.085476
 C 0.89901 0.90281 0.32277   0.010366
 C 0.27238 0.03457 0.07627   0.689987
 C 0.26539 0.7763 0.36472   -0.007416
 O 0.35857 0.95475 0.91301   -0.631937
 O 0.47328 0.88816 0.97488   -0.597572
 O 0.69417 0.5486 0.53806   -0.592787
 O 0.53109 0.53656 0.56722   -0.602882
 O 0.24207 0.2779 0.96996   -0.554715
 O 0.38997 0.12776 0.94232   -0.681567
 O 0.1277 0.15345 0.93235   -0.498865
 O 0.2051 0.20803 0.85077   -0.436648
 O 0.22633 0.54525 0.58699   -0.631687
 O 0.33632 0.61184 0.52512   -0.596554
 O 0.78083 0.9514 0.96194   -0.591842
 O 0.63487 0.96344 0.93278   -0.602525
 O 0.48993 0.2221 0.53004   -0.554843
 O 0.46005 0.37224 0.55768   -0.682037
 O 0.2135 0.34655 0.56765   -0.499723
 O 0.2639 0.29197 0.64923   -0.43707
 O 0.64143 0.04525 0.08699   -0.631937
 O 0.52672 0.11184 0.02512   -0.597572
 O 0.30583 0.4514 0.46194   -0.592787
 O 0.46891 0.46344 0.43278   -0.602882
 O 0.75793 0.7221 0.03004   -0.554715
 O 0.61003 0.87224 0.05768   -0.681567
 O 0.8723 0.84655 0.06765   -0.498865
 O 0.7949 0.79197 0.14923   -0.436648
 O 0.77367 0.45475 0.41301   -0.631687
 O 0.66368 0.38816 0.47488   -0.596554
 O 0.21917 0.0486 0.03806   -0.591842
 O 0.36513 0.03656 0.06722   -0.602525
 O 0.51007 0.7779 0.46996   -0.554843
 O 0.53995 0.62776 0.44232   -0.682037
 O 0.7865 0.65345 0.43235   -0.499723
 O 0.7361 0.70803 0.35077   -0.43707
