{'_ref': 'TBD', '_srcid': 'CAKYAQ_clean', 'submitters': [{'name': 'Dalar Nazarian Jeff Camp and David Sholl', 'email': 'dalar@gatech.edu jcamp6@gatech.edu'}], '_method': 'VASP DFT with PBE;DDEC'}
data_CdH3(C3O2)3
_symmetry_space_group_name_H-M   'P 1'
_cell_length_a   7.93160000
_cell_length_b   15.75469963
_cell_length_c   15.75470000
_cell_angle_alpha   120.00000078
_cell_angle_beta   90.00000000
_cell_angle_gamma   90.00000000
_symmetry_Int_Tables_number   1
_chemical_formula_structural   CdH3(C3O2)3
_chemical_formula_sum   'Cd6 H18 C54 O36'
_cell_volume   1704.95019813
_cell_formula_units_Z   6
loop_
 _symmetry_equiv_pos_site_id
 _symmetry_equiv_pos_as_xyz
  1  'x, y, z'
loop_
 _atom_site_label
 _atom_site_fract_x
 _atom_site_fract_y
 _atom_site_fract_z
 _atom_site_charge
 Cd 0.98782 0.62594 0.9414   1.079625
 Cd 0.98782 0.31546 0.37406   1.079624
 Cd 0.98782 0.0586 0.68454   1.079624
 Cd 0.48782 0.68454 0.0586   1.079624
 Cd 0.48782 0.9414 0.62594   1.079625
 Cd 0.48782 0.37406 0.31546   1.079624
 H 0.694 0.5516 0.6348   0.116412
 H 0.696 0.7327 0.5262   0.105243
 H 0.922 0.8137 0.7822   0.114254
 H 0.694 0.0832 0.4484   0.116412
 H 0.696 0.7935 0.2673   0.105243
 H 0.922 0.9685 0.1863   0.114254
 H 0.694 0.3652 0.9168   0.116412
 H 0.696 0.4738 0.2065   0.105243
 H 0.922 0.2178 0.0315   0.114254
 H 0.194 0.9168 0.3652   0.116412
 H 0.196 0.2065 0.4738   0.105243
 H 0.422 0.0315 0.2178   0.114254
 H 0.194 0.6348 0.5516   0.116412
 H 0.196 0.5262 0.7327   0.105243
 H 0.422 0.7822 0.8137   0.114254
 H 0.194 0.4484 0.0832   0.116412
 H 0.196 0.2673 0.7935   0.105243
 H 0.422 0.1863 0.9685   0.114254
 C 0.8138 0.6799 0.7231   -0.149546
 C 0.7255 0.6108 0.6398   0.026768
 C 0.6846 0.6291 0.5656   -0.14438
 C 0.8622 0.6615 0.8036   0.593914
 C 0.8725 0.8821 0.6634   0.679001
 C 0.6008 0.5532 0.4743   0.604692
 C 0.7278 0.7188 0.5748   0.021836
 C 0.8186 0.7885 0.6562   -0.1442
 C 0.8607 0.7679 0.7283   0.028533
 C 0.8138 0.0432 0.3201   -0.149546
 C 0.7255 0.029 0.3892   0.026768
 C 0.6846 0.9365 0.3709   -0.14438
 C 0.8622 0.1421 0.3385   0.593914
 C 0.8725 0.7813 0.1179   0.679001
 C 0.6008 0.9211 0.4468   0.604692
 C 0.7278 0.856 0.2812   0.021836
 C 0.8186 0.8677 0.2115   -0.144199
 C 0.8607 0.9604 0.2321   0.028533
 C 0.8138 0.2769 0.9568   -0.149547
 C 0.7255 0.3602 0.971   0.026768
 C 0.6846 0.4344 0.0635   -0.14438
 C 0.8622 0.1964 0.8579   0.593915
 C 0.8725 0.3366 0.2187   0.679001
 C 0.6008 0.5257 0.0789   0.604691
 C 0.7278 0.4252 0.144   0.021836
 C 0.8186 0.3438 0.1323   -0.1442
 C 0.8607 0.2717 0.0396   0.028533
 C 0.3138 0.9568 0.2769   -0.149546
 C 0.2255 0.971 0.3602   0.026768
 C 0.1846 0.0635 0.4344   -0.14438
 C 0.3622 0.8579 0.1964   0.593914
 C 0.3725 0.2187 0.3366   0.679001
 C 0.1008 0.0789 0.5257   0.604692
 C 0.2278 0.144 0.4252   0.021836
 C 0.3186 0.1323 0.3438   -0.1442
 C 0.3607 0.0396 0.2717   0.028533
 C 0.3138 0.7231 0.6799   -0.149547
 C 0.2255 0.6398 0.6108   0.026768
 C 0.1846 0.5656 0.6291   -0.14438
 C 0.3622 0.8036 0.6615   0.593915
 C 0.3725 0.6634 0.8821   0.679001
 C 0.1008 0.4743 0.5532   0.604692
 C 0.2278 0.5748 0.7188   0.021836
 C 0.3186 0.6562 0.7885   -0.1442
 C 0.3607 0.7283 0.7679   0.028533
 C 0.3138 0.3201 0.0432   -0.149546
 C 0.2255 0.3892 0.029   0.026768
 C 0.1846 0.3709 0.9365   -0.14438
 C 0.3622 0.3385 0.1421   0.593914
 C 0.3725 0.1179 0.7813   0.679001
 C 0.1008 0.4468 0.9211   0.604691
 C 0.2278 0.2812 0.856   0.021835
 C 0.3186 0.2115 0.8677   -0.144199
 C 0.3607 0.2321 0.9604   0.028533
 O 0.9259 0.7308 0.8801   -0.461628
 O 0.8444 0.5771 0.793   -0.484969
 O 0.7749 0.9293 0.6373   -0.608899
 O 0.0168 0.9133 0.6946   -0.478674
 O 0.5486 0.4748 0.4713   -0.49544
 O 0.5837 0.5651 0.402   -0.402543
 O 0.9259 0.1493 0.2692   -0.461628
 O 0.8444 0.2159 0.4229   -0.484969
 O 0.7749 0.708 0.0707   -0.608899
 O 0.0168 0.7813 0.0867   -0.478674
 O 0.5486 0.9965 0.5252   -0.49544
 O 0.5837 0.8369 0.4349   -0.402543
 O 0.9259 0.1199 0.8507   -0.461628
 O 0.8444 0.207 0.7841   -0.484969
 O 0.7749 0.3627 0.292   -0.608899
 O 0.0168 0.3054 0.2187   -0.478674
 O 0.5486 0.5287 0.0035   -0.495439
 O 0.5837 0.598 0.1631   -0.402542
 O 0.4259 0.8507 0.1199   -0.461628
 O 0.3444 0.7841 0.207   -0.484968
 O 0.2749 0.292 0.3627   -0.608898
 O 0.5168 0.2187 0.3054   -0.478674
 O 0.0486 0.0035 0.5287   -0.495439
 O 0.0837 0.1631 0.598   -0.402543
 O 0.4259 0.8801 0.7308   -0.461628
 O 0.3444 0.793 0.5771   -0.484969
 O 0.2749 0.6373 0.9293   -0.608899
 O 0.5168 0.6946 0.9133   -0.478674
 O 0.0486 0.4713 0.4748   -0.495439
 O 0.0837 0.402 0.5651   -0.402542
 O 0.4259 0.2692 0.1493   -0.461628
 O 0.3444 0.4229 0.2159   -0.484969
 O 0.2749 0.0707 0.708   -0.608899
 O 0.5168 0.0867 0.7813   -0.478674
 O 0.0486 0.5252 0.9965   -0.49544
 O 0.0837 0.4349 0.8369   -0.402542
