{'_ref': 'TBD', '_srcid': 'CAKYAQ_clean', 'submitters': [{'name': 'Dalar Nazarian Jeff Camp and David Sholl', 'email': 'dalar@gatech.edu jcamp6@gatech.edu'}], '_method': 'VASP DFT with PBE;DDEC'}
data_Zn5H32(C28O9)2
_symmetry_space_group_name_H-M   'P 1'
_cell_length_a   12.82899951
_cell_length_b   18.52800051
_cell_length_c   21.32361307
_cell_angle_alpha   84.09745364
_cell_angle_beta   72.49374211
_cell_angle_gamma   70.00989959
_symmetry_Int_Tables_number   1
_chemical_formula_structural   Zn5H32(C28O9)2
_chemical_formula_sum   'Zn10 H64 C112 O36'
_cell_volume   4542.5508703
_cell_formula_units_Z   2
loop_
 _symmetry_equiv_pos_site_id
 _symmetry_equiv_pos_as_xyz
  1  'x, y, z'
loop_
 _atom_site_label
 _atom_site_fract_x
 _atom_site_fract_y
 _atom_site_fract_z
 _atom_site_charge
 Zn 0.0202 0.09377 0.80818   1.153789
 Zn 0.25546 0.1036 0.69706   1.051378
 Zn 0.17162 0.40623 0.80818   1.154212
 Zn 0.04748 0.3964 0.69706   1.052071
 Zn 0.9798 0.90623 0.19182   1.153789
 Zn 0.74454 0.8964 0.30294   1.051378
 Zn 0.82838 0.59377 0.19182   1.154212
 Zn 0.95252 0.6036 0.30294   1.052071
 Zn 0.90279 0.75 0.19442   1.091619
 Zn 0.09721 0.25 0.80558   1.091619
 H 0.215 0.9877 0.9454   0.109298
 H 0.3289 0.9245 0.0138   0.114978
 H 0.6116 0.8773 0.8558   0.115608
 H 0.5019 0.9474 0.7892   0.112978
 H 0.495 0.9388 0.0562   0.106225
 H 0.6212 0.8814 0.115   0.09059
 H 0.7585 0.6939 0.0034   0.091903
 H 0.6467 0.7538 0.9338   0.10532
 H 0.006 0.9201 0.6938   0.095895
 H 0.9857 0.8417 0.622   0.111962
 H 0.1819 0.9219 0.4742   0.107789
 H 0.2265 0.9805 0.5462   0.093183
 H 0.0796 0.7275 0.554   0.095679
 H 0.0591 0.6486 0.4812   0.113916
 H 0.029 0.822 0.3528   0.105559
 H 0.0448 0.9002 0.4302   0.090777
 H 0.8396 0.5123 0.9454   0.110039
 H 0.6573 0.5755 0.0138   0.115191
 H 0.5326 0.6227 0.8558   0.114902
 H 0.7089 0.5526 0.7892   0.112379
 H 0.4488 0.5612 0.0562   0.106422
 H 0.2638 0.6186 0.115   0.090926
 H 0.2381 0.8061 0.0034   0.091228
 H 0.4195 0.7462 0.9338   0.1061
 H 0.3002 0.5799 0.6938   0.096081
 H 0.3923 0.6583 0.622   0.111803
 H 0.3439 0.5781 0.4742   0.107708
 H 0.2273 0.5195 0.5462   0.093659
 H 0.3664 0.7725 0.554   0.096061
 H 0.4597 0.8514 0.4812   0.114117
 H 0.6182 0.678 0.3528   0.1047
 H 0.525 0.5998 0.4302   0.091156
 H 0.785 0.0123 0.0546   0.109299
 H 0.6711 0.0755 0.9862   0.114978
 H 0.3884 0.1227 0.1442   0.115608
 H 0.4981 0.0526 0.2108   0.112978
 H 0.505 0.0612 0.9438   0.106225
 H 0.3788 0.1186 0.885   0.09059
 H 0.2415 0.3061 0.9966   0.091903
 H 0.3533 0.2462 0.0662   0.10532
 H 0.994 0.0799 0.3062   0.095895
 H 0.0143 0.1583 0.378   0.111962
 H 0.8181 0.0781 0.5258   0.107789
 H 0.7735 0.0195 0.4538   0.093183
 H 0.9204 0.2725 0.446   0.095679
 H 0.9409 0.3514 0.5188   0.113916
 H 0.971 0.178 0.6472   0.105559
 H 0.9552 0.0998 0.5698   0.090777
 H 0.1604 0.4877 0.0546   0.110039
 H 0.3427 0.4245 0.9862   0.115191
 H 0.4674 0.3773 0.1442   0.114902
 H 0.2911 0.4474 0.2108   0.11238
 H 0.5512 0.4388 0.9438   0.106422
 H 0.7362 0.3814 0.885   0.090926
 H 0.7619 0.1939 0.9966   0.091228
 H 0.5805 0.2538 0.0662   0.1061
 H 0.6998 0.4201 0.3062   0.096081
 H 0.6077 0.3417 0.378   0.111803
 H 0.6561 0.4219 0.5258   0.107708
 H 0.7727 0.4805 0.4538   0.09366
 H 0.6336 0.2275 0.446   0.096061
 H 0.5403 0.1486 0.5188   0.114118
 H 0.3818 0.322 0.6472   0.1047
 H 0.475 0.4002 0.5698   0.091156
 C 0.2738 0.0227 0.8182   0.716819
 C 0.34554 0.9764 0.86072   -0.16564
 C 0.2948 0.9672 0.928   -0.011135
 C 0.36268 0.9277 0.96884   -0.146867
 C 0.4822 0.8929 0.942   0.062579
 C 0.5324 0.9007 0.8738   -0.154499
 C 0.46715 0.942 0.8337   -0.021012
 C 0.55752 0.8538 0.98536   0.043984
 C 0.55002 0.8908 0.04356   -0.14836
 C 0.62307 0.8554 0.07946   -0.015987
 C 0.70297 0.78 0.06546   -0.156123
 C 0.70792 0.7438 0.01256   -0.021916
 C 0.63893 0.7794 0.97114   -0.148722
 C 0.77824 0.7435 0.10992   0.719019
 C 0.1367 0.0104 0.6702   0.749487
 C 0.12326 0.9613 0.62668   -0.163882
 C 0.04733 0.9182 0.64954   -0.045812
 C 0.03322 0.8716 0.60536   -0.166739
 C 0.08756 0.8695 0.53908   0.089217
 C 0.15098 0.9158 0.51904   -0.146604
 C 0.17218 0.9556 0.56344   0.004755
 C 0.06579 0.8235 0.49922   0.062943
 C 0.06791 0.7479 0.51398   -0.133815
 C 0.05274 0.6996 0.47052   -0.048984
 C 0.02925 0.7302 0.4147   -0.131842
 C 0.0343 0.8033 0.3942   -0.046044
 C 0.0484 0.8497 0.4414   -0.13478
 C 0.01313 0.6826 0.36854   0.661185
 C 0.908 0.4773 0.8182   0.715752
 C 0.79374 0.5236 0.86072   -0.165998
 C 0.7772 0.5328 0.928   -0.012085
 C 0.66848 0.5723 0.96884   -0.145445
 C 0.5758 0.6071 0.942   0.060994
 C 0.5938 0.5993 0.8738   -0.153384
 C 0.69915 0.558 0.8337   -0.020034
 C 0.45712 0.6462 0.98536   0.044239
 C 0.40642 0.6092 0.04356   -0.149968
 C 0.29747 0.6446 0.07946   -0.015274
 C 0.23157 0.72 0.06546   -0.155168
 C 0.27952 0.7562 0.01256   -0.020023
 C 0.38993 0.7206 0.97114   -0.150888
 C 0.11184 0.7565 0.10992   0.716255
 C 0.1931 0.4896 0.6702   0.749369
 C 0.25006 0.5387 0.62668   -0.162923
 C 0.30313 0.5818 0.64954   -0.045884
 C 0.36142 0.6284 0.60536   -0.166339
 C 0.37336 0.6305 0.53908   0.088798
 C 0.32998 0.5842 0.51904   -0.145902
 C 0.26438 0.5444 0.56344   0.003194
 C 0.43499 0.6765 0.49922   0.063655
 C 0.41811 0.7521 0.51398   -0.134775
 C 0.47674 0.8004 0.47052   -0.048395
 C 0.55605 0.7698 0.4147   -0.132999
 C 0.5715 0.6967 0.3942   -0.044194
 C 0.5102 0.6503 0.4414   -0.136236
 C 0.61833 0.8174 0.36854   0.660729
 C 0.7262 0.9773 0.1818   0.716819
 C 0.65446 0.0236 0.13928   -0.16564
 C 0.7052 0.0328 0.072   -0.011135
 C 0.63732 0.0723 0.03116   -0.146867
 C 0.5178 0.1071 0.058   0.062579
 C 0.4676 0.0993 0.1262   -0.154499
 C 0.53285 0.058 0.1663   -0.021012
 C 0.44248 0.1462 0.01464   0.043984
 C 0.44998 0.1092 0.95644   -0.14836
 C 0.37693 0.1446 0.92054   -0.015987
 C 0.29703 0.22 0.93454   -0.156123
 C 0.29208 0.2562 0.98744   -0.021916
 C 0.36107 0.2206 0.02886   -0.148722
 C 0.22176 0.2565 0.89008   0.719019
 C 0.8633 0.9896 0.3298   0.749487
 C 0.87674 0.0387 0.37332   -0.163882
 C 0.95267 0.0818 0.35046   -0.045812
 C 0.96678 0.1284 0.39464   -0.166739
 C 0.91244 0.1305 0.46092   0.089217
 C 0.84902 0.0842 0.48096   -0.146604
 C 0.82782 0.0444 0.43656   0.004755
 C 0.93421 0.1765 0.50078   0.062943
 C 0.93209 0.2521 0.48602   -0.133815
 C 0.94726 0.3004 0.52948   -0.048984
 C 0.97075 0.2698 0.5853   -0.131842
 C 0.9657 0.1967 0.6058   -0.046044
 C 0.9516 0.1503 0.5586   -0.13478
 C 0.98687 0.3174 0.63146   0.661185
 C 0.092 0.5227 0.1818   0.715752
 C 0.20626 0.4764 0.13928   -0.165998
 C 0.2228 0.4672 0.072   -0.012085
 C 0.33152 0.4277 0.03116   -0.145445
 C 0.4242 0.3929 0.058   0.060994
 C 0.4062 0.4007 0.1262   -0.153384
 C 0.30085 0.442 0.1663   -0.020034
 C 0.54288 0.3538 0.01464   0.044239
 C 0.59358 0.3908 0.95644   -0.149968
 C 0.70253 0.3554 0.92054   -0.015274
 C 0.76843 0.28 0.93454   -0.155168
 C 0.72048 0.2438 0.98744   -0.020023
 C 0.61007 0.2794 0.02886   -0.150888
 C 0.88816 0.2435 0.89008   0.716255
 C 0.8069 0.5104 0.3298   0.749369
 C 0.74994 0.4613 0.37332   -0.162923
 C 0.69687 0.4182 0.35046   -0.045884
 C 0.63858 0.3716 0.39464   -0.166339
 C 0.62664 0.3695 0.46092   0.088798
 C 0.67002 0.4158 0.48096   -0.145902
 C 0.73562 0.4556 0.43656   0.003194
 C 0.56501 0.3235 0.50078   0.063655
 C 0.58189 0.2479 0.48602   -0.134775
 C 0.52326 0.1996 0.52948   -0.048396
 C 0.44395 0.2302 0.5853   -0.132999
 C 0.4285 0.3033 0.6058   -0.044194
 C 0.4898 0.3497 0.5586   -0.136236
 C 0.38167 0.1826 0.63146   0.660729
 O 0.16356 0.043 0.84368   -0.630338
 O 0.32642 0.03677 0.76116   -0.57706
 O 0.07906 0.0155 0.72948   -0.672589
 O 0.21356 0.04078 0.64508   -0.58686
 O 0.7937 0.79068 0.143   -0.581965
 O 0.82025 0.67323 0.1109   -0.63669
 O 0.00831 0.6203 0.38198   -0.510991
 O 0.00744 0.7064 0.31292   -0.496885
 O 0.84936 0.66875 0.24908   -0.821188
 O 0.99276 0.457 0.84368   -0.629501
 O 0.91242 0.46323 0.76116   -0.577277
 O 0.19146 0.4845 0.72948   -0.67295
 O 0.14136 0.45922 0.64508   -0.586797
 O 0.0633 0.70932 0.143   -0.580613
 O 0.06885 0.82677 0.1109   -0.635844
 O 0.60971 0.8797 0.38198   -0.510183
 O 0.67964 0.7936 0.31292   -0.496596
 O 0.90156 0.83125 0.24908   -0.821176
 O 0.83644 0.957 0.15632   -0.630337
 O 0.67358 0.96323 0.23884   -0.57706
 O 0.92094 0.9845 0.27052   -0.672589
 O 0.78644 0.95922 0.35492   -0.58686
 O 0.2063 0.20932 0.857   -0.581965
 O 0.17975 0.32677 0.8891   -0.63669
 O 0.99169 0.3797 0.61802   -0.510991
 O 0.99256 0.2936 0.68708   -0.496885
 O 0.15064 0.33125 0.75092   -0.821188
 O 0.00724 0.543 0.15632   -0.629501
 O 0.08758 0.53677 0.23884   -0.577277
 O 0.80854 0.5155 0.27052   -0.67295
 O 0.85864 0.54078 0.35492   -0.586796
 O 0.9367 0.29068 0.857   -0.580613
 O 0.93115 0.17323 0.8891   -0.635844
 O 0.39029 0.1203 0.61802   -0.510183
 O 0.32036 0.2064 0.68708   -0.496596
 O 0.09844 0.16875 0.75092   -0.821176
