{'_ref': 'TBD', '_srcid': 'CAKYAQ_clean', 'submitters': [{'name': 'Dalar Nazarian Jeff Camp and David Sholl', 'email': 'dalar@gatech.edu jcamp6@gatech.edu'}], '_method': 'VASP DFT with PBE;DDEC'}
data_HfH4(C2O)4
_symmetry_space_group_name_H-M   'P 1'
_cell_length_a   16.80980038
_cell_length_b   16.80980033
_cell_length_c   16.80978540
_cell_angle_alpha   95.52165456
_cell_angle_beta   116.86486917
_cell_angle_gamma   116.86499955
_symmetry_Int_Tables_number   1
_chemical_formula_structural   HfH4(C2O)4
_chemical_formula_sum   'Hf6 H24 C48 O24'
_cell_volume   3500.27222551
_cell_formula_units_Z   6
loop_
 _symmetry_equiv_pos_site_id
 _symmetry_equiv_pos_as_xyz
  1  'x, y, z'
loop_
 _atom_site_label
 _atom_site_fract_x
 _atom_site_fract_y
 _atom_site_fract_z
 _atom_site_charge
 Hf 0.0 0.39173 0.39173   2.550299
 Hf 0.0 0.60827 0.60827   2.550299
 Hf 0.80047 0.40023 0.40023   2.461937
 Hf 0.19953 0.59977 0.59977   2.461937
 Hf 0.0 0.40024 0.59976   2.462059
 Hf 0.0 0.59976 0.40024   2.462059
 H 0.7716 0.1274 0.1274   0.102395
 H 0.6462 0.9903 0.9903   0.113397
 H 0.5396 0.1332 0.1332   0.101984
 H 0.2284 0.3558 0.3558   0.102393
 H 0.3538 0.3441 0.3441   0.113396
 H 0.4604 0.5936 0.5936   0.101981
 H 0.0 0.1274 0.3558   0.102393
 H 0.0 0.9903 0.3441   0.113399
 H 0.0 0.1332 0.5936   0.102007
 H 0.0 0.3558 0.1274   0.102392
 H 0.0 0.3441 0.9903   0.113401
 H 0.0 0.5936 0.1332   0.102007
 H 0.0 0.6442 0.8726   0.102391
 H 0.0 0.6559 0.0097   0.113403
 H 0.0 0.4064 0.8668   0.102007
 H 0.0 0.8726 0.6442   0.102392
 H 0.0 0.0097 0.6559   0.1134
 H 0.0 0.8668 0.4064   0.102008
 H 0.7716 0.6442 0.6442   0.102393
 H 0.6462 0.6559 0.6559   0.113397
 H 0.5396 0.4064 0.4064   0.101981
 H 0.2284 0.8726 0.8726   0.102396
 H 0.3538 0.0097 0.0097   0.113398
 H 0.4604 0.8668 0.8668   0.101984
 C 0.755 0.2351 0.2351   0.820714
 C 0.6702 0.1456 0.1456   -0.1688
 C 0.699 0.1009 0.1009   -0.043071
 C 0.6238 0.0183 0.0183   -0.148352
 C 0.5144 0.9769 0.9769   0.051207
 C 0.5612 0.1046 0.1046   -0.061877
 C 0.245 0.4801 0.4801   0.820714
 C 0.3298 0.4754 0.4754   -0.168795
 C 0.301 0.4019 0.4019   -0.04307
 C 0.3762 0.3945 0.3945   -0.148372
 C 0.4856 0.4625 0.4625   0.051207
 C 0.4388 0.5434 0.5434   -0.06187
 C 0.0 0.2351 0.4801   0.820701
 C 0.0 0.1456 0.4754   -0.168777
 C 0.0 0.1009 0.4019   -0.04307
 C 0.0 0.0183 0.3945   -0.148354
 C 0.0 0.9769 0.4625   0.05119
 C 0.0 0.1046 0.5434   -0.061891
 C 0.0 0.4801 0.2351   0.820705
 C 0.0 0.4754 0.1456   -0.16878
 C 0.0 0.4019 0.1009   -0.043065
 C 0.0 0.3945 0.0183   -0.148368
 C 0.0 0.4625 0.9769   0.051197
 C 0.0 0.5434 0.1046   -0.061889
 C 0.0 0.5199 0.7649   0.820706
 C 0.0 0.5246 0.8544   -0.168783
 C 0.0 0.5981 0.8991   -0.043063
 C 0.0 0.6055 0.9817   -0.14837
 C 0.0 0.5375 0.0231   0.051206
 C 0.0 0.4566 0.8954   -0.061879
 C 0.0 0.7649 0.5199   0.820702
 C 0.0 0.8544 0.5246   -0.168779
 C 0.0 0.8991 0.5981   -0.043068
 C 0.0 0.9817 0.6055   -0.148356
 C 0.0 0.0231 0.5375   0.051198
 C 0.0 0.8954 0.4566   -0.061881
 C 0.755 0.5199 0.5199   0.820714
 C 0.6702 0.5246 0.5246   -0.168797
 C 0.699 0.5981 0.5981   -0.04307
 C 0.6238 0.6055 0.6055   -0.148374
 C 0.5144 0.5375 0.5375   0.051213
 C 0.5612 0.4566 0.4566   -0.061862
 C 0.245 0.7649 0.7649   0.820714
 C 0.3298 0.8544 0.8544   -0.168802
 C 0.301 0.8991 0.8991   -0.043071
 C 0.3762 0.9817 0.9817   -0.148354
 C 0.4856 0.0231 0.0231   0.051213
 C 0.4388 0.8954 0.8954   -0.061868
 O 0.8494 0.2671 0.2671   -0.624949
 O 0.722 0.2724 0.2724   -0.767173
 O 0.1506 0.4177 0.4177   -0.624974
 O 0.278 0.5504 0.5504   -0.767181
 O 0.0 0.2671 0.4177   -0.624979
 O 0.0 0.2724 0.5504   -0.767135
 O 0.0 0.4177 0.2671   -0.624978
 O 0.0 0.5504 0.2724   -0.767136
 O 0.0 0.5823 0.7329   -0.624978
 O 0.0 0.4496 0.7276   -0.767136
 O 0.0 0.7329 0.5823   -0.624979
 O 0.0 0.7276 0.4496   -0.767135
 O 0.8494 0.5823 0.5823   -0.624974
 O 0.722 0.4496 0.4496   -0.767181
 O 0.1506 0.7329 0.7329   -0.624949
 O 0.278 0.7276 0.7276   -0.767174
 O 0.8996 0.3472 0.4476   -1.244085
 O 0.1004 0.548 0.4476   -1.244012
 O 0.1004 0.4476 0.548   -1.244014
 O 0.8996 0.4476 0.3472   -1.244088
 O 0.8996 0.452 0.5524   -1.244012
 O 0.1004 0.6528 0.5524   -1.244085
 O 0.8996 0.5524 0.452   -1.244014
 O 0.1004 0.5524 0.6528   -1.244088
