{'_ref': 'TBD', '_srcid': 'CAKYAQ_clean', 'submitters': [{'name': 'Dalar Nazarian Jeff Camp and David Sholl', 'email': 'dalar@gatech.edu jcamp6@gatech.edu'}], '_method': 'VASP DFT with PBE;DDEC'}
data_HfH4(C2O)4
_symmetry_space_group_name_H-M   'P 1'
_cell_length_a   16.84152689
_cell_length_b   16.84160000
_cell_length_c   16.84159991
_cell_angle_alpha   96.28120158
_cell_angle_beta   113.55783563
_cell_angle_gamma   119.40085609
_symmetry_Int_Tables_number   1
_chemical_formula_structural   HfH4(C2O)4
_chemical_formula_sum   'Hf6 H24 C48 O24'
_cell_volume   3524.44120532
_cell_formula_units_Z   6
loop_
 _symmetry_equiv_pos_site_id
 _symmetry_equiv_pos_as_xyz
  1  'x, y, z'
loop_
 _atom_site_label
 _atom_site_fract_x
 _atom_site_fract_y
 _atom_site_fract_z
 _atom_site_charge
 Hf 0.5 0.39068 0.89068   2.560465
 Hf 0.5 0.60932 0.10932   2.560465
 Hf 0.5086 0.60352 0.90508   2.44761
 Hf 0.4914 0.39648 0.09492   2.44761
 Hf 0.30156 0.39648 0.90508   2.447601
 Hf 0.69844 0.60352 0.09492   2.447601
 H 0.4912 0.3494 0.6226   0.104566
 H 0.5161 0.6 0.6439   0.103462
 H 0.5157 0.6647 0.5178   0.111633
 H 0.5088 0.1314 0.8582   0.104566
 H 0.4839 0.1278 0.0839   0.103478
 H 0.4843 0.0021 0.149   0.111632
 H 0.2732 0.6506 0.1418   0.104563
 H 0.0439 0.4 0.9161   0.103449
 H 0.8531 0.3353 0.851   0.111622
 H 0.7268 0.8686 0.3774   0.104581
 H 0.9561 0.8722 0.3561   0.103449
 H 0.1469 0.9979 0.4822   0.111627
 H 0.5088 0.6506 0.3774   0.104568
 H 0.4839 0.4 0.3561   0.103462
 H 0.4843 0.3353 0.4822   0.111634
 H 0.4912 0.8686 0.1418   0.104568
 H 0.5161 0.8722 0.9161   0.103478
 H 0.5157 0.9979 0.851   0.111633
 H 0.7268 0.3494 0.8582   0.104565
 H 0.9561 0.6 0.0839   0.103449
 H 0.1469 0.6647 0.149   0.111623
 H 0.2732 0.1314 0.6226   0.104583
 H 0.0439 0.1278 0.6439   0.103449
 H 0.8531 0.0021 0.5178   0.111628
 C 0.5071 0.4834 0.7383   0.819142
 C 0.5034 0.4756 0.6466   -0.165976
 C 0.4944 0.3971 0.5981   -0.038011
 C 0.5095 0.5469 0.611   -0.06889
 C 0.5058 0.5405 0.5255   0.0458
 C 0.51 0.6115 0.4863   -0.149809
 C 0.4929 0.2312 0.9763   0.819147
 C 0.4966 0.1432 0.9722   -0.165961
 C 0.5056 0.1037 0.9027   -0.038016
 C 0.4905 0.1015 0.0374   -0.068914
 C 0.4942 0.0197 0.0347   0.045807
 C 0.49 0.9763 0.1015   -0.149819
 C 0.2549 0.5166 0.0237   0.819133
 C 0.171 0.5244 0.0278   -0.165956
 C 0.201 0.6029 0.0973   -0.038029
 C 0.0641 0.4531 0.9626   -0.0689
 C 0.985 0.4595 0.9653   0.045827
 C 0.8748 0.3885 0.8985   -0.149813
 C 0.7451 0.7688 0.2617   0.81914
 C 0.829 0.8568 0.3534   -0.165995
 C 0.799 0.8963 0.4019   -0.038026
 C 0.9359 0.8985 0.389   -0.06889
 C 0.015 0.9803 0.4745   0.04582
 C 0.1252 0.0237 0.5137   -0.149812
 C 0.4929 0.5166 0.2617   0.819142
 C 0.4966 0.5244 0.3534   -0.165976
 C 0.5056 0.6029 0.4019   -0.038012
 C 0.4905 0.4531 0.389   -0.06889
 C 0.4942 0.4595 0.4745   0.045798
 C 0.49 0.3885 0.5137   -0.149808
 C 0.5071 0.7688 0.0237   0.819146
 C 0.5034 0.8568 0.0278   -0.165961
 C 0.4944 0.8963 0.0973   -0.038016
 C 0.5095 0.8985 0.9626   -0.068914
 C 0.5058 0.9803 0.9653   0.045804
 C 0.51 0.0237 0.8985   -0.149818
 C 0.7451 0.4834 0.9763   0.819132
 C 0.829 0.4756 0.9722   -0.165956
 C 0.799 0.3971 0.9027   -0.03803
 C 0.9359 0.5469 0.0374   -0.068899
 C 0.015 0.5405 0.0347   0.045823
 C 0.1252 0.6115 0.1015   -0.149812
 C 0.2549 0.2312 0.7383   0.819139
 C 0.171 0.1432 0.6466   -0.165995
 C 0.201 0.1037 0.5981   -0.038026
 C 0.0641 0.1015 0.611   -0.068889
 C 0.985 0.0197 0.5255   0.045816
 C 0.8748 0.9763 0.4863   -0.149812
 O 0.5132 0.5567 0.7773   -0.753103
 O 0.5056 0.419 0.7674   -0.629454
 O 0.4868 0.2641 0.0435   -0.753106
 O 0.4944 0.2618 0.9134   -0.629453
 O 0.2206 0.4433 0.9565   -0.753136
 O 0.3484 0.581 0.0866   -0.629436
 O 0.7794 0.7359 0.2227   -0.753135
 O 0.6516 0.7382 0.2326   -0.629441
 O 0.4868 0.4433 0.2227   -0.753103
 O 0.4944 0.581 0.2326   -0.629454
 O 0.5132 0.7359 0.9565   -0.753106
 O 0.5056 0.7382 0.0866   -0.629453
 O 0.7794 0.5567 0.0435   -0.753136
 O 0.6516 0.419 0.9134   -0.629436
 O 0.2206 0.2641 0.7773   -0.753135
 O 0.3484 0.2618 0.7674   -0.629441
 O 0.6024 0.5487 0.9463   -1.241646
 O 0.3976 0.3439 0.9463   -1.241663
 O 0.3976 0.4513 0.0537   -1.241646
 O 0.6024 0.6561 0.0537   -1.241663
 O 0.595 0.4471 0.0421   -1.244861
 O 0.405 0.4471 0.8521   -1.244873
 O 0.595 0.5529 0.1479   -1.244873
 O 0.405 0.5529 0.9579   -1.244861
