{'_ref': 'TBD', '_srcid': 'CAKYAQ_clean', 'submitters': [{'name': 'Dalar Nazarian Jeff Camp and David Sholl', 'email': 'dalar@gatech.edu jcamp6@gatech.edu'}], '_method': 'VASP DFT with PBE;DDEC'}
data_CdH12C17N3O4
_symmetry_space_group_name_H-M   'P 1'
_cell_length_a   16.28200015
_cell_length_b   17.64740035
_cell_length_c   17.64740000
_cell_angle_alpha   77.71290118
_cell_angle_beta   62.52810013
_cell_angle_gamma   62.52810133
_symmetry_Int_Tables_number   1
_chemical_formula_structural   CdH12C17N3O4
_chemical_formula_sum   'Cd8 H96 C136 N24 O32'
_cell_volume   3991.61548416
_cell_formula_units_Z   8
loop_
 _symmetry_equiv_pos_site_id
 _symmetry_equiv_pos_as_xyz
  1  'x, y, z'
loop_
 _atom_site_label
 _atom_site_fract_x
 _atom_site_fract_y
 _atom_site_fract_z
 _atom_site_charge
 Cd 0.53858 0.59135 0.432   0.958379
 Cd 0.06193 0.90865 0.068   0.957641
 Cd 0.97058 0.568 0.09135   0.957143
 Cd 0.12993 0.932 0.40865   0.958363
 Cd 0.46142 0.40865 0.568   0.958379
 Cd 0.93807 0.09135 0.932   0.957641
 Cd 0.02942 0.432 0.90865   0.957143
 Cd 0.87007 0.068 0.59135   0.958363
 H 0.6697 0.4777 0.1501   0.379584
 H 0.5069 0.6121 0.7345   0.13033
 H 0.5816 0.5555 0.6003   0.076392
 H 0.3706 0.8394 0.6426   0.134915
 H 0.4469 0.7766 0.5124   0.077097
 H 0.7471 0.5824 0.4336   0.087145
 H 0.8 0.7315 0.2271   0.087329
 H 0.8201 0.8128 0.2984   0.112747
 H 0.7718 0.6628 0.5026   0.105419
 H 0.8773 0.8056 0.4154   0.124728
 H 0.759 0.8552 0.4654   0.122466
 H 0.8194 0.7718 0.5042   0.112527
 H 0.7975 0.0223 0.3499   0.379339
 H 0.3535 0.8879 0.7655   0.127649
 H 0.2374 0.9445 0.8997   0.075849
 H 0.3526 0.6606 0.8574   0.134863
 H 0.2359 0.7234 0.9876   0.075622
 H 0.2631 0.9176 0.0664   0.088101
 H 0.2586 0.7685 0.2729   0.086972
 H 0.4313 0.6872 0.2016   0.111519
 H 0.4372 0.8372 0.9974   0.105556
 H 0.5983 0.6944 0.0846   0.124738
 H 0.5796 0.6448 0.0346   0.122494
 H 0.5954 0.7282 0.9958   0.112575
 H 0.8198 0.8499 0.9777   0.379008
 H 0.2414 0.2655 0.1121   0.129531
 H 0.1819 0.3997 0.0555   0.075837
 H 0.0132 0.3574 0.3394   0.135133
 H 0.9593 0.4876 0.2766   0.075484
 H 0.1807 0.5664 0.0824   0.088023
 H 0.0271 0.7729 0.2315   0.087257
 H 0.1185 0.7016 0.3128   0.112144
 H 0.2744 0.4974 0.1628   0.105405
 H 0.2927 0.5846 0.3056   0.124573
 H 0.2244 0.5346 0.3552   0.122676
 H 0.3236 0.4958 0.2718   0.113019
 H 0.1474 0.6501 0.5223   0.37871
 H 0.119 0.2345 0.3879   0.128388
 H 0.1371 0.1003 0.4445   0.076204
 H 0.21 0.1426 0.1606   0.135626
 H 0.2235 0.0124 0.2234   0.074974
 H 0.3295 0.9336 0.4176   0.087171
 H 0.5315 0.7271 0.2685   0.087407
 H 0.6329 0.7984 0.1872   0.112705
 H 0.4346 0.0026 0.3372   0.106108
 H 0.6829 0.9154 0.1944   0.123035
 H 0.6142 0.9654 0.1448   0.121468
 H 0.5912 0.0042 0.2282   0.113623
 H 0.3303 0.5223 0.8499   0.379584
 H 0.4931 0.3879 0.2655   0.13033
 H 0.4184 0.4445 0.3997   0.076392
 H 0.6294 0.1606 0.3574   0.134914
 H 0.5531 0.2234 0.4876   0.077097
 H 0.2529 0.4176 0.5664   0.087145
 H 0.2 0.2685 0.7729   0.087329
 H 0.1799 0.1872 0.7016   0.112747
 H 0.2282 0.3372 0.4974   0.105419
 H 0.1227 0.1944 0.5846   0.124728
 H 0.241 0.1448 0.5346   0.122465
 H 0.1806 0.2282 0.4958   0.112527
 H 0.2025 0.9777 0.6501   0.379339
 H 0.6465 0.1121 0.2345   0.127649
 H 0.7626 0.0555 0.1003   0.075849
 H 0.6474 0.3394 0.1426   0.134863
 H 0.7641 0.2766 0.0124   0.075622
 H 0.7369 0.0824 0.9336   0.088101
 H 0.7414 0.2315 0.7271   0.086972
 H 0.5687 0.3128 0.7984   0.111519
 H 0.5628 0.1628 0.0026   0.105555
 H 0.4017 0.3056 0.9154   0.124738
 H 0.4204 0.3552 0.9654   0.122493
 H 0.4046 0.2718 0.0042   0.112575
 H 0.1802 0.1501 0.0223   0.379008
 H 0.7586 0.7345 0.8879   0.129531
 H 0.8181 0.6003 0.9445   0.075837
 H 0.9868 0.6426 0.6606   0.135133
 H 0.0407 0.5124 0.7234   0.075484
 H 0.8193 0.4336 0.9176   0.088023
 H 0.9729 0.2271 0.7685   0.087257
 H 0.8815 0.2984 0.6872   0.112144
 H 0.7256 0.5026 0.8372   0.105404
 H 0.7073 0.4154 0.6944   0.124573
 H 0.7756 0.4654 0.6448   0.122676
 H 0.6764 0.5042 0.7282   0.113018
 H 0.8526 0.3499 0.4777   0.37871
 H 0.881 0.7655 0.6121   0.128388
 H 0.8629 0.8997 0.5555   0.076204
 H 0.79 0.8574 0.8394   0.135625
 H 0.7765 0.9876 0.7766   0.074974
 H 0.6705 0.0664 0.5824   0.087171
 H 0.4685 0.2729 0.7315   0.087407
 H 0.3671 0.2016 0.8128   0.112705
 H 0.5654 0.9974 0.6628   0.106107
 H 0.3171 0.0846 0.8056   0.123035
 H 0.3858 0.0346 0.8552   0.121468
 H 0.4088 0.9958 0.7718   0.113622
 C 0.82866 0.49098 0.09082   0.620642
 C 0.60572 0.51568 0.25544   0.617848
 C 0.42414 0.73169 0.70577   0.100176
 C 0.68674 0.53884 0.24434   -0.062558
 C 0.75562 0.59832 0.27762   0.407954
 C 0.77127 0.64799 0.32343   -0.10066
 C 0.49156 0.64654 0.69086   -0.206835
 C 0.53632 0.61295 0.60945   0.202963
 C 0.41084 0.78097 0.63635   -0.189369
 C 0.4575 0.74271 0.55809   0.177364
 C 0.77689 0.53222 0.17556   0.020948
 C 0.76251 0.62826 0.40572   -0.050895
 C 0.79356 0.71768 0.28286   -0.059217
 C 0.7982 0.7462 0.4074   0.125792
 C 0.80614 0.76616 0.32556   -0.158668
 C 0.7767 0.6771 0.4473   -0.175649
 C 0.8151 0.7997 0.4523   -0.348827
 C 0.91046 0.00902 0.40918   0.622692
 C 0.87684 0.98432 0.24456   0.613571
 C 0.3616 0.76831 0.79423   0.098126
 C 0.96992 0.96116 0.25566   -0.061226
 C 0.13156 0.90168 0.22238   0.407104
 C 0.24269 0.85201 0.17657   -0.100264
 C 0.32896 0.85346 0.80914   -0.202141
 C 0.25872 0.88705 0.89055   0.203297
 C 0.32816 0.71903 0.86365   -0.189241
 C 0.2583 0.75729 0.94191   0.179094
 C 0.98467 0.96778 0.32444   0.021729
 C 0.29649 0.87174 0.09428   -0.052413
 C 0.2941 0.78232 0.21714   -0.059825
 C 0.4518 0.7538 0.0926   0.12264
 C 0.39786 0.73384 0.17444   -0.155482
 C 0.4011 0.8229 0.0527   -0.172928
 C 0.5671 0.7003 0.0477   -0.349213
 C 0.91948 0.90918 0.99098   0.614558
 C 0.86116 0.74456 0.01568   0.618301
 C 0.12991 0.29423 0.23169   0.099098
 C 0.93108 0.75566 0.03884   -0.065985
 C 0.03324 0.72238 0.09832   0.407629
 C 0.0947 0.67657 0.14799   -0.101014
 C 0.18242 0.30914 0.14654   -0.204371
 C 0.14577 0.39055 0.11295   0.203275
 C 0.04719 0.36365 0.28097   -0.190441
 C 0.01559 0.44191 0.24271   0.181428
 C 0.95245 0.82444 0.03222   0.024215
 C 0.16823 0.59428 0.12826   -0.054399
 C 0.07642 0.71714 0.21768   -0.059568
 C 0.2056 0.5926 0.2462   0.123508
 C 0.1317 0.67444 0.26616   -0.157117
 C 0.224 0.5527 0.1771   -0.171522
 C 0.2674 0.5477 0.2997   -0.349426
 C 0.31964 0.59082 0.50902   0.623651
 C 0.1214 0.75544 0.48432   0.618067
 C 0.15583 0.20577 0.26831   0.098653
 C 0.22558 0.74434 0.46116   -0.06349
 C 0.35394 0.77762 0.40168   0.407119
 C 0.41926 0.82343 0.35201   -0.102401
 C 0.1381 0.19086 0.35346   -0.201967
 C 0.14927 0.10945 0.38705   0.202411
 C 0.19181 0.13635 0.21903   -0.190882
 C 0.20021 0.05809 0.25729   0.180983
 C 0.30911 0.67556 0.46778   0.020336
 C 0.39077 0.90572 0.37174   -0.047729
 C 0.51124 0.78286 0.28232   -0.059258
 C 0.5444 0.9074 0.2538   0.125146
 C 0.5723 0.82556 0.23384   -0.158379
 C 0.4538 0.9473 0.3229   -0.177739
 C 0.6148 0.9523 0.2003   -0.347409
 C 0.17134 0.50902 0.90918   0.620643
 C 0.39428 0.48432 0.74456   0.617849
 C 0.57586 0.26831 0.29423   0.100176
 C 0.31326 0.46116 0.75566   -0.062557
 C 0.24438 0.40168 0.72238   0.407954
 C 0.22873 0.35201 0.67657   -0.10066
 C 0.50844 0.35346 0.30914   -0.206835
 C 0.46368 0.38705 0.39055   0.202963
 C 0.58916 0.21903 0.36365   -0.189369
 C 0.5425 0.25729 0.44191   0.177364
 C 0.22311 0.46778 0.82444   0.020948
 C 0.23749 0.37174 0.59428   -0.050895
 C 0.20644 0.28232 0.71714   -0.059217
 C 0.2018 0.2538 0.5926   0.125792
 C 0.19386 0.23384 0.67444   -0.158667
 C 0.2233 0.3229 0.5527   -0.175648
 C 0.1849 0.2003 0.5477   -0.348827
 C 0.08954 0.99098 0.59082   0.622693
 C 0.12316 0.01568 0.75544   0.613571
 C 0.6384 0.23169 0.20577   0.098126
 C 0.03008 0.03884 0.74434   -0.061226
 C 0.86844 0.09832 0.77762   0.407104
 C 0.75731 0.14799 0.82343   -0.100264
 C 0.67104 0.14654 0.19086   -0.202141
 C 0.74128 0.11295 0.10945   0.203297
 C 0.67184 0.28097 0.13635   -0.18924
 C 0.7417 0.24271 0.05809   0.179094
 C 0.01533 0.03222 0.67556   0.021729
 C 0.70351 0.12826 0.90572   -0.052413
 C 0.7059 0.21768 0.78286   -0.059825
 C 0.5482 0.2462 0.9074   0.12264
 C 0.60214 0.26616 0.82556   -0.155482
 C 0.5989 0.1771 0.9473   -0.172928
 C 0.4329 0.2997 0.9523   -0.349213
 C 0.08052 0.09082 0.00902   0.614559
 C 0.13884 0.25544 0.98432   0.618301
 C 0.87009 0.70577 0.76831   0.099098
 C 0.06892 0.24434 0.96116   -0.065985
 C 0.96676 0.27762 0.90168   0.407629
 C 0.9053 0.32343 0.85201   -0.101014
 C 0.81758 0.69086 0.85346   -0.204371
 C 0.85423 0.60945 0.88705   0.203275
 C 0.95281 0.63635 0.71903   -0.19044
 C 0.98441 0.55809 0.75729   0.181428
 C 0.04755 0.17556 0.96778   0.024215
 C 0.83177 0.40572 0.87174   -0.054399
 C 0.92358 0.28286 0.78232   -0.059568
 C 0.7944 0.4074 0.7538   0.123507
 C 0.8683 0.32556 0.73384   -0.157117
 C 0.776 0.4473 0.8229   -0.171522
 C 0.7326 0.4523 0.7003   -0.349425
 C 0.68036 0.40918 0.49098   0.623651
 C 0.8786 0.24456 0.51568   0.618068
 C 0.84417 0.79423 0.73169   0.098653
 C 0.77442 0.25566 0.53884   -0.063489
 C 0.64606 0.22238 0.59832   0.407119
 C 0.58074 0.17657 0.64799   -0.102401
 C 0.8619 0.80914 0.64654   -0.201967
 C 0.85073 0.89055 0.61295   0.202411
 C 0.80819 0.86365 0.78097   -0.190881
 C 0.79979 0.94191 0.74271   0.180983
 C 0.69089 0.32444 0.53222   0.020336
 C 0.60923 0.09428 0.62826   -0.04773
 C 0.48876 0.21714 0.71768   -0.059258
 C 0.4556 0.0926 0.7462   0.125146
 C 0.4277 0.17444 0.76616   -0.158379
 C 0.5462 0.0527 0.6771   -0.177739
 C 0.3852 0.0477 0.7997   -0.347408
 N 0.51785 0.65851 0.54439   -0.371537
 N 0.67462 0.57993 0.30903   -0.431528
 N 0.82054 0.56969 0.19659   -0.4439
 N 0.22075 0.84149 0.95561   -0.372
 N 0.06358 0.92007 0.19097   -0.430374
 N 0.08682 0.93031 0.30341   -0.444664
 N 0.06224 0.45561 0.15851   -0.373423
 N 0.98365 0.69097 0.07993   -0.429081
 N 0.01713 0.80341 0.06969   -0.444459
 N 0.17636 0.04439 0.34149   -0.373096
 N 0.25455 0.80903 0.42007   -0.430248
 N 0.39023 0.69659 0.43031   -0.442938
 N 0.48215 0.34149 0.45561   -0.371537
 N 0.32538 0.42007 0.69097   -0.431528
 N 0.17946 0.43031 0.80341   -0.4439
 N 0.77925 0.15851 0.04439   -0.372
 N 0.93642 0.07993 0.80903   -0.430374
 N 0.91318 0.06969 0.69659   -0.444664
 N 0.93776 0.54439 0.84149   -0.373423
 N 0.01635 0.30903 0.92007   -0.429081
 N 0.98287 0.19659 0.93031   -0.444459
 N 0.82364 0.95561 0.65851   -0.373096
 N 0.74545 0.19097 0.57993   -0.430248
 N 0.60977 0.30341 0.56969   -0.442938
 O 0.52967 0.53013 0.32347   -0.516248
 O 0.7827 0.46446 0.06962   -0.585437
 O 0.91758 0.48519 0.04399   -0.581267
 O 0.6154 0.4827 0.19062   -0.49938
 O 0.88327 0.96987 0.17653   -0.514338
 O 0.81678 0.03554 0.43038   -0.58553
 O 0.94676 0.01481 0.45601   -0.584406
 O 0.78872 0.0173 0.30938   -0.497733
 O 0.85314 0.67653 0.03013   -0.515696
 O 0.85232 0.93038 0.96446   -0.582508
 O 0.96157 0.95601 0.98519   -0.579461
 O 0.80602 0.80938 0.9827   -0.499352
 O 0.0598 0.82347 0.46987   -0.515387
 O 0.24716 0.56962 0.53554   -0.585905
 O 0.40277 0.54399 0.51481   -0.584033
 O 0.0981 0.69062 0.5173   -0.498876
 O 0.47033 0.46987 0.67653   -0.516248
 O 0.2173 0.53554 0.93038   -0.585437
 O 0.08242 0.51481 0.95601   -0.581267
 O 0.3846 0.5173 0.80938   -0.49938
 O 0.11673 0.03013 0.82347   -0.514338
 O 0.18322 0.96446 0.56962   -0.58553
 O 0.05324 0.98519 0.54399   -0.584406
 O 0.21128 0.9827 0.69062   -0.497733
 O 0.14686 0.32347 0.96987   -0.515696
 O 0.14768 0.06962 0.03554   -0.582508
 O 0.03843 0.04399 0.01481   -0.579461
 O 0.19398 0.19062 0.0173   -0.499352
 O 0.9402 0.17653 0.53013   -0.515388
 O 0.75284 0.43038 0.46446   -0.585905
 O 0.59723 0.45601 0.48519   -0.584033
 O 0.9019 0.30938 0.4827   -0.498876
