{'_ref': 'TBD', '_srcid': 'CAKYAQ_clean', 'submitters': [{'name': 'Dalar Nazarian Jeff Camp and David Sholl', 'email': 'dalar@gatech.edu jcamp6@gatech.edu'}], '_method': 'VASP DFT with PBE;DDEC'}
data_CdH8C12(NO2)2
_symmetry_space_group_name_H-M   'P 1'
_cell_length_a   15.12299988
_cell_length_b   17.48140049
_cell_length_c   17.48140000
_cell_angle_alpha   79.21669871
_cell_angle_beta   64.37079793
_cell_angle_gamma   64.37079996
_symmetry_Int_Tables_number   1
_chemical_formula_structural   CdH8C12(NO2)2
_chemical_formula_sum   'Cd8 H64 C96 N16 O32'
_cell_volume   3756.90259898
_cell_formula_units_Z   8
loop_
 _symmetry_equiv_pos_site_id
 _symmetry_equiv_pos_as_xyz
  1  'x, y, z'
loop_
 _atom_site_label
 _atom_site_fract_x
 _atom_site_fract_y
 _atom_site_fract_z
 _atom_site_charge
 Cd 0.12791 0.41184 0.93368   1.058281
 Cd 0.97343 0.08816 0.56632   1.058442
 Cd 0.06159 0.06632 0.91184   1.058452
 Cd 0.53975 0.43368 0.58816   1.058482
 Cd 0.87209 0.58816 0.06632   1.058281
 Cd 0.02657 0.91184 0.43368   1.058442
 Cd 0.93841 0.93368 0.08816   1.058452
 Cd 0.46025 0.56632 0.41184   1.058482
 H 0.7878 0.4073 0.0181   0.436539
 H 0.2818 0.079 0.9266   0.084745
 H 0.4611 0.0116 0.84   0.123116
 H 0.4342 0.2062 0.6758   0.119801
 H 0.255 0.2736 0.7622   0.087745
 H 0.6104 0.0182 0.7192   0.133908
 H 0.5845 0.0652 0.641   0.122572
 H 0.6022 0.1117 0.6983   0.132798
 H 0.7132 0.0927 0.4819   0.434791
 H 0.7874 0.421 0.5734   0.082598
 H 0.8127 0.4884 0.66   0.123065
 H 0.8162 0.2938 0.8242   0.119844
 H 0.7908 0.2264 0.7378   0.088089
 H 0.8478 0.4818 0.7808   0.135776
 H 0.7907 0.4348 0.859   0.122774
 H 0.9122 0.3883 0.8017   0.133833
 H 0.8059 0.9819 0.9073   0.433598
 H 0.2084 0.0734 0.579   0.083818
 H 0.3011 0.16 0.5116   0.12244
 H 0.11 0.3242 0.7062   0.119384
 H 0.0172 0.2378 0.7736   0.087606
 H 0.3296 0.2808 0.5182   0.134036
 H 0.2255 0.359 0.5652   0.122221
 H 0.3005 0.3017 0.6117   0.133686
 H 0.1951 0.5181 0.5927   0.43276
 H 0.3608 0.4266 0.921   0.083124
 H 0.4727 0.34 0.9884   0.123108
 H 0.6404 0.1758 0.7938   0.120431
 H 0.5286 0.2622 0.7264   0.086412
 H 0.6286 0.2192 0.9818   0.134459
 H 0.6497 0.141 0.9348   0.122962
 H 0.7139 0.1983 0.8883   0.132975
 H 0.2122 0.5927 0.9819   0.436539
 H 0.7182 0.921 0.0734   0.084745
 H 0.5389 0.9884 0.16   0.123114
 H 0.5658 0.7938 0.3242   0.119801
 H 0.745 0.7264 0.2378   0.087745
 H 0.3896 0.9818 0.2808   0.133907
 H 0.4155 0.9348 0.359   0.122572
 H 0.3978 0.8883 0.3017   0.132798
 H 0.2868 0.9073 0.5181   0.434792
 H 0.2126 0.579 0.4266   0.082598
 H 0.1873 0.5116 0.34   0.123063
 H 0.1838 0.7062 0.1758   0.119844
 H 0.2092 0.7736 0.2622   0.088089
 H 0.1522 0.5182 0.2192   0.135775
 H 0.2093 0.5652 0.141   0.122774
 H 0.0878 0.6117 0.1983   0.133833
 H 0.1941 0.0181 0.0927   0.433598
 H 0.7916 0.9266 0.421   0.083818
 H 0.6989 0.84 0.4884   0.122438
 H 0.89 0.6758 0.2938   0.119384
 H 0.9828 0.7622 0.2264   0.087606
 H 0.6704 0.7192 0.4818   0.134035
 H 0.7745 0.641 0.4348   0.122221
 H 0.6995 0.6983 0.3883   0.133686
 H 0.8049 0.4819 0.4073   0.432761
 H 0.6392 0.5734 0.079   0.083125
 H 0.5273 0.66 0.0116   0.123106
 H 0.3596 0.8242 0.2062   0.120431
 H 0.4714 0.7378 0.2736   0.086412
 H 0.3714 0.7808 0.0182   0.134459
 H 0.3503 0.859 0.0652   0.122962
 H 0.2861 0.8017 0.1117   0.132975
 C 0.9025 0.4051 0.0157   0.687641
 C 0.9744 0.3225 0.9783   -0.06549
 C 0.9605 0.251 0.973   0.07015
 C 0.8603 0.2359 0.9997   0.615824
 C 0.1287 0.2227 0.9111   0.415993
 C 0.2506 0.183 0.853   -0.120949
 C 0.3124 0.1045 0.8763   -0.073108
 C 0.4198 0.0641 0.8245   -0.172017
 C 0.4654 0.1022 0.7494   0.174077
 C 0.4037 0.1807 0.7261   -0.164286
 C 0.2963 0.2211 0.7779   -0.056288
 C 0.574 0.072 0.698   -0.387276
 C 0.8233 0.0949 0.4843   0.690561
 C 0.7752 0.1775 0.5217   -0.064533
 C 0.6845 0.249 0.527   0.069867
 C 0.5959 0.2641 0.5003   0.615554
 C 0.7625 0.2773 0.5889   0.414916
 C 0.7866 0.317 0.647   -0.120592
 C 0.7932 0.3955 0.6237   -0.069918
 C 0.8084 0.4359 0.6755   -0.172032
 C 0.817 0.3978 0.7506   0.174173
 C 0.8105 0.3193 0.7739   -0.165415
 C 0.7953 0.2789 0.7221   -0.056157
 C 0.844 0.428 0.802   -0.390635
 C 0.9182 0.9843 0.9051   0.688883
 C 0.9527 0.0217 0.8225   -0.06658
 C 0.9335 0.027 0.751   0.07047
 C 0.86 0.000300000000003 0.7359   0.615069
 C 0.0398 0.0889 0.7227   0.416948
 C 0.1036 0.147 0.683   -0.121002
 C 0.1887 0.1237 0.6045   -0.074092
 C 0.2443 0.1755 0.5641   -0.169743
 C 0.2148 0.2506 0.6022   0.17423
 C 0.1298 0.2739 0.6807   -0.16225
 C 0.0742 0.2221 0.7211   -0.057109
 C 0.272 0.302 0.572   -0.388407
 C 0.3076 0.5157 0.5949   0.693173
 C 0.2969 0.4783 0.6775   -0.06613
 C 0.2115 0.473 0.749   0.07017
 C 0.0962 0.4997 0.7641   0.61395
 C 0.3514 0.4111 0.7773   0.415679
 C 0.4336 0.353 0.817   -0.122168
 C 0.4169 0.3763 0.8955   -0.071343
 C 0.4839 0.3245 0.9359   -0.17247
 C 0.5676 0.2494 0.8978   0.174427
 C 0.5844 0.2261 0.8193   -0.165982
 C 0.5174 0.2779 0.7789   -0.053316
 C 0.646 0.198 0.928   -0.388087
 C 0.0975 0.5949 0.9843   0.687641
 C 0.0256 0.6775 0.0217   -0.06549
 C 0.0395 0.749 0.027   0.07015
 C 0.1397 0.7641 0.000300000000003   0.615824
 C 0.8713 0.7773 0.0889   0.415993
 C 0.7494 0.817 0.147   -0.120949
 C 0.6876 0.8955 0.1237   -0.073108
 C 0.5802 0.9359 0.1755   -0.172016
 C 0.5346 0.8978 0.2506   0.174076
 C 0.5963 0.8193 0.2739   -0.164286
 C 0.7037 0.7789 0.2221   -0.056288
 C 0.426 0.928 0.302   -0.387276
 C 0.1767 0.9051 0.5157   0.690561
 C 0.2248 0.8225 0.4783   -0.064533
 C 0.3155 0.751 0.473   0.069867
 C 0.4041 0.7359 0.4997   0.615554
 C 0.2375 0.7227 0.4111   0.414916
 C 0.2134 0.683 0.353   -0.120592
 C 0.2068 0.6045 0.3763   -0.069919
 C 0.1916 0.5641 0.3245   -0.172031
 C 0.183 0.6022 0.2494   0.174173
 C 0.1895 0.6807 0.2261   -0.165415
 C 0.2047 0.7211 0.2779   -0.056157
 C 0.156 0.572 0.198   -0.390635
 C 0.0818 0.0157 0.0949   0.688883
 C 0.0473 0.9783 0.1775   -0.06658
 C 0.0665 0.973 0.249   0.07047
 C 0.14 0.9997 0.2641   0.615069
 C 0.9602 0.9111 0.2773   0.416948
 C 0.8964 0.853 0.317   -0.121001
 C 0.8113 0.8763 0.3955   -0.074092
 C 0.7557 0.8245 0.4359   -0.169742
 C 0.7852 0.7494 0.3978   0.17423
 C 0.8702 0.7261 0.3193   -0.16225
 C 0.9258 0.7779 0.2789   -0.057109
 C 0.728 0.698 0.428   -0.388407
 C 0.6924 0.4843 0.4051   0.693173
 C 0.7031 0.5217 0.3225   -0.06613
 C 0.7885 0.527 0.251   0.07017
 C 0.9038 0.5003 0.2359   0.61395
 C 0.6486 0.5889 0.2227   0.415679
 C 0.5664 0.647 0.183   -0.122168
 C 0.5831 0.6237 0.1045   -0.071343
 C 0.5161 0.6755 0.0641   -0.172469
 C 0.4324 0.7506 0.1022   0.174427
 C 0.4156 0.7739 0.1807   -0.165982
 C 0.4826 0.7221 0.2211   -0.053316
 C 0.354 0.802 0.072   -0.388086
 N 0.0817 0.3052 0.937   -0.463516
 N 0.0574 0.189 0.928   -0.467927
 N 0.8239 0.1948 0.563   -0.464065
 N 0.6744 0.311 0.572   -0.467679
 N 0.0187 0.063 0.8052   -0.46318
 N 0.9854 0.072 0.689   -0.467988
 N 0.3869 0.437 0.6948   -0.463457
 N 0.2464 0.428 0.811   -0.467763
 N 0.9183 0.6948 0.063   -0.463516
 N 0.9426 0.811 0.072   -0.467927
 N 0.1761 0.8052 0.437   -0.464065
 N 0.3256 0.689 0.428   -0.467679
 N 0.9813 0.937 0.1948   -0.46318
 N 0.0146 0.928 0.311   -0.467988
 N 0.6131 0.563 0.3052   -0.463457
 N 0.7536 0.572 0.189   -0.467763
 O 0.9407 0.453 0.0188   -0.556783
 O 0.8052 0.4218 0.0496   -0.477595
 O 0.7725 0.2974 0.0384   -0.647147
 O 0.8704 0.1666 0.9856   -0.611262
 O 0.9125 0.047 0.4812   -0.559311
 O 0.7766 0.0782 0.4504   -0.476225
 O 0.6083 0.2026 0.4616   -0.646471
 O 0.5226 0.3334 0.5144   -0.61116
 O 0.9595 0.9812 0.953   -0.557909
 O 0.8548 0.9504 0.9218   -0.474532
 O 0.8109 0.9616 0.7974   -0.64758
 O 0.856 0.0144 0.6666   -0.610206
 O 0.3937 0.5188 0.547   -0.560193
 O 0.227 0.5496 0.5782   -0.475214
 O 0.0699 0.5384 0.7026   -0.645928
 O 0.037 0.4856 0.8334   -0.609957
 O 0.0593 0.547 0.9812   -0.556783
 O 0.1948 0.5782 0.9504   -0.477595
 O 0.2275 0.7026 0.9616   -0.647147
 O 0.1296 0.8334 0.0144   -0.611262
 O 0.0875 0.953 0.5188   -0.559311
 O 0.2234 0.9218 0.5496   -0.476225
 O 0.3917 0.7974 0.5384   -0.646471
 O 0.4774 0.6666 0.4856   -0.61116
 O 0.0405 0.0188 0.047   -0.557909
 O 0.1452 0.0496 0.0782   -0.474532
 O 0.1891 0.0384 0.2026   -0.64758
 O 0.144 0.9856 0.3334   -0.610206
 O 0.6063 0.4812 0.453   -0.560193
 O 0.773 0.4504 0.4218   -0.475214
 O 0.9301 0.4616 0.2974   -0.645928
 O 0.963 0.5144 0.1666   -0.609957
