{'_ref': 'TBD', '_srcid': 'CAKYAQ_clean', 'submitters': [{'name': 'Dalar Nazarian Jeff Camp and David Sholl', 'email': 'dalar@gatech.edu jcamp6@gatech.edu'}], '_method': 'VASP DFT with PBE;DDEC'}
data_ZnH10(C2N)4
_symmetry_space_group_name_H-M   'P 1'
_cell_length_a   17.05440000
_cell_length_b   17.05440000
_cell_length_c   17.05440000
_cell_angle_alpha   90.00000000
_cell_angle_beta   90.00000000
_cell_angle_gamma   90.00000000
_symmetry_Int_Tables_number   1
_chemical_formula_structural   ZnH10(C2N)4
_chemical_formula_sum   'Zn12 H120 C96 N48'
_cell_volume   4960.31588835
_cell_formula_units_Z   12
loop_
 _symmetry_equiv_pos_site_id
 _symmetry_equiv_pos_as_xyz
  1  'x, y, z'
loop_
 _atom_site_label
 _atom_site_fract_x
 _atom_site_fract_y
 _atom_site_fract_z
 _atom_site_charge
 Zn 0.0 0.5 0.75   0.786367
 Zn 0.0 0.5 0.25   0.786367
 Zn 0.5 0.0 0.25   0.786367
 Zn 0.5 0.0 0.75   0.786367
 Zn 0.5 0.75 0.0   0.786373
 Zn 0.5 0.25 0.0   0.786373
 Zn 0.75 0.5 0.0   0.78637
 Zn 0.25 0.5 0.0   0.78637
 Zn 0.75 0.0 0.5   0.78637
 Zn 0.25 0.0 0.5   0.78637
 Zn 0.0 0.75 0.5   0.786373
 Zn 0.0 0.25 0.5   0.786373
 H 0.1254 0.3624 0.7749   0.09605
 H 0.1254 0.6376 0.2251   0.09605
 H 0.8746 0.6376 0.7749   0.09605
 H 0.8746 0.3624 0.2251   0.09605
 H 0.3624 0.8746 0.2251   0.09605
 H 0.6376 0.8746 0.7749   0.09605
 H 0.6376 0.1254 0.2251   0.09605
 H 0.3624 0.1254 0.7749   0.09605
 H 0.3624 0.7749 0.1254   0.096042
 H 0.6376 0.2251 0.1254   0.096042
 H 0.3624 0.2251 0.8746   0.096042
 H 0.6376 0.7749 0.8746   0.096042
 H 0.7749 0.6376 0.8746   0.096044
 H 0.7749 0.3624 0.1254   0.096044
 H 0.2251 0.3624 0.8746   0.096044
 H 0.2251 0.6376 0.1254   0.096044
 H 0.7749 0.1254 0.3624   0.096052
 H 0.2251 0.1254 0.6376   0.096052
 H 0.2251 0.8746 0.3624   0.096052
 H 0.7749 0.8746 0.6376   0.096052
 H 0.1254 0.7749 0.3624   0.096044
 H 0.1254 0.2251 0.6376   0.096044
 H 0.8746 0.7749 0.6376   0.096044
 H 0.8746 0.2251 0.3624   0.096044
 H 0.6254 0.8624 0.2749   0.09605
 H 0.6254 0.1376 0.7251   0.09605
 H 0.3746 0.1376 0.2749   0.09605
 H 0.3746 0.8624 0.7251   0.09605
 H 0.8624 0.3746 0.7251   0.09605
 H 0.1376 0.3746 0.2749   0.09605
 H 0.1376 0.6254 0.7251   0.09605
 H 0.8624 0.6254 0.2749   0.09605
 H 0.8624 0.2749 0.6254   0.096042
 H 0.1376 0.7251 0.6254   0.096042
 H 0.8624 0.7251 0.3746   0.096042
 H 0.1376 0.2749 0.3746   0.096042
 H 0.2749 0.1376 0.3746   0.096044
 H 0.2749 0.8624 0.6254   0.096044
 H 0.7251 0.8624 0.3746   0.096044
 H 0.7251 0.1376 0.6254   0.096044
 H 0.2749 0.6254 0.8624   0.096052
 H 0.7251 0.6254 0.1376   0.096052
 H 0.7251 0.3746 0.8624   0.096052
 H 0.2749 0.3746 0.1376   0.096052
 H 0.6254 0.2749 0.8624   0.096044
 H 0.6254 0.7251 0.1376   0.096044
 H 0.3746 0.2749 0.1376   0.096044
 H 0.3746 0.7251 0.8624   0.096044
 H 0.0374 0.589 0.8987   0.138302
 H 0.0374 0.411 0.1013   0.138302
 H 0.9626 0.411 0.8987   0.138302
 H 0.9626 0.589 0.1013   0.138302
 H 0.589 0.9626 0.1013   0.138302
 H 0.411 0.9626 0.8987   0.138302
 H 0.411 0.0374 0.1013   0.138302
 H 0.589 0.0374 0.8987   0.138302
 H 0.589 0.8987 0.0374   0.138302
 H 0.411 0.1013 0.0374   0.138302
 H 0.589 0.1013 0.9626   0.138302
 H 0.411 0.8987 0.9626   0.138302
 H 0.8987 0.411 0.9626   0.138301
 H 0.8987 0.589 0.0374   0.138301
 H 0.1013 0.589 0.9626   0.138301
 H 0.1013 0.411 0.0374   0.138301
 H 0.8987 0.0374 0.589   0.138303
 H 0.1013 0.0374 0.411   0.138303
 H 0.1013 0.9626 0.589   0.138302
 H 0.8987 0.9626 0.411   0.138302
 H 0.0374 0.8987 0.589   0.138302
 H 0.0374 0.1013 0.411   0.138302
 H 0.9626 0.8987 0.411   0.138302
 H 0.9626 0.1013 0.589   0.138302
 H 0.5374 0.089 0.3987   0.138302
 H 0.5374 0.911 0.6013   0.138302
 H 0.4626 0.911 0.3987   0.138302
 H 0.4626 0.089 0.6013   0.138302
 H 0.089 0.4626 0.6013   0.138302
 H 0.911 0.4626 0.3987   0.138302
 H 0.911 0.5374 0.6013   0.138302
 H 0.089 0.5374 0.3987   0.138302
 H 0.089 0.3987 0.5374   0.138302
 H 0.911 0.6013 0.5374   0.138302
 H 0.089 0.6013 0.4626   0.138302
 H 0.911 0.3987 0.4626   0.138302
 H 0.3987 0.911 0.4626   0.138301
 H 0.3987 0.089 0.5374   0.138301
 H 0.6013 0.089 0.4626   0.138301
 H 0.6013 0.911 0.5374   0.138301
 H 0.3987 0.5374 0.089   0.138303
 H 0.6013 0.5374 0.911   0.138303
 H 0.6013 0.4626 0.089   0.138302
 H 0.3987 0.4626 0.911   0.138302
 H 0.5374 0.3987 0.089   0.138302
 H 0.5374 0.6013 0.911   0.138302
 H 0.4626 0.3987 0.911   0.138302
 H 0.4626 0.6013 0.089   0.138302
 H 0.1192 0.6275 0.8808   0.132398
 H 0.1192 0.3725 0.1192   0.132398
 H 0.8808 0.3725 0.8808   0.132398
 H 0.8808 0.6275 0.1192   0.132398
 H 0.6275 0.8808 0.1192   0.132399
 H 0.3725 0.8808 0.8808   0.132399
 H 0.3725 0.1192 0.1192   0.132399
 H 0.6275 0.1192 0.8808   0.132399
 H 0.8808 0.1192 0.6275   0.1324
 H 0.1192 0.1192 0.3725   0.1324
 H 0.1192 0.8808 0.6275   0.132399
 H 0.8808 0.8808 0.3725   0.132399
 H 0.6192 0.1275 0.3808   0.132398
 H 0.6192 0.8725 0.6192   0.132398
 H 0.3808 0.8725 0.3808   0.132398
 H 0.3808 0.1275 0.6192   0.132398
 H 0.1275 0.3808 0.6192   0.132399
 H 0.8725 0.3808 0.3808   0.132399
 H 0.8725 0.6192 0.6192   0.132399
 H 0.1275 0.6192 0.3808   0.132399
 H 0.3808 0.6192 0.1275   0.1324
 H 0.6192 0.6192 0.8725   0.1324
 H 0.6192 0.3808 0.1275   0.132399
 H 0.3808 0.3808 0.8725   0.132399
 C 0.1337 0.402 0.8114   -0.034981
 C 0.1337 0.598 0.1886   -0.034981
 C 0.8663 0.598 0.8114   -0.034981
 C 0.8663 0.402 0.1886   -0.034981
 C 0.402 0.8663 0.1886   -0.034981
 C 0.598 0.8663 0.8114   -0.034981
 C 0.598 0.1337 0.1886   -0.034981
 C 0.402 0.1337 0.8114   -0.034981
 C 0.402 0.8114 0.1337   -0.034902
 C 0.598 0.1886 0.1337   -0.034902
 C 0.402 0.1886 0.8663   -0.034902
 C 0.598 0.8114 0.8663   -0.034902
 C 0.8114 0.598 0.8663   -0.034903
 C 0.8114 0.402 0.1337   -0.034903
 C 0.1886 0.402 0.8663   -0.034903
 C 0.1886 0.598 0.1337   -0.034903
 C 0.8114 0.1337 0.402   -0.034981
 C 0.1886 0.1337 0.598   -0.034981
 C 0.1886 0.8663 0.402   -0.034981
 C 0.8114 0.8663 0.598   -0.034981
 C 0.1337 0.8114 0.402   -0.034902
 C 0.1337 0.1886 0.598   -0.034902
 C 0.8663 0.8114 0.598   -0.034902
 C 0.8663 0.1886 0.402   -0.034902
 C 0.6337 0.902 0.3114   -0.034981
 C 0.6337 0.098 0.6886   -0.034981
 C 0.3663 0.098 0.3114   -0.034981
 C 0.3663 0.902 0.6886   -0.034981
 C 0.902 0.3663 0.6886   -0.034981
 C 0.098 0.3663 0.3114   -0.034981
 C 0.098 0.6337 0.6886   -0.034981
 C 0.902 0.6337 0.3114   -0.034981
 C 0.902 0.3114 0.6337   -0.034902
 C 0.098 0.6886 0.6337   -0.034902
 C 0.902 0.6886 0.3663   -0.034902
 C 0.098 0.3114 0.3663   -0.034902
 C 0.3114 0.098 0.3663   -0.034903
 C 0.3114 0.902 0.6337   -0.034903
 C 0.6886 0.902 0.3663   -0.034903
 C 0.6886 0.098 0.6337   -0.034903
 C 0.3114 0.6337 0.902   -0.034981
 C 0.6886 0.6337 0.098   -0.034981
 C 0.6886 0.3663 0.902   -0.034981
 C 0.3114 0.3663 0.098   -0.034981
 C 0.6337 0.3114 0.902   -0.034902
 C 0.6337 0.6886 0.098   -0.034902
 C 0.3663 0.3114 0.098   -0.034902
 C 0.3663 0.6886 0.902   -0.034902
 C 0.12253 0.5072 0.87747   0.445974
 C 0.12253 0.4928 0.12253   0.445974
 C 0.87747 0.4928 0.87747   0.445974
 C 0.87747 0.5072 0.12253   0.445974
 C 0.5072 0.87747 0.12253   0.445974
 C 0.4928 0.87747 0.87747   0.445974
 C 0.4928 0.12253 0.12253   0.445974
 C 0.5072 0.12253 0.87747   0.445974
 C 0.87747 0.12253 0.5072   0.445974
 C 0.12253 0.12253 0.4928   0.445974
 C 0.12253 0.87747 0.5072   0.445974
 C 0.87747 0.87747 0.4928   0.445974
 C 0.62253 0.0072 0.37747   0.445974
 C 0.62253 0.9928 0.62253   0.445974
 C 0.37747 0.9928 0.37747   0.445974
 C 0.37747 0.0072 0.62253   0.445974
 C 0.0072 0.37747 0.62253   0.445974
 C 0.9928 0.37747 0.37747   0.445974
 C 0.9928 0.62253 0.62253   0.445974
 C 0.0072 0.62253 0.37747   0.445974
 C 0.37747 0.62253 0.0072   0.445974
 C 0.62253 0.62253 0.9928   0.445974
 C 0.62253 0.37747 0.0072   0.445974
 C 0.37747 0.37747 0.9928   0.445974
 C 0.0928 0.5854 0.9072   -0.439683
 C 0.0928 0.4146 0.0928   -0.439683
 C 0.9072 0.4146 0.9072   -0.439683
 C 0.9072 0.5854 0.0928   -0.439683
 C 0.5854 0.9072 0.0928   -0.439684
 C 0.4146 0.9072 0.9072   -0.439684
 C 0.4146 0.0928 0.0928   -0.439684
 C 0.5854 0.0928 0.9072   -0.439684
 C 0.9072 0.0928 0.5854   -0.439685
 C 0.0928 0.0928 0.4146   -0.439685
 C 0.0928 0.9072 0.5854   -0.439684
 C 0.9072 0.9072 0.4146   -0.439684
 C 0.5928 0.0854 0.4072   -0.439683
 C 0.5928 0.9146 0.5928   -0.439683
 C 0.4072 0.9146 0.4072   -0.439683
 C 0.4072 0.0854 0.5928   -0.439683
 C 0.0854 0.4072 0.5928   -0.439684
 C 0.9146 0.4072 0.4072   -0.439684
 C 0.9146 0.5928 0.5928   -0.439684
 C 0.0854 0.5928 0.4072   -0.439684
 C 0.4072 0.5928 0.0854   -0.439685
 C 0.5928 0.5928 0.9146   -0.439685
 C 0.5928 0.4072 0.0854   -0.439684
 C 0.4072 0.4072 0.9146   -0.439684
 N 0.0904 0.47085 0.81715   -0.465338
 N 0.0904 0.52915 0.18285   -0.465338
 N 0.9096 0.52915 0.81715   -0.465338
 N 0.9096 0.47085 0.18285   -0.465338
 N 0.47085 0.9096 0.18285   -0.465337
 N 0.52915 0.9096 0.81715   -0.465337
 N 0.52915 0.0904 0.18285   -0.465337
 N 0.47085 0.0904 0.81715   -0.465337
 N 0.47085 0.81715 0.0904   -0.465351
 N 0.52915 0.18285 0.0904   -0.465351
 N 0.47085 0.18285 0.9096   -0.465351
 N 0.52915 0.81715 0.9096   -0.465351
 N 0.81715 0.52915 0.9096   -0.46535
 N 0.81715 0.47085 0.0904   -0.46535
 N 0.18285 0.47085 0.9096   -0.46535
 N 0.18285 0.52915 0.0904   -0.46535
 N 0.81715 0.0904 0.47085   -0.465339
 N 0.18285 0.0904 0.52915   -0.465339
 N 0.18285 0.9096 0.47085   -0.465339
 N 0.81715 0.9096 0.52915   -0.465339
 N 0.0904 0.81715 0.47085   -0.465351
 N 0.0904 0.18285 0.52915   -0.465351
 N 0.9096 0.81715 0.52915   -0.465351
 N 0.9096 0.18285 0.47085   -0.465351
 N 0.5904 0.97085 0.31715   -0.465338
 N 0.5904 0.02915 0.68285   -0.465338
 N 0.4096 0.02915 0.31715   -0.465338
 N 0.4096 0.97085 0.68285   -0.465338
 N 0.97085 0.4096 0.68285   -0.465337
 N 0.02915 0.4096 0.31715   -0.465337
 N 0.02915 0.5904 0.68285   -0.465337
 N 0.97085 0.5904 0.31715   -0.465337
 N 0.97085 0.31715 0.5904   -0.465351
 N 0.02915 0.68285 0.5904   -0.465351
 N 0.97085 0.68285 0.4096   -0.465351
 N 0.02915 0.31715 0.4096   -0.465351
 N 0.31715 0.02915 0.4096   -0.46535
 N 0.31715 0.97085 0.5904   -0.46535
 N 0.68285 0.97085 0.4096   -0.46535
 N 0.68285 0.02915 0.5904   -0.46535
 N 0.31715 0.5904 0.97085   -0.465339
 N 0.68285 0.5904 0.02915   -0.465339
 N 0.68285 0.4096 0.97085   -0.465339
 N 0.31715 0.4096 0.02915   -0.465339
 N 0.5904 0.31715 0.97085   -0.465351
 N 0.5904 0.68285 0.02915   -0.465351
 N 0.4096 0.31715 0.02915   -0.465351
 N 0.4096 0.68285 0.97085   -0.465351
