{'_ref': 'TBD', '_srcid': 'CAKYAQ_clean', 'submitters': [{'name': 'Dalar Nazarian Jeff Camp and David Sholl', 'email': 'dalar@gatech.edu jcamp6@gatech.edu'}], '_method': 'VASP DFT with PBE;DDEC'}
data_Sm2Cu3H30C24(NO4)6
_symmetry_space_group_name_H-M   'P 1'
_cell_length_a   13.45400000
_cell_length_b   13.45400019
_cell_length_c   14.85600000
_cell_angle_alpha   90.00000000
_cell_angle_beta   90.00000000
_cell_angle_gamma   119.99999954
_symmetry_Int_Tables_number   1
_chemical_formula_structural   Sm2Cu3H30C24(NO4)6
_chemical_formula_sum   'Sm4 Cu6 H60 C48 N12 O48'
_cell_volume   2328.81707777
_cell_formula_units_Z   2
loop_
 _symmetry_equiv_pos_site_id
 _symmetry_equiv_pos_as_xyz
  1  'x, y, z'
loop_
 _atom_site_label
 _atom_site_fract_x
 _atom_site_fract_y
 _atom_site_fract_z
 _atom_site_charge
 Sm 0.66667 0.33334 0.66925   2.294928
 Sm 0.33333 0.66666 0.83075   2.294929
 Sm 0.33333 0.66666 0.33075   2.294929
 Sm 0.66667 0.33334 0.16925   2.29493
 Cu 0.5 0.5 0.0   0.824545
 Cu 0.0 0.5 0.0   0.824523
 Cu 0.5 0.0 0.0   0.824565
 Cu 0.0 0.5 0.5   0.824545
 Cu 0.5 0.5 0.5   0.824523
 Cu 0.5 0.0 0.5   0.824564
 H 0.326 0.3517 0.9235   0.258831
 H 0.4571 0.2687 0.872   0.137141
 H 0.3966 0.3171 0.8103   0.136523
 H 0.2932 0.2543 0.048   0.127959
 H 0.3193 0.1819 0.979   0.108792
 H 0.0257 0.674 0.9235   0.25883
 H 0.8116 0.5429 0.872   0.137138
 H 0.9205 0.6034 0.8103   0.136522
 H 0.9611 0.7068 0.048   0.127962
 H 0.8626 0.6807 0.979   0.108791
 H 0.6483 0.9743 0.9235   0.25883
 H 0.7313 0.1884 0.872   0.137136
 H 0.6829 0.0795 0.8103   0.136522
 H 0.7457 0.0389 0.048   0.127958
 H 0.8181 0.1374 0.979   0.108786
 H 0.9743 0.6483 0.5765   0.258831
 H 0.1884 0.7313 0.628   0.137142
 H 0.0795 0.6829 0.6897   0.136527
 H 0.0389 0.7457 0.452   0.127959
 H 0.1374 0.8181 0.521   0.108792
 H 0.3517 0.326 0.5765   0.25883
 H 0.2687 0.4571 0.628   0.137138
 H 0.3171 0.3966 0.6897   0.136525
 H 0.2543 0.2932 0.452   0.127962
 H 0.1819 0.3193 0.521   0.108791
 H 0.674 0.0257 0.5765   0.25883
 H 0.5429 0.8116 0.628   0.137137
 H 0.6034 0.9205 0.6897   0.136525
 H 0.7068 0.9611 0.452   0.127959
 H 0.6807 0.8626 0.521   0.108786
 H 0.674 0.6483 0.0765   0.258832
 H 0.5429 0.7313 0.128   0.137142
 H 0.6034 0.6829 0.1897   0.136524
 H 0.7068 0.7457 0.952   0.127964
 H 0.6807 0.8181 0.021   0.108796
 H 0.9743 0.326 0.0765   0.258831
 H 0.1884 0.4571 0.128   0.137138
 H 0.0795 0.3966 0.1897   0.136523
 H 0.0389 0.2932 0.952   0.127967
 H 0.1374 0.3193 0.021   0.108795
 H 0.3517 0.0257 0.0765   0.258831
 H 0.2687 0.8116 0.128   0.137137
 H 0.3171 0.9205 0.1897   0.136522
 H 0.2543 0.9611 0.952   0.127964
 H 0.1819 0.8626 0.021   0.108791
 H 0.0257 0.3517 0.4235   0.258832
 H 0.8116 0.2687 0.372   0.137142
 H 0.9205 0.3171 0.3103   0.136527
 H 0.9611 0.2543 0.548   0.127964
 H 0.8626 0.1819 0.479   0.108796
 H 0.6483 0.674 0.4235   0.258831
 H 0.7313 0.5429 0.372   0.137138
 H 0.6829 0.6034 0.3103   0.136526
 H 0.7457 0.7068 0.548   0.127968
 H 0.8181 0.6807 0.479   0.108795
 H 0.326 0.9743 0.4235   0.258831
 H 0.4571 0.1884 0.372   0.137137
 H 0.3966 0.0795 0.3103   0.136525
 H 0.2932 0.0389 0.548   0.127964
 H 0.3193 0.1374 0.479   0.108791
 C 0.5605 0.4385 0.8428   0.756151
 C 0.4461 0.3339 0.8623   -0.222202
 C 0.352 0.2553 0.0097   -0.181672
 C 0.452 0.2718 0.0668   0.703541
 C 0.878 0.4395 0.8428   0.756142
 C 0.8878 0.5539 0.8623   -0.222203
 C 0.9033 0.648 0.0097   -0.181668
 C 0.8198 0.548 0.0668   0.703536
 C 0.5615 0.122 0.8428   0.756138
 C 0.6661 0.1122 0.8623   -0.222197
 C 0.7447 0.0967 0.0097   -0.181669
 C 0.7282 0.1802 0.0668   0.703535
 C 0.122 0.5615 0.6572   0.756152
 C 0.1122 0.6661 0.6377   -0.222204
 C 0.0967 0.7447 0.4903   -0.181672
 C 0.1802 0.7282 0.4332   0.703541
 C 0.4385 0.5605 0.6572   0.756143
 C 0.3339 0.4461 0.6377   -0.222204
 C 0.2553 0.352 0.4903   -0.181668
 C 0.2718 0.452 0.4332   0.703536
 C 0.4395 0.878 0.6572   0.75614
 C 0.5539 0.8878 0.6377   -0.222199
 C 0.648 0.9033 0.4903   -0.18167
 C 0.548 0.8198 0.4332   0.703535
 C 0.4395 0.5615 0.1572   0.756151
 C 0.5539 0.6661 0.1377   -0.222203
 C 0.648 0.7447 0.9903   -0.181676
 C 0.548 0.7282 0.9332   0.703542
 C 0.122 0.5605 0.1572   0.756142
 C 0.1122 0.4461 0.1377   -0.222203
 C 0.0967 0.352 0.9903   -0.181672
 C 0.1802 0.452 0.9332   0.703537
 C 0.4385 0.878 0.1572   0.756138
 C 0.3339 0.8878 0.1377   -0.222198
 C 0.2553 0.9033 0.9903   -0.181673
 C 0.2718 0.8198 0.9332   0.703535
 C 0.878 0.4385 0.3428   0.756152
 C 0.8878 0.3339 0.3623   -0.222204
 C 0.9033 0.2553 0.5097   -0.181676
 C 0.8198 0.2718 0.5668   0.703542
 C 0.5615 0.4395 0.3428   0.756143
 C 0.6661 0.5539 0.3623   -0.222205
 C 0.7447 0.648 0.5097   -0.181672
 C 0.7282 0.548 0.5668   0.703537
 C 0.5605 0.122 0.3428   0.75614
 C 0.4461 0.1122 0.3623   -0.222199
 C 0.352 0.0967 0.5097   -0.181673
 C 0.452 0.1802 0.5668   0.703535
 N 0.3888 0.3486 0.94212   -0.284239
 N 0.9598 0.6112 0.94212   -0.284231
 N 0.6514 0.0402 0.94212   -0.284246
 N 0.0402 0.6514 0.55788   -0.284239
 N 0.3486 0.3888 0.55788   -0.284231
 N 0.6112 0.9598 0.55788   -0.284246
 N 0.6112 0.6514 0.05788   -0.284239
 N 0.0402 0.3888 0.05788   -0.284231
 N 0.3486 0.9598 0.05788   -0.284246
 N 0.9598 0.3486 0.44212   -0.284238
 N 0.6514 0.6112 0.44212   -0.284231
 N 0.3888 0.0402 0.44212   -0.284245
 O 0.5975 0.524 0.89503   -0.569115
 O 0.6147 0.4364 0.7751   -0.743246
 O 0.547 0.3631 0.05678   -0.732161
 O 0.4381 0.1963 0.1234   -0.673561
 O 0.9265 0.4025 0.89503   -0.569109
 O 0.8217 0.3853 0.7751   -0.743233
 O 0.8161 0.453 0.05678   -0.732141
 O 0.7582 0.5619 0.1234   -0.673581
 O 0.476 0.0735 0.89503   -0.569122
 O 0.5636 0.1783 0.7751   -0.743226
 O 0.6369 0.1839 0.05678   -0.732124
 O 0.8037 0.2418 0.1234   -0.67358
 O 0.0735 0.476 0.60497   -0.569115
 O 0.1783 0.5636 0.7249   -0.743247
 O 0.1839 0.6369 0.44322   -0.732161
 O 0.2418 0.8037 0.3766   -0.673561
 O 0.524 0.5975 0.60497   -0.569109
 O 0.4364 0.6147 0.7249   -0.743234
 O 0.3631 0.547 0.44322   -0.732142
 O 0.1963 0.4381 0.3766   -0.673581
 O 0.4025 0.9265 0.60497   -0.569122
 O 0.3853 0.8217 0.7249   -0.743226
 O 0.453 0.8161 0.44322   -0.732124
 O 0.5619 0.7582 0.3766   -0.673579
 O 0.4025 0.476 0.10497   -0.569115
 O 0.3853 0.5636 0.2249   -0.743246
 O 0.453 0.6369 0.94322   -0.732161
 O 0.5619 0.8037 0.8766   -0.673561
 O 0.0735 0.5975 0.10497   -0.569109
 O 0.1783 0.6147 0.2249   -0.743233
 O 0.1839 0.547 0.94322   -0.732142
 O 0.2418 0.4381 0.8766   -0.673581
 O 0.524 0.9265 0.10497   -0.569122
 O 0.4364 0.8217 0.2249   -0.743226
 O 0.3631 0.8161 0.94322   -0.732124
 O 0.1963 0.7582 0.8766   -0.67358
 O 0.9265 0.524 0.39503   -0.569115
 O 0.8217 0.4364 0.2751   -0.743247
 O 0.8161 0.3631 0.55678   -0.732161
 O 0.7582 0.1963 0.6234   -0.673561
 O 0.476 0.4025 0.39503   -0.569109
 O 0.5636 0.3853 0.2751   -0.743234
 O 0.6369 0.453 0.55678   -0.732142
 O 0.8037 0.5619 0.6234   -0.673582
 O 0.5975 0.0735 0.39503   -0.569122
 O 0.6147 0.1783 0.2751   -0.743226
 O 0.547 0.1839 0.55678   -0.732124
 O 0.4381 0.2418 0.6234   -0.67358
