{'_ref': 'TBD', '_srcid': 'CAKYAQ_clean', 'submitters': [{'name': 'Dalar Nazarian Jeff Camp and David Sholl', 'email': 'dalar@gatech.edu jcamp6@gatech.edu'}], '_method': 'VASP DFT with PBE;DDEC'}
data_Gd2Cu3H30C24(NO4)6
_symmetry_space_group_name_H-M   'P 1'
_cell_length_a   13.34300000
_cell_length_b   13.34300003
_cell_length_c   14.51500000
_cell_angle_alpha   90.00000000
_cell_angle_beta   90.00000000
_cell_angle_gamma   119.99999992
_symmetry_Int_Tables_number   1
_chemical_formula_structural   Gd2Cu3H30C24(NO4)6
_chemical_formula_sum   'Gd4 Cu6 H60 C48 N12 O48'
_cell_volume   2237.97198294
_cell_formula_units_Z   2
loop_
 _symmetry_equiv_pos_site_id
 _symmetry_equiv_pos_as_xyz
  1  'x, y, z'
loop_
 _atom_site_label
 _atom_site_fract_x
 _atom_site_fract_y
 _atom_site_fract_z
 _atom_site_charge
 Gd 0.66667 0.33334 0.668   2.144311
 Gd 0.33333 0.66666 0.832   2.144354
 Gd 0.33333 0.66666 0.332   2.144316
 Gd 0.66667 0.33334 0.168   2.144359
 Cu 0.5 0.5 0.0   0.790246
 Cu 0.0 0.5 0.0   0.787903
 Cu 0.5 0.0 0.0   0.795213
 Cu 0.0 0.5 0.5   0.79171
 Cu 0.5 0.5 0.5   0.785802
 Cu 0.5 0.0 0.5   0.795215
 H 0.326 0.3501 0.9221   0.251828
 H 0.4578 0.2667 0.8709   0.138141
 H 0.3974 0.316 0.8075   0.139015
 H 0.2927 0.2539 0.0499   0.121195
 H 0.3175 0.1796 0.9794   0.109062
 H 0.0241 0.674 0.9221   0.251073
 H 0.8089 0.5422 0.8709   0.13673
 H 0.9186 0.6026 0.8075   0.13804
 H 0.9612 0.7073 0.0499   0.121194
 H 0.8621 0.6825 0.9794   0.106911
 H 0.6499 0.9759 0.9221   0.250709
 H 0.7333 0.1911 0.8709   0.136624
 H 0.684 0.0814 0.8075   0.137758
 H 0.7461 0.0388 0.0499   0.119966
 H 0.8204 0.1379 0.9794   0.10618
 H 0.9759 0.6499 0.5779   0.251941
 H 0.1911 0.7333 0.6291   0.138189
 H 0.0814 0.684 0.6925   0.139162
 H 0.0388 0.7461 0.4501   0.121391
 H 0.1379 0.8204 0.5206   0.108891
 H 0.3501 0.326 0.5779   0.250979
 H 0.2667 0.4578 0.6291   0.136741
 H 0.316 0.3974 0.6925   0.138174
 H 0.2539 0.2927 0.4501   0.121161
 H 0.1796 0.3175 0.5206   0.107006
 H 0.674 0.0241 0.5779   0.250691
 H 0.5422 0.8089 0.6291   0.136507
 H 0.6026 0.9186 0.6925   0.137843
 H 0.7073 0.9612 0.4501   0.120115
 H 0.6825 0.8621 0.5206   0.106226
 H 0.674 0.6499 0.0779   0.251867
 H 0.5422 0.7333 0.1291   0.13816
 H 0.6026 0.684 0.1925   0.139166
 H 0.7073 0.7461 0.9501   0.121904
 H 0.6825 0.8204 0.0206   0.109484
 H 0.9759 0.326 0.0779   0.251115
 H 0.1911 0.4578 0.1291   0.136749
 H 0.0814 0.3974 0.1925   0.138193
 H 0.0388 0.2927 0.9501   0.121861
 H 0.1379 0.3175 0.0206   0.107471
 H 0.3501 0.0241 0.0779   0.250743
 H 0.2667 0.8089 0.1291   0.136639
 H 0.316 0.9186 0.1925   0.137909
 H 0.2539 0.9612 0.9501   0.120599
 H 0.1796 0.8621 0.0206   0.106675
 H 0.0241 0.3501 0.4221   0.251977
 H 0.8089 0.2667 0.3709   0.138204
 H 0.9186 0.316 0.3075   0.139302
 H 0.9612 0.2539 0.5499   0.122052
 H 0.8621 0.1796 0.4794   0.109392
 H 0.6499 0.674 0.4221   0.251018
 H 0.7333 0.5422 0.3709   0.13676
 H 0.684 0.6026 0.3075   0.138315
 H 0.7461 0.7073 0.5499   0.121844
 H 0.8204 0.6825 0.4794   0.107459
 H 0.326 0.9759 0.4221   0.250729
 H 0.4578 0.1911 0.3709   0.136528
 H 0.3974 0.0814 0.3075   0.137982
 H 0.2927 0.0388 0.5499   0.120768
 H 0.3175 0.1379 0.4794   0.106778
 C 0.562 0.4366 0.8408   0.743421
 C 0.4471 0.3327 0.8608   -0.229312
 C 0.3514 0.2538 0.0106   -0.18603
 C 0.4529 0.2701 0.069   0.696304
 C 0.8746 0.438 0.8408   0.745244
 C 0.8856 0.5529 0.8608   -0.228565
 C 0.9024 0.6486 0.0106   -0.18502
 C 0.8172 0.5471 0.069   0.69672
 C 0.5634 0.1254 0.8408   0.746771
 C 0.6673 0.1144 0.8608   -0.227881
 C 0.7462 0.0976 0.0106   -0.183164
 C 0.7299 0.1828 0.069   0.695634
 C 0.1254 0.5634 0.6592   0.743433
 C 0.1144 0.6673 0.6392   -0.229273
 C 0.0976 0.7462 0.4894   -0.185905
 C 0.1828 0.7299 0.431   0.696338
 C 0.4366 0.562 0.6592   0.745133
 C 0.3327 0.4471 0.6392   -0.228712
 C 0.2538 0.3514 0.4894   -0.185227
 C 0.2701 0.4529 0.431   0.696815
 C 0.438 0.8746 0.6592   0.746821
 C 0.5529 0.8856 0.6392   -0.227919
 C 0.6486 0.9024 0.4894   -0.183223
 C 0.5471 0.8172 0.431   0.6955
 C 0.438 0.5634 0.1592   0.743435
 C 0.5529 0.6673 0.1392   -0.229383
 C 0.6486 0.7462 0.9894   -0.18644
 C 0.5471 0.7299 0.931   0.696392
 C 0.1254 0.562 0.1592   0.74526
 C 0.1144 0.4471 0.1392   -0.228639
 C 0.0976 0.3514 0.9894   -0.185465
 C 0.1828 0.4529 0.931   0.696815
 C 0.4366 0.8746 0.1592   0.746786
 C 0.3327 0.8856 0.1392   -0.227953
 C 0.2538 0.9024 0.9894   -0.183573
 C 0.2701 0.8172 0.931   0.695721
 C 0.8746 0.4366 0.3408   0.743447
 C 0.8856 0.3327 0.3608   -0.229341
 C 0.9024 0.2538 0.5106   -0.186326
 C 0.8172 0.2701 0.569   0.696428
 C 0.5634 0.438 0.3408   0.745146
 C 0.6673 0.5529 0.3608   -0.22878
 C 0.7462 0.6486 0.5106   -0.18564
 C 0.7299 0.5471 0.569   0.696903
 C 0.562 0.1254 0.3408   0.746836
 C 0.4471 0.1144 0.3608   -0.22799
 C 0.3514 0.0976 0.5106   -0.18366
 C 0.4529 0.1828 0.569   0.695593
 N 0.3892 0.3472 0.9418   -0.261153
 N 0.958 0.6108 0.9418   -0.267217
 N 0.6528 0.042 0.9418   -0.273927
 N 0.042 0.6528 0.5582   -0.262067
 N 0.3472 0.3892 0.5582   -0.266045
 N 0.6108 0.958 0.5582   -0.273846
 N 0.6108 0.6528 0.0582   -0.261058
 N 0.042 0.3892 0.0582   -0.267115
 N 0.3472 0.958 0.0582   -0.273831
 N 0.958 0.3472 0.4418   -0.261969
 N 0.6528 0.6108 0.4418   -0.26595
 N 0.3892 0.042 0.4418   -0.273745
 O 0.5988 0.5241 0.8924   -0.556063
 O 0.6179 0.4352 0.7717   -0.711999
 O 0.5493 0.3621 0.0584   -0.713965
 O 0.4391 0.1952 0.1269   -0.635271
 O 0.9253 0.4012 0.8924   -0.559289
 O 0.8173 0.3821 0.7717   -0.71377
 O 0.8128 0.4507 0.0584   -0.716693
 O 0.7561 0.5609 0.1269   -0.637697
 O 0.4759 0.0747 0.8924   -0.565455
 O 0.5648 0.1827 0.7717   -0.718463
 O 0.6379 0.1872 0.0584   -0.711224
 O 0.8048 0.2439 0.1269   -0.639179
 O 0.0747 0.4759 0.6076   -0.556158
 O 0.1827 0.5648 0.7283   -0.71199
 O 0.1872 0.6379 0.4416   -0.714022
 O 0.2439 0.8048 0.3731   -0.635335
 O 0.5241 0.5988 0.6076   -0.558886
 O 0.4352 0.6179 0.7283   -0.713776
 O 0.3621 0.5493 0.4416   -0.716552
 O 0.1952 0.4391 0.3731   -0.637655
 O 0.4012 0.9253 0.6076   -0.56566
 O 0.3821 0.8173 0.7283   -0.71849
 O 0.4507 0.8128 0.4416   -0.711177
 O 0.5609 0.7561 0.3731   -0.639169
 O 0.4012 0.4759 0.1076   -0.556063
 O 0.3821 0.5648 0.2283   -0.712008
 O 0.4507 0.6379 0.9416   -0.713971
 O 0.5609 0.8048 0.8731   -0.635286
 O 0.0747 0.5988 0.1076   -0.55929
 O 0.1827 0.6179 0.2283   -0.71378
 O 0.1872 0.5493 0.9416   -0.7167
 O 0.2439 0.4391 0.8731   -0.637713
 O 0.5241 0.9253 0.1076   -0.565456
 O 0.4352 0.8173 0.2283   -0.718473
 O 0.3621 0.8128 0.9416   -0.71123
 O 0.1952 0.7561 0.8731   -0.639194
 O 0.9253 0.5241 0.3924   -0.556159
 O 0.8173 0.4352 0.2717   -0.712
 O 0.8128 0.3621 0.5584   -0.714028
 O 0.7561 0.1952 0.6269   -0.63535
 O 0.4759 0.4012 0.3924   -0.558886
 O 0.5648 0.3821 0.2717   -0.713786
 O 0.6379 0.4507 0.5584   -0.716558
 O 0.8048 0.5609 0.6269   -0.63767
 O 0.5988 0.0747 0.3924   -0.565662
 O 0.6179 0.1827 0.2717   -0.718499
 O 0.5493 0.1872 0.5584   -0.711184
 O 0.4391 0.2439 0.6269   -0.639184
