{'_ref': 'TBD', '_srcid': 'CAKYAQ_clean', 'submitters': [{'name': 'Dalar Nazarian Jeff Camp and David Sholl', 'email': 'dalar@gatech.edu jcamp6@gatech.edu'}], '_method': 'VASP DFT with PBE;DDEC'}
data_MnH8C16(NO4)2
_symmetry_space_group_name_H-M   'P 1'
_cell_length_a   9.66770000
_cell_length_b   11.36670036
_cell_length_c   22.10560000
_cell_angle_alpha   90.00000000
_cell_angle_beta   90.00000000
_cell_angle_gamma   102.98600036
_symmetry_Int_Tables_number   1
_chemical_formula_structural   MnH8C16(NO4)2
_chemical_formula_sum   'Mn4 H32 C64 N8 O32'
_cell_volume   2367.05474268
_cell_formula_units_Z   4
loop_
 _symmetry_equiv_pos_site_id
 _symmetry_equiv_pos_as_xyz
  1  'x, y, z'
loop_
 _atom_site_label
 _atom_site_fract_x
 _atom_site_fract_y
 _atom_site_fract_z
 _atom_site_charge
 Mn 0.25997 0.26008 0.40512   1.236194
 Mn 0.24003 0.73992 0.90512   1.236194
 Mn 0.74003 0.73992 0.59488   1.236197
 Mn 0.75997 0.26008 0.09488   1.236197
 H 0.803 0.456 0.9826   0.361625
 H 0.154 0.077 0.8163   0.111873
 H 0.928 0.335 0.5092   0.099966
 H 0.072 0.171 0.6477   0.103036
 H 0.065 0.1578 0.9837   0.09749
 H 0.838 0.414 0.679   0.112147
 H 0.929 0.33 0.8443   0.10633
 H 0.283 0.955 0.012   0.375876
 H 0.697 0.544 0.4826   0.361625
 H 0.346 0.923 0.3163   0.111873
 H 0.572 0.665 0.0092   0.099966
 H 0.428 0.829 0.1477   0.103036
 H 0.435 0.8422 0.4837   0.09749
 H 0.662 0.586 0.179   0.112147
 H 0.571 0.67 0.3443   0.10633
 H 0.217 0.045 0.512   0.375876
 H 0.197 0.544 0.0174   0.361625
 H 0.846 0.923 0.1837   0.111874
 H 0.072 0.665 0.4908   0.099967
 H 0.928 0.829 0.3523   0.103036
 H 0.935 0.8422 0.0163   0.09749
 H 0.162 0.586 0.321   0.112147
 H 0.071 0.67 0.1557   0.106329
 H 0.717 0.045 0.988   0.375876
 H 0.303 0.456 0.5174   0.361625
 H 0.654 0.077 0.6837   0.111874
 H 0.428 0.335 0.9908   0.099967
 H 0.572 0.171 0.8523   0.103036
 H 0.565 0.1578 0.5163   0.09749
 H 0.338 0.414 0.821   0.112147
 H 0.429 0.33 0.6557   0.106329
 H 0.783 0.955 0.488   0.375876
 C 0.7923 0.4818 0.56558   0.720683
 C 0.8675 0.3883 0.58905   -0.16396
 C 0.9322 0.3238 0.54926   0.041273
 C 0.0098 0.2429 0.5702   -0.159131
 C 0.0865 0.181 0.52555   0.7032
 C 0.0208 0.2255 0.63195   -0.04724
 C 0.9556 0.2901 0.67242   0.140805
 C 0.8794 0.3709 0.65079   -0.071075
 C 0.0418 0.2051 0.82048   0.141952
 C 0.9797 0.2736 0.8602   -0.050704
 C 0.9861 0.2546 0.92175   -0.158171
 C 0.9126 0.3196 0.96635   0.69622
 C 0.0571 0.1695 0.94369   0.041232
 C 0.1195 0.1018 0.9049   -0.167162
 C 0.1919 0.0077 0.92923   0.73173
 C 0.1121 0.1203 0.84315   -0.063243
 C 0.7077 0.5182 0.06558   0.720683
 C 0.6325 0.6117 0.08905   -0.16396
 C 0.5678 0.6762 0.04926   0.041273
 C 0.4902 0.7571 0.0702   -0.159131
 C 0.4135 0.819 0.02555   0.7032
 C 0.4792 0.7745 0.13195   -0.04724
 C 0.5444 0.7099 0.17242   0.140805
 C 0.6206 0.6291 0.15079   -0.071075
 C 0.4582 0.7949 0.32048   0.141952
 C 0.5203 0.7264 0.3602   -0.050704
 C 0.5139 0.7454 0.42175   -0.158171
 C 0.5874 0.6804 0.46635   0.69622
 C 0.4429 0.8305 0.44369   0.041232
 C 0.3805 0.8982 0.4049   -0.167162
 C 0.3081 0.9923 0.42923   0.73173
 C 0.3879 0.8797 0.34315   -0.063243
 C 0.2077 0.5182 0.43442   0.720683
 C 0.1325 0.6117 0.41095   -0.16396
 C 0.0678 0.6762 0.45074   0.041273
 C 0.9902 0.7571 0.4298   -0.159131
 C 0.9135 0.819 0.47445   0.7032
 C 0.9792 0.7745 0.36805   -0.04724
 C 0.0444 0.7099 0.32758   0.140804
 C 0.1206 0.6291 0.34921   -0.071075
 C 0.9582 0.7949 0.17952   0.141952
 C 0.0203 0.7264 0.1398   -0.050704
 C 0.0139 0.7454 0.07825   -0.158171
 C 0.0874 0.6804 0.03365   0.696219
 C 0.9429 0.8305 0.05631   0.041231
 C 0.8805 0.8982 0.0951   -0.167161
 C 0.8081 0.9923 0.07077   0.73173
 C 0.8879 0.8797 0.15685   -0.063243
 C 0.2923 0.4818 0.93442   0.720683
 C 0.3675 0.3883 0.91095   -0.16396
 C 0.4322 0.3238 0.95074   0.041273
 C 0.5098 0.2429 0.9298   -0.159131
 C 0.5865 0.181 0.97445   0.7032
 C 0.5208 0.2255 0.86805   -0.04724
 C 0.4556 0.2901 0.82758   0.140804
 C 0.3794 0.3709 0.84921   -0.071075
 C 0.5418 0.2051 0.67952   0.141952
 C 0.4797 0.2736 0.6398   -0.050704
 C 0.4861 0.2546 0.57825   -0.158171
 C 0.4126 0.3196 0.53365   0.696219
 C 0.5571 0.1695 0.55631   0.041231
 C 0.6195 0.1018 0.5951   -0.167161
 C 0.6919 0.0077 0.57077   0.73173
 C 0.6121 0.1203 0.65685   -0.063243
 N 0.9618 0.2812 0.73663   -0.150931
 N 0.0368 0.2137 0.75593   -0.151121
 N 0.5382 0.7188 0.23663   -0.150931
 N 0.4632 0.7863 0.25593   -0.151121
 N 0.0382 0.7188 0.26337   -0.150931
 N 0.9632 0.7863 0.24407   -0.151121
 N 0.4618 0.2812 0.76337   -0.150931
 N 0.5368 0.2137 0.74407   -0.151121
 O 0.7719 0.56008 0.60104   -0.648225
 O 0.7573 0.47232 0.50998   -0.52207
 O 0.0913 0.214 0.47182   -0.639556
 O 0.1439 0.09947 0.54613   -0.532377
 O 0.8577 0.403 0.94507   -0.507247
 O 0.9077 0.28825 0.02005   -0.632046
 O 0.2285 0.02117 0.98469   -0.516053
 O 0.2096 0.92553 0.89588   -0.641321
 O 0.7281 0.43992 0.10104   -0.648225
 O 0.7427 0.52768 0.00998   -0.52207
 O 0.4087 0.786 0.97182   -0.639556
 O 0.3561 0.90053 0.04613   -0.532377
 O 0.6423 0.597 0.44507   -0.507247
 O 0.5923 0.71175 0.52005   -0.632046
 O 0.2715 0.97883 0.48469   -0.516053
 O 0.2904 0.07447 0.39588   -0.641321
 O 0.2281 0.43992 0.39896   -0.648225
 O 0.2427 0.52768 0.49002   -0.52207
 O 0.9087 0.786 0.52818   -0.639556
 O 0.8561 0.90053 0.45387   -0.532377
 O 0.1423 0.597 0.05493   -0.507247
 O 0.0923 0.71175 0.97995   -0.632046
 O 0.7715 0.97883 0.01531   -0.516053
 O 0.7904 0.07447 0.10412   -0.641321
 O 0.2719 0.56008 0.89896   -0.648225
 O 0.2573 0.47232 0.99002   -0.52207
 O 0.5913 0.214 0.02818   -0.639556
 O 0.6439 0.09947 0.95387   -0.532377
 O 0.3577 0.403 0.55493   -0.507247
 O 0.4077 0.28825 0.47995   -0.632046
 O 0.7285 0.02117 0.51531   -0.516053
 O 0.7096 0.92553 0.60412   -0.641321
