{'_ref': 'TBD', '_srcid': 'CAKYAQ_clean', 'submitters': [{'name': 'Dalar Nazarian Jeff Camp and David Sholl', 'email': 'dalar@gatech.edu jcamp6@gatech.edu'}], '_method': 'VASP DFT with PBE;DDEC'}
data_Zn2P2H16C13(NO3)2
_symmetry_space_group_name_H-M   'P 1'
_cell_length_a   10.33400000
_cell_length_b   11.54509983
_cell_length_c   28.44690000
_cell_angle_alpha   90.00000000
_cell_angle_beta   90.00000000
_cell_angle_gamma   115.30900171
_symmetry_Int_Tables_number   1
_chemical_formula_structural   Zn2P2H16C13(NO3)2
_chemical_formula_sum   'Zn8 P8 H64 C52 N8 O24'
_cell_volume   3068.15236518
_cell_formula_units_Z   4
loop_
 _symmetry_equiv_pos_site_id
 _symmetry_equiv_pos_as_xyz
  1  'x, y, z'
loop_
 _atom_site_label
 _atom_site_fract_x
 _atom_site_fract_y
 _atom_site_fract_z
 _atom_site_charge
 Zn 0.09027 0.00767 0.93767   1.05386
 Zn 0.33054 0.33425 0.52206   1.083815
 Zn 0.90973 0.49233 0.43767   1.05386
 Zn 0.66946 0.16575 0.02206   1.083815
 Zn 0.90973 0.99233 0.06233   1.05386
 Zn 0.66946 0.66575 0.47794   1.083815
 Zn 0.09027 0.50767 0.56233   1.05386
 Zn 0.33054 0.83425 0.97794   1.083815
 P 0.40577 0.12297 0.95489   1.543499
 P 0.06415 0.83037 0.02287   1.572561
 P 0.59423 0.37703 0.45489   1.543499
 P 0.93585 0.66963 0.52287   1.572561
 P 0.59423 0.87703 0.04511   1.543498
 P 0.93585 0.16963 0.97713   1.572561
 P 0.40577 0.62297 0.54511   1.543498
 P 0.06415 0.33037 0.47713   1.572561
 H 0.9292 0.0327 0.8571   0.09836
 H 0.9067 0.000599999999999 0.7772   0.141507
 H 0.2214 0.8807 0.7828   0.135002
 H 0.2386 0.9192 0.8628   0.097762
 H 0.9447 0.8633 0.7108   0.106273
 H 0.0748 0.000399999999999 0.7026   0.097689
 H 0.2372 0.9078 0.7008   0.070774
 H 0.1112 0.77 0.7125   0.061413
 H 0.1516 0.7743 0.6318   0.113565
 H 0.9993 0.7772 0.6386   0.109769
 H 0.9688 0.9702 0.6151   0.140756
 H 0.0538 0.1583 0.5726   0.095001
 H 0.4322 0.1549 0.5601   0.106345
 H 0.3589 0.9708 0.6044   0.143804
 H 0.47749 0.1942 0.9206   -0.201791
 H 0.96572 0.7273 0.03454   -0.210628
 H 0.0708 0.4673 0.3571   0.09836
 H 0.0933 0.4994 0.2772   0.141507
 H 0.7786 0.6193 0.2828   0.135002
 H 0.7614 0.5808 0.3628   0.097762
 H 0.0553 0.6367 0.2108   0.106273
 H 0.9252 0.4996 0.2026   0.097689
 H 0.7628 0.5922 0.2008   0.070774
 H 0.8888 0.73 0.2125   0.061413
 H 0.8484 0.7257 0.1318   0.113565
 H 0.000700000000002 0.7228 0.1386   0.109769
 H 0.0312 0.5298 0.1151   0.140756
 H 0.9462 0.3417 0.0726   0.095001
 H 0.5678 0.3451 0.0601   0.106345
 H 0.6411 0.5292 0.1044   0.143804
 H 0.52251 0.3058 0.4206   -0.201791
 H 0.03428 0.7727 0.53454   -0.210628
 H 0.0708 0.9673 0.1429   0.098359
 H 0.0933 0.9994 0.2228   0.141507
 H 0.7786 0.1193 0.2172   0.135001
 H 0.7614 0.0808 0.1372   0.097762
 H 0.0553 0.1367 0.2892   0.106273
 H 0.9252 0.9996 0.2974   0.097688
 H 0.7628 0.0922 0.2992   0.070774
 H 0.8888 0.23 0.2875   0.061413
 H 0.8484 0.2257 0.3682   0.113565
 H 0.000700000000002 0.2228 0.3614   0.109768
 H 0.0312 0.0298 0.3849   0.140756
 H 0.9462 0.8417 0.4274   0.095001
 H 0.5678 0.8451 0.4399   0.106345
 H 0.6411 0.0292 0.3956   0.143804
 H 0.52251 0.8058 0.0794   -0.201791
 H 0.03428 0.2727 0.96546   -0.210628
 H 0.9292 0.5327 0.6429   0.098359
 H 0.9067 0.5006 0.7228   0.141507
 H 0.2214 0.3807 0.7172   0.135001
 H 0.2386 0.4192 0.6372   0.097762
 H 0.9447 0.3633 0.7892   0.106273
 H 0.0748 0.5004 0.7974   0.097688
 H 0.2372 0.4078 0.7992   0.070774
 H 0.1112 0.27 0.7875   0.061413
 H 0.1516 0.2743 0.8682   0.113565
 H 0.9993 0.2772 0.8614   0.109768
 H 0.9688 0.4702 0.8849   0.140756
 H 0.0538 0.6583 0.9274   0.095001
 H 0.4322 0.6549 0.9399   0.106345
 H 0.3589 0.4708 0.8956   0.143804
 H 0.47749 0.6942 0.5794   -0.201791
 H 0.96572 0.2273 0.46546   -0.210628
 C 0.98973 0.00183 0.84167   0.19037
 C 0.97549 0.98273 0.79401   -0.256731
 C 0.06254 0.93693 0.77035   0.176799
 C 0.16061 0.91281 0.79732   -0.259584
 C 0.16989 0.93527 0.84513   0.193769
 C 0.04701 0.91621 0.71797   -0.204029
 C 0.13401 0.85226 0.69621   -0.081071
 C 0.10369 0.82689 0.6434   -0.221251
 C 0.15454 0.94843 0.61505   0.184491
 C 0.06528 0.00735 0.60452   -0.244848
 C 0.11617 0.11904 0.57888   0.18207
 C 0.33707 0.11744 0.57192   0.18554
 C 0.29369 0.00698 0.59804   -0.235545
 C 0.01027 0.49817 0.34167   0.19037
 C 0.02451 0.51727 0.29401   -0.256731
 C 0.93746 0.56307 0.27035   0.176799
 C 0.83939 0.58719 0.29732   -0.259584
 C 0.83011 0.56473 0.34513   0.193769
 C 0.95299 0.58379 0.21797   -0.204029
 C 0.86599 0.64774 0.19621   -0.081071
 C 0.89631 0.67311 0.1434   -0.221251
 C 0.84546 0.55157 0.11505   0.184491
 C 0.93472 0.49265 0.10452   -0.244848
 C 0.88383 0.38096 0.07888   0.18207
 C 0.66293 0.38256 0.07192   0.18554
 C 0.70631 0.49302 0.09804   -0.235545
 C 0.01027 0.99817 0.15833   0.190371
 C 0.02451 0.01727 0.20599   -0.256731
 C 0.93746 0.06307 0.22965   0.176799
 C 0.83939 0.08719 0.20268   -0.259584
 C 0.83011 0.06473 0.15487   0.193769
 C 0.95299 0.08379 0.28203   -0.204029
 C 0.86599 0.14774 0.30379   -0.081071
 C 0.89631 0.17311 0.3566   -0.221251
 C 0.84546 0.05157 0.38495   0.184491
 C 0.93472 0.99265 0.39548   -0.244848
 C 0.88383 0.88096 0.42112   0.18207
 C 0.66293 0.88256 0.42808   0.18554
 C 0.70631 0.99302 0.40196   -0.235545
 C 0.98973 0.50183 0.65833   0.190371
 C 0.97549 0.48273 0.70599   -0.256731
 C 0.06254 0.43693 0.72965   0.176799
 C 0.16061 0.41281 0.70268   -0.259584
 C 0.16989 0.43527 0.65487   0.193769
 C 0.04701 0.41621 0.78203   -0.204029
 C 0.13401 0.35226 0.80379   -0.081071
 C 0.10369 0.32689 0.8566   -0.221251
 C 0.15454 0.44843 0.88495   0.184491
 C 0.06528 0.50735 0.89548   -0.244848
 C 0.11617 0.61904 0.92112   0.18207
 C 0.33707 0.61744 0.92808   0.18554
 C 0.29369 0.50698 0.90196   -0.235545
 N 0.08539 0.97899 0.86767   -0.365133
 N 0.25098 0.17496 0.56229   -0.374756
 N 0.91461 0.52101 0.36767   -0.365133
 N 0.74902 0.32504 0.06229   -0.374756
 N 0.91461 0.02101 0.13233   -0.365133
 N 0.74902 0.82504 0.43771   -0.374756
 N 0.08539 0.47899 0.63233   -0.365133
 N 0.25098 0.67496 0.93771   -0.374756
 O 0.3711 0.98603 0.94125   -0.900828
 O 0.26972 0.14389 0.95995   -0.856874
 O 0.0439 0.84896 0.97104   -0.884115
 O 0.20411 0.81816 0.03121   -0.878508
 O 0.05671 0.93197 0.05492   -0.857916
 O 0.49728 0.1711 0.99838   -0.851184
 O 0.6289 0.51397 0.44125   -0.900828
 O 0.73028 0.35611 0.45995   -0.856874
 O 0.9561 0.65104 0.47104   -0.884115
 O 0.79589 0.68184 0.53121   -0.878508
 O 0.94329 0.56803 0.55492   -0.857916
 O 0.50272 0.3289 0.49838   -0.851184
 O 0.6289 0.01397 0.05875   -0.900828
 O 0.73028 0.85611 0.04005   -0.856874
 O 0.9561 0.15104 0.02896   -0.884115
 O 0.79589 0.18184 0.96879   -0.878508
 O 0.94329 0.06803 0.94508   -0.857916
 O 0.50272 0.8289 0.00162   -0.851184
 O 0.3711 0.48603 0.55875   -0.900828
 O 0.26972 0.64389 0.54005   -0.856874
 O 0.0439 0.34896 0.52896   -0.884115
 O 0.20411 0.31816 0.46879   -0.878508
 O 0.05671 0.43197 0.44508   -0.857916
 O 0.49728 0.6711 0.50162   -0.851184
