{'_ref': 'TBD', '_srcid': 'CAKYAQ_clean', 'submitters': [{'name': 'Dalar Nazarian Jeff Camp and David Sholl', 'email': 'dalar@gatech.edu jcamp6@gatech.edu'}], '_method': 'VASP DFT with PBE;DDEC'}
data_CdH14C20(NO)4
_symmetry_space_group_name_H-M   'P 1'
_cell_length_a   16.72000000
_cell_length_b   17.08100000
_cell_length_c   18.43200000
_cell_angle_alpha   90.00000000
_cell_angle_beta   90.00000000
_cell_angle_gamma   90.00000000
_symmetry_Int_Tables_number   1
_chemical_formula_structural   CdH14C20(NO)4
_chemical_formula_sum   'Cd8 H112 C160 N32 O32'
_cell_volume   5264.07450624
_cell_formula_units_Z   8
loop_
 _symmetry_equiv_pos_site_id
 _symmetry_equiv_pos_as_xyz
  1  'x, y, z'
loop_
 _atom_site_label
 _atom_site_fract_x
 _atom_site_fract_y
 _atom_site_fract_z
 _atom_site_charge
 Cd 0.77687 0.9915 0.5191   0.954075
 Cd 0.27687 0.5085 0.4809   0.954075
 Cd 0.27687 0.9915 0.9809   0.954075
 Cd 0.77687 0.5085 0.0191   0.954075
 Cd 0.72313 0.0085 0.0191   0.954075
 Cd 0.22313 0.4915 0.9809   0.954075
 Cd 0.22313 0.0085 0.4809   0.954075
 Cd 0.72313 0.4915 0.5191   0.954075
 H 0.5975 0.9392 0.6136   0.115173
 H 0.4786 0.0223 0.619   0.135746
 H 0.6408 0.1231 0.4928   0.106381
 H 0.3873 0.1134 0.5532   0.103198
 H 0.3108 0.2241 0.5349   0.085818
 H 0.5105 0.3516 0.5096   0.111721
 H 0.587 0.2423 0.5306   0.114749
 H 0.6897 0.0461 0.3582   0.109555
 H 0.6872 0.9694 0.2453   0.152164
 H 0.8139 0.8553 0.3937   0.110176
 H 0.7739 0.7396 0.3314   0.128986
 H 0.7916 0.6368 0.2502   0.087373
 H 0.7766 0.7846 0.0827   0.087581
 H 0.7644 0.8893 0.1616   0.124353
 H 0.0975 0.5608 0.3864   0.115173
 H 0.9786 0.4777 0.381   0.135746
 H 0.1408 0.3769 0.5072   0.106381
 H 0.8873 0.3866 0.4468   0.103198
 H 0.8108 0.2759 0.4651   0.085818
 H 0.0105 0.1484 0.4904   0.111721
 H 0.087 0.2577 0.4694   0.114749
 H 0.1897 0.4539 0.6418   0.109555
 H 0.1872 0.5306 0.7547   0.152164
 H 0.3139 0.6447 0.6063   0.110176
 H 0.2739 0.7604 0.6686   0.128986
 H 0.2916 0.8632 0.7498   0.087373
 H 0.2766 0.7154 0.9173   0.087581
 H 0.2644 0.6107 0.8384   0.124353
 H 0.0975 0.9392 0.8864   0.115173
 H 0.9786 0.0223 0.881   0.135746
 H 0.1408 0.1231 0.0072   0.106381
 H 0.8873 0.1134 0.9468   0.103198
 H 0.8108 0.2241 0.9651   0.085818
 H 0.0105 0.3516 0.9904   0.111721
 H 0.087 0.2423 0.9694   0.114749
 H 0.1897 0.0461 0.1418   0.109555
 H 0.1872 0.9694 0.2547   0.152164
 H 0.3139 0.8553 0.1063   0.110176
 H 0.2739 0.7396 0.1686   0.128986
 H 0.2916 0.6368 0.2498   0.087373
 H 0.2766 0.7846 0.4173   0.087581
 H 0.2644 0.8893 0.3384   0.124353
 H 0.5975 0.5608 0.1136   0.115173
 H 0.4786 0.4777 0.119   0.135746
 H 0.6408 0.3769 0.9928   0.106381
 H 0.3873 0.3866 0.0532   0.103198
 H 0.3108 0.2759 0.0349   0.085818
 H 0.5105 0.1484 0.0096   0.111721
 H 0.587 0.2577 0.0306   0.114749
 H 0.6897 0.4539 0.8582   0.109555
 H 0.6872 0.5306 0.7453   0.152164
 H 0.8139 0.6447 0.8937   0.110176
 H 0.7739 0.7604 0.8314   0.128986
 H 0.7916 0.8632 0.7502   0.087373
 H 0.7766 0.7154 0.5827   0.087581
 H 0.7644 0.6107 0.6616   0.124353
 H 0.9025 0.0608 0.1136   0.115173
 H 0.0214 0.9777 0.119   0.135747
 H 0.8592 0.8769 0.9928   0.106381
 H 0.1127 0.8866 0.0532   0.103198
 H 0.1892 0.7759 0.0349   0.085818
 H 0.9895 0.6484 0.0096   0.111721
 H 0.913 0.7577 0.0306   0.114749
 H 0.8103 0.9539 0.8582   0.109556
 H 0.8128 0.0306 0.7453   0.152164
 H 0.6861 0.1447 0.8937   0.110176
 H 0.7261 0.2604 0.8314   0.128986
 H 0.7084 0.3632 0.7502   0.087373
 H 0.7234 0.2154 0.5827   0.087581
 H 0.7356 0.1107 0.6616   0.124353
 H 0.4025 0.4392 0.8864   0.115173
 H 0.5214 0.5223 0.881   0.135747
 H 0.3592 0.6231 0.0072   0.106381
 H 0.6127 0.6134 0.9468   0.103198
 H 0.6892 0.7241 0.9651   0.085818
 H 0.4895 0.8516 0.9904   0.111721
 H 0.413 0.7423 0.9694   0.114749
 H 0.3103 0.5461 0.1418   0.109556
 H 0.3128 0.4694 0.2547   0.152164
 H 0.1861 0.3553 0.1063   0.110176
 H 0.2261 0.2396 0.1686   0.128986
 H 0.2084 0.1368 0.2498   0.087373
 H 0.2234 0.2846 0.4173   0.087581
 H 0.2356 0.3893 0.3384   0.124353
 H 0.4025 0.0608 0.3864   0.115173
 H 0.5214 0.9777 0.381   0.135747
 H 0.3592 0.8769 0.5072   0.106381
 H 0.6127 0.8866 0.4468   0.103198
 H 0.6892 0.7759 0.4651   0.085818
 H 0.4895 0.6484 0.4904   0.111721
 H 0.413 0.7577 0.4694   0.114749
 H 0.3103 0.9539 0.6418   0.109556
 H 0.3128 0.0306 0.7547   0.152164
 H 0.1861 0.1447 0.6063   0.110176
 H 0.2261 0.2604 0.6686   0.128986
 H 0.2084 0.3632 0.7498   0.087373
 H 0.2234 0.2154 0.9173   0.087581
 H 0.2356 0.1107 0.8384   0.124353
 H 0.9025 0.4392 0.6136   0.115173
 H 0.0214 0.5223 0.619   0.135747
 H 0.8592 0.6231 0.4928   0.106381
 H 0.1127 0.6134 0.5532   0.103198
 H 0.1892 0.7241 0.5349   0.085818
 H 0.9895 0.8516 0.5096   0.111721
 H 0.913 0.7423 0.5306   0.114749
 H 0.8103 0.5461 0.3582   0.109556
 H 0.8128 0.4694 0.2453   0.152164
 H 0.6861 0.3553 0.3937   0.110176
 H 0.7261 0.2396 0.3314   0.128986
 H 0.7084 0.1368 0.2502   0.087373
 H 0.7234 0.2846 0.0827   0.087581
 H 0.7356 0.3893 0.1616   0.124353
 C 0.5914 0.9869 0.59   0.042615
 C 0.5256 0.0326 0.5938   -0.150855
 C 0.6159 0.0879 0.524   0.151948
 C 0.494 0.1661 0.5417   0.120544
 C 0.412 0.1612 0.5442   -0.18461
 C 0.3663 0.2276 0.5334   -7e-06
 C 0.4024 0.2996 0.5203   -0.146427
 C 0.4858 0.3039 0.5187   0.00258
 C 0.5316 0.2386 0.5303   -0.185756
 C 0.3524 0.3705 0.5084   0.654818
 C 0.7146 0.9981 0.351   0.02125
 C 0.7127 0.9558 0.2884   -0.135668
 C 0.7829 0.8933 0.371   0.159521
 C 0.7682 0.8247 0.2527   0.129472
 C 0.7756 0.7485 0.2817   -0.199432
 C 0.7853 0.6874 0.2326   0.003737
 C 0.786 0.6997 0.159   -0.154608
 C 0.7771 0.776 0.1325   0.003422
 C 0.7691 0.8386 0.1794   -0.177167
 C 0.7928 0.631 0.1084   0.645933
 C 0.0914 0.5131 0.41   0.042615
 C 0.0256 0.4674 0.4062   -0.150855
 C 0.1159 0.4121 0.476   0.151948
 C 0.994 0.3339 0.4583   0.120544
 C 0.912 0.3388 0.4558   -0.18461
 C 0.8663 0.2724 0.4666   -7e-06
 C 0.9024 0.2004 0.4797   -0.146427
 C 0.9858 0.1961 0.4813   0.00258
 C 0.0316 0.2614 0.4697   -0.185756
 C 0.8524 0.1295 0.4916   0.654818
 C 0.2146 0.5019 0.649   0.02125
 C 0.2127 0.5442 0.7116   -0.135668
 C 0.2829 0.6067 0.629   0.159521
 C 0.2682 0.6753 0.7473   0.129472
 C 0.2756 0.7515 0.7183   -0.199432
 C 0.2853 0.8126 0.7674   0.003737
 C 0.286 0.8003 0.841   -0.154608
 C 0.2771 0.724 0.8675   0.003422
 C 0.2691 0.6614 0.8206   -0.177167
 C 0.2928 0.869 0.8916   0.645933
 C 0.0914 0.9869 0.91   0.042615
 C 0.0256 0.0326 0.9062   -0.150855
 C 0.1159 0.0879 0.976   0.151948
 C 0.994 0.1661 0.9583   0.120544
 C 0.912 0.1612 0.9558   -0.18461
 C 0.8663 0.2276 0.9666   -7e-06
 C 0.9024 0.2996 0.9797   -0.146427
 C 0.9858 0.3039 0.9813   0.00258
 C 0.0316 0.2386 0.9697   -0.185756
 C 0.8524 0.3705 0.9916   0.654818
 C 0.2146 0.9981 0.149   0.02125
 C 0.2127 0.9558 0.2116   -0.135668
 C 0.2829 0.8933 0.129   0.159521
 C 0.2682 0.8247 0.2473   0.129472
 C 0.2756 0.7485 0.2183   -0.199432
 C 0.2853 0.6874 0.2674   0.003737
 C 0.286 0.6997 0.341   -0.154608
 C 0.2771 0.776 0.3675   0.003422
 C 0.2691 0.8386 0.3206   -0.177167
 C 0.2928 0.631 0.3916   0.645933
 C 0.5914 0.5131 0.09   0.042615
 C 0.5256 0.4674 0.0938   -0.150855
 C 0.6159 0.4121 0.024   0.151948
 C 0.494 0.3339 0.0417   0.120544
 C 0.412 0.3388 0.0442   -0.18461
 C 0.3663 0.2724 0.0334   -7e-06
 C 0.4024 0.2004 0.0203   -0.146427
 C 0.4858 0.1961 0.0187   0.00258
 C 0.5316 0.2614 0.0303   -0.185756
 C 0.3524 0.1295 0.0084   0.654818
 C 0.7146 0.5019 0.851   0.02125
 C 0.7127 0.5442 0.7884   -0.135668
 C 0.7829 0.6067 0.871   0.159521
 C 0.7682 0.6753 0.7527   0.129472
 C 0.7756 0.7515 0.7817   -0.199432
 C 0.7853 0.8126 0.7326   0.003737
 C 0.786 0.8003 0.659   -0.154608
 C 0.7771 0.724 0.6325   0.003422
 C 0.7691 0.6614 0.6794   -0.177167
 C 0.7928 0.869 0.6084   0.645933
 C 0.9086 0.0131 0.09   0.042615
 C 0.9744 0.9674 0.0938   -0.150855
 C 0.8841 0.9121 0.024   0.151948
 C 0.006 0.8339 0.0417   0.120544
 C 0.088 0.8388 0.0442   -0.18461
 C 0.1337 0.7724 0.0334   -7e-06
 C 0.0976 0.7004 0.0203   -0.146427
 C 0.0142 0.6961 0.0187   0.00258
 C 0.9684 0.7614 0.0303   -0.185756
 C 0.1476 0.6295 0.0084   0.654818
 C 0.7854 0.0019 0.851   0.02125
 C 0.7873 0.0442 0.7884   -0.135668
 C 0.7171 0.1067 0.871   0.159521
 C 0.7318 0.1753 0.7527   0.129472
 C 0.7244 0.2515 0.7817   -0.199432
 C 0.7147 0.3126 0.7326   0.003737
 C 0.714 0.3003 0.659   -0.154608
 C 0.7229 0.224 0.6325   0.003422
 C 0.7309 0.1614 0.6794   -0.177167
 C 0.7072 0.369 0.6084   0.645933
 C 0.4086 0.4869 0.91   0.042615
 C 0.4744 0.5326 0.9062   -0.150855
 C 0.3841 0.5879 0.976   0.151948
 C 0.506 0.6661 0.9583   0.120544
 C 0.588 0.6612 0.9558   -0.18461
 C 0.6337 0.7276 0.9666   -7e-06
 C 0.5976 0.7996 0.9797   -0.146427
 C 0.5142 0.8039 0.9813   0.00258
 C 0.4684 0.7386 0.9697   -0.185756
 C 0.6476 0.8705 0.9916   0.654818
 C 0.2854 0.4981 0.149   0.02125
 C 0.2873 0.4558 0.2116   -0.135668
 C 0.2171 0.3933 0.129   0.159521
 C 0.2318 0.3247 0.2473   0.129472
 C 0.2244 0.2485 0.2183   -0.199432
 C 0.2147 0.1874 0.2674   0.003737
 C 0.214 0.1997 0.341   -0.154608
 C 0.2229 0.276 0.3675   0.003422
 C 0.2309 0.3386 0.3206   -0.177167
 C 0.2072 0.131 0.3916   0.645933
 C 0.4086 0.0131 0.41   0.042615
 C 0.4744 0.9674 0.4062   -0.150855
 C 0.3841 0.9121 0.476   0.151948
 C 0.506 0.8339 0.4583   0.120544
 C 0.588 0.8388 0.4558   -0.18461
 C 0.6337 0.7724 0.4666   -7e-06
 C 0.5976 0.7004 0.4797   -0.146427
 C 0.5142 0.6961 0.4813   0.00258
 C 0.4684 0.7614 0.4697   -0.185756
 C 0.6476 0.6295 0.4916   0.654818
 C 0.2854 0.0019 0.649   0.02125
 C 0.2873 0.0442 0.7116   -0.135668
 C 0.2171 0.1067 0.629   0.159521
 C 0.2318 0.1753 0.7473   0.129472
 C 0.2244 0.2515 0.7183   -0.199432
 C 0.2147 0.3126 0.7674   0.003737
 C 0.214 0.3003 0.841   -0.154608
 C 0.2229 0.224 0.8675   0.003422
 C 0.2309 0.1614 0.8206   -0.177167
 C 0.2072 0.369 0.8916   0.645933
 C 0.9086 0.4869 0.59   0.042615
 C 0.9744 0.5326 0.5938   -0.150855
 C 0.8841 0.5879 0.524   0.151948
 C 0.006 0.6661 0.5417   0.120544
 C 0.088 0.6612 0.5442   -0.18461
 C 0.1337 0.7276 0.5334   -7e-06
 C 0.0976 0.7996 0.5203   -0.146427
 C 0.0142 0.8039 0.5187   0.00258
 C 0.9684 0.7386 0.5303   -0.185756
 C 0.1476 0.8705 0.5084   0.654818
 C 0.7854 0.4981 0.351   0.02125
 C 0.7873 0.4558 0.2884   -0.135668
 C 0.7171 0.3933 0.371   0.159521
 C 0.7318 0.3247 0.2527   0.129472
 C 0.7244 0.2485 0.2817   -0.199432
 C 0.7147 0.1874 0.2326   0.003737
 C 0.714 0.1997 0.159   -0.154608
 C 0.7229 0.276 0.1325   0.003422
 C 0.7309 0.3386 0.1794   -0.177167
 C 0.7072 0.131 0.1084   0.645933
 N 0.6487 0.0213 0.5459   -0.402263
 N 0.5426 0.0986 0.5519   0.040655
 N 0.7594 0.9584 0.402   -0.384946
 N 0.7564 0.8885 0.3019   0.035933
 N 0.1487 0.4787 0.4541   -0.402263
 N 0.0426 0.4014 0.4481   0.040655
 N 0.2594 0.5416 0.598   -0.384946
 N 0.2564 0.6115 0.6981   0.035933
 N 0.1487 0.0213 0.9541   -0.402263
 N 0.0426 0.0986 0.9481   0.040655
 N 0.2594 0.9584 0.098   -0.384946
 N 0.2564 0.8885 0.1981   0.035933
 N 0.6487 0.4787 0.0459   -0.402263
 N 0.5426 0.4014 0.0519   0.040655
 N 0.7594 0.5416 0.902   -0.384946
 N 0.7564 0.6115 0.8019   0.035933
 N 0.8513 0.9787 0.0459   -0.402263
 N 0.9574 0.9014 0.0519   0.040655
 N 0.7406 0.0416 0.902   -0.384946
 N 0.7436 0.1115 0.8019   0.035933
 N 0.3513 0.5213 0.9541   -0.402263
 N 0.4574 0.5986 0.9481   0.040655
 N 0.2406 0.4584 0.098   -0.384946
 N 0.2436 0.3885 0.1981   0.035933
 N 0.3513 0.9787 0.4541   -0.402263
 N 0.4574 0.9014 0.4481   0.040655
 N 0.2406 0.0416 0.598   -0.384946
 N 0.2436 0.1115 0.6981   0.035933
 N 0.8513 0.5213 0.5459   -0.402263
 N 0.9574 0.5986 0.5519   0.040655
 N 0.7406 0.4584 0.402   -0.384946
 N 0.7436 0.3885 0.3019   0.035933
 O 0.3847 0.4319 0.4834   -0.600636
 O 0.279 0.368 0.5222   -0.619272
 O 0.7987 0.6445 0.0407   -0.601089
 O 0.79 0.5634 0.1337   -0.596739
 O 0.8847 0.0681 0.5166   -0.600636
 O 0.779 0.132 0.4778   -0.619272
 O 0.2987 0.8555 0.9593   -0.601089
 O 0.29 0.9366 0.8663   -0.596739
 O 0.8847 0.4319 0.0166   -0.600636
 O 0.779 0.368 0.9778   -0.619272
 O 0.2987 0.6445 0.4593   -0.601089
 O 0.29 0.5634 0.3663   -0.596739
 O 0.3847 0.0681 0.9834   -0.600636
 O 0.279 0.132 0.0222   -0.619272
 O 0.7987 0.8555 0.5407   -0.601089
 O 0.79 0.9366 0.6337   -0.596739
 O 0.1153 0.5681 0.9834   -0.600636
 O 0.221 0.632 0.0222   -0.619272
 O 0.7013 0.3555 0.5407   -0.601089
 O 0.71 0.4366 0.6337   -0.596739
 O 0.6153 0.9319 0.0166   -0.600636
 O 0.721 0.868 0.9778   -0.619272
 O 0.2013 0.1445 0.4593   -0.601089
 O 0.21 0.0634 0.3663   -0.596739
 O 0.6153 0.5681 0.5166   -0.600636
 O 0.721 0.632 0.4778   -0.619272
 O 0.2013 0.3555 0.9593   -0.601089
 O 0.21 0.4366 0.8663   -0.596739
 O 0.1153 0.9319 0.4834   -0.600636
 O 0.221 0.868 0.5222   -0.619272
 O 0.7013 0.1445 0.0407   -0.601089
 O 0.71 0.0634 0.1337   -0.596739
