{'_ref': 'TBD', '_srcid': 'CAKYAQ_clean', 'submitters': [{'name': 'Dalar Nazarian Jeff Camp and David Sholl', 'email': 'dalar@gatech.edu jcamp6@gatech.edu'}], '_method': 'VASP DFT with PBE;DDEC'}
data_GdH12C12(NO3)3
_symmetry_space_group_name_H-M   'P 1'
_cell_length_a   7.96260054
_cell_length_b   12.13310025
_cell_length_c   13.31820000
_cell_angle_alpha   111.95100055
_cell_angle_beta   104.93800227
_cell_angle_gamma   91.57600078
_symmetry_Int_Tables_number   1
_chemical_formula_structural   GdH12C12(NO3)3
_chemical_formula_sum   'Gd2 H24 C24 N6 O18'
_cell_volume   1142.00775281
_cell_formula_units_Z   2
loop_
 _symmetry_equiv_pos_site_id
 _symmetry_equiv_pos_as_xyz
  1  'x, y, z'
loop_
 _atom_site_label
 _atom_site_fract_x
 _atom_site_fract_y
 _atom_site_fract_z
 _atom_site_charge
 Gd 0.7487 0.98128 0.01058   2.224683
 Gd 0.2513 0.01872 0.98942   2.224683
 H 0.0765 0.1529 0.4157   0.086411
 H 0.0679 0.2752 0.4013   0.085002
 H 0.2915 0.1123 0.3148   0.151368
 H 0.256 0.2279 0.2904   0.14421
 H 0.5863 0.1095 0.6735   0.088119
 H 0.6901 0.226 0.7764   0.089691
 H 0.3527 0.1202 0.7514   0.153739
 H 0.4482 0.2408 0.8518   0.150747
 H 0.6139 0.6014 0.7703   0.083102
 H 0.5033 0.6108 0.6584   0.075061
 H 0.3476 0.5915 0.8201   0.147783
 H 0.2509 0.6172 0.7145   0.145935
 H 0.9235 0.8471 0.5843   0.08641
 H 0.9321 0.7248 0.5987   0.085002
 H 0.7085 0.8877 0.6852   0.151367
 H 0.744 0.7721 0.7096   0.14421
 H 0.4137 0.8905 0.3265   0.088119
 H 0.3099 0.774 0.2236   0.089691
 H 0.6473 0.8798 0.2486   0.153737
 H 0.5518 0.7592 0.1482   0.150747
 H 0.3861 0.3986 0.2297   0.083102
 H 0.4967 0.3892 0.3416   0.075059
 H 0.6524 0.4085 0.1799   0.147784
 H 0.7491 0.3828 0.2855   0.145936
 C 0.3362 0.3968 0.5552   0.626788
 C 0.364 0.2018 0.567   0.621917
 C 0.5329 0.3817 0.7225   0.620519
 C 0.1444 0.2162 0.4092   0.09007
 C 0.2034 0.1637 0.304   -0.392288
 C 0.0508 0.0922 0.2035   0.820892
 C 0.5738 0.1858 0.7285   0.085937
 C 0.4667 0.1642 0.8001   -0.39794
 C 0.5558 0.0947 0.8669   0.825718
 C 0.4994 0.5789 0.7148   0.095252
 C 0.3621 0.6323 0.7721   -0.404853
 C 0.4049 0.7651 0.8426   0.836418
 C 0.6638 0.6032 0.4448   0.626788
 C 0.636 0.7982 0.433   0.621917
 C 0.4671 0.6183 0.2775   0.620518
 C 0.8556 0.7838 0.5908   0.09007
 C 0.7966 0.8363 0.696   -0.392287
 C 0.9492 0.9078 0.7965   0.820892
 C 0.4262 0.8142 0.2715   0.085937
 C 0.5333 0.8358 0.1999   -0.39794
 C 0.4442 0.9053 0.1331   0.825718
 C 0.5006 0.4211 0.2852   0.095253
 C 0.6379 0.3677 0.2279   -0.404854
 C 0.5951 0.2349 0.1574   0.836418
 N 0.4587 0.4469 0.6601   -0.327298
 N 0.2901 0.2735 0.5135   -0.325274
 N 0.4893 0.2596 0.6694   -0.313988
 N 0.5413 0.5531 0.3399   -0.327298
 N 0.7099 0.7265 0.4865   -0.325274
 N 0.5107 0.7404 0.3306   -0.313988
 O 0.9231 0.0438 0.2146   -0.648283
 O 0.0548 0.0868 0.1054   -0.879269
 O 0.5561 0.8155 0.8599   -0.760373
 O 0.2848 0.815 0.88   -0.708627
 O 0.468 0.0511 0.9138   -0.878876
 O 0.7141 0.0828 0.8781   -0.657316
 O 0.6327 0.4302 0.8165   -0.520003
 O 0.2722 0.4559 0.5039   -0.518504
 O 0.3218 0.0941 0.5254   -0.51647
 O 0.0769 0.9562 0.7854   -0.648283
 O 0.9452 0.9132 0.8946   -0.879269
 O 0.4439 0.1845 0.1401   -0.760373
 O 0.7152 0.185 0.12   -0.708627
 O 0.532 0.9489 0.0862   -0.878876
 O 0.2859 0.9172 0.1219   -0.657316
 O 0.3673 0.5698 0.1835   -0.52
 O 0.7278 0.5441 0.4961   -0.518503
 O 0.6782 0.9059 0.4746   -0.516468
