{'_ref': 'TBD', '_srcid': 'CAKYAQ_clean', 'submitters': [{'name': 'Dalar Nazarian Jeff Camp and David Sholl', 'email': 'dalar@gatech.edu jcamp6@gatech.edu'}], '_method': 'VASP DFT with PBE;DDEC'}
data_Cu2H3C9O7
_symmetry_space_group_name_H-M   'P 1'
_cell_length_a   3.49259986
_cell_length_b   9.82800000
_cell_length_c   17.18500000
_cell_angle_alpha   90.00000000
_cell_angle_beta   93.75299276
_cell_angle_gamma   90.00000000
_symmetry_Int_Tables_number   1
_chemical_formula_structural   Cu2H3C9O7
_chemical_formula_sum   'Cu4 H6 C18 O14'
_cell_volume   588.61479566
_cell_formula_units_Z   2
loop_
 _symmetry_equiv_pos_site_id
 _symmetry_equiv_pos_as_xyz
  1  'x, y, z'
loop_
 _atom_site_label
 _atom_site_fract_x
 _atom_site_fract_y
 _atom_site_fract_z
 _atom_site_charge
 Cu 0.58112 0.24095 0.72802   1.080027
 Cu 0.1293 0.45535 0.60664   1.029346
 Cu 0.08112 0.75905 0.22802   1.080027
 Cu 0.6293 0.54465 0.10664   1.029346
 H 0.6109 0.783 0.7158   0.120596
 H 0.9461 0.5425 0.897   0.122624
 H 0.088 0.9502 0.9128   0.123851
 H 0.1109 0.217 0.2158   0.120595
 H 0.4461 0.4575 0.397   0.122624
 H 0.588 0.0498 0.4128   0.123851
 C 0.8395 0.8871 0.8089   -0.162692
 C 0.717 0.7735 0.7666   0.037186
 C 0.752 0.6455 0.8004   -0.187294
 C 0.919 0.629 0.8754   0.037973
 C 0.047 0.7432 0.9182   -0.168146
 C 0.0053 0.8736 0.8847   0.039036
 C 0.77 0.0252 0.7755   0.588716
 C 0.608 0.5254 0.7526   0.692721
 C 0.239 0.731 0.9987   0.662192
 C 0.3395 0.1129 0.3089   -0.162692
 C 0.217 0.2265 0.2666   0.037186
 C 0.252 0.3545 0.3004   -0.187294
 C 0.419 0.371 0.3754   0.037973
 C 0.547 0.2568 0.4182   -0.168146
 C 0.5053 0.1264 0.3847   0.039036
 C 0.27 0.9748 0.2755   0.588716
 C 0.108 0.4746 0.2526   0.692721
 C 0.739 0.269 0.4987   0.662192
 O 0.5811 0.0402 0.7104   -0.452443
 O 0.8866 0.1317 0.8122   -0.524913
 O 0.6302 0.409 0.7856   -0.52297
 O 0.1382 0.2878 0.6631   -0.745583
 O 0.4932 0.5461 0.6833   -0.680651
 O 0.2489 0.6092 0.027   -0.696722
 O 0.3765 0.8318 0.0319   -0.392854
 O 0.0811 0.9598 0.2104   -0.452443
 O 0.3866 0.8683 0.3122   -0.524913
 O 0.1302 0.591 0.2856   -0.52297
 O 0.6382 0.7122 0.1631   -0.745582
 O 0.9932 0.4539 0.1833   -0.680651
 O 0.7489 0.3908 0.527   -0.696722
 O 0.8765 0.1682 0.5319   -0.392854
