{'_ref': 'TBD', '_srcid': 'CAKYAQ_clean', 'submitters': [{'name': 'Dalar Nazarian Jeff Camp and David Sholl', 'email': 'dalar@gatech.edu jcamp6@gatech.edu'}], '_method': 'VASP DFT with PBE;DDEC'}
data_Sc3H12C24O13
_symmetry_space_group_name_H-M   'P 1'
_cell_length_a   14.05600000
_cell_length_b   14.05599993
_cell_length_c   18.09900000
_cell_angle_alpha   90.00000000
_cell_angle_beta   90.00000000
_cell_angle_gamma   120.00000015
_symmetry_Int_Tables_number   1
_chemical_formula_structural   Sc3H12C24O13
_chemical_formula_sum   'Sc6 H24 C48 O26'
_cell_volume   3096.76825238
_cell_formula_units_Z   2
loop_
 _symmetry_equiv_pos_site_id
 _symmetry_equiv_pos_as_xyz
  1  'x, y, z'
loop_
 _atom_site_label
 _atom_site_fract_x
 _atom_site_fract_y
 _atom_site_fract_z
 _atom_site_charge
 Sc 0.74986 0.49972 0.75   2.05688
 Sc 0.74986 0.25014 0.75   2.05692
 Sc 0.50028 0.25014 0.75   2.056919
 Sc 0.25014 0.50028 0.25   2.05688
 Sc 0.25014 0.74986 0.25   2.05692
 Sc 0.49972 0.74986 0.25   2.056919
 H 0.3791 0.3329 0.9433   0.108055
 H 0.9538 0.6209 0.9433   0.108055
 H 0.6671 0.0462 0.9433   0.108054
 H 0.6209 0.6671 0.4433   0.108055
 H 0.0462 0.3791 0.4433   0.108055
 H 0.3329 0.9538 0.4433   0.108054
 H 0.0462 0.6671 0.0567   0.108057
 H 0.3329 0.3791 0.0567   0.108056
 H 0.6209 0.9538 0.0567   0.108056
 H 0.9538 0.3329 0.5567   0.108057
 H 0.6671 0.6209 0.5567   0.108056
 H 0.3791 0.0462 0.5567   0.108056
 H 0.6209 0.6671 0.0567   0.108057
 H 0.0462 0.3791 0.0567   0.108056
 H 0.3329 0.9538 0.0567   0.108055
 H 0.3791 0.3329 0.5567   0.108057
 H 0.9538 0.6209 0.5567   0.108056
 H 0.6671 0.0462 0.5567   0.108055
 H 0.9538 0.3329 0.9433   0.108058
 H 0.6671 0.6209 0.9433   0.108057
 H 0.3791 0.0462 0.9433   0.108057
 H 0.0462 0.6671 0.4433   0.108058
 H 0.3329 0.3791 0.4433   0.108057
 H 0.6209 0.9538 0.4433   0.108057
 C 0.4283 0.4007 0.96638   -0.061543
 C 0.9724 0.5717 0.96638   -0.061542
 C 0.5993 0.0276 0.96638   -0.061542
 C 0.5717 0.5993 0.46638   -0.061543
 C 0.0276 0.4283 0.46638   -0.061542
 C 0.4007 0.9724 0.46638   -0.061542
 C 0.0276 0.5993 0.03362   -0.061538
 C 0.4007 0.4283 0.03362   -0.061537
 C 0.5717 0.9724 0.03362   -0.061537
 C 0.9724 0.4007 0.53362   -0.061538
 C 0.5993 0.5717 0.53362   -0.061537
 C 0.4283 0.0276 0.53362   -0.061537
 C 0.5717 0.5993 0.03362   -0.061543
 C 0.0276 0.4283 0.03362   -0.061542
 C 0.4007 0.9724 0.03362   -0.061542
 C 0.4283 0.4007 0.53362   -0.061543
 C 0.9724 0.5717 0.53362   -0.061542
 C 0.5993 0.0276 0.53362   -0.061542
 C 0.9724 0.4007 0.96638   -0.061538
 C 0.5993 0.5717 0.96638   -0.061537
 C 0.4283 0.0276 0.96638   -0.061537
 C 0.0276 0.5993 0.46638   -0.061538
 C 0.4007 0.4283 0.46638   -0.061537
 C 0.5717 0.9724 0.46638   -0.061537
 C 0.5582 0.4418 0.86118   0.791235
 C 0.5277 0.4723 0.93294   -0.145992
 C 0.8836 0.4418 0.86118   0.791236
 C 0.9446 0.4723 0.93294   -0.145992
 C 0.5582 0.1164 0.86118   0.791234
 C 0.5277 0.0554 0.93294   -0.145995
 C 0.4418 0.5582 0.36118   0.791235
 C 0.4723 0.5277 0.43294   -0.145992
 C 0.1164 0.5582 0.36118   0.791236
 C 0.0554 0.5277 0.43294   -0.145992
 C 0.4418 0.8836 0.36118   0.791234
 C 0.4723 0.9446 0.43294   -0.145995
 C 0.1164 0.5582 0.13882   0.791234
 C 0.0554 0.5277 0.06706   -0.145992
 C 0.4418 0.5582 0.13882   0.791234
 C 0.4723 0.5277 0.06706   -0.145992
 C 0.4418 0.8836 0.13882   0.791232
 C 0.4723 0.9446 0.06706   -0.145995
 C 0.8836 0.4418 0.63882   0.791234
 C 0.9446 0.4723 0.56706   -0.145992
 C 0.5582 0.4418 0.63882   0.791234
 C 0.5277 0.4723 0.56706   -0.145992
 C 0.5582 0.1164 0.63882   0.791232
 C 0.5277 0.0554 0.56706   -0.145995
 O 0.65063 0.5093 0.83341   -0.767954
 O 0.85867 0.34937 0.83341   -0.767963
 O 0.4907 0.14133 0.83341   -0.767962
 O 0.34937 0.4907 0.33341   -0.767954
 O 0.14133 0.65063 0.33341   -0.767963
 O 0.5093 0.85867 0.33341   -0.767962
 O 0.14133 0.4907 0.16659   -0.767954
 O 0.5093 0.65063 0.16659   -0.767963
 O 0.34937 0.85867 0.16659   -0.767962
 O 0.85867 0.5093 0.66659   -0.767954
 O 0.4907 0.34937 0.66659   -0.767963
 O 0.65063 0.14133 0.66659   -0.767962
 O 0.34937 0.4907 0.16659   -0.767954
 O 0.14133 0.65063 0.16659   -0.767963
 O 0.5093 0.85867 0.16659   -0.767962
 O 0.65063 0.5093 0.66659   -0.767954
 O 0.85867 0.34937 0.66659   -0.767963
 O 0.4907 0.14133 0.66659   -0.767962
 O 0.85867 0.5093 0.83341   -0.767954
 O 0.4907 0.34937 0.83341   -0.767963
 O 0.65063 0.14133 0.83341   -0.767962
 O 0.14133 0.4907 0.33341   -0.767954
 O 0.5093 0.65063 0.33341   -0.767963
 O 0.34937 0.85867 0.33341   -0.767962
 O 0.66667 0.33334 0.75   -1.384847
 O 0.33333 0.66666 0.25   -1.384847
