{'_ref': 'TBD', '_srcid': 'CAKYAQ_clean', 'submitters': [{'name': 'Dalar Nazarian Jeff Camp and David Sholl', 'email': 'dalar@gatech.edu jcamp6@gatech.edu'}], '_method': 'VASP DFT with PBE;DDEC'}
data_ZnH10C20(NO3)2
_symmetry_space_group_name_H-M   'P 1'
_cell_length_a   11.21700000
_cell_length_b   11.52600012
_cell_length_c   17.70300000
_cell_angle_alpha   90.00000000
_cell_angle_beta   90.00000000
_cell_angle_gamma   106.91699734
_symmetry_Int_Tables_number   1
_chemical_formula_structural   ZnH10C20(NO3)2
_chemical_formula_sum   'Zn4 H40 C80 N8 O24'
_cell_volume   2189.72903319
_cell_formula_units_Z   4
loop_
 _symmetry_equiv_pos_site_id
 _symmetry_equiv_pos_as_xyz
  1  'x, y, z'
loop_
 _atom_site_label
 _atom_site_fract_x
 _atom_site_fract_y
 _atom_site_fract_z
 _atom_site_charge
 Zn 0.45895 0.86465 0.99223   0.930634
 Zn 0.04105 0.13535 0.49223   0.930634
 Zn 0.54105 0.13535 0.00777   0.930634
 Zn 0.95895 0.86465 0.50777   0.930634
 H 0.6483 0.8589 0.6348   0.105311
 H 0.5559 0.8461 0.7538   0.11534
 H 0.7036 0.2055 0.7811   0.108909
 H 0.8051 0.2187 0.664   0.108439
 H 0.2124 0.7064 0.0354   0.088517
 H 0.0972 0.5028 0.0391   0.150943
 H 0.3804 0.4243 0.9338   0.155439
 H 0.4854 0.6283 0.9305   0.09877
 H 0.9026 0.1263 0.8431   0.098696
 H 0.2015 0.0811 0.1518   0.106042
 H 0.8517 0.1411 0.1348   0.105311
 H 0.9441 0.1539 0.2538   0.11534
 H 0.7964 0.7945 0.2811   0.108909
 H 0.6949 0.7813 0.164   0.108439
 H 0.2876 0.2936 0.5354   0.088517
 H 0.4028 0.4972 0.5391   0.150943
 H 0.1196 0.5757 0.4338   0.155439
 H 0.0146 0.3717 0.4305   0.09877
 H 0.5974 0.8737 0.3431   0.098696
 H 0.2985 0.9189 0.6518   0.106042
 H 0.3517 0.1411 0.3652   0.105311
 H 0.4441 0.1539 0.2462   0.11534
 H 0.2964 0.7945 0.2189   0.108909
 H 0.1949 0.7813 0.336   0.108439
 H 0.7876 0.2936 0.9646   0.088517
 H 0.9028 0.4972 0.9609   0.150942
 H 0.6196 0.5757 0.0662   0.155439
 H 0.5146 0.3717 0.0695   0.09877
 H 0.0974 0.8737 0.1569   0.098696
 H 0.7985 0.9189 0.8482   0.106042
 H 0.1483 0.8589 0.8652   0.105311
 H 0.0559 0.8461 0.7462   0.11534
 H 0.2036 0.2055 0.7189   0.108909
 H 0.3051 0.2187 0.836   0.108439
 H 0.7124 0.7064 0.4646   0.088517
 H 0.5972 0.5028 0.4609   0.150943
 H 0.8804 0.4243 0.5662   0.155439
 H 0.9854 0.6283 0.5695   0.09877
 H 0.4026 0.1263 0.6569   0.098696
 H 0.7015 0.0811 0.3482   0.106042
 C 0.816 0.0441 0.5665   0.650064
 C 0.7407 0.0396 0.6387   -0.120109
 C 0.6629 0.9286 0.665   -0.060722
 C 0.6068 0.9212 0.7363   -0.065193
 C 0.6258 0.0238 0.7814   -0.120939
 C 0.6958 0.1346 0.7528   -0.057176
 C 0.7556 0.1432 0.6819   -0.068922
 C 0.5765 0.0144 0.8624   0.659585
 C 0.2473 0.6482 0.0153   0.193095
 C 0.1775 0.5261 0.0179   -0.234768
 C 0.2282 0.4413 0.9891   0.267164
 C 0.3445 0.4806 0.9555   -0.228761
 C 0.4072 0.6025 0.9543   0.179998
 C 0.189 0.2444 0.0528   0.514017
 C 0.119 0.1156 0.0561   -0.135717
 C 0.032 0.0646 0.9988   0.06003
 C 0.0033 0.1337 0.9385   -0.1334
 C 0.0679 0.2667 0.9368   0.499416
 C 0.9187 0.0793 0.8831   -0.002959
 C 0.1433 0.0453 0.1142   0.004441
 C 0.684 0.9559 0.0665   0.650064
 C 0.7593 0.9604 0.1387   -0.120109
 C 0.8371 0.0714 0.165   -0.060722
 C 0.8932 0.0788 0.2363   -0.065193
 C 0.8742 0.9762 0.2814   -0.120939
 C 0.8042 0.8654 0.2528   -0.057176
 C 0.7444 0.8568 0.1819   -0.068922
 C 0.9235 0.9856 0.3624   0.659585
 C 0.2527 0.3518 0.5153   0.193095
 C 0.3225 0.4739 0.5179   -0.234768
 C 0.2718 0.5587 0.4891   0.267165
 C 0.1555 0.5194 0.4555   -0.228761
 C 0.0928 0.3975 0.4543   0.179998
 C 0.311 0.7556 0.5528   0.514017
 C 0.381 0.8844 0.5561   -0.135717
 C 0.468 0.9354 0.4988   0.06003
 C 0.4967 0.8663 0.4385   -0.1334
 C 0.4321 0.7333 0.4368   0.499416
 C 0.5813 0.9207 0.3831   -0.002959
 C 0.3567 0.9547 0.6142   0.004441
 C 0.184 0.9559 0.4335   0.650063
 C 0.2593 0.9604 0.3613   -0.120109
 C 0.3371 0.0714 0.335   -0.060721
 C 0.3932 0.0788 0.2637   -0.065193
 C 0.3742 0.9762 0.2186   -0.120939
 C 0.3042 0.8654 0.2472   -0.057176
 C 0.2444 0.8568 0.3181   -0.068922
 C 0.4235 0.9856 0.1376   0.659584
 C 0.7527 0.3518 0.9847   0.193095
 C 0.8225 0.4739 0.9821   -0.234768
 C 0.7718 0.5587 0.0109   0.267164
 C 0.6555 0.5194 0.0445   -0.228761
 C 0.5928 0.3975 0.0457   0.179998
 C 0.811 0.7556 0.9472   0.514017
 C 0.881 0.8844 0.9439   -0.135717
 C 0.968 0.9354 0.0012   0.06003
 C 0.9967 0.8663 0.0615   -0.1334
 C 0.9321 0.7333 0.0632   0.499416
 C 0.0813 0.9207 0.1169   -0.002959
 C 0.8567 0.9547 0.8858   0.00444
 C 0.316 0.0441 0.9335   0.650063
 C 0.2407 0.0396 0.8613   -0.120109
 C 0.1629 0.9286 0.835   -0.060721
 C 0.1068 0.9212 0.7637   -0.065193
 C 0.1258 0.0238 0.7186   -0.120939
 C 0.1958 0.1346 0.7472   -0.057176
 C 0.2556 0.1432 0.8181   -0.068922
 C 0.0765 0.0144 0.6376   0.659584
 C 0.7473 0.6482 0.4847   0.193095
 C 0.6775 0.5261 0.4821   -0.234768
 C 0.7282 0.4413 0.5109   0.267165
 C 0.8445 0.4806 0.5445   -0.228761
 C 0.9072 0.6025 0.5457   0.179998
 C 0.689 0.2444 0.4472   0.514017
 C 0.619 0.1156 0.4439   -0.135717
 C 0.532 0.0646 0.5012   0.06003
 C 0.5033 0.1337 0.5615   -0.1334
 C 0.5679 0.2667 0.5632   0.499416
 C 0.4187 0.0793 0.6169   -0.002959
 C 0.6433 0.0453 0.3858   0.00444
 N 0.3607 0.6856 0.9857   -0.30183
 N 0.16 0.3119 0.992   -0.269337
 N 0.1393 0.3144 0.4857   -0.30183
 N 0.34 0.6881 0.492   -0.269337
 N 0.6393 0.3144 0.0143   -0.30183
 N 0.84 0.6881 0.008   -0.269337
 N 0.8607 0.6856 0.5143   -0.30183
 N 0.66 0.3119 0.508   -0.269337
 O 0.8175 0.9422 0.5391   -0.624106
 O 0.8761 0.1464 0.5408   -0.583826
 O 0.5293 0.907 0.8875   -0.584712
 O 0.5909 0.1111 0.8979   -0.578446
 O 0.2715 0.298 0.0978   -0.456617
 O 0.0447 0.3352 0.889   -0.46731
 O 0.6825 0.0578 0.0391   -0.624106
 O 0.6239 0.8536 0.0408   -0.583826
 O 0.9707 0.093 0.3875   -0.584712
 O 0.9091 0.8889 0.3979   -0.578446
 O 0.2285 0.702 0.5978   -0.456617
 O 0.4553 0.6648 0.389   -0.46731
 O 0.1825 0.0578 0.4609   -0.624106
 O 0.1239 0.8536 0.4592   -0.583826
 O 0.4707 0.093 0.1125   -0.584712
 O 0.4091 0.8889 0.1021   -0.578446
 O 0.7285 0.702 0.9022   -0.456617
 O 0.9553 0.6648 0.111   -0.46731
 O 0.3175 0.9422 0.9609   -0.624106
 O 0.3761 0.1464 0.9592   -0.583826
 O 0.0293 0.907 0.6125   -0.584712
 O 0.0909 0.1111 0.6021   -0.578446
 O 0.7715 0.298 0.4022   -0.456617
 O 0.5447 0.3352 0.611   -0.46731
