{'_ref': 'TBD', '_srcid': 'CAKYAQ_clean', 'submitters': [{'name': 'Dalar Nazarian Jeff Camp and David Sholl', 'email': 'dalar@gatech.edu jcamp6@gatech.edu'}], '_method': 'VASP DFT with PBE;DDEC'}
data_Li7H18C24O17
_symmetry_space_group_name_H-M   'P 1'
_cell_length_a   9.47780000
_cell_length_b   9.95380024
_cell_length_c   17.69200000
_cell_angle_alpha   90.00000000
_cell_angle_beta   90.00000000
_cell_angle_gamma   104.41899747
_symmetry_Int_Tables_number   1
_chemical_formula_structural   Li7H18C24O17
_chemical_formula_sum   'Li14 H36 C48 O34'
_cell_volume   1616.49106295
_cell_formula_units_Z   2
loop_
 _symmetry_equiv_pos_site_id
 _symmetry_equiv_pos_as_xyz
  1  'x, y, z'
loop_
 _atom_site_label
 _atom_site_fract_x
 _atom_site_fract_y
 _atom_site_fract_z
 _atom_site_charge
 Li 0.7803 0.9491 0.7409   0.94424
 Li 0.8708 0.807 0.8619   0.925217
 Li 0.9729 0.5536 0.5927   0.902637
 Li 0.9728 0.0478 0.5198   0.902903
 Li 0.1378 0.3442 0.5407   0.894288
 Li 0.1332 0.8293 0.5168   0.898402
 Li 0.1347 0.7038 0.7575   0.918568
 Li 0.2197 0.0509 0.2409   0.94424
 Li 0.1292 0.193 0.3619   0.925217
 Li 0.0271 0.4464 0.0927   0.902638
 Li 0.0272 0.9522 0.0198   0.902903
 Li 0.8622 0.6558 0.0407   0.894288
 Li 0.8668 0.1707 0.0168   0.898403
 Li 0.8653 0.2962 0.2575   0.918569
 H 0.8296 0.5556 0.9111   0.508239
 H 0.7462 0.6528 0.9196   0.395307
 H 0.7016 0.504 0.6613   0.118816
 H 0.6753 0.5822 0.5505   0.120694
 H 0.5504 0.7666 0.5328   0.080711
 H 0.427 0.5288 0.5485   0.093335
 H 0.4592 0.4302 0.6525   0.109106
 H 0.5646 0.5712 0.7625   0.069425
 H 0.5465 0.803 0.7587   0.080283
 H 0.5499 0.9069 0.6402   0.083214
 H 0.5435 0.0744 0.9575   0.107209
 H 0.5683 0.9837 0.0656   0.120906
 H 0.4468 0.7451 0.0854   0.078661
 H 0.3162 0.9205 0.0654   0.09621
 H 0.3051 0.0054 0.9543   0.112068
 H 0.433 0.9266 0.852   0.068231
 H 0.4456 0.6933 0.8602   0.098676
 H 0.451 0.5992 0.981   0.088724
 H 0.1704 0.4444 0.4111   0.508239
 H 0.2538 0.3472 0.4196   0.395307
 H 0.2984 0.496 0.1613   0.118815
 H 0.3247 0.4178 0.0505   0.120694
 H 0.4496 0.2334 0.0328   0.08071
 H 0.573 0.4712 0.0485   0.093336
 H 0.5408 0.5698 0.1525   0.109105
 H 0.4354 0.4288 0.2625   0.069425
 H 0.4535 0.197 0.2587   0.080283
 H 0.4501 0.0931 0.1402   0.083214
 H 0.4565 0.9256 0.4575   0.107208
 H 0.4317 0.0163 0.5656   0.120906
 H 0.5532 0.2549 0.5854   0.078659
 H 0.6838 0.0795 0.5654   0.096209
 H 0.6949 0.9946 0.4543   0.112067
 H 0.567 0.0734 0.352   0.068231
 H 0.5544 0.3067 0.3602   0.098676
 H 0.549 0.4008 0.481   0.088725
 C 0.7028 0.6022 0.66708   -0.237959
 C 0.6911 0.6611 0.5854   -0.203592
 C 0.5537 0.7188 0.5809   0.060446
 C 0.4201 0.5936 0.5892   -0.192127
 C 0.4339 0.5172 0.665   -0.178232
 C 0.5625 0.6081 0.7113   0.084248
 C 0.8427 0.6711 0.7098   0.820291
 C 0.8293 0.7652 0.5597   0.762319
 C 0.2748 0.6312 0.57882   0.763917
 C 0.2966 0.4816 0.7139   0.683612
 C 0.5521 0.7562 0.7137   -0.218299
 C 0.5515 0.8145 0.6464   -0.134915
 C 0.5669 0.9855 0.9477   -0.201075
 C 0.5768 0.9157 0.0269   -0.206196
 C 0.4436 0.79 0.0364   0.035363
 C 0.3053 0.8435 0.0296   -0.200799
 C 0.2982 0.9061 0.9479   -0.190796
 C 0.4356 0.8932 0.9039   0.048692
 C 0.7087 0.0169 0.9034   0.761843
 C 0.72 0.8772 0.041   0.767106
 C 0.1672 0.7344 0.0526   0.757102
 C 0.1577 0.8446 0.9049   0.732167
 C 0.4434 0.7438 0.9043   -0.103828
 C 0.4469 0.6905 0.9729   -0.084778
 C 0.2972 0.3978 0.16708   -0.237959
 C 0.3089 0.3389 0.0854   -0.203593
 C 0.4463 0.2812 0.0809   0.060446
 C 0.5799 0.4064 0.0892   -0.192128
 C 0.5661 0.4828 0.165   -0.178231
 C 0.4375 0.3919 0.2113   0.084248
 C 0.1573 0.3289 0.2098   0.820291
 C 0.1707 0.2348 0.0597   0.762319
 C 0.7252 0.3688 0.07882   0.763917
 C 0.7034 0.5184 0.2139   0.683612
 C 0.4479 0.2438 0.2137   -0.218299
 C 0.4485 0.1855 0.1464   -0.134915
 C 0.4331 0.0145 0.4477   -0.201075
 C 0.4232 0.0843 0.5269   -0.206196
 C 0.5564 0.21 0.5364   0.035364
 C 0.6947 0.1565 0.5296   -0.2008
 C 0.7018 0.0939 0.4479   -0.190796
 C 0.5644 0.1068 0.4039   0.048692
 C 0.2913 0.9831 0.4034   0.761843
 C 0.28 0.1228 0.541   0.767106
 C 0.8328 0.2656 0.5526   0.757102
 C 0.8423 0.1554 0.4049   0.732167
 C 0.5566 0.2562 0.4043   -0.103828
 C 0.5531 0.3095 0.4729   -0.084779
 O 0.8461 0.7713 0.75277   -0.925519
 O 0.9505 0.6187 0.6997   -0.787074
 O 0.935 0.715 0.5375   -0.81158
 O 0.8351 0.8911 0.55973   -0.735507
 O 0.1635 0.5299 0.57376   -0.872009
 O 0.2705 0.7554 0.57367   -0.710442
 O 0.2446 0.5752 0.73934   -0.670822
 O 0.2463 0.3554 0.7306   -0.406984
 O 0.7393 0.9266 0.86166   -0.871398
 O 0.7933 0.1392 0.9111   -0.663896
 O 0.8362 0.9754 0.0383   -0.832718
 O 0.7195 0.7545 0.05632   -0.712809
 O 0.1703 0.6118 0.06264   -0.681852
 O 0.0527 0.7791 0.06152   -0.848481
 O 0.1438 0.7355 0.86714   -0.697434
 O 0.0574 0.9091 0.91026   -0.80782
 O 0.8377 0.637 0.9215   -0.904231
 O 0.1539 0.2287 0.25277   -0.925519
 O 0.0495 0.3813 0.1997   -0.787074
 O 0.065 0.285 0.0375   -0.81158
 O 0.1649 0.1089 0.05973   -0.735507
 O 0.8365 0.4701 0.07376   -0.872009
 O 0.7295 0.2446 0.07367   -0.710442
 O 0.7554 0.4248 0.23934   -0.670822
 O 0.7537 0.6446 0.2306   -0.406985
 O 0.2607 0.0734 0.36166   -0.871398
 O 0.2067 0.8608 0.4111   -0.663896
 O 0.1638 0.0246 0.5383   -0.832718
 O 0.2805 0.2455 0.55632   -0.712809
 O 0.8297 0.3882 0.56264   -0.681852
 O 0.9473 0.2209 0.56152   -0.848481
 O 0.8562 0.2645 0.36714   -0.697434
 O 0.9426 0.0909 0.41026   -0.80782
 O 0.1623 0.363 0.4215   -0.904231
