{'_ref': 'TBD', '_srcid': 'CAKYAQ_clean', 'submitters': [{'name': 'Dalar Nazarian Jeff Camp and David Sholl', 'email': 'dalar@gatech.edu jcamp6@gatech.edu'}], '_method': 'VASP DFT with PBE;DDEC'}
data_CdH36C48N12(ClO4)2
_symmetry_space_group_name_H-M   'P 1'
_cell_length_a   15.87730000
_cell_length_b   15.87730000
_cell_length_c   21.68400000
_cell_angle_alpha   90.00000000
_cell_angle_beta   90.00000000
_cell_angle_gamma   90.00000000
_symmetry_Int_Tables_number   1
_chemical_formula_structural   CdH36C48N12(ClO4)2
_chemical_formula_sum   'Cd4 H144 C192 N48 Cl8 O32'
_cell_volume   5466.29040131
_cell_formula_units_Z   4
loop_
 _symmetry_equiv_pos_site_id
 _symmetry_equiv_pos_as_xyz
  1  'x, y, z'
loop_
 _atom_site_label
 _atom_site_fract_x
 _atom_site_fract_y
 _atom_site_fract_z
 _atom_site_charge
 Cd 0.94204 0.05796 0.75   0.794006
 Cd 0.05796 0.94204 0.25   0.794006
 Cd 0.44204 0.44204 0.5   0.794006
 Cd 0.55796 0.55796 0.0   0.794006
 H 0.4621 0.39 0.6524   0.088789
 H 0.415 0.2842 0.7146   0.120672
 H 0.2139 0.2592 0.6051   0.118636
 H 0.2726 0.3577 0.5394   0.070678
 H 0.3483 0.2025 0.7799   0.080229
 H 0.2948 0.0926 0.8366   0.1186
 H 0.1969 0.9979 0.7921   0.088427
 H 0.2015 0.1345 0.6356   0.109282
 H 0.9527 0.8783 0.5394   0.107853
 H 0.9349 0.7692 0.471   0.112638
 H 0.0378 0.666 0.4587   0.107081
 H 0.1745 0.7752 0.5951   0.099422
 H 0.2309 0.6516 0.6083   0.138154
 H 0.3389 0.5545 0.5932   0.061299
 H 0.2663 0.5111 0.424   0.069292
 H 0.1556 0.6061 0.4338   0.127241
 H 0.2508 0.969 0.5945   0.316397
 H 0.265 0.9158 0.6501   0.314832
 H 0.5379 0.61 0.1524   0.088789
 H 0.585 0.7158 0.2146   0.120672
 H 0.7861 0.7408 0.1051   0.118636
 H 0.7274 0.6423 0.0394   0.070678
 H 0.6517 0.7975 0.2799   0.080229
 H 0.7052 0.9074 0.3366   0.1186
 H 0.8031 0.0021 0.2921   0.088427
 H 0.7985 0.8655 0.1356   0.109282
 H 0.0473 0.1217 0.0394   0.107853
 H 0.0651 0.2308 0.971   0.112638
 H 0.9622 0.334 0.9587   0.107081
 H 0.8255 0.2248 0.0951   0.099422
 H 0.7691 0.3484 0.1083   0.138154
 H 0.6611 0.4455 0.0932   0.061299
 H 0.7337 0.4889 0.924   0.069292
 H 0.8444 0.3939 0.9338   0.127241
 H 0.7492 0.031 0.0945   0.316397
 H 0.735 0.0842 0.1501   0.314832
 H 0.11 0.9621 0.4024   0.088789
 H 0.2158 0.915 0.4646   0.120672
 H 0.2408 0.7139 0.3551   0.118637
 H 0.1423 0.7726 0.2894   0.070678
 H 0.2975 0.8483 0.5299   0.080229
 H 0.4074 0.7948 0.5866   0.118599
 H 0.5021 0.6969 0.5421   0.088427
 H 0.3655 0.7015 0.3856   0.109282
 H 0.6217 0.4527 0.2894   0.107853
 H 0.7308 0.4349 0.221   0.112638
 H 0.834 0.5378 0.2087   0.107081
 H 0.7248 0.6745 0.3451   0.099422
 H 0.8484 0.7309 0.3583   0.138154
 H 0.9455 0.8389 0.3432   0.061299
 H 0.9889 0.7663 0.174   0.069292
 H 0.8939 0.6556 0.1838   0.127241
 H 0.531 0.7508 0.3445   0.316397
 H 0.5842 0.765 0.4001   0.314831
 H 0.89 0.0379 0.9024   0.088789
 H 0.7842 0.085 0.9646   0.120672
 H 0.7592 0.2861 0.8551   0.118637
 H 0.8577 0.2274 0.7894   0.070678
 H 0.7025 0.1517 0.0299   0.080229
 H 0.5926 0.2052 0.0866   0.118599
 H 0.4979 0.3031 0.0421   0.088427
 H 0.6345 0.2985 0.8856   0.109282
 H 0.3783 0.5473 0.7894   0.107853
 H 0.2692 0.5651 0.721   0.112638
 H 0.166 0.4622 0.7087   0.107081
 H 0.2752 0.3255 0.8451   0.099422
 H 0.1516 0.2691 0.8583   0.138154
 H 0.0545 0.1611 0.8432   0.061299
 H 0.0111 0.2337 0.674   0.069292
 H 0.1061 0.3444 0.6838   0.127241
 H 0.469 0.2492 0.8445   0.316397
 H 0.4158 0.235 0.9001   0.314831
 H 0.0379 0.89 0.0976   0.088789
 H 0.085 0.7842 0.0354   0.120672
 H 0.2861 0.7592 0.1449   0.118636
 H 0.2274 0.8577 0.2106   0.070678
 H 0.1517 0.7025 0.9701   0.080229
 H 0.2052 0.5926 0.9134   0.118599
 H 0.3031 0.4979 0.9579   0.088427
 H 0.2985 0.6345 0.1144   0.109282
 H 0.5473 0.3783 0.2106   0.107853
 H 0.5651 0.2692 0.279   0.112638
 H 0.4622 0.166 0.2913   0.107081
 H 0.3255 0.2752 0.1549   0.099422
 H 0.2691 0.1516 0.1417   0.138154
 H 0.1611 0.0545 0.1568   0.061299
 H 0.2337 0.0111 0.326   0.069292
 H 0.3444 0.1061 0.3162   0.127241
 H 0.2492 0.469 0.1555   0.316397
 H 0.235 0.4158 0.0999   0.314832
 H 0.9621 0.11 0.5976   0.088789
 H 0.915 0.2158 0.5354   0.120672
 H 0.7139 0.2408 0.6449   0.118636
 H 0.7726 0.1423 0.7106   0.070678
 H 0.8483 0.2975 0.4701   0.080229
 H 0.7948 0.4074 0.4134   0.118599
 H 0.6969 0.5021 0.4579   0.088427
 H 0.7015 0.3655 0.6144   0.109282
 H 0.4527 0.6217 0.7106   0.107853
 H 0.4349 0.7308 0.779   0.112638
 H 0.5378 0.834 0.7913   0.107081
 H 0.6745 0.7248 0.6549   0.099422
 H 0.7309 0.8484 0.6417   0.138154
 H 0.8389 0.9455 0.6568   0.061299
 H 0.7663 0.9889 0.826   0.069292
 H 0.6556 0.8939 0.8162   0.127241
 H 0.7508 0.531 0.6555   0.316397
 H 0.765 0.5842 0.5999   0.314832
 H 0.39 0.4621 0.3476   0.088789
 H 0.2842 0.415 0.2854   0.120672
 H 0.2592 0.2139 0.3949   0.118637
 H 0.3577 0.2726 0.4606   0.070678
 H 0.2025 0.3483 0.2201   0.080229
 H 0.0926 0.2948 0.1634   0.118599
 H 0.9979 0.1969 0.2079   0.088427
 H 0.1345 0.2015 0.3644   0.109282
 H 0.8783 0.9527 0.4606   0.107853
 H 0.7692 0.9349 0.529   0.112638
 H 0.666 0.0378 0.5413   0.107081
 H 0.7752 0.1745 0.4049   0.099422
 H 0.6516 0.2309 0.3917   0.138154
 H 0.5545 0.3389 0.4068   0.061299
 H 0.5111 0.2663 0.576   0.069292
 H 0.6061 0.1556 0.5662   0.127241
 H 0.969 0.2508 0.4055   0.316397
 H 0.9158 0.265 0.3499   0.314831
 H 0.61 0.5379 0.8476   0.088789
 H 0.7158 0.585 0.7854   0.120672
 H 0.7408 0.7861 0.8949   0.118637
 H 0.6423 0.7274 0.9606   0.070678
 H 0.7975 0.6517 0.7201   0.080229
 H 0.9074 0.7052 0.6634   0.118599
 H 0.0021 0.8031 0.7079   0.088427
 H 0.8655 0.7985 0.8644   0.109282
 H 0.1217 0.0473 0.9606   0.107853
 H 0.2308 0.0651 0.029   0.112638
 H 0.334 0.9622 0.0413   0.107081
 H 0.2248 0.8255 0.9049   0.099422
 H 0.3484 0.7691 0.8917   0.138154
 H 0.4455 0.6611 0.9068   0.061299
 H 0.4889 0.7337 0.076   0.069292
 H 0.3939 0.8444 0.0662   0.127241
 H 0.031 0.7492 0.9055   0.316397
 H 0.0842 0.735 0.8499   0.314831
 C 0.4132 0.3595 0.6405   0.163274
 C 0.3844 0.2977 0.6783   -0.187528
 C 0.3103 0.2533 0.6646   0.119048
 C 0.268 0.2815 0.6141   -0.197872
 C 0.3024 0.342 0.5756   0.141516
 C 0.2794 0.1818 0.7014   0.003734
 C 0.3073 0.1665 0.7621   -0.072918
 C 0.2764 0.1008 0.7954   -0.080733
 C 0.2172 0.0447 0.7692   -0.05819
 C 0.1892 0.0594 0.7091   -0.048773
 C 0.2205 0.1258 0.6767   -0.110658
 C 0.1267 0.0035 0.6798   0.253019
 C 0.075 0.9081 0.6174   0.250363
 C 0.0675 0.8388 0.573   -0.021709
 C 0.9945 0.8357 0.536   -0.073195
 C 0.9844 0.7715 0.4955   -0.05921
 C 0.045 0.7088 0.4889   -0.107084
 C 0.1156 0.7085 0.5263   0.015119
 C 0.1265 0.7746 0.569   -0.108584
 C 0.1809 0.6425 0.5216   0.112182
 C 0.2367 0.6244 0.5695   -0.189046
 C 0.3015 0.5656 0.56   0.166085
 C 0.2595 0.5402 0.462   0.168672
 C 0.1929 0.5977 0.4675   -0.211725
 C 0.5868 0.6405 0.1405   0.163274
 C 0.6156 0.7023 0.1783   -0.187528
 C 0.6897 0.7467 0.1646   0.119048
 C 0.732 0.7185 0.1141   -0.197872
 C 0.6976 0.658 0.0756   0.141516
 C 0.7206 0.8182 0.2014   0.003734
 C 0.6927 0.8335 0.2621   -0.072918
 C 0.7236 0.8992 0.2954   -0.080733
 C 0.7828 0.9553 0.2692   -0.05819
 C 0.8108 0.9406 0.2091   -0.048773
 C 0.7795 0.8742 0.1767   -0.110658
 C 0.8733 0.9965 0.1798   0.253019
 C 0.925 0.0919 0.1174   0.250363
 C 0.9325 0.1612 0.073   -0.021709
 C 0.0055 0.1643 0.036   -0.073195
 C 0.0156 0.2285 0.9955   -0.05921
 C 0.955 0.2912 0.9889   -0.107084
 C 0.8844 0.2915 0.0263   0.015119
 C 0.8735 0.2254 0.069   -0.108584
 C 0.8191 0.3575 0.0216   0.112182
 C 0.7633 0.3756 0.0695   -0.189046
 C 0.6985 0.4344 0.06   0.166085
 C 0.7405 0.4598 0.962   0.168672
 C 0.8071 0.4023 0.9675   -0.211725
 C 0.1405 0.9132 0.3905   0.163274
 C 0.2023 0.8844 0.4283   -0.187528
 C 0.2467 0.8103 0.4146   0.119048
 C 0.2185 0.768 0.3641   -0.197872
 C 0.158 0.8024 0.3256   0.141516
 C 0.3182 0.7794 0.4514   0.003734
 C 0.3335 0.8073 0.5121   -0.072918
 C 0.3992 0.7764 0.5454   -0.080733
 C 0.4553 0.7172 0.5192   -0.05819
 C 0.4406 0.6892 0.4591   -0.048773
 C 0.3742 0.7205 0.4267   -0.110658
 C 0.4965 0.6267 0.4298   0.253019
 C 0.5919 0.575 0.3674   0.250363
 C 0.6612 0.5675 0.323   -0.021709
 C 0.6643 0.4945 0.286   -0.073195
 C 0.7285 0.4844 0.2455   -0.05921
 C 0.7912 0.545 0.2389   -0.107084
 C 0.7915 0.6156 0.2763   0.015119
 C 0.7254 0.6265 0.319   -0.108584
 C 0.8575 0.6809 0.2716   0.112182
 C 0.8756 0.7367 0.3195   -0.189046
 C 0.9344 0.8015 0.31   0.166085
 C 0.9598 0.7595 0.212   0.168672
 C 0.9023 0.6929 0.2175   -0.211725
 C 0.8595 0.0868 0.8905   0.163274
 C 0.7977 0.1156 0.9283   -0.187528
 C 0.7533 0.1897 0.9146   0.119048
 C 0.7815 0.232 0.8641   -0.197872
 C 0.842 0.1976 0.8256   0.141516
 C 0.6818 0.2206 0.9514   0.003734
 C 0.6665 0.1927 0.0121   -0.072918
 C 0.6008 0.2236 0.0454   -0.080733
 C 0.5447 0.2828 0.0192   -0.05819
 C 0.5594 0.3108 0.9591   -0.048773
 C 0.6258 0.2795 0.9267   -0.110658
 C 0.5035 0.3733 0.9298   0.253019
 C 0.4081 0.425 0.8674   0.250363
 C 0.3388 0.4325 0.823   -0.021709
 C 0.3357 0.5055 0.786   -0.073195
 C 0.2715 0.5156 0.7455   -0.05921
 C 0.2088 0.455 0.7389   -0.107084
 C 0.2085 0.3844 0.7763   0.015119
 C 0.2746 0.3735 0.819   -0.108584
 C 0.1425 0.3191 0.7716   0.112182
 C 0.1244 0.2633 0.8195   -0.189046
 C 0.0656 0.1985 0.81   0.166085
 C 0.0402 0.2405 0.712   0.168672
 C 0.0977 0.3071 0.7175   -0.211725
 C 0.0868 0.8595 0.1095   0.163274
 C 0.1156 0.7977 0.0717   -0.187528
 C 0.1897 0.7533 0.0854   0.119048
 C 0.232 0.7815 0.1359   -0.197872
 C 0.1976 0.842 0.1744   0.141516
 C 0.2206 0.6818 0.0486   0.003734
 C 0.1927 0.6665 0.9879   -0.072919
 C 0.2236 0.6008 0.9546   -0.080733
 C 0.2828 0.5447 0.9808   -0.05819
 C 0.3108 0.5594 0.0409   -0.048773
 C 0.2795 0.6258 0.0733   -0.110658
 C 0.3733 0.5035 0.0702   0.253019
 C 0.425 0.4081 0.1326   0.250363
 C 0.4325 0.3388 0.177   -0.021709
 C 0.5055 0.3357 0.214   -0.073195
 C 0.5156 0.2715 0.2545   -0.05921
 C 0.455 0.2088 0.2611   -0.107085
 C 0.3844 0.2085 0.2237   0.015119
 C 0.3735 0.2746 0.181   -0.108584
 C 0.3191 0.1425 0.2284   0.112182
 C 0.2633 0.1244 0.1805   -0.189046
 C 0.1985 0.0656 0.19   0.166085
 C 0.2405 0.0402 0.288   0.168672
 C 0.3071 0.0977 0.2825   -0.211725
 C 0.9132 0.1405 0.6095   0.163274
 C 0.8844 0.2023 0.5717   -0.187528
 C 0.8103 0.2467 0.5854   0.119048
 C 0.768 0.2185 0.6359   -0.197872
 C 0.8024 0.158 0.6744   0.141516
 C 0.7794 0.3182 0.5486   0.003734
 C 0.8073 0.3335 0.4879   -0.072919
 C 0.7764 0.3992 0.4546   -0.080733
 C 0.7172 0.4553 0.4808   -0.05819
 C 0.6892 0.4406 0.5409   -0.048773
 C 0.7205 0.3742 0.5733   -0.110658
 C 0.6267 0.4965 0.5702   0.253019
 C 0.575 0.5919 0.6326   0.250363
 C 0.5675 0.6612 0.677   -0.021709
 C 0.4945 0.6643 0.714   -0.073195
 C 0.4844 0.7285 0.7545   -0.05921
 C 0.545 0.7912 0.7611   -0.107085
 C 0.6156 0.7915 0.7237   0.015119
 C 0.6265 0.7254 0.681   -0.108584
 C 0.6809 0.8575 0.7284   0.112182
 C 0.7367 0.8756 0.6805   -0.189046
 C 0.8015 0.9344 0.69   0.166085
 C 0.7595 0.9598 0.788   0.168672
 C 0.6929 0.9023 0.7825   -0.211725
 C 0.3595 0.4132 0.3595   0.163274
 C 0.2977 0.3844 0.3217   -0.187528
 C 0.2533 0.3103 0.3354   0.119048
 C 0.2815 0.268 0.3859   -0.197872
 C 0.342 0.3024 0.4244   0.141516
 C 0.1818 0.2794 0.2986   0.003734
 C 0.1665 0.3073 0.2379   -0.072918
 C 0.1008 0.2764 0.2046   -0.080733
 C 0.0447 0.2172 0.2308   -0.05819
 C 0.0594 0.1892 0.2909   -0.048773
 C 0.1258 0.2205 0.3233   -0.110658
 C 0.0035 0.1267 0.3202   0.253019
 C 0.9081 0.075 0.3826   0.250363
 C 0.8388 0.0675 0.427   -0.021709
 C 0.8357 0.9945 0.464   -0.073195
 C 0.7715 0.9844 0.5045   -0.05921
 C 0.7088 0.045 0.5111   -0.107084
 C 0.7085 0.1156 0.4737   0.015119
 C 0.7746 0.1265 0.431   -0.108584
 C 0.6425 0.1809 0.4784   0.112182
 C 0.6244 0.2367 0.4305   -0.189046
 C 0.5656 0.3015 0.44   0.166085
 C 0.5402 0.2595 0.538   0.168672
 C 0.5977 0.1929 0.5325   -0.211725
 C 0.6405 0.5868 0.8595   0.163274
 C 0.7023 0.6156 0.8217   -0.187528
 C 0.7467 0.6897 0.8354   0.119048
 C 0.7185 0.732 0.8859   -0.197872
 C 0.658 0.6976 0.9244   0.141516
 C 0.8182 0.7206 0.7986   0.003734
 C 0.8335 0.6927 0.7379   -0.072918
 C 0.8992 0.7236 0.7046   -0.080733
 C 0.9553 0.7828 0.7308   -0.05819
 C 0.9406 0.8108 0.7909   -0.048773
 C 0.8742 0.7795 0.8233   -0.110658
 C 0.9965 0.8733 0.8202   0.253019
 C 0.0919 0.925 0.8826   0.250363
 C 0.1612 0.9325 0.927   -0.021709
 C 0.1643 0.0055 0.964   -0.073195
 C 0.2285 0.0156 0.0045   -0.05921
 C 0.2912 0.955 0.0111   -0.107084
 C 0.2915 0.8844 0.9737   0.015119
 C 0.2254 0.8735 0.931   -0.108584
 C 0.3575 0.8191 0.9784   0.112182
 C 0.3756 0.7633 0.9305   -0.189046
 C 0.4344 0.6985 0.94   0.166085
 C 0.4598 0.7405 0.038   0.168672
 C 0.4023 0.8071 0.0325   -0.211725
 N 0.376 0.3792 0.5877   -0.346969
 N 0.0446 0.0059 0.6845   -0.232017
 N 0.0118 0.9454 0.6444   -0.300552
 N 0.1494 0.9433 0.6382   0.089172
 N 0.2307 0.9248 0.617   -0.555318
 N 0.3136 0.5247 0.5074   -0.360088
 N 0.624 0.6208 0.0877   -0.346969
 N 0.9554 0.9941 0.1845   -0.232017
 N 0.9882 0.0546 0.1444   -0.300552
 N 0.8506 0.0567 0.1382   0.089172
 N 0.7693 0.0752 0.117   -0.555318
 N 0.6864 0.4753 0.0074   -0.360088
 N 0.1208 0.876 0.3377   -0.346969
 N 0.4941 0.5446 0.4345   -0.232017
 N 0.5546 0.5118 0.3944   -0.300552
 N 0.5567 0.6494 0.3882   0.089172
 N 0.5752 0.7307 0.367   -0.555318
 N 0.9753 0.8136 0.2574   -0.360088
 N 0.8792 0.124 0.8377   -0.346969
 N 0.5059 0.4554 0.9345   -0.232017
 N 0.4454 0.4882 0.8944   -0.300552
 N 0.4433 0.3506 0.8882   0.089172
 N 0.4248 0.2693 0.867   -0.555318
 N 0.0247 0.1864 0.7574   -0.360088
 N 0.124 0.8792 0.1623   -0.346969
 N 0.4554 0.5059 0.0655   -0.232017
 N 0.4882 0.4454 0.1056   -0.300552
 N 0.3506 0.4433 0.1118   0.089172
 N 0.2693 0.4248 0.133   -0.555318
 N 0.1864 0.0247 0.2426   -0.360088
 N 0.876 0.1208 0.6623   -0.346969
 N 0.5446 0.4941 0.5655   -0.232017
 N 0.5118 0.5546 0.6056   -0.300552
 N 0.6494 0.5567 0.6118   0.089172
 N 0.7307 0.5752 0.633   -0.555318
 N 0.8136 0.9753 0.7426   -0.360088
 N 0.3792 0.376 0.4123   -0.346969
 N 0.0059 0.0446 0.3155   -0.232017
 N 0.9454 0.0118 0.3556   -0.300552
 N 0.9433 0.1494 0.3618   0.089172
 N 0.9248 0.2307 0.383   -0.555318
 N 0.5247 0.3136 0.4926   -0.360088
 N 0.6208 0.624 0.9123   -0.346969
 N 0.9941 0.9554 0.8155   -0.232017
 N 0.0546 0.9882 0.8556   -0.300552
 N 0.0567 0.8506 0.8618   0.089172
 N 0.0752 0.7693 0.883   -0.555318
 N 0.4753 0.6864 0.9926   -0.360088
 Cl 0.3796 0.6204 0.25   1.515404
 Cl 0.6204 0.3796 0.75   1.515404
 Cl 0.8796 0.8796 0.0   1.515404
 Cl 0.1204 0.1204 0.5   1.515404
 Cl 0.26906 0.26906 0.0   1.435149
 Cl 0.73094 0.73094 0.5   1.435149
 Cl 0.23094 0.76906 0.75   1.435149
 Cl 0.76906 0.23094 0.25   1.435149
 O 0.4045 0.6667 0.1919   -0.640091
 O 0.4379 0.6411 0.2876   -0.524159
 O 0.3333 0.5955 0.3081   -0.640091
 O 0.3589 0.5621 0.2124   -0.524159
 O 0.5955 0.3333 0.6919   -0.640091
 O 0.5621 0.3589 0.7876   -0.524159
 O 0.6667 0.4045 0.8081   -0.640091
 O 0.6411 0.4379 0.7124   -0.524159
 O 0.8333 0.9045 0.9419   -0.640091
 O 0.8589 0.9379 0.0376   -0.524159
 O 0.9045 0.8333 0.0581   -0.640091
 O 0.9379 0.8589 0.9624   -0.524159
 O 0.1667 0.0955 0.4419   -0.640091
 O 0.1411 0.0621 0.5376   -0.524159
 O 0.0955 0.1667 0.5581   -0.640091
 O 0.0621 0.1411 0.4624   -0.524159
 O 0.2365 0.232 0.9492   -0.589052
 O 0.345 0.2205 0.9936   -0.528515
 O 0.232 0.2365 0.0508   -0.589052
 O 0.2205 0.345 0.0064   -0.528515
 O 0.7635 0.768 0.4492   -0.589052
 O 0.655 0.7795 0.4936   -0.528515
 O 0.768 0.7635 0.5508   -0.589052
 O 0.7795 0.655 0.5064   -0.528515
 O 0.268 0.7365 0.6992   -0.589052
 O 0.2795 0.845 0.7436   -0.528515
 O 0.2635 0.732 0.8008   -0.589052
 O 0.155 0.7205 0.7564   -0.528515
 O 0.732 0.2635 0.1992   -0.589052
 O 0.7205 0.155 0.2436   -0.528515
 O 0.7365 0.268 0.3008   -0.589052
 O 0.845 0.2795 0.2564   -0.528515
