{'_ref': 'TBD', '_srcid': 'CAKYAQ_clean', 'submitters': [{'name': 'Dalar Nazarian Jeff Camp and David Sholl', 'email': 'dalar@gatech.edu jcamp6@gatech.edu'}], '_method': 'VASP DFT with PBE;DDEC'}
data_CdH36C48N12(ClO4)2
_symmetry_space_group_name_H-M   'P 1'
_cell_length_a   15.85390000
_cell_length_b   15.85390000
_cell_length_c   21.66000000
_cell_angle_alpha   90.00000000
_cell_angle_beta   90.00000000
_cell_angle_gamma   90.00000000
_symmetry_Int_Tables_number   1
_chemical_formula_structural   CdH36C48N12(ClO4)2
_chemical_formula_sum   'Cd4 H144 C192 N48 Cl8 O32'
_cell_volume   5444.15750525
_cell_formula_units_Z   4
loop_
 _symmetry_equiv_pos_site_id
 _symmetry_equiv_pos_as_xyz
  1  'x, y, z'
loop_
 _atom_site_label
 _atom_site_fract_x
 _atom_site_fract_y
 _atom_site_fract_z
 _atom_site_charge
 Cd 0.94188 0.05812 0.75   0.79944
 Cd 0.05812 0.94188 0.25   0.79944
 Cd 0.44188 0.44188 0.5   0.79944
 Cd 0.55812 0.55812 0.0   0.79944
 H 0.4621 0.3893 0.6508   0.075545
 H 0.4151 0.2857 0.7162   0.13011
 H 0.2133 0.2586 0.6044   0.124844
 H 0.2732 0.3579 0.5392   0.066207
 H 0.3489 0.2019 0.7798   0.079294
 H 0.2943 0.0927 0.8373   0.11816
 H 0.1971 0.9972 0.7922   0.090643
 H 0.202 0.1351 0.6356   0.097504
 H 0.9544 0.8811 0.5383   0.10661
 H 0.9336 0.7687 0.4703   0.118348
 H 0.0367 0.6649 0.4592   0.106662
 H 0.1742 0.7763 0.5949   0.098688
 H 0.2314 0.6524 0.6077   0.140827
 H 0.3382 0.5551 0.5934   0.060952
 H 0.2647 0.5101 0.4248   0.064005
 H 0.1553 0.6052 0.4336   0.129019
 H 0.2502 0.9702 0.5936   0.323135
 H 0.2644 0.9171 0.6492   0.309696
 H 0.5379 0.6107 0.1508   0.075545
 H 0.5849 0.7143 0.2162   0.13011
 H 0.7867 0.7414 0.1044   0.124844
 H 0.7268 0.6421 0.0392   0.066207
 H 0.6511 0.7981 0.2798   0.079294
 H 0.7057 0.9073 0.3373   0.11816
 H 0.8029 0.0028 0.2922   0.090643
 H 0.798 0.8649 0.1356   0.097504
 H 0.0456 0.1189 0.0383   0.10661
 H 0.0664 0.2313 0.9703   0.118348
 H 0.9633 0.3351 0.9592   0.106662
 H 0.8258 0.2237 0.0949   0.098688
 H 0.7686 0.3476 0.1077   0.140827
 H 0.6618 0.4449 0.0934   0.060952
 H 0.7353 0.4899 0.9248   0.064005
 H 0.8447 0.3948 0.9336   0.129019
 H 0.7498 0.0298 0.0936   0.323135
 H 0.7356 0.0829 0.1492   0.309696
 H 0.1107 0.9621 0.4008   0.075545
 H 0.2143 0.9151 0.4662   0.130111
 H 0.2414 0.7133 0.3544   0.124845
 H 0.1421 0.7732 0.2892   0.066207
 H 0.2981 0.8489 0.5298   0.079294
 H 0.4073 0.7943 0.5873   0.118159
 H 0.5028 0.6971 0.5422   0.090643
 H 0.3649 0.702 0.3856   0.097504
 H 0.6189 0.4544 0.2883   0.10661
 H 0.7313 0.4336 0.2203   0.118348
 H 0.8351 0.5367 0.2092   0.106662
 H 0.7237 0.6742 0.3449   0.098688
 H 0.8476 0.7314 0.3577   0.140827
 H 0.9449 0.8382 0.3434   0.060952
 H 0.9899 0.7647 0.1748   0.064005
 H 0.8948 0.6553 0.1836   0.12902
 H 0.5298 0.7502 0.3436   0.323135
 H 0.5829 0.7644 0.3992   0.309696
 H 0.8893 0.0379 0.9008   0.075545
 H 0.7857 0.0849 0.9662   0.130111
 H 0.7586 0.2867 0.8544   0.124845
 H 0.8579 0.2268 0.7892   0.066207
 H 0.7019 0.1511 0.0298   0.079294
 H 0.5927 0.2057 0.0873   0.118159
 H 0.4972 0.3029 0.0422   0.090643
 H 0.6351 0.298 0.8856   0.097504
 H 0.3811 0.5456 0.7883   0.10661
 H 0.2687 0.5664 0.7203   0.118348
 H 0.1649 0.4633 0.7092   0.106662
 H 0.2763 0.3258 0.8449   0.098688
 H 0.1524 0.2686 0.8577   0.140827
 H 0.0551 0.1618 0.8434   0.060952
 H 0.0101 0.2353 0.6748   0.064005
 H 0.1052 0.3447 0.6836   0.12902
 H 0.4702 0.2498 0.8436   0.323135
 H 0.4171 0.2356 0.8992   0.309696
 H 0.0379 0.8893 0.0992   0.075545
 H 0.0849 0.7857 0.0338   0.13011
 H 0.2867 0.7586 0.1456   0.124844
 H 0.2268 0.8579 0.2108   0.066207
 H 0.1511 0.7019 0.9702   0.079294
 H 0.2057 0.5927 0.9127   0.11816
 H 0.3029 0.4972 0.9578   0.090643
 H 0.298 0.6351 0.1144   0.097504
 H 0.5456 0.3811 0.2117   0.10661
 H 0.5664 0.2687 0.2797   0.118348
 H 0.4633 0.1649 0.2908   0.106662
 H 0.3258 0.2763 0.1551   0.098688
 H 0.2686 0.1524 0.1423   0.140827
 H 0.1618 0.0551 0.1566   0.060952
 H 0.2353 0.0101 0.3252   0.064006
 H 0.3447 0.1052 0.3164   0.129019
 H 0.2498 0.4702 0.1564   0.323135
 H 0.2356 0.4171 0.1008   0.309696
 H 0.9621 0.1107 0.5992   0.075545
 H 0.9151 0.2143 0.5338   0.13011
 H 0.7133 0.2414 0.6456   0.124844
 H 0.7732 0.1421 0.7108   0.066207
 H 0.8489 0.2981 0.4702   0.079294
 H 0.7943 0.4073 0.4127   0.11816
 H 0.6971 0.5028 0.4578   0.090643
 H 0.702 0.3649 0.6144   0.097504
 H 0.4544 0.6189 0.7117   0.10661
 H 0.4336 0.7313 0.7797   0.118348
 H 0.5367 0.8351 0.7908   0.106662
 H 0.6742 0.7237 0.6551   0.098688
 H 0.7314 0.8476 0.6423   0.140827
 H 0.8382 0.9449 0.6566   0.060952
 H 0.7647 0.9899 0.8252   0.064006
 H 0.6553 0.8948 0.8164   0.129019
 H 0.7502 0.5298 0.6564   0.323135
 H 0.7644 0.5829 0.6008   0.309696
 H 0.3893 0.4621 0.3492   0.075545
 H 0.2857 0.4151 0.2838   0.130111
 H 0.2586 0.2133 0.3956   0.124845
 H 0.3579 0.2732 0.4608   0.066207
 H 0.2019 0.3489 0.2202   0.079294
 H 0.0927 0.2943 0.1627   0.118159
 H 0.9972 0.1971 0.2078   0.090643
 H 0.1351 0.202 0.3644   0.097504
 H 0.8811 0.9544 0.4617   0.10661
 H 0.7687 0.9336 0.5297   0.118348
 H 0.6649 0.0367 0.5408   0.106662
 H 0.7763 0.1742 0.4051   0.098688
 H 0.6524 0.2314 0.3923   0.140827
 H 0.5551 0.3382 0.4066   0.060952
 H 0.5101 0.2647 0.5752   0.064006
 H 0.6052 0.1553 0.5664   0.12902
 H 0.9702 0.2502 0.4064   0.323135
 H 0.9171 0.2644 0.3508   0.309696
 H 0.6107 0.5379 0.8492   0.075545
 H 0.7143 0.5849 0.7838   0.130111
 H 0.7414 0.7867 0.8956   0.124845
 H 0.6421 0.7268 0.9608   0.066207
 H 0.7981 0.6511 0.7202   0.079294
 H 0.9073 0.7057 0.6627   0.118159
 H 0.0028 0.8029 0.7078   0.090643
 H 0.8649 0.798 0.8644   0.097504
 H 0.1189 0.0456 0.9617   0.10661
 H 0.2313 0.0664 0.0297   0.118348
 H 0.3351 0.9633 0.0408   0.106662
 H 0.2237 0.8258 0.9051   0.098688
 H 0.3476 0.7686 0.8923   0.140827
 H 0.4449 0.6618 0.9066   0.060952
 H 0.4899 0.7353 0.0752   0.064006
 H 0.3948 0.8447 0.0664   0.12902
 H 0.0298 0.7498 0.9064   0.323135
 H 0.0829 0.7356 0.8508   0.309696
 C 0.4125 0.3593 0.6398   0.170393
 C 0.3846 0.2979 0.6795   -0.19471
 C 0.3108 0.2532 0.6652   0.119054
 C 0.2673 0.2812 0.6137   -0.204782
 C 0.3026 0.3423 0.5756   0.143416
 C 0.2797 0.1818 0.7018   0.002585
 C 0.3074 0.1661 0.7621   -0.07203
 C 0.2762 0.1006 0.7959   -0.079208
 C 0.2172 0.0445 0.7696   -0.059916
 C 0.1893 0.0601 0.7097   -0.046454
 C 0.2208 0.1265 0.6768   -0.104545
 C 0.127 0.0034 0.6796   0.246575
 C 0.075 0.9078 0.6172   0.24616
 C 0.0675 0.8385 0.5727   -0.019253
 C 0.995 0.8372 0.5354   -0.076233
 C 0.9833 0.7711 0.4947   -0.061984
 C 0.044 0.7081 0.4891   -0.107576
 C 0.1154 0.7077 0.5268   0.01055
 C 0.126 0.775 0.5689   -0.103856
 C 0.1811 0.6421 0.5213   0.117707
 C 0.237 0.6246 0.569   -0.189556
 C 0.301 0.5662 0.56   0.163769
 C 0.2586 0.54 0.4625   0.179095
 C 0.1926 0.5971 0.4674   -0.217816
 C 0.5875 0.6407 0.1398   0.170393
 C 0.6154 0.7021 0.1795   -0.19471
 C 0.6892 0.7468 0.1652   0.119054
 C 0.7327 0.7188 0.1137   -0.204782
 C 0.6974 0.6577 0.0756   0.143416
 C 0.7203 0.8182 0.2018   0.002585
 C 0.6926 0.8339 0.2621   -0.07203
 C 0.7238 0.8994 0.2959   -0.079208
 C 0.7828 0.9555 0.2696   -0.059916
 C 0.8107 0.9399 0.2097   -0.046454
 C 0.7792 0.8735 0.1768   -0.104545
 C 0.873 0.9966 0.1796   0.246575
 C 0.925 0.0922 0.1172   0.24616
 C 0.9325 0.1615 0.0727   -0.019253
 C 0.005 0.1628 0.0354   -0.076233
 C 0.0167 0.2289 0.9947   -0.061984
 C 0.956 0.2919 0.9891   -0.107576
 C 0.8846 0.2923 0.0268   0.01055
 C 0.874 0.225 0.0689   -0.103856
 C 0.8189 0.3579 0.0213   0.117707
 C 0.763 0.3754 0.069   -0.189556
 C 0.699 0.4338 0.06   0.163769
 C 0.7414 0.46 0.9625   0.179095
 C 0.8074 0.4029 0.9674   -0.217816
 C 0.1407 0.9125 0.3898   0.170393
 C 0.2021 0.8846 0.4295   -0.19471
 C 0.2468 0.8108 0.4152   0.119054
 C 0.2188 0.7673 0.3637   -0.204782
 C 0.1577 0.8026 0.3256   0.143416
 C 0.3182 0.7797 0.4518   0.002584
 C 0.3339 0.8074 0.5121   -0.072031
 C 0.3994 0.7762 0.5459   -0.079208
 C 0.4555 0.7172 0.5196   -0.059916
 C 0.4399 0.6893 0.4597   -0.046454
 C 0.3735 0.7208 0.4268   -0.104545
 C 0.4966 0.627 0.4296   0.246575
 C 0.5922 0.575 0.3672   0.24616
 C 0.6615 0.5675 0.3227   -0.019253
 C 0.6628 0.495 0.2854   -0.076233
 C 0.7289 0.4833 0.2447   -0.061984
 C 0.7919 0.544 0.2391   -0.107575
 C 0.7923 0.6154 0.2768   0.01055
 C 0.725 0.626 0.3189   -0.103856
 C 0.8579 0.6811 0.2713   0.117707
 C 0.8754 0.737 0.319   -0.189556
 C 0.9338 0.801 0.31   0.163769
 C 0.96 0.7586 0.2125   0.179095
 C 0.9029 0.6926 0.2174   -0.217816
 C 0.8593 0.0875 0.8898   0.170393
 C 0.7979 0.1154 0.9295   -0.19471
 C 0.7532 0.1892 0.9152   0.119054
 C 0.7812 0.2327 0.8637   -0.204782
 C 0.8423 0.1974 0.8256   0.143416
 C 0.6818 0.2203 0.9518   0.002584
 C 0.6661 0.1926 0.0121   -0.072031
 C 0.6006 0.2238 0.0459   -0.079208
 C 0.5445 0.2828 0.0196   -0.059916
 C 0.5601 0.3107 0.9597   -0.046454
 C 0.6265 0.2792 0.9268   -0.104545
 C 0.5034 0.373 0.9296   0.246575
 C 0.4078 0.425 0.8672   0.24616
 C 0.3385 0.4325 0.8227   -0.019253
 C 0.3372 0.505 0.7854   -0.076233
 C 0.2711 0.5167 0.7447   -0.061984
 C 0.2081 0.456 0.7391   -0.107575
 C 0.2077 0.3846 0.7768   0.01055
 C 0.275 0.374 0.8189   -0.103856
 C 0.1421 0.3189 0.7713   0.117707
 C 0.1246 0.263 0.819   -0.189556
 C 0.0662 0.199 0.81   0.163769
 C 0.04 0.2414 0.7125   0.179095
 C 0.0971 0.3074 0.7174   -0.217816
 C 0.0875 0.8593 0.1102   0.170393
 C 0.1154 0.7979 0.0705   -0.19471
 C 0.1892 0.7532 0.0848   0.119054
 C 0.2327 0.7812 0.1363   -0.204782
 C 0.1974 0.8423 0.1744   0.143416
 C 0.2203 0.6818 0.0482   0.002585
 C 0.1926 0.6661 0.9879   -0.072031
 C 0.2238 0.6006 0.9541   -0.079208
 C 0.2828 0.5445 0.9804   -0.059916
 C 0.3107 0.5601 0.0403   -0.046454
 C 0.2792 0.6265 0.0732   -0.104545
 C 0.373 0.5034 0.0704   0.246575
 C 0.425 0.4078 0.1328   0.24616
 C 0.4325 0.3385 0.1773   -0.019253
 C 0.505 0.3372 0.2146   -0.076233
 C 0.5167 0.2711 0.2553   -0.061984
 C 0.456 0.2081 0.2609   -0.107576
 C 0.3846 0.2077 0.2232   0.01055
 C 0.374 0.275 0.1811   -0.103856
 C 0.3189 0.1421 0.2287   0.117707
 C 0.263 0.1246 0.181   -0.189556
 C 0.199 0.0662 0.19   0.163769
 C 0.2414 0.04 0.2875   0.179095
 C 0.3074 0.0971 0.2826   -0.217816
 C 0.9125 0.1407 0.6102   0.170393
 C 0.8846 0.2021 0.5705   -0.19471
 C 0.8108 0.2468 0.5848   0.119054
 C 0.7673 0.2188 0.6363   -0.204782
 C 0.8026 0.1577 0.6744   0.143416
 C 0.7797 0.3182 0.5482   0.002585
 C 0.8074 0.3339 0.4879   -0.072031
 C 0.7762 0.3994 0.4541   -0.079208
 C 0.7172 0.4555 0.4804   -0.059916
 C 0.6893 0.4399 0.5403   -0.046454
 C 0.7208 0.3735 0.5732   -0.104545
 C 0.627 0.4966 0.5704   0.246575
 C 0.575 0.5922 0.6328   0.24616
 C 0.5675 0.6615 0.6773   -0.019253
 C 0.495 0.6628 0.7146   -0.076233
 C 0.4833 0.7289 0.7553   -0.061984
 C 0.544 0.7919 0.7609   -0.107576
 C 0.6154 0.7923 0.7232   0.01055
 C 0.626 0.725 0.6811   -0.103856
 C 0.6811 0.8579 0.7287   0.117707
 C 0.737 0.8754 0.681   -0.189556
 C 0.801 0.9338 0.69   0.163769
 C 0.7586 0.96 0.7875   0.179095
 C 0.6926 0.9029 0.7826   -0.217816
 C 0.3593 0.4125 0.3602   0.170393
 C 0.2979 0.3846 0.3205   -0.19471
 C 0.2532 0.3108 0.3348   0.119054
 C 0.2812 0.2673 0.3863   -0.204782
 C 0.3423 0.3026 0.4244   0.143416
 C 0.1818 0.2797 0.2982   0.002584
 C 0.1661 0.3074 0.2379   -0.072031
 C 0.1006 0.2762 0.2041   -0.079208
 C 0.0445 0.2172 0.2304   -0.059916
 C 0.0601 0.1893 0.2903   -0.046454
 C 0.1265 0.2208 0.3232   -0.104545
 C 0.0034 0.127 0.3204   0.246575
 C 0.9078 0.075 0.3828   0.24616
 C 0.8385 0.0675 0.4273   -0.019253
 C 0.8372 0.995 0.4646   -0.076233
 C 0.7711 0.9833 0.5053   -0.061984
 C 0.7081 0.044 0.5109   -0.107576
 C 0.7077 0.1154 0.4732   0.01055
 C 0.775 0.126 0.4311   -0.103856
 C 0.6421 0.1811 0.4787   0.117707
 C 0.6246 0.237 0.431   -0.189556
 C 0.5662 0.301 0.44   0.163769
 C 0.54 0.2586 0.5375   0.179095
 C 0.5971 0.1926 0.5326   -0.217816
 C 0.6407 0.5875 0.8602   0.170393
 C 0.7021 0.6154 0.8205   -0.19471
 C 0.7468 0.6892 0.8348   0.119054
 C 0.7188 0.7327 0.8863   -0.204782
 C 0.6577 0.6974 0.9244   0.143416
 C 0.8182 0.7203 0.7982   0.002584
 C 0.8339 0.6926 0.7379   -0.072031
 C 0.8994 0.7238 0.7041   -0.079208
 C 0.9555 0.7828 0.7304   -0.059916
 C 0.9399 0.8107 0.7903   -0.046454
 C 0.8735 0.7792 0.8232   -0.104545
 C 0.9966 0.873 0.8204   0.246575
 C 0.0922 0.925 0.8828   0.24616
 C 0.1615 0.9325 0.9273   -0.019253
 C 0.1628 0.005 0.9646   -0.076233
 C 0.2289 0.0167 0.0053   -0.061984
 C 0.2919 0.956 0.0109   -0.107576
 C 0.2923 0.8846 0.9732   0.01055
 C 0.225 0.874 0.9311   -0.103856
 C 0.3579 0.8189 0.9787   0.117707
 C 0.3754 0.763 0.931   -0.189556
 C 0.4338 0.699 0.94   0.163769
 C 0.46 0.7414 0.0375   0.179095
 C 0.4029 0.8074 0.0326   -0.217816
 N 0.3751 0.3797 0.5878   -0.344022
 N 0.0447 0.0057 0.6845   -0.233236
 N 0.0115 0.9451 0.6445   -0.302585
 N 0.1491 0.9429 0.638   0.093129
 N 0.2301 0.9261 0.6161   -0.559656
 N 0.3134 0.5245 0.5068   -0.361823
 N 0.6249 0.6203 0.0878   -0.344022
 N 0.9553 0.9943 0.1845   -0.233236
 N 0.9885 0.0549 0.1445   -0.302585
 N 0.8509 0.0571 0.138   0.093129
 N 0.7699 0.0739 0.1161   -0.559656
 N 0.6866 0.4755 0.0068   -0.361823
 N 0.1203 0.8751 0.3378   -0.344022
 N 0.4943 0.5447 0.4345   -0.233236
 N 0.5549 0.5115 0.3945   -0.302585
 N 0.5571 0.6491 0.388   0.093129
 N 0.5739 0.7301 0.3661   -0.559656
 N 0.9755 0.8134 0.2568   -0.361823
 N 0.8797 0.1249 0.8378   -0.344022
 N 0.5057 0.4553 0.9345   -0.233236
 N 0.4451 0.4885 0.8945   -0.302585
 N 0.4429 0.3509 0.888   0.093129
 N 0.4261 0.2699 0.8661   -0.559656
 N 0.0245 0.1866 0.7568   -0.361823
 N 0.1249 0.8797 0.1622   -0.344022
 N 0.4553 0.5057 0.0655   -0.233236
 N 0.4885 0.4451 0.1055   -0.302585
 N 0.3509 0.4429 0.112   0.093129
 N 0.2699 0.4261 0.1339   -0.559656
 N 0.1866 0.0245 0.2432   -0.361823
 N 0.8751 0.1203 0.6622   -0.344022
 N 0.5447 0.4943 0.5655   -0.233236
 N 0.5115 0.5549 0.6055   -0.302585
 N 0.6491 0.5571 0.612   0.093129
 N 0.7301 0.5739 0.6339   -0.559656
 N 0.8134 0.9755 0.7432   -0.361823
 N 0.3797 0.3751 0.4122   -0.344022
 N 0.0057 0.0447 0.3155   -0.233236
 N 0.9451 0.0115 0.3555   -0.302585
 N 0.9429 0.1491 0.362   0.093129
 N 0.9261 0.2301 0.3839   -0.559656
 N 0.5245 0.3134 0.4932   -0.361823
 N 0.6203 0.6249 0.9122   -0.344022
 N 0.9943 0.9553 0.8155   -0.233236
 N 0.0549 0.9885 0.8555   -0.302585
 N 0.0571 0.8509 0.862   0.093129
 N 0.0739 0.7699 0.8839   -0.559656
 N 0.4755 0.6866 0.9932   -0.361823
 Cl 0.37916 0.62084 0.25   1.525811
 Cl 0.62084 0.37916 0.75   1.525811
 Cl 0.87916 0.87916 0.0   1.525811
 Cl 0.12084 0.12084 0.5   1.525811
 Cl 0.26923 0.26923 0.0   1.424393
 Cl 0.73077 0.73077 0.5   1.424393
 Cl 0.23077 0.76923 0.75   1.424393
 Cl 0.76923 0.23077 0.25   1.424393
 O 0.405 0.6619 0.1911   -0.612989
 O 0.3383 0.5601 0.2184   -0.538425
 O 0.3381 0.595 0.3089   -0.612988
 O 0.4399 0.6617 0.2816   -0.538425
 O 0.595 0.3381 0.6911   -0.612989
 O 0.6617 0.4399 0.7184   -0.538425
 O 0.6619 0.405 0.8089   -0.612988
 O 0.5601 0.3383 0.7816   -0.538425
 O 0.8381 0.905 0.9411   -0.612989
 O 0.9399 0.8383 0.9684   -0.538425
 O 0.905 0.8381 0.0589   -0.612988
 O 0.8383 0.9399 0.0316   -0.538425
 O 0.1619 0.095 0.4411   -0.612989
 O 0.0601 0.1617 0.4684   -0.538425
 O 0.095 0.1619 0.5589   -0.612988
 O 0.1617 0.0601 0.5316   -0.538425
 O 0.2355 0.235 0.9483   -0.591414
 O 0.3439 0.2177 0.996   -0.525434
 O 0.235 0.2355 0.0517   -0.591414
 O 0.2177 0.3439 0.004   -0.525434
 O 0.7645 0.765 0.4483   -0.591414
 O 0.6561 0.7823 0.496   -0.525434
 O 0.765 0.7645 0.5517   -0.591414
 O 0.7823 0.6561 0.504   -0.525434
 O 0.265 0.7355 0.6983   -0.591414
 O 0.2823 0.8439 0.746   -0.525434
 O 0.2645 0.735 0.8017   -0.591414
 O 0.1561 0.7177 0.754   -0.525434
 O 0.735 0.2645 0.1983   -0.591414
 O 0.7177 0.1561 0.246   -0.525434
 O 0.7355 0.265 0.3017   -0.591414
 O 0.8439 0.2823 0.254   -0.525434
