{'_ref': 'TBD', '_srcid': 'CAKYAQ_clean', 'submitters': [{'name': 'Dalar Nazarian Jeff Camp and David Sholl', 'email': 'dalar@gatech.edu jcamp6@gatech.edu'}], '_method': 'VASP DFT with PBE;DDEC'}
data_CdH36C48N12ClO4
_symmetry_space_group_name_H-M   'P 1'
_cell_length_a   15.82600000
_cell_length_b   15.82600000
_cell_length_c   21.63900000
_cell_angle_alpha   90.00000000
_cell_angle_beta   90.00000000
_cell_angle_gamma   90.00000000
_symmetry_Int_Tables_number   1
_chemical_formula_structural   CdH36C48N12ClO4
_chemical_formula_sum   'Cd4 H144 C192 N48 Cl4 O16'
_cell_volume   5419.75319036
_cell_formula_units_Z   4
loop_
 _symmetry_equiv_pos_site_id
 _symmetry_equiv_pos_as_xyz
  1  'x, y, z'
loop_
 _atom_site_label
 _atom_site_fract_x
 _atom_site_fract_y
 _atom_site_fract_z
 _atom_site_charge
 Cd 0.05803 0.94197 0.25   0.796206
 Cd 0.94197 0.05803 0.75   0.796206
 Cd 0.55803 0.55803 0.5   0.796206
 Cd 0.44197 0.44197 0.0   0.796206
 H 0.5364 0.6111 0.3492   0.060704
 H 0.5837 0.7173 0.2856   0.112931
 H 0.7866 0.7428 0.3964   0.121051
 H 0.7246 0.6422 0.4616   0.053802
 H 0.6519 0.796 0.219   0.070341
 H 0.7044 0.9073 0.1642   0.101348
 H 0.8032 0.000799999999998 0.2058   0.105607
 H 0.7978 0.8639 0.3649   0.092145
 H 0.0464 0.1189 0.4607   0.104597
 H 0.0651 0.2313 0.5303   0.110992
 H 0.9624 0.3331 0.539   0.093808
 H 0.8251 0.2226 0.4055   0.094963
 H 0.7663 0.3475 0.392   0.138574
 H 0.6622 0.4445 0.4063   0.054776
 H 0.7376 0.4902 0.5747   0.04281
 H 0.8466 0.3944 0.5649   0.119113
 H 0.7498 0.0307 0.4056   0.307827
 H 0.7356 0.0838 0.35   0.318773
 H 0.4636 0.3889 0.8492   0.060704
 H 0.4163 0.2827 0.7856   0.112931
 H 0.2134 0.2572 0.8964   0.121051
 H 0.2754 0.3578 0.9616   0.053802
 H 0.3481 0.204 0.719   0.070341
 H 0.2956 0.0927 0.6642   0.101348
 H 0.1968 0.9992 0.7058   0.105607
 H 0.2022 0.1361 0.8649   0.092145
 H 0.9536 0.8811 0.9607   0.104597
 H 0.9349 0.7687 0.0303   0.110992
 H 0.0376 0.6669 0.039   0.093808
 H 0.1749 0.7774 0.9055   0.094963
 H 0.2337 0.6525 0.892   0.138574
 H 0.3378 0.5555 0.9063   0.054776
 H 0.2624 0.5098 0.0747   0.04281
 H 0.1534 0.6056 0.0649   0.119113
 H 0.2502 0.9693 0.9056   0.307827
 H 0.2644 0.9162 0.85   0.318773
 H 0.8889 0.0364 0.5992   0.060704
 H 0.7827 0.0837 0.5356   0.112932
 H 0.7572 0.2866 0.6464   0.121051
 H 0.8578 0.2246 0.7116   0.053802
 H 0.704 0.1519 0.469   0.070341
 H 0.5927 0.2044 0.4142   0.101347
 H 0.4992 0.3032 0.4558   0.105607
 H 0.6361 0.2978 0.6149   0.092145
 H 0.3811 0.5464 0.7107   0.104597
 H 0.2687 0.5651 0.7803   0.110992
 H 0.1669 0.4624 0.789   0.093808
 H 0.2774 0.3251 0.6555   0.094963
 H 0.1525 0.2663 0.642   0.138574
 H 0.0555 0.1622 0.6563   0.054776
 H 0.0098 0.2376 0.8247   0.04281
 H 0.1056 0.3466 0.8149   0.119113
 H 0.4693 0.2498 0.6556   0.307828
 H 0.4162 0.2356 0.6   0.318773
 H 0.1111 0.9636 0.0992   0.060704
 H 0.2173 0.9163 0.0356   0.112932
 H 0.2428 0.7134 0.1464   0.121051
 H 0.1422 0.7754 0.2116   0.053802
 H 0.296 0.8481 0.969   0.070341
 H 0.4073 0.7956 0.9142   0.101347
 H 0.5008 0.6968 0.9558   0.105607
 H 0.3639 0.7022 0.1149   0.092145
 H 0.6189 0.4536 0.2107   0.104597
 H 0.7313 0.4349 0.2803   0.110992
 H 0.8331 0.5376 0.289   0.093808
 H 0.7226 0.6749 0.1555   0.094963
 H 0.8475 0.7337 0.142   0.138574
 H 0.9445 0.8378 0.1563   0.054776
 H 0.9902 0.7624 0.3247   0.04281
 H 0.8944 0.6534 0.3149   0.119113
 H 0.5307 0.7502 0.1556   0.307828
 H 0.5838 0.7644 0.1   0.318773
 H 0.9636 0.1111 0.9008   0.060705
 H 0.9163 0.2173 0.9644   0.112931
 H 0.7134 0.2428 0.8536   0.121052
 H 0.7754 0.1422 0.7884   0.053802
 H 0.8481 0.296 0.031   0.070341
 H 0.7956 0.4073 0.0858   0.101348
 H 0.6968 0.5008 0.0442   0.105608
 H 0.7022 0.3639 0.8851   0.092146
 H 0.4536 0.6189 0.7893   0.104597
 H 0.4349 0.7313 0.7197   0.110992
 H 0.5376 0.8331 0.711   0.093808
 H 0.6749 0.7226 0.8445   0.094963
 H 0.7337 0.8475 0.858   0.138574
 H 0.8378 0.9445 0.8437   0.054776
 H 0.7624 0.9902 0.6753   0.04281
 H 0.6534 0.8944 0.6851   0.119113
 H 0.7502 0.5307 0.8444   0.307827
 H 0.7644 0.5838 0.9   0.318773
 H 0.0364 0.8889 0.4008   0.060705
 H 0.0837 0.7827 0.4644   0.112931
 H 0.2866 0.7572 0.3536   0.121052
 H 0.2246 0.8578 0.2884   0.053802
 H 0.1519 0.704 0.531   0.070341
 H 0.2044 0.5927 0.5858   0.101348
 H 0.3032 0.4992 0.5442   0.105608
 H 0.2978 0.6361 0.3851   0.092146
 H 0.5464 0.3811 0.2893   0.104597
 H 0.5651 0.2687 0.2197   0.110992
 H 0.4624 0.1669 0.211   0.093808
 H 0.3251 0.2774 0.3445   0.094963
 H 0.2663 0.1525 0.358   0.138574
 H 0.1622 0.0555 0.3437   0.054776
 H 0.2376 0.0098 0.1753   0.04281
 H 0.3466 0.1056 0.1851   0.119113
 H 0.2498 0.4693 0.3444   0.307827
 H 0.2356 0.4162 0.4   0.318773
 H 0.6111 0.5364 0.6508   0.060705
 H 0.7173 0.5837 0.7144   0.112932
 H 0.7428 0.7866 0.6036   0.121052
 H 0.6422 0.7246 0.5384   0.053802
 H 0.796 0.6519 0.781   0.070341
 H 0.9073 0.7044 0.8358   0.101347
 H 0.000799999999998 0.8032 0.7942   0.105608
 H 0.8639 0.7978 0.6351   0.092146
 H 0.1189 0.0464 0.5393   0.104597
 H 0.2313 0.0651 0.4697   0.110992
 H 0.3331 0.9624 0.461   0.093808
 H 0.2226 0.8251 0.5945   0.094963
 H 0.3475 0.7663 0.608   0.138574
 H 0.4445 0.6622 0.5937   0.054776
 H 0.4902 0.7376 0.4253   0.04281
 H 0.3944 0.8466 0.4351   0.119112
 H 0.0307 0.7498 0.5944   0.307828
 H 0.0838 0.7356 0.65   0.318773
 H 0.3889 0.4636 0.1508   0.060705
 H 0.2827 0.4163 0.2144   0.112932
 H 0.2572 0.2134 0.1036   0.121052
 H 0.3578 0.2754 0.0384   0.053802
 H 0.204 0.3481 0.281   0.070341
 H 0.0927 0.2956 0.3358   0.101347
 H 0.9992 0.1968 0.2942   0.105608
 H 0.1361 0.2022 0.1351   0.092146
 H 0.8811 0.9536 0.0393   0.104597
 H 0.7687 0.9349 0.9697   0.110992
 H 0.6669 0.0376 0.961   0.093808
 H 0.7774 0.1749 0.0945   0.094963
 H 0.6525 0.2337 0.108   0.138574
 H 0.5555 0.3378 0.0937   0.054776
 H 0.5098 0.2624 0.9253   0.04281
 H 0.6056 0.1534 0.9351   0.119112
 H 0.9693 0.2502 0.0944   0.307828
 H 0.9162 0.2644 0.15   0.318773
 C 0.5863 0.6406 0.3605   0.147431
 C 0.615 0.7035 0.3217   -0.213976
 C 0.6881 0.7463 0.3346   0.093752
 C 0.7329 0.7197 0.3868   -0.240279
 C 0.6958 0.6575 0.4247   0.141841
 C 0.7193 0.8195 0.2988   0.011217
 C 0.692 0.8329 0.2374   -0.100355
 C 0.7235 0.8988 0.2053   -0.062513
 C 0.7824 0.9546 0.2292   -0.110226
 C 0.81 0.9393 0.2908   -0.043169
 C 0.7785 0.8731 0.3239   -0.16665
 C 0.8722 0.9963 0.3205   0.238291
 C 0.9243 0.0909 0.3818   0.238505
 C 0.9321 0.1615 0.4269   -0.036998
 C 0.0053 0.1625 0.464   -0.100949
 C 0.016 0.2285 0.5051   -0.070332
 C 0.9553 0.2896 0.5092   -0.111338
 C 0.8846 0.2917 0.4727   0.014338
 C 0.8739 0.2243 0.4311   -0.106906
 C 0.8193 0.358 0.4783   0.106705
 C 0.7617 0.3758 0.4306   -0.211539
 C 0.6995 0.4335 0.4398   0.169767
 C 0.7429 0.4602 0.5369   0.15284
 C 0.8087 0.4026 0.5314   -0.224887
 C 0.4137 0.3594 0.8605   0.147431
 C 0.385 0.2965 0.8217   -0.213976
 C 0.3119 0.2537 0.8346   0.093752
 C 0.2671 0.2803 0.8868   -0.240279
 C 0.3042 0.3425 0.9247   0.141841
 C 0.2807 0.1805 0.7988   0.011217
 C 0.308 0.1671 0.7374   -0.100355
 C 0.2765 0.1012 0.7053   -0.062513
 C 0.2176 0.0454 0.7292   -0.110226
 C 0.19 0.0607 0.7908   -0.043169
 C 0.2215 0.1269 0.8239   -0.16665
 C 0.1278 0.0037 0.8205   0.238291
 C 0.0757 0.9091 0.8818   0.238505
 C 0.0679 0.8385 0.9269   -0.036998
 C 0.9947 0.8375 0.964   -0.100949
 C 0.984 0.7715 0.0051   -0.070332
 C 0.0447 0.7104 0.0092   -0.111338
 C 0.1154 0.7083 0.9727   0.014338
 C 0.1261 0.7757 0.9311   -0.106906
 C 0.1807 0.642 0.9783   0.106705
 C 0.2383 0.6242 0.9306   -0.211539
 C 0.3005 0.5665 0.9398   0.169767
 C 0.2571 0.5398 0.0369   0.15284
 C 0.1913 0.5974 0.0314   -0.224887
 C 0.8594 0.0863 0.6105   0.147431
 C 0.7965 0.115 0.5717   -0.213976
 C 0.7537 0.1881 0.5846   0.093752
 C 0.7803 0.2329 0.6368   -0.240279
 C 0.8425 0.1958 0.6747   0.141841
 C 0.6805 0.2193 0.5488   0.011217
 C 0.6671 0.192 0.4874   -0.100355
 C 0.6012 0.2235 0.4553   -0.062513
 C 0.5454 0.2824 0.4792   -0.110226
 C 0.5607 0.31 0.5408   -0.043169
 C 0.6269 0.2785 0.5739   -0.16665
 C 0.5037 0.3722 0.5705   0.238291
 C 0.4091 0.4243 0.6318   0.238505
 C 0.3385 0.4321 0.6769   -0.036998
 C 0.3375 0.5053 0.714   -0.100949
 C 0.2715 0.516 0.7551   -0.070332
 C 0.2104 0.4553 0.7592   -0.111338
 C 0.2083 0.3846 0.7227   0.014338
 C 0.2757 0.3739 0.6811   -0.106906
 C 0.142 0.3193 0.7283   0.106705
 C 0.1242 0.2617 0.6806   -0.211538
 C 0.0665 0.1995 0.6898   0.169767
 C 0.0398 0.2429 0.7869   0.15284
 C 0.0974 0.3087 0.7814   -0.224887
 C 0.1406 0.9137 0.1105   0.147431
 C 0.2035 0.885 0.0717   -0.213976
 C 0.2463 0.8119 0.0846   0.093752
 C 0.2197 0.7671 0.1368   -0.240279
 C 0.1575 0.8042 0.1747   0.141841
 C 0.3195 0.7807 0.0488   0.011217
 C 0.3329 0.808 0.9874   -0.100355
 C 0.3988 0.7765 0.9553   -0.062513
 C 0.4546 0.7176 0.9792   -0.110226
 C 0.4393 0.69 0.0408   -0.043169
 C 0.3731 0.7215 0.0739   -0.16665
 C 0.4963 0.6278 0.0705   0.238291
 C 0.5909 0.5757 0.1318   0.238505
 C 0.6615 0.5679 0.1769   -0.036998
 C 0.6625 0.4947 0.214   -0.100949
 C 0.7285 0.484 0.2551   -0.070332
 C 0.7896 0.5447 0.2592   -0.111338
 C 0.7917 0.6154 0.2227   0.014338
 C 0.7243 0.6261 0.1811   -0.106906
 C 0.858 0.6807 0.2283   0.106705
 C 0.8758 0.7383 0.1806   -0.211538
 C 0.9335 0.8005 0.1898   0.169767
 C 0.9602 0.7571 0.2869   0.15284
 C 0.9026 0.6913 0.2814   -0.224887
 C 0.9137 0.1406 0.8895   0.14743
 C 0.885 0.2035 0.9283   -0.213976
 C 0.8119 0.2463 0.9154   0.093752
 C 0.7671 0.2197 0.8632   -0.24028
 C 0.8042 0.1575 0.8253   0.141841
 C 0.7807 0.3195 0.9512   0.011217
 C 0.808 0.3329 0.0126   -0.100356
 C 0.7765 0.3988 0.0447   -0.062513
 C 0.7176 0.4546 0.0208   -0.110226
 C 0.69 0.4393 0.9592   -0.043169
 C 0.7215 0.3731 0.9261   -0.166651
 C 0.6278 0.4963 0.9295   0.238291
 C 0.5757 0.5909 0.8682   0.238505
 C 0.5679 0.6615 0.8231   -0.036998
 C 0.4947 0.6625 0.786   -0.100949
 C 0.484 0.7285 0.7449   -0.070332
 C 0.5447 0.7896 0.7408   -0.111338
 C 0.6154 0.7917 0.7773   0.014338
 C 0.6261 0.7243 0.8189   -0.106906
 C 0.6807 0.858 0.7717   0.106705
 C 0.7383 0.8758 0.8194   -0.211539
 C 0.8005 0.9335 0.8102   0.169767
 C 0.7571 0.9602 0.7131   0.15284
 C 0.6913 0.9026 0.7186   -0.224887
 C 0.0863 0.8594 0.3895   0.14743
 C 0.115 0.7965 0.4283   -0.213976
 C 0.1881 0.7537 0.4154   0.093752
 C 0.2329 0.7803 0.3632   -0.24028
 C 0.1958 0.8425 0.3253   0.141841
 C 0.2193 0.6805 0.4512   0.011217
 C 0.192 0.6671 0.5126   -0.100356
 C 0.2235 0.6012 0.5447   -0.062513
 C 0.2824 0.5454 0.5208   -0.110226
 C 0.31 0.5607 0.4592   -0.043169
 C 0.2785 0.6269 0.4261   -0.166651
 C 0.3722 0.5037 0.4295   0.238291
 C 0.4243 0.4091 0.3682   0.238505
 C 0.4321 0.3385 0.3231   -0.036998
 C 0.5053 0.3375 0.286   -0.100949
 C 0.516 0.2715 0.2449   -0.070332
 C 0.4553 0.2104 0.2408   -0.111338
 C 0.3846 0.2083 0.2773   0.014338
 C 0.3739 0.2757 0.3189   -0.106906
 C 0.3193 0.142 0.2717   0.106705
 C 0.2617 0.1242 0.3194   -0.211539
 C 0.1995 0.0665 0.3102   0.169767
 C 0.2429 0.0398 0.2131   0.15284
 C 0.3087 0.0974 0.2186   -0.224887
 C 0.6406 0.5863 0.6395   0.14743
 C 0.7035 0.615 0.6783   -0.213976
 C 0.7463 0.6881 0.6654   0.093752
 C 0.7197 0.7329 0.6132   -0.24028
 C 0.6575 0.6958 0.5753   0.141841
 C 0.8195 0.7193 0.7012   0.011217
 C 0.8329 0.692 0.7626   -0.100356
 C 0.8988 0.7235 0.7947   -0.062513
 C 0.9546 0.7824 0.7708   -0.110226
 C 0.9393 0.81 0.7092   -0.043169
 C 0.8731 0.7785 0.6761   -0.166651
 C 0.9963 0.8722 0.6795   0.238291
 C 0.0909 0.9243 0.6182   0.238505
 C 0.1615 0.9321 0.5731   -0.036998
 C 0.1625 0.0053 0.536   -0.100949
 C 0.2285 0.016 0.4949   -0.070332
 C 0.2896 0.9553 0.4908   -0.111338
 C 0.2917 0.8846 0.5273   0.014338
 C 0.2243 0.8739 0.5689   -0.106906
 C 0.358 0.8193 0.5217   0.106705
 C 0.3758 0.7617 0.5694   -0.211538
 C 0.4335 0.6995 0.5602   0.169767
 C 0.4602 0.7429 0.4631   0.15284
 C 0.4026 0.8087 0.4686   -0.224887
 C 0.3594 0.4137 0.1395   0.14743
 C 0.2965 0.385 0.1783   -0.213976
 C 0.2537 0.3119 0.1654   0.093752
 C 0.2803 0.2671 0.1132   -0.24028
 C 0.3425 0.3042 0.0753   0.141841
 C 0.1805 0.2807 0.2012   0.011217
 C 0.1671 0.308 0.2626   -0.100356
 C 0.1012 0.2765 0.2947   -0.062513
 C 0.0454 0.2176 0.2708   -0.110226
 C 0.0607 0.19 0.2092   -0.043169
 C 0.1269 0.2215 0.1761   -0.166651
 C 0.0037 0.1278 0.1795   0.238291
 C 0.9091 0.0757 0.1182   0.238505
 C 0.8385 0.0679 0.0731   -0.036998
 C 0.8375 0.9947 0.036   -0.100949
 C 0.7715 0.984 0.9949   -0.070332
 C 0.7104 0.0447 0.9908   -0.111338
 C 0.7083 0.1154 0.0273   0.014338
 C 0.7757 0.1261 0.0689   -0.106906
 C 0.642 0.1807 0.0217   0.106705
 C 0.6242 0.2383 0.0694   -0.211538
 C 0.5665 0.3005 0.0602   0.169767
 C 0.5398 0.2571 0.9631   0.15284
 C 0.5974 0.1913 0.9686   -0.224887
 N 0.6242 0.6192 0.4123   -0.346169
 N 0.9546 0.9938 0.3152   -0.239079
 N 0.9881 0.0548 0.3546   -0.290326
 N 0.8506 0.056 0.3621   0.103527
 N 0.7699 0.0749 0.3831   -0.548152
 N 0.6867 0.4761 0.4925   -0.372239
 N 0.3758 0.3808 0.9123   -0.346169
 N 0.0454 0.0062 0.8152   -0.239079
 N 0.0119 0.9452 0.8546   -0.290326
 N 0.1494 0.944 0.8621   0.103527
 N 0.2301 0.9251 0.8831   -0.548152
 N 0.3133 0.5239 0.9925   -0.372239
 N 0.8808 0.1242 0.6623   -0.346169
 N 0.5062 0.4546 0.5652   -0.239079
 N 0.4452 0.4881 0.6046   -0.290326
 N 0.444 0.3506 0.6121   0.103527
 N 0.4251 0.2699 0.6331   -0.548152
 N 0.0239 0.1867 0.7425   -0.372239
 N 0.1192 0.8758 0.1623   -0.346169
 N 0.4938 0.5454 0.0652   -0.239079
 N 0.5548 0.5119 0.1046   -0.290326
 N 0.556 0.6494 0.1121   0.103527
 N 0.5749 0.7301 0.1331   -0.548152
 N 0.9761 0.8133 0.2425   -0.372239
 N 0.8758 0.1192 0.8377   -0.346169
 N 0.5454 0.4938 0.9348   -0.239079
 N 0.5119 0.5548 0.8954   -0.290326
 N 0.6494 0.556 0.8879   0.103527
 N 0.7301 0.5749 0.8669   -0.548152
 N 0.8133 0.9761 0.7575   -0.372239
 N 0.1242 0.8808 0.3377   -0.346169
 N 0.4546 0.5062 0.4348   -0.239079
 N 0.4881 0.4452 0.3954   -0.290326
 N 0.3506 0.444 0.3879   0.103527
 N 0.2699 0.4251 0.3669   -0.548152
 N 0.1867 0.0239 0.2575   -0.372239
 N 0.6192 0.6242 0.5877   -0.346169
 N 0.9938 0.9546 0.6848   -0.239079
 N 0.0548 0.9881 0.6454   -0.290326
 N 0.056 0.8506 0.6379   0.103527
 N 0.0749 0.7699 0.6169   -0.548152
 N 0.4761 0.6867 0.5075   -0.372239
 N 0.3808 0.3758 0.0877   -0.346169
 N 0.0062 0.0454 0.1848   -0.239079
 N 0.9452 0.0119 0.1454   -0.290326
 N 0.944 0.1494 0.1379   0.103527
 N 0.9251 0.2301 0.1169   -0.548152
 N 0.5239 0.3133 0.0075   -0.372239
 Cl 0.73045 0.73045 0.0   1.796894
 Cl 0.26955 0.26955 0.5   1.796894
 Cl 0.76955 0.23045 0.25   1.796894
 Cl 0.23045 0.76955 0.75   1.796894
 O 0.7658 0.7632 0.0523   -0.641322
 O 0.724 0.6606 0.0026   -0.581529
 O 0.7632 0.7658 0.9477   -0.641322
 O 0.6606 0.724 0.9974   -0.581514
 O 0.2342 0.2368 0.5523   -0.641322
 O 0.276 0.3394 0.5026   -0.581529
 O 0.2368 0.2342 0.4477   -0.641322
 O 0.3394 0.276 0.4974   -0.581514
 O 0.7368 0.2658 0.3023   -0.641322
 O 0.8394 0.224 0.2526   -0.581529
 O 0.7342 0.2632 0.1977   -0.641322
 O 0.776 0.1606 0.2474   -0.581514
 O 0.2632 0.7342 0.8023   -0.641322
 O 0.1606 0.776 0.7526   -0.581529
 O 0.2658 0.7368 0.6977   -0.641322
 O 0.224 0.8394 0.7474   -0.581514
