{'_ref': 'TBD', '_srcid': 'CAKYAQ_clean', 'submitters': [{'name': 'Dalar Nazarian Jeff Camp and David Sholl', 'email': 'dalar@gatech.edu jcamp6@gatech.edu'}], '_method': 'VASP DFT with PBE;DDEC'}
data_CdH36C48N12(ClO4)2
_symmetry_space_group_name_H-M   'P 1'
_cell_length_a   15.84400000
_cell_length_b   15.84400000
_cell_length_c   21.83700000
_cell_angle_alpha   90.00000000
_cell_angle_beta   90.00000000
_cell_angle_gamma   90.00000000
_symmetry_Int_Tables_number   1
_chemical_formula_structural   CdH36C48N12(ClO4)2
_chemical_formula_sum   'Cd4 H144 C192 N48 Cl8 O32'
_cell_volume   5481.79312123
_cell_formula_units_Z   4
loop_
 _symmetry_equiv_pos_site_id
 _symmetry_equiv_pos_as_xyz
  1  'x, y, z'
loop_
 _atom_site_label
 _atom_site_fract_x
 _atom_site_fract_y
 _atom_site_fract_z
 _atom_site_charge
 Cd 0.94228 0.05772 0.75   0.7966
 Cd 0.05772 0.94228 0.25   0.7966
 Cd 0.44228 0.44228 0.5   0.7966
 Cd 0.55772 0.55772 0.0   0.7966
 H 0.4639 0.3886 0.6503   0.080328
 H 0.416 0.2865 0.7144   0.134327
 H 0.2153 0.2597 0.6044   0.130346
 H 0.2725 0.3592 0.5414   0.072326
 H 0.3475 0.2033 0.7794   0.077896
 H 0.2952 0.0926 0.8348   0.112866
 H 0.1993 0.9995 0.7925   0.092099
 H 0.2041 0.1355 0.6371   0.114301
 H 0.9569 0.8809 0.5403   0.107579
 H 0.9385 0.7712 0.4704   0.118791
 H 0.0384 0.6665 0.4621   0.106058
 H 0.1742 0.7759 0.5946   0.09733
 H 0.1552 0.6042 0.4365   0.13011
 H 0.266 0.5122 0.4267   0.06282
 H 0.3373 0.5555 0.5937   0.059223
 H 0.233 0.6517 0.6072   0.141806
 H 0.2568 0.9748 0.6088   0.322793
 H 0.2599 0.8985 0.6456   0.301691
 H 0.5361 0.6114 0.1503   0.080328
 H 0.584 0.7135 0.2144   0.134327
 H 0.7847 0.7403 0.1044   0.130346
 H 0.7275 0.6408 0.0414   0.072326
 H 0.6525 0.7967 0.2794   0.077896
 H 0.7048 0.9074 0.3348   0.112866
 H 0.8007 0.000500000000002 0.2925   0.092099
 H 0.7959 0.8645 0.1371   0.114301
 H 0.0431 0.1191 0.0403   0.107579
 H 0.0615 0.2288 0.9704   0.118791
 H 0.9616 0.3335 0.9621   0.106058
 H 0.8258 0.2241 0.0946   0.09733
 H 0.8448 0.3958 0.9365   0.13011
 H 0.734 0.4878 0.9267   0.06282
 H 0.6627 0.4445 0.0937   0.059223
 H 0.767 0.3483 0.1072   0.141806
 H 0.7432 0.0252 0.1088   0.322793
 H 0.7401 0.1015 0.1456   0.301691
 H 0.1114 0.9639 0.4003   0.080328
 H 0.2135 0.916 0.4644   0.134327
 H 0.2403 0.7153 0.3544   0.130346
 H 0.1408 0.7725 0.2914   0.072326
 H 0.2967 0.8475 0.5294   0.077896
 H 0.4074 0.7952 0.5848   0.112866
 H 0.5005 0.6993 0.5425   0.092099
 H 0.3645 0.7041 0.3871   0.114301
 H 0.6191 0.4569 0.2903   0.107579
 H 0.7288 0.4385 0.2204   0.11879
 H 0.8335 0.5384 0.2121   0.106058
 H 0.7241 0.6742 0.3446   0.09733
 H 0.8958 0.6552 0.1865   0.130111
 H 0.9878 0.766 0.1767   0.06282
 H 0.9445 0.8373 0.3437   0.059223
 H 0.8483 0.733 0.3572   0.141806
 H 0.5252 0.7568 0.3588   0.322793
 H 0.6015 0.7599 0.3956   0.301691
 H 0.8886 0.0361 0.9003   0.080328
 H 0.7865 0.084 0.9644   0.134327
 H 0.7597 0.2847 0.8544   0.130346
 H 0.8592 0.2275 0.7914   0.072326
 H 0.7033 0.1525 0.0294   0.077896
 H 0.5926 0.2048 0.0848   0.112866
 H 0.4995 0.3007 0.0425   0.092099
 H 0.6355 0.2959 0.8871   0.114301
 H 0.3809 0.5431 0.7903   0.107579
 H 0.2712 0.5615 0.7204   0.11879
 H 0.1665 0.4616 0.7121   0.106058
 H 0.2759 0.3258 0.8446   0.09733
 H 0.1042 0.3448 0.6865   0.130111
 H 0.0122 0.234 0.6767   0.06282
 H 0.0555 0.1627 0.8437   0.059223
 H 0.1517 0.267 0.8572   0.141806
 H 0.4748 0.2432 0.8588   0.322793
 H 0.3985 0.2401 0.8956   0.301691
 H 0.0361 0.8886 0.0997   0.080328
 H 0.084 0.7865 0.0356   0.134327
 H 0.2847 0.7597 0.1456   0.130346
 H 0.2275 0.8592 0.2086   0.072326
 H 0.1525 0.7033 0.9706   0.077896
 H 0.2048 0.5926 0.9152   0.112866
 H 0.3007 0.4995 0.9575   0.092099
 H 0.2959 0.6355 0.1129   0.114301
 H 0.5431 0.3809 0.2097   0.107579
 H 0.5615 0.2712 0.2796   0.11879
 H 0.4616 0.1665 0.2879   0.106058
 H 0.3258 0.2759 0.1554   0.09733
 H 0.3448 0.1042 0.3135   0.13011
 H 0.234 0.0122 0.3233   0.06282
 H 0.1627 0.0555 0.1563   0.059223
 H 0.267 0.1517 0.1428   0.141806
 H 0.2432 0.4748 0.1412   0.322793
 H 0.2401 0.3985 0.1044   0.301691
 H 0.9639 0.1114 0.5997   0.080328
 H 0.916 0.2135 0.5356   0.134327
 H 0.7153 0.2403 0.6456   0.130346
 H 0.7725 0.1408 0.7086   0.072326
 H 0.8475 0.2967 0.4706   0.077896
 H 0.7952 0.4074 0.4152   0.112866
 H 0.6993 0.5005 0.4575   0.092099
 H 0.7041 0.3645 0.6129   0.114301
 H 0.4569 0.6191 0.7097   0.107579
 H 0.4385 0.7288 0.7796   0.11879
 H 0.5384 0.8335 0.7879   0.106058
 H 0.6742 0.7241 0.6554   0.09733
 H 0.6552 0.8958 0.8135   0.13011
 H 0.766 0.9878 0.8233   0.06282
 H 0.8373 0.9445 0.6563   0.059223
 H 0.733 0.8483 0.6428   0.141806
 H 0.7568 0.5252 0.6412   0.322793
 H 0.7599 0.6015 0.6044   0.301691
 H 0.3886 0.4639 0.3497   0.080328
 H 0.2865 0.416 0.2856   0.134327
 H 0.2597 0.2153 0.3956   0.130346
 H 0.3592 0.2725 0.4586   0.072326
 H 0.2033 0.3475 0.2206   0.077896
 H 0.0926 0.2952 0.1652   0.112866
 H 0.9995 0.1993 0.2075   0.092099
 H 0.1355 0.2041 0.3629   0.114301
 H 0.8809 0.9569 0.4597   0.107579
 H 0.7712 0.9385 0.5296   0.11879
 H 0.6665 0.0384 0.5379   0.106058
 H 0.7759 0.1742 0.4054   0.09733
 H 0.6042 0.1552 0.5635   0.130111
 H 0.5122 0.266 0.5733   0.06282
 H 0.5555 0.3373 0.4063   0.059223
 H 0.6517 0.233 0.3928   0.141806
 H 0.9748 0.2568 0.3912   0.322793
 H 0.8985 0.2599 0.3544   0.301691
 H 0.6114 0.5361 0.8497   0.080328
 H 0.7135 0.584 0.7856   0.134327
 H 0.7403 0.7847 0.8956   0.130346
 H 0.6408 0.7275 0.9586   0.072326
 H 0.7967 0.6525 0.7206   0.077896
 H 0.9074 0.7048 0.6652   0.112866
 H 0.000500000000002 0.8007 0.7075   0.092099
 H 0.8645 0.7959 0.8629   0.114301
 H 0.1191 0.0431 0.9597   0.107579
 H 0.2288 0.0615 0.0296   0.11879
 H 0.3335 0.9616 0.0379   0.106058
 H 0.2241 0.8258 0.9054   0.09733
 H 0.3958 0.8448 0.0635   0.130111
 H 0.4878 0.734 0.0733   0.06282
 H 0.4445 0.6627 0.9063   0.059223
 H 0.3483 0.767 0.8928   0.141806
 H 0.0252 0.7432 0.8912   0.322793
 H 0.1015 0.7401 0.8544   0.301691
 C 0.4151 0.3595 0.6396   0.167593
 C 0.3863 0.2985 0.6787   -0.19022
 C 0.3116 0.2537 0.6651   0.105597
 C 0.2681 0.2821 0.6136   -0.192966
 C 0.3024 0.3428 0.5761   0.144087
 C 0.2808 0.1813 0.7027   0.00822
 C 0.3079 0.1673 0.7618   -0.067255
 C 0.2769 0.1007 0.7948   -0.072325
 C 0.2189 0.0452 0.7699   -0.056237
 C 0.19 0.0594 0.7099   -0.056709
 C 0.2221 0.1267 0.6771   -0.116486
 C 0.1275 0.0038 0.6803   0.248501
 C 0.0763 0.9084 0.6178   0.259888
 C 0.0685 0.8393 0.574   -0.019645
 C 0.997 0.8383 0.5372   -0.067812
 C 0.9861 0.7723 0.4953   -0.067323
 C 0.0454 0.7094 0.4907   -0.103072
 C 0.1156 0.7095 0.5287   0.007496
 C 0.1267 0.7751 0.5696   -0.100333
 C 0.1823 0.642 0.5223   0.114798
 C 0.1927 0.5968 0.4689   -0.2131
 C 0.2591 0.5405 0.4637   0.178329
 C 0.3011 0.5665 0.5612   0.175305
 C 0.2383 0.6242 0.5697   -0.193056
 C 0.5849 0.6405 0.1396   0.167593
 C 0.6137 0.7015 0.1787   -0.19022
 C 0.6884 0.7463 0.1651   0.105597
 C 0.7319 0.7179 0.1136   -0.192966
 C 0.6976 0.6572 0.0761   0.144087
 C 0.7192 0.8187 0.2027   0.00822
 C 0.6921 0.8327 0.2618   -0.067255
 C 0.7231 0.8993 0.2948   -0.072325
 C 0.7811 0.9548 0.2699   -0.056237
 C 0.81 0.9406 0.2099   -0.056709
 C 0.7779 0.8733 0.1771   -0.116486
 C 0.8725 0.9962 0.1803   0.248501
 C 0.9237 0.0916 0.1178   0.259888
 C 0.9315 0.1607 0.074   -0.019645
 C 0.003 0.1617 0.0372   -0.067812
 C 0.0139 0.2277 0.9953   -0.067323
 C 0.9546 0.2906 0.9907   -0.103072
 C 0.8844 0.2905 0.0287   0.007496
 C 0.8733 0.2249 0.0696   -0.100333
 C 0.8177 0.358 0.0223   0.114798
 C 0.8073 0.4032 0.9689   -0.2131
 C 0.7409 0.4595 0.9637   0.178329
 C 0.6989 0.4335 0.0612   0.175305
 C 0.7617 0.3758 0.0697   -0.193056
 C 0.1405 0.9151 0.3896   0.167593
 C 0.2015 0.8863 0.4287   -0.19022
 C 0.2463 0.8116 0.4151   0.105597
 C 0.2179 0.7681 0.3636   -0.192966
 C 0.1572 0.8024 0.3261   0.144087
 C 0.3187 0.7808 0.4527   0.00822
 C 0.3327 0.8079 0.5118   -0.067255
 C 0.3993 0.7769 0.5448   -0.072325
 C 0.4548 0.7189 0.5199   -0.056237
 C 0.4406 0.69 0.4599   -0.056709
 C 0.3733 0.7221 0.4271   -0.116486
 C 0.4962 0.6275 0.4303   0.248501
 C 0.5916 0.5763 0.3678   0.259888
 C 0.6607 0.5685 0.324   -0.019645
 C 0.6617 0.497 0.2872   -0.067812
 C 0.7277 0.4861 0.2453   -0.067323
 C 0.7906 0.5454 0.2407   -0.103072
 C 0.7905 0.6156 0.2787   0.007496
 C 0.7249 0.6267 0.3196   -0.100333
 C 0.858 0.6823 0.2723   0.114798
 C 0.9032 0.6927 0.2189   -0.2131
 C 0.9595 0.7591 0.2137   0.178329
 C 0.9335 0.8011 0.3112   0.175305
 C 0.8758 0.7383 0.3197   -0.193057
 C 0.8595 0.0849 0.8896   0.167593
 C 0.7985 0.1137 0.9287   -0.19022
 C 0.7537 0.1884 0.9151   0.105597
 C 0.7821 0.2319 0.8636   -0.192966
 C 0.8428 0.1976 0.8261   0.144087
 C 0.6813 0.2192 0.9527   0.00822
 C 0.6673 0.1921 0.0118   -0.067255
 C 0.6007 0.2231 0.0448   -0.072325
 C 0.5452 0.2811 0.0199   -0.056237
 C 0.5594 0.31 0.9599   -0.056709
 C 0.6267 0.2779 0.9271   -0.116486
 C 0.5038 0.3725 0.9303   0.248501
 C 0.4084 0.4237 0.8678   0.259888
 C 0.3393 0.4315 0.824   -0.019645
 C 0.3383 0.503 0.7872   -0.067812
 C 0.2723 0.5139 0.7453   -0.067323
 C 0.2094 0.4546 0.7407   -0.103072
 C 0.2095 0.3844 0.7787   0.007496
 C 0.2751 0.3733 0.8196   -0.100333
 C 0.142 0.3177 0.7723   0.114798
 C 0.0968 0.3073 0.7189   -0.2131
 C 0.0405 0.2409 0.7137   0.178329
 C 0.0665 0.1989 0.8112   0.175305
 C 0.1242 0.2617 0.8197   -0.193057
 C 0.0849 0.8595 0.1104   0.167593
 C 0.1137 0.7985 0.0713   -0.19022
 C 0.1884 0.7537 0.0849   0.105597
 C 0.2319 0.7821 0.1364   -0.192966
 C 0.1976 0.8428 0.1739   0.144087
 C 0.2192 0.6813 0.0473   0.00822
 C 0.1921 0.6673 0.9882   -0.067256
 C 0.2231 0.6007 0.9552   -0.072325
 C 0.2811 0.5452 0.9801   -0.056237
 C 0.31 0.5594 0.0401   -0.056709
 C 0.2779 0.6267 0.0729   -0.116486
 C 0.3725 0.5038 0.0697   0.248501
 C 0.4237 0.4084 0.1322   0.259888
 C 0.4315 0.3393 0.176   -0.019645
 C 0.503 0.3383 0.2128   -0.067812
 C 0.5139 0.2723 0.2547   -0.067323
 C 0.4546 0.2094 0.2593   -0.103072
 C 0.3844 0.2095 0.2213   0.007496
 C 0.3733 0.2751 0.1804   -0.100333
 C 0.3177 0.142 0.2277   0.114798
 C 0.3073 0.0968 0.2811   -0.2131
 C 0.2409 0.0405 0.2863   0.178329
 C 0.1989 0.0665 0.1888   0.175305
 C 0.2617 0.1242 0.1803   -0.193056
 C 0.9151 0.1405 0.6104   0.167593
 C 0.8863 0.2015 0.5713   -0.19022
 C 0.8116 0.2463 0.5849   0.105597
 C 0.7681 0.2179 0.6364   -0.192966
 C 0.8024 0.1572 0.6739   0.144087
 C 0.7808 0.3187 0.5473   0.00822
 C 0.8079 0.3327 0.4882   -0.067256
 C 0.7769 0.3993 0.4552   -0.072325
 C 0.7189 0.4548 0.4801   -0.056237
 C 0.69 0.4406 0.5401   -0.056709
 C 0.7221 0.3733 0.5729   -0.116486
 C 0.6275 0.4962 0.5697   0.248501
 C 0.5763 0.5916 0.6322   0.259888
 C 0.5685 0.6607 0.676   -0.019645
 C 0.497 0.6617 0.7128   -0.067812
 C 0.4861 0.7277 0.7547   -0.067323
 C 0.5454 0.7906 0.7593   -0.103072
 C 0.6156 0.7905 0.7213   0.007496
 C 0.6267 0.7249 0.6804   -0.100333
 C 0.6823 0.858 0.7277   0.114798
 C 0.6927 0.9032 0.7811   -0.2131
 C 0.7591 0.9595 0.7863   0.178329
 C 0.8011 0.9335 0.6888   0.175305
 C 0.7383 0.8758 0.6803   -0.193056
 C 0.3595 0.4151 0.3604   0.167593
 C 0.2985 0.3863 0.3213   -0.19022
 C 0.2537 0.3116 0.3349   0.105597
 C 0.2821 0.2681 0.3864   -0.192966
 C 0.3428 0.3024 0.4239   0.144087
 C 0.1813 0.2808 0.2973   0.00822
 C 0.1673 0.3079 0.2382   -0.067256
 C 0.1007 0.2769 0.2052   -0.072325
 C 0.0452 0.2189 0.2301   -0.056237
 C 0.0594 0.19 0.2901   -0.056709
 C 0.1267 0.2221 0.3229   -0.116486
 C 0.0038 0.1275 0.3197   0.248501
 C 0.9084 0.0763 0.3822   0.259888
 C 0.8393 0.0685 0.426   -0.019645
 C 0.8383 0.997 0.4628   -0.067812
 C 0.7723 0.9861 0.5047   -0.067323
 C 0.7094 0.0454 0.5093   -0.103072
 C 0.7095 0.1156 0.4713   0.007496
 C 0.7751 0.1267 0.4304   -0.100333
 C 0.642 0.1823 0.4777   0.114798
 C 0.5968 0.1927 0.5311   -0.2131
 C 0.5405 0.2591 0.5363   0.178329
 C 0.5665 0.3011 0.4388   0.175305
 C 0.6242 0.2383 0.4303   -0.193057
 C 0.6405 0.5849 0.8604   0.167593
 C 0.7015 0.6137 0.8213   -0.19022
 C 0.7463 0.6884 0.8349   0.105597
 C 0.7179 0.7319 0.8864   -0.192966
 C 0.6572 0.6976 0.9239   0.144087
 C 0.8187 0.7192 0.7973   0.00822
 C 0.8327 0.6921 0.7382   -0.067256
 C 0.8993 0.7231 0.7052   -0.072325
 C 0.9548 0.7811 0.7301   -0.056237
 C 0.9406 0.81 0.7901   -0.056709
 C 0.8733 0.7779 0.8229   -0.116486
 C 0.9962 0.8725 0.8197   0.248501
 C 0.0916 0.9237 0.8822   0.259888
 C 0.1607 0.9315 0.926   -0.019645
 C 0.1617 0.003 0.9628   -0.067812
 C 0.2277 0.0139 0.0047   -0.067323
 C 0.2906 0.9546 0.0093   -0.103072
 C 0.2905 0.8844 0.9713   0.007496
 C 0.2249 0.8733 0.9304   -0.100333
 C 0.358 0.8177 0.9777   0.114798
 C 0.4032 0.8073 0.0311   -0.2131
 C 0.4595 0.7409 0.0363   0.178329
 C 0.4335 0.6989 0.9388   0.175305
 C 0.3758 0.7617 0.9303   -0.193057
 N 0.3775 0.3796 0.5874   -0.351623
 N 0.0457 0.006 0.6842   -0.237342
 N 0.0128 0.9448 0.645   -0.305584
 N 0.1498 0.9438 0.6389   0.088941
 N 0.231 0.9262 0.6171   -0.552362
 N 0.3137 0.5245 0.5087   -0.368961
 N 0.6225 0.6204 0.0874   -0.351623
 N 0.9543 0.994 0.1842   -0.237342
 N 0.9872 0.0552 0.145   -0.305584
 N 0.8502 0.0562 0.1389   0.088941
 N 0.769 0.0738 0.1171   -0.552362
 N 0.6863 0.4755 0.0087   -0.368961
 N 0.1204 0.8775 0.3374   -0.351623
 N 0.494 0.5457 0.4342   -0.237342
 N 0.5552 0.5128 0.395   -0.305584
 N 0.5562 0.6498 0.3889   0.088941
 N 0.5738 0.731 0.3671   -0.552362
 N 0.9755 0.8137 0.2587   -0.368961
 N 0.8796 0.1225 0.8374   -0.351623
 N 0.506 0.4543 0.9342   -0.237342
 N 0.4448 0.4872 0.895   -0.305584
 N 0.4438 0.3502 0.8889   0.088941
 N 0.4262 0.269 0.8671   -0.552362
 N 0.0245 0.1863 0.7587   -0.368961
 N 0.1225 0.8796 0.1626   -0.351623
 N 0.4543 0.506 0.0658   -0.237342
 N 0.4872 0.4448 0.105   -0.305584
 N 0.3502 0.4438 0.1111   0.088941
 N 0.269 0.4262 0.1329   -0.552362
 N 0.1863 0.0245 0.2413   -0.368961
 N 0.8775 0.1204 0.6626   -0.351623
 N 0.5457 0.494 0.5658   -0.237342
 N 0.5128 0.5552 0.605   -0.305584
 N 0.6498 0.5562 0.6111   0.088941
 N 0.731 0.5738 0.6329   -0.552362
 N 0.8137 0.9755 0.7413   -0.368961
 N 0.3796 0.3775 0.4126   -0.351623
 N 0.006 0.0457 0.3158   -0.237342
 N 0.9448 0.0128 0.355   -0.305584
 N 0.9438 0.1498 0.3611   0.088941
 N 0.9262 0.231 0.3829   -0.552362
 N 0.5245 0.3137 0.4913   -0.368961
 N 0.6204 0.6225 0.9126   -0.351623
 N 0.994 0.9543 0.8158   -0.237342
 N 0.0552 0.9872 0.855   -0.305584
 N 0.0562 0.8502 0.8611   0.088941
 N 0.0738 0.769 0.8829   -0.552362
 N 0.4755 0.6863 0.9913   -0.368961
 Cl 0.87922 0.87922 0.0   1.881511
 Cl 0.26878 0.26878 0.0   1.290319
 Cl 0.12078 0.12078 0.5   1.881511
 Cl 0.73122 0.73122 0.5   1.290319
 Cl 0.62078 0.37922 0.75   1.881511
 Cl 0.23122 0.76878 0.75   1.290319
 Cl 0.37922 0.62078 0.25   1.881511
 Cl 0.76878 0.23122 0.25   1.290319
 O 0.8236 0.8861 0.9566   -0.699044
 O 0.9425 0.8629 0.9675   -0.661078
 O 0.8861 0.8236 0.0434   -0.699044
 O 0.8629 0.9425 0.0325   -0.661078
 O 0.2369 0.2341 0.9489   -0.544312
 O 0.2119 0.3347 0.992   -0.508814
 O 0.2341 0.2369 0.0511   -0.544312
 O 0.3347 0.2119 0.008   -0.508814
 O 0.1764 0.1139 0.4566   -0.699044
 O 0.0575 0.1371 0.4675   -0.661078
 O 0.1139 0.1764 0.5434   -0.699044
 O 0.1371 0.0575 0.5325   -0.661078
 O 0.7631 0.7659 0.4489   -0.544312
 O 0.7881 0.6653 0.492   -0.508814
 O 0.7659 0.7631 0.5511   -0.544312
 O 0.6653 0.7881 0.508   -0.508814
 O 0.6139 0.3236 0.7066   -0.699044
 O 0.6371 0.4425 0.7175   -0.661078
 O 0.6764 0.3861 0.7934   -0.699044
 O 0.5575 0.3629 0.7825   -0.661078
 O 0.2659 0.7369 0.6989   -0.544312
 O 0.1653 0.7119 0.742   -0.508814
 O 0.2631 0.7341 0.8011   -0.544312
 O 0.2881 0.8347 0.758   -0.508814
 O 0.3861 0.6764 0.2066   -0.699044
 O 0.3629 0.5575 0.2175   -0.661078
 O 0.3236 0.6139 0.2934   -0.699044
 O 0.4425 0.6371 0.2825   -0.661078
 O 0.7341 0.2631 0.1989   -0.544312
 O 0.8347 0.2881 0.242   -0.508814
 O 0.7369 0.2659 0.3011   -0.544312
 O 0.7119 0.1653 0.258   -0.508814
