{'_ref': 'TBD', '_srcid': 'CAKYAQ_clean', 'submitters': [{'name': 'Dalar Nazarian Jeff Camp and David Sholl', 'email': 'dalar@gatech.edu jcamp6@gatech.edu'}], '_method': 'VASP DFT with PBE;DDEC'}
data_CdH36C48N12(ClO4)2
_symmetry_space_group_name_H-M   'P 1'
_cell_length_a   15.89260000
_cell_length_b   15.89260000
_cell_length_c   21.97200000
_cell_angle_alpha   90.00000000
_cell_angle_beta   90.00000000
_cell_angle_gamma   90.00000000
_symmetry_Int_Tables_number   1
_chemical_formula_structural   CdH36C48N12(ClO4)2
_chemical_formula_sum   'Cd4 H144 C192 N48 Cl8 O32'
_cell_volume   5549.57207215
_cell_formula_units_Z   4
loop_
 _symmetry_equiv_pos_site_id
 _symmetry_equiv_pos_as_xyz
  1  'x, y, z'
loop_
 _atom_site_label
 _atom_site_fract_x
 _atom_site_fract_y
 _atom_site_fract_z
 _atom_site_charge
 Cd 0.9437 0.0563 0.25   0.791524
 Cd 0.0563 0.9437 0.75   0.791524
 Cd 0.4437 0.4437 0.5   0.791524
 Cd 0.5563 0.5563 0.0   0.791524
 H 0.4644 0.3905 0.351   0.0758
 H 0.4181 0.2849 0.2873   0.134
 H 0.2178 0.2572 0.397   0.124622
 H 0.2752 0.3561 0.4611   0.072311
 H 0.3489 0.2045 0.2219   0.079418
 H 0.2959 0.0935 0.1658   0.116941
 H 0.1988 0.0002 0.2084   0.091863
 H 0.2055 0.1332 0.3652   0.107069
 H 0.9563 0.8805 0.4579   0.108908
 H 0.9397 0.7704 0.5283   0.118348
 H 0.038 0.6662 0.537   0.107737
 H 0.1765 0.7766 0.4038   0.099796
 H 0.233 0.6513 0.3911   0.134822
 H 0.339 0.5548 0.4043   0.065196
 H 0.2661 0.5123 0.5718   0.06755
 H 0.1573 0.6078 0.5618   0.126218
 H 0.2606 0.9747 0.3891   0.325049
 H 0.2594 0.8933 0.356   0.309524
 H 0.5356 0.6095 0.851   0.0758
 H 0.5819 0.7151 0.7873   0.134
 H 0.7822 0.7428 0.897   0.124622
 H 0.7248 0.6439 0.9611   0.072311
 H 0.6511 0.7955 0.7219   0.079418
 H 0.7041 0.9065 0.6658   0.116941
 H 0.8012 0.9998 0.7084   0.091863
 H 0.7945 0.8668 0.8652   0.107069
 H 0.0437 0.1195 0.9579   0.108908
 H 0.0603 0.2296 0.0283   0.118348
 H 0.962 0.3338 0.037   0.107737
 H 0.8235 0.2234 0.9038   0.099796
 H 0.767 0.3487 0.8911   0.134822
 H 0.661 0.4452 0.9043   0.065196
 H 0.7339 0.4877 0.0718   0.06755
 H 0.8427 0.3922 0.0618   0.126218
 H 0.7394 0.0253 0.8891   0.325049
 H 0.7406 0.1067 0.856   0.309524
 H 0.1095 0.9644 0.601   0.0758
 H 0.2151 0.9181 0.5373   0.134
 H 0.2428 0.7178 0.647   0.124623
 H 0.1439 0.7752 0.7111   0.072312
 H 0.2955 0.8489 0.4719   0.079417
 H 0.4065 0.7959 0.4158   0.116941
 H 0.4998 0.6988 0.4584   0.091863
 H 0.3668 0.7055 0.6152   0.107069
 H 0.6195 0.4563 0.7079   0.108908
 H 0.7296 0.4397 0.7783   0.118347
 H 0.8338 0.538 0.787   0.107737
 H 0.7234 0.6765 0.6538   0.099796
 H 0.8487 0.733 0.6411   0.134822
 H 0.9452 0.839 0.6543   0.065196
 H 0.9877 0.7661 0.8218   0.06755
 H 0.8922 0.6573 0.8118   0.126219
 H 0.5253 0.7606 0.6391   0.325048
 H 0.6067 0.7594 0.606   0.309524
 H 0.8905 0.0356 0.101   0.0758
 H 0.7849 0.0819 0.0373   0.134
 H 0.7572 0.2822 0.147   0.124623
 H 0.8561 0.2248 0.2111   0.072312
 H 0.7045 0.1511 0.9719   0.079417
 H 0.5935 0.2041 0.9158   0.116941
 H 0.5002 0.3012 0.9584   0.091863
 H 0.6332 0.2945 0.1152   0.107069
 H 0.3805 0.5437 0.2079   0.108908
 H 0.2704 0.5603 0.2783   0.118347
 H 0.1662 0.462 0.287   0.107737
 H 0.2766 0.3235 0.1538   0.099796
 H 0.1513 0.267 0.1411   0.134822
 H 0.0548 0.161 0.1543   0.065196
 H 0.0123 0.2339 0.3218   0.06755
 H 0.1078 0.3427 0.3118   0.126219
 H 0.4747 0.2394 0.1391   0.325048
 H 0.3933 0.2406 0.106   0.309524
 H 0.0356 0.8905 0.899   0.0758
 H 0.0819 0.7849 0.9627   0.134
 H 0.2822 0.7572 0.853   0.124622
 H 0.2248 0.8561 0.7889   0.072312
 H 0.1511 0.7045 0.0281   0.079418
 H 0.2041 0.5935 0.0842   0.116941
 H 0.3012 0.5002 0.0416   0.091863
 H 0.2945 0.6332 0.8848   0.107069
 H 0.5437 0.3805 0.7921   0.108907
 H 0.5603 0.2704 0.7217   0.118347
 H 0.462 0.1662 0.713   0.107737
 H 0.3235 0.2766 0.8462   0.099796
 H 0.267 0.1513 0.8589   0.134822
 H 0.161 0.0548 0.8457   0.065196
 H 0.2339 0.0123 0.6782   0.06755
 H 0.3427 0.1078 0.6882   0.126218
 H 0.2394 0.4747 0.8609   0.325049
 H 0.2406 0.3933 0.894   0.309524
 H 0.9644 0.1095 0.399   0.0758
 H 0.9181 0.2151 0.4627   0.134
 H 0.7178 0.2428 0.353   0.124622
 H 0.7752 0.1439 0.2889   0.072312
 H 0.8489 0.2955 0.5281   0.079418
 H 0.7959 0.4065 0.5842   0.116941
 H 0.6988 0.4998 0.5416   0.091863
 H 0.7055 0.3668 0.3848   0.107069
 H 0.4563 0.6195 0.2921   0.108907
 H 0.4397 0.7296 0.2217   0.118347
 H 0.538 0.8338 0.213   0.107737
 H 0.6765 0.7234 0.3462   0.099796
 H 0.733 0.8487 0.3589   0.134822
 H 0.839 0.9452 0.3457   0.065196
 H 0.7661 0.9877 0.1782   0.06755
 H 0.6573 0.8922 0.1882   0.126218
 H 0.7606 0.5253 0.3609   0.325049
 H 0.7594 0.6067 0.394   0.309524
 H 0.3905 0.4644 0.649   0.0758
 H 0.2849 0.4181 0.7127   0.134
 H 0.2572 0.2178 0.603   0.124623
 H 0.3561 0.2752 0.5389   0.072312
 H 0.2045 0.3489 0.7781   0.079417
 H 0.0935 0.2959 0.8342   0.116941
 H 0.0002 0.1988 0.7916   0.091863
 H 0.1332 0.2055 0.6348   0.107069
 H 0.8805 0.9563 0.5421   0.108907
 H 0.7704 0.9397 0.4717   0.118347
 H 0.6662 0.038 0.463   0.107737
 H 0.7766 0.1765 0.5962   0.099796
 H 0.6513 0.233 0.6089   0.134822
 H 0.5548 0.339 0.5957   0.065196
 H 0.5123 0.2661 0.4282   0.06755
 H 0.6078 0.1573 0.4382   0.126219
 H 0.9747 0.2606 0.6109   0.325048
 H 0.8933 0.2594 0.644   0.309524
 H 0.6095 0.5356 0.149   0.0758
 H 0.7151 0.5819 0.2127   0.134
 H 0.7428 0.7822 0.103   0.124623
 H 0.6439 0.7248 0.0389   0.072312
 H 0.7955 0.6511 0.2781   0.079417
 H 0.9065 0.7041 0.3342   0.116941
 H 0.9998 0.8012 0.2916   0.091863
 H 0.8668 0.7945 0.1348   0.107069
 H 0.1195 0.0437 0.0421   0.108907
 H 0.2296 0.0603 0.9717   0.118347
 H 0.3338 0.962 0.963   0.107737
 H 0.2234 0.8235 0.0962   0.099796
 H 0.3487 0.767 0.1089   0.134822
 H 0.4452 0.661 0.0957   0.065196
 H 0.4877 0.7339 0.9282   0.06755
 H 0.3922 0.8427 0.9382   0.126219
 H 0.0253 0.7394 0.1109   0.325048
 H 0.1067 0.7406 0.144   0.309524
 C 0.4154 0.3601 0.3622   0.173348
 C 0.3873 0.2974 0.3232   -0.192579
 C 0.3135 0.2525 0.3365   0.112207
 C 0.2713 0.2804 0.3876   -0.191201
 C 0.305 0.341 0.4252   0.132514
 C 0.2832 0.1813 0.2993   0.009248
 C 0.3089 0.1676 0.2399   -0.070648
 C 0.2775 0.1015 0.2065   -0.075115
 C 0.2194 0.0465 0.2314   -0.061928
 C 0.1915 0.0602 0.2914   -0.047137
 C 0.2236 0.1253 0.3244   -0.118168
 C 0.1284 0.0041 0.3205   0.244611
 C 0.0774 0.9087 0.3812   0.253405
 C 0.0686 0.8402 0.4253   -0.022052
 C 0.9979 0.8379 0.4612   -0.071579
 C 0.9882 0.7717 0.503   -0.061911
 C 0.0459 0.71 0.5081   -0.108882
 C 0.1186 0.71 0.4704   0.013594
 C 0.1285 0.7754 0.4295   -0.111914
 C 0.1835 0.6429 0.4767   0.117104
 C 0.2391 0.6241 0.4293   -0.18608
 C 0.3025 0.5665 0.4375   0.162331
 C 0.2602 0.5418 0.5344   0.174737
 C 0.1947 0.5992 0.5287   -0.208205
 C 0.5846 0.6399 0.8622   0.173348
 C 0.6127 0.7026 0.8232   -0.192579
 C 0.6865 0.7475 0.8365   0.112207
 C 0.7287 0.7196 0.8876   -0.191201
 C 0.695 0.659 0.9252   0.132514
 C 0.7168 0.8187 0.7993   0.009248
 C 0.6911 0.8324 0.7399   -0.070648
 C 0.7225 0.8985 0.7065   -0.075115
 C 0.7806 0.9535 0.7314   -0.061928
 C 0.8085 0.9398 0.7914   -0.047137
 C 0.7764 0.8747 0.8244   -0.118168
 C 0.8716 0.9959 0.8205   0.244611
 C 0.9226 0.0913 0.8812   0.253405
 C 0.9314 0.1598 0.9253   -0.022052
 C 0.0021 0.1621 0.9612   -0.071579
 C 0.0118 0.2283 0.003   -0.061911
 C 0.9541 0.29 0.0081   -0.108882
 C 0.8814 0.29 0.9704   0.013594
 C 0.8715 0.2246 0.9295   -0.111914
 C 0.8165 0.3571 0.9767   0.117104
 C 0.7609 0.3759 0.9293   -0.18608
 C 0.6975 0.4335 0.9375   0.162331
 C 0.7398 0.4582 0.0344   0.174737
 C 0.8053 0.4008 0.0287   -0.208205
 C 0.1399 0.9154 0.6122   0.173348
 C 0.2026 0.8873 0.5732   -0.192579
 C 0.2475 0.8135 0.5865   0.112207
 C 0.2196 0.7713 0.6376   -0.191201
 C 0.159 0.805 0.6752   0.132514
 C 0.3187 0.7832 0.5493   0.009248
 C 0.3324 0.8089 0.4899   -0.070648
 C 0.3985 0.7775 0.4565   -0.075115
 C 0.4535 0.7194 0.4814   -0.061928
 C 0.4398 0.6915 0.5414   -0.047137
 C 0.3747 0.7236 0.5744   -0.118168
 C 0.4959 0.6284 0.5705   0.244611
 C 0.5913 0.5774 0.6312   0.253405
 C 0.6598 0.5686 0.6753   -0.022053
 C 0.6621 0.4979 0.7112   -0.071579
 C 0.7283 0.4882 0.753   -0.061911
 C 0.79 0.5459 0.7581   -0.108882
 C 0.79 0.6186 0.7204   0.013594
 C 0.7246 0.6285 0.6795   -0.111914
 C 0.8571 0.6835 0.7267   0.117104
 C 0.8759 0.7391 0.6793   -0.18608
 C 0.9335 0.8025 0.6875   0.162331
 C 0.9582 0.7602 0.7844   0.174737
 C 0.9008 0.6947 0.7787   -0.208205
 C 0.8601 0.0846 0.1122   0.173348
 C 0.7974 0.1127 0.0732   -0.192579
 C 0.7525 0.1865 0.0865   0.112207
 C 0.7804 0.2287 0.1376   -0.191201
 C 0.841 0.195 0.1752   0.132514
 C 0.6813 0.2168 0.0493   0.009248
 C 0.6676 0.1911 0.9899   -0.070648
 C 0.6015 0.2225 0.9565   -0.075115
 C 0.5465 0.2806 0.9814   -0.061928
 C 0.5602 0.3085 0.0414   -0.047137
 C 0.6253 0.2764 0.0744   -0.118168
 C 0.5041 0.3716 0.0705   0.244611
 C 0.4087 0.4226 0.1312   0.253405
 C 0.3402 0.4314 0.1753   -0.022053
 C 0.3379 0.5021 0.2112   -0.071579
 C 0.2717 0.5118 0.253   -0.061911
 C 0.21 0.4541 0.2581   -0.108882
 C 0.21 0.3814 0.2204   0.013594
 C 0.2754 0.3715 0.1795   -0.111914
 C 0.1429 0.3165 0.2267   0.117104
 C 0.1241 0.2609 0.1793   -0.18608
 C 0.0665 0.1975 0.1875   0.162331
 C 0.0418 0.2398 0.2844   0.174737
 C 0.0992 0.3053 0.2787   -0.208205
 C 0.0846 0.8601 0.8878   0.173348
 C 0.1127 0.7974 0.9268   -0.192579
 C 0.1865 0.7525 0.9135   0.112207
 C 0.2287 0.7804 0.8624   -0.191201
 C 0.195 0.841 0.8248   0.132514
 C 0.2168 0.6813 0.9507   0.009248
 C 0.1911 0.6676 0.0101   -0.070649
 C 0.2225 0.6015 0.0435   -0.075115
 C 0.2806 0.5465 0.0186   -0.061928
 C 0.3085 0.5602 0.9586   -0.047137
 C 0.2764 0.6253 0.9256   -0.118168
 C 0.3716 0.5041 0.9295   0.244611
 C 0.4226 0.4087 0.8688   0.253405
 C 0.4314 0.3402 0.8247   -0.022052
 C 0.5021 0.3379 0.7888   -0.071579
 C 0.5118 0.2717 0.747   -0.061911
 C 0.4541 0.21 0.7419   -0.108882
 C 0.3814 0.21 0.7796   0.013594
 C 0.3715 0.2754 0.8205   -0.111914
 C 0.3165 0.1429 0.7733   0.117104
 C 0.2609 0.1241 0.8207   -0.18608
 C 0.1975 0.0665 0.8125   0.162331
 C 0.2398 0.0418 0.7156   0.174738
 C 0.3053 0.0992 0.7213   -0.208205
 C 0.9154 0.1399 0.3878   0.173348
 C 0.8873 0.2026 0.4268   -0.192579
 C 0.8135 0.2475 0.4135   0.112207
 C 0.7713 0.2196 0.3624   -0.191201
 C 0.805 0.159 0.3248   0.132514
 C 0.7832 0.3187 0.4507   0.009248
 C 0.8089 0.3324 0.5101   -0.070649
 C 0.7775 0.3985 0.5435   -0.075115
 C 0.7194 0.4535 0.5186   -0.061928
 C 0.6915 0.4398 0.4586   -0.047137
 C 0.7236 0.3747 0.4256   -0.118168
 C 0.6284 0.4959 0.4295   0.244611
 C 0.5774 0.5913 0.3688   0.253405
 C 0.5686 0.6598 0.3247   -0.022052
 C 0.4979 0.6621 0.2888   -0.071579
 C 0.4882 0.7283 0.247   -0.061911
 C 0.5459 0.79 0.2419   -0.108882
 C 0.6186 0.79 0.2796   0.013594
 C 0.6285 0.7246 0.3205   -0.111914
 C 0.6835 0.8571 0.2733   0.117104
 C 0.7391 0.8759 0.3207   -0.18608
 C 0.8025 0.9335 0.3125   0.162331
 C 0.7602 0.9582 0.2156   0.174738
 C 0.6947 0.9008 0.2213   -0.208205
 C 0.3601 0.4154 0.6378   0.173348
 C 0.2974 0.3873 0.6768   -0.192579
 C 0.2525 0.3135 0.6635   0.112207
 C 0.2804 0.2713 0.6124   -0.191201
 C 0.341 0.305 0.5748   0.132514
 C 0.1813 0.2832 0.7007   0.009248
 C 0.1676 0.3089 0.7601   -0.070649
 C 0.1015 0.2775 0.7935   -0.075115
 C 0.0465 0.2194 0.7686   -0.061928
 C 0.0602 0.1915 0.7086   -0.047137
 C 0.1253 0.2236 0.6756   -0.118168
 C 0.0041 0.1284 0.6795   0.244611
 C 0.9087 0.0774 0.6188   0.253405
 C 0.8402 0.0686 0.5747   -0.022053
 C 0.8379 0.9979 0.5388   -0.071579
 C 0.7717 0.9882 0.497   -0.061911
 C 0.71 0.0459 0.4919   -0.108882
 C 0.71 0.1186 0.5296   0.013594
 C 0.7754 0.1285 0.5705   -0.111914
 C 0.6429 0.1835 0.5233   0.117104
 C 0.6241 0.2391 0.5707   -0.18608
 C 0.5665 0.3025 0.5625   0.162331
 C 0.5418 0.2602 0.4656   0.174738
 C 0.5992 0.1947 0.4713   -0.208205
 C 0.6399 0.5846 0.1378   0.173348
 C 0.7026 0.6127 0.1768   -0.192579
 C 0.7475 0.6865 0.1635   0.112207
 C 0.7196 0.7287 0.1124   -0.191201
 C 0.659 0.695 0.0748   0.132514
 C 0.8187 0.7168 0.2007   0.009248
 C 0.8324 0.6911 0.2601   -0.070649
 C 0.8985 0.7225 0.2935   -0.075115
 C 0.9535 0.7806 0.2686   -0.061928
 C 0.9398 0.8085 0.2086   -0.047137
 C 0.8747 0.7764 0.1756   -0.118168
 C 0.9959 0.8716 0.1795   0.244611
 C 0.0913 0.9226 0.1188   0.253405
 C 0.1598 0.9314 0.0747   -0.022053
 C 0.1621 0.0021 0.0388   -0.071579
 C 0.2283 0.0118 0.997   -0.061911
 C 0.29 0.9541 0.9919   -0.108882
 C 0.29 0.8814 0.0296   0.013594
 C 0.2246 0.8715 0.0705   -0.111914
 C 0.3571 0.8165 0.0233   0.117104
 C 0.3759 0.7609 0.0707   -0.18608
 C 0.4335 0.6975 0.0625   0.162331
 C 0.4582 0.7398 0.9656   0.174738
 C 0.4008 0.8053 0.9713   -0.208205
 N 0.3788 0.3796 0.413   -0.344388
 N 0.0149 0.9442 0.354   -0.305444
 N 0.0475 0.0052 0.3163   -0.232954
 N 0.1503 0.9439 0.3616   0.091224
 N 0.2318 0.9259 0.3835   -0.56031
 N 0.315 0.5262 0.4901   -0.363436
 N 0.6212 0.6204 0.913   -0.344388
 N 0.9851 0.0558 0.854   -0.305444
 N 0.9525 0.9948 0.8163   -0.232954
 N 0.8497 0.0561 0.8616   0.091224
 N 0.7682 0.0741 0.8835   -0.56031
 N 0.685 0.4738 0.9901   -0.363436
 N 0.1204 0.8788 0.663   -0.344388
 N 0.5558 0.5149 0.604   -0.305444
 N 0.4948 0.5475 0.5663   -0.232954
 N 0.5561 0.6503 0.6116   0.091224
 N 0.5741 0.7318 0.6335   -0.560309
 N 0.9738 0.815 0.7401   -0.363436
 N 0.8796 0.1212 0.163   -0.344388
 N 0.4442 0.4851 0.104   -0.305444
 N 0.5052 0.4525 0.0663   -0.232954
 N 0.4439 0.3497 0.1116   0.091224
 N 0.4259 0.2682 0.1335   -0.560309
 N 0.0262 0.185 0.2401   -0.363436
 N 0.1212 0.8796 0.837   -0.344388
 N 0.4851 0.4442 0.896   -0.305444
 N 0.4525 0.5052 0.9337   -0.232954
 N 0.3497 0.4439 0.8884   0.091224
 N 0.2682 0.4259 0.8665   -0.56031
 N 0.185 0.0262 0.7599   -0.363436
 N 0.8788 0.1204 0.337   -0.344388
 N 0.5149 0.5558 0.396   -0.305444
 N 0.5475 0.4948 0.4337   -0.232954
 N 0.6503 0.5561 0.3884   0.091224
 N 0.7318 0.5741 0.3665   -0.56031
 N 0.815 0.9738 0.2599   -0.363436
 N 0.3796 0.3788 0.587   -0.344388
 N 0.9442 0.0149 0.646   -0.305444
 N 0.0052 0.0475 0.6837   -0.232954
 N 0.9439 0.1503 0.6384   0.091224
 N 0.9259 0.2318 0.6165   -0.560309
 N 0.5262 0.315 0.5099   -0.363436
 N 0.6204 0.6212 0.087   -0.344388
 N 0.0558 0.9851 0.146   -0.305444
 N 0.9948 0.9525 0.1837   -0.232954
 N 0.0561 0.8497 0.1384   0.091224
 N 0.0741 0.7682 0.1165   -0.560309
 N 0.4738 0.685 0.0099   -0.363436
 Cl 0.88041 0.88041 0.0   1.609241
 Cl 0.26883 0.26883 0.0   1.427304
 Cl 0.11959 0.11959 0.5   1.609241
 Cl 0.73117 0.73117 0.5   1.427304
 Cl 0.61959 0.38041 0.25   1.609241
 Cl 0.23117 0.76883 0.25   1.427304
 Cl 0.38041 0.61959 0.75   1.609241
 Cl 0.76883 0.23117 0.75   1.427304
 O 0.824 0.9016 0.0497   -0.666364
 O 0.9377 0.8483 0.0344   -0.533142
 O 0.9016 0.824 0.9503   -0.666364
 O 0.8483 0.9377 0.9656   -0.533142
 O 0.239 0.2287 0.0503   -0.630191
 O 0.3368 0.2153 0.998   -0.4999
 O 0.2287 0.239 0.9497   -0.630191
 O 0.2153 0.3368 0.002   -0.4999
 O 0.176 0.0984 0.5497   -0.666364
 O 0.0623 0.1517 0.5344   -0.533142
 O 0.0984 0.176 0.4503   -0.666364
 O 0.1517 0.0623 0.4656   -0.533142
 O 0.761 0.7713 0.5503   -0.630191
 O 0.6632 0.7847 0.498   -0.4999
 O 0.7713 0.761 0.4497   -0.630191
 O 0.7847 0.6632 0.502   -0.4999
 O 0.5984 0.324 0.2997   -0.666364
 O 0.6517 0.4377 0.2844   -0.533142
 O 0.676 0.4016 0.2003   -0.666364
 O 0.5623 0.3483 0.2156   -0.533142
 O 0.2713 0.739 0.3003   -0.630191
 O 0.2847 0.8368 0.248   -0.4999
 O 0.261 0.7287 0.1997   -0.630191
 O 0.1632 0.7153 0.252   -0.4999
 O 0.4016 0.676 0.7997   -0.666364
 O 0.3483 0.5623 0.7844   -0.533142
 O 0.324 0.5984 0.7003   -0.666364
 O 0.4377 0.6517 0.7156   -0.533142
 O 0.7287 0.261 0.8003   -0.630191
 O 0.7153 0.1632 0.748   -0.4999
 O 0.739 0.2713 0.6997   -0.630191
 O 0.8368 0.2847 0.752   -0.4999
