{'_ref': 'TBD', '_srcid': 'CAKYAQ_clean', 'submitters': [{'name': 'Dalar Nazarian Jeff Camp and David Sholl', 'email': 'dalar@gatech.edu jcamp6@gatech.edu'}], '_method': 'VASP DFT with PBE;DDEC'}
data_CdH36C48N12ClO4
_symmetry_space_group_name_H-M   'P 1'
_cell_length_a   15.87250000
_cell_length_b   15.87250000
_cell_length_c   21.67300000
_cell_angle_alpha   90.00000000
_cell_angle_beta   90.00000000
_cell_angle_gamma   90.00000000
_symmetry_Int_Tables_number   1
_chemical_formula_structural   CdH36C48N12ClO4
_chemical_formula_sum   'Cd4 H144 C192 N48 Cl4 O16'
_cell_volume   5460.21448171
_cell_formula_units_Z   4
loop_
 _symmetry_equiv_pos_site_id
 _symmetry_equiv_pos_as_xyz
  1  'x, y, z'
loop_
 _atom_site_label
 _atom_site_fract_x
 _atom_site_fract_y
 _atom_site_fract_z
 _atom_site_charge
 Cd 0.55908 0.55908 0.5   0.788262
 Cd 0.44092 0.44092 0.0   0.788262
 Cd 0.94092 0.05908 0.25   0.788262
 Cd 0.05908 0.94092 0.75   0.788262
 H 0.0048 0.2411 0.1764   0.06574
 H 0.0982 0.3521 0.1882   0.125155
 H 0.1565 0.2616 0.3569   0.118094
 H 0.0616 0.1551 0.3409   0.049812
 H 0.1614 0.4655 0.2141   0.103142
 H 0.2661 0.5667 0.2244   0.094647
 H 0.3782 0.547 0.291   0.103388
 H 0.276 0.3241 0.3448   0.088763
 H 0.4969 0.3016 0.5413   0.08818
 H 0.5891 0.2036 0.5857   0.096423
 H 0.7048 0.1535 0.5306   0.075092
 H 0.6408 0.304 0.3877   0.113509
 H 0.7643 0.2908 0.3555   0.130903
 H 0.8611 0.231 0.2912   0.066025
 H 0.8876 0.0367 0.3996   0.078239
 H 0.7857 0.0875 0.4664   0.129119
 H 0.4093 0.2376 0.3998   0.307666
 H 0.4728 0.2473 0.3501   0.329578
 H 0.9952 0.7589 0.6764   0.06574
 H 0.9018 0.6479 0.6882   0.125155
 H 0.8435 0.7384 0.8569   0.118094
 H 0.9384 0.8449 0.8409   0.049812
 H 0.8386 0.5345 0.7141   0.103142
 H 0.7339 0.4333 0.7244   0.094647
 H 0.6218 0.453 0.791   0.103388
 H 0.724 0.6759 0.8448   0.088763
 H 0.5031 0.6984 0.0413   0.08818
 H 0.4109 0.7964 0.0857   0.096423
 H 0.2952 0.8465 0.0306   0.075092
 H 0.3592 0.696 0.8877   0.113509
 H 0.2357 0.7092 0.8555   0.130903
 H 0.1389 0.769 0.7912   0.066025
 H 0.1124 0.9633 0.8996   0.078239
 H 0.2143 0.9125 0.9664   0.129119
 H 0.5907 0.7624 0.8998   0.307666
 H 0.5272 0.7527 0.8501   0.329578
 H 0.2589 0.5048 0.9264   0.06574
 H 0.1479 0.5982 0.9382   0.125155
 H 0.2384 0.6565 0.1069   0.118096
 H 0.3449 0.5616 0.0909   0.049811
 H 0.0345 0.6614 0.9641   0.103142
 H 0.9333 0.7661 0.9744   0.094649
 H 0.953 0.8782 0.041   0.103388
 H 0.1759 0.776 0.0948   0.088763
 H 0.1984 0.9969 0.2913   0.08818
 H 0.2964 0.0891 0.3357   0.096422
 H 0.3465 0.2048 0.2806   0.075091
 H 0.196 0.1408 0.1377   0.113509
 H 0.2092 0.2643 0.1055   0.130903
 H 0.269 0.3611 0.0412   0.066025
 H 0.4633 0.3876 0.1496   0.078239
 H 0.4125 0.2857 0.2164   0.129119
 H 0.2624 0.9093 0.1498   0.307666
 H 0.2527 0.9728 0.1001   0.329577
 H 0.7411 0.4952 0.4264   0.06574
 H 0.8521 0.4018 0.4382   0.125155
 H 0.7616 0.3435 0.6069   0.118096
 H 0.6551 0.4384 0.5909   0.049811
 H 0.9655 0.3386 0.4641   0.103142
 H 0.0667 0.2339 0.4744   0.094649
 H 0.047 0.1218 0.541   0.103388
 H 0.8241 0.224 0.5948   0.088763
 H 0.8016 0.0031 0.7913   0.08818
 H 0.7036 0.9109 0.8357   0.096422
 H 0.6535 0.7952 0.7806   0.075091
 H 0.804 0.8592 0.6377   0.113509
 H 0.7908 0.7357 0.6055   0.130903
 H 0.731 0.6389 0.5412   0.066025
 H 0.5367 0.6124 0.6496   0.078239
 H 0.5875 0.7143 0.7164   0.129119
 H 0.7376 0.0907 0.6498   0.307666
 H 0.7473 0.0272 0.6001   0.329577
 H 0.4952 0.7411 0.5736   0.06574
 H 0.4018 0.8521 0.5618   0.125155
 H 0.3435 0.7616 0.3931   0.118094
 H 0.4384 0.6551 0.4091   0.049811
 H 0.3386 0.9655 0.5359   0.103142
 H 0.2339 0.0667 0.5256   0.09465
 H 0.1218 0.047 0.459   0.103388
 H 0.224 0.8241 0.4052   0.088763
 H 0.0031 0.8016 0.2087   0.088181
 H 0.9109 0.7036 0.1643   0.096423
 H 0.7952 0.6535 0.2194   0.075092
 H 0.8592 0.804 0.3623   0.113509
 H 0.7357 0.7908 0.3945   0.130903
 H 0.6389 0.731 0.4588   0.066025
 H 0.6124 0.5367 0.3504   0.078239
 H 0.7143 0.5875 0.2836   0.129119
 H 0.0907 0.7376 0.3502   0.307669
 H 0.0272 0.7473 0.3999   0.329578
 H 0.5048 0.2589 0.0736   0.06574
 H 0.5982 0.1479 0.0618   0.125155
 H 0.6565 0.2384 0.8931   0.118094
 H 0.5616 0.3449 0.9091   0.049811
 H 0.6614 0.0345 0.0359   0.103142
 H 0.7661 0.9333 0.0256   0.09465
 H 0.8782 0.953 0.959   0.103388
 H 0.776 0.1759 0.9052   0.088763
 H 0.9969 0.1984 0.7087   0.088181
 H 0.0891 0.2964 0.6643   0.096423
 H 0.2048 0.3465 0.7194   0.075092
 H 0.1408 0.196 0.8623   0.113509
 H 0.2643 0.2092 0.8945   0.130903
 H 0.3611 0.269 0.9588   0.066025
 H 0.3876 0.4633 0.8504   0.078239
 H 0.2857 0.4125 0.7836   0.129119
 H 0.9093 0.2624 0.8502   0.307669
 H 0.9728 0.2527 0.8999   0.329578
 H 0.2411 0.0048 0.8236   0.06574
 H 0.3521 0.0982 0.8118   0.125155
 H 0.2616 0.1565 0.6431   0.118096
 H 0.1551 0.0616 0.6591   0.049811
 H 0.4655 0.1614 0.7859   0.103142
 H 0.5667 0.2661 0.7756   0.094652
 H 0.547 0.3782 0.709   0.103388
 H 0.3241 0.276 0.6552   0.088763
 H 0.3016 0.4969 0.4587   0.088181
 H 0.2036 0.5891 0.4143   0.096422
 H 0.1535 0.7048 0.4694   0.075091
 H 0.304 0.6408 0.6123   0.113509
 H 0.2908 0.7643 0.6445   0.130903
 H 0.231 0.8611 0.7088   0.066025
 H 0.0367 0.8876 0.6004   0.078239
 H 0.0875 0.7857 0.5336   0.129119
 H 0.2376 0.4093 0.6002   0.307669
 H 0.2473 0.4728 0.6499   0.329577
 H 0.7589 0.9952 0.3236   0.06574
 H 0.6479 0.9018 0.3118   0.125155
 H 0.7384 0.8435 0.1431   0.118096
 H 0.8449 0.9384 0.1591   0.049811
 H 0.5345 0.8386 0.2859   0.103142
 H 0.4333 0.7339 0.2756   0.094652
 H 0.453 0.6218 0.209   0.103388
 H 0.6759 0.724 0.1552   0.088763
 H 0.6984 0.5031 0.9587   0.088181
 H 0.7964 0.4109 0.9143   0.096422
 H 0.8465 0.2952 0.9694   0.075091
 H 0.696 0.3592 0.1123   0.113509
 H 0.7092 0.2357 0.1445   0.130903
 H 0.769 0.1389 0.2088   0.066025
 H 0.9633 0.1124 0.1004   0.078239
 H 0.9125 0.2143 0.0336   0.129119
 H 0.7624 0.5907 0.1002   0.307669
 H 0.7527 0.5272 0.1499   0.329577
 C 0.0363 0.2453 0.2136   0.164673
 C 0.0929 0.3115 0.2202   -0.21354
 C 0.1414 0.3188 0.2725   0.091221
 C 0.1268 0.2585 0.3189   -0.227047
 C 0.0696 0.1955 0.3091   0.17124
 C 0.2082 0.3847 0.2787   0.021746
 C 0.206 0.4571 0.2427   -0.126332
 C 0.2689 0.5168 0.2485   -0.083399
 C 0.3351 0.5057 0.2881   -0.105351
 C 0.3386 0.433 0.3242   -0.003027
 C 0.2743 0.3731 0.3196   -0.13373
 C 0.4084 0.425 0.3683   0.239402
 C 0.505 0.374 0.4297   0.24416
 C 0.5609 0.3121 0.4597   -0.046264
 C 0.5446 0.2822 0.519   -0.121135
 C 0.5992 0.2236 0.5451   -0.090253
 C 0.6682 0.1939 0.5125   -0.089882
 C 0.684 0.2234 0.453   0.018892
 C 0.6299 0.2829 0.4279   -0.124376
 C 0.7565 0.1915 0.4154   0.089892
 C 0.7855 0.2361 0.3642   -0.202833
 C 0.8444 0.2006 0.3269   0.138395
 C 0.8594 0.0876 0.3892   0.157854
 C 0.7984 0.1174 0.4296   -0.203781
 C 0.9637 0.7547 0.7136   0.164673
 C 0.9071 0.6885 0.7202   -0.21354
 C 0.8586 0.6812 0.7725   0.091221
 C 0.8732 0.7415 0.8189   -0.227047
 C 0.9304 0.8045 0.8091   0.17124
 C 0.7918 0.6153 0.7787   0.021746
 C 0.794 0.5429 0.7427   -0.126332
 C 0.7311 0.4832 0.7485   -0.083399
 C 0.6649 0.4943 0.7881   -0.105351
 C 0.6614 0.567 0.8242   -0.003027
 C 0.7257 0.6269 0.8196   -0.13373
 C 0.5916 0.575 0.8683   0.239402
 C 0.495 0.626 0.9297   0.24416
 C 0.4391 0.6879 0.9597   -0.046264
 C 0.4554 0.7178 0.019   -0.121135
 C 0.4008 0.7764 0.0451   -0.090253
 C 0.3318 0.8061 0.0125   -0.089882
 C 0.316 0.7766 0.953   0.018892
 C 0.3701 0.7171 0.9279   -0.124376
 C 0.2435 0.8085 0.9154   0.089892
 C 0.2145 0.7639 0.8642   -0.202833
 C 0.1556 0.7994 0.8269   0.138395
 C 0.1406 0.9124 0.8892   0.157854
 C 0.2016 0.8826 0.9296   -0.203781
 C 0.2547 0.5363 0.9636   0.164673
 C 0.1885 0.5929 0.9702   -0.21354
 C 0.1812 0.6414 0.0225   0.091222
 C 0.2415 0.6268 0.0689   -0.227047
 C 0.3045 0.5696 0.0591   0.171241
 C 0.1153 0.7082 0.0287   0.021746
 C 0.0429 0.706 0.9927   -0.126332
 C 0.9832 0.7689 0.9985   -0.0834
 C 0.9943 0.8351 0.0381   -0.105351
 C 0.067 0.8386 0.0742   -0.003027
 C 0.1269 0.7743 0.0696   -0.13373
 C 0.075 0.9084 0.1183   0.239402
 C 0.126 0.005 0.1797   0.24416
 C 0.1879 0.0609 0.2097   -0.046264
 C 0.2178 0.0446 0.269   -0.121135
 C 0.2764 0.0992 0.2951   -0.090253
 C 0.3061 0.1682 0.2625   -0.089882
 C 0.2766 0.184 0.203   0.018892
 C 0.2171 0.1299 0.1779   -0.124376
 C 0.3085 0.2565 0.1654   0.089892
 C 0.2639 0.2855 0.1142   -0.202833
 C 0.2994 0.3444 0.0769   0.138395
 C 0.4124 0.3594 0.1392   0.157853
 C 0.3826 0.2984 0.1796   -0.203781
 C 0.7453 0.4637 0.4636   0.164673
 C 0.8115 0.4071 0.4702   -0.21354
 C 0.8188 0.3586 0.5225   0.091222
 C 0.7585 0.3732 0.5689   -0.227047
 C 0.6955 0.4304 0.5591   0.171241
 C 0.8847 0.2918 0.5287   0.021746
 C 0.9571 0.294 0.4927   -0.126332
 C 0.0168 0.2311 0.4985   -0.0834
 C 0.0057 0.1649 0.5381   -0.105351
 C 0.933 0.1614 0.5742   -0.003027
 C 0.8731 0.2257 0.5696   -0.13373
 C 0.925 0.0916 0.6183   0.239402
 C 0.874 0.995 0.6797   0.24416
 C 0.8121 0.9391 0.7097   -0.046264
 C 0.7822 0.9554 0.769   -0.121135
 C 0.7236 0.9008 0.7951   -0.090253
 C 0.6939 0.8318 0.7625   -0.089882
 C 0.7234 0.816 0.703   0.018892
 C 0.7829 0.8701 0.6779   -0.124376
 C 0.6915 0.7435 0.6654   0.089892
 C 0.7361 0.7145 0.6142   -0.202833
 C 0.7006 0.6556 0.5769   0.138395
 C 0.5876 0.6406 0.6392   0.157853
 C 0.6174 0.7016 0.6796   -0.203781
 C 0.4637 0.7453 0.5364   0.164673
 C 0.4071 0.8115 0.5298   -0.21354
 C 0.3586 0.8188 0.4775   0.091221
 C 0.3732 0.7585 0.4311   -0.227047
 C 0.4304 0.6955 0.4409   0.17124
 C 0.2918 0.8847 0.4713   0.021746
 C 0.294 0.9571 0.5073   -0.126331
 C 0.2311 0.0168 0.5015   -0.0834
 C 0.1649 0.0057 0.4619   -0.105351
 C 0.1614 0.933 0.4258   -0.003027
 C 0.2257 0.8731 0.4304   -0.13373
 C 0.0916 0.925 0.3817   0.239402
 C 0.995 0.874 0.3203   0.24416
 C 0.9391 0.8121 0.2903   -0.046264
 C 0.9554 0.7822 0.231   -0.121135
 C 0.9008 0.7236 0.2049   -0.090253
 C 0.8318 0.6939 0.2375   -0.089882
 C 0.816 0.7234 0.297   0.018892
 C 0.8701 0.7829 0.3221   -0.124376
 C 0.7435 0.6915 0.3346   0.089892
 C 0.7145 0.7361 0.3858   -0.202833
 C 0.6556 0.7006 0.4231   0.138395
 C 0.6406 0.5876 0.3608   0.157854
 C 0.7016 0.6174 0.3204   -0.203781
 C 0.5363 0.2547 0.0364   0.164673
 C 0.5929 0.1885 0.0298   -0.21354
 C 0.6414 0.1812 0.9775   0.091221
 C 0.6268 0.2415 0.9311   -0.227047
 C 0.5696 0.3045 0.9409   0.17124
 C 0.7082 0.1153 0.9713   0.021746
 C 0.706 0.0429 0.0073   -0.126331
 C 0.7689 0.9832 0.0015   -0.0834
 C 0.8351 0.9943 0.9619   -0.105351
 C 0.8386 0.067 0.9258   -0.003027
 C 0.7743 0.1269 0.9304   -0.13373
 C 0.9084 0.075 0.8817   0.239402
 C 0.005 0.126 0.8203   0.24416
 C 0.0609 0.1879 0.7903   -0.046264
 C 0.0446 0.2178 0.731   -0.121135
 C 0.0992 0.2764 0.7049   -0.090253
 C 0.1682 0.3061 0.7375   -0.089882
 C 0.184 0.2766 0.797   0.018892
 C 0.1299 0.2171 0.8221   -0.124376
 C 0.2565 0.3085 0.8346   0.089892
 C 0.2855 0.2639 0.8858   -0.202833
 C 0.3444 0.2994 0.9231   0.138395
 C 0.3594 0.4124 0.8608   0.157854
 C 0.2984 0.3826 0.8204   -0.203781
 C 0.2453 0.0363 0.7864   0.164673
 C 0.3115 0.0929 0.7798   -0.21354
 C 0.3188 0.1414 0.7275   0.091222
 C 0.2585 0.1268 0.6811   -0.227047
 C 0.1955 0.0696 0.6909   0.171241
 C 0.3847 0.2082 0.7213   0.021746
 C 0.4571 0.206 0.7573   -0.126332
 C 0.5168 0.2689 0.7515   -0.083401
 C 0.5057 0.3351 0.7119   -0.105351
 C 0.433 0.3386 0.6758   -0.003027
 C 0.3731 0.2743 0.6804   -0.13373
 C 0.425 0.4084 0.6317   0.239402
 C 0.374 0.505 0.5703   0.24416
 C 0.3121 0.5609 0.5403   -0.046264
 C 0.2822 0.5446 0.481   -0.121135
 C 0.2236 0.5992 0.4549   -0.090253
 C 0.1939 0.6682 0.4875   -0.089882
 C 0.2234 0.684 0.547   0.018892
 C 0.2829 0.6299 0.5721   -0.124376
 C 0.1915 0.7565 0.5846   0.089892
 C 0.2361 0.7855 0.6358   -0.202833
 C 0.2006 0.8444 0.6731   0.138395
 C 0.0876 0.8594 0.6108   0.157853
 C 0.1174 0.7984 0.5704   -0.203781
 C 0.7547 0.9637 0.2864   0.164673
 C 0.6885 0.9071 0.2798   -0.21354
 C 0.6812 0.8586 0.2275   0.091222
 C 0.7415 0.8732 0.1811   -0.227047
 C 0.8045 0.9304 0.1909   0.171241
 C 0.6153 0.7918 0.2213   0.021746
 C 0.5429 0.794 0.2573   -0.126332
 C 0.4832 0.7311 0.2515   -0.083401
 C 0.4943 0.6649 0.2119   -0.105351
 C 0.567 0.6614 0.1758   -0.003027
 C 0.6269 0.7257 0.1804   -0.13373
 C 0.575 0.5916 0.1317   0.239402
 C 0.626 0.495 0.0703   0.24416
 C 0.6879 0.4391 0.0403   -0.046264
 C 0.7178 0.4554 0.981   -0.121135
 C 0.7764 0.4008 0.9549   -0.090253
 C 0.8061 0.3318 0.9875   -0.089882
 C 0.7766 0.316 0.047   0.018892
 C 0.7171 0.3701 0.0721   -0.124376
 C 0.8085 0.2435 0.0846   0.089892
 C 0.7639 0.2145 0.1358   -0.202833
 C 0.7994 0.1556 0.1731   0.138395
 C 0.9124 0.1406 0.1108   0.157853
 C 0.8826 0.2016 0.0704   -0.203781
 N 0.0243 0.1875 0.2574   -0.371027
 N 0.4452 0.488 0.395   -0.286724
 N 0.5063 0.4561 0.4334   -0.227359
 N 0.4446 0.3513 0.389   0.088156
 N 0.426 0.2701 0.3675   -0.554853
 N 0.8806 0.1256 0.3372   -0.353828
 N 0.9757 0.8125 0.7574   -0.371027
 N 0.5548 0.512 0.895   -0.286724
 N 0.4937 0.5439 0.9334   -0.227359
 N 0.5554 0.6487 0.889   0.088156
 N 0.574 0.7299 0.8675   -0.554853
 N 0.1194 0.8744 0.8372   -0.353828
 N 0.3125 0.5243 0.0074   -0.371027
 N 0.012 0.9452 0.145   -0.286724
 N 0.0439 0.0063 0.1834   -0.227359
 N 0.1487 0.9446 0.139   0.088156
 N 0.2299 0.926 0.1175   -0.554852
 N 0.3744 0.3806 0.0872   -0.353828
 N 0.6875 0.4757 0.5074   -0.371027
 N 0.988 0.0548 0.645   -0.286724
 N 0.9561 0.9937 0.6834   -0.227359
 N 0.8513 0.0554 0.639   0.088156
 N 0.7701 0.074 0.6175   -0.554852
 N 0.6256 0.6194 0.5872   -0.353828
 N 0.4757 0.6875 0.4926   -0.371027
 N 0.0548 0.988 0.355   -0.286724
 N 0.9937 0.9561 0.3166   -0.227359
 N 0.0554 0.8513 0.361   0.088157
 N 0.074 0.7701 0.3825   -0.554853
 N 0.6194 0.6256 0.4128   -0.353828
 N 0.5243 0.3125 0.9926   -0.371027
 N 0.9452 0.012 0.855   -0.286724
 N 0.0063 0.0439 0.8166   -0.227359
 N 0.9446 0.1487 0.861   0.088157
 N 0.926 0.2299 0.8825   -0.554853
 N 0.3806 0.3744 0.9128   -0.353828
 N 0.1875 0.0243 0.7426   -0.371027
 N 0.488 0.4452 0.605   -0.286724
 N 0.4561 0.5063 0.5666   -0.227359
 N 0.3513 0.4446 0.611   0.088157
 N 0.2701 0.426 0.6325   -0.554853
 N 0.1256 0.8806 0.6628   -0.353828
 N 0.8125 0.9757 0.2426   -0.371027
 N 0.512 0.5548 0.105   -0.286724
 N 0.5439 0.4937 0.0666   -0.227359
 N 0.6487 0.5554 0.111   0.088157
 N 0.7299 0.574 0.1325   -0.554853
 N 0.8744 0.1194 0.1628   -0.353828
 Cl 0.12184 0.12184 0.0   1.811313
 Cl 0.87816 0.87816 0.5   1.811313
 Cl 0.37816 0.62184 0.75   1.811313
 Cl 0.62184 0.37816 0.25   1.811313
 O 0.111 0.1773 0.0454   -0.672168
 O 0.1355 0.0588 0.0345   -0.651989
 O 0.1773 0.111 0.9546   -0.672167
 O 0.0588 0.1355 0.9655   -0.651989
 O 0.889 0.8227 0.5454   -0.672168
 O 0.8645 0.9412 0.5345   -0.651989
 O 0.8227 0.889 0.4546   -0.672167
 O 0.9412 0.8645 0.4655   -0.651989
 O 0.3227 0.611 0.7954   -0.672168
 O 0.4412 0.6355 0.7845   -0.651989
 O 0.389 0.6773 0.7046   -0.672167
 O 0.3645 0.5588 0.7155   -0.651989
 O 0.6773 0.389 0.2954   -0.672168
 O 0.5588 0.3645 0.2845   -0.651989
 O 0.611 0.3227 0.2046   -0.672167
 O 0.6355 0.4412 0.2155   -0.651989
