{'_ref': 'TBD', '_srcid': 'CAKYAQ_clean', 'submitters': [{'name': 'Dalar Nazarian Jeff Camp and David Sholl', 'email': 'dalar@gatech.edu jcamp6@gatech.edu'}], '_method': 'VASP DFT with PBE;DDEC'}
data_CdH36C48N12ClO4
_symmetry_space_group_name_H-M   'P 1'
_cell_length_a   15.88780000
_cell_length_b   15.88780000
_cell_length_c   21.70300000
_cell_angle_alpha   90.00000000
_cell_angle_beta   90.00000000
_cell_angle_gamma   90.00000000
_symmetry_Int_Tables_number   1
_chemical_formula_structural   CdH36C48N12ClO4
_chemical_formula_sum   'Cd4 H144 C192 N48 Cl4 O16'
_cell_volume   5478.31876439
_cell_formula_units_Z   4
loop_
 _symmetry_equiv_pos_site_id
 _symmetry_equiv_pos_as_xyz
  1  'x, y, z'
loop_
 _atom_site_label
 _atom_site_fract_x
 _atom_site_fract_y
 _atom_site_fract_z
 _atom_site_charge
 Cd 0.05883 0.94117 0.75   0.787855
 Cd 0.94117 0.05883 0.25   0.787855
 Cd 0.55883 0.55883 0.5   0.787855
 Cd 0.44117 0.44117 0.0   0.787855
 H 0.14 0.1975 0.863   0.114698
 H 0.0891 0.2959 0.6644   0.097459
 H 0.776 0.1764 0.9053   0.088983
 H 0.7665 0.934 0.0263   0.097453
 H 0.6557 0.237 0.8928   0.118594
 H 0.6617 0.0348 0.0357   0.101716
 H 0.205 0.3458 0.7191   0.075023
 H 0.2639 0.2102 0.8947   0.12925
 H 0.3604 0.2694 0.9592   0.067515
 H 0.3881 0.4626 0.8499   0.078195
 H 0.9092 0.2625 0.8501   0.308084
 H 0.9727 0.2529 0.8999   0.329183
 H 0.2855 0.4131 0.784   0.129282
 H 0.8777 0.9538 0.9591   0.101985
 H 0.5984 0.1486 0.0618   0.124522
 H 0.9965 0.1991 0.7092   0.087742
 H 0.5617 0.3449 0.9094   0.048651
 H 0.5053 0.26 0.0736   0.066402
 H 0.86 0.8025 0.363   0.114698
 H 0.9109 0.7041 0.1644   0.097459
 H 0.224 0.8236 0.4053   0.088983
 H 0.2335 0.066 0.5263   0.097453
 H 0.3443 0.763 0.3928   0.118594
 H 0.3383 0.9652 0.5357   0.101716
 H 0.795 0.6542 0.2191   0.075023
 H 0.7361 0.7898 0.3947   0.12925
 H 0.6396 0.7306 0.4592   0.067515
 H 0.6119 0.5374 0.3499   0.078195
 H 0.0908 0.7375 0.3501   0.308084
 H 0.0273 0.7471 0.3999   0.329183
 H 0.7145 0.5869 0.284   0.129282
 H 0.1223 0.0462 0.4591   0.101985
 H 0.4016 0.8514 0.5618   0.124522
 H 0.0035 0.8009 0.2092   0.087742
 H 0.4383 0.6551 0.4094   0.048651
 H 0.4947 0.74 0.5736   0.066402
 H 0.3025 0.64 0.613   0.114698
 H 0.2041 0.5891 0.4144   0.097459
 H 0.3236 0.276 0.6553   0.088983
 H 0.566 0.2665 0.7763   0.097455
 H 0.263 0.1557 0.6428   0.118596
 H 0.4652 0.1617 0.7857   0.101716
 H 0.1542 0.705 0.4691   0.075023
 H 0.2898 0.7639 0.6447   0.12925
 H 0.2306 0.8604 0.7092   0.067515
 H 0.0374 0.8881 0.5999   0.078196
 H 0.2375 0.4092 0.6001   0.308084
 H 0.2471 0.4727 0.6499   0.329182
 H 0.0869 0.7855 0.534   0.129282
 H 0.5462 0.3777 0.7091   0.101984
 H 0.3514 0.0984 0.8118   0.124522
 H 0.3009 0.4965 0.4592   0.087742
 H 0.1551 0.0617 0.6594   0.048651
 H 0.24 0.0053 0.8236   0.066402
 H 0.6975 0.36 0.113   0.114698
 H 0.7959 0.4109 0.9144   0.097459
 H 0.6764 0.724 0.1553   0.088983
 H 0.434 0.7335 0.2763   0.097455
 H 0.737 0.8443 0.1428   0.118596
 H 0.5348 0.8383 0.2857   0.101716
 H 0.8458 0.295 0.9691   0.075023
 H 0.7102 0.2361 0.1447   0.12925
 H 0.7694 0.1396 0.2092   0.067515
 H 0.9626 0.1119 0.0999   0.078196
 H 0.7625 0.5908 0.1001   0.308084
 H 0.7529 0.5273 0.1499   0.329182
 H 0.9131 0.2145 0.034   0.129282
 H 0.4538 0.6223 0.2091   0.101984
 H 0.6486 0.9016 0.3118   0.124522
 H 0.6991 0.5035 0.9592   0.087742
 H 0.8449 0.9383 0.1594   0.048651
 H 0.76 0.9947 0.3236   0.066402
 H 0.36 0.6975 0.887   0.114698
 H 0.4109 0.7959 0.0856   0.097459
 H 0.724 0.6764 0.8447   0.088983
 H 0.7335 0.434 0.7237   0.097456
 H 0.8443 0.737 0.8572   0.118594
 H 0.8383 0.5348 0.7143   0.101716
 H 0.295 0.8458 0.0309   0.075023
 H 0.2361 0.7102 0.8553   0.12925
 H 0.1396 0.7694 0.7908   0.067515
 H 0.1119 0.9626 0.9001   0.078195
 H 0.5908 0.7625 0.8999   0.308086
 H 0.5273 0.7529 0.8501   0.329183
 H 0.2145 0.9131 0.966   0.129282
 H 0.6223 0.4538 0.7909   0.101984
 H 0.9016 0.6486 0.6882   0.124522
 H 0.5035 0.6991 0.0408   0.087742
 H 0.9383 0.8449 0.8406   0.048651
 H 0.9947 0.76 0.6764   0.066402
 H 0.64 0.3025 0.387   0.114698
 H 0.5891 0.2041 0.5856   0.097459
 H 0.276 0.3236 0.3447   0.088983
 H 0.2665 0.566 0.2237   0.097456
 H 0.1557 0.263 0.3572   0.118594
 H 0.1617 0.4652 0.2143   0.101716
 H 0.705 0.1542 0.5309   0.075023
 H 0.7639 0.2898 0.3553   0.12925
 H 0.8604 0.2306 0.2908   0.067515
 H 0.8881 0.0374 0.4001   0.078195
 H 0.4092 0.2375 0.3999   0.308086
 H 0.4727 0.2471 0.3501   0.329183
 H 0.7855 0.0869 0.466   0.129282
 H 0.3777 0.5462 0.2909   0.101984
 H 0.0984 0.3514 0.1882   0.124522
 H 0.4965 0.3009 0.5408   0.087742
 H 0.0617 0.1551 0.3406   0.048651
 H 0.0053 0.24 0.1764   0.066402
 H 0.1975 0.14 0.137   0.114698
 H 0.2959 0.0891 0.3356   0.097459
 H 0.1764 0.776 0.0947   0.088983
 H 0.934 0.7665 0.9737   0.097458
 H 0.237 0.6557 0.1072   0.118596
 H 0.0348 0.6617 0.9643   0.101716
 H 0.3458 0.205 0.2809   0.075023
 H 0.2102 0.2639 0.1053   0.12925
 H 0.2694 0.3604 0.0408   0.067515
 H 0.4626 0.3881 0.1501   0.078195
 H 0.2625 0.9092 0.1499   0.308086
 H 0.2529 0.9727 0.1001   0.329182
 H 0.4131 0.2855 0.216   0.129282
 H 0.9538 0.8777 0.0409   0.101984
 H 0.1486 0.5984 0.9382   0.124522
 H 0.1991 0.9965 0.2908   0.087742
 H 0.3449 0.5617 0.0906   0.048651
 H 0.26 0.5053 0.9264   0.066402
 H 0.8025 0.86 0.637   0.114698
 H 0.7041 0.9109 0.8356   0.097459
 H 0.8236 0.224 0.5947   0.088983
 H 0.066 0.2335 0.4737   0.097458
 H 0.763 0.3443 0.6072   0.118596
 H 0.9652 0.3383 0.4643   0.101716
 H 0.6542 0.795 0.7809   0.075023
 H 0.7898 0.7361 0.6053   0.12925
 H 0.7306 0.6396 0.5408   0.067515
 H 0.5374 0.6119 0.6501   0.078195
 H 0.7375 0.0908 0.6499   0.308086
 H 0.7471 0.0273 0.6001   0.329182
 H 0.5869 0.7145 0.716   0.129282
 H 0.0462 0.1223 0.5409   0.101984
 H 0.8514 0.4016 0.4382   0.124522
 H 0.8009 0.0035 0.7908   0.087742
 H 0.6551 0.4383 0.5906   0.048651
 H 0.74 0.4947 0.4264   0.066402
 C 0.8386 0.0672 0.9257   -0.004958
 C 0.9078 0.0749 0.8819   0.240034
 C 0.0053 0.1263 0.82   0.244449
 C 0.1295 0.2179 0.8225   -0.124548
 C 0.0992 0.2762 0.705   -0.092318
 C 0.7743 0.1273 0.9303   -0.131184
 C 0.7689 0.9836 0.002   -0.085608
 C 0.6267 0.2407 0.931   -0.227984
 C 0.6418 0.1813 0.9776   0.093208
 C 0.7064 0.0432 0.0072   -0.122062
 C 0.1681 0.306 0.7375   -0.090124
 C 0.1834 0.2773 0.7976   0.01778
 C 0.2853 0.2647 0.8859   -0.203492
 C 0.344 0.2998 0.9234   0.139263
 C 0.3593 0.4123 0.8606   0.156617
 C 0.2563 0.3082 0.8346   0.090375
 C 0.2985 0.3829 0.8206   -0.205031
 C 0.7081 0.1152 0.9712   0.020697
 C 0.8347 0.9951 0.962   -0.102206
 C 0.5932 0.189 0.0298   -0.211937
 C 0.0611 0.1873 0.7903   -0.046509
 C 0.0446 0.2179 0.7313   -0.120196
 C 0.5694 0.3044 0.941   0.172235
 C 0.5364 0.2555 0.0364   0.164717
 C 0.1614 0.9328 0.4257   -0.004958
 C 0.0922 0.9251 0.3819   0.240034
 C 0.9947 0.8737 0.32   0.244449
 C 0.8705 0.7821 0.3225   -0.124548
 C 0.9008 0.7238 0.205   -0.092318
 C 0.2257 0.8727 0.4303   -0.131184
 C 0.2311 0.0164 0.502   -0.085608
 C 0.3733 0.7593 0.431   -0.227984
 C 0.3582 0.8187 0.4776   0.093208
 C 0.2936 0.9568 0.5072   -0.122062
 C 0.8319 0.694 0.2375   -0.090124
 C 0.8166 0.7227 0.2976   0.01778
 C 0.7147 0.7353 0.3859   -0.203492
 C 0.656 0.7002 0.4234   0.139263
 C 0.6407 0.5877 0.3606   0.156617
 C 0.7437 0.6918 0.3346   0.090375
 C 0.7015 0.6171 0.3206   -0.205031
 C 0.2919 0.8848 0.4712   0.020697
 C 0.1653 0.0049 0.462   -0.102206
 C 0.4068 0.811 0.5298   -0.211937
 C 0.9389 0.8127 0.2903   -0.046509
 C 0.9554 0.7821 0.2313   -0.120196
 C 0.4306 0.6956 0.441   0.172235
 C 0.4636 0.7445 0.5364   0.164717
 C 0.4328 0.3386 0.6757   -0.004958
 C 0.4251 0.4078 0.6319   0.240034
 C 0.3737 0.5053 0.57   0.244449
 C 0.2821 0.6295 0.5725   -0.124547
 C 0.2238 0.5992 0.455   -0.092318
 C 0.3727 0.2743 0.6803   -0.131184
 C 0.5164 0.2689 0.752   -0.085609
 C 0.2593 0.1267 0.681   -0.227985
 C 0.3187 0.1418 0.7276   0.093209
 C 0.4568 0.2064 0.7572   -0.122062
 C 0.194 0.6681 0.4875   -0.090124
 C 0.2227 0.6834 0.5476   0.01778
 C 0.2353 0.7853 0.6359   -0.203491
 C 0.2002 0.844 0.6734   0.139263
 C 0.0877 0.8593 0.6106   0.156616
 C 0.1918 0.7563 0.5846   0.090375
 C 0.1171 0.7985 0.5706   -0.20503
 C 0.3848 0.2081 0.7212   0.020698
 C 0.5049 0.3347 0.712   -0.102206
 C 0.311 0.0932 0.7798   -0.211937
 C 0.3127 0.5611 0.5403   -0.046509
 C 0.2821 0.5446 0.4813   -0.120196
 C 0.1956 0.0694 0.691   0.172236
 C 0.2445 0.0364 0.7864   0.164717
 C 0.5672 0.6614 0.1757   -0.004958
 C 0.5749 0.5922 0.1319   0.240034
 C 0.6263 0.4947 0.07   0.244449
 C 0.7179 0.3705 0.0725   -0.124547
 C 0.7762 0.4008 0.955   -0.092318
 C 0.6273 0.7257 0.1803   -0.131184
 C 0.4836 0.7311 0.252   -0.085609
 C 0.7407 0.8733 0.181   -0.227985
 C 0.6813 0.8582 0.2276   0.093209
 C 0.5432 0.7936 0.2572   -0.122062
 C 0.806 0.3319 0.9875   -0.090124
 C 0.7773 0.3166 0.0476   0.01778
 C 0.7647 0.2147 0.1359   -0.203491
 C 0.7998 0.156 0.1734   0.139263
 C 0.9123 0.1407 0.1106   0.156616
 C 0.8082 0.2437 0.0846   0.090375
 C 0.8829 0.2015 0.0706   -0.20503
 C 0.6152 0.7919 0.2212   0.020698
 C 0.4951 0.6653 0.212   -0.102206
 C 0.689 0.9068 0.2798   -0.211937
 C 0.6873 0.4389 0.0403   -0.046509
 C 0.7179 0.4554 0.9813   -0.120196
 C 0.8044 0.9306 0.191   0.172236
 C 0.7555 0.9636 0.2864   0.164717
 C 0.6614 0.5672 0.8243   -0.004958
 C 0.5922 0.5749 0.8681   0.240034
 C 0.4947 0.6263 0.93   0.244449
 C 0.3705 0.7179 0.9275   -0.124548
 C 0.4008 0.7762 0.045   -0.092318
 C 0.7257 0.6273 0.8197   -0.131185
 C 0.7311 0.4836 0.748   -0.085609
 C 0.8733 0.7407 0.819   -0.227984
 C 0.8582 0.6813 0.7724   0.093208
 C 0.7936 0.5432 0.7428   -0.122062
 C 0.3319 0.806 0.0125   -0.090124
 C 0.3166 0.7773 0.9524   0.01778
 C 0.2147 0.7647 0.8641   -0.203492
 C 0.156 0.7998 0.8266   0.139263
 C 0.1407 0.9123 0.8894   0.156617
 C 0.2437 0.8082 0.9154   0.090375
 C 0.2015 0.8829 0.9294   -0.205031
 C 0.7919 0.6152 0.7788   0.020697
 C 0.6653 0.4951 0.788   -0.102205
 C 0.9068 0.689 0.7202   -0.211937
 C 0.4389 0.6873 0.9597   -0.046509
 C 0.4554 0.7179 0.0187   -0.120197
 C 0.9306 0.8044 0.809   0.172235
 C 0.9636 0.7555 0.7136   0.164717
 C 0.3386 0.4328 0.3243   -0.004958
 C 0.4078 0.4251 0.3681   0.240034
 C 0.5053 0.3737 0.43   0.244449
 C 0.6295 0.2821 0.4275   -0.124548
 C 0.5992 0.2238 0.545   -0.092318
 C 0.2743 0.3727 0.3197   -0.131185
 C 0.2689 0.5164 0.248   -0.085609
 C 0.1267 0.2593 0.319   -0.227984
 C 0.1418 0.3187 0.2724   0.093208
 C 0.2064 0.4568 0.2428   -0.122062
 C 0.6681 0.194 0.5125   -0.090124
 C 0.6834 0.2227 0.4524   0.01778
 C 0.7853 0.2353 0.3641   -0.203492
 C 0.844 0.2002 0.3266   0.139263
 C 0.8593 0.0877 0.3894   0.156617
 C 0.7563 0.1918 0.4154   0.090375
 C 0.7985 0.1171 0.4294   -0.205031
 C 0.2081 0.3848 0.2788   0.020697
 C 0.3347 0.5049 0.288   -0.102205
 C 0.0932 0.311 0.2202   -0.211937
 C 0.5611 0.3127 0.4597   -0.046509
 C 0.5446 0.2821 0.5187   -0.120197
 C 0.0694 0.1956 0.309   0.172235
 C 0.0364 0.2445 0.2136   0.164717
 C 0.0672 0.8386 0.0743   -0.004958
 C 0.0749 0.9078 0.1181   0.240034
 C 0.1263 0.0053 0.18   0.244449
 C 0.2179 0.1295 0.1775   -0.124547
 C 0.2762 0.0992 0.295   -0.092318
 C 0.1273 0.7743 0.0697   -0.131184
 C 0.9836 0.7689 0.998   -0.08561
 C 0.2407 0.6267 0.069   -0.227985
 C 0.1813 0.6418 0.0224   0.093209
 C 0.0432 0.7064 0.9928   -0.122062
 C 0.306 0.1681 0.2625   -0.090124
 C 0.2773 0.1834 0.2024   0.01778
 C 0.2647 0.2853 0.1141   -0.203491
 C 0.2998 0.344 0.0766   0.139263
 C 0.4123 0.3593 0.1394   0.156616
 C 0.3082 0.2563 0.1654   0.090375
 C 0.3829 0.2985 0.1794   -0.20503
 C 0.1152 0.7081 0.0288   0.020698
 C 0.9951 0.8347 0.038   -0.102205
 C 0.189 0.5932 0.9702   -0.211937
 C 0.1873 0.0611 0.2097   -0.046509
 C 0.2179 0.0446 0.2687   -0.120197
 C 0.3044 0.5694 0.059   0.172236
 C 0.2555 0.5364 0.9636   0.164717
 C 0.9328 0.1614 0.5743   -0.004958
 C 0.9251 0.0922 0.6181   0.240034
 C 0.8737 0.9947 0.68   0.244449
 C 0.7821 0.8705 0.6775   -0.124547
 C 0.7238 0.9008 0.795   -0.092318
 C 0.8727 0.2257 0.5697   -0.131184
 C 0.0164 0.2311 0.498   -0.08561
 C 0.7593 0.3733 0.569   -0.227985
 C 0.8187 0.3582 0.5224   0.093209
 C 0.9568 0.2936 0.4928   -0.122062
 C 0.694 0.8319 0.7625   -0.090124
 C 0.7227 0.8166 0.7024   0.01778
 C 0.7353 0.7147 0.6141   -0.203491
 C 0.7002 0.656 0.5766   0.139263
 C 0.5877 0.6407 0.6394   0.156616
 C 0.6918 0.7437 0.6654   0.090375
 C 0.6171 0.7015 0.6794   -0.20503
 C 0.8848 0.2919 0.5288   0.020698
 C 0.0049 0.1653 0.538   -0.102205
 C 0.811 0.4068 0.4702   -0.211937
 C 0.8127 0.9389 0.7097   -0.046509
 C 0.7821 0.9554 0.7687   -0.120197
 C 0.6956 0.4306 0.559   0.172236
 C 0.7445 0.4636 0.4636   0.164717
 N 0.945 0.1487 0.8612   0.085208
 N 0.3802 0.3747 0.9131   -0.357504
 N 0.9452 0.012 0.8548   -0.286919
 N 0.0063 0.0441 0.8168   -0.226139
 N 0.5243 0.3127 0.9925   -0.367208
 N 0.9259 0.23 0.8824   -0.556756
 N 0.055 0.8513 0.3612   0.085208
 N 0.6198 0.6253 0.4131   -0.357504
 N 0.0548 0.988 0.3548   -0.286919
 N 0.9937 0.9559 0.3168   -0.226139
 N 0.4757 0.6873 0.4925   -0.367208
 N 0.0741 0.77 0.3824   -0.556756
 N 0.3513 0.445 0.6112   0.085208
 N 0.1253 0.8802 0.6631   -0.357504
 N 0.488 0.4452 0.6048   -0.286919
 N 0.4559 0.5063 0.5668   -0.226138
 N 0.1873 0.0243 0.7425   -0.367208
 N 0.27 0.4259 0.6324   -0.556756
 N 0.6487 0.555 0.1112   0.085208
 N 0.8747 0.1198 0.1631   -0.357504
 N 0.512 0.5548 0.1048   -0.286919
 N 0.5441 0.4937 0.0668   -0.226138
 N 0.8127 0.9757 0.2425   -0.367208
 N 0.73 0.5741 0.1324   -0.556756
 N 0.555 0.6487 0.8888   0.085209
 N 0.1198 0.8747 0.8369   -0.357504
 N 0.5548 0.512 0.8952   -0.286919
 N 0.4937 0.5441 0.9332   -0.226138
 N 0.9757 0.8127 0.7575   -0.367208
 N 0.5741 0.73 0.8676   -0.556757
 N 0.445 0.3513 0.3888   0.085209
 N 0.8802 0.1253 0.3369   -0.357504
 N 0.4452 0.488 0.3952   -0.286919
 N 0.5063 0.4559 0.4332   -0.226138
 N 0.0243 0.1873 0.2575   -0.367208
 N 0.4259 0.27 0.3676   -0.556757
 N 0.1487 0.945 0.1388   0.085209
 N 0.3747 0.3802 0.0869   -0.357504
 N 0.012 0.9452 0.1452   -0.286919
 N 0.0441 0.0063 0.1832   -0.226138
 N 0.3127 0.5243 0.0075   -0.367208
 N 0.23 0.9259 0.1176   -0.556757
 N 0.8513 0.055 0.6388   0.085209
 N 0.6253 0.6198 0.5869   -0.357504
 N 0.988 0.0548 0.6452   -0.286919
 N 0.9559 0.9937 0.6832   -0.226138
 N 0.6873 0.4757 0.5075   -0.367208
 N 0.77 0.0741 0.6176   -0.556757
 Cl 0.12098 0.12098 0.0   1.830912
 Cl 0.87902 0.87902 0.5   1.830912
 Cl 0.37902 0.62098 0.75   1.830912
 Cl 0.62098 0.37902 0.25   1.830912
 O 0.0594 0.1342 0.965   -0.650129
 O 0.1773 0.1102 0.9551   -0.685896
 O 0.1342 0.0594 0.035   -0.650129
 O 0.1102 0.1773 0.0449   -0.685896
 O 0.9406 0.8658 0.465   -0.650129
 O 0.8227 0.8898 0.4551   -0.685896
 O 0.8658 0.9406 0.535   -0.650129
 O 0.8898 0.8227 0.5449   -0.685896
 O 0.3658 0.5594 0.715   -0.650129
 O 0.3898 0.6773 0.7051   -0.685896
 O 0.4406 0.6342 0.785   -0.650129
 O 0.3227 0.6102 0.7949   -0.685896
 O 0.6342 0.4406 0.215   -0.650129
 O 0.6102 0.3227 0.2051   -0.685896
 O 0.5594 0.3658 0.285   -0.650129
 O 0.6773 0.3898 0.2949   -0.685896
