{'_ref': 'TBD', '_srcid': 'CAKYAQ_clean', 'submitters': [{'name': 'Dalar Nazarian Jeff Camp and David Sholl', 'email': 'dalar@gatech.edu jcamp6@gatech.edu'}], '_method': 'VASP DFT with PBE;DDEC'}
data_CdH36C48N12(ClO4)2
_symmetry_space_group_name_H-M   'P 1'
_cell_length_a   15.85620000
_cell_length_b   15.85620000
_cell_length_c   21.76500000
_cell_angle_alpha   90.00000000
_cell_angle_beta   90.00000000
_cell_angle_gamma   90.00000000
_symmetry_Int_Tables_number   1
_chemical_formula_structural   CdH36C48N12(ClO4)2
_chemical_formula_sum   'Cd4 H144 C192 N48 Cl8 O32'
_cell_volume   5472.13624225
_cell_formula_units_Z   4
loop_
 _symmetry_equiv_pos_site_id
 _symmetry_equiv_pos_as_xyz
  1  'x, y, z'
loop_
 _atom_site_label
 _atom_site_fract_x
 _atom_site_fract_y
 _atom_site_fract_z
 _atom_site_charge
 Cd 0.05979 0.94021 0.25   0.79594
 Cd 0.94021 0.05979 0.75   0.79594
 Cd 0.55979 0.55979 0.5   0.79594
 Cd 0.44021 0.44021 0.0   0.79594
 H 0.7431 0.4952 0.5708   0.063291
 H 0.8532 0.4034 0.5593   0.126575
 H 0.7639 0.3456 0.3934   0.133934
 H 0.6576 0.4401 0.4088   0.0595
 H 0.9673 0.3371 0.5338   0.10479
 H 0.0665 0.2339 0.524   0.109972
 H 0.0457 0.1204 0.4591   0.108902
 H 0.8261 0.2239 0.405   0.094064
 H 0.8011 0.0025 0.2088   0.087101
 H 0.7053 0.9097 0.1643   0.115218
 H 0.6563 0.7945 0.219   0.079021
 H 0.8043 0.8594 0.3604   0.102253
 H 0.5873 0.7149 0.2847   0.134047
 H 0.5365 0.6139 0.3502   0.09338
 H 0.7318 0.6401 0.4575   0.067481
 H 0.7896 0.7365 0.3937   0.117953
 H 0.7417 0.0269 0.3861   0.321
 H 0.743 0.1062 0.3526   0.304044
 H 0.2569 0.5048 0.0708   0.063291
 H 0.1468 0.5966 0.0593   0.126575
 H 0.2361 0.6544 0.8934   0.133934
 H 0.3424 0.5599 0.9088   0.0595
 H 0.0327 0.6629 0.0338   0.10479
 H 0.9335 0.7661 0.024   0.109972
 H 0.9543 0.8796 0.9591   0.108902
 H 0.1739 0.7761 0.905   0.094064
 H 0.1989 0.9975 0.7088   0.087101
 H 0.2947 0.0903 0.6643   0.115218
 H 0.3437 0.2055 0.719   0.079021
 H 0.1957 0.1406 0.8604   0.102253
 H 0.4127 0.2851 0.7847   0.134047
 H 0.4635 0.3861 0.8502   0.09338
 H 0.2682 0.3599 0.9575   0.067481
 H 0.2104 0.2635 0.8937   0.117953
 H 0.2583 0.9731 0.8861   0.321
 H 0.257 0.8938 0.8526   0.304044
 H 0.0048 0.2431 0.8208   0.063291
 H 0.0966 0.3532 0.8093   0.126576
 H 0.1544 0.2639 0.6434   0.133934
 H 0.0599 0.1576 0.6588   0.0595
 H 0.1629 0.4673 0.7838   0.10479
 H 0.2661 0.5665 0.774   0.109972
 H 0.3796 0.5457 0.7091   0.108902
 H 0.2761 0.3261 0.655   0.094064
 H 0.4975 0.3011 0.4588   0.087101
 H 0.5903 0.2053 0.4143   0.115217
 H 0.7055 0.1563 0.469   0.079021
 H 0.6406 0.3043 0.6104   0.102253
 H 0.7851 0.0873 0.5347   0.134047
 H 0.8861 0.0365 0.6002   0.09338
 H 0.8599 0.2318 0.7075   0.067481
 H 0.7635 0.2896 0.6437   0.117953
 H 0.4731 0.2417 0.6361   0.321
 H 0.3938 0.243 0.6026   0.304044
 H 0.9952 0.7569 0.3208   0.063291
 H 0.9034 0.6468 0.3093   0.126576
 H 0.8456 0.7361 0.1434   0.133934
 H 0.9401 0.8424 0.1588   0.0595
 H 0.8371 0.5327 0.2838   0.10479
 H 0.7339 0.4335 0.274   0.109972
 H 0.6204 0.4543 0.2091   0.108902
 H 0.7239 0.6739 0.155   0.094064
 H 0.5025 0.6989 0.9588   0.087101
 H 0.4097 0.7947 0.9143   0.115217
 H 0.2945 0.8437 0.969   0.079021
 H 0.3594 0.6957 0.1104   0.102253
 H 0.2149 0.9127 0.0347   0.134047
 H 0.1139 0.9635 0.1002   0.09338
 H 0.1401 0.7682 0.2075   0.067481
 H 0.2365 0.7104 0.1437   0.117953
 H 0.5269 0.7583 0.1361   0.321
 H 0.6062 0.757 0.1026   0.304044
 H 0.7569 0.9952 0.6792   0.063291
 H 0.6468 0.9034 0.6907   0.126575
 H 0.7361 0.8456 0.8566   0.133934
 H 0.8424 0.9401 0.8412   0.0595
 H 0.5327 0.8371 0.7162   0.10479
 H 0.4335 0.7339 0.726   0.109972
 H 0.4543 0.6204 0.7909   0.108902
 H 0.6739 0.7239 0.845   0.094064
 H 0.6989 0.5025 0.0412   0.087101
 H 0.7947 0.4097 0.0857   0.115217
 H 0.8437 0.2945 0.031   0.079021
 H 0.6957 0.3594 0.8896   0.102253
 H 0.9127 0.2149 0.9653   0.134047
 H 0.9635 0.1139 0.8998   0.09338
 H 0.7682 0.1401 0.7925   0.067481
 H 0.7104 0.2365 0.8563   0.117953
 H 0.7583 0.5269 0.8639   0.321
 H 0.757 0.6062 0.8974   0.304044
 H 0.2431 0.0048 0.1792   0.063291
 H 0.3532 0.0966 0.1907   0.126575
 H 0.2639 0.1544 0.3566   0.133934
 H 0.1576 0.0599 0.3412   0.0595
 H 0.4673 0.1629 0.2162   0.10479
 H 0.5665 0.2661 0.226   0.109972
 H 0.5457 0.3796 0.2909   0.108902
 H 0.3261 0.2761 0.345   0.094064
 H 0.3011 0.4975 0.5412   0.087101
 H 0.2053 0.5903 0.5857   0.115217
 H 0.1563 0.7055 0.531   0.079021
 H 0.3043 0.6406 0.3896   0.102253
 H 0.0873 0.7851 0.4653   0.134047
 H 0.0365 0.8861 0.3998   0.09338
 H 0.2318 0.8599 0.2925   0.067481
 H 0.2896 0.7635 0.3563   0.117953
 H 0.2417 0.4731 0.3639   0.321
 H 0.243 0.3938 0.3974   0.304044
 H 0.4952 0.7431 0.4292   0.063291
 H 0.4034 0.8532 0.4407   0.126576
 H 0.3456 0.7639 0.6066   0.133934
 H 0.4401 0.6576 0.5912   0.0595
 H 0.3371 0.9673 0.4662   0.10479
 H 0.2339 0.0665 0.476   0.109972
 H 0.1204 0.0457 0.5409   0.108902
 H 0.2239 0.8261 0.595   0.094064
 H 0.0025 0.8011 0.7912   0.087101
 H 0.9097 0.7053 0.8357   0.115217
 H 0.7945 0.6563 0.781   0.079021
 H 0.8594 0.8043 0.6396   0.102253
 H 0.7149 0.5873 0.7153   0.134047
 H 0.6139 0.5365 0.6498   0.09338
 H 0.6401 0.7318 0.5425   0.067481
 H 0.7365 0.7896 0.6063   0.117953
 H 0.0269 0.7417 0.6139   0.321
 H 0.1062 0.743 0.6474   0.304044
 H 0.5048 0.2569 0.9292   0.063291
 H 0.5966 0.1468 0.9407   0.126576
 H 0.6544 0.2361 0.1066   0.133934
 H 0.5599 0.3424 0.0912   0.0595
 H 0.6629 0.0327 0.9662   0.10479
 H 0.7661 0.9335 0.976   0.109972
 H 0.8796 0.9543 0.0409   0.108902
 H 0.7761 0.1739 0.095   0.094064
 H 0.9975 0.1989 0.2912   0.087101
 H 0.0903 0.2947 0.3357   0.115217
 H 0.2055 0.3437 0.281   0.079021
 H 0.1406 0.1957 0.1396   0.102253
 H 0.2851 0.4127 0.2153   0.134047
 H 0.3861 0.4635 0.1498   0.09338
 H 0.3599 0.2682 0.0425   0.067481
 H 0.2635 0.2104 0.1063   0.117953
 H 0.9731 0.2583 0.1139   0.321
 H 0.8938 0.257 0.1474   0.304044
 C 0.747 0.4643 0.5346   0.171313
 C 0.8132 0.4081 0.5282   -0.210652
 C 0.8205 0.3591 0.4761   0.114415
 C 0.7607 0.3744 0.4306   -0.189619
 C 0.6968 0.4319 0.44   0.175484
 C 0.8854 0.2926 0.47   0.005017
 C 0.9587 0.2934 0.5059   -0.101455
 C 0.0176 0.231 0.5006   -0.06723
 C 0.006 0.1635 0.4613   -0.063467
 C 0.9331 0.1613 0.4246   -0.021766
 C 0.8742 0.2256 0.4294   -0.098302
 C 0.925 0.0914 0.3811   0.253534
 C 0.8743 0.9954 0.3195   0.248107
 C 0.8125 0.9387 0.2891   -0.045846
 C 0.7826 0.9552 0.2303   -0.049414
 C 0.7246 0.9001 0.204   -0.077198
 C 0.6954 0.8308 0.2369   -0.073876
 C 0.7241 0.8154 0.2961   0.002681
 C 0.7837 0.8698 0.3211   -0.110756
 C 0.6932 0.7427 0.3334   0.114418
 C 0.6171 0.7015 0.3202   -0.1874
 C 0.5866 0.6412 0.3601   0.164726
 C 0.7017 0.6561 0.4227   0.147824
 C 0.7365 0.7149 0.3849   -0.202653
 C 0.253 0.5357 0.0346   0.171313
 C 0.1868 0.5919 0.0282   -0.210652
 C 0.1795 0.6409 0.9761   0.114415
 C 0.2393 0.6256 0.9306   -0.189619
 C 0.3032 0.5681 0.94   0.175484
 C 0.1146 0.7074 0.97   0.005017
 C 0.0413 0.7066 0.0059   -0.101455
 C 0.9824 0.769 0.000599999999999   -0.06723
 C 0.994 0.8365 0.9613   -0.063467
 C 0.0669 0.8387 0.9246   -0.021766
 C 0.1258 0.7744 0.9294   -0.098302
 C 0.075 0.9086 0.8811   0.253534
 C 0.1257 0.0046 0.8195   0.248107
 C 0.1875 0.0613 0.7891   -0.045846
 C 0.2174 0.0448 0.7303   -0.049414
 C 0.2754 0.0999 0.704   -0.077198
 C 0.3046 0.1692 0.7369   -0.073876
 C 0.2759 0.1846 0.7961   0.002681
 C 0.2163 0.1302 0.8211   -0.110756
 C 0.3068 0.2573 0.8334   0.114418
 C 0.3829 0.2985 0.8202   -0.1874
 C 0.4134 0.3588 0.8601   0.164726
 C 0.2983 0.3439 0.9227   0.147824
 C 0.2635 0.2851 0.8849   -0.202653
 C 0.0357 0.247 0.7846   0.171313
 C 0.0919 0.3132 0.7782   -0.210652
 C 0.1409 0.3205 0.7261   0.114415
 C 0.1256 0.2607 0.6806   -0.189619
 C 0.0681 0.1968 0.69   0.175484
 C 0.2074 0.3854 0.72   0.005017
 C 0.2066 0.4587 0.7559   -0.101455
 C 0.269 0.5176 0.7506   -0.06723
 C 0.3365 0.506 0.7113   -0.063467
 C 0.3387 0.4331 0.6746   -0.021766
 C 0.2744 0.3742 0.6794   -0.098302
 C 0.4086 0.425 0.6311   0.253534
 C 0.5046 0.3743 0.5695   0.248107
 C 0.5613 0.3125 0.5391   -0.045845
 C 0.5448 0.2826 0.4803   -0.049414
 C 0.5999 0.2246 0.454   -0.077198
 C 0.6692 0.1954 0.4869   -0.073876
 C 0.6846 0.2241 0.5461   0.002681
 C 0.6302 0.2837 0.5711   -0.110757
 C 0.7573 0.1932 0.5834   0.114418
 C 0.7985 0.1171 0.5702   -0.1874
 C 0.8588 0.0866 0.6101   0.164726
 C 0.8439 0.2017 0.6727   0.147824
 C 0.7851 0.2365 0.6349   -0.202653
 C 0.9643 0.753 0.2846   0.171313
 C 0.9081 0.6868 0.2782   -0.210652
 C 0.8591 0.6795 0.2261   0.114415
 C 0.8744 0.7393 0.1806   -0.189619
 C 0.9319 0.8032 0.19   0.175484
 C 0.7926 0.6146 0.22   0.005017
 C 0.7934 0.5413 0.2559   -0.101455
 C 0.731 0.4824 0.2506   -0.06723
 C 0.6635 0.494 0.2113   -0.063467
 C 0.6613 0.5669 0.1746   -0.021766
 C 0.7256 0.6258 0.1794   -0.098302
 C 0.5914 0.575 0.1311   0.253534
 C 0.4954 0.6257 0.0695   0.248107
 C 0.4387 0.6875 0.0391   -0.045845
 C 0.4552 0.7174 0.9803   -0.049414
 C 0.4001 0.7754 0.954   -0.077198
 C 0.3308 0.8046 0.9869   -0.073876
 C 0.3154 0.7759 0.0461   0.002681
 C 0.3698 0.7163 0.0711   -0.110757
 C 0.2427 0.8068 0.0834   0.114418
 C 0.2015 0.8829 0.0702   -0.1874
 C 0.1412 0.9134 0.1101   0.164726
 C 0.1561 0.7983 0.1727   0.147824
 C 0.2149 0.7635 0.1349   -0.202653
 C 0.753 0.9643 0.7154   0.171313
 C 0.6868 0.9081 0.7218   -0.210652
 C 0.6795 0.8591 0.7739   0.114415
 C 0.7393 0.8744 0.8194   -0.189619
 C 0.8032 0.9319 0.81   0.175484
 C 0.6146 0.7926 0.78   0.005017
 C 0.5413 0.7934 0.7441   -0.101455
 C 0.4824 0.731 0.7494   -0.06723
 C 0.494 0.6635 0.7887   -0.063467
 C 0.5669 0.6613 0.8254   -0.021766
 C 0.6258 0.7256 0.8206   -0.098302
 C 0.575 0.5914 0.8689   0.253534
 C 0.6257 0.4954 0.9305   0.248107
 C 0.6875 0.4387 0.9609   -0.045845
 C 0.7174 0.4552 0.0197   -0.049414
 C 0.7754 0.4001 0.046   -0.077198
 C 0.8046 0.3308 0.0131   -0.073876
 C 0.7759 0.3154 0.9539   0.002682
 C 0.7163 0.3698 0.9289   -0.110756
 C 0.8068 0.2427 0.9166   0.114418
 C 0.8829 0.2015 0.9298   -0.1874
 C 0.9134 0.1412 0.8899   0.164726
 C 0.7983 0.1561 0.8273   0.147824
 C 0.7635 0.2149 0.8651   -0.202653
 C 0.247 0.0357 0.2154   0.171313
 C 0.3132 0.0919 0.2218   -0.210652
 C 0.3205 0.1409 0.2739   0.114415
 C 0.2607 0.1256 0.3194   -0.189619
 C 0.1968 0.0681 0.31   0.175484
 C 0.3854 0.2074 0.28   0.005017
 C 0.4587 0.2066 0.2441   -0.101455
 C 0.5176 0.269 0.2494   -0.06723
 C 0.506 0.3365 0.2887   -0.063467
 C 0.4331 0.3387 0.3254   -0.021766
 C 0.3742 0.2744 0.3206   -0.098302
 C 0.425 0.4086 0.3689   0.253534
 C 0.3743 0.5046 0.4305   0.248107
 C 0.3125 0.5613 0.4609   -0.045845
 C 0.2826 0.5448 0.5197   -0.049414
 C 0.2246 0.5999 0.546   -0.077198
 C 0.1954 0.6692 0.5131   -0.073876
 C 0.2241 0.6846 0.4539   0.002682
 C 0.2837 0.6302 0.4289   -0.110756
 C 0.1932 0.7573 0.4166   0.114418
 C 0.1171 0.7985 0.4298   -0.1874
 C 0.0866 0.8588 0.3899   0.164726
 C 0.2017 0.8439 0.3273   0.147824
 C 0.2365 0.7851 0.3651   -0.202653
 C 0.4643 0.747 0.4654   0.171313
 C 0.4081 0.8132 0.4718   -0.210652
 C 0.3591 0.8205 0.5239   0.114415
 C 0.3744 0.7607 0.5694   -0.189619
 C 0.4319 0.6968 0.56   0.175484
 C 0.2926 0.8854 0.53   0.005017
 C 0.2934 0.9587 0.4941   -0.101455
 C 0.231 0.0176 0.4994   -0.06723
 C 0.1635 0.006 0.5387   -0.063467
 C 0.1613 0.9331 0.5754   -0.021766
 C 0.2256 0.8742 0.5706   -0.098302
 C 0.0914 0.925 0.6189   0.253534
 C 0.9954 0.8743 0.6805   0.248107
 C 0.9387 0.8125 0.7109   -0.045845
 C 0.9552 0.7826 0.7697   -0.049414
 C 0.9001 0.7246 0.796   -0.077197
 C 0.8308 0.6954 0.7631   -0.073876
 C 0.8154 0.7241 0.7039   0.002682
 C 0.8698 0.7837 0.6789   -0.110757
 C 0.7427 0.6932 0.6666   0.114418
 C 0.7015 0.6171 0.6798   -0.1874
 C 0.6412 0.5866 0.6399   0.164726
 C 0.6561 0.7017 0.5773   0.147824
 C 0.7149 0.7365 0.6151   -0.202653
 C 0.5357 0.253 0.9654   0.171313
 C 0.5919 0.1868 0.9718   -0.210652
 C 0.6409 0.1795 0.0239   0.114415
 C 0.6256 0.2393 0.0694   -0.189619
 C 0.5681 0.3032 0.06   0.175484
 C 0.7074 0.1146 0.03   0.005017
 C 0.7066 0.0413 0.9941   -0.101455
 C 0.769 0.9824 0.9994   -0.06723
 C 0.8365 0.994 0.0387   -0.063467
 C 0.8387 0.0669 0.0754   -0.021766
 C 0.7744 0.1258 0.0706   -0.098302
 C 0.9086 0.075 0.1189   0.253534
 C 0.0046 0.1257 0.1805   0.248107
 C 0.0613 0.1875 0.2109   -0.045845
 C 0.0448 0.2174 0.2697   -0.049414
 C 0.0999 0.2754 0.296   -0.077197
 C 0.1692 0.3046 0.2631   -0.073876
 C 0.1846 0.2759 0.2039   0.002682
 C 0.1302 0.2163 0.1789   -0.110757
 C 0.2573 0.3068 0.1666   0.114418
 C 0.2985 0.3829 0.1798   -0.1874
 C 0.3588 0.4134 0.1399   0.164726
 C 0.3439 0.2983 0.0773   0.147824
 C 0.2851 0.2635 0.1151   -0.202653
 N 0.6885 0.4763 0.4916   -0.366992
 N 0.9889 0.0538 0.35486   -0.295094
 N 0.956 0.993 0.31629   -0.24161
 N 0.8514 0.0563 0.35978   0.09833
 N 0.7696 0.0749 0.3805   -0.56061
 N 0.6263 0.6198 0.41274   -0.350654
 N 0.3115 0.5237 0.9916   -0.366992
 N 0.0111 0.9462 0.85486   -0.295094
 N 0.044 0.007 0.81629   -0.24161
 N 0.1486 0.9437 0.85978   0.09833
 N 0.2304 0.9251 0.8805   -0.56061
 N 0.3737 0.3802 0.91274   -0.350654
 N 0.0237 0.1885 0.7416   -0.366992
 N 0.4462 0.4889 0.60486   -0.295094
 N 0.507 0.456 0.56629   -0.24161
 N 0.4437 0.3514 0.60978   0.09833
 N 0.4251 0.2696 0.6305   -0.56061
 N 0.8802 0.1263 0.66274   -0.350654
 N 0.9763 0.8115 0.2416   -0.366992
 N 0.5538 0.5111 0.10486   -0.295094
 N 0.493 0.544 0.06629   -0.24161
 N 0.5563 0.6486 0.10978   0.09833
 N 0.5749 0.7304 0.1305   -0.56061
 N 0.1198 0.8737 0.16274   -0.350654
 N 0.8115 0.9763 0.7584   -0.366992
 N 0.5111 0.5538 0.89514   -0.295094
 N 0.544 0.493 0.93371   -0.24161
 N 0.6486 0.5563 0.89022   0.09833
 N 0.7304 0.5749 0.8695   -0.56061
 N 0.8737 0.1198 0.83726   -0.350654
 N 0.1885 0.0237 0.2584   -0.366992
 N 0.4889 0.4462 0.39514   -0.295094
 N 0.456 0.507 0.43371   -0.24161
 N 0.3514 0.4437 0.39022   0.09833
 N 0.2696 0.4251 0.3695   -0.56061
 N 0.1263 0.8802 0.33726   -0.350654
 N 0.4763 0.6885 0.5084   -0.366992
 N 0.0538 0.9889 0.64514   -0.295094
 N 0.993 0.956 0.68371   -0.24161
 N 0.0563 0.8514 0.64022   0.09833
 N 0.0749 0.7696 0.6195   -0.56061
 N 0.6198 0.6263 0.58726   -0.350654
 N 0.5237 0.3115 0.0084   -0.366992
 N 0.9462 0.0111 0.14514   -0.295094
 N 0.007 0.044 0.18371   -0.24161
 N 0.9437 0.1486 0.14022   0.09833
 N 0.9251 0.2304 0.1195   -0.56061
 N 0.3802 0.3737 0.08726   -0.350654
 Cl 0.62615 0.37385 0.75   1.372
 Cl 0.37385 0.62615 0.25   1.372
 Cl 0.12615 0.12615 0.0   1.372
 Cl 0.87385 0.87385 0.5   1.372
 Cl 0.73056 0.73056 0.0   1.271459
 Cl 0.26944 0.26944 0.5   1.271459
 Cl 0.76944 0.23056 0.25   1.271459
 Cl 0.23056 0.76944 0.75   1.271459
 O 0.6316 0.4427 0.788   -0.569993
 O 0.6709 0.4059 0.6989   -0.506076
 O 0.5573 0.3684 0.712   -0.569993
 O 0.5941 0.3291 0.8011   -0.506076
 O 0.3684 0.5573 0.288   -0.569993
 O 0.3291 0.5941 0.1989   -0.506076
 O 0.4427 0.6316 0.212   -0.569993
 O 0.4059 0.6709 0.3011   -0.506076
 O 0.0573 0.1316 0.038   -0.569993
 O 0.0941 0.1709 0.9489   -0.506076
 O 0.1316 0.0573 0.962   -0.569993
 O 0.1709 0.0941 0.0511   -0.506076
 O 0.9427 0.8684 0.538   -0.569993
 O 0.9059 0.8291 0.4489   -0.506076
 O 0.8684 0.9427 0.462   -0.569993
 O 0.8291 0.9059 0.5511   -0.506076
 O 0.763 0.7671 0.0531   -0.518066
 O 0.7828 0.6455 0.9978   -0.529345
 O 0.7671 0.763 0.9469   -0.518066
 O 0.6455 0.7828 0.0022   -0.529345
 O 0.237 0.2329 0.5531   -0.518066
 O 0.2172 0.3545 0.4978   -0.529345
 O 0.2329 0.237 0.4469   -0.518066
 O 0.3545 0.2172 0.5022   -0.529345
 O 0.7329 0.263 0.3031   -0.518066
 O 0.8545 0.2828 0.2478   -0.529345
 O 0.737 0.2671 0.1969   -0.518066
 O 0.7172 0.1455 0.2522   -0.529345
 O 0.2671 0.737 0.8031   -0.518066
 O 0.1455 0.7172 0.7478   -0.529345
 O 0.263 0.7329 0.6969   -0.518066
 O 0.2828 0.8545 0.7522   -0.529345
