{'_ref': 'TBD', '_srcid': 'CAKYAQ_clean', 'submitters': [{'name': 'Dalar Nazarian Jeff Camp and David Sholl', 'email': 'dalar@gatech.edu jcamp6@gatech.edu'}], '_method': 'VASP DFT with PBE;DDEC'}
data_CuH18C18(NO)4
_symmetry_space_group_name_H-M   'P 1'
_cell_length_a   9.05210000
_cell_length_b   15.40100000
_cell_length_c   17.14100000
_cell_angle_alpha   90.00000000
_cell_angle_beta   90.00000000
_cell_angle_gamma   90.00000000
_symmetry_Int_Tables_number   1
_chemical_formula_structural   CuH18C18(NO)4
_chemical_formula_sum   'Cu4 H72 C72 N16 O16'
_cell_volume   2389.65067199
_cell_formula_units_Z   4
loop_
 _symmetry_equiv_pos_site_id
 _symmetry_equiv_pos_as_xyz
  1  'x, y, z'
loop_
 _atom_site_label
 _atom_site_fract_x
 _atom_site_fract_y
 _atom_site_fract_z
 _atom_site_charge
 Cu 0.57064 0.27827 0.78185   0.87261
 Cu 0.07064 0.72173 0.21815   0.87261
 Cu 0.57064 0.77827 0.71815   0.872609
 Cu 0.07064 0.22173 0.28185   0.872609
 H 0.2651 0.6914 0.6679   0.108615
 H 0.3911 0.767 0.8745   0.118583
 H 0.1396 0.7075 0.8877   0.144492
 H 0.976 0.667 0.7003   0.077264
 H 0.9412 0.6538 0.789   0.087829
 H 0.0755 0.5342 0.6886   0.083368
 H 0.9318 0.5198 0.7378   0.093513
 H 0.0767 0.5154 0.8524   0.085769
 H 0.2193 0.5257 0.8013   0.100502
 H 0.1439 0.3884 0.7379   0.081749
 H 0.2123 0.3805 0.8217   0.09056
 H 0.8569 0.3611 0.7261   0.117452
 H 0.0355 0.3283 0.9341   0.139652
 H 0.7834 0.2705 0.9365   0.118446
 H 0.8083 0.2205 0.5743   0.097711
 H 0.8759 0.0279 0.4211   0.097565
 H 0.7375 0.9361 0.497   0.09282
 H 0.6531 0.9819 0.6181   0.092062
 H 0.7651 0.3086 0.3321   0.108614
 H 0.8911 0.233 0.1255   0.118584
 H 0.6396 0.2925 0.1123   0.144493
 H 0.476 0.333 0.2997   0.077264
 H 0.4412 0.3462 0.211   0.087829
 H 0.5755 0.4658 0.3114   0.083366
 H 0.4318 0.4802 0.2622   0.093513
 H 0.5767 0.4846 0.1476   0.085769
 H 0.7193 0.4743 0.1987   0.100502
 H 0.6439 0.6116 0.2621   0.081749
 H 0.7123 0.6195 0.1783   0.09056
 H 0.3569 0.6389 0.2739   0.117451
 H 0.5355 0.6717 0.0659   0.139654
 H 0.2834 0.7295 0.0635   0.118446
 H 0.3083 0.7795 0.4257   0.09771
 H 0.3759 0.9721 0.5789   0.097566
 H 0.2375 0.0639 0.503   0.09282
 H 0.1531 0.0181 0.3819   0.092063
 H 0.2651 0.1914 0.8321   0.108615
 H 0.3911 0.267 0.6255   0.118575
 H 0.1396 0.2075 0.6123   0.144495
 H 0.976 0.167 0.7997   0.077264
 H 0.9412 0.1538 0.711   0.087829
 H 0.0755 0.0342 0.8114   0.083361
 H 0.9318 0.0198 0.7622   0.093512
 H 0.0767 0.0154 0.6476   0.08577
 H 0.2193 0.0257 0.6987   0.100505
 H 0.1439 0.8884 0.7621   0.081749
 H 0.2123 0.8805 0.6783   0.09056
 H 0.8569 0.8611 0.7739   0.117452
 H 0.0355 0.8283 0.5659   0.139654
 H 0.7834 0.7705 0.5635   0.118444
 H 0.8083 0.7205 0.9257   0.097712
 H 0.8759 0.5279 0.0789   0.097567
 H 0.7375 0.4361 0.003   0.092825
 H 0.6531 0.4819 0.8819   0.092062
 H 0.7651 0.8086 0.1679   0.108615
 H 0.8911 0.733 0.3745   0.118577
 H 0.6396 0.7925 0.3877   0.144497
 H 0.476 0.833 0.2003   0.077264
 H 0.4412 0.8462 0.289   0.087829
 H 0.5755 0.9658 0.1886   0.083359
 H 0.4318 0.9802 0.2378   0.093512
 H 0.5767 0.9846 0.3524   0.08577
 H 0.7193 0.9743 0.3013   0.100505
 H 0.6439 0.1116 0.2379   0.081749
 H 0.7123 0.1195 0.3217   0.09056
 H 0.3569 0.1389 0.2261   0.117452
 H 0.5355 0.1717 0.4341   0.139656
 H 0.2834 0.2295 0.4365   0.118445
 H 0.3083 0.2795 0.0743   0.09771
 H 0.3759 0.4721 0.9211   0.097568
 H 0.2375 0.5639 0.997   0.092824
 H 0.1531 0.5181 0.1181   0.092063
 C 0.2651 0.7029 0.7212   0.142713
 C 0.3338 0.7442 0.8344   0.023005
 C 0.1947 0.7115 0.842   -0.15492
 C 0.0134 0.6423 0.7485   -0.020196
 C 0.0295 0.5457 0.7386   -0.153179
 C 0.12 0.5021 0.802   -0.174534
 C 0.1285 0.4024 0.7925   -0.029687
 C 0.8692 0.3458 0.7782   0.122966
 C 0.969 0.3281 0.8928   -0.150654
 C 0.8297 0.2961 0.8939   0.036683
 C 0.7189 0.1071 0.6072   -0.158219
 C 0.7967 0.1628 0.5597   -0.027274
 C 0.8579 0.1337 0.4903   -0.159579
 C 0.8358 0.0478 0.4677   -0.043811
 C 0.7556 0.9926 0.5136   -0.127596
 C 0.7011 0.0206 0.5852   -0.022227
 C 0.6562 0.1386 0.6831   0.656394
 C 0.9461 0.1944 0.4378   0.662495
 C 0.7651 0.2971 0.2788   0.142713
 C 0.8338 0.2558 0.1656   0.023004
 C 0.6947 0.2885 0.158   -0.15492
 C 0.5134 0.3577 0.2515   -0.020196
 C 0.5295 0.4543 0.2614   -0.153178
 C 0.62 0.4979 0.198   -0.174534
 C 0.6285 0.5976 0.2075   -0.029687
 C 0.3692 0.6542 0.2218   0.122966
 C 0.469 0.6719 0.1072   -0.150655
 C 0.3297 0.7039 0.1061   0.036683
 C 0.2189 0.8929 0.3928   -0.158219
 C 0.2967 0.8372 0.4403   -0.027273
 C 0.3579 0.8663 0.5097   -0.15958
 C 0.3358 0.9522 0.5323   -0.043809
 C 0.2556 0.0074 0.4864   -0.127595
 C 0.2011 0.9794 0.4148   -0.022226
 C 0.1562 0.8614 0.3169   0.656394
 C 0.4461 0.8056 0.5622   0.662495
 C 0.2651 0.2029 0.7788   0.142712
 C 0.3338 0.2442 0.6656   0.023009
 C 0.1947 0.2115 0.658   -0.154922
 C 0.0134 0.1423 0.7515   -0.020197
 C 0.0295 0.0457 0.7614   -0.153176
 C 0.12 0.0021 0.698   -0.174536
 C 0.1285 0.9024 0.7075   -0.029687
 C 0.8692 0.8458 0.7218   0.122966
 C 0.969 0.8281 0.6072   -0.150654
 C 0.8297 0.7961 0.6061   0.036684
 C 0.7189 0.6071 0.8928   -0.158219
 C 0.7967 0.6628 0.9403   -0.027274
 C 0.8579 0.6337 0.0097   -0.159579
 C 0.8358 0.5478 0.0323   -0.043811
 C 0.7556 0.4926 0.9864   -0.127597
 C 0.7011 0.5206 0.9148   -0.022227
 C 0.6562 0.6386 0.8169   0.656395
 C 0.9461 0.6944 0.0622   0.662495
 C 0.7651 0.7971 0.2212   0.142713
 C 0.8338 0.7558 0.3344   0.023008
 C 0.6947 0.7885 0.342   -0.154922
 C 0.5134 0.8577 0.2485   -0.020197
 C 0.5295 0.9543 0.2386   -0.153175
 C 0.62 0.9979 0.302   -0.174536
 C 0.6285 0.0976 0.2925   -0.029687
 C 0.3692 0.1542 0.2782   0.122966
 C 0.469 0.1719 0.3928   -0.150655
 C 0.3297 0.2039 0.3939   0.036683
 C 0.2189 0.3929 0.1072   -0.158219
 C 0.2967 0.3372 0.0597   -0.027273
 C 0.3579 0.3663 0.9903   -0.15958
 C 0.3358 0.4522 0.9677   -0.043809
 C 0.2556 0.5074 0.0136   -0.127596
 C 0.2011 0.4794 0.0852   -0.022226
 C 0.1562 0.3614 0.1831   0.656395
 C 0.4461 0.3056 0.9378   0.662495
 N 0.3747 0.7379 0.7586   -0.369959
 N 0.1524 0.6856 0.7689   0.03885
 N 0.9933 0.3597 0.8199   0.044131
 N 0.7681 0.3078 0.821   -0.368409
 N 0.8747 0.2621 0.2414   -0.369959
 N 0.6524 0.3144 0.2311   0.03885
 N 0.4933 0.6403 0.1801   0.044131
 N 0.2681 0.6922 0.179   -0.368409
 N 0.3747 0.2379 0.7414   -0.36996
 N 0.1524 0.1856 0.7311   0.03885
 N 0.9933 0.8597 0.6801   0.044131
 N 0.7681 0.8078 0.679   -0.368409
 N 0.8747 0.7621 0.2586   -0.36996
 N 0.6524 0.8144 0.2689   0.03885
 N 0.4933 0.1403 0.3199   0.044131
 N 0.2681 0.1922 0.321   -0.368409
 O 0.661 0.22 0.6935   -0.618375
 O 0.6081 0.0851 0.7307   -0.606566
 O 0.9744 0.1659 0.3711   -0.613178
 O 0.9863 0.2656 0.464   -0.629439
 O 0.161 0.78 0.3065   -0.618375
 O 0.1081 0.9149 0.2693   -0.606566
 O 0.4744 0.8341 0.6289   -0.613178
 O 0.4863 0.7344 0.536   -0.629439
 O 0.661 0.72 0.8065   -0.618375
 O 0.6081 0.5851 0.7693   -0.606566
 O 0.9744 0.6659 0.1289   -0.613178
 O 0.9863 0.7656 0.036   -0.629439
 O 0.161 0.28 0.1935   -0.618375
 O 0.1081 0.4149 0.2307   -0.606566
 O 0.4744 0.3341 0.8711   -0.613178
 O 0.4863 0.2344 0.964   -0.629439
