{'_ref': 'TBD', '_srcid': 'CAKYAQ_clean', 'submitters': [{'name': 'Dalar Nazarian Jeff Camp and David Sholl', 'email': 'dalar@gatech.edu jcamp6@gatech.edu'}], '_method': 'VASP DFT with PBE;DDEC'}
data_Cu2BH14C18S2N8O3F4
_symmetry_space_group_name_H-M   'P 1'
_cell_length_a   12.90210000
_cell_length_b   12.90210000
_cell_length_c   28.90900000
_cell_angle_alpha   90.00000000
_cell_angle_beta   90.00000000
_cell_angle_gamma   90.00000000
_symmetry_Int_Tables_number   1
_chemical_formula_structural   Cu2BH14C18S2N8O3F4
_chemical_formula_sum   'Cu8 B4 H56 C72 S8 N32 O12 F16'
_cell_volume   4812.31310711
_cell_formula_units_Z   4
loop_
 _symmetry_equiv_pos_site_id
 _symmetry_equiv_pos_as_xyz
  1  'x, y, z'
loop_
 _atom_site_label
 _atom_site_fract_x
 _atom_site_fract_y
 _atom_site_fract_z
 _atom_site_charge
 Cu 0.86857 0.99537 0.96035   0.790584
 Cu 0.13143 0.00463 0.46035   0.790584
 Cu 0.50463 0.36857 0.71035   0.790584
 Cu 0.49537 0.63143 0.21035   0.790584
 Cu 0.63143 0.49537 0.78965   0.790584
 Cu 0.36857 0.50463 0.28965   0.790584
 Cu 0.99537 0.86857 0.03965   0.790584
 Cu 0.00463 0.13143 0.53965   0.790584
 B 0.908 0.092 0.75   1.187923
 B 0.092 0.908 0.25   1.187923
 B 0.408 0.408 0.5   1.187923
 B 0.592 0.592 0.0   1.187923
 H 0.8269 0.1999 0.8481   0.137308
 H 0.1731 0.8001 0.3481   0.137308
 H 0.3001 0.3269 0.5981   0.137308
 H 0.6999 0.6731 0.0981   0.137308
 H 0.6731 0.6999 0.9019   0.137308
 H 0.3269 0.3001 0.4019   0.137308
 H 0.1999 0.8269 0.1519   0.137308
 H 0.8001 0.1731 0.6519   0.137308
 H 0.7422 0.3948 0.9477   0.135866
 H 0.2578 0.6052 0.4477   0.135866
 H 0.1052 0.2422 0.6977   0.135866
 H 0.8948 0.7578 0.1977   0.135866
 H 0.7578 0.8948 0.8023   0.135866
 H 0.2422 0.1052 0.3023   0.135866
 H 0.3948 0.7422 0.0523   0.135866
 H 0.6052 0.2578 0.5523   0.135866
 H 0.6707 0.4985 0.8907   0.085037
 H 0.3293 0.5015 0.3907   0.085037
 H 0.0015 0.1707 0.6407   0.085037
 H 0.9985 0.8293 0.1407   0.085037
 H 0.8293 0.9985 0.8593   0.085037
 H 0.1707 0.0015 0.3593   0.085037
 H 0.4985 0.6707 0.1093   0.085037
 H 0.5015 0.3293 0.6093   0.085037
 H 0.7542 0.3034 0.7954   0.105633
 H 0.2458 0.6966 0.2954   0.105633
 H 0.1966 0.2542 0.5454   0.105633
 H 0.8034 0.7458 0.0454   0.105633
 H 0.7458 0.8034 0.9546   0.105633
 H 0.2542 0.1966 0.4546   0.105633
 H 0.3034 0.7542 0.2046   0.105633
 H 0.6966 0.2458 0.7046   0.105633
 H 0.0264 0.0214 0.1328   0.158314
 H 0.9736 0.9786 0.6328   0.158314
 H 0.4786 0.5264 0.8828   0.158314
 H 0.5214 0.4736 0.3828   0.158314
 H 0.4736 0.5214 0.6172   0.158314
 H 0.5264 0.4786 0.1172   0.158314
 H 0.0214 0.0264 0.8672   0.158314
 H 0.9786 0.9736 0.3672   0.158314
 H 0.9565 0.1094 0.1534   0.149361
 H 0.0435 0.8906 0.6534   0.149361
 H 0.3906 0.4565 0.9034   0.149361
 H 0.6094 0.5435 0.4034   0.149361
 H 0.5435 0.6094 0.5966   0.14936
 H 0.4565 0.3906 0.0966   0.14936
 H 0.1094 0.9565 0.8466   0.14936
 H 0.8906 0.0435 0.3466   0.14936
 H 0.068 0.1355 0.1352   0.145383
 H 0.932 0.8645 0.6352   0.145383
 H 0.3645 0.568 0.8852   0.145383
 H 0.6355 0.432 0.3852   0.145383
 H 0.432 0.6355 0.6148   0.145383
 H 0.568 0.3645 0.1148   0.145383
 H 0.1355 0.068 0.8648   0.145383
 H 0.8645 0.932 0.3648   0.145383
 C 0.8314 0.2101 0.9389   0.567184
 C 0.1686 0.7899 0.4389   0.567184
 C 0.2899 0.3314 0.6889   0.567184
 C 0.7101 0.6686 0.1889   0.567184
 C 0.6686 0.7101 0.8111   0.567184
 C 0.3314 0.2899 0.3111   0.567184
 C 0.2101 0.8314 0.0611   0.567184
 C 0.7899 0.1686 0.5611   0.567184
 C 0.7885 0.2824 0.9043   0.004498
 C 0.2115 0.7176 0.4043   0.004498
 C 0.2176 0.2885 0.6543   0.004498
 C 0.7824 0.7115 0.1543   0.004498
 C 0.7115 0.7824 0.8457   0.004498
 C 0.2885 0.2176 0.3457   0.004498
 C 0.2824 0.7885 0.0957   0.004498
 C 0.7176 0.2115 0.5957   0.004498
 C 0.8883 0.1824 0.0139   0.393488
 C 0.1117 0.8176 0.5139   0.393488
 C 0.3176 0.3883 0.7639   0.393488
 C 0.6824 0.6117 0.2639   0.393488
 C 0.6117 0.6824 0.7361   0.393488
 C 0.3883 0.3176 0.2361   0.393488
 C 0.1824 0.8883 0.9861   0.393488
 C 0.8176 0.1117 0.4861   0.393488
 C 0.793 0.2596 0.8578   -0.142242
 C 0.207 0.7404 0.3578   -0.142242
 C 0.2404 0.293 0.6078   -0.142242
 C 0.7596 0.707 0.1078   -0.142242
 C 0.707 0.7596 0.8922   -0.142242
 C 0.293 0.2404 0.3922   -0.142242
 C 0.2596 0.793 0.1422   -0.142242
 C 0.7404 0.207 0.6422   -0.142242
 C 0.7438 0.374 0.9169   -0.135792
 C 0.2562 0.626 0.4169   -0.135792
 C 0.126 0.2438 0.6669   -0.135792
 C 0.874 0.7562 0.1669   -0.135792
 C 0.7562 0.874 0.8331   -0.135792
 C 0.2438 0.126 0.3331   -0.135792
 C 0.374 0.7438 0.0831   -0.135792
 C 0.626 0.2562 0.5831   -0.135792
 C 0.7003 0.4357 0.8821   0.160576
 C 0.2997 0.5643 0.3821   0.160576
 C 0.0643 0.2003 0.6321   0.160576
 C 0.9357 0.7997 0.1321   0.160576
 C 0.7997 0.9357 0.8679   0.160576
 C 0.2003 0.0643 0.3679   0.160576
 C 0.4357 0.7003 0.1179   0.160576
 C 0.5643 0.2997 0.6179   0.160576
 C 0.7497 0.3215 0.8264   0.154403
 C 0.2503 0.6785 0.3264   0.154403
 C 0.1785 0.2497 0.5764   0.154403
 C 0.8215 0.7503 0.0764   0.154403
 C 0.7503 0.8215 0.9236   0.154403
 C 0.2497 0.1785 0.4236   0.154403
 C 0.3215 0.7497 0.1736   0.154403
 C 0.6785 0.2503 0.6736   0.154403
 C 0.9635 0.1144 0.0827   0.238303
 C 0.0365 0.8856 0.5827   0.238303
 C 0.3856 0.4635 0.8327   0.238303
 C 0.6144 0.5365 0.3327   0.238303
 C 0.5365 0.6144 0.6673   0.238303
 C 0.4635 0.3856 0.1673   0.238303
 C 0.1144 0.9635 0.9173   0.238303
 C 0.8856 0.0365 0.4173   0.238303
 C 0.0076 0.0932 0.1304   -0.385787
 C 0.9924 0.9068 0.6304   -0.385787
 C 0.4068 0.5076 0.8804   -0.385787
 C 0.5932 0.4924 0.3804   -0.385787
 C 0.4924 0.5932 0.6196   -0.385786
 C 0.5076 0.4068 0.1196   -0.385786
 C 0.0932 0.0076 0.8696   -0.385786
 C 0.9068 0.9924 0.3696   -0.385786
 S 0.9244 0.2367 0.06609   0.027781
 S 0.0756 0.7633 0.56609   0.027781
 S 0.2633 0.4244 0.81609   0.027781
 S 0.7367 0.5756 0.31609   0.027781
 S 0.5756 0.7367 0.68391   0.027781
 S 0.4244 0.2633 0.18391   0.027781
 S 0.2367 0.9244 0.93391   0.027781
 S 0.7633 0.0756 0.43391   0.027781
 N 0.9058 0.0837 0.012   -0.248031
 N 0.0942 0.9163 0.512   -0.248031
 N 0.4163 0.4058 0.762   -0.248031
 N 0.5837 0.5942 0.262   -0.248031
 N 0.5942 0.5837 0.738   -0.248031
 N 0.4058 0.4163 0.238   -0.248031
 N 0.0837 0.9058 0.988   -0.248031
 N 0.9163 0.0942 0.488   -0.248031
 N 0.8449 0.2455 0.9812   -0.576023
 N 0.1551 0.7545 0.4812   -0.576023
 N 0.2545 0.3449 0.7312   -0.576023
 N 0.7455 0.6551 0.2312   -0.576023
 N 0.6551 0.7455 0.7688   -0.576023
 N 0.3449 0.2545 0.2688   -0.576023
 N 0.2455 0.8449 0.0188   -0.576023
 N 0.7545 0.1551 0.5188   -0.576023
 N 0.6986 0.411 0.83819   -0.289329
 N 0.3014 0.589 0.33819   -0.289329
 N 0.089 0.1986 0.58819   -0.289329
 N 0.911 0.8014 0.08819   -0.289329
 N 0.8014 0.911 0.91181   -0.289329
 N 0.1986 0.089 0.41181   -0.289329
 N 0.411 0.6986 0.16181   -0.289329
 N 0.589 0.3014 0.66181   -0.289329
 N 0.0446 0.9514 0.9476   -0.222454
 N 0.9554 0.0486 0.4476   -0.222454
 N 0.5486 0.5446 0.6976   -0.222454
 N 0.4514 0.4554 0.1976   -0.222454
 N 0.4554 0.4514 0.8024   -0.222454
 N 0.5446 0.5486 0.3024   -0.222454
 N 0.9514 0.0446 0.0524   -0.222454
 N 0.0486 0.9554 0.5524   -0.222454
 O 0.8766 0.8766 0.0   -0.721523
 O 0.1234 0.1234 0.5   -0.721523
 O 0.6234 0.3766 0.75   -0.721523
 O 0.3766 0.6234 0.25   -0.721523
 O 0.8501 0.1168 0.92407   -0.534177
 O 0.1499 0.8832 0.42407   -0.534177
 O 0.3832 0.3501 0.67407   -0.534177
 O 0.6168 0.6499 0.17407   -0.534177
 O 0.6499 0.6168 0.82593   -0.534177
 O 0.3501 0.3832 0.32593   -0.534177
 O 0.1168 0.8501 0.07593   -0.534177
 O 0.8832 0.1499 0.57593   -0.534177
 F 0.9448 0.072 0.786   -0.471505
 F 0.0552 0.928 0.286   -0.471505
 F 0.428 0.4448 0.536   -0.471505
 F 0.572 0.5552 0.036   -0.471505
 F 0.5552 0.572 0.964   -0.471505
 F 0.4448 0.428 0.464   -0.471505
 F 0.072 0.9448 0.214   -0.471505
 F 0.928 0.0552 0.714   -0.471505
 F 0.8255 0.0988 0.7692   -0.481577
 F 0.1745 0.9012 0.2692   -0.481577
 F 0.4012 0.3255 0.5192   -0.481577
 F 0.5988 0.6745 0.0192   -0.481577
 F 0.6745 0.5988 0.9808   -0.481577
 F 0.3255 0.4012 0.4808   -0.481577
 F 0.0988 0.8255 0.2308   -0.481577
 F 0.9012 0.1745 0.7308   -0.481577
