{'_ref': 'TBD', '_srcid': 'CAKYAQ_clean', 'submitters': [{'name': 'Dalar Nazarian Jeff Camp and David Sholl', 'email': 'dalar@gatech.edu jcamp6@gatech.edu'}], '_method': 'VASP DFT with PBE;DDEC'}
data_CuH4(C5O2)2
_symmetry_space_group_name_H-M   'P 1'
_cell_length_a   12.81640000
_cell_length_b   22.28660020
_cell_length_c   22.28660000
_cell_angle_alpha   119.99999970
_cell_angle_beta   90.00000000
_cell_angle_gamma   90.00000000
_symmetry_Int_Tables_number   1
_chemical_formula_structural   CuH4(C5O2)2
_chemical_formula_sum   'Cu12 H48 C120 O48'
_cell_volume   5512.95347172
_cell_formula_units_Z   12
loop_
 _symmetry_equiv_pos_site_id
 _symmetry_equiv_pos_as_xyz
  1  'x, y, z'
loop_
 _atom_site_label
 _atom_site_fract_x
 _atom_site_fract_y
 _atom_site_fract_z
 _atom_site_charge
 Cu 0.25 0.0 0.3791   0.88466
 Cu 0.25 0.0 0.2687   0.827761
 Cu 0.25 0.3791 0.0   0.88466
 Cu 0.25 0.2687 0.0   0.827761
 Cu 0.25 0.6209 0.6209   0.884666
 Cu 0.25 0.7313 0.7313   0.827758
 Cu 0.75 0.0 0.6209   0.88466
 Cu 0.75 0.0 0.7313   0.827761
 Cu 0.75 0.6209 0.0   0.88466
 Cu 0.75 0.7313 0.0   0.827761
 Cu 0.75 0.3791 0.3791   0.884666
 Cu 0.75 0.2687 0.2687   0.827758
 H 0.096 0.8259 0.3331   0.121603
 H 0.096 0.5072 0.1741   0.121602
 H 0.096 0.6669 0.4928   0.121603
 H 0.596 0.1741 0.6669   0.121603
 H 0.596 0.4928 0.8259   0.121602
 H 0.596 0.3331 0.5072   0.121603
 H 0.404 0.4928 0.6669   0.121603
 H 0.404 0.3331 0.8259   0.121603
 H 0.404 0.1741 0.5072   0.121602
 H 0.904 0.5072 0.3331   0.121603
 H 0.904 0.6669 0.1741   0.121603
 H 0.904 0.8259 0.4928   0.121602
 H 0.904 0.1741 0.6669   0.121603
 H 0.904 0.4928 0.8259   0.121603
 H 0.904 0.3331 0.5072   0.121604
 H 0.404 0.8259 0.3331   0.121603
 H 0.404 0.5072 0.1741   0.121603
 H 0.404 0.6669 0.4928   0.121604
 H 0.596 0.5072 0.3331   0.121604
 H 0.596 0.6669 0.1741   0.121603
 H 0.596 0.8259 0.4928   0.121603
 H 0.096 0.4928 0.6669   0.121604
 H 0.096 0.3331 0.8259   0.121603
 H 0.096 0.1741 0.5072   0.121603
 H 0.0 0.84285 0.15715   0.138344
 H 0.0 0.3143 0.15715   0.138345
 H 0.0 0.84285 0.6857   0.138345
 H 0.5 0.15715 0.84285   0.138344
 H 0.5 0.6857 0.84285   0.138345
 H 0.5 0.15715 0.3143   0.138345
 H 0.0 0.15715 0.84285   0.138344
 H 0.0 0.6857 0.84285   0.138345
 H 0.0 0.15715 0.3143   0.138345
 H 0.5 0.84285 0.15715   0.138344
 H 0.5 0.3143 0.15715   0.138345
 H 0.5 0.84285 0.6857   0.138345
 H 0.0 0.6023 0.2046   0.116075
 H 0.0 0.6023 0.3977   0.116074
 H 0.0 0.7954 0.3977   0.116075
 H 0.5 0.3977 0.7954   0.116075
 H 0.5 0.3977 0.6023   0.116074
 H 0.5 0.2046 0.6023   0.116075
 H 0.0 0.3977 0.7954   0.116075
 H 0.0 0.3977 0.6023   0.116074
 H 0.0 0.2046 0.6023   0.116075
 H 0.5 0.6023 0.2046   0.116075
 H 0.5 0.6023 0.3977   0.116074
 H 0.5 0.7954 0.3977   0.116075
 C 0.0524 0.8044 0.2847   -0.092412
 C 0.1175 0.9043 0.2763   0.638597
 C 0.0532 0.8404 0.2481   -0.085295
 C 0.0524 0.4803 0.1956   -0.092412
 C 0.1175 0.372 0.0957   0.638595
 C 0.0532 0.4077 0.1596   -0.085295
 C 0.0524 0.7153 0.5197   -0.092412
 C 0.1175 0.7237 0.628   0.638602
 C 0.0532 0.7519 0.5923   -0.085295
 C 0.5524 0.1956 0.7153   -0.092412
 C 0.6175 0.0957 0.7237   0.638597
 C 0.5532 0.1596 0.7519   -0.085296
 C 0.5524 0.5197 0.8044   -0.092412
 C 0.6175 0.628 0.9043   0.638595
 C 0.5532 0.5923 0.8404   -0.085295
 C 0.5524 0.2847 0.4803   -0.092412
 C 0.6175 0.2763 0.372   0.638602
 C 0.5532 0.2481 0.4077   -0.085295
 C 0.4476 0.5197 0.7153   -0.092412
 C 0.3825 0.628 0.7237   0.638602
 C 0.4468 0.5923 0.7519   -0.085295
 C 0.4476 0.2847 0.8044   -0.092412
 C 0.3825 0.2763 0.9043   0.638597
 C 0.4468 0.2481 0.8404   -0.085296
 C 0.4476 0.1956 0.4803   -0.092412
 C 0.3825 0.0957 0.372   0.638595
 C 0.4468 0.1596 0.4077   -0.085295
 C 0.9476 0.4803 0.2847   -0.092412
 C 0.8825 0.372 0.2763   0.638602
 C 0.9468 0.4077 0.2481   -0.085295
 C 0.9476 0.7153 0.1956   -0.092412
 C 0.8825 0.7237 0.0957   0.638597
 C 0.9468 0.7519 0.1596   -0.085296
 C 0.9476 0.8044 0.5197   -0.092412
 C 0.8825 0.9043 0.628   0.638595
 C 0.9468 0.8404 0.5923   -0.085295
 C 0.9476 0.1956 0.7153   -0.092412
 C 0.8825 0.0957 0.7237   0.638598
 C 0.9468 0.1596 0.7519   -0.085296
 C 0.9476 0.5197 0.8044   -0.092412
 C 0.8825 0.628 0.9043   0.638596
 C 0.9468 0.5923 0.8404   -0.085295
 C 0.9476 0.2847 0.4803   -0.092412
 C 0.8825 0.2763 0.372   0.638603
 C 0.9468 0.2481 0.4077   -0.085296
 C 0.4476 0.8044 0.2847   -0.092412
 C 0.3825 0.9043 0.2763   0.638598
 C 0.4468 0.8404 0.2481   -0.085296
 C 0.4476 0.4803 0.1956   -0.092412
 C 0.3825 0.372 0.0957   0.638596
 C 0.4468 0.4077 0.1596   -0.085295
 C 0.4476 0.7153 0.5197   -0.092412
 C 0.3825 0.7237 0.628   0.638603
 C 0.4468 0.7519 0.5923   -0.085296
 C 0.5524 0.4803 0.2847   -0.092412
 C 0.6175 0.372 0.2763   0.638603
 C 0.5532 0.4077 0.2481   -0.085296
 C 0.5524 0.7153 0.1956   -0.092413
 C 0.6175 0.7237 0.0957   0.638598
 C 0.5532 0.7519 0.1596   -0.085296
 C 0.5524 0.8044 0.5197   -0.092412
 C 0.6175 0.9043 0.628   0.638596
 C 0.5532 0.8404 0.5923   -0.085295
 C 0.0524 0.5197 0.7153   -0.092412
 C 0.1175 0.628 0.7237   0.638603
 C 0.0532 0.5923 0.7519   -0.085296
 C 0.0524 0.2847 0.8044   -0.092413
 C 0.1175 0.2763 0.9043   0.638598
 C 0.0532 0.2481 0.8404   -0.085296
 C 0.0524 0.1956 0.4803   -0.092412
 C 0.1175 0.0957 0.372   0.638596
 C 0.0532 0.1596 0.4077   -0.085295
 C 0.0 0.7031 0.2969   0.086073
 C 0.0 0.74125 0.25875   0.037286
 C 0.0 0.81465 0.18535   -0.052053
 C 0.0 0.5938 0.2969   0.086072
 C 0.0 0.5175 0.25875   0.037286
 C 0.0 0.3707 0.18535   -0.052054
 C 0.0 0.7031 0.4062   0.086072
 C 0.0 0.74125 0.4825   0.037286
 C 0.0 0.81465 0.6293   -0.052054
 C 0.5 0.2969 0.7031   0.086073
 C 0.5 0.25875 0.74125   0.037286
 C 0.5 0.18535 0.81465   -0.052053
 C 0.5 0.4062 0.7031   0.086072
 C 0.5 0.4825 0.74125   0.037286
 C 0.5 0.6293 0.81465   -0.052054
 C 0.5 0.2969 0.5938   0.086072
 C 0.5 0.25875 0.5175   0.037286
 C 0.5 0.18535 0.3707   -0.052054
 C 0.0 0.2969 0.7031   0.086073
 C 0.0 0.25875 0.74125   0.037286
 C 0.0 0.18535 0.81465   -0.05205
 C 0.0 0.4062 0.7031   0.086073
 C 0.0 0.4825 0.74125   0.037286
 C 0.0 0.6293 0.81465   -0.052052
 C 0.0 0.2969 0.5938   0.086073
 C 0.0 0.25875 0.5175   0.037286
 C 0.0 0.18535 0.3707   -0.052052
 C 0.5 0.7031 0.2969   0.086073
 C 0.5 0.74125 0.25875   0.037286
 C 0.5 0.81465 0.18535   -0.05205
 C 0.5 0.5938 0.2969   0.086073
 C 0.5 0.5175 0.25875   0.037286
 C 0.5 0.3707 0.18535   -0.052052
 C 0.5 0.7031 0.4062   0.086073
 C 0.5 0.74125 0.4825   0.037286
 C 0.5 0.81465 0.6293   -0.052052
 C 0.0 0.6306 0.2612   -0.191104
 C 0.0 0.6306 0.3694   -0.191104
 C 0.0 0.7388 0.3694   -0.191104
 C 0.5 0.3694 0.7388   -0.191104
 C 0.5 0.3694 0.6306   -0.191104
 C 0.5 0.2612 0.6306   -0.191104
 C 0.0 0.3694 0.7388   -0.191103
 C 0.0 0.3694 0.6306   -0.191103
 C 0.0 0.2612 0.6306   -0.191103
 C 0.5 0.6306 0.2612   -0.191103
 C 0.5 0.6306 0.3694   -0.191103
 C 0.5 0.7388 0.3694   -0.191103
 O 0.1423 0.9266 0.2356   -0.529854
 O 0.145 0.9292 0.3397   -0.548055
 O 0.1423 0.309 0.0734   -0.529854
 O 0.145 0.4105 0.0708   -0.548056
 O 0.1423 0.7644 0.691   -0.529856
 O 0.145 0.6603 0.5895   -0.54806
 O 0.6423 0.0734 0.7644   -0.529854
 O 0.645 0.0708 0.6603   -0.548055
 O 0.6423 0.691 0.9266   -0.529854
 O 0.645 0.5895 0.9292   -0.548056
 O 0.6423 0.2356 0.309   -0.529856
 O 0.645 0.3397 0.4105   -0.54806
 O 0.3577 0.691 0.7644   -0.529856
 O 0.355 0.5895 0.6603   -0.54806
 O 0.3577 0.2356 0.9266   -0.529854
 O 0.355 0.3397 0.9292   -0.548055
 O 0.3577 0.0734 0.309   -0.529854
 O 0.355 0.0708 0.4105   -0.548056
 O 0.8577 0.309 0.2356   -0.529856
 O 0.855 0.4105 0.3397   -0.54806
 O 0.8577 0.7644 0.0734   -0.529854
 O 0.855 0.6603 0.0708   -0.548055
 O 0.8577 0.9266 0.691   -0.529854
 O 0.855 0.9292 0.5895   -0.548056
 O 0.8577 0.0734 0.7644   -0.529854
 O 0.855 0.0708 0.6603   -0.548054
 O 0.8577 0.691 0.9266   -0.529854
 O 0.855 0.5895 0.9292   -0.548055
 O 0.8577 0.2356 0.309   -0.529856
 O 0.855 0.3397 0.4105   -0.548059
 O 0.3577 0.9266 0.2356   -0.529854
 O 0.355 0.9292 0.3397   -0.548054
 O 0.3577 0.309 0.0734   -0.529854
 O 0.355 0.4105 0.0708   -0.548055
 O 0.3577 0.7644 0.691   -0.529856
 O 0.355 0.6603 0.5895   -0.548059
 O 0.6423 0.309 0.2356   -0.529856
 O 0.645 0.4105 0.3397   -0.548059
 O 0.6423 0.7644 0.0734   -0.529854
 O 0.645 0.6603 0.0708   -0.548054
 O 0.6423 0.9266 0.691   -0.529854
 O 0.645 0.9292 0.5895   -0.548055
 O 0.1423 0.691 0.7644   -0.529856
 O 0.145 0.5895 0.6603   -0.548059
 O 0.1423 0.2356 0.9266   -0.529854
 O 0.145 0.3397 0.9292   -0.548054
 O 0.1423 0.0734 0.309   -0.529854
 O 0.145 0.0708 0.4105   -0.548055
