{'_ref': 'TBD', '_srcid': 'CAKYAQ_clean', 'submitters': [{'name': 'Dalar Nazarian Jeff Camp and David Sholl', 'email': 'dalar@gatech.edu jcamp6@gatech.edu'}], '_method': 'VASP DFT with PBE;DDEC'}
data_SmH18C15S3(N2O)6
_symmetry_space_group_name_H-M   'P 1'
_cell_length_a   9.51039993
_cell_length_b   11.51500034
_cell_length_c   14.57500000
_cell_angle_alpha   69.46999992
_cell_angle_beta   85.29000164
_cell_angle_gamma   86.39000193
_symmetry_Int_Tables_number   1
_chemical_formula_structural   SmH18C15S3(N2O)6
_chemical_formula_sum   'Sm2 H36 C30 S6 N24 O12'
_cell_volume   1488.72182679
_cell_formula_units_Z   2
loop_
 _symmetry_equiv_pos_site_id
 _symmetry_equiv_pos_as_xyz
  1  'x, y, z'
loop_
 _atom_site_label
 _atom_site_fract_x
 _atom_site_fract_y
 _atom_site_fract_z
 _atom_site_charge
 Sm 0.79618 0.95525 0.00224   2.285317
 Sm 0.20382 0.04475 0.99776   2.285318
 H 0.8666 0.3697 0.8392   0.162614
 H 0.9709 0.3727 0.7496   0.147945
 H 0.336 0.393 0.883   0.326037
 H 0.271 0.475 0.802   0.317109
 H 0.8773 0.9436 0.5566   0.072919
 H 0.8725 0.0651 0.4637   0.107761
 H 0.2748 0.3503 0.3913   0.367884
 H 0.2597 0.2862 0.3201   0.306051
 H 0.8521 0.1016 0.2834   0.157007
 H 0.8153 0.2262 0.1981   0.151313
 H 0.1189 0.5334 0.4337   0.084253
 H 0.1112 0.4105 0.5252   0.113848
 H 0.6702 0.0481 0.6057   0.349145
 H 0.6284 0.1178 0.6732   0.361221
 H 0.4842 0.8366 0.8063   0.164042
 H 0.6349 0.8307 0.7566   0.118767
 H 0.0287 0.4846 0.9077   0.104491
 H 0.0778 0.3881 0.0071   0.112509
 H 0.1334 0.6303 0.1608   0.162614
 H 0.0291 0.6273 0.2504   0.147946
 H 0.664 0.607 0.117   0.326036
 H 0.729 0.525 0.198   0.317107
 H 0.1227 0.0564 0.4434   0.07292
 H 0.1275 0.9349 0.5363   0.107761
 H 0.7252 0.6497 0.6087   0.367881
 H 0.7403 0.7138 0.6799   0.306055
 H 0.1479 0.8984 0.7166   0.15701
 H 0.1847 0.7738 0.8019   0.151314
 H 0.8811 0.4666 0.5663   0.084253
 H 0.8888 0.5895 0.4748   0.113848
 H 0.3298 0.9519 0.3943   0.349151
 H 0.3716 0.8822 0.3268   0.361222
 H 0.5158 0.1634 0.1937   0.164046
 H 0.3651 0.1693 0.2434   0.118769
 H 0.9713 0.5154 0.0923   0.10449
 H 0.9222 0.6119 0.9929   0.112508
 C 0.9238 0.0981 0.1471   0.856923
 C 0.8866 0.1958 0.6801   0.181402
 C 0.0045 0.2211 0.8706   0.818937
 C 0.912 0.3192 0.8034   -0.304138
 C 0.9274 0.018 0.5189   -0.173243
 C 0.9825 0.3037 0.316   0.167712
 C 0.8873 0.1611 0.2215   -0.320992
 C 0.9429 0.0945 0.5821   0.227857
 C 0.9963 0.4066 0.4153   0.248937
 C 0.056 0.4703 0.4755   -0.168907
 C 0.5785 0.7998 0.8182   -0.304025
 C 0.6391 0.8469 0.8905   0.745977
 C 0.4013 0.614 0.912   0.212913
 C 0.1892 0.5446 0.9604   0.247447
 C 0.0588 0.4756 0.9719   -0.203286
 C 0.0762 0.9019 0.8529   0.856924
 C 0.1134 0.8042 0.3199   0.181403
 C 0.9955 0.7789 0.1294   0.818937
 C 0.088 0.6808 0.1966   -0.304138
 C 0.0726 0.982 0.4811   -0.173236
 C 0.0175 0.6963 0.684   0.167712
 C 0.1127 0.8389 0.7785   -0.320993
 C 0.0571 0.9055 0.4179   0.227856
 C 0.0037 0.5934 0.5847   0.248937
 C 0.944 0.5297 0.5245   -0.168907
 C 0.4215 0.2002 0.1818   -0.304027
 C 0.3609 0.1531 0.1095   0.745977
 C 0.5987 0.386 0.088   0.212912
 C 0.8108 0.4554 0.0396   0.247447
 C 0.9412 0.5244 0.0281   -0.203284
 S 0.04804 0.2262 0.23741   0.007027
 S 0.56726 0.6337 0.85044   -0.023869
 S 0.77807 0.25957 0.75341   -0.033482
 S 0.95196 0.7738 0.76259   0.007029
 S 0.43274 0.3663 0.14956   -0.023867
 S 0.22193 0.74043 0.24659   -0.033482
 N 0.3077 0.5331 0.9051   0.084652
 N 0.2065 0.6304 0.9982   -0.284704
 N 0.0757 0.3477 0.3622   0.131055
 N 0.0234 0.2035 0.662   -0.278351
 N 0.3433 0.6738 0.9678   -0.350264
 N 0.8315 0.1263 0.6339   0.143961
 N 0.3365 0.4543 0.8491   -0.602083
 N 0.2223 0.3252 0.3572   -0.667235
 N 0.0582 0.1367 0.5971   -0.338277
 N 0.8638 0.3995 0.403   -0.325201
 N 0.8548 0.332 0.3396   -0.32295
 N 0.6923 0.0932 0.6381   -0.65098
 N 0.6923 0.4669 0.0949   0.084652
 N 0.7935 0.3696 0.0018   -0.284704
 N 0.9243 0.6523 0.6378   0.131055
 N 0.9766 0.7965 0.338   -0.278351
 N 0.6567 0.3262 0.0322   -0.350264
 N 0.1685 0.8737 0.3661   0.143962
 N 0.6635 0.5457 0.1509   -0.602082
 N 0.7777 0.6748 0.6428   -0.667235
 N 0.9418 0.8633 0.4029   -0.338276
 N 0.1362 0.6005 0.597   -0.325201
 N 0.1452 0.668 0.6604   -0.32295
 N 0.3077 0.9068 0.3619   -0.650983
 O 0.827 0.0444 0.127   -0.763084
 O 0.9557 0.118 0.9255   -0.901848
 O 0.1307 0.2438 0.8728   -0.65927
 O 0.0504 0.1032 0.1121   -0.708799
 O 0.6859 0.7771 0.9691   -0.686056
 O 0.6434 0.9638 0.865   -0.814
 O 0.173 0.9556 0.873   -0.763084
 O 0.0443 0.882 0.0745   -0.901848
 O 0.8693 0.7562 0.1272   -0.65927
 O 0.9496 0.8968 0.8879   -0.708798
 O 0.3141 0.2229 0.0309   -0.686057
 O 0.3566 0.0362 0.135   -0.814
