{'_ref': 'TBD', '_srcid': 'CAKYAQ_clean', 'submitters': [{'name': 'Dalar Nazarian Jeff Camp and David Sholl', 'email': 'dalar@gatech.edu jcamp6@gatech.edu'}], '_method': 'VASP DFT with PBE;DDEC'}
data_Cu2H11C22N5O8
_symmetry_space_group_name_H-M   'P 1'
_cell_length_a   8.49700043
_cell_length_b   9.49000034
_cell_length_c   14.13500000
_cell_angle_alpha   80.55000140
_cell_angle_beta   88.56000291
_cell_angle_gamma   73.51000135
_symmetry_Int_Tables_number   1
_chemical_formula_structural   Cu2H11C22N5O8
_chemical_formula_sum   'Cu4 H22 C44 N10 O16'
_cell_volume   1077.80721221
_cell_formula_units_Z   2
loop_
 _symmetry_equiv_pos_site_id
 _symmetry_equiv_pos_as_xyz
  1  'x, y, z'
loop_
 _atom_site_label
 _atom_site_fract_x
 _atom_site_fract_y
 _atom_site_fract_z
 _atom_site_charge
 Cu 0.55652 0.64415 0.14309   0.945763
 Cu 0.51539 0.79844 0.90222   0.989885
 Cu 0.44348 0.35585 0.85691   0.945763
 Cu 0.48461 0.20156 0.09778   0.989885
 H 0.0636 0.9002 0.174   0.091956
 H 0.966 0.3771 0.0102   0.098626
 H 0.5799 0.3722 0.2894   0.084019
 H 0.4572 0.3039 0.4285   0.148765
 H 0.2233 0.7339 0.4272   0.148857
 H 0.3507 0.7914 0.2882   0.089288
 H 0.9088 0.7782 0.6392   0.147899
 H 0.699 0.8841 0.7331   0.087907
 H 0.7318 0.5007 0.893   0.084138
 H 0.9349 0.383 0.7994   0.129073
 H 0.1408 0.2812 0.6958   0.296272
 H 0.9364 0.0998 0.826   0.091958
 H 0.034 0.6229 0.9898   0.098628
 H 0.4201 0.6278 0.7106   0.084019
 H 0.5428 0.6961 0.5715   0.148749
 H 0.7767 0.2661 0.5728   0.148842
 H 0.6493 0.2086 0.7118   0.089283
 H 0.0912 0.2218 0.3608   0.147888
 H 0.301 0.1159 0.2669   0.087897
 H 0.2682 0.4993 0.107   0.084138
 H 0.0651 0.617 0.2006   0.129074
 H 0.8592 0.7188 0.3042   0.296273
 C 0.3025 0.9101 0.0528   0.685262
 C 0.1544 0.0294 0.0725   -0.175623
 C 0.0409 0.9956 0.1387   0.019986
 C 0.895 0.1004 0.1532   -0.143623
 C 0.8678 0.2458 0.1047   -0.039427
 C 0.9836 0.2794 0.0411   -0.078306
 C 0.1243 0.1732 0.0219   -0.060237
 C 0.2348 0.2236 0.9471   0.664638
 C 0.7754 0.0505 0.2235   0.688212
 C 0.7219 0.375 0.1155   0.645301
 C 0.5054 0.4458 0.317   0.18189
 C 0.4325 0.4036 0.4006   -0.179147
 C 0.3222 0.5113 0.4426   0.052018
 C 0.2941 0.6582 0.3996   -0.17113
 C 0.3711 0.6919 0.3162   0.180972
 C 0.2342 0.4742 0.5297   0.334255
 C 0.0718 0.5005 0.6431   0.281977
 C 0.9446 0.5663 0.7082   0.054012
 C 0.8732 0.7194 0.6895   -0.13901
 C 0.7489 0.7821 0.7471   0.165142
 C 0.7668 0.5566 0.8407   0.155803
 C 0.8893 0.4856 0.7851   -0.157507
 C 0.6975 0.0899 0.9472   0.685262
 C 0.8456 0.9706 0.9275   -0.175623
 C 0.9591 0.0044 0.8613   0.019986
 C 0.105 0.8996 0.8468   -0.143623
 C 0.1322 0.7542 0.8953   -0.039425
 C 0.0164 0.7206 0.9589   -0.078306
 C 0.8757 0.8268 0.9781   -0.060236
 C 0.7652 0.7764 0.0529   0.664638
 C 0.2246 0.9495 0.7765   0.688213
 C 0.2781 0.625 0.8845   0.645301
 C 0.4946 0.5542 0.683   0.181892
 C 0.5675 0.5964 0.5994   -0.179135
 C 0.6778 0.4887 0.5574   0.052018
 C 0.7059 0.3418 0.6004   -0.171121
 C 0.6289 0.3081 0.6838   0.180972
 C 0.7658 0.5258 0.4703   0.334261
 C 0.9282 0.4995 0.3569   0.28198
 C 0.0554 0.4337 0.2918   0.054012
 C 0.1268 0.2806 0.3105   -0.139005
 C 0.2511 0.2179 0.2529   0.165145
 C 0.2332 0.4434 0.1593   0.155805
 C 0.1107 0.5144 0.2149   -0.157505
 N 0.4744 0.5879 0.273   -0.395368
 N 0.1211 0.5789 0.568   -0.480281
 N 0.2572 0.3371 0.5757   -0.329721
 N 0.1519 0.3556 0.649   -0.038675
 N 0.6965 0.7036 0.8219   -0.375797
 N 0.5256 0.4121 0.727   -0.395367
 N 0.8789 0.4211 0.432   -0.480279
 N 0.7428 0.6629 0.4243   -0.329719
 N 0.8481 0.6444 0.351   -0.038674
 N 0.3035 0.2964 0.1781   -0.375798
 O 0.3483 0.7959 0.1152   -0.599516
 O 0.3665 0.9347 0.9734   -0.57595
 O 0.3469 0.2762 0.9771   -0.630513
 O 0.2113 0.2295 0.8622   -0.524682
 O 0.6219 0.1146 0.2127   -0.623097
 O 0.8354 0.9484 0.2899   -0.560408
 O 0.7487 0.4713 0.1595   -0.547741
 O 0.587 0.3885 0.0774   -0.626159
 O 0.6517 0.2041 0.8848   -0.599515
 O 0.6335 0.0653 0.0266   -0.575951
 O 0.6531 0.7238 0.0229   -0.630513
 O 0.7887 0.7705 0.1378   -0.524682
 O 0.3781 0.8854 0.7873   -0.623097
 O 0.1646 0.0516 0.7101   -0.560408
 O 0.2513 0.5287 0.8405   -0.54774
 O 0.413 0.6115 0.9226   -0.626157
