{'_ref': 'TBD', '_srcid': 'CAKYAQ_clean', 'submitters': [{'name': 'Dalar Nazarian Jeff Camp and David Sholl', 'email': 'dalar@gatech.edu jcamp6@gatech.edu'}], '_method': 'VASP DFT with PBE;DDEC'}
data_CoH10C10(NO2)2
_symmetry_space_group_name_H-M   'P 1'
_cell_length_a   6.55970000
_cell_length_b   7.91290034
_cell_length_c   25.44470000
_cell_angle_alpha   90.00000000
_cell_angle_beta   90.00000000
_cell_angle_gamma   91.94999976
_symmetry_Int_Tables_number   1
_chemical_formula_structural   CoH10C10(NO2)2
_chemical_formula_sum   'Co4 H40 C40 N8 O16'
_cell_volume   1319.9741829
_cell_formula_units_Z   4
loop_
 _symmetry_equiv_pos_site_id
 _symmetry_equiv_pos_as_xyz
  1  'x, y, z'
loop_
 _atom_site_label
 _atom_site_fract_x
 _atom_site_fract_y
 _atom_site_fract_z
 _atom_site_charge
 Co 0.37461 0.28768 0.48733   0.979808
 Co 0.87119 0.79914 0.55607   0.981047
 Co 0.62539 0.71232 0.98733   0.979808
 Co 0.12881 0.20086 0.05607   0.981047
 H 0.377 0.1733 0.6308   0.069256
 H 0.6032 0.2115 0.5668   0.325052
 H 0.5435 0.3908 0.5746   0.319363
 H 0.2894 0.4491 0.6375   0.127631
 H 0.0797 0.3432 0.631   0.142532
 H 0.8751 0.9539 0.4168   0.061321
 H 0.0991 0.9034 0.4786   0.325059
 H 0.0309 0.7255 0.4661   0.316899
 H 0.7578 0.6846 0.4001   0.13072
 H 0.5594 0.7882 0.4128   0.142465
 H 0.9495 0.3665 0.4462   0.084795
 H 0.7475 0.3522 0.3716   0.130921
 H 0.1903 0.0899 0.3008   0.128706
 H 0.3832 0.117 0.3773   0.077267
 H 0.8825 0.1382 0.2503   0.109113
 H 0.6077 0.358 0.2933   0.108722
 H 0.0913 0.3371 0.1708   0.077399
 H 0.2896 0.3845 0.2446   0.125449
 H 0.7542 0.1604 0.1709   0.129864
 H 0.5506 0.1364 0.0976   0.077125
 H 0.623 0.8267 0.1308   0.069256
 H 0.3968 0.7885 0.0668   0.325052
 H 0.4565 0.6092 0.0746   0.319363
 H 0.7106 0.5509 0.1375   0.127631
 H 0.9203 0.6568 0.131   0.142533
 H 0.1249 0.0461 0.9168   0.061321
 H 0.9009 0.0966 0.9786   0.325059
 H 0.9691 0.2745 0.9661   0.316899
 H 0.2422 0.3154 0.9001   0.13072
 H 0.4406 0.2118 0.9128   0.142465
 H 0.0505 0.6335 0.9462   0.084795
 H 0.2525 0.6478 0.8716   0.130921
 H 0.8097 0.9101 0.8008   0.128706
 H 0.6168 0.883 0.8773   0.077267
 H 0.1175 0.8618 0.7503   0.109113
 H 0.3923 0.642 0.7933   0.108722
 H 0.9087 0.6629 0.6708   0.0774
 H 0.7104 0.6155 0.7446   0.125449
 H 0.2458 0.8396 0.6709   0.129864
 H 0.4494 0.8636 0.5976   0.077126
 C 0.1852 0.0956 0.56981   0.61542
 C 0.3231 0.2251 0.59802   0.090096
 C 0.2057 0.381 0.61239   -0.392527
 C 0.1448 0.4981 0.56664   0.739523
 C 0.687 0.009 0.47973   0.626636
 C 0.8187 0.8909 0.44792   0.090428
 C 0.684 0.7423 0.42853   -0.390108
 C 0.6179 0.6086 0.46973   0.738513
 C 0.0013 0.3141 0.41562   0.161787
 C 0.878 0.3037 0.37149   -0.209915
 C 0.9477 0.221 0.32666   0.12084
 C 0.1386 0.1503 0.32987   -0.237553
 C 0.2543 0.168 0.37569   0.158441
 C 0.8305 0.2084 0.27708   -0.128411
 C 0.6589 0.2865 0.26672   -0.126453
 C 0.2292 0.3041 0.17045   0.160992
 C 0.3453 0.3283 0.21519   -0.235477
 C 0.5418 0.2716 0.21758   0.122354
 C 0.6188 0.1993 0.17187   -0.211902
 C 0.4956 0.1853 0.12835   0.170671
 C 0.8148 0.9044 0.06981   0.61542
 C 0.6769 0.7749 0.09802   0.090096
 C 0.7943 0.619 0.11239   -0.392527
 C 0.8552 0.5019 0.06664   0.739523
 C 0.313 0.991 0.97973   0.626636
 C 0.1813 0.1091 0.94792   0.090428
 C 0.316 0.2577 0.92853   -0.390108
 C 0.3821 0.3914 0.96973   0.738513
 C 0.9987 0.6859 0.91562   0.161787
 C 0.122 0.6963 0.87149   -0.209915
 C 0.0523 0.779 0.82666   0.12084
 C 0.8614 0.8497 0.82987   -0.237553
 C 0.7457 0.832 0.87569   0.158441
 C 0.1695 0.7916 0.77708   -0.128411
 C 0.3411 0.7135 0.76672   -0.126453
 C 0.7708 0.6959 0.67045   0.160992
 C 0.6547 0.6717 0.71519   -0.235477
 C 0.4582 0.7284 0.71758   0.122354
 C 0.3812 0.8007 0.67187   -0.211902
 C 0.5044 0.8147 0.62835   0.170671
 N 0.4973 0.2845 0.56462   -0.694142
 N 0.9898 0.8274 0.47907   -0.691575
 N 0.1902 0.2542 0.41752   -0.33728
 N 0.3034 0.2358 0.12645   -0.342305
 N 0.5027 0.7155 0.06462   -0.694142
 N 0.0102 0.1726 0.97907   -0.691575
 N 0.8098 0.7458 0.91752   -0.33728
 N 0.6966 0.7642 0.62645   -0.342305
 O 0.2073 0.0931 0.52019   -0.577517
 O 0.063 0.9995 0.59572   -0.589713
 O 0.1668 0.4635 0.5199   -0.589303
 O 0.0563 0.6241 0.58493   -0.622647
 O 0.7004 0.9957 0.53002   -0.580925
 O 0.5798 0.1107 0.45658   -0.575347
 O 0.6563 0.6266 0.51721   -0.60822
 O 0.5254 0.4828 0.45008   -0.624899
 O 0.7927 0.9069 0.02019   -0.577517
 O 0.937 0.000500000000002 0.09572   -0.589713
 O 0.8332 0.5365 0.0199   -0.589303
 O 0.9437 0.3759 0.08493   -0.622647
 O 0.2996 0.0043 0.03002   -0.580925
 O 0.4202 0.8893 0.95658   -0.575347
 O 0.3437 0.3734 0.01721   -0.60822
 O 0.4746 0.5172 0.95008   -0.624899
