{'_ref': 'TBD', '_srcid': 'CAKYAQ_clean', 'submitters': [{'name': 'Dalar Nazarian Jeff Camp and David Sholl', 'email': 'dalar@gatech.edu jcamp6@gatech.edu'}], '_method': 'VASP DFT with PBE;DDEC'}
data_CaH4(C2O)4
_symmetry_space_group_name_H-M   'P 1'
_cell_length_a   6.72990000
_cell_length_b   10.93750000
_cell_length_c   18.58400000
_cell_angle_alpha   90.00000000
_cell_angle_beta   90.00000000
_cell_angle_gamma   90.00000000
_symmetry_Int_Tables_number   1
_chemical_formula_structural   CaH4(C2O)4
_chemical_formula_sum   'Ca4 H16 C32 O16'
_cell_volume   1367.93629875
_cell_formula_units_Z   4
loop_
 _symmetry_equiv_pos_site_id
 _symmetry_equiv_pos_as_xyz
  1  'x, y, z'
loop_
 _atom_site_label
 _atom_site_fract_x
 _atom_site_fract_y
 _atom_site_fract_z
 _atom_site_charge
 Ca 0.25 0.59047 0.01348   1.615817
 Ca 0.75 0.90953 0.51348   1.615817
 Ca 0.75 0.40953 0.98652   1.615816
 Ca 0.25 0.09047 0.48652   1.615816
 H 0.5437 0.7438 0.7822   0.108155
 H 0.5463 0.815 0.6659   0.063738
 H 0.4563 0.7562 0.2822   0.108155
 H 0.4537 0.685 0.1659   0.063738
 H 0.0437 0.2562 0.2178   0.108155
 H 0.0463 0.185 0.3341   0.063738
 H 0.9563 0.2438 0.7178   0.108155
 H 0.9537 0.315 0.8341   0.063738
 H 0.4563 0.2562 0.2178   0.108157
 H 0.4537 0.185 0.3341   0.063738
 H 0.5437 0.2438 0.7178   0.108157
 H 0.5463 0.315 0.8341   0.063738
 H 0.9563 0.7438 0.7822   0.108157
 H 0.9537 0.815 0.6659   0.063738
 H 0.0437 0.7562 0.2822   0.108157
 H 0.0463 0.685 0.1659   0.063738
 C 0.424 0.7586 0.7587   -0.068924
 C 0.4257 0.8023 0.6892   -0.03273
 C 0.576 0.7414 0.2587   -0.068924
 C 0.5743 0.6977 0.1892   -0.03273
 C 0.924 0.2414 0.2413   -0.068924
 C 0.9257 0.1977 0.3108   -0.03273
 C 0.076 0.2586 0.7413   -0.068924
 C 0.0743 0.3023 0.8108   -0.03273
 C 0.576 0.2414 0.2413   -0.068924
 C 0.5743 0.1977 0.3108   -0.032729
 C 0.424 0.2586 0.7413   -0.068924
 C 0.4257 0.3023 0.8108   -0.032729
 C 0.076 0.7586 0.7587   -0.068924
 C 0.0743 0.8023 0.6892   -0.032729
 C 0.924 0.7414 0.2587   -0.068924
 C 0.9257 0.6977 0.1892   -0.032729
 C 0.25 0.6937 0.8714   0.667492
 C 0.25 0.7366 0.7937   -0.064443
 C 0.25 0.8274 0.6536   -0.175365
 C 0.25 0.8831 0.5807   0.812472
 C 0.75 0.8063 0.3714   0.667492
 C 0.75 0.7634 0.2937   -0.064443
 C 0.75 0.6726 0.1536   -0.175365
 C 0.75 0.6169 0.0807   0.812472
 C 0.75 0.3063 0.1286   0.667492
 C 0.75 0.2634 0.2063   -0.064443
 C 0.75 0.1726 0.3464   -0.175365
 C 0.75 0.1169 0.4193   0.812472
 C 0.25 0.1937 0.6286   0.667492
 C 0.25 0.2366 0.7063   -0.064443
 C 0.25 0.3274 0.8464   -0.175365
 C 0.25 0.3831 0.9193   0.812472
 O 0.0881 0.6784 0.90293   -0.70171
 O 0.0877 0.9098 0.55109   -0.796517
 O 0.9119 0.8216 0.40293   -0.70171
 O 0.9123 0.5902 0.05109   -0.796517
 O 0.5881 0.3216 0.09707   -0.70171
 O 0.5877 0.0902 0.44891   -0.796517
 O 0.4119 0.1784 0.59707   -0.70171
 O 0.4123 0.4098 0.94891   -0.796517
 O 0.9119 0.3216 0.09707   -0.70171
 O 0.9123 0.0902 0.44891   -0.796517
 O 0.0881 0.1784 0.59707   -0.70171
 O 0.0877 0.4098 0.94891   -0.796517
 O 0.4119 0.6784 0.90293   -0.70171
 O 0.4123 0.9098 0.55109   -0.796517
 O 0.5881 0.8216 0.40293   -0.70171
 O 0.5877 0.5902 0.05109   -0.796517
