{'_ref': 'TBD', '_srcid': 'CAKYAQ_clean', 'submitters': [{'name': 'Dalar Nazarian Jeff Camp and David Sholl', 'email': 'dalar@gatech.edu jcamp6@gatech.edu'}], '_method': 'VASP DFT with PBE;DDEC'}
data_CaH4(C4O3)2
_symmetry_space_group_name_H-M   'P 1'
_cell_length_a   8.33280023
_cell_length_b   8.67939963
_cell_length_c   9.93930000
_cell_angle_alpha   70.52000036
_cell_angle_beta   84.45899778
_cell_angle_gamma   73.72199533
_symmetry_Int_Tables_number   1
_chemical_formula_structural   CaH4(C4O3)2
_chemical_formula_sum   'Ca2 H8 C16 O12'
_cell_volume   650.528002562
_cell_formula_units_Z   2
loop_
 _symmetry_equiv_pos_site_id
 _symmetry_equiv_pos_as_xyz
  1  'x, y, z'
loop_
 _atom_site_label
 _atom_site_fract_x
 _atom_site_fract_y
 _atom_site_fract_z
 _atom_site_charge
 Ca 0.32648 0.36337 0.04249   1.578562
 Ca 0.67352 0.63663 0.95751   1.57856
 H 0.2239 0.4426 0.3542   0.105216
 H 0.6758 0.5576 0.3332   0.40269
 H 0.6545 0.9766 0.9207   0.41572
 H 0.9551 0.2649 0.0251   0.125562
 H 0.7761 0.5574 0.6458   0.105216
 H 0.3242 0.4424 0.6668   0.40269
 H 0.3455 0.0234 0.0793   0.41572
 H 0.0449 0.7351 0.9749   0.125559
 C 0.9511 0.4765 0.2241   0.812391
 C 0.9736 0.4917 0.3658   -0.277991
 C 0.1332 0.4652 0.4135   -0.145162
 C 0.8377 0.5287 0.4546   0.331931
 C 0.6692 0.2321 0.9574   0.75321
 C 0.8415 0.1131 0.9761   -0.241738
 C 0.9733 0.1586 0.0149   -0.133593
 C 0.8692 0.9527 0.9617   0.342985
 C 0.0489 0.5235 0.7759   0.812391
 C 0.0264 0.5083 0.6342   -0.277993
 C 0.8668 0.5348 0.5865   -0.145155
 C 0.1623 0.4713 0.5454   0.331936
 C 0.3308 0.7679 0.0426   0.753213
 C 0.1585 0.8869 0.0239   -0.241748
 C 0.0267 0.8414 0.9851   -0.13356
 C 0.1308 0.0473 0.0383   0.343014
 O 0.0764 0.4189 0.1596   -0.749999
 O 0.803 0.5239 0.1772   -0.741964
 O 0.5497 0.1791 0.9385   -0.666166
 O 0.6459 0.3772 0.9654   -0.785938
 O 0.6771 0.5608 0.4147   -0.529599
 O 0.7425 0.9032 0.9248   -0.596143
 O 0.9236 0.5811 0.8404   -0.749999
 O 0.197 0.4761 0.8228   -0.741964
 O 0.4503 0.8209 0.0615   -0.666167
 O 0.3541 0.6228 0.0346   -0.785939
 O 0.3229 0.4392 0.5853   -0.529599
 O 0.2575 0.0968 0.0752   -0.596146
