{'_ref': 'TBD', '_srcid': 'CAKYAQ_clean', 'submitters': [{'name': 'Dalar Nazarian Jeff Camp and David Sholl', 'email': 'dalar@gatech.edu jcamp6@gatech.edu'}], '_method': 'VASP DFT with PBE;DDEC'}
data_AgH6C4N3
_symmetry_space_group_name_H-M   'P 1'
_cell_length_a   11.71940000
_cell_length_b   12.02213503
_cell_length_c   21.13500000
_cell_angle_alpha   90.00000000
_cell_angle_beta   90.00000000
_cell_angle_gamma   113.40751146
_symmetry_Int_Tables_number   1
_chemical_formula_structural   AgH6C4N3
_chemical_formula_sum   'Ag16 H96 C64 N48'
_cell_volume   2732.69505461
_cell_formula_units_Z   16
loop_
 _symmetry_equiv_pos_site_id
 _symmetry_equiv_pos_as_xyz
  1  'x, y, z'
loop_
 _atom_site_label
 _atom_site_fract_x
 _atom_site_fract_y
 _atom_site_fract_z
 _atom_site_charge
 Ag 0.89547 0.07299 0.30005   0.319166
 Ag 0.60453 0.92701 0.30005   0.319166
 Ag 0.39547 0.57299 0.80005   0.319166
 Ag 0.10453 0.42701 0.80005   0.319166
 Ag 0.10453 0.92701 0.69995   0.319166
 Ag 0.39547 0.07299 0.69995   0.319166
 Ag 0.60453 0.42701 0.19995   0.319166
 Ag 0.89547 0.57299 0.19995   0.319166
 Ag 0.70911 0.14961 0.4375   0.335978
 Ag 0.79089 0.85039 0.4375   0.335977
 Ag 0.20911 0.64961 0.9375   0.335978
 Ag 0.29089 0.35039 0.9375   0.335977
 Ag 0.29089 0.85039 0.5625   0.335978
 Ag 0.20911 0.14961 0.5625   0.335977
 Ag 0.79089 0.35039 0.0625   0.335978
 Ag 0.70911 0.64961 0.0625   0.335977
 H 0.9478 0.1962 0.5391   0.063209
 H 0.5522 0.8038 0.5391   0.063209
 H 0.4478 0.6962 0.0391   0.063209
 H 0.0522 0.3038 0.0391   0.063209
 H 0.0522 0.8038 0.4609   0.063209
 H 0.4478 0.1962 0.4609   0.063209
 H 0.5522 0.3038 0.9609   0.063209
 H 0.9478 0.6962 0.9609   0.063209
 H 0.1082 0.0165 0.3699   0.093185
 H 0.3918 0.9835 0.3699   0.093185
 H 0.6082 0.5165 0.8699   0.093185
 H 0.8918 0.4835 0.8699   0.093185
 H 0.8918 0.9835 0.6301   0.093185
 H 0.6082 0.0165 0.6301   0.093185
 H 0.3918 0.4835 0.1301   0.093185
 H 0.1082 0.5165 0.1301   0.093185
 H 0.2042 0.069 0.4248   0.076297
 H 0.2958 0.931 0.4248   0.076297
 H 0.7042 0.569 0.9248   0.076297
 H 0.7958 0.431 0.9248   0.076297
 H 0.7958 0.931 0.5752   0.076297
 H 0.7042 0.069 0.5752   0.076297
 H 0.2958 0.431 0.0752   0.076297
 H 0.2042 0.569 0.0752   0.076297
 H 0.2907 0.1538 0.332   0.104883
 H 0.2093 0.8462 0.332   0.104884
 H 0.7907 0.6538 0.832   0.104883
 H 0.7093 0.3462 0.832   0.104884
 H 0.7093 0.8462 0.668   0.104883
 H 0.7907 0.1538 0.668   0.104884
 H 0.2093 0.3462 0.168   0.104883
 H 0.2907 0.6538 0.168   0.104884
 H 0.1848 0.2002 0.3207   0.081635
 H 0.3152 0.7998 0.3207   0.081635
 H 0.6848 0.7002 0.8207   0.081635
 H 0.8152 0.2998 0.8207   0.081635
 H 0.8152 0.7998 0.6793   0.081635
 H 0.6848 0.2002 0.6793   0.081635
 H 0.3152 0.2998 0.1793   0.081635
 H 0.1848 0.7002 0.1793   0.081635
 H 0.28 0.2541 0.376   0.090971
 H 0.22 0.7459 0.376   0.090971
 H 0.78 0.7541 0.876   0.090971
 H 0.72 0.2459 0.876   0.090971
 H 0.72 0.7459 0.624   0.090971
 H 0.78 0.2541 0.624   0.090971
 H 0.22 0.2459 0.124   0.090971
 H 0.28 0.7541 0.124   0.090971
 H 0.861 0.6463 0.3482   0.073088
 H 0.639 0.3537 0.3482   0.073087
 H 0.361 0.1463 0.8482   0.073088
 H 0.139 0.8537 0.8482   0.073087
 H 0.139 0.3537 0.6518   0.073088
 H 0.361 0.6463 0.6518   0.073087
 H 0.639 0.8537 0.1518   0.073088
 H 0.861 0.1463 0.1518   0.073087
 H 0.9211 0.8232 0.1496   0.08341
 H 0.5789 0.1768 0.1496   0.08341
 H 0.4211 0.3232 0.6496   0.08341
 H 0.0789 0.6768 0.6496   0.08341
 H 0.0789 0.1768 0.8504   0.08341
 H 0.4211 0.8232 0.8504   0.08341
 H 0.5789 0.6768 0.3504   0.08341
 H 0.9211 0.3232 0.3504   0.08341
 H 0.9118 0.9428 0.1734   0.080232
 H 0.5882 0.0572 0.1734   0.080232
 H 0.4118 0.4428 0.6734   0.080232
 H 0.0882 0.5572 0.6734   0.080232
 H 0.0882 0.0572 0.8266   0.080232
 H 0.4118 0.9428 0.8266   0.080232
 H 0.5882 0.5572 0.3266   0.080232
 H 0.9118 0.4428 0.3266   0.080232
 H 0.1054 0.9879 0.1336   0.101689
 H 0.3946 0.0121 0.1336   0.101689
 H 0.6054 0.4879 0.6336   0.101689
 H 0.8946 0.5121 0.6336   0.101689
 H 0.8946 0.0121 0.8664   0.101689
 H 0.6054 0.9879 0.8664   0.101689
 H 0.3946 0.5121 0.3664   0.101689
 H 0.1054 0.4879 0.3664   0.101689
 H 0.1252 0.8948 0.1796   0.094682
 H 0.3748 0.1052 0.1796   0.094682
 H 0.6252 0.3948 0.6796   0.094682
 H 0.8748 0.6052 0.6796   0.094682
 H 0.8748 0.1052 0.8204   0.094682
 H 0.6252 0.8948 0.8204   0.094682
 H 0.3748 0.6052 0.3204   0.094682
 H 0.1252 0.3948 0.3204   0.094682
 H 0.1167 0.0127 0.2066   0.087973
 H 0.3833 0.9873 0.2066   0.087973
 H 0.6167 0.5127 0.7066   0.087973
 H 0.8833 0.4873 0.7066   0.087973
 H 0.8833 0.9873 0.7934   0.087973
 H 0.6167 0.0127 0.7934   0.087973
 H 0.3833 0.4873 0.2934   0.087973
 H 0.1167 0.5127 0.2934   0.087973
 C 0.0596 0.1203 0.4307   0.370638
 C 0.4404 0.8797 0.4307   0.370638
 C 0.5596 0.6203 0.9307   0.370638
 C 0.9404 0.3797 0.9307   0.370638
 C 0.9404 0.8797 0.5693   0.370638
 C 0.5596 0.1203 0.5693   0.370638
 C 0.4404 0.3797 0.0693   0.370638
 C 0.0596 0.6203 0.0693   0.370638
 C 0.9671 0.1716 0.5003   0.229909
 C 0.5329 0.8284 0.5003   0.229909
 C 0.4671 0.6716 0.000300000000003   0.229909
 C 0.0329 0.3284 0.000300000000003   0.229909
 C 0.0329 0.8284 0.4997   0.229909
 C 0.4671 0.1716 0.4997   0.229909
 C 0.5329 0.3284 0.9997   0.229909
 C 0.9671 0.6716 0.9997   0.229909
 C 0.1527 0.0888 0.3946   -0.185758
 C 0.3473 0.9112 0.3946   -0.185758
 C 0.6527 0.5888 0.8946   -0.185758
 C 0.8473 0.4112 0.8946   -0.185758
 C 0.8473 0.9112 0.6054   -0.185758
 C 0.6527 0.0888 0.6054   -0.185758
 C 0.3473 0.4112 0.1054   -0.185758
 C 0.1527 0.5888 0.1054   -0.185758
 C 0.234 0.1822 0.3522   -0.262388
 C 0.266 0.8178 0.3522   -0.262388
 C 0.734 0.6822 0.8522   -0.262388
 C 0.766 0.3178 0.8522   -0.262388
 C 0.766 0.8178 0.6478   -0.262388
 C 0.734 0.1822 0.6478   -0.262388
 C 0.266 0.3178 0.1478   -0.262388
 C 0.234 0.6822 0.1478   -0.262388
 C 0.9136 0.8317 0.2451   0.366692
 C 0.5864 0.1683 0.2451   0.366692
 C 0.4136 0.3317 0.7451   0.366692
 C 0.0864 0.6683 0.7451   0.366692
 C 0.0864 0.1683 0.7549   0.366692
 C 0.4136 0.8317 0.7549   0.366692
 C 0.5864 0.6683 0.2549   0.366692
 C 0.9136 0.3317 0.2549   0.366692
 C 0.8742 0.7137 0.323   0.213161
 C 0.6258 0.2863 0.323   0.213161
 C 0.3742 0.2137 0.823   0.213161
 C 0.1258 0.7863 0.823   0.213161
 C 0.1258 0.2863 0.677   0.213161
 C 0.3742 0.7137 0.677   0.213161
 C 0.6258 0.7863 0.177   0.213161
 C 0.8742 0.2137 0.177   0.213161
 C 0.951 0.8866 0.1813   -0.18766
 C 0.549 0.1134 0.1813   -0.18766
 C 0.451 0.3866 0.6813   -0.18766
 C 0.049 0.6134 0.6813   -0.18766
 C 0.049 0.1134 0.8187   -0.18766
 C 0.451 0.8866 0.8187   -0.18766
 C 0.549 0.6134 0.3187   -0.18766
 C 0.951 0.3866 0.3187   -0.18766
 C 0.0863 0.9511 0.1747   -0.261965
 C 0.4137 0.0489 0.1747   -0.261964
 C 0.5863 0.4511 0.6747   -0.261965
 C 0.9137 0.5489 0.6747   -0.261964
 C 0.9137 0.0489 0.8253   -0.261965
 C 0.5863 0.9511 0.8253   -0.261964
 C 0.4137 0.5489 0.3253   -0.261965
 C 0.0863 0.4511 0.3253   -0.261964
 N 0.9524 0.1132 0.4048   -0.302184
 N 0.5476 0.8868 0.4048   -0.302184
 N 0.4524 0.6132 0.9048   -0.302184
 N 0.0476 0.3868 0.9048   -0.302184
 N 0.0476 0.8868 0.5952   -0.302184
 N 0.4524 0.1132 0.5952   -0.302184
 N 0.5476 0.3868 0.0952   -0.302184
 N 0.9524 0.6132 0.0952   -0.302184
 N 0.8927 0.148 0.4519   -0.249751
 N 0.6073 0.852 0.4519   -0.249751
 N 0.3927 0.648 0.9519   -0.249751
 N 0.1073 0.352 0.9519   -0.249751
 N 0.1073 0.852 0.5481   -0.249751
 N 0.3927 0.148 0.5481   -0.249751
 N 0.6073 0.352 0.0481   -0.249751
 N 0.8927 0.648 0.0481   -0.249751
 N 0.0733 0.1577 0.4902   -0.455044
 N 0.4267 0.8423 0.4902   -0.455044
 N 0.5733 0.6577 0.9902   -0.455044
 N 0.9267 0.3423 0.9902   -0.455044
 N 0.9267 0.8423 0.5098   -0.455044
 N 0.5733 0.1577 0.5098   -0.455044
 N 0.4267 0.3423 0.0098   -0.455044
 N 0.0733 0.6577 0.0098   -0.455044
 N 0.8894 0.8894 0.2936   -0.27462
 N 0.6106 0.1106 0.2936   -0.27462
 N 0.3894 0.3894 0.7936   -0.27462
 N 0.1106 0.6106 0.7936   -0.27462
 N 0.1106 0.1106 0.7064   -0.27462
 N 0.3894 0.8894 0.7064   -0.27462
 N 0.6106 0.6106 0.2064   -0.27462
 N 0.8894 0.3894 0.2064   -0.27462
 N 0.8646 0.8128 0.3441   -0.241807
 N 0.6354 0.1872 0.3441   -0.241807
 N 0.3646 0.3128 0.8441   -0.241807
 N 0.1354 0.6872 0.8441   -0.241807
 N 0.1354 0.1872 0.6559   -0.241807
 N 0.3646 0.8128 0.6559   -0.241807
 N 0.6354 0.6872 0.1559   -0.241807
 N 0.8646 0.3128 0.1559   -0.241807
 N 0.9051 0.7198 0.2615   -0.44562
 N 0.5949 0.2802 0.2615   -0.44562
 N 0.4051 0.2198 0.7615   -0.44562
 N 0.0949 0.7802 0.7615   -0.44562
 N 0.0949 0.2802 0.7385   -0.44562
 N 0.4051 0.7198 0.7385   -0.44562
 N 0.5949 0.7802 0.2385   -0.44562
 N 0.9051 0.2198 0.2385   -0.44562
