{'_ref': 'TBD', '_srcid': 'CAKYAQ_clean', 'submitters': [{'name': 'Dalar Nazarian Jeff Camp and David Sholl', 'email': 'dalar@gatech.edu jcamp6@gatech.edu'}], '_method': 'VASP DFT with PBE;DDEC'}
data_ZnH8C10N3O4
_symmetry_space_group_name_H-M   'P 1'
_cell_length_a   10.72100053
_cell_length_b   13.01800045
_cell_length_c   15.18300000
_cell_angle_alpha   95.59899951
_cell_angle_beta   108.01000059
_cell_angle_gamma   104.70200053
_symmetry_Int_Tables_number   1
_chemical_formula_structural   ZnH8C10N3O4
_chemical_formula_sum   'Zn6 H48 C60 N18 O24'
_cell_volume   1913.19821943
_cell_formula_units_Z   6
loop_
 _symmetry_equiv_pos_site_id
 _symmetry_equiv_pos_as_xyz
  1  'x, y, z'
loop_
 _atom_site_label
 _atom_site_fract_x
 _atom_site_fract_y
 _atom_site_fract_z
 _atom_site_charge
 Zn 0.58228 0.07958 0.65621   1.021269
 Zn 0.74817 0.36797 0.91608   0.957397
 Zn 0.41831 0.54113 0.83732   0.63879
 Zn 0.41772 0.92042 0.34379   1.021269
 Zn 0.25183 0.63203 0.08392   0.957397
 Zn 0.58169 0.45887 0.16268   0.63879
 H 0.8523 0.4318 0.6658   0.113721
 H 0.6947 0.3778 0.6127   0.15383
 H 0.0585 0.3326 0.859   0.148151
 H 0.1659 0.2983 0.9368   0.110735
 H 0.6368 0.2742 0.4754   0.138763
 H 0.753 0.2486 0.4435   0.124461
 H 0.0511 0.0403 0.3898   0.111844
 H 0.9328 0.0649 0.4193   0.109385
 H 0.263 0.0895 0.61   0.110035
 H 0.2397 0.043 0.5052   0.134059
 H 0.3004 0.194 0.8082   0.152823
 H 0.3258 0.2417 0.9128   0.111639
 H 0.8834 0.6843 0.8157   0.147536
 H 0.0151 0.5944 0.91   0.082757
 H 0.1597 0.4202 0.4928   0.141984
 H 0.1841 0.6228 0.764   0.086771
 H 0.0502 0.033 0.8406   0.138325
 H 0.2602 0.865 0.0777   0.083598
 H 0.335 0.44 0.6336   0.101568
 H 0.1385 0.9641 0.9883   0.125688
 H 0.0049 0.6068 0.6282   0.126188
 H 0.7281 0.7748 0.8037   0.113001
 H 0.8993 0.1177 0.76   0.081686
 H 0.5858 0.8665 0.7214   0.08798
 H 0.1477 0.5682 0.3342   0.113721
 H 0.3053 0.6222 0.3873   0.153826
 H 0.9415 0.6674 0.141   0.148151
 H 0.8341 0.7017 0.0632   0.110735
 H 0.3632 0.7258 0.5246   0.138761
 H 0.247 0.7514 0.5565   0.12446
 H 0.9489 0.9597 0.6102   0.111844
 H 0.0672 0.9351 0.5807   0.109387
 H 0.737 0.9105 0.39   0.110037
 H 0.7603 0.957 0.4948   0.13406
 H 0.6996 0.806 0.1918   0.152823
 H 0.6742 0.7583 0.0872   0.111639
 H 0.1166 0.3157 0.1843   0.147536
 H 0.9849 0.4056 0.09   0.082757
 H 0.8403 0.5798 0.5072   0.141981
 H 0.8159 0.3772 0.236   0.086771
 H 0.9498 0.967 0.1594   0.138326
 H 0.7398 0.135 0.9223   0.083598
 H 0.665 0.56 0.3664   0.101567
 H 0.8615 0.0359 0.0117   0.125688
 H 0.9951 0.3932 0.3718   0.126188
 H 0.2719 0.2252 0.1963   0.113
 H 0.1007 0.8823 0.24   0.081686
 H 0.4142 0.1335 0.2786   0.087978
 C 0.7793 0.3637 0.6472   -0.229333
 C 0.7649 0.3258 0.7362   0.728085
 C 0.1282 0.2786 0.727   0.571353
 C 0.0811 0.1906 0.5795   0.567064
 C 0.9308 0.2676 0.6116   0.563024
 C 0.1561 0.3445 0.8903   -0.223075
 C 0.7076 0.2382 0.4896   -0.256728
 C 0.0252 0.0968 0.4198   -0.210676
 C 0.247 0.1068 0.5475   -0.245849
 C 0.639 0.1174 0.4783   0.755493
 C 0.4634 0.325 0.8629   0.737025
 C 0.3239 0.2609 0.8523   -0.237854
 C 0.2203 0.461 0.9416   0.689894
 C 0.3693 0.1969 0.5504   0.672956
 C 0.0218 0.1839 0.3603   0.626399
 C 0.9592 0.7229 0.8684   -0.165372
 C 0.0584 0.5079 0.5449   0.082644
 C 0.0387 0.6693 0.9261   0.187778
 C 0.1616 0.4604 0.5475   -0.134917
 C 0.1779 0.5807 0.7088   0.160635
 C 0.9044 0.8945 0.8336   0.10863
 C 0.9561 0.9981 0.8181   -0.20237
 C 0.1834 0.8289 0.0248   0.179749
 C 0.2674 0.4733 0.6323   0.1697
 C 0.1108 0.8891 0.9712   -0.21172
 C 0.9949 0.8355 0.8908   0.114401
 C 0.0698 0.5712 0.6276   -0.135477
 C 0.7652 0.8446 0.796   -0.183382
 C 0.8643 0.0477 0.7684   0.188553
 C 0.6802 0.9003 0.7461   0.180606
 C 0.2207 0.6363 0.3528   -0.229331
 C 0.2351 0.6742 0.2638   0.728085
 C 0.8718 0.7214 0.273   0.571353
 C 0.9189 0.8094 0.4205   0.567064
 C 0.0692 0.7324 0.3884   0.563024
 C 0.8439 0.6555 0.1097   -0.223074
 C 0.2924 0.7618 0.5104   -0.256727
 C 0.9748 0.9032 0.5802   -0.210677
 C 0.753 0.8932 0.4525   -0.24585
 C 0.361 0.8826 0.5217   0.755493
 C 0.5366 0.675 0.1371   0.737025
 C 0.6761 0.7391 0.1477   -0.237854
 C 0.7797 0.539 0.0584   0.689893
 C 0.6307 0.8031 0.4496   0.672957
 C 0.9782 0.8161 0.6397   0.6264
 C 0.0408 0.2771 0.1316   -0.165372
 C 0.9416 0.4921 0.4551   0.082643
 C 0.9613 0.3307 0.0739   0.187778
 C 0.8384 0.5396 0.4525   -0.134915
 C 0.8221 0.4193 0.2912   0.160635
 C 0.0956 0.1055 0.1664   0.10863
 C 0.0439 0.0019 0.1819   -0.202369
 C 0.8166 0.1711 0.9752   0.17975
 C 0.7326 0.5267 0.3677   0.1697
 C 0.8892 0.1109 0.0288   -0.211719
 C 0.0051 0.1645 0.1092   0.114401
 C 0.9302 0.4288 0.3724   -0.135477
 C 0.2348 0.1554 0.204   -0.183382
 C 0.1357 0.9523 0.2316   0.188554
 C 0.3198 0.0997 0.2539   0.180608
 N 0.0123 0.3077 0.7014   -0.657349
 N 0.8086 0.2902 0.5835   -0.07811
 N 0.1703 0.2226 0.6688   -0.646358
 N 0.9584 0.208 0.5458   -0.60507
 N 0.1167 0.131 0.5169   -0.055333
 N 0.2125 0.3102 0.8202   -0.12469
 N 0.1471 0.7205 0.0034   -0.36892
 N 0.2749 0.5319 0.7116   -0.330857
 N 0.7295 0.0016 0.7322   -0.333094
 N 0.9877 0.6923 0.2986   -0.657349
 N 0.1914 0.7098 0.4165   -0.078111
 N 0.8297 0.7774 0.3312   -0.646358
 N 0.0416 0.792 0.4542   -0.60507
 N 0.8833 0.869 0.4831   -0.055333
 N 0.7875 0.6898 0.1798   -0.12469
 N 0.8529 0.2795 0.9966   -0.36892
 N 0.7251 0.4681 0.2884   -0.330857
 N 0.2705 0.9984 0.2678   -0.333094
 O 0.6594 0.0723 0.5492   -0.64324
 O 0.7838 0.4055 0.8028   -0.622249
 O 0.7365 0.2314 0.7472   -0.63428
 O 0.5689 0.0695 0.3954   -0.618911
 O 0.5545 0.2782 0.8855   -0.597544
 O 0.4943 0.4208 0.8512   -0.573903
 O 0.1752 0.4842 0.0066   -0.577395
 O 0.3059 0.5309 0.9208   -0.577573
 O 0.3508 0.2727 0.5068   -0.51972
 O 0.4879 0.1918 0.5935   -0.62955
 O 0.1342 0.2646 0.3816   -0.51247
 O 0.9188 0.1776 0.2938   -0.594604
 O 0.3406 0.9277 0.4508   -0.64324
 O 0.2162 0.5945 0.1972   -0.622249
 O 0.2635 0.7686 0.2528   -0.63428
 O 0.4311 0.9305 0.6046   -0.618911
 O 0.4455 0.7218 0.1145   -0.597544
 O 0.5057 0.5792 0.1488   -0.573903
 O 0.8248 0.5158 0.9934   -0.577395
 O 0.6941 0.4691 0.0792   -0.577573
 O 0.6492 0.7273 0.4932   -0.51972
 O 0.5121 0.8082 0.4065   -0.629551
 O 0.8658 0.7354 0.6184   -0.51247
 O 0.0812 0.8224 0.7062   -0.594604
