{'_ref': 'TBD', '_srcid': 'CAKYAQ_clean', 'submitters': [{'name': 'Dalar Nazarian Jeff Camp and David Sholl', 'email': 'dalar@gatech.edu jcamp6@gatech.edu'}], '_method': 'VASP DFT with PBE;DDEC'}
data_AgH4C16(N2Cl)4
_symmetry_space_group_name_H-M   'P 1'
_cell_length_a   3.72890000
_cell_length_b   22.37700000
_cell_length_c   22.37700000
_cell_angle_alpha   90.00000000
_cell_angle_beta   90.00000000
_cell_angle_gamma   90.00000000
_symmetry_Int_Tables_number   1
_chemical_formula_structural   AgH4C16(N2Cl)4
_chemical_formula_sum   'Ag4 H16 C64 N32 Cl16'
_cell_volume   1867.17257803
_cell_formula_units_Z   4
loop_
 _symmetry_equiv_pos_site_id
 _symmetry_equiv_pos_as_xyz
  1  'x, y, z'
loop_
 _atom_site_label
 _atom_site_fract_x
 _atom_site_fract_y
 _atom_site_fract_z
 _atom_site_charge
 Ag 0.375 0.5 0.25   0.662453
 Ag 0.875 0.0 0.75   0.662453
 Ag 0.625 0.5 0.75   0.662453
 Ag 0.125 0.0 0.25   0.662453
 H 0.0869 0.3445 0.2164   0.147105
 H 0.5869 0.8445 0.7164   0.147105
 H 0.3369 0.5336 0.5945   0.147105
 H 0.8369 0.0336 0.0945   0.147105
 H 0.5869 0.1555 0.7836   0.147105
 H 0.0869 0.6555 0.2836   0.147105
 H 0.8369 0.9664 0.4055   0.147105
 H 0.3369 0.4664 0.9055   0.147105
 H 0.9131 0.6555 0.7836   0.147105
 H 0.4131 0.1555 0.2836   0.147105
 H 0.6631 0.4664 0.4055   0.147105
 H 0.1631 0.9664 0.9055   0.147105
 H 0.4131 0.8445 0.2164   0.147105
 H 0.9131 0.3445 0.7164   0.147105
 H 0.1631 0.0336 0.5945   0.147105
 H 0.6631 0.5336 0.0945   0.147105
 C 0.7465 0.37466 0.30933   0.542503
 C 0.2465 0.87466 0.80933   0.542503
 C 0.9965 0.44067 0.62466   0.542503
 C 0.4965 0.94067 0.12466   0.542503
 C 0.2465 0.12534 0.69067   0.542503
 C 0.7465 0.62534 0.19067   0.542503
 C 0.4965 0.05933 0.37534   0.542503
 C 0.9965 0.55933 0.87534   0.542503
 C 0.2535 0.62534 0.69067   0.542503
 C 0.7535 0.12534 0.19067   0.542503
 C 0.0035 0.55933 0.37534   0.542503
 C 0.5035 0.05933 0.87534   0.542503
 C 0.7535 0.87466 0.30933   0.542503
 C 0.2535 0.37466 0.80933   0.542503
 C 0.5035 0.94067 0.62466   0.542503
 C 0.0035 0.44067 0.12466   0.542503
 C 0.0491 0.28788 0.28823   0.268915
 C 0.5491 0.78788 0.78823   0.268915
 C 0.2991 0.46177 0.53788   0.268915
 C 0.7991 0.96177 0.03788   0.268915
 C 0.5491 0.21212 0.71177   0.268915
 C 0.0491 0.71212 0.21177   0.268915
 C 0.7991 0.03823 0.46212   0.268915
 C 0.2991 0.53823 0.96212   0.268915
 C 0.9509 0.71212 0.71177   0.268915
 C 0.4509 0.21212 0.21177   0.268915
 C 0.7009 0.53823 0.46212   0.268915
 C 0.2009 0.03823 0.96212   0.268915
 C 0.4509 0.78788 0.28823   0.268915
 C 0.9509 0.28788 0.78823   0.268915
 C 0.2009 0.96177 0.53788   0.268915
 C 0.7009 0.46177 0.03788   0.268915
 C 0.1496 0.30655 0.22922   -0.231583
 C 0.6496 0.80655 0.72922   -0.231583
 C 0.3996 0.52078 0.55655   -0.231583
 C 0.8996 0.02078 0.05655   -0.231583
 C 0.6496 0.19345 0.77078   -0.231583
 C 0.1496 0.69345 0.27078   -0.231583
 C 0.8996 0.97922 0.44345   -0.231583
 C 0.3996 0.47922 0.94345   -0.231583
 C 0.8504 0.69345 0.77078   -0.231583
 C 0.3504 0.19345 0.27078   -0.231583
 C 0.6004 0.47922 0.44345   -0.231583
 C 0.1004 0.97922 0.94345   -0.231583
 C 0.3504 0.80655 0.22922   -0.231583
 C 0.8504 0.30655 0.72922   -0.231583
 C 0.1004 0.02078 0.55655   -0.231583
 C 0.6004 0.52078 0.05655   -0.231583
 C 0.162 0.22887 0.30735   0.086994
 C 0.662 0.72887 0.80735   0.086994
 C 0.412 0.44265 0.47887   0.086994
 C 0.912 0.94265 0.97887   0.086994
 C 0.662 0.27113 0.69265   0.086994
 C 0.162 0.77113 0.19265   0.086994
 C 0.912 0.05735 0.52113   0.086994
 C 0.412 0.55735 0.02113   0.086994
 C 0.838 0.77113 0.69265   0.086994
 C 0.338 0.27113 0.19265   0.086994
 C 0.588 0.55735 0.52113   0.086994
 C 0.088 0.05735 0.02113   0.086994
 C 0.338 0.72887 0.30735   0.086994
 C 0.838 0.22887 0.80735   0.086994
 C 0.088 0.94265 0.47887   0.086994
 C 0.588 0.44265 0.97887   0.086994
 N 0.6385 0.42154 0.30011   -0.53687
 N 0.1385 0.92154 0.80011   -0.53687
 N 0.8885 0.44989 0.67154   -0.53687
 N 0.3885 0.94989 0.17154   -0.53687
 N 0.1385 0.07846 0.69989   -0.53687
 N 0.6385 0.57846 0.19989   -0.53687
 N 0.3885 0.05011 0.32846   -0.53687
 N 0.8885 0.55011 0.82846   -0.53687
 N 0.3615 0.57846 0.69989   -0.53687
 N 0.8615 0.07846 0.19989   -0.53687
 N 0.1115 0.55011 0.32846   -0.53687
 N 0.6115 0.05011 0.82846   -0.53687
 N 0.8615 0.92154 0.30011   -0.53687
 N 0.3615 0.42154 0.80011   -0.53687
 N 0.6115 0.94989 0.67154   -0.53687
 N 0.1115 0.44989 0.17154   -0.53687
 N 0.8538 0.32047 0.32566   -0.441641
 N 0.3538 0.82047 0.82566   -0.441641
 N 0.1038 0.42434 0.57047   -0.441641
 N 0.6038 0.92434 0.07047   -0.441641
 N 0.3538 0.17953 0.67434   -0.441641
 N 0.8538 0.67953 0.17434   -0.441641
 N 0.6038 0.07566 0.42953   -0.441641
 N 0.1038 0.57566 0.92953   -0.441641
 N 0.1462 0.67953 0.67434   -0.441641
 N 0.6462 0.17953 0.17434   -0.441641
 N 0.8962 0.57566 0.42953   -0.441641
 N 0.3962 0.07566 0.92953   -0.441641
 N 0.6462 0.82047 0.32566   -0.441641
 N 0.1462 0.32047 0.82566   -0.441641
 N 0.3962 0.92434 0.57047   -0.441641
 N 0.8962 0.42434 0.07047   -0.441641
 Cl 0.0498 0.20551 0.37804   -0.001036
 Cl 0.5498 0.70551 0.87804   -0.001036
 Cl 0.2998 0.37196 0.45551   -0.001038
 Cl 0.7998 0.87196 0.95551   -0.001038
 Cl 0.5498 0.29449 0.62196   -0.001038
 Cl 0.0498 0.79449 0.12196   -0.001038
 Cl 0.7998 0.12804 0.54449   -0.00104
 Cl 0.2998 0.62804 0.04449   -0.00104
 Cl 0.9502 0.79449 0.62196   -0.001036
 Cl 0.4502 0.29449 0.12196   -0.001036
 Cl 0.7002 0.62804 0.54449   -0.001038
 Cl 0.2002 0.12804 0.04449   -0.001038
 Cl 0.4502 0.70551 0.37804   -0.001038
 Cl 0.9502 0.20551 0.87804   -0.001038
 Cl 0.2002 0.87196 0.45551   -0.00104
 Cl 0.7002 0.37196 0.95551   -0.00104
