{'_ref': 'TBD', '_srcid': 'CAKYAQ_clean', 'submitters': [{'name': 'Dalar Nazarian Jeff Camp and David Sholl', 'email': 'dalar@gatech.edu jcamp6@gatech.edu'}], '_method': 'VASP DFT with PBE;DDEC'}
data_LaH18C24(NO3)2
_symmetry_space_group_name_H-M   'P 1'
_cell_length_a   10.13900000
_cell_length_b   17.80400000
_cell_length_c   20.01000000
_cell_angle_alpha   90.00000000
_cell_angle_beta   90.00000000
_cell_angle_gamma   90.00000000
_symmetry_Int_Tables_number   1
_chemical_formula_structural   LaH18C24(NO3)2
_chemical_formula_sum   'La4 H72 C96 N8 O24'
_cell_volume   3612.10026756
_cell_formula_units_Z   4
loop_
 _symmetry_equiv_pos_site_id
 _symmetry_equiv_pos_as_xyz
  1  'x, y, z'
loop_
 _atom_site_label
 _atom_site_fract_x
 _atom_site_fract_y
 _atom_site_fract_z
 _atom_site_charge
 La 0.96939 0.75 0.75   2.199746
 La 0.53061 0.25 0.25   2.199746
 La 0.03061 0.25 0.25   2.199748
 La 0.46939 0.75 0.75   2.199748
 H 0.0498 0.9402 0.6834   0.124986
 H 0.3744 0.8651 0.5371   0.101754
 H 0.8061 0.9407 0.492   0.111297
 H 0.1265 0.0049 0.5907   0.115428
 H 0.0286 0.7539 0.5586   0.088304
 H 0.3188 0.8856 0.4254   0.09521
 H 0.7383 0.8733 0.5823   0.128276
 H 0.1247 0.8392 0.3827   0.088411
 H 0.9833 0.7742 0.447   0.089539
 H 0.0498 0.5598 0.8166   0.124986
 H 0.3744 0.6349 0.9629   0.101754
 H 0.8061 0.5593 0.008   0.111297
 H 0.1265 0.4951 0.9093   0.115428
 H 0.0286 0.7461 0.9414   0.088304
 H 0.3188 0.6144 0.0746   0.09521
 H 0.7383 0.6267 0.9177   0.128276
 H 0.1247 0.6608 0.1173   0.088414
 H 0.9833 0.7258 0.053   0.089539
 H 0.4502 0.0598 0.1834   0.124989
 H 0.1256 0.1349 0.0371   0.101754
 H 0.6939 0.0593 0.992   0.111297
 H 0.3735 0.9951 0.0907   0.115429
 H 0.4714 0.2461 0.0586   0.088304
 H 0.1812 0.1144 0.9254   0.095212
 H 0.7617 0.1267 0.0823   0.128276
 H 0.3753 0.1608 0.8827   0.088412
 H 0.5167 0.2258 0.947   0.089539
 H 0.4502 0.4402 0.3166   0.124989
 H 0.1256 0.3651 0.4629   0.101754
 H 0.6939 0.4407 0.508   0.111297
 H 0.3735 0.5049 0.4093   0.115429
 H 0.4714 0.2539 0.4414   0.088304
 H 0.1812 0.3856 0.5746   0.095212
 H 0.7617 0.3733 0.4177   0.128276
 H 0.3753 0.3392 0.6173   0.088415
 H 0.5167 0.2742 0.553   0.089539
 H 0.9502 0.0598 0.3166   0.124987
 H 0.6256 0.1349 0.4629   0.101753
 H 0.1939 0.0593 0.508   0.111297
 H 0.8735 0.9951 0.4093   0.115429
 H 0.9714 0.2461 0.4414   0.088304
 H 0.6812 0.1144 0.5746   0.095213
 H 0.2617 0.1267 0.4177   0.128276
 H 0.8753 0.1608 0.6173   0.088413
 H 0.0167 0.2258 0.553   0.089539
 H 0.9502 0.4402 0.1834   0.124987
 H 0.6256 0.3651 0.0371   0.101753
 H 0.1939 0.4407 0.992   0.111297
 H 0.8735 0.5049 0.0907   0.115429
 H 0.9714 0.2539 0.0586   0.088304
 H 0.6812 0.3856 0.9254   0.095213
 H 0.2617 0.3733 0.0823   0.128276
 H 0.8753 0.3392 0.8827   0.088416
 H 0.0167 0.2742 0.947   0.089539
 H 0.5498 0.9402 0.8166   0.124989
 H 0.8744 0.8651 0.9629   0.101753
 H 0.3061 0.9407 0.008   0.111297
 H 0.6265 0.0049 0.9093   0.115429
 H 0.5286 0.7539 0.9414   0.088304
 H 0.8188 0.8856 0.0746   0.095215
 H 0.2383 0.8733 0.9177   0.128276
 H 0.6247 0.8392 0.1173   0.088414
 H 0.4833 0.7742 0.053   0.089539
 H 0.5498 0.5598 0.6834   0.124989
 H 0.8744 0.6349 0.5371   0.101753
 H 0.3061 0.5593 0.492   0.111297
 H 0.6265 0.4951 0.5907   0.115429
 H 0.5286 0.7461 0.5586   0.088304
 H 0.8188 0.6144 0.4254   0.095214
 H 0.2383 0.6267 0.5823   0.128276
 H 0.6247 0.6608 0.3827   0.088417
 H 0.4833 0.7258 0.447   0.089539
 C 0.2075 0.8077 0.5594   -0.186217
 C 0.0019 0.9393 0.6438   -0.088727
 C 0.2954 0.8471 0.5197   -0.03204
 C 0.9759 0.9789 0.5293   0.009831
 C 0.8587 0.9399 0.5301   -0.150977
 C 0.0474 0.9786 0.5882   -0.155019
 C 0.088 0.7802 0.532   -0.031495
 C 0.262 0.8588 0.453   -0.110739
 C 0.8167 0.9003 0.5841   -0.079154
 C 0.1451 0.831 0.4274   -0.057688
 C 0.061 0.7926 0.4655   -0.10138
 C 0.2356 0.7972 0.6328   0.797078
 C 0.2075 0.6923 0.9406   -0.186217
 C 0.0019 0.5607 0.8562   -0.088727
 C 0.2954 0.6529 0.9803   -0.03204
 C 0.9759 0.5211 0.9707   0.009832
 C 0.8587 0.5601 0.9699   -0.150977
 C 0.0474 0.5214 0.9118   -0.155019
 C 0.088 0.7198 0.968   -0.031495
 C 0.262 0.6412 0.047   -0.110739
 C 0.8167 0.5997 0.9159   -0.079154
 C 0.1451 0.669 0.0726   -0.05769
 C 0.061 0.7074 0.0345   -0.101379
 C 0.2356 0.7028 0.8672   0.797078
 C 0.2925 0.1923 0.0594   -0.186217
 C 0.4981 0.0607 0.1438   -0.088728
 C 0.2046 0.1529 0.0197   -0.032039
 C 0.5241 0.0211 0.0293   0.009832
 C 0.6413 0.0601 0.0301   -0.150977
 C 0.4526 0.0214 0.0882   -0.155019
 C 0.412 0.2198 0.032   -0.031495
 C 0.238 0.1412 0.953   -0.11074
 C 0.6833 0.0997 0.0841   -0.079154
 C 0.3549 0.169 0.9274   -0.057689
 C 0.439 0.2074 0.9655   -0.10138
 C 0.2644 0.2028 0.1328   0.797078
 C 0.2925 0.3077 0.4406   -0.186217
 C 0.4981 0.4393 0.3562   -0.088728
 C 0.2046 0.3471 0.4803   -0.03204
 C 0.5241 0.4789 0.4707   0.009832
 C 0.6413 0.4399 0.4699   -0.150977
 C 0.4526 0.4786 0.4118   -0.155019
 C 0.412 0.2802 0.468   -0.031495
 C 0.238 0.3588 0.547   -0.110739
 C 0.6833 0.4003 0.4159   -0.079154
 C 0.3549 0.331 0.5726   -0.05769
 C 0.439 0.2926 0.5345   -0.101379
 C 0.2644 0.2972 0.3672   0.797078
 C 0.7925 0.1923 0.4406   -0.186217
 C 0.9981 0.0607 0.3562   -0.088727
 C 0.7046 0.1529 0.4803   -0.032039
 C 0.0241 0.0211 0.4707   0.009831
 C 0.1413 0.0601 0.4699   -0.150977
 C 0.9526 0.0214 0.4118   -0.155019
 C 0.912 0.2198 0.468   -0.031495
 C 0.738 0.1412 0.547   -0.110739
 C 0.1833 0.0997 0.4159   -0.079154
 C 0.8549 0.169 0.5726   -0.057689
 C 0.939 0.2074 0.5345   -0.10138
 C 0.7644 0.2028 0.3672   0.797078
 C 0.7925 0.3077 0.0594   -0.186217
 C 0.9981 0.4393 0.1438   -0.088727
 C 0.7046 0.3471 0.0197   -0.03204
 C 0.0241 0.4789 0.0293   0.009831
 C 0.1413 0.4399 0.0301   -0.150977
 C 0.9526 0.4786 0.0882   -0.155019
 C 0.912 0.2802 0.032   -0.031495
 C 0.738 0.3588 0.953   -0.110739
 C 0.1833 0.4003 0.0841   -0.079154
 C 0.8549 0.331 0.9274   -0.05769
 C 0.939 0.2926 0.9655   -0.101379
 C 0.7644 0.2972 0.1328   0.797078
 C 0.7075 0.8077 0.9406   -0.186217
 C 0.5019 0.9393 0.8562   -0.088728
 C 0.7954 0.8471 0.9803   -0.032039
 C 0.4759 0.9789 0.9707   0.009831
 C 0.3587 0.9399 0.9699   -0.150977
 C 0.5474 0.9786 0.9118   -0.155019
 C 0.588 0.7802 0.968   -0.031495
 C 0.762 0.8588 0.047   -0.11074
 C 0.3167 0.9003 0.9159   -0.079154
 C 0.6451 0.831 0.0726   -0.057689
 C 0.561 0.7926 0.0345   -0.10138
 C 0.7356 0.7972 0.8672   0.797078
 C 0.7075 0.6923 0.5594   -0.186217
 C 0.5019 0.5607 0.6438   -0.088728
 C 0.7954 0.6529 0.5197   -0.032039
 C 0.4759 0.5211 0.5293   0.009831
 C 0.3587 0.5601 0.5301   -0.150977
 C 0.5474 0.5214 0.5882   -0.155019
 C 0.588 0.7198 0.532   -0.031495
 C 0.762 0.6412 0.453   -0.110739
 C 0.3167 0.5997 0.5841   -0.079154
 C 0.6451 0.669 0.4274   -0.05769
 C 0.561 0.7074 0.4655   -0.101379
 C 0.7356 0.7028 0.6328   0.797078
 N 0.8902 0.9006 0.6403   0.374725
 N 0.8902 0.5994 0.8597   0.374725
 N 0.6098 0.0994 0.1403   0.374725
 N 0.6098 0.4006 0.3597   0.374725
 N 0.1098 0.0994 0.3597   0.374725
 N 0.1098 0.4006 0.1403   0.374725
 N 0.3902 0.9006 0.8597   0.374725
 N 0.3902 0.5994 0.6403   0.374725
 O 0.8517 0.8597 0.6931   -0.720074
 O 0.1373 0.7816 0.6698   -0.805585
 O 0.3516 0.8044 0.6519   -0.705622
 O 0.8517 0.6403 0.8069   -0.720074
 O 0.1373 0.7184 0.8302   -0.805585
 O 0.3516 0.6956 0.8481   -0.705622
 O 0.6483 0.1403 0.1931   -0.720074
 O 0.3627 0.2184 0.1698   -0.805585
 O 0.1484 0.1956 0.1519   -0.705622
 O 0.6483 0.3597 0.3069   -0.720074
 O 0.3627 0.2816 0.3302   -0.805585
 O 0.1484 0.3044 0.3481   -0.705622
 O 0.1483 0.1403 0.3069   -0.720074
 O 0.8627 0.2184 0.3302   -0.805585
 O 0.6484 0.1956 0.3481   -0.705622
 O 0.1483 0.3597 0.1931   -0.720074
 O 0.8627 0.2816 0.1698   -0.805585
 O 0.6484 0.3044 0.1519   -0.705622
 O 0.3517 0.8597 0.8069   -0.720074
 O 0.6373 0.7816 0.8302   -0.805585
 O 0.8516 0.8044 0.8481   -0.705622
 O 0.3517 0.6403 0.6931   -0.720074
 O 0.6373 0.7184 0.6698   -0.805585
 O 0.8516 0.6956 0.6519   -0.705622
