{'_ref': 'TBD', '_srcid': 'CAKYAQ_clean', 'submitters': [{'name': 'Dalar Nazarian Jeff Camp and David Sholl', 'email': 'dalar@gatech.edu jcamp6@gatech.edu'}], '_method': 'VASP DFT with PBE;DDEC'}
data_ZnH6C12S2(NO2)2
_symmetry_space_group_name_H-M   'P 1'
_cell_length_a   11.17399975
_cell_length_b   12.83649988
_cell_length_c   12.83650000
_cell_angle_alpha   62.14799993
_cell_angle_beta   83.88029916
_cell_angle_gamma   83.88030054
_symmetry_Int_Tables_number   1
_chemical_formula_structural   ZnH6C12S2(NO2)2
_chemical_formula_sum   'Zn4 H24 C48 S8 N8 O16'
_cell_volume   1615.25497119
_cell_formula_units_Z   4
loop_
 _symmetry_equiv_pos_site_id
 _symmetry_equiv_pos_as_xyz
  1  'x, y, z'
loop_
 _atom_site_label
 _atom_site_fract_x
 _atom_site_fract_y
 _atom_site_fract_z
 _atom_site_charge
 Zn 0.86561 0.49841 0.02679   0.947522
 Zn 0.63439 0.97321 0.50159   0.947522
 Zn 0.13439 0.50159 0.97321   0.947522
 Zn 0.36561 0.02679 0.49841   0.947522
 H 0.7651 0.7967 0.6905   0.075141
 H 0.1109 0.7462 0.6022   0.114917
 H 0.0811 0.8892 0.411   0.125271
 H 0.1807 0.8036 0.0384   0.0598
 H 0.8467 0.7408 0.1726   0.092159
 H 0.8503 0.8798 0.2362   0.096862
 H 0.7349 0.3095 0.2033   0.075141
 H 0.3891 0.3978 0.2538   0.114917
 H 0.4189 0.589 0.1108   0.125271
 H 0.3193 0.9616 0.1964   0.059801
 H 0.6533 0.8274 0.2592   0.092159
 H 0.6497 0.7638 0.1202   0.096861
 H 0.2349 0.2033 0.3095   0.075141
 H 0.8891 0.2538 0.3978   0.114917
 H 0.9189 0.1108 0.589   0.125271
 H 0.8193 0.1964 0.9616   0.059801
 H 0.1533 0.2592 0.8274   0.09216
 H 0.1497 0.1202 0.7638   0.096862
 H 0.2651 0.6905 0.7967   0.075141
 H 0.6109 0.6022 0.7462   0.114918
 H 0.5811 0.411 0.8892   0.125271
 H 0.6807 0.0384 0.8036   0.059801
 H 0.3467 0.1726 0.7408   0.09216
 H 0.3503 0.2362 0.8798   0.096861
 C 0.9548 0.6606 0.79   0.705009
 C 0.94 0.7549 0.6667   -0.247581
 C 0.8297 0.8159 0.6341   0.21531
 C 0.0351 0.7845 0.5823   0.068347
 C 0.018 0.87 0.4688   -0.193202
 C 0.9047 0.9273 0.4425   0.21309
 C 0.012 0.9275 0.1647   0.265237
 C 0.1118 0.8181 0.0783   0.220141
 C 0.0136 0.7521 0.1015   -0.253921
 C 0.9164 0.7806 0.1576   0.073884
 C 0.0142 0.6599 0.0637   0.710545
 C 0.9165 0.8658 0.193   -0.209254
 C 0.5452 0.21 0.3394   0.705009
 C 0.56 0.3333 0.2451   -0.247581
 C 0.6703 0.3659 0.1841   0.21531
 C 0.4649 0.4177 0.2155   0.068347
 C 0.482 0.5312 0.13   -0.193202
 C 0.5953 0.5575 0.0727   0.21309
 C 0.488 0.8353 0.0725   0.265236
 C 0.3882 0.9217 0.1819   0.220141
 C 0.4864 0.8985 0.2479   -0.253922
 C 0.5836 0.8424 0.2194   0.073887
 C 0.4858 0.9363 0.3401   0.710545
 C 0.5835 0.807 0.1342   -0.209253
 C 0.0452 0.3394 0.21   0.705009
 C 0.06 0.2451 0.3333   -0.24758
 C 0.1703 0.1841 0.3659   0.21531
 C 0.9649 0.2155 0.4177   0.068348
 C 0.982 0.13 0.5312   -0.193203
 C 0.0953 0.0727 0.5575   0.213089
 C 0.988 0.0725 0.8353   0.265237
 C 0.8882 0.1819 0.9217   0.220142
 C 0.9864 0.2479 0.8985   -0.25392
 C 0.0836 0.2194 0.8424   0.073885
 C 0.9858 0.3401 0.9363   0.710545
 C 0.0835 0.1342 0.807   -0.209254
 C 0.4548 0.79 0.6606   0.705009
 C 0.44 0.6667 0.7549   -0.24758
 C 0.3297 0.6341 0.8159   0.21531
 C 0.5351 0.5823 0.7845   0.068348
 C 0.518 0.4688 0.87   -0.193203
 C 0.4047 0.4425 0.9273   0.213089
 C 0.512 0.1647 0.9275   0.265236
 C 0.6118 0.0783 0.8181   0.220142
 C 0.5136 0.1015 0.7521   -0.253921
 C 0.4164 0.1576 0.7806   0.073888
 C 0.5142 0.0637 0.6599   0.710545
 C 0.4165 0.193 0.8658   -0.209253
 S 0.02025 0.04631 0.19843   -0.002277
 S 0.86831 0.04051 0.30013   0.057171
 S 0.47975 0.80157 0.95369   -0.002277
 S 0.63169 0.69987 0.95949   0.057171
 S 0.97975 0.95369 0.80157   -0.002275
 S 0.13169 0.95949 0.69987   0.057172
 S 0.52025 0.19843 0.04631   -0.002275
 S 0.36831 0.30013 0.04051   0.057172
 N 0.1103 0.9049 0.1125   -0.391724
 N 0.8117 0.9023 0.5239   -0.33877
 N 0.3897 0.8875 0.0951   -0.391721
 N 0.6883 0.4761 0.0977   -0.33877
 N 0.8897 0.0951 0.8875   -0.391724
 N 0.1883 0.0977 0.4761   -0.33877
 N 0.6103 0.1125 0.9049   -0.391721
 N 0.3117 0.5239 0.9023   -0.33877
 O 0.1134 0.6274 0.027   -0.596382
 O 0.9142 0.6201 0.0703   -0.613491
 O 0.0609 0.6256 0.8186   -0.595558
 O 0.8617 0.6222 0.8562   -0.598252
 O 0.3866 0.973 0.3726   -0.596382
 O 0.5858 0.9297 0.3799   -0.613491
 O 0.4391 0.1814 0.3744   -0.595558
 O 0.6383 0.1438 0.3778   -0.598252
 O 0.8866 0.3726 0.973   -0.596382
 O 0.0858 0.3799 0.9297   -0.613491
 O 0.9391 0.3744 0.1814   -0.595558
 O 0.1383 0.3778 0.1438   -0.598252
 O 0.6134 0.027 0.6274   -0.596382
 O 0.4142 0.0703 0.6201   -0.613491
 O 0.5609 0.8186 0.6256   -0.595558
 O 0.3617 0.8562 0.6222   -0.598252
