{'_ref': 'TBD', '_srcid': 'CAKYAQ_clean', 'submitters': [{'name': 'Dalar Nazarian Jeff Camp and David Sholl', 'email': 'dalar@gatech.edu jcamp6@gatech.edu'}], '_method': 'VASP DFT with PBE;DDEC'}
data_U2CoP2H4(CO3)4
_symmetry_space_group_name_H-M   'P 1'
_cell_length_a   9.35680000
_cell_length_b   9.50260000
_cell_length_c   12.12820000
_cell_angle_alpha   90.00000000
_cell_angle_beta   103.91200003
_cell_angle_gamma   90.00000000
_symmetry_Int_Tables_number   1
_chemical_formula_structural   U2CoP2H4(CO3)4
_chemical_formula_sum   'U4 Co2 P4 H8 C8 O24'
_cell_volume   1046.73327048
_cell_formula_units_Z   2
loop_
 _symmetry_equiv_pos_site_id
 _symmetry_equiv_pos_as_xyz
  1  'x, y, z'
loop_
 _atom_site_label
 _atom_site_fract_x
 _atom_site_fract_y
 _atom_site_fract_z
 _atom_site_charge
 U 0.78256 0.67786 0.38023   2.463238
 U 0.71744 0.17786 0.11977   2.463274
 U 0.21744 0.32214 0.61977   2.463326
 U 0.28256 0.82214 0.88023   2.463362
 Co 0.5 0.5 0.5   0.582238
 Co 0.0 0.0 0.0   0.582238
 P 0.59105 0.81747 0.11585   1.604313
 P 0.90895 0.31747 0.38415   1.604313
 P 0.40895 0.18253 0.88415   1.604316
 P 0.09105 0.68253 0.61585   1.604315
 H 0.7909 0.6926 0.0844   0.216023
 H 0.6475 0.66 0.9861   0.216745
 H 0.7091 0.1926 0.4156   0.216023
 H 0.8525 0.16 0.5139   0.216745
 H 0.2091 0.3074 0.9156   0.216023
 H 0.3525 0.34 0.0139   0.216745
 H 0.2909 0.8074 0.5844   0.216023
 H 0.1475 0.84 0.4861   0.216746
 C 0.6846 0.67 0.0693   -0.823371
 C 0.668 0.5301 0.124   0.872685
 C 0.8154 0.17 0.4307   -0.823372
 C 0.832 0.0301 0.376   0.872684
 C 0.3154 0.33 0.9307   -0.823372
 C 0.332 0.4699 0.876   0.872686
 C 0.1846 0.83 0.5693   -0.823373
 C 0.168 0.9699 0.624   0.872686
 O 0.6235 0.816 0.2443   -0.885756
 O 0.4253 0.8046 0.0653   -0.842192
 O 0.6541 0.9473 0.0696   -0.946544
 O 0.6533 0.5282 0.2257   -0.737251
 O 0.6736 0.4209 0.0663   -0.662866
 O 0.6293 0.6584 0.4456   -0.7662
 O 0.8765 0.316 0.2557   -0.885757
 O 0.0747 0.3046 0.4347   -0.842191
 O 0.8459 0.4473 0.4304   -0.946541
 O 0.8467 0.0282 0.2743   -0.73725
 O 0.8264 0.9209 0.4337   -0.662864
 O 0.8707 0.1584 0.0544   -0.766202
 O 0.3765 0.184 0.7557   -0.88576
 O 0.5747 0.1954 0.9347   -0.842186
 O 0.3459 0.0527 0.9304   -0.946552
 O 0.3467 0.4718 0.7743   -0.737254
 O 0.3264 0.5791 0.9337   -0.662867
 O 0.3707 0.3416 0.5544   -0.766205
 O 0.1235 0.684 0.7443   -0.885761
 O 0.9253 0.6954 0.5653   -0.842185
 O 0.1541 0.5527 0.5696   -0.94655
 O 0.1533 0.9718 0.7257   -0.737254
 O 0.1736 0.0791 0.5663   -0.662865
 O 0.1293 0.8416 0.9456   -0.766206
