{'_ref': 'TBD', '_srcid': 'CAKYAQ_clean', 'submitters': [{'name': 'Dalar Nazarian Jeff Camp and David Sholl', 'email': 'dalar@gatech.edu jcamp6@gatech.edu'}], '_method': 'VASP DFT with PBE;DDEC'}
data_Ni2H21C25N3O8
_symmetry_space_group_name_H-M   'P 1'
_cell_length_a   17.65740000
_cell_length_b   17.65740000
_cell_length_c   18.65180000
_cell_angle_alpha   90.00000000
_cell_angle_beta   90.00000000
_cell_angle_gamma   90.00000000
_symmetry_Int_Tables_number   1
_chemical_formula_structural   Ni2H21C25N3O8
_chemical_formula_sum   'Ni16 H168 C200 N24 O64'
_cell_volume   5815.32861007
_cell_formula_units_Z   8
loop_
 _symmetry_equiv_pos_site_id
 _symmetry_equiv_pos_as_xyz
  1  'x, y, z'
loop_
 _atom_site_label
 _atom_site_fract_x
 _atom_site_fract_y
 _atom_site_fract_z
 _atom_site_charge
 Ni 0.61779 0.41994 0.9263   0.898233
 Ni 0.72392 0.53293 0.81345   0.83345
 Ni 0.38221 0.58006 0.4263   0.898233
 Ni 0.27608 0.46707 0.31345   0.83345
 Ni 0.08006 0.11779 0.6763   0.898233
 Ni 0.96707 0.22392 0.56345   0.83345
 Ni 0.91994 0.88221 0.1763   0.898233
 Ni 0.03293 0.77608 0.06345   0.83345
 Ni 0.88221 0.91994 0.8237   0.898235
 Ni 0.77608 0.03293 0.93655   0.83345
 Ni 0.11779 0.08006 0.3237   0.898235
 Ni 0.22392 0.96707 0.43655   0.83345
 Ni 0.41994 0.61779 0.0737   0.898235
 Ni 0.53293 0.72392 0.18655   0.83345
 Ni 0.58006 0.38221 0.5737   0.898235
 Ni 0.46707 0.27608 0.68655   0.83345
 H 0.6683 0.0781 0.2631   0.103914
 H 0.5839 0.0882 0.2871   0.087819
 H 0.6848 0.9691 0.1613   0.139668
 H 0.6566 0.8445 0.1413   0.08695
 H 0.5075 0.9799 0.2944   0.134156
 H 0.4845 0.8545 0.2713   0.078359
 H 0.6578 0.6991 0.6968   0.114121
 H 0.7386 0.6852 0.7298   0.110509
 H 0.7246 0.7677 0.8052   0.093609
 H 0.5743 0.6349 0.9045   0.111345
 H 0.5407 0.644 0.7805   0.117119
 H 0.5762 0.5918 0.7215   0.148766
 H 0.6448 0.8269 0.9995   0.100265
 H 0.7182 0.373 0.0492   0.087577
 H 0.7189 0.2982 0.1498   0.125245
 H 0.5079 0.2398 0.1078   0.123548
 H 0.5104 0.3155 0.0094   0.081303
 H 0.6613 0.2141 0.2296   0.096285
 H 0.5735 0.2234 0.2376   0.09534
 H 0.6373 0.1129 0.1467   0.07543
 H 0.5515 0.1185 0.1676   0.059578
 H 0.3317 0.9219 0.7631   0.103914
 H 0.4161 0.9118 0.7871   0.087819
 H 0.3152 0.0309 0.6613   0.139668
 H 0.3434 0.1555 0.6413   0.08695
 H 0.4925 0.0201 0.7944   0.134156
 H 0.5155 0.1455 0.7713   0.078359
 H 0.3422 0.3009 0.1968   0.114121
 H 0.2614 0.3148 0.2298   0.110509
 H 0.2754 0.2323 0.3052   0.093609
 H 0.4257 0.3651 0.4045   0.111345
 H 0.4593 0.356 0.2805   0.11712
 H 0.4238 0.4082 0.2215   0.148766
 H 0.3552 0.1731 0.4995   0.100265
 H 0.2818 0.627 0.5492   0.087577
 H 0.2811 0.7018 0.6498   0.125245
 H 0.4921 0.7602 0.6078   0.123549
 H 0.4896 0.6845 0.5094   0.081303
 H 0.3387 0.7859 0.7296   0.096285
 H 0.4265 0.7766 0.7376   0.095341
 H 0.3627 0.8871 0.6467   0.07543
 H 0.4485 0.8815 0.6676   0.059578
 H 0.4219 0.1683 0.0131   0.103914
 H 0.4118 0.0839 0.0371   0.087817
 H 0.5309 0.1848 0.9113   0.139669
 H 0.6555 0.1566 0.8913   0.08695
 H 0.5201 0.0075 0.0444   0.134155
 H 0.6455 0.9845 0.0213   0.07836
 H 0.8009 0.1578 0.4468   0.114121
 H 0.8148 0.2386 0.4798   0.110509
 H 0.7323 0.2246 0.5552   0.093609
 H 0.8651 0.0743 0.6545   0.111345
 H 0.856 0.0407 0.5305   0.117119
 H 0.9082 0.0762 0.4715   0.148766
 H 0.6731 0.1448 0.7495   0.100265
 H 0.127 0.2182 0.7992   0.087577
 H 0.2018 0.2189 0.8998   0.125245
 H 0.2602 0.0079 0.8578   0.123548
 H 0.1845 0.0104 0.7594   0.081303
 H 0.2859 0.1613 0.9796   0.096285
 H 0.2766 0.0735 0.9876   0.09534
 H 0.3871 0.1373 0.8967   0.075429
 H 0.3815 0.0515 0.9176   0.059576
 H 0.5781 0.8317 0.5131   0.103914
 H 0.5882 0.9161 0.5371   0.087817
 H 0.4691 0.8152 0.4113   0.139669
 H 0.3445 0.8434 0.3913   0.08695
 H 0.4799 0.9925 0.5444   0.134155
 H 0.3545 0.0155 0.5213   0.07836
 H 0.1991 0.8422 0.9468   0.114121
 H 0.1852 0.7614 0.9798   0.110509
 H 0.2677 0.7754 0.0552   0.093609
 H 0.1349 0.9257 0.1545   0.111345
 H 0.144 0.9593 0.0305   0.11712
 H 0.0918 0.9238 0.9715   0.148766
 H 0.3269 0.8552 0.2495   0.100265
 H 0.873 0.7818 0.2992   0.087577
 H 0.7982 0.7811 0.3998   0.125245
 H 0.7398 0.9921 0.3578   0.123548
 H 0.8155 0.9896 0.2594   0.081303
 H 0.7141 0.8387 0.4796   0.096285
 H 0.7234 0.9265 0.4876   0.095341
 H 0.6129 0.8627 0.3967   0.075429
 H 0.6185 0.9485 0.4176   0.059575
 H 0.8317 0.5781 0.4869   0.103914
 H 0.9161 0.5882 0.4629   0.087817
 H 0.8152 0.4691 0.5887   0.139668
 H 0.8434 0.3445 0.6087   0.08695
 H 0.9925 0.4799 0.4556   0.134155
 H 0.0155 0.3545 0.4787   0.078359
 H 0.8422 0.1991 0.0532   0.11412
 H 0.7614 0.1852 0.0202   0.110509
 H 0.7754 0.2677 0.9448   0.093609
 H 0.9257 0.1349 0.8455   0.111345
 H 0.9593 0.144 0.9695   0.117119
 H 0.9238 0.0918 0.0285   0.148766
 H 0.8552 0.3269 0.7505   0.100265
 H 0.7818 0.873 0.7008   0.087573
 H 0.7811 0.7982 0.6002   0.125245
 H 0.9921 0.7398 0.6422   0.123548
 H 0.9896 0.8155 0.7406   0.081303
 H 0.8387 0.7141 0.5204   0.096285
 H 0.9265 0.7234 0.5124   0.09534
 H 0.8627 0.6129 0.6033   0.075429
 H 0.9485 0.6185 0.5824   0.059578
 H 0.1683 0.4219 0.9869   0.103914
 H 0.0839 0.4118 0.9629   0.087817
 H 0.1848 0.5309 0.0887   0.139668
 H 0.1566 0.6555 0.1087   0.08695
 H 0.0075 0.5201 0.9556   0.134155
 H 0.9845 0.6455 0.9787   0.078359
 H 0.1578 0.8009 0.5532   0.11412
 H 0.2386 0.8148 0.5202   0.110509
 H 0.2246 0.7323 0.4448   0.093609
 H 0.0743 0.8651 0.3455   0.111345
 H 0.0407 0.856 0.4695   0.11712
 H 0.0762 0.9082 0.5285   0.148766
 H 0.1448 0.6731 0.2505   0.100265
 H 0.2182 0.127 0.2008   0.087573
 H 0.2189 0.2018 0.1002   0.125245
 H 0.0079 0.2602 0.1422   0.123549
 H 0.0104 0.1845 0.2406   0.081303
 H 0.1613 0.2859 0.0204   0.096285
 H 0.0735 0.2766 0.0124   0.095341
 H 0.1373 0.3871 0.1033   0.075429
 H 0.0515 0.3815 0.0824   0.059577
 H 0.0781 0.6683 0.7369   0.103914
 H 0.0882 0.5839 0.7129   0.087814
 H 0.9691 0.6848 0.8387   0.139669
 H 0.8445 0.6566 0.8587   0.086951
 H 0.9799 0.5075 0.7056   0.134155
 H 0.8545 0.4845 0.7287   0.07836
 H 0.6991 0.6578 0.3032   0.11412
 H 0.6852 0.7386 0.2702   0.110509
 H 0.7677 0.7246 0.1948   0.093609
 H 0.6349 0.5743 0.0955   0.111345
 H 0.644 0.5407 0.2195   0.117119
 H 0.5918 0.5762 0.2785   0.148766
 H 0.8269 0.6448 0.000500000000002   0.100265
 H 0.373 0.7182 0.9508   0.087573
 H 0.2982 0.7189 0.8502   0.125245
 H 0.2398 0.5079 0.8922   0.123548
 H 0.3155 0.5104 0.9906   0.081303
 H 0.2141 0.6613 0.7704   0.096285
 H 0.2234 0.5735 0.7624   0.09534
 H 0.1129 0.6373 0.8533   0.075429
 H 0.1185 0.5515 0.8324   0.059575
 H 0.9219 0.3317 0.2369   0.103914
 H 0.9118 0.4161 0.2129   0.087814
 H 0.0309 0.3152 0.3387   0.139669
 H 0.1555 0.3434 0.3587   0.086951
 H 0.0201 0.4925 0.2056   0.134155
 H 0.1455 0.5155 0.2287   0.07836
 H 0.3009 0.3422 0.8032   0.11412
 H 0.3148 0.2614 0.7702   0.110509
 H 0.2323 0.2754 0.6948   0.093609
 H 0.3651 0.4257 0.5955   0.111345
 H 0.356 0.4593 0.7195   0.11712
 H 0.4082 0.4238 0.7785   0.148766
 H 0.1731 0.3552 0.5005   0.100265
 H 0.627 0.2818 0.4508   0.087573
 H 0.7018 0.2811 0.3502   0.125245
 H 0.7602 0.4921 0.3922   0.123548
 H 0.6845 0.4896 0.4906   0.081303
 H 0.7859 0.3387 0.2704   0.096285
 H 0.7766 0.4265 0.2624   0.095341
 H 0.8871 0.3627 0.3533   0.075429
 H 0.8815 0.4485 0.3324   0.059575
 C 0.6161 0.0729 0.2476   -0.182656
 C 0.6009 0.99 0.231   0.150545
 C 0.6439 0.9472 0.1849   -0.233464
 C 0.6269 0.8719 0.1733   0.17331
 C 0.5392 0.9533 0.2635   -0.252407
 C 0.5257 0.8778 0.2495   0.181863
 C 0.7002 0.5938 0.6719   0.650973
 C 0.6899 0.6619 0.7201   -0.243067
 C 0.6938 0.7572 0.8444   -0.132405
 C 0.6515 0.69107 0.84492   0.125961
 C 0.6049 0.6778 0.904   -0.121796
 C 0.5785 0.6052 0.7718   -0.232423
 C 0.5598 0.5357 0.8168   0.696314
 C 0.6911 0.8083 0.9015   -0.114357
 C 0.6461 0.7934 0.9611   -0.0391
 C 0.6028 0.7269 0.96218   -0.11345
 C 0.5528 0.7062 0.0258   0.671891
 C 0.7374 0.8788 0.8952   0.666937
 C 0.6747 0.3461 0.0611   0.200699
 C 0.6754 0.3009 0.1218   -0.231208
 C 0.6123 0.2597 0.1413   0.18372
 C 0.5518 0.2667 0.0975   -0.221428
 C 0.5536 0.3125 0.0378   0.19567
 C 0.6134 0.2084 0.2048   -0.187518
 C 0.6026 0.1257 0.1852   -0.077546
 C 0.3839 0.9271 0.7476   -0.182656
 C 0.3991 0.01 0.731   0.150545
 C 0.3561 0.0528 0.6849   -0.233464
 C 0.3731 0.1281 0.6733   0.17331
 C 0.4608 0.0467 0.7635   -0.252407
 C 0.4743 0.1222 0.7495   0.181863
 C 0.2998 0.4062 0.1719   0.650973
 C 0.3101 0.3381 0.2201   -0.243067
 C 0.3062 0.2428 0.3444   -0.132405
 C 0.3485 0.30893 0.34492   0.125961
 C 0.3951 0.3222 0.404   -0.121796
 C 0.4215 0.3948 0.2718   -0.232424
 C 0.4402 0.4643 0.3168   0.696315
 C 0.3089 0.1917 0.4015   -0.114357
 C 0.3539 0.2066 0.4611   -0.0391
 C 0.3972 0.2731 0.46218   -0.11345
 C 0.4472 0.2938 0.5258   0.671891
 C 0.2626 0.1212 0.3952   0.666937
 C 0.3253 0.6539 0.5611   0.200699
 C 0.3246 0.6991 0.6218   -0.231208
 C 0.3877 0.7403 0.6413   0.18372
 C 0.4482 0.7333 0.5975   -0.221428
 C 0.4464 0.6875 0.5378   0.19567
 C 0.3866 0.7916 0.7048   -0.187518
 C 0.3974 0.8743 0.6852   -0.077546
 C 0.4271 0.1161 0.9976   -0.182655
 C 0.51 0.1009 0.981   0.150545
 C 0.5528 0.1439 0.9349   -0.233464
 C 0.6281 0.1269 0.9233   0.17331
 C 0.5467 0.0392 0.0135   -0.252408
 C 0.6222 0.0257 0.9995   0.181863
 C 0.9062 0.2002 0.4219   0.650973
 C 0.8381 0.1899 0.4701   -0.243067
 C 0.7428 0.1938 0.5944   -0.132405
 C 0.80893 0.1515 0.59492   0.125961
 C 0.8222 0.1049 0.654   -0.121796
 C 0.8948 0.0785 0.5218   -0.232423
 C 0.9643 0.0598 0.5668   0.696314
 C 0.6917 0.1911 0.6515   -0.114357
 C 0.7066 0.1461 0.7111   -0.0391
 C 0.7731 0.1028 0.71218   -0.11345
 C 0.7938 0.0528 0.7758   0.671891
 C 0.6212 0.2374 0.6452   0.666937
 C 0.1539 0.1747 0.8111   0.200699
 C 0.1991 0.1754 0.8718   -0.231208
 C 0.2403 0.1123 0.8913   0.18372
 C 0.2333 0.0518 0.8475   -0.221428
 C 0.1875 0.0536 0.7878   0.19567
 C 0.2916 0.1134 0.9548   -0.187518
 C 0.3743 0.1026 0.9352   -0.077546
 C 0.5729 0.8839 0.4976   -0.182655
 C 0.49 0.8991 0.481   0.150545
 C 0.4472 0.8561 0.4349   -0.233464
 C 0.3719 0.8731 0.4233   0.17331
 C 0.4533 0.9608 0.5135   -0.252408
 C 0.3778 0.9743 0.4995   0.181863
 C 0.0938 0.7998 0.9219   0.650973
 C 0.1619 0.8101 0.9701   -0.243067
 C 0.2572 0.8062 0.0944   -0.132405
 C 0.19107 0.8485 0.09492   0.125961
 C 0.1778 0.8951 0.154   -0.121796
 C 0.1052 0.9215 0.0218   -0.232424
 C 0.0357 0.9402 0.0668   0.696315
 C 0.3083 0.8089 0.1515   -0.114357
 C 0.2934 0.8539 0.2111   -0.0391
 C 0.2269 0.8972 0.21218   -0.11345
 C 0.2062 0.9472 0.2758   0.671891
 C 0.3788 0.7626 0.1452   0.666937
 C 0.8461 0.8253 0.3111   0.200699
 C 0.8009 0.8246 0.3718   -0.231208
 C 0.7597 0.8877 0.3913   0.18372
 C 0.7667 0.9482 0.3475   -0.221428
 C 0.8125 0.9464 0.2878   0.19567
 C 0.7084 0.8866 0.4548   -0.187518
 C 0.6257 0.8974 0.4352   -0.077546
 C 0.8839 0.5729 0.5024   -0.182655
 C 0.8991 0.49 0.519   0.150545
 C 0.8561 0.4472 0.5651   -0.233464
 C 0.8731 0.3719 0.5767   0.17331
 C 0.9608 0.4533 0.4865   -0.252407
 C 0.9743 0.3778 0.5005   0.181863
 C 0.7998 0.0938 0.0781   0.650973
 C 0.8101 0.1619 0.0299   -0.243067
 C 0.8062 0.2572 0.9056   -0.132405
 C 0.8485 0.19107 0.90508   0.125961
 C 0.8951 0.1778 0.846   -0.121796
 C 0.9215 0.1052 0.9782   -0.232423
 C 0.9402 0.0357 0.9332   0.696315
 C 0.8089 0.3083 0.8485   -0.114357
 C 0.8539 0.2934 0.7889   -0.039099
 C 0.8972 0.2269 0.78782   -0.11345
 C 0.9472 0.2062 0.7242   0.671891
 C 0.7626 0.3788 0.8548   0.666937
 C 0.8253 0.8461 0.6889   0.2007
 C 0.8246 0.8009 0.6282   -0.231208
 C 0.8877 0.7597 0.6087   0.18372
 C 0.9482 0.7667 0.6525   -0.221428
 C 0.9464 0.8125 0.7122   0.19567
 C 0.8866 0.7084 0.5452   -0.187517
 C 0.8974 0.6257 0.5648   -0.077547
 C 0.1161 0.4271 0.0024   -0.182655
 C 0.1009 0.51 0.019   0.150545
 C 0.1439 0.5528 0.0651   -0.233464
 C 0.1269 0.6281 0.0767   0.17331
 C 0.0392 0.5467 0.9865   -0.252407
 C 0.0257 0.6222 0.000500000000002   0.181863
 C 0.2002 0.9062 0.5781   0.650973
 C 0.1899 0.8381 0.5299   -0.243067
 C 0.1938 0.7428 0.4056   -0.132405
 C 0.1515 0.80893 0.40508   0.125961
 C 0.1049 0.8222 0.346   -0.121796
 C 0.0785 0.8948 0.4782   -0.232424
 C 0.0598 0.9643 0.4332   0.696315
 C 0.1911 0.6917 0.3485   -0.114357
 C 0.1461 0.7066 0.2889   -0.039099
 C 0.1028 0.7731 0.28782   -0.11345
 C 0.0528 0.7938 0.2242   0.671891
 C 0.2374 0.6212 0.3548   0.666937
 C 0.1747 0.1539 0.1889   0.2007
 C 0.1754 0.1991 0.1282   -0.231208
 C 0.1123 0.2403 0.1087   0.18372
 C 0.0518 0.2333 0.1525   -0.221428
 C 0.0536 0.1875 0.2122   0.19567
 C 0.1134 0.2916 0.0452   -0.187518
 C 0.1026 0.3743 0.0648   -0.077546
 C 0.0729 0.6161 0.7524   -0.182654
 C 0.99 0.6009 0.769   0.150544
 C 0.9472 0.6439 0.8151   -0.233463
 C 0.8719 0.6269 0.8267   0.17331
 C 0.9533 0.5392 0.7365   -0.252408
 C 0.8778 0.5257 0.7505   0.181863
 C 0.5938 0.7002 0.3281   0.650973
 C 0.6619 0.6899 0.2799   -0.243067
 C 0.7572 0.6938 0.1556   -0.132405
 C 0.69107 0.6515 0.15508   0.125961
 C 0.6778 0.6049 0.096   -0.121797
 C 0.6052 0.5785 0.2282   -0.232423
 C 0.5357 0.5598 0.1832   0.696315
 C 0.8083 0.6911 0.0985   -0.114356
 C 0.7934 0.6461 0.0389   -0.0391
 C 0.7269 0.6028 0.03782   -0.11345
 C 0.7062 0.5528 0.9742   0.671891
 C 0.8788 0.7374 0.1048   0.666937
 C 0.3461 0.6747 0.9389   0.2007
 C 0.3009 0.6754 0.8782   -0.231208
 C 0.2597 0.6123 0.8587   0.18372
 C 0.2667 0.5518 0.9025   -0.221428
 C 0.3125 0.5536 0.9622   0.19567
 C 0.2084 0.6134 0.7952   -0.187517
 C 0.1257 0.6026 0.8148   -0.077546
 C 0.9271 0.3839 0.2524   -0.182654
 C 0.01 0.3991 0.269   0.150545
 C 0.0528 0.3561 0.3151   -0.233463
 C 0.1281 0.3731 0.3267   0.17331
 C 0.0467 0.4608 0.2365   -0.252408
 C 0.1222 0.4743 0.2505   0.181863
 C 0.4062 0.2998 0.8281   0.650973
 C 0.3381 0.3101 0.7799   -0.243067
 C 0.2428 0.3062 0.6556   -0.132405
 C 0.30893 0.3485 0.65508   0.125961
 C 0.3222 0.3951 0.596   -0.121797
 C 0.3948 0.4215 0.7282   -0.232424
 C 0.4643 0.4402 0.6832   0.696315
 C 0.1917 0.3089 0.5985   -0.114356
 C 0.2066 0.3539 0.5389   -0.0391
 C 0.2731 0.3972 0.53782   -0.11345
 C 0.2938 0.4472 0.4742   0.671891
 C 0.1212 0.2626 0.6048   0.666937
 C 0.6539 0.3253 0.4389   0.2007
 C 0.6991 0.3246 0.3782   -0.231208
 C 0.7403 0.3877 0.3587   0.18372
 C 0.7333 0.4482 0.4025   -0.221428
 C 0.6875 0.4464 0.4622   0.19567
 C 0.7916 0.3866 0.2952   -0.187518
 C 0.8743 0.3974 0.3148   -0.077546
 N 0.5693 0.8367 0.20607   -0.320712
 N 0.6139 0.3524 0.01895   -0.370771
 N 0.65469 0.63659 0.78793   -0.095741
 N 0.4307 0.1633 0.70607   -0.320712
 N 0.3861 0.6476 0.51895   -0.370771
 N 0.34531 0.36341 0.28793   -0.095741
 N 0.6633 0.0693 0.95607   -0.320712
 N 0.1476 0.1139 0.76895   -0.370771
 N 0.86341 0.15469 0.53793   -0.095741
 N 0.3367 0.9307 0.45607   -0.320712
 N 0.8524 0.8861 0.26895   -0.370771
 N 0.13659 0.84531 0.03793   -0.095741
 N 0.9307 0.3367 0.54393   -0.320712
 N 0.8861 0.8524 0.73105   -0.370772
 N 0.84531 0.13659 0.96207   -0.095742
 N 0.0693 0.6633 0.04393   -0.320712
 N 0.1139 0.1476 0.23105   -0.370772
 N 0.15469 0.86341 0.46207   -0.095741
 N 0.8367 0.5693 0.79393   -0.320712
 N 0.3524 0.6139 0.98105   -0.370772
 N 0.63659 0.65469 0.21207   -0.095742
 N 0.1633 0.4307 0.29393   -0.320712
 N 0.6476 0.3861 0.48105   -0.370772
 N 0.36341 0.34531 0.71207   -0.095741
 O 0.6985 0.6018 0.60671   -0.594594
 O 0.71052 0.52965 0.7031   -0.585592
 O 0.49343 0.52343 0.83125   -0.569119
 O 0.61611 0.49458 0.8363   -0.623123
 O 0.7378 0.92483 0.94618   -0.523977
 O 0.77263 0.88769 0.83754   -0.604874
 O 0.5091 0.65116 0.01523   -0.548238
 O 0.56059 0.7435 0.08234   -0.580903
 O 0.3015 0.3982 0.10671   -0.594594
 O 0.28948 0.47035 0.2031   -0.585592
 O 0.50657 0.47657 0.33125   -0.569119
 O 0.38389 0.50542 0.3363   -0.623123
 O 0.2622 0.07517 0.44618   -0.523977
 O 0.22737 0.11231 0.33754   -0.604874
 O 0.4909 0.34884 0.51523   -0.548238
 O 0.43941 0.2565 0.58234   -0.580903
 O 0.8982 0.1985 0.35671   -0.594594
 O 0.97035 0.21052 0.4531   -0.585592
 O 0.97657 0.99343 0.58125   -0.569119
 O 0.00542 0.11611 0.5863   -0.623123
 O 0.57517 0.2378 0.69618   -0.523977
 O 0.61231 0.27263 0.58754   -0.604874
 O 0.84884 0.0091 0.76523   -0.548238
 O 0.7565 0.06059 0.83234   -0.580903
 O 0.1018 0.8015 0.85671   -0.594594
 O 0.02965 0.78948 0.9531   -0.585592
 O 0.02343 0.00657 0.08125   -0.569119
 O 0.99458 0.88389 0.0863   -0.623123
 O 0.42483 0.7622 0.19618   -0.523977
 O 0.38769 0.72737 0.08754   -0.604874
 O 0.15116 0.9909 0.26523   -0.548238
 O 0.2435 0.93941 0.33234   -0.580903
 O 0.8015 0.1018 0.14329   -0.594593
 O 0.78948 0.02965 0.0469   -0.585591
 O 0.00657 0.02343 0.91875   -0.569119
 O 0.88389 0.99458 0.9137   -0.623123
 O 0.7622 0.42483 0.80382   -0.523976
 O 0.72737 0.38769 0.91246   -0.604874
 O 0.9909 0.15116 0.73477   -0.548238
 O 0.93941 0.2435 0.66766   -0.580903
 O 0.1985 0.8982 0.64329   -0.594593
 O 0.21052 0.97035 0.5469   -0.585591
 O 0.99343 0.97657 0.41875   -0.569119
 O 0.11611 0.00542 0.4137   -0.623123
 O 0.2378 0.57517 0.30382   -0.523976
 O 0.27263 0.61231 0.41246   -0.604874
 O 0.0091 0.84884 0.23477   -0.548238
 O 0.06059 0.7565 0.16766   -0.580903
 O 0.6018 0.6985 0.39329   -0.594593
 O 0.52965 0.71052 0.2969   -0.585591
 O 0.52343 0.49343 0.16875   -0.569119
 O 0.49458 0.61611 0.1637   -0.623123
 O 0.92483 0.7378 0.05382   -0.523976
 O 0.88769 0.77263 0.16246   -0.604874
 O 0.65116 0.5091 0.98477   -0.548238
 O 0.7435 0.56059 0.91766   -0.580903
 O 0.3982 0.3015 0.89329   -0.594593
 O 0.47035 0.28948 0.7969   -0.585591
 O 0.47657 0.50657 0.66875   -0.569119
 O 0.50542 0.38389 0.6637   -0.623123
 O 0.07517 0.2622 0.55382   -0.523976
 O 0.11231 0.22737 0.66246   -0.604874
 O 0.34884 0.4909 0.48477   -0.548238
 O 0.2565 0.43941 0.41766   -0.580903
