{'_ref': 'TBD', '_srcid': 'CAKYAQ_clean', 'submitters': [{'name': 'Dalar Nazarian Jeff Camp and David Sholl', 'email': 'dalar@gatech.edu jcamp6@gatech.edu'}], '_method': 'VASP DFT with PBE;DDEC'}
data_Co2H6C17O9
_symmetry_space_group_name_H-M   'P 1'
_cell_length_a   7.33100034
_cell_length_b   11.90100014
_cell_length_c   15.83800000
_cell_angle_alpha   103.49999848
_cell_angle_beta   100.45999943
_cell_angle_gamma   104.75000012
_symmetry_Int_Tables_number   1
_chemical_formula_structural   Co2H6C17O9
_chemical_formula_sum   'Co4 H12 C34 O18'
_cell_volume   1255.95445696
_cell_formula_units_Z   2
loop_
 _symmetry_equiv_pos_site_id
 _symmetry_equiv_pos_as_xyz
  1  'x, y, z'
loop_
 _atom_site_label
 _atom_site_fract_x
 _atom_site_fract_y
 _atom_site_fract_z
 _atom_site_charge
 Co 0.02743 0.95281 0.3349   1.013762
 Co 0.97257 0.04719 0.6651   1.013764
 Co 0.5 0.0 0.5   1.271624
 Co 0.0 0.0 0.0   0.851511
 H 0.7928 0.2564 0.4229   0.09915
 H 0.0387 0.5838 0.3525   0.103857
 H 0.5895 0.3095 0.1437   0.127238
 H 0.6951 0.617 0.3865   0.107939
 H 0.9145 0.396 0.223   0.111535
 H 0.4816 0.4425 0.3958   0.099353
 H 0.2072 0.7436 0.5771   0.099151
 H 0.9613 0.4162 0.6475   0.103858
 H 0.4105 0.6905 0.8563   0.127238
 H 0.3049 0.383 0.6135   0.107939
 H 0.0855 0.604 0.777   0.111535
 H 0.5184 0.5575 0.6042   0.099353
 C 0.8898 0.3358 0.3326   -0.132713
 C 0.2354 0.4942 0.3744   -0.066064
 C 0.752 0.2666 0.3669   0.003168
 C 0.1708 0.5915 0.3612   -0.067802
 C 0.5555 0.2125 0.3195   -0.153668
 C 0.3013 0.7002 0.3608   -0.055029
 C 0.493 0.2298 0.235   0.011143
 C 0.5013 0.7108 0.3699   -0.104276
 C 0.6303 0.2988 0.1996   -0.124163
 C 0.5646 0.6115 0.3815   -0.026065
 C 0.8259 0.3511 0.2473   -0.009046
 C 0.4359 0.5055 0.3857   -0.045894
 C 0.4196 0.1328 0.3586   0.718943
 C 0.2147 0.8 0.3477   0.663928
 C 0.2852 0.1789 0.1783   0.670385
 C 0.6501 0.8262 0.3699   0.698041
 C 0.0999 0.3791 0.3819   0.437513
 C 0.1102 0.6642 0.6674   -0.132713
 C 0.7646 0.5058 0.6256   -0.066062
 C 0.248 0.7334 0.6331   0.003169
 C 0.8292 0.4085 0.6388   -0.067802
 C 0.4445 0.7875 0.6805   -0.153668
 C 0.6987 0.2998 0.6392   -0.055029
 C 0.507 0.7702 0.765   0.011143
 C 0.4987 0.2892 0.6301   -0.104276
 C 0.3697 0.7012 0.8004   -0.124163
 C 0.4354 0.3885 0.6185   -0.026064
 C 0.1741 0.6489 0.7527   -0.009046
 C 0.5641 0.4945 0.6143   -0.045894
 C 0.5804 0.8672 0.6414   0.718943
 C 0.7853 0.2 0.6523   0.663928
 C 0.7148 0.8211 0.8217   0.670385
 C 0.3499 0.1738 0.6301   0.698041
 C 0.9001 0.6209 0.6181   0.437514
 O 0.4831 0.1342 0.439   -0.616427
 O 0.1219 0.7936 0.2706   -0.490096
 O 0.255 0.0678 0.3062   -0.577761
 O 0.2202 0.8857 0.4167   -0.632144
 O 0.2487 0.0845 0.1102   -0.623471
 O 0.6237 0.9287 0.3987   -0.642144
 O 0.1677 0.2353 0.1959   -0.559228
 O 0.7919 0.8123 0.3377   -0.572553
 O 0.165 0.3224 0.4295   -0.428982
 O 0.5169 0.8658 0.561   -0.616427
 O 0.8781 0.2064 0.7294   -0.490096
 O 0.745 0.9322 0.6938   -0.577761
 O 0.7798 0.1143 0.5833   -0.632144
 O 0.7513 0.9155 0.8898   -0.623471
 O 0.3763 0.0713 0.6013   -0.642144
 O 0.8323 0.7647 0.8041   -0.559228
 O 0.2081 0.1877 0.6623   -0.572553
 O 0.835 0.6776 0.5705   -0.428982
