{'_ref': 'TBD', '_srcid': 'CAKYAQ_clean', 'submitters': [{'name': 'Dalar Nazarian Jeff Camp and David Sholl', 'email': 'dalar@gatech.edu jcamp6@gatech.edu'}], '_method': 'VASP DFT with PBE;DDEC'}
data_UP2H2(CO)6
_symmetry_space_group_name_H-M   'P 1'
_cell_length_a   7.80100000
_cell_length_b   20.35390000
_cell_length_c   20.35390000
_cell_angle_alpha   90.00000000
_cell_angle_beta   90.00000000
_cell_angle_gamma   90.00000000
_symmetry_Int_Tables_number   1
_chemical_formula_structural   UP2H2(CO)6
_chemical_formula_sum   'U8 P16 H16 C48 O48'
_cell_volume   3231.80799388
_cell_formula_units_Z   8
loop_
 _symmetry_equiv_pos_site_id
 _symmetry_equiv_pos_as_xyz
  1  'x, y, z'
loop_
 _atom_site_label
 _atom_site_fract_x
 _atom_site_fract_y
 _atom_site_fract_z
 _atom_site_charge
 U 0.79162 0.59742 0.75   2.472432
 U 0.79162 0.90258 0.75   2.472432
 U 0.29162 0.75 0.59742   2.472443
 U 0.29162 0.75 0.90258   2.472442
 U 0.20838 0.40258 0.25   2.472432
 U 0.20838 0.09742 0.25   2.472432
 U 0.70838 0.25 0.09742   2.472443
 U 0.70838 0.25 0.40258   2.472442
 P 0.4315 0.57439 0.86427   1.656557
 P 0.4315 0.92561 0.63573   1.656557
 P 0.9315 0.63573 0.57439   1.656557
 P 0.9315 0.86427 0.92561   1.656557
 P 0.5685 0.42561 0.36427   1.656557
 P 0.5685 0.07439 0.13573   1.656557
 P 0.0685 0.36427 0.07439   1.656557
 P 0.0685 0.13573 0.42561   1.656557
 P 0.5685 0.42561 0.13573   1.656556
 P 0.5685 0.07439 0.36427   1.656556
 P 0.0685 0.36427 0.42561   1.656556
 P 0.0685 0.13573 0.07439   1.656556
 P 0.4315 0.57439 0.63573   1.656557
 P 0.4315 0.92561 0.86427   1.656556
 P 0.9315 0.63573 0.92561   1.656556
 P 0.9315 0.86427 0.57439   1.656556
 H 0.419 0.609 0.9985   0.089145
 H 0.419 0.891 0.5015   0.089145
 H 0.919 0.5015 0.609   0.089145
 H 0.919 0.9985 0.891   0.089145
 H 0.581 0.391 0.4985   0.089145
 H 0.581 0.109 0.0015   0.089145
 H 0.081 0.4985 0.109   0.089145
 H 0.081 0.0015 0.391   0.089145
 H 0.581 0.391 0.0015   0.089145
 H 0.581 0.109 0.4985   0.089145
 H 0.081 0.4985 0.391   0.089145
 H 0.081 0.0015 0.109   0.089145
 H 0.419 0.609 0.5015   0.089145
 H 0.419 0.891 0.9985   0.089145
 H 0.919 0.5015 0.891   0.089145
 H 0.919 0.9985 0.609   0.089145
 C 0.4671 0.5321 0.9407   -0.323806
 C 0.5105 0.4661 0.942   0.066515
 C 0.4538 0.5643 0.9985   0.021785
 C 0.4671 0.9679 0.5593   -0.323806
 C 0.5105 0.0339 0.558   0.066515
 C 0.4538 0.9357 0.5015   0.021785
 C 0.9671 0.5593 0.5321   -0.323806
 C 0.0105 0.558 0.4661   0.066515
 C 0.9538 0.5015 0.5643   0.021785
 C 0.9671 0.9407 0.9679   -0.323806
 C 0.0105 0.942 0.0339   0.066515
 C 0.9538 0.9985 0.9357   0.021785
 C 0.5329 0.4679 0.4407   -0.323807
 C 0.4895 0.5339 0.442   0.066515
 C 0.5462 0.4357 0.4985   0.021785
 C 0.5329 0.0321 0.0593   -0.323807
 C 0.4895 0.9661 0.058   0.066515
 C 0.5462 0.0643 0.0015   0.021785
 C 0.0329 0.4407 0.0321   -0.323807
 C 0.9895 0.442 0.9661   0.066515
 C 0.0462 0.4985 0.0643   0.021785
 C 0.0329 0.0593 0.4679   -0.323807
 C 0.9895 0.058 0.5339   0.066515
 C 0.0462 0.0015 0.4357   0.021785
 C 0.5329 0.4679 0.0593   -0.323806
 C 0.4895 0.5339 0.058   0.066511
 C 0.5462 0.4357 0.0015   0.021782
 C 0.5329 0.0321 0.4407   -0.323806
 C 0.4895 0.9661 0.442   0.066511
 C 0.5462 0.0643 0.4985   0.021782
 C 0.0329 0.4407 0.4679   -0.323806
 C 0.9895 0.442 0.5339   0.066511
 C 0.0462 0.4985 0.4357   0.021782
 C 0.0329 0.0593 0.0321   -0.323806
 C 0.9895 0.058 0.9661   0.066511
 C 0.0462 0.0015 0.0643   0.021782
 C 0.4671 0.5321 0.5593   -0.323806
 C 0.5105 0.4661 0.558   0.066511
 C 0.4538 0.5643 0.5015   0.021782
 C 0.4671 0.9679 0.9407   -0.323806
 C 0.5105 0.0339 0.942   0.066511
 C 0.4538 0.9357 0.9985   0.021782
 C 0.9671 0.5593 0.9679   -0.323806
 C 0.0105 0.558 0.0339   0.066511
 C 0.9538 0.5015 0.9357   0.021782
 C 0.9671 0.9407 0.5321   -0.323806
 C 0.0105 0.942 0.4661   0.066511
 C 0.9538 0.9985 0.5643   0.021782
 O 0.5815 0.5606 0.8201   -0.9064
 O 0.3984 0.6451 0.8783   -1.0748
 O 0.2663 0.5434 0.8336   -0.76521
 O 0.5815 0.9394 0.6799   -0.9064
 O 0.3984 0.8549 0.6217   -1.0748
 O 0.2663 0.9566 0.6664   -0.76521
 O 0.0815 0.6799 0.5606   -0.9064
 O 0.8984 0.6217 0.6451   -1.074799
 O 0.7663 0.6664 0.5434   -0.76521
 O 0.0815 0.8201 0.9394   -0.9064
 O 0.8984 0.8783 0.8549   -1.074799
 O 0.7663 0.8336 0.9566   -0.76521
 O 0.4185 0.4394 0.3201   -0.9064
 O 0.6016 0.3549 0.3783   -1.0748
 O 0.7337 0.4566 0.3336   -0.76521
 O 0.4185 0.0606 0.1799   -0.9064
 O 0.6016 0.1451 0.1217   -1.0748
 O 0.7337 0.0434 0.1664   -0.76521
 O 0.9185 0.3201 0.0606   -0.9064
 O 0.1016 0.3783 0.1451   -1.074799
 O 0.2337 0.3336 0.0434   -0.76521
 O 0.9185 0.1799 0.4394   -0.9064
 O 0.1016 0.1217 0.3549   -1.074799
 O 0.2337 0.1664 0.4566   -0.76521
 O 0.4185 0.4394 0.1799   -0.9064
 O 0.6016 0.3549 0.1217   -1.0748
 O 0.7337 0.4566 0.1664   -0.765211
 O 0.4185 0.0606 0.3201   -0.9064
 O 0.6016 0.1451 0.3783   -1.0748
 O 0.7337 0.0434 0.3336   -0.765211
 O 0.9185 0.3201 0.4394   -0.9064
 O 0.1016 0.3783 0.3549   -1.074799
 O 0.2337 0.3336 0.4566   -0.765211
 O 0.9185 0.1799 0.0606   -0.9064
 O 0.1016 0.1217 0.1451   -1.074799
 O 0.2337 0.1664 0.0434   -0.765211
 O 0.5815 0.5606 0.6799   -0.9064
 O 0.3984 0.6451 0.6217   -1.0748
 O 0.2663 0.5434 0.6664   -0.765211
 O 0.5815 0.9394 0.8201   -0.9064
 O 0.3984 0.8549 0.8783   -1.0748
 O 0.2663 0.9566 0.8336   -0.765211
 O 0.0815 0.6799 0.9394   -0.9064
 O 0.8984 0.6217 0.8549   -1.074799
 O 0.7663 0.6664 0.9566   -0.765211
 O 0.0815 0.8201 0.5606   -0.9064
 O 0.8984 0.8783 0.6451   -1.074799
 O 0.7663 0.8336 0.5434   -0.765211
