{'_ref': 'TBD', '_srcid': 'CAKYAQ_clean', 'submitters': [{'name': 'Dalar Nazarian Jeff Camp and David Sholl', 'email': 'dalar@gatech.edu jcamp6@gatech.edu'}], '_method': 'VASP DFT with PBE;DDEC'}
data_ZnH16C20(NO2)2
_symmetry_space_group_name_H-M   'P 1'
_cell_length_a   9.47920000
_cell_length_b   11.36575009
_cell_length_c   22.12650000
_cell_angle_alpha   102.43405745
_cell_angle_beta   90.00000000
_cell_angle_gamma   114.64545250
_symmetry_Int_Tables_number   1
_chemical_formula_structural   ZnH16C20(NO2)2
_chemical_formula_sum   'Zn4 H64 C80 N8 O16'
_cell_volume   2105.03719479
_cell_formula_units_Z   4
loop_
 _symmetry_equiv_pos_site_id
 _symmetry_equiv_pos_as_xyz
  1  'x, y, z'
loop_
 _atom_site_label
 _atom_site_fract_x
 _atom_site_fract_y
 _atom_site_fract_z
 _atom_site_charge
 Zn 0.41244 0.3335 0.37989   0.843111
 Zn 0.07894 0.6665 0.12011   0.843856
 Zn 0.58756 0.6665 0.62011   0.843111
 Zn 0.92106 0.3335 0.87989   0.843857
 H 0.5684 0.605 0.4541   0.07411
 H 0.8027 0.7852 0.4758   0.136292
 H 0.9759 0.5884 0.352   0.131942
 H 0.737 0.412 0.3335   0.075904
 H 0.0898 0.8748 0.4721   0.113928
 H 0.1555 0.802 0.4192   0.091034
 H 0.1773 0.0108 0.4054   0.11135
 H 0.9944 0.9496 0.3952   0.110744
 H 0.8745 0.734 0.1993   0.078267
 H 0.8682 0.829 0.2986   0.141629
 H 0.311 0.9026 0.3295   0.12897
 H 0.3078 0.8074 0.2295   0.086455
 H 0.8633 0.2762 0.4553   0.091514
 H 0.2576 0.612 0.4833   0.090839
 H 0.564 0.9614 0.4018   0.093185
 H 0.4392 0.177 0.5366   0.095102
 H 0.9634 0.395 0.0459   0.074333
 H 0.0175 0.2148 0.0242   0.136339
 H 0.3875 0.4116 0.148   0.132145
 H 0.325 0.588 0.1665   0.076341
 H 0.215 0.1252 0.0279   0.113777
 H 0.3535 0.198 0.0808   0.091911
 H 0.1665 0.9892 0.0946   0.111461
 H 0.0448 0.0504 0.1048   0.1106
 H 0.1405 0.266 0.3007   0.07821
 H 0.0392 0.171 0.2014   0.141676
 H 0.4084 0.0974 0.1705   0.129115
 H 0.5004 0.1926 0.2705   0.086781
 H 0.5871 0.7238 0.0447   0.090981
 H 0.6456 0.388 0.0167   0.091151
 H 0.6026 0.0386 0.0982   0.092737
 H 0.2622 0.823 0.9634   0.095275
 H 0.4316 0.395 0.5459   0.07411
 H 0.1973 0.2148 0.5242   0.136292
 H 0.0241 0.4116 0.648   0.131942
 H 0.263 0.588 0.6665   0.075904
 H 0.9102 0.1252 0.5279   0.11393
 H 0.8445 0.198 0.5808   0.091034
 H 0.8227 0.9892 0.5946   0.11135
 H 0.0056 0.0504 0.6048   0.110744
 H 0.1255 0.266 0.8007   0.078267
 H 0.1318 0.171 0.7014   0.141629
 H 0.689 0.0974 0.6705   0.12897
 H 0.6922 0.1926 0.7705   0.086455
 H 0.1367 0.7238 0.5447   0.091514
 H 0.7424 0.388 0.5167   0.090838
 H 0.436 0.0386 0.5982   0.093184
 H 0.5608 0.823 0.4634   0.095101
 H 0.0366 0.605 0.9541   0.074333
 H 0.9825 0.7852 0.9758   0.13634
 H 0.6125 0.5884 0.852   0.132145
 H 0.675 0.412 0.8335   0.076341
 H 0.785 0.8748 0.9721   0.113778
 H 0.6465 0.802 0.9192   0.091911
 H 0.8335 0.0108 0.9054   0.111461
 H 0.9552 0.9496 0.8952   0.110601
 H 0.8595 0.734 0.6993   0.07821
 H 0.9608 0.829 0.7986   0.141676
 H 0.5916 0.9026 0.8295   0.129115
 H 0.4996 0.8074 0.7295   0.086781
 H 0.4129 0.2762 0.9553   0.09098
 H 0.3544 0.612 0.9833   0.09115
 H 0.3974 0.9614 0.9018   0.092735
 H 0.7378 0.177 0.0366   0.095274
 C 0.65119 0.60098 0.43262   0.195745
 C 0.79231 0.71002 0.44579   -0.223267
 C 0.91841 0.71042 0.41563   0.168243
 C 0.89419 0.59518 0.37347   -0.232265
 C 0.74958 0.48916 0.36253   0.17314
 C 0.07308 0.83076 0.4283   -0.175829
 C 0.08388 0.92896 0.39042   -0.190879
 C 0.96428 0.76916 0.22676   0.197642
 C 0.95934 0.82468 0.28537   -0.240804
 C 0.08827 0.87454 0.32543   0.206229
 C 0.21946 0.86752 0.30301   -0.23198
 C 0.2174 0.8114 0.24396   0.181244
 C 0.91824 0.36668 0.47344   -0.05898
 C 0.07268 0.43296 0.46308   -0.138981
 C 0.15384 0.56688 0.49002   -0.059208
 C 0.15046 0.35872 0.42404   0.657795
 C 0.53752 0.97684 0.4423   -0.066287
 C 0.50083 0.08266 0.46353   -0.104951
 C 0.46382 0.10564 0.52131   -0.064632
 C 0.49582 0.16924 0.42363   0.655584
 C 0.05021 0.39902 0.06738   0.195016
 C 0.08229 0.28998 0.05421   -0.222721
 C 0.20799 0.28958 0.08437   0.16821
 C 0.29901 0.40482 0.12653   -0.232592
 C 0.26042 0.51084 0.13747   0.172677
 C 0.24232 0.16924 0.0717   -0.1767
 C 0.15492 0.07104 0.10958   -0.190308
 C 0.19512 0.23084 0.27324   0.197295
 C 0.13466 0.17532 0.21463   -0.240876
 C 0.21373 0.12546 0.17457   0.205771
 C 0.35194 0.13248 0.19699   -0.232703
 C 0.406 0.1886 0.25604   0.181132
 C 0.55156 0.63332 0.02656   -0.057118
 C 0.63972 0.56704 0.03692   -0.139877
 C 0.58696 0.43312 0.00998   -0.060479
 C 0.79174 0.64128 0.07596   0.658894
 C 0.56068 0.02316 0.0577   -0.064511
 C 0.41817 0.91734 0.03647   -0.106046
 C 0.35818 0.89436 0.97869   -0.065327
 C 0.32658 0.83076 0.07637   0.655805
 C 0.34881 0.39902 0.56738   0.195745
 C 0.20769 0.28998 0.55421   -0.223267
 C 0.08159 0.28958 0.58437   0.168243
 C 0.10581 0.40482 0.62653   -0.232265
 C 0.25042 0.51084 0.63747   0.17314
 C 0.92692 0.16924 0.5717   -0.175829
 C 0.91612 0.07104 0.60958   -0.190879
 C 0.03572 0.23084 0.77324   0.197642
 C 0.04066 0.17532 0.71463   -0.240804
 C 0.91173 0.12546 0.67457   0.206229
 C 0.78054 0.13248 0.69699   -0.23198
 C 0.7826 0.1886 0.75604   0.181244
 C 0.08176 0.63332 0.52656   -0.058971
 C 0.92732 0.56704 0.53692   -0.138984
 C 0.84616 0.43312 0.50998   -0.0592
 C 0.84954 0.64128 0.57596   0.657795
 C 0.46248 0.02316 0.5577   -0.066262
 C 0.49917 0.91734 0.53647   -0.10496
 C 0.53618 0.89436 0.47869   -0.064606
 C 0.50418 0.83076 0.57637   0.655585
 C 0.94979 0.60098 0.93262   0.195016
 C 0.91771 0.71002 0.94579   -0.222721
 C 0.79201 0.71042 0.91563   0.16821
 C 0.70099 0.59518 0.87347   -0.232592
 C 0.73958 0.48916 0.86253   0.172677
 C 0.75768 0.83076 0.9283   -0.176701
 C 0.84508 0.92896 0.89042   -0.190308
 C 0.80488 0.76916 0.72676   0.197295
 C 0.86534 0.82468 0.78537   -0.240876
 C 0.78627 0.87454 0.82543   0.205771
 C 0.64806 0.86752 0.80301   -0.232702
 C 0.594 0.8114 0.74396   0.181132
 C 0.44844 0.36668 0.97344   -0.057106
 C 0.36028 0.43296 0.96308   -0.139881
 C 0.41304 0.56688 0.99002   -0.060469
 C 0.20826 0.35872 0.92404   0.658894
 C 0.43932 0.97684 0.9423   -0.064483
 C 0.58183 0.08266 0.96353   -0.106056
 C 0.64182 0.10564 0.02131   -0.065299
 C 0.67342 0.16924 0.92363   0.655806
 N 0.62673 0.49034 0.39095   -0.349882
 N 0.09129 0.76152 0.20562   -0.360882
 N 0.13639 0.50966 0.10905   -0.349897
 N 0.32977 0.23848 0.29438   -0.3596
 N 0.37327 0.50966 0.60905   -0.349882
 N 0.90871 0.23848 0.79438   -0.360882
 N 0.86361 0.49034 0.89095   -0.349897
 N 0.67023 0.76152 0.70562   -0.3596
 O 0.28957 0.43002 0.4135   -0.631556
 O 0.08201 0.2378 0.40459   -0.597245
 O 0.42071 0.23834 0.43997   -0.59891
 O 0.559 0.16836 0.37671   -0.603768
 O 0.85955 0.56998 0.0865   -0.632394
 O 0.84421 0.7622 0.09541   -0.597317
 O 0.18237 0.76166 0.06003   -0.598766
 O 0.39064 0.83164 0.12329   -0.60401
 O 0.71043 0.56998 0.5865   -0.631556
 O 0.91799 0.7622 0.59541   -0.597245
 O 0.57929 0.76166 0.56003   -0.59891
 O 0.441 0.83164 0.62329   -0.603768
 O 0.14045 0.43002 0.9135   -0.632395
 O 0.15579 0.2378 0.90459   -0.597317
 O 0.81763 0.23834 0.93997   -0.598767
 O 0.60936 0.16836 0.87671   -0.60401
