{'_ref': 'TBD', '_srcid': 'CAKYAQ_clean', 'submitters': [{'name': 'Dalar Nazarian Jeff Camp and David Sholl', 'email': 'dalar@gatech.edu jcamp6@gatech.edu'}], '_method': 'VASP DFT with PBE;DDEC'}
data_ZnBH20C19(N3O)2
_symmetry_space_group_name_H-M   'P 1'
_cell_length_a   16.08710000
_cell_length_b   18.85690000
_cell_length_c   18.85690000
_cell_angle_alpha   90.00000000
_cell_angle_beta   90.00000000
_cell_angle_gamma   90.00000000
_symmetry_Int_Tables_number   1
_chemical_formula_structural   ZnBH20C19(N3O)2
_chemical_formula_sum   'Zn8 B8 H160 C152 N48 O16'
_cell_volume   5720.29409298
_cell_formula_units_Z   8
loop_
 _symmetry_equiv_pos_site_id
 _symmetry_equiv_pos_as_xyz
  1  'x, y, z'
loop_
 _atom_site_label
 _atom_site_fract_x
 _atom_site_fract_y
 _atom_site_fract_z
 _atom_site_charge
 Zn 0.22564 0.84303 0.11558   0.855025
 Zn 0.77436 0.11558 0.15697   0.855025
 Zn 0.22564 0.15697 0.88442   0.855025
 Zn 0.77436 0.88442 0.84303   0.855025
 Zn 0.72564 0.34303 0.61558   0.855025
 Zn 0.27436 0.61558 0.65697   0.855025
 Zn 0.72564 0.65697 0.38442   0.855025
 Zn 0.27436 0.38442 0.34303   0.855025
 B 0.8948 0.8422 0.2036   0.368679
 B 0.1052 0.2036 0.1578   0.368679
 B 0.8948 0.1578 0.7964   0.368679
 B 0.1052 0.7964 0.8422   0.368679
 B 0.3948 0.3422 0.7036   0.368679
 B 0.6052 0.7036 0.6578   0.368679
 B 0.3948 0.6578 0.2964   0.368679
 B 0.6052 0.2964 0.3422   0.368679
 H 0.0 0.9556 0.2575   0.122406
 H 0.0 0.2575 0.0444   0.122406
 H 0.0 0.0444 0.7425   0.122405
 H 0.0 0.7425 0.9556   0.122405
 H 0.5 0.4556 0.7575   0.122406
 H 0.5 0.7575 0.5444   0.122406
 H 0.5 0.5444 0.2425   0.122405
 H 0.5 0.2425 0.4556   0.122405
 H 0.3549 0.0883 0.1859   0.093329
 H 0.6451 0.1859 0.9117   0.093329
 H 0.3549 0.9117 0.8141   0.093329
 H 0.6451 0.8141 0.0883   0.093329
 H 0.8549 0.5883 0.6859   0.093329
 H 0.1451 0.6859 0.4117   0.093329
 H 0.8549 0.4117 0.3141   0.093329
 H 0.1451 0.3141 0.5883   0.093329
 H 0.9795 0.7982 0.3287   0.120743
 H 0.0205 0.3287 0.2018   0.120743
 H 0.9795 0.2018 0.6713   0.120743
 H 0.0205 0.6713 0.7982   0.120743
 H 0.4795 0.2982 0.8287   0.120743
 H 0.5205 0.8287 0.7018   0.120743
 H 0.4795 0.7018 0.1713   0.120743
 H 0.5205 0.1713 0.2982   0.120743
 H 0.4429 0.0964 0.9491   0.090702
 H 0.5571 0.9491 0.9036   0.090702
 H 0.4429 0.9036 0.0509   0.090702
 H 0.5571 0.0509 0.0964   0.090702
 H 0.9429 0.5964 0.4491   0.090702
 H 0.0571 0.4491 0.4036   0.090702
 H 0.9429 0.4036 0.5509   0.090702
 H 0.0571 0.5509 0.5964   0.090702
 H 0.42 0.1877 0.1405   0.080431
 H 0.58 0.1405 0.8123   0.080431
 H 0.42 0.8123 0.8595   0.080431
 H 0.58 0.8595 0.1877   0.080431
 H 0.92 0.6877 0.6405   0.080431
 H 0.08 0.6405 0.3123   0.080431
 H 0.92 0.3123 0.3595   0.080431
 H 0.08 0.3595 0.6877   0.080431
 H 0.4655 0.1911 0.0217   0.097234
 H 0.5345 0.0217 0.8089   0.097234
 H 0.4655 0.8089 0.9783   0.097234
 H 0.5345 0.9783 0.1911   0.097234
 H 0.9655 0.6911 0.5217   0.097234
 H 0.0345 0.5217 0.3089   0.097234
 H 0.9655 0.3089 0.4783   0.097234
 H 0.0345 0.4783 0.6911   0.097234
 H 0.1462 0.9527 0.2191   0.114846
 H 0.8538 0.2191 0.0473   0.114846
 H 0.1462 0.0473 0.7809   0.114846
 H 0.8538 0.7809 0.9527   0.114846
 H 0.6462 0.4527 0.7191   0.114846
 H 0.3538 0.7191 0.5473   0.114846
 H 0.6462 0.5473 0.2809   0.114846
 H 0.3538 0.2809 0.4527   0.114846
 H 0.7576 0.0262 0.3053   0.093721
 H 0.2424 0.3053 0.9738   0.093721
 H 0.7576 0.9738 0.6947   0.093721
 H 0.2424 0.6947 0.0262   0.093721
 H 0.2576 0.5262 0.8053   0.093721
 H 0.7424 0.8053 0.4738   0.093721
 H 0.2576 0.4738 0.1947   0.093721
 H 0.7424 0.1947 0.5262   0.093721
 H 0.0798 0.7384 0.1097   0.137609
 H 0.9202 0.1097 0.2616   0.137609
 H 0.0798 0.2616 0.8903   0.137609
 H 0.9202 0.8903 0.7384   0.137609
 H 0.5798 0.2384 0.6097   0.137609
 H 0.4202 0.6097 0.7616   0.137609
 H 0.5798 0.7616 0.3903   0.137609
 H 0.4202 0.3903 0.2384   0.137609
 H 0.9844 0.7604 0.0995   0.1506
 H 0.0156 0.0995 0.2396   0.1506
 H 0.9844 0.2396 0.9005   0.1506
 H 0.0156 0.9005 0.7604   0.1506
 H 0.4844 0.2604 0.5995   0.1506
 H 0.5156 0.5995 0.7396   0.1506
 H 0.4844 0.7396 0.4005   0.1506
 H 0.5156 0.4005 0.2604   0.1506
 H 0.014 0.7232 0.1715   0.157511
 H 0.986 0.1715 0.2768   0.157511
 H 0.014 0.2768 0.8285   0.157511
 H 0.986 0.8285 0.7232   0.157511
 H 0.514 0.2232 0.6715   0.157511
 H 0.486 0.6715 0.7768   0.157511
 H 0.514 0.7768 0.3285   0.157511
 H 0.486 0.3285 0.2232   0.157511
 H 0.8938 0.9178 0.0904   0.13833
 H 0.1062 0.0904 0.0822   0.13833
 H 0.8938 0.0822 0.9096   0.13833
 H 0.1062 0.9096 0.9178   0.13833
 H 0.3938 0.4178 0.5904   0.13833
 H 0.6062 0.5904 0.5822   0.13833
 H 0.3938 0.5822 0.4096   0.13833
 H 0.6062 0.4096 0.4178   0.13833
 H 0.8184 0.9676 0.0665   0.170683
 H 0.1816 0.0665 0.0324   0.170683
 H 0.8184 0.0324 0.9335   0.170683
 H 0.1816 0.9335 0.9676   0.170683
 H 0.3184 0.4676 0.5665   0.170683
 H 0.6816 0.5665 0.5324   0.170683
 H 0.3184 0.5324 0.4335   0.170683
 H 0.6816 0.4335 0.4676   0.170683
 H 0.9049 0.0021 0.0903   0.14366
 H 0.0951 0.0903 0.9979   0.14366
 H 0.9049 0.9979 0.9097   0.14366
 H 0.0951 0.9097 0.0021   0.143659
 H 0.4049 0.5021 0.5903   0.14366
 H 0.5951 0.5903 0.4979   0.14366
 H 0.4049 0.4979 0.4097   0.14366
 H 0.5951 0.4097 0.5021   0.143659
 H 0.903 0.7228 0.4141   0.101773
 H 0.097 0.4141 0.2772   0.101773
 H 0.903 0.2772 0.5859   0.101773
 H 0.097 0.5859 0.7228   0.101773
 H 0.403 0.2228 0.9141   0.101773
 H 0.597 0.9141 0.7772   0.101773
 H 0.403 0.7772 0.0859   0.101773
 H 0.597 0.0859 0.2228   0.101773
 H 0.8103 0.9077 0.324   0.122059
 H 0.1897 0.324 0.0923   0.122059
 H 0.8103 0.0923 0.676   0.122059
 H 0.1897 0.676 0.9077   0.122059
 H 0.3103 0.4077 0.824   0.122059
 H 0.6897 0.824 0.5923   0.122059
 H 0.3103 0.5923 0.176   0.122059
 H 0.6897 0.176 0.4077   0.122059
 H 0.693 0.7252 0.2455   0.140329
 H 0.307 0.2455 0.2748   0.140329
 H 0.693 0.2748 0.7545   0.140329
 H 0.307 0.7545 0.7252   0.140329
 H 0.193 0.2252 0.7455   0.140329
 H 0.807 0.7455 0.7748   0.140329
 H 0.193 0.7748 0.2545   0.140329
 H 0.807 0.2545 0.2252   0.140329
 H 0.7548 0.7409 0.1808   0.161253
 H 0.2452 0.1808 0.2591   0.161253
 H 0.7548 0.2591 0.8192   0.161253
 H 0.2452 0.8192 0.7409   0.161253
 H 0.2548 0.2409 0.6808   0.161253
 H 0.7452 0.6808 0.7591   0.161253
 H 0.2548 0.7591 0.3192   0.161253
 H 0.7452 0.3192 0.2409   0.161253
 H 0.7156 0.8053 0.2249   0.139004
 H 0.2844 0.2249 0.1947   0.139004
 H 0.7156 0.1947 0.7751   0.139004
 H 0.2844 0.7751 0.8053   0.139004
 H 0.2156 0.3053 0.7249   0.139004
 H 0.7844 0.7249 0.6947   0.139004
 H 0.2156 0.6947 0.2751   0.139004
 H 0.7844 0.2751 0.3053   0.139004
 H 0.866 0.811 0.166   -0.195616
 H 0.134 0.166 0.189   -0.195616
 H 0.866 0.189 0.834   -0.195616
 H 0.134 0.834 0.811   -0.195616
 H 0.366 0.311 0.666   -0.195616
 H 0.634 0.666 0.689   -0.195616
 H 0.366 0.689 0.334   -0.195616
 H 0.634 0.334 0.311   -0.195616
 C 0.384 0.0318 0.0237   0.069205
 C 0.616 0.0237 0.9682   0.069205
 C 0.384 0.9682 0.9763   0.069205
 C 0.616 0.9763 0.0318   0.069205
 C 0.884 0.5318 0.5237   0.069205
 C 0.116 0.5237 0.4682   0.069205
 C 0.884 0.4682 0.4763   0.069205
 C 0.116 0.4763 0.5318   0.069205
 C 0.3557 0.0318 0.096   -0.165015
 C 0.6443 0.096 0.9682   -0.165015
 C 0.3557 0.9682 0.904   -0.165015
 C 0.6443 0.904 0.0318   -0.165015
 C 0.8557 0.5318 0.596   -0.165015
 C 0.1443 0.596 0.4682   -0.165015
 C 0.8557 0.4682 0.404   -0.165015
 C 0.1443 0.404 0.5318   -0.165015
 C 0.0251 0.9201 0.229   -0.121615
 C 0.9749 0.229 0.0799   -0.121615
 C 0.0251 0.0799 0.771   -0.121615
 C 0.9749 0.771 0.9201   -0.121615
 C 0.5251 0.4201 0.729   -0.121615
 C 0.4749 0.729 0.5799   -0.121615
 C 0.5251 0.5799 0.271   -0.121615
 C 0.4749 0.271 0.4201   -0.121615
 C 0.0477 0.8265 0.1649   0.386121
 C 0.9523 0.1649 0.1735   0.386121
 C 0.0477 0.1735 0.8351   0.386121
 C 0.9523 0.8351 0.8265   0.386121
 C 0.5477 0.3265 0.6649   0.386121
 C 0.4523 0.6649 0.6735   0.386121
 C 0.5477 0.6735 0.3351   0.386121
 C 0.4523 0.3351 0.3265   0.386121
 C 0.3714 0.089 0.1375   -0.040462
 C 0.6286 0.1375 0.911   -0.040462
 C 0.3714 0.911 0.8625   -0.040462
 C 0.6286 0.8625 0.089   -0.040462
 C 0.8714 0.589 0.6375   -0.040462
 C 0.1286 0.6375 0.411   -0.040462
 C 0.8714 0.411 0.3625   -0.040462
 C 0.1286 0.3625 0.589   -0.040462
 C 0.925 0.78 0.3222   -0.137026
 C 0.075 0.3222 0.22   -0.137026
 C 0.925 0.22 0.6778   -0.137026
 C 0.075 0.6778 0.78   -0.137026
 C 0.425 0.28 0.8222   -0.137026
 C 0.575 0.8222 0.72   -0.137026
 C 0.425 0.72 0.1778   -0.137026
 C 0.575 0.1778 0.28   -0.137026
 C 0.4251 0.0947 0.9971   -0.112765
 C 0.5749 0.9971 0.9053   -0.112765
 C 0.4251 0.9053 0.0029   -0.112765
 C 0.5749 0.0029 0.0947   -0.112765
 C 0.9251 0.5947 0.4971   -0.112765
 C 0.0749 0.4971 0.4053   -0.112765
 C 0.9251 0.4053 0.5029   -0.112765
 C 0.0749 0.5029 0.5947   -0.112765
 C 0.8361 0.9661 0.1731   0.415957
 C 0.1639 0.1731 0.0339   0.415957
 C 0.8361 0.0339 0.8269   0.415957
 C 0.1639 0.8269 0.9661   0.415957
 C 0.3361 0.4661 0.6731   0.415957
 C 0.6639 0.6731 0.5339   0.415957
 C 0.3361 0.5339 0.3269   0.415957
 C 0.6639 0.3269 0.4661   0.415957
 C 0.4108 0.1478 0.1107   -0.131771
 C 0.5892 0.1107 0.8522   -0.131771
 C 0.4108 0.8522 0.8893   -0.131771
 C 0.5892 0.8893 0.1478   -0.131771
 C 0.9108 0.6478 0.6107   -0.131771
 C 0.0892 0.6107 0.3522   -0.131771
 C 0.9108 0.3522 0.3893   -0.131771
 C 0.0892 0.3893 0.6478   -0.131771
 C 0.3117 0.9707 0.1265   0.704479
 C 0.6883 0.1265 0.0293   0.704479
 C 0.3117 0.0293 0.8735   0.704479
 C 0.6883 0.8735 0.9707   0.704479
 C 0.8117 0.4707 0.6265   0.704479
 C 0.1883 0.6265 0.5293   0.704479
 C 0.8117 0.5293 0.3735   0.704479
 C 0.1883 0.3735 0.4707   0.704479
 C 0.4381 0.1502 0.0393   -0.06619
 C 0.5619 0.0393 0.8498   -0.06619
 C 0.4381 0.8498 0.9607   -0.06619
 C 0.5619 0.9607 0.1502   -0.06619
 C 0.9381 0.6502 0.5393   -0.06619
 C 0.0619 0.5393 0.3498   -0.06619
 C 0.9381 0.3498 0.4607   -0.06619
 C 0.0619 0.4607 0.6502   -0.06619
 C 0.1054 0.9181 0.2076   0.016835
 C 0.8946 0.2076 0.0819   0.016835
 C 0.1054 0.0819 0.7924   0.016835
 C 0.8946 0.7924 0.9181   0.016835
 C 0.6054 0.4181 0.7076   0.016835
 C 0.3946 0.7076 0.5819   0.016835
 C 0.6054 0.5819 0.2924   0.016835
 C 0.3946 0.2924 0.4181   0.016835
 C 0.03 0.7562 0.1338   -0.445188
 C 0.97 0.1338 0.2438   -0.445188
 C 0.03 0.2438 0.8662   -0.445188
 C 0.97 0.8662 0.7562   -0.445188
 C 0.53 0.2562 0.6338   -0.445188
 C 0.47 0.6338 0.7438   -0.445188
 C 0.53 0.7438 0.3662   -0.445188
 C 0.47 0.3662 0.2562   -0.445188
 C 0.8658 0.9632 0.0988   -0.458626
 C 0.1342 0.0988 0.0368   -0.458626
 C 0.8658 0.0368 0.9012   -0.458626
 C 0.1342 0.9012 0.9632   -0.458626
 C 0.3658 0.4632 0.5988   -0.458626
 C 0.6342 0.5988 0.5368   -0.458626
 C 0.3658 0.5368 0.4012   -0.458626
 C 0.6342 0.4012 0.4632   -0.458626
 C 0.8837 0.7379 0.3689   0.013928
 C 0.1163 0.3689 0.2621   0.013928
 C 0.8837 0.2621 0.6311   0.013928
 C 0.1163 0.6311 0.7379   0.013928
 C 0.3837 0.2379 0.8689   0.013928
 C 0.6163 0.8689 0.7621   0.013928
 C 0.3837 0.7621 0.1311   0.013928
 C 0.6163 0.1311 0.2379   0.013928
 C 0.7823 0.0 0.2714   0.001555
 C 0.2177 0.2714 0.0   0.001555
 C 0.7823 0.0 0.7286   0.001555
 C 0.2177 0.7286 0.0   0.001555
 C 0.2823 0.5 0.7714   0.001555
 C 0.7177 0.7714 0.5   0.001555
 C 0.2823 0.5 0.2286   0.001555
 C 0.7177 0.2286 0.5   0.001555
 C 0.8124 0.9342 0.2812   -0.130918
 C 0.1876 0.2812 0.0658   -0.130918
 C 0.8124 0.0658 0.7188   -0.130918
 C 0.1876 0.7188 0.9342   -0.130918
 C 0.3124 0.4342 0.7812   -0.130918
 C 0.6876 0.7812 0.5658   -0.130918
 C 0.3124 0.5658 0.2188   -0.130918
 C 0.6876 0.2188 0.4342   -0.130918
 C 0.8072 0.7547 0.2763   0.408956
 C 0.1928 0.2763 0.2453   0.408956
 C 0.8072 0.2453 0.7237   0.408956
 C 0.1928 0.7237 0.7547   0.408956
 C 0.3072 0.2547 0.7763   0.408956
 C 0.6928 0.7763 0.7453   0.408956
 C 0.3072 0.7453 0.2237   0.408956
 C 0.6928 0.2237 0.2547   0.408956
 C 0.7369 0.7567 0.2279   -0.447033
 C 0.2631 0.2279 0.2433   -0.447033
 C 0.7369 0.2433 0.7721   -0.447033
 C 0.2631 0.7721 0.7567   -0.447033
 C 0.2369 0.2567 0.7279   -0.447033
 C 0.7631 0.7279 0.7433   -0.447033
 C 0.2369 0.7433 0.2721   -0.447033
 C 0.7631 0.2721 0.2567   -0.447033
 N 0.9869 0.8609 0.2016   -0.194314
 N 0.0131 0.2016 0.1391   -0.194314
 N 0.9869 0.1391 0.7984   -0.194314
 N 0.0131 0.7984 0.8609   -0.194314
 N 0.4869 0.3609 0.7016   -0.194314
 N 0.5131 0.7016 0.6391   -0.194314
 N 0.4869 0.6391 0.2984   -0.194314
 N 0.5131 0.2984 0.3609   -0.194314
 N 0.7979 0.0212 0.2017   -0.454971
 N 0.2021 0.2017 0.9788   -0.454971
 N 0.7979 0.9788 0.7983   -0.454971
 N 0.2021 0.7983 0.0212   -0.454971
 N 0.2979 0.5212 0.7017   -0.454971
 N 0.7021 0.7017 0.4788   -0.454971
 N 0.2979 0.4788 0.2983   -0.454971
 N 0.7021 0.2983 0.5212   -0.454971
 N 0.119 0.8599 0.1674   -0.442308
 N 0.881 0.1674 0.1401   -0.442308
 N 0.119 0.1401 0.8326   -0.442308
 N 0.881 0.8326 0.8599   -0.442308
 N 0.619 0.3599 0.6674   -0.442308
 N 0.381 0.6674 0.6401   -0.442308
 N 0.619 0.6401 0.3326   -0.442308
 N 0.381 0.3326 0.3599   -0.442308
 N 0.8467 0.9123 0.2183   -0.192075
 N 0.1533 0.2183 0.0877   -0.192075
 N 0.8467 0.0877 0.7817   -0.192075
 N 0.1533 0.7817 0.9123   -0.192075
 N 0.3467 0.4123 0.7183   -0.192075
 N 0.6533 0.7183 0.5877   -0.192075
 N 0.3467 0.5877 0.2817   -0.192075
 N 0.6533 0.2817 0.4123   -0.192075
 N 0.8762 0.792 0.265   -0.163316
 N 0.1238 0.265 0.208   -0.163316
 N 0.8762 0.208 0.735   -0.163316
 N 0.1238 0.735 0.792   -0.163316
 N 0.3762 0.292 0.765   -0.163316
 N 0.6238 0.765 0.708   -0.163316
 N 0.3762 0.708 0.235   -0.163316
 N 0.6238 0.235 0.292   -0.163316
 N 0.8084 0.7213 0.3382   -0.458139
 N 0.1916 0.3382 0.2787   -0.458139
 N 0.8084 0.2787 0.6618   -0.458139
 N 0.1916 0.6618 0.7213   -0.458139
 N 0.3084 0.2213 0.8382   -0.458139
 N 0.6916 0.8382 0.7787   -0.458139
 N 0.3084 0.7787 0.1618   -0.458139
 N 0.6916 0.1618 0.2213   -0.458139
 O 0.2695 0.9333 0.0856   -0.623924
 O 0.7305 0.0856 0.0667   -0.623924
 O 0.2695 0.0667 0.9144   -0.623924
 O 0.7305 0.9144 0.9333   -0.623924
 O 0.7695 0.4333 0.5856   -0.623924
 O 0.2305 0.5856 0.5667   -0.623924
 O 0.7695 0.5667 0.4144   -0.623924
 O 0.2305 0.4144 0.4333   -0.623924
 O 0.3142 0.9607 0.1894   -0.63569
 O 0.6858 0.1894 0.0393   -0.63569
 O 0.3142 0.0393 0.8106   -0.63569
 O 0.6858 0.8106 0.9607   -0.63569
 O 0.8142 0.4607 0.6894   -0.63569
 O 0.1858 0.6894 0.5393   -0.63569
 O 0.8142 0.5393 0.3106   -0.63569
 O 0.1858 0.3106 0.4607   -0.63569
