{'_ref': 'TBD', '_srcid': 'CAKYAQ_clean', 'submitters': [{'name': 'Dalar Nazarian Jeff Camp and David Sholl', 'email': 'dalar@gatech.edu jcamp6@gatech.edu'}], '_method': 'VASP DFT with PBE;DDEC'}
data_PrH14C9NO8
_symmetry_space_group_name_H-M   'P 1'
_cell_length_a   12.51400015
_cell_length_b   15.76700009
_cell_length_c   16.17100000
_cell_angle_alpha   114.12999801
_cell_angle_beta   104.05999838
_cell_angle_gamma   103.72000184
_symmetry_Int_Tables_number   1
_chemical_formula_structural   PrH14C9NO8
_chemical_formula_sum   'Pr6 H84 C54 N6 O48'
_cell_volume   2612.63862865
_cell_formula_units_Z   6
loop_
 _symmetry_equiv_pos_site_id
 _symmetry_equiv_pos_as_xyz
  1  'x, y, z'
loop_
 _atom_site_label
 _atom_site_fract_x
 _atom_site_fract_y
 _atom_site_fract_z
 _atom_site_charge
 Pr 0.53441 0.89374 0.03187   2.286626
 Pr 0.99719 0.97634 0.36568   2.325971
 Pr 0.86863 0.36322 0.90212   2.318225
 Pr 0.46559 0.10626 0.96813   2.286652
 Pr 0.00281 0.02366 0.63432   2.326006
 Pr 0.13137 0.63678 0.09788   2.318238
 H 0.1795 0.4315 0.2124   0.125992
 H 0.0903 0.4323 0.2644   0.129497
 H 0.0266 0.2909 0.2097   0.072832
 H 0.1509 0.3041 0.2031   0.078999
 H 0.369 0.9016 0.3149   0.132389
 H 0.2723 0.9217 0.2527   0.171599
 H 0.3931 0.0654 0.292   0.083798
 H 0.4193 0.0605 0.389   0.091859
 H 0.687 0.1979 0.4112   0.0697
 H 0.5645 0.2053 0.4073   0.067583
 H 0.5313 0.2173 0.2884   0.124185
 H 0.6695 0.2656 0.3334   0.135367
 H 0.5733 0.013 0.4403   0.070182
 H 0.6707 0.1193 0.4821   0.081215
 H 0.6657 0.9387 0.347   0.142413
 H 0.7567 0.0428 0.3754   0.14794
 H 0.5952 0.665 0.089   0.140206
 H 0.524 0.7264 0.1362   0.167609
 H 0.6115 0.7342 0.2819   0.0833
 H 0.5467 0.6222 0.1976   0.104708
 H 0.7044 0.5863 0.323   0.084139
 H 0.722 0.6988 0.3863   0.088847
 H 0.8894 0.6649 0.4463   0.124946
 H 0.9083 0.6401 0.3478   0.127017
 H 0.7497 0.5332 0.1881   0.101633
 H 0.6523 0.542 0.1134   0.093669
 H 0.9 0.6515 0.182   0.156311
 H 0.8022 0.6588 0.1063   0.143502
 H 0.1193 0.122 0.8995   0.161022
 H 0.003 0.0664 0.906   0.132703
 H 0.1453 0.1675 0.0628   0.098402
 H 0.1699 0.2619 0.0487   0.098127
 H 0.9362 0.0757 0.016   0.072001
 H 0.9528 0.1373 0.1259   0.097568
 H 0.787 0.1285 0.9687   0.144516
 H 0.8038 0.1907 0.0784   0.164034
 H 0.6293 0.7426 0.942   0.374056
 H 0.3485 0.726 0.0049   0.349686
 H 0.1606 0.0868 0.3096   0.375606
 H 0.8271 0.9969 0.2265   0.366075
 H 0.6532 0.3193 0.7462   0.370059
 H 0.8345 0.2779 0.6987   0.36368
 H 0.8205 0.5685 0.7876   0.126261
 H 0.9097 0.5677 0.7356   0.130033
 H 0.9734 0.7091 0.7903   0.072909
 H 0.8491 0.6959 0.7969   0.079117
 H 0.631 0.0984 0.6851   0.132482
 H 0.7277 0.0783 0.7473   0.17162
 H 0.6069 0.9346 0.708   0.083842
 H 0.5807 0.9395 0.611   0.091995
 H 0.313 0.8021 0.5888   0.069841
 H 0.4355 0.7947 0.5927   0.067967
 H 0.4687 0.7827 0.7116   0.1242
 H 0.3305 0.7344 0.6666   0.135649
 H 0.4267 0.987 0.5597   0.070357
 H 0.3293 0.8807 0.5179   0.081246
 H 0.3343 0.0613 0.653   0.142413
 H 0.2433 0.9572 0.6246   0.147939
 H 0.4048 0.335 0.911   0.140275
 H 0.476 0.2736 0.8638   0.167613
 H 0.3885 0.2658 0.7181   0.083527
 H 0.4533 0.3778 0.8024   0.104824
 H 0.2956 0.4137 0.677   0.08427
 H 0.278 0.3012 0.6137   0.089098
 H 0.1106 0.3351 0.5537   0.125441
 H 0.0917 0.3599 0.6522   0.127081
 H 0.2503 0.4668 0.8119   0.10164
 H 0.3477 0.458 0.8866   0.093741
 H 0.1 0.3485 0.818   0.156315
 H 0.1978 0.3412 0.8937   0.143542
 H 0.8807 0.878 0.1005   0.161049
 H 0.997 0.9336 0.094   0.13279
 H 0.8547 0.8325 0.9372   0.098466
 H 0.8301 0.7381 0.9513   0.098234
 H 0.0638 0.9243 0.984   0.072081
 H 0.0472 0.8627 0.8741   0.097567
 H 0.213 0.8715 0.0313   0.144564
 H 0.1962 0.8093 0.9216   0.164101
 H 0.3707 0.2574 0.058   0.374288
 H 0.6515 0.274 0.9951   0.349756
 H 0.8394 0.9132 0.6904   0.375674
 H 0.1729 0.0031 0.7735   0.36611
 H 0.3468 0.6807 0.2538   0.370487
 H 0.1655 0.7221 0.3013   0.363712
 C 0.096 0.402 0.2008   -0.365005
 C 0.075 0.3076 0.1757   0.025053
 C 0.0326 0.4407 0.1442   0.799075
 C 0.3698 0.8608 0.1771   0.79164
 C 0.355 0.9286 0.271   -0.394269
 C 0.4267 0.0336 0.3258   -0.003664
 C 0.6041 0.1709 0.368   0.009964
 C 0.6023 0.2022 0.3008   -0.347409
 C 0.6049 0.1416 0.2027   0.768854
 C 0.6269 0.0535 0.4242   0.000854
 C 0.7106 0.0074 0.3999   -0.372363
 C 0.7953 0.0058 0.4819   0.757941
 C 0.699 0.816 0.1796   0.777476
 C 0.5993 0.7177 0.1495   -0.38995
 C 0.6136 0.6841 0.223   -0.018591
 C 0.7496 0.655 0.3419   -0.014995
 C 0.8792 0.6805 0.3935   -0.331074
 C 0.9511 0.7916 0.4351   0.754044
 C 0.7303 0.5785 0.1662   -0.024473
 C 0.8223 0.6141 0.1288   -0.367874
 C 0.8269 0.5273 0.0465   0.756728
 C 0.9853 0.166 0.8604   0.799511
 C 0.0548 0.1316 0.9206   -0.406555
 C 0.1082 0.2004 0.0322   -0.028407
 C 0.9313 0.1356 0.0632   -0.014925
 C 0.8078 0.1301 0.0313   -0.36675
 C 0.7175 0.041 0.0209   0.76055
 C 0.904 0.598 0.7992   -0.365282
 C 0.925 0.6924 0.8243   0.025058
 C 0.9674 0.5593 0.8558   0.799133
 C 0.6302 0.1392 0.8229   0.79165
 C 0.645 0.0714 0.729   -0.394294
 C 0.5733 0.9664 0.6742   -0.00373
 C 0.3959 0.8291 0.632   0.009836
 C 0.3977 0.7978 0.6992   -0.347478
 C 0.3951 0.8584 0.7973   0.768873
 C 0.3731 0.9465 0.5758   0.00079
 C 0.2894 0.9926 0.6001   -0.372346
 C 0.2047 0.9942 0.5181   0.757921
 C 0.301 0.184 0.8204   0.777478
 C 0.4007 0.2823 0.8505   -0.389947
 C 0.3864 0.3159 0.777   -0.018712
 C 0.2504 0.345 0.6581   -0.015078
 C 0.1208 0.3195 0.6065   -0.331241
 C 0.0489 0.2084 0.5649   0.754084
 C 0.2697 0.4215 0.8338   -0.024497
 C 0.1777 0.3859 0.8712   -0.367887
 C 0.1731 0.4727 0.9535   0.756729
 C 0.0147 0.834 0.1396   0.799516
 C 0.9452 0.8684 0.0794   -0.406584
 C 0.8918 0.7996 0.9678   -0.028461
 C 0.0687 0.8644 0.9368   -0.014946
 C 0.1922 0.8699 0.9687   -0.366786
 C 0.2825 0.959 0.9791   0.760557
 N 0.555 0.0647 0.344   0.05403
 N 0.728 0.6668 0.25   0.045245
 N 0.0179 0.2261 0.0731   0.060177
 N 0.445 0.9353 0.656   0.054078
 N 0.272 0.3332 0.75   0.045292
 N 0.9821 0.7739 0.9269   0.060202
 O 0.4568 0.8946 0.1618   -0.656887
 O 0.6213 0.0618 0.1855   -0.640168
 O 0.7473 0.9892 0.0544   -0.560837
 O 0.6772 0.8664 0.1387   -0.696039
 O 0.6044 0.7737 0.9172   -0.831162
 O 0.3825 0.7238 0.9671   -0.760079
 O 0.591 0.1762 0.1453   -0.637296
 O 0.6067 0.0219 0.9772   -0.828476
 O 0.8705 0.9673 0.4605   -0.834065
 O 0.7973 0.841 0.242   -0.653881
 O 0.9644 0.818 0.3742   -0.632383
 O 0.7952 0.0402 0.5643   -0.549189
 O 0.1659 0.104 0.3662   -0.832868
 O 0.985 0.8486 0.5263   -0.638981
 O 0.8918 0.041 0.2673   -0.804802
 O 0.9524 0.2356 0.9021   -0.653002
 O 0.2953 0.7729 0.1227   -0.707325
 O 0.9437 0.3779 0.0677   -0.643403
 O 0.7521 0.4404 0.0069   -0.557547
 O 0.686 0.3708 0.7997   -0.844546
 O 0.0712 0.5334 0.1764   -0.704182
 O 0.8516 0.2527 0.733   -0.784769
 O 0.9138 0.5459 0.0196   -0.832612
 O 0.9618 0.1234 0.771   -0.672011
 O 0.5432 0.1054 0.8382   -0.656888
 O 0.3787 0.9382 0.8145   -0.640166
 O 0.2527 0.0108 0.9456   -0.560835
 O 0.3228 0.1336 0.8613   -0.696046
 O 0.3956 0.2263 0.0828   -0.831275
 O 0.6175 0.2762 0.0329   -0.760039
 O 0.409 0.8238 0.8547   -0.637299
 O 0.3933 0.9781 0.0228   -0.828476
 O 0.1295 0.0327 0.5395   -0.834062
 O 0.2027 0.159 0.758   -0.653879
 O 0.0356 0.182 0.6258   -0.632467
 O 0.2048 0.9598 0.4357   -0.549224
 O 0.8341 0.896 0.6338   -0.832931
 O 0.015 0.1514 0.4737   -0.63907
 O 0.1082 0.959 0.7327   -0.804858
 O 0.0476 0.7644 0.0979   -0.653005
 O 0.7047 0.2271 0.8773   -0.707332
 O 0.0563 0.6221 0.9323   -0.643406
 O 0.2479 0.5596 0.9931   -0.557535
 O 0.314 0.6292 0.2003   -0.844667
 O 0.9288 0.4666 0.8236   -0.704172
 O 0.1484 0.7473 0.267   -0.784807
 O 0.0862 0.4541 0.9804   -0.832613
 O 0.0382 0.8766 0.229   -0.672009
