{'_ref': 'TBD', '_srcid': 'CAKYAQ_clean', 'submitters': [{'name': 'Dalar Nazarian Jeff Camp and David Sholl', 'email': 'dalar@gatech.edu jcamp6@gatech.edu'}], '_method': 'VASP DFT with PBE;DDEC'}
data_Zn2H6C18O9F8
_symmetry_space_group_name_H-M   'P 1'
_cell_length_a   8.24600000
_cell_length_b   9.70499974
_cell_length_c   19.40800000
_cell_angle_alpha   90.00000000
_cell_angle_beta   90.00000000
_cell_angle_gamma   101.78999968
_symmetry_Int_Tables_number   1
_chemical_formula_structural   Zn2H6C18O9F8
_chemical_formula_sum   'Zn4 H12 C36 O18 F16'
_cell_volume   1520.40514575
_cell_formula_units_Z   2
loop_
 _symmetry_equiv_pos_site_id
 _symmetry_equiv_pos_as_xyz
  1  'x, y, z'
loop_
 _atom_site_label
 _atom_site_fract_x
 _atom_site_fract_y
 _atom_site_fract_z
 _atom_site_charge
 Zn 0.28527 0.15785 0.48235   1.127616
 Zn 0.63807 0.05371 0.426   1.133741
 Zn 0.71473 0.84215 0.98235   1.127616
 Zn 0.36193 0.94629 0.926   1.133741
 H 0.0401 0.2 0.6021   0.036057
 H 0.9523 0.3209 0.5776   0.062917
 H 0.1401 0.4487 0.6406   0.12377
 H 0.2472 0.4522 0.5736   0.132433
 H 0.2625 0.3456 0.6327   0.118303
 H 0.2084 0.2485 0.4907   0.092202
 H 0.9599 0.8 0.1021   0.036057
 H 0.0477 0.6791 0.0776   0.062917
 H 0.8599 0.5513 0.1406   0.12377
 H 0.7528 0.5478 0.0736   0.132433
 H 0.7375 0.6544 0.1327   0.118303
 H 0.7916 0.7515 0.9907   0.092202
 C 0.0557 0.2878 0.5767   0.233588
 C 0.1878 0.3927 0.6087   -0.410037
 C 0.4801 0.027 0.57302   0.7715
 C 0.5294 0.984 0.64378   -0.259888
 C 0.4849 0.8476 0.66731   0.193087
 C 0.5314 0.809 0.73179   0.20452
 C 0.6242 0.9072 0.77576   -0.309769
 C 0.6681 0.0429 0.75227   0.197277
 C 0.6223 0.0813 0.68768   0.193125
 C 0.6758 0.8671 0.84649   0.738375
 C 0.6129 0.3557 0.46899   0.754954
 C 0.708 0.5081 0.47071   -0.263285
 C 0.7149 0.5904 0.52971   0.197472
 C 0.7943 0.7307 0.52908   0.204651
 C 0.8679 0.7945 0.47038   -0.315784
 C 0.8596 0.7133 0.41172   0.19138
 C 0.7822 0.5734 0.41211   0.211802
 C 0.9583 0.9485 0.47037   0.753264
 C 0.9443 0.7122 0.0767   0.233588
 C 0.8122 0.6073 0.1087   -0.410037
 C 0.5199 0.973 0.07302   0.7715
 C 0.4706 0.016 0.14378   -0.259888
 C 0.5151 0.1524 0.16731   0.193087
 C 0.4686 0.191 0.23179   0.20452
 C 0.3758 0.0928 0.27576   -0.309769
 C 0.3319 0.9571 0.25227   0.197277
 C 0.3777 0.9187 0.18768   0.193125
 C 0.3242 0.1329 0.34649   0.738374
 C 0.3871 0.6443 0.96899   0.754954
 C 0.292 0.4919 0.97071   -0.263285
 C 0.2851 0.4096 0.02971   0.197472
 C 0.2057 0.2693 0.02908   0.204651
 C 0.1321 0.2055 0.97038   -0.315784
 C 0.1404 0.2867 0.91172   0.19138
 C 0.2178 0.4266 0.91211   0.211802
 C 0.0417 0.0515 0.97037   0.753264
 O 0.5494 0.983 0.5231   -0.629396
 O 0.3731 0.0997 0.57214   -0.582195
 O 0.7818 0.7968 0.85217   -0.478786
 O 0.6057 0.9137 0.8982   -0.703344
 O 0.4613 0.3418 0.47945   -0.575928
 O 0.6955 0.2647 0.4567   -0.594403
 O 0.8771 0.0413 0.46035   -0.573522
 O 0.1095 0.9675 0.48133   -0.551629
 O 0.1026 0.2657 0.50567   -0.401914
 O 0.4506 0.017 0.0231   -0.629396
 O 0.6269 0.9003 0.07214   -0.582195
 O 0.2182 0.2032 0.35217   -0.478786
 O 0.3943 0.0863 0.3982   -0.703344
 O 0.5387 0.6582 0.97945   -0.575928
 O 0.3045 0.7353 0.9567   -0.594403
 O 0.1229 0.9587 0.96035   -0.573522
 O 0.8905 0.0325 0.98133   -0.551629
 O 0.8974 0.7343 0.00567   -0.401914
 F 0.3937 0.7488 0.62676   -0.121949
 F 0.4808 0.6753 0.75233   -0.122606
 F 0.764 0.1411 0.79156   -0.127721
 F 0.6704 0.2159 0.66721   -0.128467
 F 0.6456 0.5344 0.58844   -0.123029
 F 0.8001 0.8051 0.58811   -0.129047
 F 0.926 0.7715 0.35282   -0.134483
 F 0.7796 0.4994 0.3533   -0.134846
 F 0.6063 0.2512 0.12676   -0.121949
 F 0.5192 0.3247 0.25233   -0.122606
 F 0.236 0.8589 0.29156   -0.127722
 F 0.3296 0.7841 0.16721   -0.128467
 F 0.3544 0.4656 0.08844   -0.123029
 F 0.1999 0.1949 0.08811   -0.129047
 F 0.074 0.2285 0.85282   -0.134484
 F 0.2204 0.5006 0.8533   -0.134847
