{'_ref': 'TBD', '_srcid': 'CAKYAQ_clean', 'submitters': [{'name': 'Dalar Nazarian Jeff Camp and David Sholl', 'email': 'dalar@gatech.edu jcamp6@gatech.edu'}], '_method': 'VASP DFT with PBE;DDEC'}
data_Zn2H6C18O9F8
_symmetry_space_group_name_H-M   'P 1'
_cell_length_a   8.23360000
_cell_length_b   9.69700015
_cell_length_c   19.40200000
_cell_angle_alpha   90.00000000
_cell_angle_beta   90.00000000
_cell_angle_gamma   101.72700076
_symmetry_Int_Tables_number   1
_chemical_formula_structural   Zn2H6C18O9F8
_chemical_formula_sum   'Zn4 H12 C36 O18 F16'
_cell_volume   1516.74563855
_cell_formula_units_Z   2
loop_
 _symmetry_equiv_pos_site_id
 _symmetry_equiv_pos_as_xyz
  1  'x, y, z'
loop_
 _atom_site_label
 _atom_site_fract_x
 _atom_site_fract_y
 _atom_site_fract_z
 _atom_site_charge
 Zn 0.28491 0.15703 0.29588   1.101961
 Zn 0.63815 0.05313 0.23975   1.135466
 Zn 0.71509 0.84297 0.79588   1.101961
 Zn 0.36185 0.94687 0.73975   1.135466
 H 0.1482 0.1977 0.3215   0.145638
 H 0.9868 0.3663 0.3793   0.045242
 H 0.0169 0.2257 0.4094   0.016748
 H 0.2119 0.4695 0.4102   0.116847
 H 0.2603 0.3286 0.4338   0.119866
 H 0.1147 0.3817 0.4705   0.162565
 H 0.8518 0.8023 0.8215   0.145638
 H 0.0132 0.6337 0.8793   0.045242
 H 0.9831 0.7743 0.9094   0.016748
 H 0.7881 0.5305 0.9102   0.116847
 H 0.7397 0.6714 0.9338   0.119866
 H 0.8853 0.6183 0.9705   0.162565
 C 0.4689 0.1901 0.0456   0.206334
 C 0.5154 0.1536 0.9816   0.193461
 C 0.4713 0.0159 0.9574   -0.268747
 C 0.3786 0.9184 0.0012   0.196496
 C 0.3307 0.956 0.0654   0.196462
 C 0.3762 0.0921 0.0895   -0.312104
 C 0.3248 0.133 0.1603   0.745895
 C 0.5206 0.9744 0.8865   0.782231
 C 0.8594 0.712 0.226   0.190059
 C 0.7829 0.5724 0.2258   0.214339
 C 0.7073 0.5078 0.2843   -0.264197
 C 0.7135 0.5888 0.3429   0.199544
 C 0.7944 0.7296 0.3428   0.204796
 C 0.8677 0.7934 0.2846   -0.319965
 C 0.9588 0.9473 0.2846   0.755389
 C 0.6127 0.3552 0.2828   0.758597
 C 0.0709 0.31 0.3854   0.269646
 C 0.17 0.376 0.4273   -0.436326
 C 0.5311 0.8099 0.5456   0.206334
 C 0.4846 0.8464 0.4816   0.193461
 C 0.5287 0.9841 0.4574   -0.268747
 C 0.6214 0.0816 0.5012   0.196496
 C 0.6693 0.044 0.5654   0.196462
 C 0.6238 0.9079 0.5895   -0.312104
 C 0.6752 0.867 0.6603   0.745895
 C 0.4794 0.0256 0.3865   0.782231
 C 0.1406 0.288 0.726   0.190059
 C 0.2171 0.4276 0.7258   0.214339
 C 0.2927 0.4922 0.7843   -0.264197
 C 0.2865 0.4112 0.8429   0.199544
 C 0.2056 0.2704 0.8428   0.204796
 C 0.1323 0.2066 0.7846   -0.319965
 C 0.0412 0.0527 0.7846   0.755389
 C 0.3873 0.6448 0.7828   0.758597
 C 0.9291 0.69 0.8854   0.269646
 C 0.83 0.624 0.9273   -0.436326
 O 0.3935 0.0865 0.21158   -0.702935
 O 0.2197 0.2038 0.1661   -0.491302
 O 0.627 0.9005 0.88553   -0.590237
 O 0.45 0.0169 0.83701   -0.627262
 O 0.1091 0.9672 0.295   -0.532014
 O 0.8766 0.0405 0.2742   -0.574153
 O 0.6959 0.2638 0.2702   -0.605252
 O 0.4612 0.3411 0.2933   -0.593204
 O 0.1028 0.2653 0.3188   -0.410018
 O 0.6065 0.9135 0.71158   -0.702935
 O 0.7803 0.7962 0.6661   -0.491302
 O 0.373 0.0995 0.38553   -0.590237
 O 0.55 0.9831 0.33701   -0.627262
 O 0.8909 0.0328 0.795   -0.532013
 O 0.1234 0.9595 0.7742   -0.574153
 O 0.3041 0.7362 0.7702   -0.605252
 O 0.5388 0.6589 0.7933   -0.593204
 O 0.8972 0.7347 0.8188   -0.410018
 F 0.5187 0.3238 0.066   -0.123797
 F 0.6057 0.2518 0.94062   -0.126022
 F 0.3301 0.7841 0.98046   -0.129955
 F 0.2364 0.8579 0.1051   -0.126736
 F 0.9263 0.7703 0.16662   -0.142763
 F 0.7795 0.4991 0.16716   -0.129699
 F 0.6462 0.5332 0.40196   -0.122536
 F 0.8003 0.8037 0.40179   -0.128356
 F 0.4813 0.6762 0.566   -0.123798
 F 0.3943 0.7482 0.44062   -0.126022
 F 0.6699 0.2159 0.48046   -0.129955
 F 0.7636 0.1421 0.6051   -0.126736
 F 0.0737 0.2297 0.66662   -0.142763
 F 0.2205 0.5009 0.66716   -0.129698
 F 0.3538 0.4668 0.90196   -0.122537
 F 0.1997 0.1963 0.90179   -0.128356
