{'_ref': 'TBD', '_srcid': 'CAKYAQ_clean', 'submitters': [{'name': 'Dalar Nazarian Jeff Camp and David Sholl', 'email': 'dalar@gatech.edu jcamp6@gatech.edu'}], '_method': 'VASP DFT with PBE;DDEC'}
data_ErH9C16O7
_symmetry_space_group_name_H-M   'P 1'
_cell_length_a   18.82259974
_cell_length_b   18.82259982
_cell_length_c   18.82260000
_cell_angle_alpha   62.89810047
_cell_angle_beta   62.89810034
_cell_angle_gamma   62.89810000
_symmetry_Int_Tables_number   1
_chemical_formula_structural   ErH9C16O7
_chemical_formula_sum   'Er6 H54 C96 O42'
_cell_volume   5019.08563105
_cell_formula_units_Z   6
loop_
 _symmetry_equiv_pos_site_id
 _symmetry_equiv_pos_as_xyz
  1  'x, y, z'
loop_
 _atom_site_label
 _atom_site_fract_x
 _atom_site_fract_y
 _atom_site_fract_z
 _atom_site_charge
 Er 0.99556 0.55932 0.56628   1.489812
 Er 0.56628 0.99556 0.55932   1.489811
 Er 0.55932 0.56628 0.99556   1.489811
 Er 0.00444 0.44068 0.43372   1.489812
 Er 0.43372 0.00444 0.44068   1.489811
 Er 0.44068 0.43372 0.00444   1.489811
 H 0.225 0.5181 0.2359   0.110819
 H 0.3899 0.6373 0.1552   0.115601
 H 0.1943 0.6553 0.3658   0.137873
 H 0.4399 0.667 0.2282   0.077379
 H 0.3964 0.7503 0.1677   0.07844
 H 0.3941 0.8793 0.1658   0.110006
 H 0.4048 0.9547 0.2261   0.103006
 H 0.439 0.753 0.4212   0.092121
 H 0.4338 0.6756 0.3583   0.103256
 H 0.2359 0.225 0.5181   0.110819
 H 0.1552 0.3899 0.6373   0.115601
 H 0.3658 0.1943 0.6553   0.137874
 H 0.2282 0.4399 0.667   0.077379
 H 0.1677 0.3964 0.7503   0.07844
 H 0.1658 0.3941 0.8793   0.110006
 H 0.2261 0.4048 0.9547   0.103006
 H 0.4212 0.439 0.753   0.092121
 H 0.3583 0.4338 0.6756   0.103256
 H 0.5181 0.2359 0.225   0.110819
 H 0.6373 0.1552 0.3899   0.115601
 H 0.6553 0.3658 0.1943   0.137874
 H 0.667 0.2282 0.4399   0.077379
 H 0.7503 0.1677 0.3964   0.07844
 H 0.8793 0.1658 0.3941   0.110006
 H 0.9547 0.2261 0.4048   0.103006
 H 0.753 0.4212 0.439   0.092121
 H 0.6756 0.3583 0.4338   0.103256
 H 0.775 0.4819 0.7641   0.110819
 H 0.6101 0.3627 0.8448   0.115601
 H 0.8057 0.3447 0.6342   0.137873
 H 0.5601 0.333 0.7718   0.077379
 H 0.6036 0.2497 0.8323   0.07844
 H 0.6059 0.1207 0.8342   0.110005
 H 0.5952 0.0453 0.7739   0.103006
 H 0.561 0.247 0.5788   0.092122
 H 0.5662 0.3244 0.6417   0.103258
 H 0.7641 0.775 0.4819   0.110819
 H 0.8448 0.6101 0.3627   0.115601
 H 0.6342 0.8057 0.3447   0.137874
 H 0.7718 0.5601 0.333   0.077379
 H 0.8323 0.6036 0.2497   0.07844
 H 0.8342 0.6059 0.1207   0.110005
 H 0.7739 0.5952 0.0453   0.103006
 H 0.5788 0.561 0.247   0.092122
 H 0.6417 0.5662 0.3244   0.103258
 H 0.4819 0.7641 0.775   0.110819
 H 0.3627 0.8448 0.6101   0.115601
 H 0.3447 0.6342 0.8057   0.137874
 H 0.333 0.7718 0.5601   0.077379
 H 0.2497 0.8323 0.6036   0.07844
 H 0.1207 0.8342 0.6059   0.110005
 H 0.0453 0.7739 0.5952   0.103005
 H 0.247 0.5788 0.561   0.092122
 H 0.3244 0.6417 0.5662   0.103258
 C 0.11956 0.56096 0.37516   0.720906
 C 0.19652 0.58542 0.31022   -0.117891
 C 0.24302 0.55242 0.24272   0.020814
 C 0.31564 0.57144 0.18684   -0.095589
 C 0.34179 0.62339 0.19439   -0.151806
 C 0.29541 0.65551 0.26211   0.260589
 C 0.22384 0.63504 0.32004   -0.124592
 C 0.3953 0.7204 0.2257   0.074816
 C 0.4067 0.7707 0.2594   0.043445
 C 0.4022 0.8532 0.2183   -0.147574
 C 0.4094 0.8981 0.2544   -0.022047
 C 0.42282 0.86272 0.32862   -0.115412
 C 0.42821 0.91161 0.36881   0.643876
 C 0.4303 0.779 0.3691   -0.042069
 C 0.4248 0.7331 0.3323   -0.143023
 C 0.36351 0.53501 0.11741   0.699343
 C 0.37516 0.11956 0.56096   0.720906
 C 0.31022 0.19652 0.58542   -0.117891
 C 0.24272 0.24302 0.55242   0.020814
 C 0.18684 0.31564 0.57144   -0.095589
 C 0.19439 0.34179 0.62339   -0.151806
 C 0.26211 0.29541 0.65551   0.260589
 C 0.32004 0.22384 0.63504   -0.124592
 C 0.2257 0.3953 0.7204   0.074816
 C 0.2594 0.4067 0.7707   0.043445
 C 0.2183 0.4022 0.8532   -0.147574
 C 0.2544 0.4094 0.8981   -0.022047
 C 0.32862 0.42282 0.86272   -0.115412
 C 0.36881 0.42821 0.91161   0.643876
 C 0.3691 0.4303 0.779   -0.042069
 C 0.3323 0.4248 0.7331   -0.143023
 C 0.11741 0.36351 0.53501   0.699343
 C 0.56096 0.37516 0.11956   0.720906
 C 0.58542 0.31022 0.19652   -0.117891
 C 0.55242 0.24272 0.24302   0.020814
 C 0.57144 0.18684 0.31564   -0.095589
 C 0.62339 0.19439 0.34179   -0.151806
 C 0.65551 0.26211 0.29541   0.260589
 C 0.63504 0.32004 0.22384   -0.124592
 C 0.7204 0.2257 0.3953   0.074816
 C 0.7707 0.2594 0.4067   0.043445
 C 0.8532 0.2183 0.4022   -0.147574
 C 0.8981 0.2544 0.4094   -0.022047
 C 0.86272 0.32862 0.42282   -0.115412
 C 0.91161 0.36881 0.42821   0.643876
 C 0.779 0.3691 0.4303   -0.042069
 C 0.7331 0.3323 0.4248   -0.143023
 C 0.53501 0.11741 0.36351   0.699343
 C 0.88044 0.43904 0.62484   0.720906
 C 0.80348 0.41458 0.68978   -0.117891
 C 0.75698 0.44758 0.75728   0.020814
 C 0.68436 0.42856 0.81316   -0.095589
 C 0.65821 0.37661 0.80561   -0.151806
 C 0.70459 0.34449 0.73789   0.260589
 C 0.77616 0.36496 0.67996   -0.124592
 C 0.6047 0.2796 0.7743   0.074816
 C 0.5933 0.2293 0.7406   0.043445
 C 0.5978 0.1468 0.7817   -0.147574
 C 0.5906 0.1019 0.7456   -0.022047
 C 0.57718 0.13728 0.67138   -0.115412
 C 0.57179 0.08839 0.63119   0.643876
 C 0.5697 0.221 0.6309   -0.042069
 C 0.5752 0.2669 0.6677   -0.143024
 C 0.63649 0.46499 0.88259   0.699343
 C 0.62484 0.88044 0.43904   0.720906
 C 0.68978 0.80348 0.41458   -0.117891
 C 0.75728 0.75698 0.44758   0.020814
 C 0.81316 0.68436 0.42856   -0.095589
 C 0.80561 0.65821 0.37661   -0.151806
 C 0.73789 0.70459 0.34449   0.260589
 C 0.67996 0.77616 0.36496   -0.124592
 C 0.7743 0.6047 0.2796   0.074816
 C 0.7406 0.5933 0.2293   0.043445
 C 0.7817 0.5978 0.1468   -0.147574
 C 0.7456 0.5906 0.1019   -0.022047
 C 0.67138 0.57718 0.13728   -0.115412
 C 0.63119 0.57179 0.08839   0.643876
 C 0.6309 0.5697 0.221   -0.042069
 C 0.6677 0.5752 0.2669   -0.143024
 C 0.88259 0.63649 0.46499   0.699343
 C 0.43904 0.62484 0.88044   0.720906
 C 0.41458 0.68978 0.80348   -0.117891
 C 0.44758 0.75728 0.75698   0.020814
 C 0.42856 0.81316 0.68436   -0.095589
 C 0.37661 0.80561 0.65821   -0.151806
 C 0.34449 0.73789 0.70459   0.260589
 C 0.36496 0.67996 0.77616   -0.124592
 C 0.2796 0.7743 0.6047   0.074816
 C 0.2293 0.7406 0.5933   0.043445
 C 0.1468 0.7817 0.5978   -0.147574
 C 0.1019 0.7456 0.5906   -0.022047
 C 0.13728 0.67138 0.57718   -0.115412
 C 0.08839 0.63119 0.57179   0.643876
 C 0.221 0.6309 0.5697   -0.042069
 C 0.2669 0.6677 0.5752   -0.143024
 C 0.46499 0.88259 0.63649   0.699343
 O 0.07871 0.59521 0.43021   -0.591264
 O 0.10472 0.50602 0.36832   -0.654431
 O 0.43792 0.98262 0.32502   -0.582521
 O 0.42128 0.88278 0.44468   -0.620087
 O 0.33639 0.49199 0.10709   -0.580987
 O 0.43322 0.54722 0.07002   -0.669955
 O 0.31635 0.70715 0.27605   -0.222854
 O 0.43021 0.07871 0.59521   -0.591264
 O 0.36832 0.10472 0.50602   -0.654431
 O 0.32502 0.43792 0.98262   -0.582521
 O 0.44468 0.42128 0.88278   -0.620087
 O 0.10709 0.33639 0.49199   -0.580987
 O 0.07002 0.43322 0.54722   -0.669955
 O 0.27605 0.31635 0.70715   -0.222854
 O 0.59521 0.43021 0.07871   -0.591264
 O 0.50602 0.36832 0.10472   -0.654431
 O 0.98262 0.32502 0.43792   -0.582521
 O 0.88278 0.44468 0.42128   -0.620087
 O 0.49199 0.10709 0.33639   -0.580987
 O 0.54722 0.07002 0.43322   -0.669955
 O 0.70715 0.27605 0.31635   -0.222854
 O 0.92129 0.40479 0.56979   -0.591264
 O 0.89528 0.49398 0.63168   -0.654431
 O 0.56208 0.01738 0.67498   -0.582521
 O 0.57872 0.11722 0.55532   -0.620087
 O 0.66361 0.50801 0.89291   -0.580987
 O 0.56678 0.45278 0.92998   -0.669955
 O 0.68365 0.29285 0.72395   -0.222854
 O 0.56979 0.92129 0.40479   -0.591264
 O 0.63168 0.89528 0.49398   -0.654431
 O 0.67498 0.56208 0.01738   -0.582521
 O 0.55532 0.57872 0.11722   -0.620087
 O 0.89291 0.66361 0.50801   -0.580987
 O 0.92998 0.56678 0.45278   -0.669955
 O 0.72395 0.68365 0.29285   -0.222854
 O 0.40479 0.56979 0.92129   -0.591264
 O 0.49398 0.63168 0.89528   -0.654431
 O 0.01738 0.67498 0.56208   -0.582521
 O 0.11722 0.55532 0.57872   -0.620087
 O 0.50801 0.89291 0.66361   -0.580987
 O 0.45278 0.92998 0.56678   -0.669955
 O 0.29285 0.72395 0.68365   -0.222854
