{'_ref': 'TBD', '_srcid': 'CAKYAQ_clean', 'submitters': [{'name': 'Dalar Nazarian Jeff Camp and David Sholl', 'email': 'dalar@gatech.edu jcamp6@gatech.edu'}], '_method': 'VASP DFT with PBE;DDEC'}
data_ZnH13C19Br2(NO3)2
_symmetry_space_group_name_H-M   'P 1'
_cell_length_a   13.33110000
_cell_length_b   13.48020787
_cell_length_c   17.28560000
_cell_angle_alpha   101.37207799
_cell_angle_beta   90.00000000
_cell_angle_gamma   119.63431185
_symmetry_Int_Tables_number   1
_chemical_formula_structural   ZnH13C19Br2(NO3)2
_chemical_formula_sum   'Zn4 H52 C76 Br8 N8 O24'
_cell_volume   2629.62388857
_cell_formula_units_Z   4
loop_
 _symmetry_equiv_pos_site_id
 _symmetry_equiv_pos_as_xyz
  1  'x, y, z'
loop_
 _atom_site_label
 _atom_site_fract_x
 _atom_site_fract_y
 _atom_site_fract_z
 _atom_site_charge
 Zn 0.93502 0.49886 0.7427   0.969224
 Zn 0.06498 0.50114 0.2573   0.969224
 Zn 0.43616 0.50114 0.7573   0.969213
 Zn 0.56384 0.49886 0.2427   0.969213
 H 0.6808 0.2446 0.8778   0.116921
 H 0.6805 0.0924 0.918   0.080607
 H 0.9476 0.1372 0.7965   0.114088
 H 0.8134 0.6176 0.6609   0.097701
 H 0.647 0.3208 0.5032   0.11725
 H 0.7727 0.3076 0.5958   0.090186
 H 0.6896 0.6206 0.5525   0.092142
 H 0.6769 0.5344 0.4726   0.107215
 H 0.4945 0.3934 0.5037   0.070993
 H 0.5067 0.4872 0.5789   0.067258
 H 0.3212 0.7302 0.7496   0.133335
 H 0.4495 0.9098 0.8295   0.114688
 H 0.1926 0.9146 0.942   0.08198
 H 0.3192 0.7554 0.1222   0.116921
 H 0.3195 0.9076 0.082   0.080607
 H 0.0524 0.8628 0.2035   0.114088
 H 0.1866 0.3824 0.3391   0.097701
 H 0.353 0.6792 0.4968   0.11725
 H 0.2273 0.6924 0.4042   0.090186
 H 0.3104 0.3794 0.4475   0.092142
 H 0.3231 0.4656 0.5274   0.107214
 H 0.5055 0.6066 0.4963   0.070993
 H 0.4933 0.5128 0.4211   0.067258
 H 0.6788 0.2698 0.2504   0.133335
 H 0.5505 0.0902 0.1705   0.114688
 H 0.8074 0.0854 0.058   0.08198
 H 0.1958 0.3824 0.8391   0.097698
 H 0.3262 0.6792 0.9968   0.117254
 H 0.4651 0.6924 0.9042   0.090193
 H 0.069 0.3794 0.9475   0.092104
 H 0.1425 0.4656 0.0274   0.10719
 H 0.1011 0.6066 0.9963   0.070992
 H 0.0195 0.5128 0.9211   0.067256
 H 0.591 0.2698 0.7504   0.133324
 H 0.5397 0.0902 0.6705   0.114685
 H 0.278 0.0854 0.558   0.081989
 H 0.4362 0.7554 0.6222   0.116921
 H 0.5881 0.9076 0.582   0.080616
 H 0.8104 0.8628 0.7035   0.114086
 H 0.8042 0.6176 0.1609   0.097698
 H 0.6738 0.3208 0.0032   0.117254
 H 0.5349 0.3076 0.0958   0.090193
 H 0.931 0.6206 0.0525   0.092104
 H 0.8575 0.5344 0.9726   0.10719
 H 0.8989 0.3934 0.0037   0.070992
 H 0.9805 0.4872 0.0789   0.067256
 H 0.409 0.7302 0.2496   0.133324
 H 0.4603 0.9098 0.3295   0.114685
 H 0.722 0.9146 0.442   0.081989
 H 0.5638 0.2446 0.3778   0.116921
 H 0.4119 0.0924 0.418   0.080616
 H 0.1896 0.1372 0.2965   0.114086
 C 0.89786 0.25412 0.7886   -0.269579
 C 0.82132 0.29344 0.817   0.39437
 C 0.73758 0.22596 0.8629   -0.196961
 C 0.73617 0.13374 0.8866   -0.069993
 C 0.81797 0.10294 0.8635   0.051077
 C 0.89512 0.16084 0.8139   -0.048531
 C 0.97622 0.30164 0.7279   0.608329
 C 0.78804 0.54148 0.6328   0.166369
 C 0.6962 0.3798 0.5462   -0.15641
 C 0.7657 0.3732 0.5974   0.043355
 C 0.65726 0.53852 0.5268   -0.034534
 C 0.52675 0.4767 0.5251   -0.137608
 C 0.13559 0.76718 0.8548   -0.262814
 C 0.17376 0.70852 0.7958   0.389883
 C 0.2933 0.766 0.7881   -0.168807
 C 0.3709 0.8744 0.8359   -0.103893
 C 0.3322 0.9292 0.8925   0.064206
 C 0.21753 0.87686 0.9025   -0.020111
 C 0.01298 0.72636 0.8658   0.652448
 C 0.10214 0.74588 0.2114   -0.269579
 C 0.17868 0.70656 0.183   0.39437
 C 0.26242 0.77404 0.1371   -0.196961
 C 0.26383 0.86626 0.1134   -0.069993
 C 0.18203 0.89706 0.1365   0.051077
 C 0.10488 0.83916 0.1861   -0.048531
 C 0.02378 0.69836 0.2721   0.608329
 C 0.21196 0.45852 0.3672   0.166369
 C 0.3038 0.6202 0.4538   -0.15641
 C 0.2343 0.6268 0.4026   0.043354
 C 0.34274 0.46148 0.4732   -0.034534
 C 0.47325 0.5233 0.4749   -0.137609
 C 0.86441 0.23282 0.1452   -0.262814
 C 0.82624 0.29148 0.2042   0.389883
 C 0.7067 0.234 0.2119   -0.168807
 C 0.6291 0.1256 0.1641   -0.103893
 C 0.6678 0.0708 0.1075   0.064206
 C 0.78247 0.12314 0.0975   -0.020111
 C 0.98702 0.27364 0.1342   0.652448
 C 0.24656 0.45852 0.8672   0.166374
 C 0.3164 0.6202 0.9538   -0.156433
 C 0.3925 0.6268 0.9026   0.043336
 C 0.11874 0.46148 0.9732   -0.034454
 C 0.05005 0.5233 0.9749   -0.137612
 C 0.36841 0.23282 0.6452   -0.26284
 C 0.46524 0.29148 0.7042   0.389903
 C 0.5273 0.234 0.7119   -0.168782
 C 0.4965 0.1256 0.6641   -0.103907
 C 0.403 0.0708 0.6075   0.06424
 C 0.34067 0.12314 0.5975   -0.020129
 C 0.28662 0.27364 0.6342   0.652413
 C 0.64374 0.74588 0.7114   -0.269618
 C 0.52788 0.70656 0.683   0.394346
 C 0.51162 0.77404 0.6371   -0.196953
 C 0.60243 0.86626 0.6134   -0.07001
 C 0.71503 0.89706 0.6365   0.051091
 C 0.73428 0.83916 0.6861   -0.048511
 C 0.67458 0.69836 0.7721   0.608379
 C 0.75344 0.54148 0.1328   0.166374
 C 0.6836 0.3798 0.0462   -0.156433
 C 0.6075 0.3732 0.0974   0.043336
 C 0.88126 0.53852 0.0268   -0.034454
 C 0.94995 0.4767 0.0251   -0.137612
 C 0.63159 0.76718 0.3548   -0.26284
 C 0.53476 0.70852 0.2958   0.389903
 C 0.4727 0.766 0.2881   -0.168782
 C 0.5035 0.8744 0.3359   -0.103907
 C 0.597 0.9292 0.3925   0.06424
 C 0.65933 0.87686 0.4025   -0.020129
 C 0.71338 0.72636 0.3658   0.652413
 C 0.35626 0.25412 0.2886   -0.269618
 C 0.47212 0.29344 0.317   0.394346
 C 0.48838 0.22596 0.3629   -0.196953
 C 0.39757 0.13374 0.3866   -0.07001
 C 0.28497 0.10294 0.3635   0.051091
 C 0.26572 0.16084 0.3139   -0.048511
 C 0.32542 0.30164 0.2279   0.608379
 Br 0.82083 0.97846 0.89694   0.061289
 Br 0.4374 0.0811 0.95477   -0.043954
 Br 0.17917 0.02154 0.10306   0.061289
 Br 0.5626 0.9189 0.04523   -0.043955
 Br 0.3563 0.9189 0.54523   -0.043957
 Br 0.84237 0.02154 0.60306   0.061269
 Br 0.6437 0.0811 0.45477   -0.043958
 Br 0.15763 0.97846 0.39694   0.061269
 N 0.82474 0.47488 0.6519   -0.364524
 N 0.71051 0.48842 0.5686   0.055715
 N 0.17526 0.52512 0.3481   -0.364524
 N 0.28949 0.51158 0.4314   0.055715
 N 0.34986 0.52512 0.8481   -0.36451
 N 0.22209 0.51158 0.9314   0.055726
 N 0.65014 0.47488 0.1519   -0.36451
 N 0.77791 0.48842 0.0686   0.055726
 O 0.05126 0.26998 0.71329   -0.433678
 O 0.96858 0.36926 0.6905   -0.521206
 O 0.82433 0.3874 0.80433   -0.480886
 O 0.93157 0.63132 0.82211   -0.506437
 O 0.98336 0.78452 0.9152   -0.450627
 O 0.10497 0.60636 0.7477   -0.470064
 O 0.94874 0.73002 0.28671   -0.433678
 O 0.03142 0.63074 0.3095   -0.521206
 O 0.17567 0.6126 0.19567   -0.480886
 O 0.06843 0.36868 0.17789   -0.506437
 O 0.01664 0.21548 0.0848   -0.450627
 O 0.89503 0.39364 0.2523   -0.470064
 O 0.30025 0.36868 0.67789   -0.506412
 O 0.19884 0.21548 0.5848   -0.450603
 O 0.49861 0.39364 0.7523   -0.470075
 O 0.78128 0.73002 0.78671   -0.433705
 O 0.59932 0.63074 0.8095   -0.521233
 O 0.43693 0.6126 0.69567   -0.480859
 O 0.69975 0.63132 0.32211   -0.506412
 O 0.80116 0.78452 0.4152   -0.450603
 O 0.50139 0.60636 0.2477   -0.470075
 O 0.21872 0.26998 0.21329   -0.433705
 O 0.40068 0.36926 0.1905   -0.521233
 O 0.56307 0.3874 0.30433   -0.480859
