{'_ref': 'TBD', '_srcid': 'CAKYAQ_clean', 'submitters': [{'name': 'Dalar Nazarian Jeff Camp and David Sholl', 'email': 'dalar@gatech.edu jcamp6@gatech.edu'}], '_method': 'VASP DFT with PBE;DDEC'}
data_CuH40C34(N2O)4
_symmetry_space_group_name_H-M   'P 1'
_cell_length_a   13.07850000
_cell_length_b   13.07849979
_cell_length_c   20.08300000
_cell_angle_alpha   90.00000000
_cell_angle_beta   90.00000000
_cell_angle_gamma   120.00000053
_symmetry_Int_Tables_number   1
_chemical_formula_structural   CuH40C34(N2O)4
_chemical_formula_sum   'Cu3 H120 C102 N24 O12'
_cell_volume   2974.91857973
_cell_formula_units_Z   3
loop_
 _symmetry_equiv_pos_site_id
 _symmetry_equiv_pos_as_xyz
  1  'x, y, z'
loop_
 _atom_site_label
 _atom_site_fract_x
 _atom_site_fract_y
 _atom_site_fract_z
 _atom_site_charge
 Cu 0.38463 0.0 0.0   0.341741
 Cu 0.61537 0.61537 0.33333   0.341915
 Cu 0.0 0.38463 0.66667   0.341916
 H 0.4341 0.1719 0.8933   0.081031
 H 0.1534 0.0568 0.7735   0.111934
 H 0.0446 0.9159 0.853   0.111633
 H 0.135 0.8998 0.948   0.067534
 H 0.4563 0.26 0.7942   0.314116
 H 0.5263 0.3538 0.6921   0.089634
 H 0.4335 0.4945 0.7412   0.091941
 H 0.5207 0.4681 0.7809   0.081744
 H 0.5888 0.5948 0.6604   0.033636
 H 0.6278 0.7004 0.7869   0.099708
 H 0.5444 0.705 0.7324   0.108103
 H 0.6812 0.7705 0.7206   0.112481
 H 0.7803 0.6568 0.6933   0.111609
 H 0.7082 0.5185 0.6942   0.107508
 H 0.7358 0.5892 0.7611   0.099751
 H 0.361 0.3835 0.6236   0.291955
 H 0.6048 0.5095 0.4682   0.066762
 H 0.3558 0.4963 0.355   0.055843
 H 0.2147 0.3867 0.4332   0.115322
 H 0.2724 0.3429 0.5334   0.067558
 H 0.7378 0.5659 0.22663   0.081005
 H 0.9034 0.8466 0.10683   0.111889
 H 0.8713 0.9554 0.18633   0.111625
 H 0.7648 0.865 0.28133   0.067589
 H 0.8037 0.5437 0.12753   0.314035
 H 0.8275 0.4737 0.02543   0.089595
 H 0.061 0.5665 0.07453   0.091926
 H 0.9474 0.4793 0.11423   0.081718
 H 0.006 0.4112 0.99373   0.033714
 H 0.0726 0.3722 0.12023   0.099784
 H 0.1606 0.4556 0.06573   0.108072
 H 0.0893 0.3188 0.05393   0.112397
 H 0.8765 0.2197 0.02663   0.111622
 H 0.8103 0.2918 0.02753   0.107469
 H 0.8534 0.2642 0.09443   0.099786
 H 0.0225 0.639 0.95693   0.291936
 H 0.9047 0.3952 0.80153   0.066735
 H 0.1405 0.6442 0.68833   0.055857
 H 0.172 0.7853 0.76653   0.115342
 H 0.0705 0.7276 0.86673   0.067585
 H 0.8281 0.2622 0.55997   0.081049
 H 0.9432 0.0966 0.44017   0.111952
 H 0.0841 0.1287 0.51967   0.111604
 H 0.1002 0.2352 0.61467   0.067598
 H 0.74 0.1963 0.46087   0.314092
 H 0.6462 0.1725 0.35877   0.089681
 H 0.5055 0.939 0.40787   0.091973
 H 0.5319 0.0526 0.44757   0.081765
 H 0.4052 0.994 0.32707   0.03359
 H 0.2996 0.9274 0.45357   0.099777
 H 0.295 0.8394 0.39907   0.108081
 H 0.2295 0.9107 0.38727   0.112484
 H 0.3432 0.1235 0.35997   0.111663
 H 0.4815 0.1897 0.36087   0.107543
 H 0.4108 0.1466 0.42777   0.099686
 H 0.6165 0.9775 0.29027   0.291945
 H 0.4905 0.0953 0.13487   0.066823
 H 0.5037 0.8595 0.02167   0.055799
 H 0.6133 0.828 0.09987   0.11535
 H 0.6571 0.9295 0.20007   0.067555
 H 0.2622 0.8281 0.1067   0.08103
 H 0.0966 0.9432 0.2265   0.111937
 H 0.1287 0.0841 0.147   0.111637
 H 0.2352 0.1002 0.052   0.067534
 H 0.1963 0.74 0.2058   0.314115
 H 0.1725 0.6462 0.3079   0.089635
 H 0.939 0.5055 0.2588   0.091939
 H 0.0526 0.5319 0.2191   0.081743
 H 0.994 0.4052 0.3396   0.033635
 H 0.9274 0.2996 0.2131   0.099709
 H 0.8394 0.295 0.2676   0.108104
 H 0.9107 0.2295 0.2794   0.112482
 H 0.1235 0.3432 0.3067   0.11161
 H 0.1897 0.4815 0.3058   0.107509
 H 0.1466 0.4108 0.2389   0.099751
 H 0.9775 0.6165 0.3764   0.291956
 H 0.0953 0.4905 0.5318   0.066761
 H 0.8595 0.5037 0.645   0.055844
 H 0.828 0.6133 0.5668   0.11532
 H 0.9295 0.6571 0.4666   0.067557
 H 0.1719 0.4341 0.77337   0.081004
 H 0.0568 0.1534 0.89317   0.111892
 H 0.9159 0.0446 0.81367   0.111628
 H 0.8998 0.135 0.71867   0.067589
 H 0.26 0.4563 0.87247   0.314034
 H 0.3538 0.5263 0.97457   0.089596
 H 0.4945 0.4335 0.92547   0.091925
 H 0.4681 0.5207 0.88577   0.081717
 H 0.5948 0.5888 0.00627   0.033713
 H 0.7004 0.6278 0.87977   0.099785
 H 0.705 0.5444 0.93427   0.108072
 H 0.7705 0.6812 0.94607   0.112398
 H 0.6568 0.7803 0.97337   0.111624
 H 0.5185 0.7082 0.97247   0.10747
 H 0.5892 0.7358 0.90557   0.099786
 H 0.3835 0.361 0.04307   0.291937
 H 0.5095 0.6048 0.19847   0.066733
 H 0.4963 0.3558 0.31167   0.055858
 H 0.3867 0.2147 0.23347   0.11534
 H 0.3429 0.2724 0.13327   0.067584
 H 0.5659 0.7378 0.44003   0.081048
 H 0.8466 0.9034 0.55983   0.111956
 H 0.9554 0.8713 0.48033   0.111607
 H 0.865 0.7648 0.38533   0.067598
 H 0.5437 0.8037 0.53913   0.314091
 H 0.4737 0.8275 0.64123   0.089681
 H 0.5665 0.061 0.59213   0.091971
 H 0.4793 0.9474 0.55243   0.081764
 H 0.4112 0.006 0.67293   0.033589
 H 0.3722 0.0726 0.54643   0.099779
 H 0.4556 0.1606 0.60093   0.108081
 H 0.3188 0.0893 0.61273   0.112485
 H 0.2197 0.8765 0.64003   0.111665
 H 0.2918 0.8103 0.63913   0.107543
 H 0.2642 0.8534 0.57223   0.099686
 H 0.639 0.0225 0.70973   0.291945
 H 0.3952 0.9047 0.86513   0.066822
 H 0.6442 0.1405 0.97833   0.0558
 H 0.7853 0.172 0.90013   0.115348
 H 0.7276 0.0705 0.79993   0.067555
 C 0.3554 0.1181 0.88403   -0.002248
 C 0.3064 0.1316 0.82493   0.165915
 C 0.1888 0.0526 0.81276   -0.144384
 C 0.1247 0.9673 0.85967   -0.1209
 C 0.1792 0.958 0.91682   0.090422
 C 0.3545 0.2645 0.72771   0.492095
 C 0.4609 0.37 0.69519   0.042728
 C 0.4998 0.4813 0.73668   -0.238847
 C 0.6038 0.5921 0.70805   0.133709
 C 0.6154 0.7021 0.7399   -0.363466
 C 0.7174 0.5888 0.7148   -0.35868
 C 0.493 0.4003 0.57472   0.534255
 C 0.4456 0.4225 0.51127   -0.213624
 C 0.5256 0.4855 0.46155   0.148471
 C 0.3788 0.477 0.39462   0.103204
 C 0.2938 0.4121 0.44151   -0.146757
 C 0.328 0.3854 0.50075   -0.045374
 C 0.7627 0.6446 0.21736   -0.001916
 C 0.8252 0.6936 0.15826   0.165757
 C 0.8638 0.8112 0.14609   -0.144271
 C 0.8426 0.8753 0.193   -0.120887
 C 0.7788 0.8208 0.25015   0.090391
 C 0.91 0.6455 0.06104   0.49212
 C 0.9091 0.5391 0.02852   0.042752
 C 0.9815 0.5002 0.07001   -0.238807
 C 0.9883 0.3962 0.04138   0.133623
 C 0.0867 0.3846 0.07323   -0.363429
 C 0.8714 0.2826 0.04813   -0.35864
 C 0.9073 0.507 0.90805   0.53424
 C 0.9769 0.5544 0.8446   -0.213687
 C 0.9599 0.4744 0.79488   0.148562
 C 0.0982 0.6212 0.72795   0.103249
 C 0.1183 0.7062 0.77484   -0.146755
 C 0.0574 0.672 0.83408   -0.045446
 C 0.8819 0.2373 0.5507   -0.002323
 C 0.8684 0.1748 0.4916   0.16602
 C 0.9474 0.1362 0.47943   -0.144433
 C 0.0327 0.1574 0.52634   -0.120794
 C 0.042 0.2212 0.58349   0.090306
 C 0.7355 0.09 0.39438   0.491978
 C 0.63 0.0909 0.36186   0.04258
 C 0.5187 0.0185 0.40335   -0.238814
 C 0.4079 0.0117 0.37472   0.133842
 C 0.2979 0.9133 0.40657   -0.363559
 C 0.4112 0.1286 0.38147   -0.358756
 C 0.5997 0.0927 0.24139   0.534342
 C 0.5775 0.0231 0.17794   -0.213813
 C 0.5145 0.0401 0.12822   0.148331
 C 0.523 0.9018 0.06129   0.103274
 C 0.5879 0.8817 0.10818   -0.146966
 C 0.6146 0.9426 0.16742   -0.045181
 C 0.2373 0.8819 0.11597   -0.002248
 C 0.1748 0.8684 0.17507   0.165914
 C 0.1362 0.9474 0.18724   -0.144384
 C 0.1574 0.0327 0.14033   -0.120901
 C 0.2212 0.042 0.08318   0.090423
 C 0.09 0.7355 0.27229   0.492094
 C 0.0909 0.63 0.30481   0.042727
 C 0.0185 0.5187 0.26332   -0.238846
 C 0.0117 0.4079 0.29195   0.133709
 C 0.9133 0.2979 0.2601   -0.363467
 C 0.1286 0.4112 0.2852   -0.358681
 C 0.0927 0.5997 0.42528   0.534254
 C 0.0231 0.5775 0.48873   -0.213624
 C 0.0401 0.5145 0.53845   0.148471
 C 0.9018 0.523 0.60538   0.103203
 C 0.8817 0.5879 0.55849   -0.146756
 C 0.9426 0.6146 0.49925   -0.045374
 C 0.1181 0.3554 0.78264   -0.001916
 C 0.1316 0.3064 0.84174   0.165757
 C 0.0526 0.1888 0.85391   -0.144271
 C 0.9673 0.1247 0.807   -0.120888
 C 0.958 0.1792 0.74985   0.090392
 C 0.2645 0.3545 0.93896   0.49212
 C 0.37 0.4609 0.97148   0.042752
 C 0.4813 0.4998 0.92999   -0.238806
 C 0.5921 0.6038 0.95862   0.133623
 C 0.7021 0.6154 0.92677   -0.363431
 C 0.5888 0.7174 0.95187   -0.358641
 C 0.4003 0.493 0.09195   0.534239
 C 0.4225 0.4456 0.1554   -0.213687
 C 0.4855 0.5256 0.20512   0.148562
 C 0.477 0.3788 0.27205   0.103247
 C 0.4121 0.2938 0.22516   -0.146754
 C 0.3854 0.328 0.16592   -0.045446
 C 0.6446 0.7627 0.4493   -0.002323
 C 0.6936 0.8252 0.5084   0.166019
 C 0.8112 0.8638 0.52057   -0.144432
 C 0.8753 0.8426 0.47366   -0.120795
 C 0.8208 0.7788 0.41651   0.090306
 C 0.6455 0.91 0.60562   0.491978
 C 0.5391 0.9091 0.63814   0.04258
 C 0.5002 0.9815 0.59665   -0.238814
 C 0.3962 0.9883 0.62528   0.133843
 C 0.3846 0.0867 0.59343   -0.36356
 C 0.2826 0.8714 0.61853   -0.358756
 C 0.507 0.9073 0.75861   0.534342
 C 0.5544 0.9769 0.82206   -0.213813
 C 0.4744 0.9599 0.87178   0.148331
 C 0.6212 0.0982 0.93871   0.103272
 C 0.7062 0.1183 0.89182   -0.146965
 C 0.672 0.0574 0.83258   -0.045182
 N 0.29407 0.0313 0.92763   -0.267257
 N 0.3829 0.2243 0.78341   -0.424127
 N 0.4269 0.3848 0.62859   -0.434841
 N 0.4934 0.51344 0.40397   -0.303822
 N 0.73723 0.70593 0.26096   -0.267495
 N 0.8414 0.6171 0.11674   -0.424084
 N 0.9579 0.5731 0.96192   -0.43474
 N 0.02004 0.5066 0.7373   -0.30388
 N 0.9687 0.26277 0.5943   -0.267209
 N 0.7757 0.1586 0.45008   -0.424136
 N 0.6152 0.0421 0.29526   -0.434831
 N 0.48656 0.97996 0.07064   -0.303631
 N 0.26277 0.9687 0.07237   -0.267257
 N 0.1586 0.7757 0.21659   -0.424127
 N 0.0421 0.6152 0.37141   -0.434841
 N 0.97996 0.48656 0.59603   -0.303823
 N 0.0313 0.29407 0.73904   -0.267496
 N 0.2243 0.3829 0.88326   -0.424084
 N 0.3848 0.4269 0.03808   -0.43474
 N 0.51344 0.4934 0.2627   -0.30388
 N 0.70593 0.73723 0.4057   -0.26721
 N 0.6171 0.8414 0.54992   -0.424136
 N 0.5731 0.9579 0.70474   -0.434831
 N 0.5066 0.02004 0.92936   -0.303631
 O 0.25534 0.22294 0.70668   -0.478411
 O 0.5858 0.39902 0.57578   -0.558832
 O 0.9676 0.74466 0.04001   -0.478418
 O 0.81322 0.4142 0.90911   -0.558847
 O 0.77706 0.0324 0.37335   -0.478289
 O 0.60098 0.18678 0.24245   -0.558837
 O 0.0324 0.77706 0.29332   -0.478411
 O 0.18678 0.60098 0.42422   -0.558831
 O 0.22294 0.25534 0.95999   -0.478418
 O 0.39902 0.5858 0.09089   -0.558847
 O 0.74466 0.9676 0.62665   -0.478289
 O 0.4142 0.81322 0.75755   -0.558837
