{'_ref': 'TBD', '_srcid': 'CAKYAQ_clean', 'submitters': [{'name': 'Dalar Nazarian Jeff Camp and David Sholl', 'email': 'dalar@gatech.edu jcamp6@gatech.edu'}], '_method': 'VASP DFT with PBE;DDEC'}
data_TmH24C27(SO3)2
_symmetry_space_group_name_H-M   'P 1'
_cell_length_a   9.02460000
_cell_length_b   14.81109961
_cell_length_c   23.06100000
_cell_angle_alpha   90.00000000
_cell_angle_beta   90.00000000
_cell_angle_gamma   92.77319949
_symmetry_Int_Tables_number   1
_chemical_formula_structural   TmH24C27(SO3)2
_chemical_formula_sum   'Tm4 H96 C108 S8 O24'
_cell_volume   3078.82135447
_cell_formula_units_Z   4
loop_
 _symmetry_equiv_pos_site_id
 _symmetry_equiv_pos_as_xyz
  1  'x, y, z'
loop_
 _atom_site_label
 _atom_site_fract_x
 _atom_site_fract_y
 _atom_site_fract_z
 _atom_site_charge
 Tm 0.79009 0.99616 0.01843   2.211835
 Tm 0.70991 0.50384 0.51843   2.211835
 Tm 0.20991 0.00384 0.98157   2.211835
 Tm 0.29009 0.49616 0.48157   2.211835
 H 0.6331 0.806 0.7687   0.104041
 H 0.6896 0.8153 0.8329   0.120749
 H 0.6541 0.7193 0.8062   0.116991
 H 0.9991 0.6885 0.8937   0.098013
 H 0.8364 0.6658 0.8727   0.111458
 H 0.8816 0.763 0.8955   0.125825
 H 0.6788 0.751 0.0206   0.07824
 H 0.2928 0.6635 0.8079   0.104357
 H 0.1693 0.641 0.8547   0.104034
 H 0.1817 0.8155 0.633   0.109774
 H 0.0645 0.8902 0.6353   0.102474
 H 0.0185 0.7932 0.6123   0.111386
 H 0.308 0.7768 0.6768   0.110834
 H 0.3252 0.6914 0.7159   0.115593
 H 0.3677 0.7879 0.7404   0.107288
 H 0.704 0.871 0.707   0.107879
 H 0.28 0.936 0.508   0.096898
 H 0.408 0.593 0.885   0.094305
 H 0.825 0.893 0.659   0.103187
 H 0.715 0.605 0.006   0.090134
 H 0.305 0.786 0.498   0.072495
 H 0.574 0.52 0.935   0.086754
 H 0.436 0.01 0.572   0.079072
 H 0.591 0.937 0.626   0.084915
 H 0.8669 0.694 0.2687   0.104041
 H 0.8104 0.6847 0.3329   0.120749
 H 0.8459 0.7807 0.3062   0.116991
 H 0.5009 0.8115 0.3937   0.098013
 H 0.6636 0.8342 0.3727   0.111458
 H 0.6184 0.737 0.3955   0.125825
 H 0.8212 0.749 0.5206   0.07824
 H 0.2072 0.8365 0.3079   0.104357
 H 0.3307 0.859 0.3547   0.104034
 H 0.3183 0.6845 0.133   0.109774
 H 0.4355 0.6098 0.1353   0.102474
 H 0.4815 0.7068 0.1123   0.111386
 H 0.192 0.7232 0.1768   0.110834
 H 0.1748 0.8086 0.2159   0.115593
 H 0.1323 0.7121 0.2404   0.107288
 H 0.796 0.629 0.207   0.107879
 H 0.22 0.564 0.008   0.096898
 H 0.092 0.907 0.385   0.094305
 H 0.675 0.607 0.159   0.103187
 H 0.785 0.895 0.506   0.090135
 H 0.195 0.714 0.998   0.072495
 H 0.926 0.98 0.435   0.086754
 H 0.064 0.49 0.072   0.079072
 H 0.909 0.563 0.126   0.084915
 H 0.3669 0.194 0.2313   0.104041
 H 0.3104 0.1847 0.1671   0.120749
 H 0.3459 0.2807 0.1938   0.116991
 H 0.000900000000001 0.3115 0.1063   0.098013
 H 0.1636 0.3342 0.1273   0.111459
 H 0.1184 0.237 0.1045   0.125825
 H 0.3212 0.249 0.9794   0.07824
 H 0.7072 0.3365 0.1921   0.104358
 H 0.8307 0.359 0.1453   0.104035
 H 0.8183 0.1845 0.367   0.109774
 H 0.9355 0.1098 0.3647   0.102475
 H 0.9815 0.2068 0.3877   0.111386
 H 0.692 0.2232 0.3232   0.110834
 H 0.6748 0.3086 0.2841   0.115593
 H 0.6323 0.2121 0.2596   0.107288
 H 0.296 0.129 0.293   0.107879
 H 0.72 0.064 0.492   0.096898
 H 0.592 0.407 0.115   0.094306
 H 0.175 0.107 0.341   0.103188
 H 0.285 0.395 0.994   0.090135
 H 0.695 0.214 0.502   0.072495
 H 0.426 0.48 0.065   0.086755
 H 0.564 0.99 0.428   0.079073
 H 0.409 0.063 0.374   0.084916
 H 0.1331 0.306 0.7313   0.104041
 H 0.1896 0.3153 0.6671   0.120749
 H 0.1541 0.2193 0.6938   0.116991
 H 0.4991 0.1885 0.6063   0.098013
 H 0.3364 0.1658 0.6273   0.111459
 H 0.3816 0.263 0.6045   0.125825
 H 0.1788 0.251 0.4794   0.07824
 H 0.7928 0.1635 0.6921   0.104358
 H 0.6693 0.141 0.6453   0.104035
 H 0.6817 0.3155 0.867   0.109774
 H 0.5645 0.3902 0.8647   0.102475
 H 0.5185 0.2932 0.8877   0.111386
 H 0.808 0.2768 0.8232   0.110834
 H 0.8252 0.1914 0.7841   0.115593
 H 0.8677 0.2879 0.7596   0.107288
 H 0.204 0.371 0.793   0.107879
 H 0.78 0.436 0.992   0.096899
 H 0.908 0.093 0.615   0.094307
 H 0.325 0.393 0.841   0.103188
 H 0.215 0.105 0.494   0.090135
 H 0.805 0.286 0.002   0.072495
 H 0.074 0.02 0.565   0.086755
 H 0.936 0.51 0.928   0.079073
 H 0.091 0.437 0.874   0.084916
 C 0.4804 0.6696 0.5435   0.7897
 C 0.4709 0.7691 0.5563   -0.183675
 C 0.3645 0.814 0.5254   0.011995
 C 0.3482 0.9051 0.5308   -0.144598
 C 0.4384 0.9521 0.5691   -0.027837
 C 0.5449 0.9096 0.6008   -0.132087
 C 0.5626 0.8177 0.59572   0.070079
 C 0.778 0.8482 0.6831   -0.122898
 C 0.8915 0.8064 0.7216   -0.059721
 C 0.036 0.7971 0.7016   0.026112
 C 0.8511 0.7765 0.7772   0.026051
 C 0.6925 0.7796 0.7982   -0.337799
 C 0.958 0.7406 0.8139   0.020846
 C 0.9149 0.7119 0.8744   -0.331309
 C 0.4952 0.8627 0.9795   0.838727
 C 0.515 0.7657 0.96227   -0.206501
 C 0.621 0.7199 0.993   0.009562
 C 0.6423 0.6291 0.9835   -0.124371
 C 0.5581 0.5832 0.9419   -0.056278
 C 0.4539 0.6283 0.9103   -0.143736
 C 0.4302 0.7196 0.91885   0.093589
 C 0.2164 0.689 0.8316   -0.13775
 C 0.1026 0.7322 0.7934   -0.053204
 C 0.1418 0.7615 0.7376   0.029938
 C 0.0792 0.8268 0.6397   -0.321548
 C 0.3005 0.7537 0.7157   -0.329789
 C 0.8905 0.9536 0.9022   0.446098
 C 0.0196 0.8304 0.0435   0.7897
 C 0.0291 0.7309 0.0563   -0.183675
 C 0.1355 0.686 0.0254   0.011995
 C 0.1518 0.5949 0.0308   -0.144598
 C 0.0616 0.5479 0.0691   -0.027837
 C 0.9551 0.5904 0.1008   -0.132087
 C 0.9374 0.6823 0.09572   0.070079
 C 0.722 0.6518 0.1831   -0.122898
 C 0.6085 0.6936 0.2216   -0.059721
 C 0.464 0.7029 0.2016   0.026112
 C 0.6489 0.7235 0.2772   0.026051
 C 0.8075 0.7204 0.2982   -0.337799
 C 0.542 0.7594 0.3139   0.020846
 C 0.5851 0.7881 0.3744   -0.331309
 C 0.0048 0.6373 0.4795   0.838727
 C 0.985 0.7343 0.46227   -0.206501
 C 0.879 0.7801 0.493   0.009562
 C 0.8577 0.8709 0.4835   -0.124371
 C 0.9419 0.9168 0.4419   -0.056278
 C 0.0461 0.8717 0.4103   -0.143736
 C 0.0698 0.7804 0.41885   0.093589
 C 0.2836 0.811 0.3316   -0.13775
 C 0.3974 0.7678 0.2934   -0.053204
 C 0.3582 0.7385 0.2376   0.029938
 C 0.4208 0.6732 0.1397   -0.321548
 C 0.1995 0.7463 0.2157   -0.329789
 C 0.6095 0.5464 0.4022   0.446098
 C 0.5196 0.3304 0.4565   0.7897
 C 0.5291 0.2309 0.4437   -0.183675
 C 0.6355 0.186 0.4746   0.011995
 C 0.6518 0.0949 0.4692   -0.144598
 C 0.5616 0.0479 0.4309   -0.027838
 C 0.4551 0.0904 0.3992   -0.132087
 C 0.4374 0.1823 0.40428   0.070079
 C 0.222 0.1518 0.3169   -0.122899
 C 0.1085 0.1936 0.2784   -0.059721
 C 0.964 0.2029 0.2984   0.026112
 C 0.1489 0.2235 0.2228   0.026051
 C 0.3075 0.2204 0.2018   -0.337799
 C 0.042 0.2594 0.1861   0.020846
 C 0.0851 0.2881 0.1256   -0.331309
 C 0.5048 0.1373 0.0205   0.838727
 C 0.485 0.2343 0.03773   -0.206501
 C 0.379 0.2801 0.007   0.009562
 C 0.3577 0.3709 0.0165   -0.124371
 C 0.4419 0.4168 0.0581   -0.056278
 C 0.5461 0.3717 0.0897   -0.143737
 C 0.5698 0.2804 0.08115   0.093589
 C 0.7836 0.311 0.1684   -0.137751
 C 0.8974 0.2678 0.2066   -0.053204
 C 0.8582 0.2385 0.2624   0.029938
 C 0.9208 0.1732 0.3603   -0.321549
 C 0.6995 0.2463 0.2843   -0.329789
 C 0.1095 0.0464 0.0978   0.446098
 C 0.9804 0.1696 0.9565   0.7897
 C 0.9709 0.2691 0.9437   -0.183675
 C 0.8645 0.314 0.9746   0.011995
 C 0.8482 0.4051 0.9692   -0.144598
 C 0.9384 0.4521 0.9309   -0.027838
 C 0.0449 0.4096 0.8992   -0.132087
 C 0.0626 0.3177 0.90428   0.070079
 C 0.278 0.3482 0.8169   -0.122899
 C 0.3915 0.3064 0.7784   -0.059721
 C 0.536 0.2971 0.7984   0.026112
 C 0.3511 0.2765 0.7228   0.026051
 C 0.1925 0.2796 0.7018   -0.337799
 C 0.458 0.2406 0.6861   0.020846
 C 0.4149 0.2119 0.6256   -0.331309
 C 0.9952 0.3627 0.5205   0.838727
 C 0.015 0.2657 0.53773   -0.206501
 C 0.121 0.2199 0.507   0.009562
 C 0.1423 0.1291 0.5165   -0.124371
 C 0.0581 0.0832 0.5581   -0.056278
 C 0.9539 0.1283 0.5897   -0.143737
 C 0.9302 0.2196 0.58115   0.093589
 C 0.7164 0.189 0.6684   -0.137751
 C 0.6026 0.2322 0.7066   -0.053204
 C 0.6418 0.2615 0.7624   0.029938
 C 0.5792 0.3268 0.8603   -0.321549
 C 0.8005 0.2537 0.7843   -0.329789
 C 0.3905 0.4536 0.5978   0.446098
 S 0.6941 0.75966 0.63707   -0.022577
 S 0.29721 0.77726 0.87836   -0.019494
 S 0.8059 0.74034 0.13707   -0.022577
 S 0.20279 0.72274 0.37836   -0.019494
 S 0.3059 0.24034 0.36293   -0.022577
 S 0.70279 0.22274 0.12164   -0.019494
 S 0.1941 0.25966 0.86293   -0.022577
 S 0.79721 0.27726 0.62164   -0.019494
 O 0.362 0.6269 0.52961   -0.707123
 O 0.6073 0.6377 0.54675   -0.746362
 O 0.3831 0.9005 0.96054   -0.762191
 O 0.5894 0.901 0.0129   -0.780924
 O 0.7548 0.9608 0.912   -0.4892
 O 0.9809 0.9555 0.94448   -0.770255
 O 0.138 0.8731 0.02961   -0.707123
 O 0.8927 0.8623 0.04675   -0.746362
 O 0.1169 0.5995 0.46054   -0.762191
 O 0.9106 0.599 0.5129   -0.780924
 O 0.7452 0.5392 0.412   -0.4892
 O 0.5191 0.5445 0.44448   -0.770255
 O 0.638 0.3731 0.47039   -0.707123
 O 0.3927 0.3623 0.45325   -0.746362
 O 0.6169 0.0995 0.03946   -0.762191
 O 0.4106 0.099 0.9871   -0.780924
 O 0.2452 0.0392 0.088   -0.4892
 O 0.0191 0.0445 0.05552   -0.770255
 O 0.862 0.1269 0.97039   -0.707123
 O 0.1073 0.1377 0.95325   -0.746362
 O 0.8831 0.4005 0.53946   -0.762191
 O 0.0894 0.401 0.4871   -0.780924
 O 0.2548 0.4608 0.588   -0.4892
 O 0.4809 0.4555 0.55552   -0.770255
