{'_ref': 'TBD', '_srcid': 'CAKYAQ_clean', 'submitters': [{'name': 'Dalar Nazarian Jeff Camp and David Sholl', 'email': 'dalar@gatech.edu jcamp6@gatech.edu'}], '_method': 'VASP DFT with PBE;DDEC'}
data_VH6C12O5
_symmetry_space_group_name_H-M   'P 1'
_cell_length_a   6.77970003
_cell_length_b   7.50769981
_cell_length_c   12.83250000
_cell_angle_alpha   107.00900207
_cell_angle_beta   103.45399711
_cell_angle_gamma   90.00000395
_symmetry_Int_Tables_number   1
_chemical_formula_structural   VH6C12O5
_chemical_formula_sum   'V2 H12 C24 O10'
_cell_volume   605.833287251
_cell_formula_units_Z   2
loop_
 _symmetry_equiv_pos_site_id
 _symmetry_equiv_pos_as_xyz
  1  'x, y, z'
loop_
 _atom_site_label
 _atom_site_fract_x
 _atom_site_fract_y
 _atom_site_fract_z
 _atom_site_charge
 V 0.0 0.0 0.0   1.841114
 V 0.5 0.0 0.0   1.840861
 H 0.36417 0.96564 0.65683   0.140233
 H 0.37988 0.86193 0.47134   0.116783
 H 0.78658 0.18572 0.74659   0.154107
 H 0.13583 0.30882 0.34317   0.140232
 H 0.12012 0.3906 0.52866   0.116902
 H 0.71342 0.43913 0.25341   0.154218
 H 0.63583 0.03436 0.34317   0.141003
 H 0.61923 0.14061 0.53357   0.118977
 H 0.21342 0.81428 0.25341   0.154188
 H 0.86417 0.69118 0.65683   0.141354
 H 0.88077 0.60704 0.46643   0.118543
 H 0.27892 0.55669 0.74283   0.154157
 C 0.0828 0.0879 0.7078   -0.113259
 C 0.2012 0.000100000000003 0.6262   -0.112136
 C 0.2174 0.8952 0.4384   -0.14553
 C 0.1528 0.0934 0.8228   0.713989
 C 0.0944 0.967 0.514   0.074285
 C 0.8722 0.1321 0.6782   -0.095729
 C 0.4172 0.3801 0.2922   -0.112658
 C 0.2988 0.3739 0.3738   -0.112752
 C 0.2826 0.4568 0.5616   -0.147658
 C 0.3472 0.2706 0.1772   0.715729
 C 0.4056 0.453 0.486   0.074338
 C 0.6278 0.4539 0.3218   -0.095682
 C 0.9172 0.9121 0.2922   -0.1136
 C 0.7988 0.9999 0.3738   -0.112199
 C 0.7826 0.1048 0.5616   -0.147504
 C 0.8472 0.9066 0.1772   0.714163
 C 0.9056 0.033 0.486   0.077222
 C 0.1278 0.8679 0.3218   -0.093908
 C 0.5828 0.6199 0.7078   -0.110415
 C 0.7012 0.6261 0.6262   -0.113895
 C 0.7174 0.5432 0.4384   -0.14687
 C 0.6528 0.7294 0.8228   0.715698
 C 0.5944 0.547 0.514   0.077276
 C 0.3722 0.5461 0.6782   -0.094337
 O 0.0938 0.1519 0.9138   -0.604972
 O 0.3356 0.0683 0.8566   -0.612163
 O 0.4062 0.2381 0.0862   -0.605791
 O 0.1644 0.2117 0.1434   -0.612754
 O 0.9062 0.8481 0.0862   -0.605009
 O 0.6644 0.9317 0.1434   -0.612179
 O 0.5938 0.7619 0.9138   -0.605182
 O 0.8356 0.7883 0.8566   -0.61303
 O 0.25 0.879 0.0   -0.877896
 O 0.75 0.121 0.0   -0.878265
