{'_ref': 'TBD', '_srcid': 'CAKYAQ_clean', 'submitters': [{'name': 'Dalar Nazarian Jeff Camp and David Sholl', 'email': 'dalar@gatech.edu jcamp6@gatech.edu'}], '_method': 'VASP DFT with PBE;DDEC'}
data_NiH10C16(NO)4
_symmetry_space_group_name_H-M   'P 1'
_cell_length_a   8.38620000
_cell_length_b   15.03630000
_cell_length_c   15.03630000
_cell_angle_alpha   90.00000000
_cell_angle_beta   90.00000000
_cell_angle_gamma   90.00000000
_symmetry_Int_Tables_number   1
_chemical_formula_structural   NiH10C16(NO)4
_chemical_formula_sum   'Ni4 H40 C64 N16 O16'
_cell_volume   1896.03862221
_cell_formula_units_Z   4
loop_
 _symmetry_equiv_pos_site_id
 _symmetry_equiv_pos_as_xyz
  1  'x, y, z'
loop_
 _atom_site_label
 _atom_site_fract_x
 _atom_site_fract_y
 _atom_site_fract_z
 _atom_site_charge
 Ni 0.0 0.2558 0.2558   0.759329
 Ni 0.5 0.7442 0.7442   0.759329
 Ni 0.25 0.2442 0.7558   0.759329
 Ni 0.75 0.7558 0.2442   0.759329
 H 0.1754 0.2742 0.0771   0.0835
 H 0.0685 0.2738 0.9315   0.313518
 H 0.757 0.258 0.861   0.104593
 H 0.437 0.221 0.051   0.09324
 H 0.634 0.231 0.163   0.134208
 H 0.6754 0.7258 0.9229   0.0835
 H 0.5685 0.7262 0.0685   0.313518
 H 0.257 0.742 0.139   0.104593
 H 0.937 0.779 0.949   0.09324
 H 0.134 0.769 0.837   0.134208
 H 0.4254 0.4229 0.7742   0.0835
 H 0.3185 0.5685 0.7738   0.313518
 H 0.007 0.639 0.758   0.104593
 H 0.687 0.449 0.721   0.09324
 H 0.884 0.337 0.731   0.134208
 H 0.9254 0.5771 0.2258   0.0835
 H 0.8185 0.4315 0.2262   0.313518
 H 0.507 0.361 0.242   0.104593
 H 0.187 0.551 0.279   0.09324
 H 0.384 0.663 0.269   0.134208
 H 0.0746 0.2258 0.5771   0.0835
 H 0.1815 0.2262 0.4315   0.313518
 H 0.493 0.242 0.361   0.104593
 H 0.813 0.279 0.551   0.09324
 H 0.616 0.269 0.663   0.134208
 H 0.5746 0.7742 0.4229   0.0835
 H 0.6815 0.7738 0.5685   0.313518
 H 0.993 0.758 0.639   0.104593
 H 0.313 0.721 0.449   0.09324
 H 0.116 0.731 0.337   0.134208
 H 0.8246 0.0771 0.2742   0.0835
 H 0.9315 0.9315 0.2738   0.313518
 H 0.243 0.861 0.258   0.104593
 H 0.563 0.051 0.221   0.09324
 H 0.366 0.163 0.231   0.134208
 H 0.3246 0.9229 0.7258   0.0835
 H 0.4315 0.0685 0.7262   0.313518
 H 0.743 0.139 0.742   0.104593
 H 0.063 0.949 0.779   0.09324
 H 0.866 0.837 0.769   0.134208
 C 0.4481 0.241 0.8777   0.640107
 C 0.579 0.2422 0.9448   -0.141562
 C 0.5425 0.233 0.036   -0.050621
 C 0.6578 0.2373 0.1011   -0.178126
 C 0.8157 0.2513 0.0742   0.174887
 C 0.8498 0.2568 0.9835   0.096456
 C 0.7339 0.253 0.9182   -0.100236
 C 0.0679 0.2686 0.0629   0.274015
 C 0.9481 0.759 0.1223   0.640107
 C 0.079 0.7578 0.0552   -0.141562
 C 0.0425 0.767 0.964   -0.050621
 C 0.1578 0.7627 0.8989   -0.178126
 C 0.3157 0.7487 0.9258   0.174887
 C 0.3498 0.7432 0.0165   0.096456
 C 0.2339 0.747 0.0818   -0.100236
 C 0.5679 0.7314 0.9371   0.274015
 C 0.6981 0.6223 0.741   0.640107
 C 0.829 0.5552 0.7422   -0.141562
 C 0.7925 0.464 0.733   -0.05062
 C 0.9078 0.3989 0.7373   -0.178126
 C 0.0657 0.4258 0.7513   0.174887
 C 0.0998 0.5165 0.7568   0.096455
 C 0.9839 0.5818 0.753   -0.100236
 C 0.3179 0.4371 0.7686   0.274015
 C 0.1981 0.3777 0.259   0.640107
 C 0.329 0.4448 0.2578   -0.141562
 C 0.2925 0.536 0.267   -0.05062
 C 0.4078 0.6011 0.2627   -0.178126
 C 0.5657 0.5742 0.2487   0.174887
 C 0.5998 0.4835 0.2432   0.096455
 C 0.4839 0.4182 0.247   -0.100236
 C 0.8179 0.5629 0.2314   0.274015
 C 0.8019 0.259 0.3777   0.640107
 C 0.671 0.2578 0.4448   -0.141562
 C 0.7075 0.267 0.536   -0.050622
 C 0.5922 0.2627 0.6011   -0.178126
 C 0.4343 0.2487 0.5742   0.174886
 C 0.4002 0.2432 0.4835   0.096455
 C 0.5161 0.247 0.4182   -0.100236
 C 0.1821 0.2314 0.5629   0.274014
 C 0.3019 0.741 0.6223   0.640107
 C 0.171 0.7422 0.5552   -0.141562
 C 0.2075 0.733 0.464   -0.050622
 C 0.0922 0.7373 0.3989   -0.178126
 C 0.9343 0.7513 0.4258   0.174886
 C 0.9002 0.7568 0.5165   0.096455
 C 0.0161 0.753 0.5818   -0.100236
 C 0.6821 0.7686 0.4371   0.274014
 C 0.5519 0.8777 0.241   0.640107
 C 0.421 0.9448 0.2422   -0.141562
 C 0.4575 0.036 0.233   -0.050621
 C 0.3422 0.1011 0.2373   -0.178125
 C 0.1843 0.0742 0.2513   0.174886
 C 0.1502 0.9835 0.2568   0.096455
 C 0.2661 0.9182 0.253   -0.100236
 C 0.9321 0.0629 0.2686   0.274014
 C 0.0519 0.1223 0.759   0.640107
 C 0.921 0.0552 0.7578   -0.141563
 C 0.9575 0.964 0.767   -0.050621
 C 0.8422 0.8989 0.7627   -0.178125
 C 0.6843 0.9258 0.7487   0.174886
 C 0.6502 0.0165 0.7432   0.096455
 C 0.7661 0.0818 0.747   -0.100236
 C 0.4321 0.9371 0.7314   0.274014
 N 0.9554 0.2602 0.12252   -0.422098
 N 0.0126 0.2681 0.9791   -0.271458
 N 0.4554 0.7398 0.87748   -0.422098
 N 0.5126 0.7319 0.0209   -0.271458
 N 0.2054 0.37748 0.7602   -0.422098
 N 0.2626 0.5209 0.7681   -0.271458
 N 0.7054 0.62252 0.2398   -0.422098
 N 0.7626 0.4791 0.2319   -0.271458
 N 0.2946 0.2398 0.62252   -0.422098
 N 0.2374 0.2319 0.4791   -0.271458
 N 0.7946 0.7602 0.37748   -0.422098
 N 0.7374 0.7681 0.5209   -0.271458
 N 0.0446 0.12252 0.2602   -0.422098
 N 0.9874 0.9791 0.2681   -0.271458
 N 0.5446 0.87748 0.7398   -0.422098
 N 0.4874 0.0209 0.7319   -0.271458
 O 0.3048 0.2393 0.90034   -0.576418
 O 0.4847 0.24495 0.79588   -0.553669
 O 0.8048 0.7607 0.09966   -0.576418
 O 0.9847 0.75505 0.20412   -0.553669
 O 0.5548 0.59966 0.7393   -0.576418
 O 0.7347 0.70412 0.74495   -0.553669
 O 0.0548 0.40034 0.2607   -0.576418
 O 0.2347 0.29588 0.25505   -0.553669
 O 0.9452 0.2607 0.40034   -0.576418
 O 0.7653 0.25505 0.29588   -0.553669
 O 0.4452 0.7393 0.59966   -0.576418
 O 0.2653 0.74495 0.70412   -0.553669
 O 0.6952 0.90034 0.2393   -0.576418
 O 0.5153 0.79588 0.24495   -0.553669
 O 0.1952 0.09966 0.7607   -0.576418
 O 0.0153 0.20412 0.75505   -0.553669
