{'_ref': 'TBD', '_srcid': 'CAKYAQ_clean', 'submitters': [{'name': 'Dalar Nazarian Jeff Camp and David Sholl', 'email': 'dalar@gatech.edu jcamp6@gatech.edu'}], '_method': 'VASP DFT with PBE;DDEC'}
data_Cu2H15(C14O5)2
_symmetry_space_group_name_H-M   'P 1'
_cell_length_a   16.15439989
_cell_length_b   16.15439952
_cell_length_c   21.82000000
_cell_angle_alpha   84.60059955
_cell_angle_beta   84.60059967
_cell_angle_gamma   60.48219994
_symmetry_Int_Tables_number   1
_chemical_formula_structural   Cu2H15(C14O5)2
_chemical_formula_sum   'Cu8 H60 C112 O40'
_cell_volume   4925.66919297
_cell_formula_units_Z   4
loop_
 _symmetry_equiv_pos_site_id
 _symmetry_equiv_pos_as_xyz
  1  'x, y, z'
loop_
 _atom_site_label
 _atom_site_fract_x
 _atom_site_fract_y
 _atom_site_fract_z
 _atom_site_charge
 Cu 0.49445 0.98977 0.81322   0.908986
 Cu 0.46042 0.44122 0.50512   0.859897
 Cu 0.51023 0.00555 0.68678   0.908981
 Cu 0.05878 0.03958 0.99488   0.859894
 Cu 0.50555 0.01023 0.18678   0.908976
 Cu 0.53958 0.55878 0.49488   0.859897
 Cu 0.48977 0.99445 0.31322   0.908972
 Cu 0.94122 0.96042 0.00512   0.859894
 H 0.7341 0.1481 0.8665   0.133134
 H 0.6595 0.2141 0.6328   0.119032
 H 0.8048 0.3966 0.7888   0.147076
 H 0.1952 0.0364 0.8215   0.11534
 H 0.0387 0.0631 0.814   0.142352
 H 0.5499 0.7083 0.6546   0.114276
 H 0.5957 0.6867 0.8394   0.112714
 H 0.2191 0.0849 0.6338   0.112899
 H 0.9164 0.2632 0.8505   0.122405
 H 0.7967 0.0935 0.6869   0.131161
 H 0.0616 0.1178 0.6252   0.142353
 H 0.6027 0.5413 0.6586   0.141726
 H 0.7883 0.3831 0.6054   0.110285
 H 0.9174 0.2692 0.6664   0.138385
 H 0.6516 0.5202 0.8419   0.140337
 H 0.3519 0.7659 0.6335   0.133134
 H 0.2859 0.8405 0.8672   0.119033
 H 0.1034 0.6952 0.7112   0.147071
 H 0.4636 0.3048 0.6785   0.115341
 H 0.4369 0.4613 0.686   0.142352
 H 0.7917 0.9501 0.8454   0.114277
 H 0.8133 0.9043 0.6606   0.112713
 H 0.4151 0.2809 0.8662   0.112897
 H 0.2368 0.5836 0.6495   0.122402
 H 0.4065 0.7033 0.8131   0.131162
 H 0.3822 0.4384 0.8748   0.142351
 H 0.9587 0.8973 0.8414   0.141726
 H 0.1169 0.7117 0.8946   0.110283
 H 0.2308 0.5826 0.8336   0.138382
 H 0.9798 0.8484 0.6581   0.140335
 H 0.2659 0.8519 0.1335   0.133133
 H 0.3405 0.7859 0.3672   0.119032
 H 0.1952 0.6034 0.2112   0.147077
 H 0.8048 0.9636 0.1785   0.11534
 H 0.9613 0.9369 0.186   0.142352
 H 0.4501 0.2917 0.3454   0.114275
 H 0.4043 0.3133 0.1606   0.112706
 H 0.7809 0.9151 0.3662   0.112891
 H 0.0836 0.7368 0.1495   0.122401
 H 0.2033 0.9065 0.3131   0.131161
 H 0.9384 0.8822 0.3748   0.142344
 H 0.3973 0.4587 0.3414   0.141726
 H 0.2117 0.6169 0.3946   0.110279
 H 0.0826 0.7308 0.3336   0.138385
 H 0.3484 0.4798 0.1581   0.140331
 H 0.6481 0.2341 0.3665   0.133134
 H 0.7141 0.1595 0.1328   0.119033
 H 0.8966 0.3048 0.2888   0.147071
 H 0.5364 0.6952 0.3215   0.115341
 H 0.5631 0.5387 0.314   0.142352
 H 0.2083 0.0499 0.1546   0.114276
 H 0.1867 0.0957 0.3394   0.112705
 H 0.5849 0.7191 0.1338   0.11289
 H 0.7632 0.4164 0.3505   0.122398
 H 0.5935 0.2967 0.1869   0.131161
 H 0.6178 0.5616 0.1252   0.142342
 H 0.0413 0.1027 0.1586   0.141726
 H 0.8831 0.2883 0.1054   0.110277
 H 0.7692 0.4174 0.1664   0.138382
 H 0.0202 0.1516 0.3419   0.140329
 C 0.5756 0.7138 0.7472   -0.182778
 C 0.549 0.8188 0.7465   0.656168
 C 0.2229 0.0597 0.7275   -0.170953
 C 0.747 0.1988 0.8511   -0.049339
 C 0.6286 0.3826 0.5737   0.645286
 C 0.6824 0.2766 0.8112   -0.066149
 C 0.7123 0.2241 0.6376   0.000261
 C 0.6232 0.5182 0.7486   0.283481
 C 0.8308 0.1958 0.8684   -0.140245
 C 0.7922 0.3456 0.8042   -0.214755
 C 0.7064 0.349 0.7896   0.235091
 C 0.7098 0.3118 0.6126   -0.184985
 C 0.1677 0.0527 0.7819   0.000117
 C 0.0747 0.0687 0.778   -0.206941
 C 0.5715 0.6699 0.6924   0.003432
 C 0.0344 0.094 0.7172   0.249923
 C 0.5993 0.6573 0.8023   0.007839
 C 0.3276 0.0406 0.7311   0.672032
 C 0.1826 0.0816 0.6702   -0.001292
 C 0.8567 0.2691 0.8421   -0.021121
 C 0.7938 0.1528 0.6709   -0.234848
 C 0.8738 0.1692 0.679   0.285145
 C 0.8982 0.1172 0.9149   0.63036
 C 0.0889 0.1001 0.6649   -0.23495
 C 0.6002 0.5712 0.6952   -0.224694
 C 0.7888 0.3256 0.6228   0.016563
 C 0.8681 0.2561 0.6577   -0.274873
 C 0.6284 0.5598 0.8047   -0.252808
 C 0.7862 0.9244 0.7528   -0.182779
 C 0.6812 0.951 0.7535   0.656171
 C 0.4403 0.2771 0.7725   -0.170952
 C 0.3012 0.753 0.6489   -0.04934
 C 0.1174 0.8714 0.9263   0.645286
 C 0.2234 0.8176 0.6888   -0.066143
 C 0.2759 0.7877 0.8624   0.000261
 C 0.9818 0.8768 0.7514   0.283481
 C 0.3042 0.6692 0.6316   -0.140245
 C 0.1544 0.7078 0.6958   -0.214753
 C 0.151 0.7936 0.7104   0.23509
 C 0.1882 0.7902 0.8874   -0.184985
 C 0.4473 0.3323 0.7181   0.000117
 C 0.4313 0.4253 0.722   -0.206941
 C 0.8301 0.9285 0.8076   0.003431
 C 0.406 0.4656 0.7828   0.249923
 C 0.8427 0.9007 0.6977   0.007838
 C 0.4594 0.1724 0.7689   0.672034
 C 0.4184 0.3174 0.8298   -0.001292
 C 0.2309 0.6433 0.6579   -0.021121
 C 0.3472 0.7062 0.8291   -0.234848
 C 0.3308 0.6262 0.821   0.285145
 C 0.3828 0.6018 0.5851   0.630361
 C 0.3999 0.4111 0.8351   -0.234949
 C 0.9288 0.8998 0.8048   -0.224693
 C 0.1744 0.7112 0.8772   0.016564
 C 0.2439 0.6319 0.8423   -0.274872
 C 0.9402 0.8716 0.6953   -0.252807
 C 0.4244 0.2862 0.2528   -0.182779
 C 0.451 0.1812 0.2535   0.656167
 C 0.7771 0.9403 0.2725   -0.170954
 C 0.253 0.8012 0.1489   -0.049342
 C 0.3714 0.6174 0.4263   0.645286
 C 0.3176 0.7234 0.1888   -0.066149
 C 0.2877 0.7759 0.3624   0.000259
 C 0.3768 0.4818 0.2514   0.283481
 C 0.1692 0.8042 0.1316   -0.140246
 C 0.2078 0.6544 0.1958   -0.214755
 C 0.2936 0.651 0.2104   0.235091
 C 0.2902 0.6882 0.3874   -0.184985
 C 0.8323 0.9473 0.2181   0.000117
 C 0.9253 0.9313 0.222   -0.206941
 C 0.4285 0.3301 0.3076   0.003432
 C 0.9656 0.906 0.2828   0.249922
 C 0.4007 0.3427 0.1977   0.007841
 C 0.6724 0.9594 0.2689   0.672032
 C 0.8174 0.9184 0.3298   -0.00129
 C 0.1433 0.7309 0.1579   -0.021121
 C 0.2062 0.8472 0.3291   -0.234847
 C 0.1262 0.8308 0.321   0.285145
 C 0.1018 0.8828 0.0851   0.630361
 C 0.9111 0.8999 0.3351   -0.234948
 C 0.3998 0.4288 0.3048   -0.224694
 C 0.2112 0.6744 0.3772   0.016564
 C 0.1319 0.7439 0.3423   -0.274873
 C 0.3716 0.4402 0.1953   -0.252807
 C 0.2138 0.0756 0.2472   -0.18278
 C 0.3188 0.049 0.2465   0.65617
 C 0.5597 0.7229 0.2275   -0.170953
 C 0.6988 0.247 0.3511   -0.049343
 C 0.8826 0.1286 0.0737   0.645287
 C 0.7766 0.1824 0.3112   -0.066142
 C 0.7241 0.2123 0.1376   0.000259
 C 0.0182 0.1232 0.2486   0.28348
 C 0.6958 0.3308 0.3684   -0.140246
 C 0.8456 0.2922 0.3042   -0.214753
 C 0.849 0.2064 0.2896   0.23509
 C 0.8118 0.2098 0.1126   -0.184986
 C 0.5527 0.6677 0.2819   0.000117
 C 0.5687 0.5747 0.278   -0.206941
 C 0.1699 0.0715 0.1924   0.003432
 C 0.594 0.5344 0.2172   0.249922
 C 0.1573 0.0993 0.3023   0.00784
 C 0.5406 0.8276 0.2311   0.672034
 C 0.5816 0.6826 0.1702   -0.001291
 C 0.7691 0.3567 0.3421   -0.02112
 C 0.6528 0.2938 0.1709   -0.234848
 C 0.6692 0.3738 0.179   0.285145
 C 0.6172 0.3982 0.4149   0.630361
 C 0.6001 0.5889 0.1649   -0.234946
 C 0.0712 0.1002 0.1952   -0.224693
 C 0.8256 0.2888 0.1228   0.016565
 C 0.7561 0.3681 0.1577   -0.274873
 C 0.0598 0.1284 0.3047   -0.252806
 O 0.563 0.361 0.5648   -0.542299
 O 0.6302 0.4614 0.5556   -0.558056
 O 0.5408 0.852 0.8001   -0.562313
 O 0.5339 0.8669 0.6931   -0.566775
 O 0.6413 0.4233 0.7494   -0.243678
 O 0.8721 0.0541 0.9353   -0.54058
 O 0.9718 0.1214 0.9271   -0.537685
 O 0.3612 0.0166 0.7885   -0.612741
 O 0.3725 0.0489 0.6855   -0.526388
 O 0.942 0.099 0.7155   -0.226782
 O 0.139 0.937 0.9352   -0.542299
 O 0.0386 0.8698 0.9444   -0.558056
 O 0.648 0.9592 0.6999   -0.562312
 O 0.6331 0.9661 0.8069   -0.566776
 O 0.0767 0.8587 0.7506   -0.243678
 O 0.4459 0.6279 0.5647   -0.54058
 O 0.3786 0.5282 0.5729   -0.537686
 O 0.4834 0.1388 0.7115   -0.61274
 O 0.4511 0.1275 0.8145   -0.526388
 O 0.401 0.558 0.7845   -0.226782
 O 0.437 0.639 0.4352   -0.5423
 O 0.3698 0.5386 0.4444   -0.558056
 O 0.4592 0.148 0.1999   -0.562312
 O 0.4661 0.1331 0.3069   -0.566775
 O 0.3587 0.5767 0.2506   -0.243678
 O 0.1279 0.9459 0.0647   -0.54058
 O 0.0282 0.8786 0.0729   -0.537685
 O 0.6388 0.9834 0.2115   -0.61274
 O 0.6275 0.9511 0.3145   -0.526387
 O 0.058 0.901 0.2845   -0.226782
 O 0.861 0.063 0.0648   -0.542299
 O 0.9614 0.1302 0.0556   -0.558056
 O 0.352 0.0408 0.3001   -0.562311
 O 0.3669 0.0339 0.1931   -0.566775
 O 0.9233 0.1413 0.2494   -0.243678
 O 0.5541 0.3721 0.4353   -0.54058
 O 0.6214 0.4718 0.4271   -0.537685
 O 0.5166 0.8612 0.2885   -0.612739
 O 0.5489 0.8725 0.1855   -0.526387
 O 0.599 0.442 0.2155   -0.226782
