{'_ref': 'TBD', '_srcid': 'CAKYAQ_clean', 'submitters': [{'name': 'Dalar Nazarian Jeff Camp and David Sholl', 'email': 'dalar@gatech.edu jcamp6@gatech.edu'}], '_method': 'VASP DFT with PBE;DDEC'}
data_CuH8C14O5
_symmetry_space_group_name_H-M   'P 1'
_cell_length_a   15.38619969
_cell_length_b   15.38619971
_cell_length_c   20.80800000
_cell_angle_alpha   85.35159883
_cell_angle_beta   85.35159882
_cell_angle_gamma   62.86249950
_symmetry_Int_Tables_number   1
_chemical_formula_structural   CuH8C14O5
_chemical_formula_sum   'Cu8 H64 C112 O40'
_cell_volume   4363.88830174
_cell_formula_units_Z   8
loop_
 _symmetry_equiv_pos_site_id
 _symmetry_equiv_pos_as_xyz
  1  'x, y, z'
loop_
 _atom_site_label
 _atom_site_fract_x
 _atom_site_fract_y
 _atom_site_fract_z
 _atom_site_charge
 Cu 0.98967 0.99215 0.31369   0.903395
 Cu 0.04121 0.55865 0.49695   0.877883
 Cu 0.00785 0.01033 0.18631   0.903394
 Cu 0.44135 0.95879 0.00305   0.877883
 Cu 0.01033 0.00785 0.68631   0.9034
 Cu 0.95879 0.44135 0.50305   0.877879
 Cu 0.99215 0.98967 0.81369   0.903399
 Cu 0.55865 0.04121 0.99695   0.877879
 H 0.3073 0.9709 0.1789   0.104117
 H 0.4655 0.9487 0.1907   0.134802
 H 0.2772 0.9206 0.369   0.104382
 H 0.4353 0.8975 0.3825   0.143379
 H 0.5735 0.7449 0.3453   0.133602
 H 0.8444 0.7958 0.3679   0.1041
 H 0.2762 0.1336 0.2954   0.120788
 H 0.5429 0.1053 0.1496   0.130338
 H 0.1475 0.2389 0.3607   0.105716
 H 0.6814 0.1138 0.3367   0.105588
 H 0.7081 0.0585 0.149   0.105729
 H 0.7118 0.9136 0.3152   0.124713
 H 0.3906 0.3222 0.2812   0.136873
 H 0.7076 0.6274 0.3978   0.10282
 H 0.2657 0.4245 0.3481   0.104371
 H 0.5166 0.1596 0.3381   0.135391
 H 0.0291 0.6927 0.3211   0.104118
 H 0.0513 0.5345 0.3093   0.134802
 H 0.0794 0.7228 0.131   0.104382
 H 0.1025 0.5647 0.1175   0.143379
 H 0.2551 0.4265 0.1547   0.133602
 H 0.2042 0.1556 0.1321   0.104101
 H 0.8664 0.7238 0.2046   0.120788
 H 0.8947 0.4571 0.3504   0.130338
 H 0.7611 0.8525 0.1393   0.105717
 H 0.8862 0.3186 0.1633   0.105587
 H 0.9415 0.2919 0.351   0.10573
 H 0.0864 0.2882 0.1848   0.124713
 H 0.6778 0.6094 0.2188   0.136871
 H 0.3726 0.2924 0.1022   0.10282
 H 0.5755 0.7343 0.1519   0.104371
 H 0.8404 0.4834 0.1619   0.135391
 H 0.6927 0.0291 0.8211   0.104117
 H 0.5345 0.0513 0.8093   0.134802
 H 0.7228 0.0794 0.631   0.10438
 H 0.5647 0.1025 0.6175   0.143376
 H 0.4265 0.2551 0.6547   0.133602
 H 0.1556 0.2042 0.6321   0.1041
 H 0.7238 0.8664 0.7046   0.120788
 H 0.4571 0.8947 0.8504   0.130338
 H 0.8525 0.7611 0.6393   0.105716
 H 0.3186 0.8862 0.6633   0.105584
 H 0.2919 0.9415 0.851   0.105729
 H 0.2882 0.0864 0.6848   0.124713
 H 0.6094 0.6778 0.7188   0.136873
 H 0.2924 0.3726 0.6022   0.102816
 H 0.7343 0.5755 0.6519   0.104369
 H 0.4834 0.8404 0.6619   0.135389
 H 0.9709 0.3073 0.6789   0.104118
 H 0.9487 0.4655 0.6907   0.134802
 H 0.9206 0.2772 0.869   0.10438
 H 0.8975 0.4353 0.8825   0.143376
 H 0.7449 0.5735 0.8453   0.133601
 H 0.7958 0.8444 0.8679   0.104101
 H 0.1336 0.2762 0.7954   0.120788
 H 0.1053 0.5429 0.6496   0.130338
 H 0.2389 0.1475 0.8607   0.105717
 H 0.1138 0.6814 0.8367   0.105584
 H 0.0585 0.7081 0.649   0.10573
 H 0.9136 0.7118 0.8152   0.124713
 H 0.3222 0.3906 0.7812   0.136871
 H 0.6274 0.7076 0.8978   0.102816
 H 0.4245 0.2657 0.8481   0.104369
 H 0.1596 0.5166 0.8381   0.135389
 C 0.1744 0.9622 0.2652   0.685749
 C 0.2763 0.9467 0.2735   -0.184137
 C 0.3331 0.9559 0.2196   0.015368
 C 0.4279 0.9425 0.2265   -0.223325
 C 0.3151 0.9257 0.3332   0.014374
 C 0.4098 0.9118 0.3417   -0.249985
 C 0.4653 0.9201 0.2871   0.280478
 C 0.6294 0.841 0.3259   0.289524
 C 0.6276 0.7554 0.3501   -0.266873
 C 0.8191 0.0493 0.2434   0.681735
 C 0.7901 0.7857 0.3638   0.020302
 C 0.8734 0.6252 0.4258   0.678044
 C 0.117 0.4052 0.4103   0.663736
 C 0.712 0.081 0.2428   -0.19583
 C 0.2738 0.1922 0.3062   -0.226099
 C 0.5713 0.1061 0.1872   -0.219974
 C 0.3464 0.2174 0.2832   0.285211
 C 0.1972 0.255 0.3457   0.017352
 C 0.1945 0.3413 0.3628   -0.181742
 C 0.7894 0.6994 0.3896   -0.197903
 C 0.6533 0.1117 0.2993   0.017225
 C 0.6697 0.0787 0.1869   0.014612
 C 0.7108 0.8562 0.3322   -0.226524
 C 0.3425 0.3047 0.2981   -0.248478
 C 0.7081 0.6853 0.3816   0.029289
 C 0.2677 0.3659 0.3378   0.015187
 C 0.5143 0.1351 0.2444   0.280333
 C 0.5552 0.1388 0.3003   -0.247519
 C 0.0378 0.8256 0.2348   0.68575
 C 0.0533 0.7237 0.2265   -0.184137
 C 0.0441 0.6669 0.2804   0.015368
 C 0.0575 0.5721 0.2735   -0.223325
 C 0.0743 0.6849 0.1668   0.014374
 C 0.0882 0.5902 0.1583   -0.249985
 C 0.0799 0.5347 0.2129   0.280478
 C 0.159 0.3706 0.1741   0.289524
 C 0.2446 0.3724 0.1499   -0.266873
 C 0.9507 0.1809 0.2566   0.681735
 C 0.2143 0.2099 0.1362   0.020302
 C 0.3748 0.1266 0.0742   0.678044
 C 0.5948 0.883 0.0897   0.663736
 C 0.919 0.288 0.2572   -0.19583
 C 0.8078 0.7262 0.1938   -0.226099
 C 0.8939 0.4287 0.3128   -0.219974
 C 0.7826 0.6536 0.2168   0.285211
 C 0.745 0.8028 0.1543   0.017351
 C 0.6587 0.8055 0.1372   -0.181742
 C 0.3006 0.2106 0.1104   -0.197902
 C 0.8883 0.3467 0.2007   0.017225
 C 0.9213 0.3303 0.3131   0.014612
 C 0.1438 0.2892 0.1678   -0.226524
 C 0.6953 0.6575 0.2019   -0.248477
 C 0.3147 0.2919 0.1184   0.029289
 C 0.6341 0.7323 0.1622   0.015187
 C 0.8649 0.4857 0.2556   0.280333
 C 0.8612 0.4448 0.1997   -0.247519
 C 0.8256 0.0378 0.7348   0.685749
 C 0.7237 0.0533 0.7265   -0.184137
 C 0.6669 0.0441 0.7804   0.015368
 C 0.5721 0.0575 0.7735   -0.223325
 C 0.6849 0.0743 0.6668   0.014374
 C 0.5902 0.0882 0.6583   -0.249984
 C 0.5347 0.0799 0.7129   0.280478
 C 0.3706 0.159 0.6741   0.289524
 C 0.3724 0.2446 0.6499   -0.266874
 C 0.1809 0.9507 0.7566   0.681735
 C 0.2099 0.2143 0.6362   0.020302
 C 0.1266 0.3748 0.5742   0.678044
 C 0.883 0.5948 0.5897   0.663735
 C 0.288 0.919 0.7572   -0.19583
 C 0.7262 0.8078 0.6938   -0.226099
 C 0.4287 0.8939 0.8128   -0.219974
 C 0.6536 0.7826 0.7168   0.285211
 C 0.8028 0.745 0.6543   0.017351
 C 0.8055 0.6587 0.6372   -0.181742
 C 0.2106 0.3006 0.6104   -0.197903
 C 0.3467 0.8883 0.7007   0.017226
 C 0.3303 0.9213 0.8131   0.014612
 C 0.2892 0.1438 0.6678   -0.226524
 C 0.6575 0.6953 0.7019   -0.248479
 C 0.2919 0.3147 0.6184   0.02929
 C 0.7323 0.6341 0.6622   0.015187
 C 0.4857 0.8649 0.7556   0.280332
 C 0.4448 0.8612 0.6997   -0.247519
 C 0.9622 0.1744 0.7652   0.68575
 C 0.9467 0.2763 0.7735   -0.184137
 C 0.9559 0.3331 0.7196   0.015368
 C 0.9425 0.4279 0.7265   -0.223325
 C 0.9257 0.3151 0.8332   0.014374
 C 0.9118 0.4098 0.8417   -0.249984
 C 0.9201 0.4653 0.7871   0.280478
 C 0.841 0.6294 0.8259   0.289524
 C 0.7554 0.6276 0.8501   -0.266873
 C 0.0493 0.8191 0.7434   0.681736
 C 0.7857 0.7901 0.8638   0.020302
 C 0.6252 0.8734 0.9258   0.678044
 C 0.4052 0.117 0.9103   0.663736
 C 0.081 0.712 0.7428   -0.19583
 C 0.1922 0.2738 0.8062   -0.226099
 C 0.1061 0.5713 0.6872   -0.219974
 C 0.2174 0.3464 0.7832   0.285211
 C 0.255 0.1972 0.8457   0.017351
 C 0.3413 0.1945 0.8628   -0.181742
 C 0.6994 0.7894 0.8896   -0.197903
 C 0.1117 0.6533 0.7993   0.017226
 C 0.0787 0.6697 0.6869   0.014612
 C 0.8562 0.7108 0.8322   -0.226524
 C 0.3047 0.3425 0.7981   -0.248477
 C 0.6853 0.7081 0.8816   0.02929
 C 0.3659 0.2677 0.8378   0.015187
 C 0.1351 0.5143 0.7444   0.280333
 C 0.1388 0.5552 0.8003   -0.247519
 O 0.12773 0.95273 0.31613   -0.567896
 O 0.142 0.9836 0.20944   -0.571254
 O 0.55641 0.91561 0.2908   -0.23783
 O 0.12222 0.48022 0.4254   -0.55696
 O 0.86983 0.54623 0.44453   -0.581214
 O 0.85292 0.03892 0.29871   -0.578071
 O 0.86883 0.03403 0.19063   -0.563207
 O 0.94143 0.64583 0.43667   -0.550046
 O 0.05364 0.37784 0.43186   -0.56043
 O 0.41799 0.15319 0.2419   -0.231203
 O 0.04727 0.87227 0.18387   -0.567895
 O 0.0164 0.858 0.29056   -0.571254
 O 0.08439 0.44359 0.2092   -0.23783
 O 0.51978 0.87778 0.0746   -0.55696
 O 0.45377 0.13017 0.05547   -0.581214
 O 0.96108 0.14708 0.20129   -0.578071
 O 0.96597 0.13117 0.30937   -0.563206
 O 0.35417 0.05857 0.06333   -0.550046
 O 0.62216 0.94636 0.06814   -0.56043
 O 0.84681 0.58201 0.2581   -0.231203
 O 0.87227 0.04727 0.68387   -0.567896
 O 0.858 0.0164 0.79056   -0.571255
 O 0.44359 0.08439 0.7092   -0.23783
 O 0.87778 0.51978 0.5746   -0.556959
 O 0.13017 0.45377 0.55547   -0.581214
 O 0.14708 0.96108 0.70129   -0.578072
 O 0.13117 0.96597 0.80937   -0.563207
 O 0.05857 0.35417 0.56333   -0.550046
 O 0.94636 0.62216 0.56814   -0.56043
 O 0.58201 0.84681 0.7581   -0.231203
 O 0.95273 0.12773 0.81613   -0.567895
 O 0.9836 0.142 0.70944   -0.571255
 O 0.91561 0.55641 0.7908   -0.23783
 O 0.48022 0.12222 0.9254   -0.556959
 O 0.54623 0.86983 0.94453   -0.581214
 O 0.03892 0.85292 0.79871   -0.578071
 O 0.03403 0.86883 0.69063   -0.563207
 O 0.64583 0.94143 0.93667   -0.550046
 O 0.37784 0.05364 0.93186   -0.56043
 O 0.15319 0.41799 0.7419   -0.231203
