{'_ref': 'TBD', '_srcid': 'CAKYAQ_clean', 'submitters': [{'name': 'Dalar Nazarian Jeff Camp and David Sholl', 'email': 'dalar@gatech.edu jcamp6@gatech.edu'}], '_method': 'VASP DFT with PBE;DDEC'}
data_ZnH2(CO)4
_symmetry_space_group_name_H-M   'P 1'
_cell_length_a   11.81130000
_cell_length_b   13.84789991
_cell_length_c   16.33440000
_cell_angle_alpha   90.00000000
_cell_angle_beta   90.00000000
_cell_angle_gamma   112.85099975
_symmetry_Int_Tables_number   1
_chemical_formula_structural   ZnH2(CO)4
_chemical_formula_sum   'Zn12 H24 C48 O48'
_cell_volume   2462.00287912
_cell_formula_units_Z   12
loop_
 _symmetry_equiv_pos_site_id
 _symmetry_equiv_pos_as_xyz
  1  'x, y, z'
loop_
 _atom_site_label
 _atom_site_fract_x
 _atom_site_fract_y
 _atom_site_fract_z
 _atom_site_charge
 Zn 0.60331 0.59978 0.45262   0.965564
 Zn 0.74454 0.28345 0.45491   1.121506
 Zn 0.94812 0.87276 0.63131   1.203217
 Zn 0.89669 0.90022 0.95262   0.965564
 Zn 0.75546 0.21655 0.95491   1.121506
 Zn 0.55188 0.62724 0.13131   1.203217
 Zn 0.39669 0.40022 0.54738   0.965565
 Zn 0.25546 0.71655 0.54509   1.121506
 Zn 0.05188 0.12724 0.36869   1.203219
 Zn 0.10331 0.09978 0.04738   0.965565
 Zn 0.24454 0.78345 0.04509   1.121506
 Zn 0.44812 0.37276 0.86869   1.203219
 H 0.8966 0.461 0.5807   0.138923
 H 0.8332 0.3946 0.7048   0.124385
 H 0.6664 0.3715 0.7745   0.115869
 H 0.8238 0.5195 0.7974   0.114323
 H 0.8818 0.6773 0.7437   0.129438
 H 0.9508 0.5624 0.6916   0.132261
 H 0.6034 0.039 0.0807   0.138923
 H 0.6668 0.1054 0.2048   0.124385
 H 0.8336 0.1285 0.2745   0.115869
 H 0.6762 0.9805 0.2974   0.114323
 H 0.6182 0.8227 0.2437   0.129438
 H 0.5492 0.9376 0.1916   0.132261
 H 0.1034 0.539 0.4193   0.138923
 H 0.1668 0.6054 0.2952   0.124385
 H 0.3336 0.6285 0.2255   0.115869
 H 0.1762 0.4805 0.2026   0.114323
 H 0.1182 0.3227 0.2563   0.129438
 H 0.0492 0.4376 0.3084   0.132261
 H 0.3966 0.961 0.9193   0.138923
 H 0.3332 0.8946 0.7952   0.124385
 H 0.1664 0.8715 0.7255   0.115869
 H 0.3238 0.0195 0.7026   0.114323
 H 0.3818 0.1773 0.7563   0.129438
 H 0.4508 0.0624 0.8084   0.132261
 C 0.7562 0.4928 0.53384   0.749455
 C 0.8331 0.4811 0.60499   -0.173118
 C 0.7659 0.395 0.66984   -0.150374
 C 0.6829 0.4225 0.72989   -0.18092
 C 0.7563 0.5307 0.76968   -0.145499
 C 0.8236 0.6212 0.71027   -0.186265
 C 0.9024 0.5843 0.65254   -0.155769
 C 0.7058 0.2813 0.6411   0.706368
 C 0.5578 0.4048 0.69389   0.750378
 C 0.6929 0.5634 0.8394   0.731491
 C 0.7357 0.6659 0.67351   0.725336
 C 0.0029 0.6686 0.60368   0.727368
 C 0.7438 0.0072 0.03384   0.749455
 C 0.6669 0.0189 0.10499   -0.173118
 C 0.7341 0.105 0.16984   -0.150374
 C 0.8171 0.0775 0.22989   -0.18092
 C 0.7437 0.9693 0.26968   -0.145499
 C 0.6764 0.8788 0.21027   -0.186265
 C 0.5976 0.9157 0.15254   -0.155769
 C 0.7942 0.2187 0.1411   0.706368
 C 0.9422 0.0952 0.19389   0.750378
 C 0.8071 0.9366 0.3394   0.731491
 C 0.7643 0.8341 0.17351   0.725336
 C 0.4971 0.8314 0.10368   0.727368
 C 0.2438 0.5072 0.46616   0.749455
 C 0.1669 0.5189 0.39501   -0.173118
 C 0.2341 0.605 0.33016   -0.150374
 C 0.3171 0.5775 0.27011   -0.18092
 C 0.2437 0.4693 0.23032   -0.145499
 C 0.1764 0.3788 0.28973   -0.186265
 C 0.0976 0.4157 0.34746   -0.155769
 C 0.2942 0.7187 0.3589   0.706369
 C 0.4422 0.5952 0.30611   0.750378
 C 0.3071 0.4366 0.1606   0.731491
 C 0.2643 0.3341 0.32649   0.725336
 C 0.9971 0.3314 0.39632   0.727368
 C 0.2562 0.9928 0.96616   0.749455
 C 0.3331 0.9811 0.89501   -0.173118
 C 0.2659 0.895 0.83016   -0.150374
 C 0.1829 0.9225 0.77011   -0.18092
 C 0.2563 0.0307 0.73032   -0.145499
 C 0.3236 0.1212 0.78973   -0.186265
 C 0.4024 0.0843 0.84746   -0.155769
 C 0.2058 0.7813 0.8589   0.706369
 C 0.0578 0.9048 0.80611   0.750378
 C 0.1929 0.0634 0.6606   0.731491
 C 0.2357 0.1659 0.82649   0.725336
 C 0.5029 0.1686 0.89632   0.727368
 O 0.7342 0.57392 0.52837   -0.536835
 O 0.7221 0.42138 0.47871   -0.674393
 O 0.7441 0.254 0.57603   -0.689083
 O 0.63 0.21772 0.68767   -0.562112
 O 0.5421 0.39453 0.61782   -0.579759
 O 0.47 0.39503 0.74331   -0.62334
 O 0.6179 0.49492 0.88541   -0.70158
 O 0.7283 0.65929 0.85371   -0.568199
 O 0.6229 0.61398 0.68268   -0.577739
 O 0.7774 0.75487 0.63906   -0.69351
 O 0.0261 0.76362 0.61484   -0.651228
 O 0.0684 0.63623 0.55954   -0.586159
 O 0.7658 0.92608 0.02837   -0.536835
 O 0.7779 0.07862 0.97871   -0.674393
 O 0.7559 0.246 0.07603   -0.689083
 O 0.87 0.28228 0.18767   -0.562112
 O 0.9579 0.10547 0.11782   -0.579759
 O 0.03 0.10497 0.24331   -0.62334
 O 0.8821 0.00508 0.38541   -0.70158
 O 0.7717 0.84071 0.35371   -0.568199
 O 0.8771 0.88602 0.18268   -0.577739
 O 0.7226 0.74513 0.13906   -0.69351
 O 0.4739 0.73638 0.11484   -0.651228
 O 0.4316 0.86377 0.05954   -0.586159
 O 0.2658 0.42608 0.47163   -0.536835
 O 0.2779 0.57862 0.52129   -0.674393
 O 0.2559 0.746 0.42397   -0.689083
 O 0.37 0.78228 0.31233   -0.562112
 O 0.4579 0.60547 0.38218   -0.579759
 O 0.53 0.60497 0.25669   -0.62334
 O 0.3821 0.50508 0.11459   -0.70158
 O 0.2717 0.34071 0.14629   -0.568199
 O 0.3771 0.38602 0.31732   -0.577739
 O 0.2226 0.24513 0.36094   -0.693511
 O 0.9739 0.23638 0.38516   -0.651228
 O 0.9316 0.36377 0.44046   -0.586159
 O 0.2342 0.07392 0.97163   -0.536835
 O 0.2221 0.92138 0.02129   -0.674393
 O 0.2441 0.754 0.92397   -0.689083
 O 0.13 0.71772 0.81233   -0.562112
 O 0.0421 0.89453 0.88218   -0.579759
 O 0.97 0.89503 0.75669   -0.62334
 O 0.1179 0.99492 0.61459   -0.70158
 O 0.2283 0.15929 0.64629   -0.568199
 O 0.1229 0.11398 0.81732   -0.577739
 O 0.2774 0.25487 0.86094   -0.693511
 O 0.5261 0.26362 0.88516   -0.651228
 O 0.5684 0.13623 0.94046   -0.586159
