{'_ref': 'TBD', '_srcid': 'CAKYAQ_clean', 'submitters': [{'name': 'Dalar Nazarian Jeff Camp and David Sholl', 'email': 'dalar@gatech.edu jcamp6@gatech.edu'}], '_method': 'VASP DFT with PBE;DDEC'}
data_AgH6C10N6O
_symmetry_space_group_name_H-M   'P 1'
_cell_length_a   10.78450000
_cell_length_b   10.78450000
_cell_length_c   14.11900000
_cell_angle_alpha   90.00000000
_cell_angle_beta   90.00000000
_cell_angle_gamma   90.00000000
_symmetry_Int_Tables_number   1
_chemical_formula_structural   AgH6C10N6O
_chemical_formula_sum   'Ag4 H24 C40 N24 O4'
_cell_volume   1642.11651089
_cell_formula_units_Z   4
loop_
 _symmetry_equiv_pos_site_id
 _symmetry_equiv_pos_as_xyz
  1  'x, y, z'
loop_
 _atom_site_label
 _atom_site_fract_x
 _atom_site_fract_y
 _atom_site_fract_z
 _atom_site_charge
 Ag 0.5 0.5 0.31844   0.269362
 Ag 0.0 0.0 0.81844   0.269362
 Ag 0.5 0.5 0.68156   0.26936
 Ag 0.0 0.0 0.18156   0.26936
 H 0.1447 0.1447 0.3632   0.074589
 H 0.3553 0.6447 0.8632   0.074589
 H 0.6447 0.3553 0.8632   0.07459
 H 0.1447 0.1447 0.6368   0.074591
 H 0.8553 0.8553 0.3632   0.07459
 H 0.3553 0.6447 0.1368   0.074591
 H 0.6447 0.3553 0.1368   0.074591
 H 0.8553 0.8553 0.6368   0.074591
 H 0.189 0.189 0.0935   0.076123
 H 0.311 0.689 0.5935   0.076123
 H 0.689 0.311 0.5935   0.076123
 H 0.189 0.189 0.9065   0.076122
 H 0.811 0.811 0.0935   0.076123
 H 0.311 0.689 0.4065   0.076122
 H 0.689 0.311 0.4065   0.076122
 H 0.811 0.811 0.9065   0.076122
 H 0.3372 0.3372 0.1243   0.075618
 H 0.1628 0.8372 0.6243   0.075618
 H 0.8372 0.1628 0.6243   0.075618
 H 0.3372 0.3372 0.8757   0.075621
 H 0.6628 0.6628 0.1243   0.075618
 H 0.1628 0.8372 0.3757   0.075621
 H 0.8372 0.1628 0.3757   0.075621
 H 0.6628 0.6628 0.8757   0.075621
 C 0.3075 0.3075 0.4259   0.293038
 C 0.1925 0.8075 0.9259   0.293038
 C 0.8075 0.1925 0.9259   0.293038
 C 0.3075 0.3075 0.5741   0.293035
 C 0.6925 0.6925 0.4259   0.293038
 C 0.1925 0.8075 0.0741   0.293035
 C 0.8075 0.1925 0.0741   0.293035
 C 0.6925 0.6925 0.5741   0.293035
 C 0.2715 0.2715 0.3299   0.041614
 C 0.2285 0.7715 0.8299   0.041614
 C 0.7715 0.2285 0.8299   0.041614
 C 0.2715 0.2715 0.6701   0.041615
 C 0.7285 0.7285 0.3299   0.041614
 C 0.2285 0.7715 0.1701   0.041615
 C 0.7715 0.2285 0.1701   0.041615
 C 0.7285 0.7285 0.6701   0.041615
 C 0.183 0.183 0.312   0.073311
 C 0.317 0.683 0.812   0.073311
 C 0.683 0.317 0.812   0.073311
 C 0.183 0.183 0.688   0.073311
 C 0.817 0.817 0.312   0.073311
 C 0.317 0.683 0.188   0.073311
 C 0.683 0.317 0.188   0.07331
 C 0.817 0.817 0.688   0.07331
 C 0.2079 0.2079 0.1561   0.002507
 C 0.2921 0.7079 0.6561   0.002507
 C 0.7079 0.2921 0.6561   0.002507
 C 0.2079 0.2079 0.8439   0.002507
 C 0.7921 0.7921 0.1561   0.002507
 C 0.2921 0.7079 0.3439   0.002507
 C 0.7079 0.2921 0.3439   0.002507
 C 0.7921 0.7921 0.8439   0.002507
 C 0.2982 0.2982 0.175   0.083395
 C 0.2018 0.7982 0.675   0.083395
 C 0.7982 0.2018 0.675   0.083395
 C 0.2982 0.2982 0.825   0.083394
 C 0.7018 0.7018 0.175   0.083395
 C 0.2018 0.7982 0.325   0.083394
 C 0.7982 0.2018 0.325   0.083394
 C 0.7018 0.7018 0.825   0.083394
 N 0.3297 0.3297 0.2608   -0.297925
 N 0.1703 0.8297 0.7608   -0.297925
 N 0.8297 0.1703 0.7608   -0.297925
 N 0.3297 0.3297 0.7392   -0.297925
 N 0.6703 0.6703 0.2608   -0.297925
 N 0.1703 0.8297 0.2392   -0.297925
 N 0.8297 0.1703 0.2392   -0.297925
 N 0.6703 0.6703 0.7392   -0.297925
 N 0.3888 0.3888 0.4504   -0.219753
 N 0.1112 0.8888 0.9504   -0.219753
 N 0.8888 0.1112 0.9504   -0.219753
 N 0.3888 0.3888 0.5496   -0.219745
 N 0.6112 0.6112 0.4504   -0.219753
 N 0.1112 0.8888 0.0496   -0.219745
 N 0.8888 0.1112 0.0496   -0.219745
 N 0.6112 0.6112 0.5496   -0.219745
 N 0.1491 0.1491 0.2246   -0.225684
 N 0.3509 0.6491 0.7246   -0.225684
 N 0.6491 0.3509 0.7246   -0.225684
 N 0.1491 0.1491 0.7754   -0.225684
 N 0.8509 0.8509 0.2246   -0.225684
 N 0.3509 0.6491 0.2754   -0.225684
 N 0.6491 0.3509 0.2754   -0.225684
 N 0.8509 0.8509 0.7754   -0.225684
 O 0.2521 0.2521 0.5   -0.223035
 O 0.2479 0.7521 0.0   -0.223035
 O 0.7521 0.2479 0.0   -0.223035
 O 0.7479 0.7479 0.5   -0.223035
