{'_ref': 'TBD', '_srcid': 'CAKYAQ_clean', 'submitters': [{'name': 'Dalar Nazarian Jeff Camp and David Sholl', 'email': 'dalar@gatech.edu jcamp6@gatech.edu'}], '_method': 'VASP DFT with PBE;DDEC'}
data_Cu2P3H17C19N2O9
_symmetry_space_group_name_H-M   'P 1'
_cell_length_a   7.91720000
_cell_length_b   17.77680000
_cell_length_c   20.38540000
_cell_angle_alpha   90.00000000
_cell_angle_beta   90.00000000
_cell_angle_gamma   90.00000000
_symmetry_Int_Tables_number   1
_chemical_formula_structural   Cu2P3H17C19N2O9
_chemical_formula_sum   'Cu8 P12 H68 C76 N8 O36'
_cell_volume   2869.09177136
_cell_formula_units_Z   4
loop_
 _symmetry_equiv_pos_site_id
 _symmetry_equiv_pos_as_xyz
  1  'x, y, z'
loop_
 _atom_site_label
 _atom_site_fract_x
 _atom_site_fract_y
 _atom_site_fract_z
 _atom_site_charge
 Cu 0.33031 0.89378 0.95139   1.017144
 Cu 0.66969 0.89378 0.04861   1.017145
 Cu 0.83031 0.10622 0.54861   1.017144
 Cu 0.16969 0.10622 0.45139   1.017145
 Cu 0.66969 0.10622 0.04861   1.017145
 Cu 0.33031 0.10622 0.95139   1.017146
 Cu 0.16969 0.89378 0.45139   1.017145
 Cu 0.83031 0.89378 0.54861   1.017146
 P 0.27112 0.84486 0.80065   1.417159
 P 0.72888 0.84486 0.19935   1.417159
 P 0.77112 0.15514 0.69935   1.417159
 P 0.22888 0.15514 0.30065   1.417159
 P 0.72888 0.15514 0.19935   1.417159
 P 0.27112 0.15514 0.80065   1.417159
 P 0.22888 0.84486 0.30065   1.417159
 P 0.77112 0.84486 0.69935   1.417159
 P 0.1197 0.0 0.57155   1.520891
 P 0.8803 0.0 0.42845   1.520891
 P 0.6197 0.0 0.92845   1.520891
 P 0.3803 0.0 0.07155   1.520891
 H 0.0291 0.8124 0.7897   0.432602
 H 0.1961 0.8856 0.6658   0.090132
 H 0.2617 0.6125 0.9333   0.136546
 H 0.0759 0.7038 0.1001   0.155362
 H 0.1079 0.5673 0.092   0.144971
 H 0.9661 0.5697 0.0397   0.105339
 H 0.3045 0.731 0.897   0.088421
 H 0.201 0.818 0.068   0.106034
 H 0.9709 0.8124 0.2103   0.432602
 H 0.8039 0.8856 0.3342   0.090132
 H 0.7383 0.6125 0.0667   0.136544
 H 0.9241 0.7038 0.8999   0.155362
 H 0.8921 0.5673 0.908   0.144969
 H 0.0339 0.5697 0.9603   0.105339
 H 0.6955 0.731 0.103   0.088421
 H 0.799 0.818 0.932   0.106034
 H 0.5291 0.1876 0.7103   0.432602
 H 0.6961 0.1144 0.8342   0.090132
 H 0.7617 0.3875 0.5667   0.136546
 H 0.5759 0.2962 0.3999   0.155362
 H 0.6079 0.4327 0.408   0.144971
 H 0.4661 0.4303 0.4603   0.105339
 H 0.8045 0.269 0.603   0.088421
 H 0.701 0.182 0.432   0.106034
 H 0.4709 0.1876 0.2897   0.432602
 H 0.3039 0.1144 0.1658   0.090132
 H 0.2383 0.3875 0.4333   0.136544
 H 0.4241 0.2962 0.6001   0.155362
 H 0.3921 0.4327 0.592   0.144969
 H 0.5339 0.4303 0.5397   0.105339
 H 0.1955 0.269 0.397   0.088421
 H 0.299 0.182 0.568   0.106034
 H 0.9709 0.1876 0.2103   0.432602
 H 0.8039 0.1144 0.3342   0.090132
 H 0.7383 0.3875 0.0667   0.136543
 H 0.9241 0.2962 0.8999   0.155362
 H 0.8921 0.4327 0.908   0.144962
 H 0.0339 0.4303 0.9603   0.105338
 H 0.6955 0.269 0.103   0.088421
 H 0.799 0.182 0.932   0.106034
 H 0.0291 0.1876 0.7897   0.432602
 H 0.1961 0.1144 0.6658   0.090132
 H 0.2617 0.3875 0.9333   0.136541
 H 0.0759 0.2962 0.1001   0.155362
 H 0.1079 0.4327 0.092   0.14496
 H 0.9661 0.4303 0.0397   0.105338
 H 0.3045 0.269 0.897   0.088421
 H 0.201 0.182 0.068   0.106034
 H 0.4709 0.8124 0.2897   0.432602
 H 0.3039 0.8856 0.1658   0.090132
 H 0.2383 0.6125 0.4333   0.136543
 H 0.4241 0.7038 0.6001   0.155362
 H 0.3921 0.5673 0.592   0.144962
 H 0.5339 0.5697 0.5397   0.105338
 H 0.1955 0.731 0.397   0.088421
 H 0.299 0.818 0.568   0.106034
 H 0.5291 0.8124 0.7103   0.432602
 H 0.6961 0.8856 0.8342   0.090132
 H 0.7617 0.6125 0.5667   0.136541
 H 0.5759 0.7038 0.3999   0.155362
 H 0.6079 0.5673 0.408   0.14496
 H 0.4661 0.5697 0.4603   0.105338
 H 0.8045 0.731 0.603   0.088421
 H 0.701 0.818 0.432   0.106034
 H 0.309 0.0 0.826   0.040514
 H 0.691 0.0 0.174   0.040514
 H 0.809 0.0 0.674   0.040514
 H 0.191 0.0 0.326   0.040514
 C 0.2484 0.9319 0.7559   -0.400138
 C 0.2083 0.9323 0.689   0.136009
 C 0.235 0.6546 0.9609   -0.226441
 C 0.1566 0.6441 0.0203   0.159735
 C 0.14 0.7067 0.0602   -0.23143
 C 0.086 0.5702 0.0457   -0.216831
 C 0.283 0.7226 0.9427   0.192748
 C 0.2205 0.776 0.0426   0.216784
 C 0.7516 0.9319 0.2441   -0.400138
 C 0.7917 0.9323 0.311   0.136009
 C 0.765 0.6546 0.0391   -0.22644
 C 0.8434 0.6441 0.9797   0.159734
 C 0.86 0.7067 0.9398   -0.23143
 C 0.914 0.5702 0.9543   -0.21683
 C 0.717 0.7226 0.0573   0.192748
 C 0.7795 0.776 0.9574   0.216784
 C 0.7484 0.0681 0.7441   -0.400138
 C 0.7083 0.0677 0.811   0.136009
 C 0.735 0.3454 0.5391   -0.226441
 C 0.6566 0.3559 0.4797   0.159735
 C 0.64 0.2933 0.4398   -0.23143
 C 0.586 0.4298 0.4543   -0.216831
 C 0.783 0.2774 0.5573   0.192748
 C 0.7205 0.224 0.4574   0.216784
 C 0.2516 0.0681 0.2559   -0.400138
 C 0.2917 0.0677 0.189   0.136009
 C 0.265 0.3454 0.4609   -0.22644
 C 0.3434 0.3559 0.5203   0.159734
 C 0.36 0.2933 0.5602   -0.23143
 C 0.414 0.4298 0.5457   -0.21683
 C 0.217 0.2774 0.4427   0.192748
 C 0.2795 0.224 0.5426   0.216784
 C 0.7516 0.0681 0.2441   -0.400139
 C 0.7917 0.0677 0.311   0.136009
 C 0.765 0.3454 0.0391   -0.22644
 C 0.8434 0.3559 0.9797   0.159733
 C 0.86 0.2933 0.9398   -0.23143
 C 0.914 0.4298 0.9543   -0.216827
 C 0.717 0.2774 0.0573   0.192747
 C 0.7795 0.224 0.9574   0.216784
 C 0.2484 0.0681 0.7559   -0.400139
 C 0.2083 0.0677 0.689   0.136009
 C 0.235 0.3454 0.9609   -0.226439
 C 0.1566 0.3559 0.0203   0.159733
 C 0.14 0.2933 0.0602   -0.23143
 C 0.086 0.4298 0.0457   -0.216826
 C 0.283 0.2774 0.9427   0.192748
 C 0.2205 0.224 0.0426   0.216784
 C 0.2516 0.9319 0.2559   -0.400139
 C 0.2917 0.9323 0.189   0.136009
 C 0.265 0.6546 0.4609   -0.22644
 C 0.3434 0.6441 0.5203   0.159733
 C 0.36 0.7067 0.5602   -0.23143
 C 0.414 0.5702 0.5457   -0.216827
 C 0.217 0.7226 0.4427   0.192747
 C 0.2795 0.776 0.5426   0.216784
 C 0.7484 0.9319 0.7441   -0.400139
 C 0.7083 0.9323 0.811   0.136009
 C 0.735 0.6546 0.5391   -0.226439
 C 0.6566 0.6441 0.4797   0.159733
 C 0.64 0.7067 0.4398   -0.23143
 C 0.586 0.5702 0.4543   -0.216826
 C 0.783 0.7226 0.5573   0.192748
 C 0.7205 0.776 0.4574   0.216784
 C 0.268 0.0 0.7885   0.174447
 C 0.1867 0.0 0.6561   -0.363543
 C 0.732 0.0 0.2115   0.174447
 C 0.8133 0.0 0.3439   -0.363543
 C 0.768 0.0 0.7115   0.174447
 C 0.6867 0.0 0.8439   -0.363543
 C 0.232 0.0 0.2885   0.174447
 C 0.3133 0.0 0.1561   -0.363543
 C 0.161 0.5 0.0121   -0.078204
 C 0.839 0.5 0.9879   -0.078203
 C 0.661 0.5 0.4879   -0.078204
 C 0.339 0.5 0.5121   -0.078203
 N 0.2896 0.7875 0.983   -0.397727
 N 0.7104 0.7875 0.017   -0.397727
 N 0.7896 0.2125 0.517   -0.397727
 N 0.2104 0.2125 0.483   -0.397727
 N 0.7104 0.2125 0.017   -0.397727
 N 0.2896 0.2125 0.983   -0.397727
 N 0.2104 0.7875 0.483   -0.397727
 N 0.7896 0.7875 0.517   -0.397727
 O 0.3692 0.86097 0.86286   -0.799622
 O 0.0884 0.82165 0.8229   -0.723141
 O 0.3495 0.7866 0.75635   -0.782462
 O 0.183 0.0723 0.54129   -0.85101
 O 0.6308 0.86097 0.13714   -0.799622
 O 0.9116 0.82165 0.1771   -0.723141
 O 0.6505 0.7866 0.24365   -0.782462
 O 0.817 0.0723 0.45871   -0.85101
 O 0.8692 0.13903 0.63714   -0.799622
 O 0.5884 0.17835 0.6771   -0.723141
 O 0.8495 0.2134 0.74365   -0.782462
 O 0.683 0.9277 0.95871   -0.85101
 O 0.1308 0.13903 0.36286   -0.799622
 O 0.4116 0.17835 0.3229   -0.723141
 O 0.1505 0.2134 0.25635   -0.782462
 O 0.317 0.9277 0.04129   -0.85101
 O 0.6308 0.13903 0.13714   -0.799622
 O 0.9116 0.17835 0.1771   -0.723141
 O 0.6505 0.2134 0.24365   -0.782462
 O 0.817 0.9277 0.45871   -0.85101
 O 0.3692 0.13903 0.86286   -0.799622
 O 0.0884 0.17835 0.8229   -0.723141
 O 0.3495 0.2134 0.75635   -0.782462
 O 0.183 0.9277 0.54129   -0.85101
 O 0.1308 0.86097 0.36286   -0.799622
 O 0.4116 0.82165 0.3229   -0.723141
 O 0.1505 0.7866 0.25635   -0.782462
 O 0.317 0.0723 0.04129   -0.85101
 O 0.8692 0.86097 0.63714   -0.799622
 O 0.5884 0.82165 0.6771   -0.723141
 O 0.8495 0.7866 0.74365   -0.782462
 O 0.683 0.0723 0.95871   -0.85101
 O 0.9244 0.0 0.57007   -0.834459
 O 0.0756 0.0 0.42993   -0.834459
 O 0.4244 0.0 0.92993   -0.834459
 O 0.5756 0.0 0.07007   -0.834459
