{'_ref': 'TBD', '_srcid': 'CAKYAQ_clean', 'submitters': [{'name': 'Dalar Nazarian Jeff Camp and David Sholl', 'email': 'dalar@gatech.edu jcamp6@gatech.edu'}], '_method': 'VASP DFT with PBE;DDEC'}
data_SmH9C18(NO2)3
_symmetry_space_group_name_H-M   'P 1'
_cell_length_a   15.51170000
_cell_length_b   17.10050000
_cell_length_c   25.52729967
_cell_angle_alpha   98.29799941
_cell_angle_beta   90.00000000
_cell_angle_gamma   90.00000000
_symmetry_Int_Tables_number   1
_chemical_formula_structural   SmH9C18(NO2)3
_chemical_formula_sum   'Sm8 H72 C144 N24 O48'
_cell_volume   6700.42594386
_cell_formula_units_Z   8
loop_
 _symmetry_equiv_pos_site_id
 _symmetry_equiv_pos_as_xyz
  1  'x, y, z'
loop_
 _atom_site_label
 _atom_site_fract_x
 _atom_site_fract_y
 _atom_site_fract_z
 _atom_site_charge
 Sm 0.82514 0.68543 0.74935   2.317147
 Sm 0.29453 0.53682 0.24954   2.335985
 Sm 0.32514 0.81457 0.25065   2.317146
 Sm 0.79453 0.96318 0.75046   2.335984
 Sm 0.17486 0.31457 0.25065   2.317147
 Sm 0.70547 0.46318 0.75046   2.335985
 Sm 0.67486 0.18543 0.74935   2.317145
 Sm 0.20547 0.03682 0.24954   2.335984
 H 0.9994 0.6193 0.8864   0.085864
 H 0.8966 0.4163 0.9719   0.119386
 H 0.8378 0.4368 0.8914   0.10809
 H 0.9307 0.6088 0.6347   0.064726
 H 0.9339 0.3839 0.5091   0.118392
 H 0.8613 0.383 0.5884   0.106924
 H 0.5858 0.5466 0.8594   0.063037
 H 0.5712 0.7746 0.982   0.114929
 H 0.6571 0.7715 0.9073   0.103453
 H 0.3559 0.552 0.0743   0.085611
 H 0.5257 0.7668 0.0491   0.116896
 H 0.4602 0.7626 0.1303   0.090448
 H 0.4054 0.5659 0.3818   0.074572
 H 0.4696 0.7853 0.5049   0.114366
 H 0.412 0.8016 0.4233   0.083137
 H 0.6624 0.7308 0.6215   0.102416
 H 0.5909 0.7542 0.5455   0.111655
 H 0.5231 0.5331 0.6235   0.08564
 H 0.4994 0.8807 0.1136   0.085864
 H 0.3966 0.0837 0.0281   0.119386
 H 0.3378 0.0632 0.1086   0.10809
 H 0.4307 0.8912 0.3653   0.064726
 H 0.4339 0.1161 0.4909   0.118392
 H 0.3613 0.117 0.4116   0.106924
 H 0.0858 0.9534 0.1406   0.063037
 H 0.0712 0.7254 0.018   0.114929
 H 0.1571 0.7285 0.0927   0.103453
 H 0.8559 0.948 0.9257   0.085611
 H 0.0257 0.7332 0.9509   0.116897
 H 0.9602 0.7374 0.8697   0.090447
 H 0.9054 0.9341 0.6182   0.074572
 H 0.9696 0.7147 0.4951   0.114366
 H 0.912 0.6984 0.5767   0.083137
 H 0.1624 0.7692 0.3785   0.102416
 H 0.0909 0.7458 0.4545   0.111655
 H 0.0231 0.9669 0.3765   0.08564
 H 0.000599999999999 0.3807 0.1136   0.085864
 H 0.1034 0.5837 0.0281   0.119387
 H 0.1622 0.5632 0.1086   0.10809
 H 0.0693 0.3912 0.3653   0.064726
 H 0.0661 0.6161 0.4909   0.118393
 H 0.1387 0.617 0.4116   0.106924
 H 0.4142 0.4534 0.1406   0.063037
 H 0.4288 0.2254 0.018   0.114929
 H 0.3429 0.2285 0.0927   0.103453
 H 0.6441 0.448 0.9257   0.085611
 H 0.4743 0.2332 0.9509   0.116896
 H 0.5398 0.2374 0.8697   0.090448
 H 0.5946 0.4341 0.6182   0.074572
 H 0.5304 0.2147 0.4951   0.114366
 H 0.588 0.1984 0.5767   0.083137
 H 0.3376 0.2692 0.3785   0.102416
 H 0.4091 0.2458 0.4545   0.111655
 H 0.4769 0.4669 0.3765   0.08564
 H 0.5006 0.1193 0.8864   0.085864
 H 0.6034 0.9163 0.9719   0.119387
 H 0.6622 0.9368 0.8914   0.10809
 H 0.5693 0.1088 0.6347   0.064726
 H 0.5661 0.8839 0.5091   0.118393
 H 0.6387 0.883 0.5884   0.106924
 H 0.9142 0.0466 0.8594   0.063037
 H 0.9288 0.2746 0.982   0.114929
 H 0.8429 0.2715 0.9073   0.103453
 H 0.1441 0.052 0.0743   0.085611
 H 0.9743 0.2668 0.0491   0.116897
 H 0.0398 0.2626 0.1303   0.090447
 H 0.0946 0.0659 0.3818   0.074572
 H 0.0304 0.2853 0.5049   0.114366
 H 0.088 0.3016 0.4233   0.083137
 H 0.8376 0.2308 0.6215   0.102416
 H 0.9091 0.2542 0.5455   0.111655
 H 0.9769 0.0331 0.6235   0.08564
 C 0.9128 0.5301 0.8809   -0.228912
 C 0.9788 0.5786 0.9036   0.202852
 C 0.9832 0.5055 0.9774   0.226524
 C 0.9172 0.457 0.9548   -0.158129
 C 0.882 0.4693 0.9065   0.025373
 C 0.8719 0.5421 0.8274   0.815359
 C 0.8888 0.4959 0.6195   -0.244706
 C 0.9313 0.5637 0.6096   0.225943
 C 0.9758 0.4969 0.5244   0.224422
 C 0.9333 0.429 0.5343   -0.167882
 C 0.8898 0.4285 0.5818   0.043288
 C 0.8391 0.4954 0.666   0.848131
 C 0.63 0.6588 0.8759   -0.241243
 C 0.5829 0.5923 0.8839   0.210035
 C 0.527 0.6625 0.9654   0.229364
 C 0.5741 0.7289 0.9574   -0.182008
 C 0.6256 0.7271 0.9127   0.033299
 C 0.6866 0.6591 0.829   0.812722
 C 0.4015 0.6569 0.1104   -0.245758
 C 0.3899 0.595 0.0693   0.209627
 C 0.4801 0.6619 0.013   0.231962
 C 0.4917 0.7237 0.0541   -0.196696
 C 0.4524 0.7212 0.1028   0.05623
 C 0.3631 0.6472 0.1621   0.836834
 C 0.403 0.6854 0.3945   -0.273393
 C 0.4183 0.6099 0.4065   0.207171
 C 0.472 0.6658 0.4922   0.238568
 C 0.4567 0.7413 0.4802   -0.207886
 C 0.4222 0.7511 0.4313   0.057423
 C 0.3697 0.6953 0.3417   0.878265
 C 0.5998 0.6297 0.6301   -0.242895
 C 0.6201 0.6959 0.6067   0.02778
 C 0.5773 0.7099 0.5611   -0.201576
 C 0.5141 0.6577 0.539   0.226611
 C 0.5367 0.5774 0.6079   0.212466
 C 0.6528 0.6153 0.6794   0.821031
 C 0.4128 0.9699 0.1191   -0.228912
 C 0.4788 0.9214 0.0964   0.202852
 C 0.4832 0.9945 0.0226   0.226524
 C 0.4172 0.043 0.0452   -0.158129
 C 0.382 0.0307 0.0935   0.025373
 C 0.3719 0.9579 0.1726   0.815359
 C 0.3888 0.0041 0.3805   -0.244706
 C 0.4313 0.9363 0.3904   0.225943
 C 0.4758 0.0031 0.4756   0.224423
 C 0.4333 0.071 0.4657   -0.167882
 C 0.3898 0.0715 0.4182   0.043288
 C 0.3391 0.0046 0.334   0.848131
 C 0.13 0.8412 0.1241   -0.241243
 C 0.0829 0.9077 0.1161   0.210035
 C 0.027 0.8375 0.0346   0.229364
 C 0.0741 0.7711 0.0426   -0.182008
 C 0.1256 0.7729 0.0873   0.033299
 C 0.1866 0.8409 0.171   0.812722
 C 0.9015 0.8431 0.8896   -0.245758
 C 0.8899 0.905 0.9307   0.209627
 C 0.9801 0.8381 0.987   0.231962
 C 0.9917 0.7763 0.9459   -0.196696
 C 0.9524 0.7788 0.8972   0.05623
 C 0.8631 0.8528 0.8379   0.836834
 C 0.903 0.8146 0.6055   -0.273393
 C 0.9183 0.8901 0.5935   0.207171
 C 0.972 0.8342 0.5078   0.238569
 C 0.9567 0.7587 0.5198   -0.207886
 C 0.9222 0.7489 0.5687   0.057423
 C 0.8697 0.8047 0.6583   0.878265
 C 0.0998 0.8703 0.3699   -0.242895
 C 0.1201 0.8041 0.3933   0.02778
 C 0.0773 0.7901 0.4389   -0.201575
 C 0.0141 0.8423 0.461   0.226611
 C 0.0367 0.9226 0.3921   0.212466
 C 0.1528 0.8847 0.3206   0.821031
 C 0.0872 0.4699 0.1191   -0.228913
 C 0.0212 0.4214 0.0964   0.202853
 C 0.0168 0.4945 0.0226   0.226575
 C 0.0828 0.543 0.0452   -0.158135
 C 0.118 0.5307 0.0935   0.025375
 C 0.1281 0.4579 0.1726   0.815359
 C 0.1112 0.5041 0.3805   -0.244706
 C 0.0687 0.4363 0.3904   0.225943
 C 0.0242 0.5031 0.4756   0.224428
 C 0.0667 0.571 0.4657   -0.167882
 C 0.1102 0.5715 0.4182   0.043288
 C 0.1609 0.5046 0.334   0.848131
 C 0.37 0.3412 0.1241   -0.241243
 C 0.4171 0.4077 0.1161   0.210035
 C 0.473 0.3375 0.0346   0.229364
 C 0.4259 0.2711 0.0426   -0.182008
 C 0.3744 0.2729 0.0873   0.033299
 C 0.3134 0.3409 0.171   0.812722
 C 0.5985 0.3431 0.8896   -0.245758
 C 0.6101 0.405 0.9307   0.209627
 C 0.5199 0.3381 0.987   0.231962
 C 0.5083 0.2763 0.9459   -0.196696
 C 0.5476 0.2788 0.8972   0.05623
 C 0.6369 0.3528 0.8379   0.836834
 C 0.597 0.3146 0.6055   -0.273393
 C 0.5817 0.3901 0.5935   0.207171
 C 0.528 0.3342 0.5078   0.238569
 C 0.5433 0.2587 0.5198   -0.207886
 C 0.5778 0.2489 0.5687   0.057423
 C 0.6303 0.3047 0.6583   0.878265
 C 0.4002 0.3703 0.3699   -0.242895
 C 0.3799 0.3041 0.3933   0.02778
 C 0.4227 0.2901 0.4389   -0.201576
 C 0.4859 0.3423 0.461   0.226611
 C 0.4633 0.4226 0.3921   0.212466
 C 0.3472 0.3847 0.3206   0.821031
 C 0.5872 0.0301 0.8809   -0.228913
 C 0.5212 0.0786 0.9036   0.202854
 C 0.5168 0.0055 0.9774   0.226575
 C 0.5828 0.957 0.9548   -0.158135
 C 0.618 0.9693 0.9065   0.025375
 C 0.6281 0.0421 0.8274   0.815359
 C 0.6112 0.9959 0.6195   -0.244706
 C 0.5687 0.0637 0.6096   0.225943
 C 0.5242 0.9969 0.5244   0.224428
 C 0.5667 0.929 0.5343   -0.167882
 C 0.6102 0.9285 0.5818   0.043288
 C 0.6609 0.9954 0.666   0.848131
 C 0.87 0.1588 0.8759   -0.241243
 C 0.9171 0.0923 0.8839   0.210035
 C 0.973 0.1625 0.9654   0.229364
 C 0.9259 0.2289 0.9574   -0.182007
 C 0.8744 0.2271 0.9127   0.033299
 C 0.8134 0.1591 0.829   0.812722
 C 0.0985 0.1569 0.1104   -0.245758
 C 0.1101 0.095 0.0693   0.209627
 C 0.0199 0.1619 0.013   0.231962
 C 0.0083 0.2237 0.0541   -0.196696
 C 0.0476 0.2212 0.1028   0.05623
 C 0.1369 0.1472 0.1621   0.836834
 C 0.097 0.1854 0.3945   -0.273393
 C 0.0817 0.1099 0.4065   0.207171
 C 0.028 0.1658 0.4922   0.238569
 C 0.0433 0.2413 0.4802   -0.207886
 C 0.0778 0.2511 0.4313   0.057423
 C 0.1303 0.1953 0.3417   0.878265
 C 0.9002 0.1297 0.6301   -0.242895
 C 0.8799 0.1959 0.6067   0.02778
 C 0.9227 0.2099 0.5611   -0.201575
 C 0.9859 0.1577 0.539   0.226611
 C 0.9633 0.0774 0.6079   0.212466
 C 0.8472 0.1153 0.6794   0.821031
 N 0.014 0.5663 0.9518   -0.424823
 N 0.9749 0.5642 0.562   -0.40778
 N 0.5314 0.5942 0.9287   -0.380446
 N 0.4292 0.5975 0.0206   -0.387179
 N 0.4528 0.6001 0.4554   -0.365945
 N 0.4938 0.5915 0.5623   -0.388435
 N 0.514 0.9337 0.0482   -0.424823
 N 0.4749 0.9358 0.438   -0.40778
 N 0.0314 0.9058 0.0713   -0.380446
 N 0.9292 0.9025 0.9794   -0.387179
 N 0.9528 0.8999 0.5446   -0.365945
 N 0.9938 0.9085 0.4377   -0.388435
 N 0.986 0.4337 0.0482   -0.424828
 N 0.0251 0.4358 0.438   -0.40778
 N 0.4686 0.4058 0.0713   -0.380446
 N 0.5708 0.4025 0.9794   -0.387179
 N 0.5472 0.3999 0.5446   -0.365945
 N 0.5062 0.4085 0.4377   -0.388435
 N 0.486 0.0663 0.9518   -0.424828
 N 0.5251 0.0642 0.562   -0.40778
 N 0.9686 0.0942 0.9287   -0.380446
 N 0.0708 0.0975 0.0206   -0.387179
 N 0.0472 0.1001 0.4554   -0.365945
 N 0.0062 0.0915 0.5623   -0.388435
 O 0.8357 0.5576 0.6984   -0.886228
 O 0.7247 0.7197 0.8218   -0.68176
 O 0.695 0.6709 0.7009   -0.72332
 O 0.8837 0.6116 0.8147   -0.781721
 O 0.382 0.7029 0.1981   -0.845938
 O 0.3519 0.7615 0.3321   -0.766576
 O 0.3223 0.5876 0.168   -0.751066
 O 0.6955 0.5931 0.7992   -0.88512
 O 0.8345 0.4869 0.8004   -0.725023
 O 0.8007 0.436 0.6746   -0.699087
 O 0.6447 0.5458 0.6895   -0.759282
 O 0.3605 0.6355 0.309   -0.853167
 O 0.3357 0.9424 0.3016   -0.886228
 O 0.2247 0.7803 0.1782   -0.68176
 O 0.195 0.8291 0.2991   -0.72332
 O 0.3837 0.8884 0.1853   -0.781721
 O 0.882 0.7971 0.8019   -0.845938
 O 0.8519 0.7385 0.6679   -0.766576
 O 0.8223 0.9124 0.832   -0.751066
 O 0.1955 0.9069 0.2008   -0.88512
 O 0.3345 0.0131 0.1996   -0.725023
 O 0.3007 0.064 0.3254   -0.699087
 O 0.1447 0.9542 0.3105   -0.759282
 O 0.8605 0.8645 0.691   -0.853167
 O 0.1643 0.4424 0.3016   -0.886228
 O 0.2753 0.2803 0.1782   -0.68176
 O 0.305 0.3291 0.2991   -0.72332
 O 0.1163 0.3884 0.1853   -0.781721
 O 0.618 0.2971 0.8019   -0.845938
 O 0.6481 0.2385 0.6679   -0.766576
 O 0.6777 0.4124 0.832   -0.751066
 O 0.3045 0.4069 0.2008   -0.88512
 O 0.1655 0.5131 0.1996   -0.725023
 O 0.1993 0.564 0.3254   -0.699087
 O 0.3553 0.4542 0.3105   -0.759282
 O 0.6395 0.3645 0.691   -0.853167
 O 0.6643 0.0576 0.6984   -0.886228
 O 0.7753 0.2197 0.8218   -0.68176
 O 0.805 0.1709 0.7009   -0.72332
 O 0.6163 0.1116 0.8147   -0.781721
 O 0.118 0.2029 0.1981   -0.845938
 O 0.1481 0.2615 0.3321   -0.766576
 O 0.1777 0.0876 0.168   -0.751066
 O 0.8045 0.0931 0.7992   -0.88512
 O 0.6655 0.9869 0.8004   -0.725023
 O 0.6993 0.936 0.6746   -0.699087
 O 0.8553 0.0458 0.6895   -0.759282
 O 0.1395 0.1355 0.309   -0.853167
