{'_ref': 'TBD', '_srcid': 'CAKYAQ_clean', 'submitters': [{'name': 'Dalar Nazarian Jeff Camp and David Sholl', 'email': 'dalar@gatech.edu jcamp6@gatech.edu'}], '_method': 'VASP DFT with PBE;DDEC'}
data_ZnH8C7N6
_symmetry_space_group_name_H-M   'P 1'
_cell_length_a   10.57830030
_cell_length_b   12.32880000
_cell_length_c   17.23600000
_cell_angle_alpha   90.00000000
_cell_angle_beta   93.71399732
_cell_angle_gamma   90.00000000
_symmetry_Int_Tables_number   1
_chemical_formula_structural   ZnH8C7N6
_chemical_formula_sum   'Zn8 H64 C56 N48'
_cell_volume   2243.15937135
_cell_formula_units_Z   8
loop_
 _symmetry_equiv_pos_site_id
 _symmetry_equiv_pos_as_xyz
  1  'x, y, z'
loop_
 _atom_site_label
 _atom_site_fract_x
 _atom_site_fract_y
 _atom_site_fract_z
 _atom_site_charge
 Zn 0.28301 0.25956 0.40675   0.794113
 Zn 0.29448 0.244 0.05438   0.798006
 Zn 0.21699 0.75956 0.09325   0.794113
 Zn 0.20552 0.744 0.44562   0.798006
 Zn 0.71699 0.74044 0.59325   0.794113
 Zn 0.70552 0.756 0.94562   0.798006
 Zn 0.78301 0.24044 0.90675   0.794113
 Zn 0.79448 0.256 0.55438   0.798006
 H 0.4436 0.1387 0.2898   0.140535
 H 0.4995 0.1937 0.2152   0.150705
 H 0.4001 0.0961 0.2045   0.155583
 H 0.0035 0.4258 0.1601   0.16688
 H 0.1231 0.4813 0.1243   0.137941
 H 0.044 0.1927 0.8468   0.129234
 H 0.1597 0.1518 0.9037   0.153311
 H 0.1712 0.2629 0.8567   0.162951
 H 0.0104 0.9834 0.3559   0.154502
 H 0.0627 0.0811 0.3059   0.136811
 H 0.157 0.0159 0.3653   0.134194
 H 0.0482 0.3713 0.5812   0.147956
 H 0.182 0.3105 0.589   0.150453
 H 0.3889 0.6102 0.3597   0.143835
 H 0.4635 0.5014 0.3842   0.151392
 H 0.3523 0.4984 0.3167   0.145099
 H 0.0564 0.6387 0.2102   0.140535
 H 0.000500000000002 0.6937 0.2848   0.150705
 H 0.0999 0.5961 0.2955   0.155583
 H 0.4965 0.9258 0.3399   0.16688
 H 0.3769 0.9813 0.3757   0.137941
 H 0.456 0.6927 0.6532   0.129234
 H 0.3403 0.6518 0.5963   0.153311
 H 0.3288 0.7629 0.6433   0.162951
 H 0.4896 0.4834 0.1441   0.154502
 H 0.4373 0.5811 0.1941   0.136812
 H 0.343 0.5159 0.1347   0.134194
 H 0.4518 0.8713 0.9188   0.147956
 H 0.318 0.8105 0.911   0.150453
 H 0.1111 0.1102 0.1403   0.143835
 H 0.0365 0.0014 0.1158   0.151392
 H 0.1477 0.9984 0.1833   0.145099
 H 0.5564 0.8613 0.7102   0.140535
 H 0.5005 0.8063 0.7848   0.150703
 H 0.5999 0.9039 0.7955   0.155583
 H 0.9965 0.5742 0.8399   0.16688
 H 0.8769 0.5187 0.8757   0.137941
 H 0.956 0.8073 0.1532   0.129234
 H 0.8403 0.8482 0.0963   0.153311
 H 0.8288 0.7371 0.1433   0.16295
 H 0.9896 0.0166 0.6441   0.154502
 H 0.9373 0.9189 0.6941   0.136811
 H 0.843 0.9841 0.6347   0.134194
 H 0.9518 0.6287 0.4188   0.147956
 H 0.818 0.6895 0.411   0.150453
 H 0.6111 0.3898 0.6403   0.143835
 H 0.5365 0.4986 0.6158   0.151393
 H 0.6477 0.5016 0.6833   0.145099
 H 0.9436 0.3613 0.7898   0.140534
 H 0.9995 0.3063 0.7152   0.150703
 H 0.9001 0.4039 0.7045   0.155583
 H 0.5035 0.0742 0.6601   0.166879
 H 0.6231 0.0187 0.6243   0.137941
 H 0.544 0.3073 0.3468   0.129234
 H 0.6597 0.3482 0.4037   0.153311
 H 0.6712 0.2371 0.3567   0.16295
 H 0.5104 0.5166 0.8559   0.154502
 H 0.5627 0.4189 0.8059   0.136811
 H 0.657 0.4841 0.8653   0.134194
 H 0.5482 0.1287 0.0812   0.147956
 H 0.682 0.1895 0.089   0.150453
 H 0.8889 0.8898 0.8597   0.143835
 H 0.9635 0.9986 0.8842   0.151393
 H 0.8523 0.0016 0.8167   0.145099
 C 0.4244 0.1603 0.23558   -0.456195
 C 0.3178 0.2399 0.23139   0.439203
 C 0.1698 0.345 0.18806   0.428298
 C 0.0822 0.4108 0.13382   -0.363995
 C 0.0472 0.3581 0.0568   0.440741
 C 0.0611 0.2761 0.94888   0.450644
 C 0.1135 0.2157 0.88342   -0.459192
 C 0.0706 0.0438 0.3562   -0.445464
 C 0.0431 0.121 0.41886   0.47866
 C 0.0625 0.24961 0.50164   0.427839
 C 0.1163 0.3401 0.5513   -0.384248
 C 0.1734 0.4284 0.50523   0.449826
 C 0.287 0.5088 0.42544   0.446388
 C 0.381 0.5317 0.36643   -0.454782
 C 0.0756 0.6603 0.26442   -0.456195
 C 0.1822 0.7399 0.26861   0.439203
 C 0.3302 0.845 0.31194   0.428298
 C 0.4178 0.9108 0.36618   -0.363995
 C 0.4528 0.8581 0.4432   0.440741
 C 0.4389 0.7761 0.55112   0.450644
 C 0.3865 0.7157 0.61658   -0.459192
 C 0.4294 0.5438 0.1438   -0.445465
 C 0.4569 0.621 0.08114   0.47866
 C 0.4375 0.74961 0.99836   0.427839
 C 0.3837 0.8401 0.9487   -0.384247
 C 0.3266 0.9284 0.99477   0.449826
 C 0.213 0.0088 0.07456   0.446388
 C 0.119 0.0317 0.13357   -0.454782
 C 0.5756 0.8397 0.76442   -0.456195
 C 0.6822 0.7601 0.76861   0.439203
 C 0.8302 0.655 0.81194   0.428298
 C 0.9178 0.5892 0.86618   -0.363995
 C 0.9528 0.6419 0.9432   0.440741
 C 0.9389 0.7239 0.05112   0.450644
 C 0.8865 0.7843 0.11658   -0.459192
 C 0.9294 0.9562 0.6438   -0.445464
 C 0.9569 0.879 0.58114   0.47866
 C 0.9375 0.75039 0.49836   0.427839
 C 0.8837 0.6599 0.4487   -0.384248
 C 0.8266 0.5716 0.49477   0.449826
 C 0.713 0.4912 0.57456   0.446388
 C 0.619 0.4683 0.63357   -0.454782
 C 0.9244 0.3397 0.73558   -0.456195
 C 0.8178 0.2601 0.73139   0.439203
 C 0.6698 0.155 0.68806   0.428298
 C 0.5822 0.0892 0.63382   -0.363995
 C 0.5472 0.1419 0.5568   0.440741
 C 0.5611 0.2239 0.44888   0.450644
 C 0.6135 0.2843 0.38342   -0.459192
 C 0.5706 0.4562 0.8562   -0.445464
 C 0.5431 0.379 0.91886   0.47866
 C 0.5625 0.25039 0.00164   0.427839
 C 0.6163 0.1599 0.0513   -0.384247
 C 0.6734 0.0716 0.00523   0.449826
 C 0.787 0.9912 0.92544   0.446388
 C 0.881 0.9683 0.86643   -0.454782
 N 0.1256 0.19832 0.44721   -0.528164
 N 0.9356 0.12279 0.45325   -0.390814
 N 0.9481 0.20706 0.50688   -0.300427
 N 0.2597 0.40884 0.45108   -0.549908
 N 0.1483 0.53189 0.51336   -0.361767
 N 0.2224 0.58396 0.46075   -0.332759
 N 0.941 0.30571 0.95316   -0.336645
 N 0.9317 0.35959 0.02361   -0.371742
 N 0.1313 0.30801 0.01251   -0.530435
 N 0.2655 0.28116 0.16471   -0.55901
 N 0.1635 0.34565 0.26392   -0.373454
 N 0.2605 0.27671 0.29203   -0.316101
 N 0.3744 0.69832 0.05279   -0.528164
 N 0.5644 0.62279 0.04675   -0.390813
 N 0.5519 0.70706 0.99312   -0.300427
 N 0.2403 0.90884 0.04892   -0.549908
 N 0.3517 0.03189 0.98664   -0.361767
 N 0.2776 0.08396 0.03925   -0.332759
 N 0.559 0.80571 0.54684   -0.336645
 N 0.5683 0.85959 0.47639   -0.371741
 N 0.3687 0.80801 0.48749   -0.530435
 N 0.2345 0.78116 0.33529   -0.55901
 N 0.3365 0.84565 0.23608   -0.373454
 N 0.2395 0.77671 0.20797   -0.316101
 N 0.8744 0.80168 0.55279   -0.528163
 N 0.0644 0.87721 0.54675   -0.390814
 N 0.0519 0.79294 0.49312   -0.300427
 N 0.7403 0.59116 0.54892   -0.549908
 N 0.8517 0.46811 0.48664   -0.361767
 N 0.7776 0.41604 0.53925   -0.332759
 N 0.059 0.69429 0.04684   -0.336645
 N 0.0683 0.64041 0.97639   -0.371741
 N 0.8687 0.69199 0.98749   -0.530434
 N 0.7345 0.71884 0.83529   -0.55901
 N 0.8365 0.65435 0.73608   -0.373454
 N 0.7395 0.72329 0.70797   -0.316101
 N 0.6256 0.30168 0.94721   -0.528163
 N 0.4356 0.37721 0.95325   -0.390813
 N 0.4481 0.29294 0.00688   -0.300427
 N 0.7597 0.09116 0.95108   -0.549908
 N 0.6483 0.96811 0.01336   -0.361767
 N 0.7224 0.91604 0.96075   -0.332759
 N 0.441 0.19429 0.45316   -0.336645
 N 0.4317 0.14041 0.52361   -0.371741
 N 0.6313 0.19199 0.51251   -0.530434
 N 0.7655 0.21884 0.66471   -0.55901
 N 0.6635 0.15435 0.76392   -0.373454
 N 0.7605 0.22329 0.79203   -0.316101
