{'_ref': 'TBD', '_srcid': 'CAKYAQ_clean', 'submitters': [{'name': 'Dalar Nazarian Jeff Camp and David Sholl', 'email': 'dalar@gatech.edu jcamp6@gatech.edu'}], '_method': 'VASP DFT with PBE;DDEC'}
data_ZnH8C7N6
_symmetry_space_group_name_H-M   'P 1'
_cell_length_a   10.68000007
_cell_length_b   12.35600000
_cell_length_c   17.10400000
_cell_angle_alpha   90.00000000
_cell_angle_beta   95.46999885
_cell_angle_gamma   90.00000000
_symmetry_Int_Tables_number   1
_chemical_formula_structural   ZnH8C7N6
_chemical_formula_sum   'Zn8 H64 C56 N48'
_cell_volume   2246.80125149
_cell_formula_units_Z   8
loop_
 _symmetry_equiv_pos_site_id
 _symmetry_equiv_pos_as_xyz
  1  'x, y, z'
loop_
 _atom_site_label
 _atom_site_fract_x
 _atom_site_fract_y
 _atom_site_fract_z
 _atom_site_charge
 Zn 0.27289 0.2639 0.39897   0.805701
 Zn 0.79293 0.25515 0.543   0.804779
 Zn 0.22711 0.7639 0.10103   0.805701
 Zn 0.70707 0.75515 0.957   0.804779
 Zn 0.72711 0.7361 0.60103   0.805701
 Zn 0.20707 0.74485 0.457   0.804779
 Zn 0.77289 0.2361 0.89897   0.805701
 Zn 0.29293 0.24485 0.043   0.804779
 H 0.9326 0.3626 0.7875   0.141603
 H 0.9909 0.3181 0.711   0.150317
 H 0.8836 0.4088 0.7027   0.152944
 H 0.5205 0.0552 0.6435   0.168127
 H 0.642 0.0152 0.6039   0.145099
 H 0.5277 0.3167 0.3369   0.129693
 H 0.639 0.3634 0.3967   0.150273
 H 0.6601 0.2552 0.3482   0.161858
 H 0.9826 0.0045 0.3272   0.154559
 H 0.069 0.0946 0.292   0.137837
 H 0.1302 0.0085 0.3543   0.138266
 H 0.1739 0.3043 0.5838   0.152399
 H 0.0428 0.3676 0.574   0.148397
 H 0.3827 0.6148 0.364   0.144691
 H 0.4643 0.5123 0.3954   0.152528
 H 0.3586 0.4991 0.3232   0.144344
 H 0.5674 0.8626 0.7125   0.141603
 H 0.5091 0.8181 0.789   0.150317
 H 0.6164 0.9088 0.7973   0.152944
 H 0.9795 0.5552 0.8565   0.168127
 H 0.858 0.5152 0.8961   0.145099
 H 0.9723 0.8167 0.1631   0.129693
 H 0.861 0.8634 0.1033   0.150273
 H 0.8399 0.7552 0.1518   0.161858
 H 0.5174 0.5045 0.1728   0.154559
 H 0.431 0.5946 0.208   0.137837
 H 0.3698 0.5085 0.1457   0.138266
 H 0.3261 0.8043 0.9162   0.152399
 H 0.4572 0.8676 0.926   0.148397
 H 0.1173 0.1148 0.136   0.144692
 H 0.0357 0.0123 0.1046   0.152528
 H 0.1414 0.9991 0.1768   0.144344
 H 0.0674 0.6374 0.2125   0.141603
 H 0.0091 0.6819 0.289   0.150317
 H 0.1164 0.5912 0.2973   0.152944
 H 0.4795 0.9448 0.3565   0.168126
 H 0.358 0.9848 0.3961   0.145099
 H 0.4723 0.6833 0.6631   0.129693
 H 0.361 0.6366 0.6033   0.150273
 H 0.3399 0.7448 0.6518   0.161857
 H 0.0174 0.9955 0.6728   0.154559
 H 0.931 0.9054 0.708   0.137837
 H 0.8698 0.9915 0.6457   0.138266
 H 0.8261 0.6957 0.4162   0.152399
 H 0.9572 0.6324 0.426   0.148397
 H 0.6173 0.3852 0.636   0.144692
 H 0.5357 0.4877 0.6046   0.152528
 H 0.6414 0.5009 0.6768   0.144344
 H 0.4326 0.1374 0.2875   0.141603
 H 0.4909 0.1819 0.211   0.150317
 H 0.3836 0.0912 0.2027   0.152944
 H 0.0205 0.4448 0.1435   0.168126
 H 0.142 0.4848 0.1039   0.145099
 H 0.0277 0.1833 0.8369   0.129693
 H 0.139 0.1366 0.8967   0.150273
 H 0.1601 0.2448 0.8482   0.161857
 H 0.4826 0.4955 0.8272   0.154559
 H 0.569 0.4054 0.792   0.137837
 H 0.6302 0.4915 0.8543   0.138266
 H 0.6739 0.1957 0.0838   0.152399
 H 0.5428 0.1324 0.074   0.148397
 H 0.8827 0.8852 0.864   0.144692
 H 0.9643 0.9877 0.8954   0.152528
 H 0.8586 0.000900000000001 0.8232   0.144344
 C 0.9142 0.3443 0.73189   -0.452398
 C 0.8159 0.258 0.7234   0.444708
 C 0.6768 0.147 0.67529   0.430324
 C 0.5945 0.0801 0.61778   -0.374583
 C 0.5495 0.1392 0.54372   0.44386
 C 0.5532 0.2316 0.43896   0.447498
 C 0.5989 0.2973 0.37472   -0.456717
 C 0.0553 0.0522 0.3388   -0.446161
 C 0.0313 0.1264 0.40401   0.477191
 C 0.0553 0.2495 0.49119   0.432604
 C 0.1103 0.3369 0.54486   -0.386016
 C 0.1705 0.4266 0.50343   0.448137
 C 0.2856 0.511 0.42917   0.446247
 C 0.381 0.5365 0.3731   -0.457898
 C 0.5858 0.8443 0.76811   -0.452398
 C 0.6841 0.758 0.7766   0.444708
 C 0.8232 0.647 0.82471   0.430324
 C 0.9055 0.5801 0.88222   -0.374583
 C 0.9505 0.6392 0.95628   0.44386
 C 0.9468 0.7316 0.06104   0.447498
 C 0.9011 0.7973 0.12528   -0.456716
 C 0.4447 0.5522 0.1612   -0.446161
 C 0.4687 0.6264 0.09599   0.477191
 C 0.4447 0.7495 0.00881   0.432604
 C 0.3897 0.8369 0.95514   -0.386016
 C 0.3295 0.9266 0.99657   0.448137
 C 0.2144 0.011 0.07083   0.446247
 C 0.119 0.0365 0.1269   -0.457899
 C 0.0858 0.6557 0.26811   -0.452398
 C 0.1841 0.742 0.2766   0.444708
 C 0.3232 0.853 0.32471   0.430324
 C 0.4055 0.9199 0.38222   -0.374583
 C 0.4505 0.8608 0.45628   0.44386
 C 0.4468 0.7684 0.56104   0.447498
 C 0.4011 0.7027 0.62528   -0.456716
 C 0.9447 0.9478 0.6612   -0.446161
 C 0.9687 0.8736 0.59599   0.477191
 C 0.9447 0.7505 0.50881   0.432604
 C 0.8897 0.6631 0.45514   -0.386016
 C 0.8295 0.5734 0.49657   0.448137
 C 0.7144 0.489 0.57083   0.446247
 C 0.619 0.4635 0.6269   -0.457899
 C 0.4142 0.1557 0.23189   -0.452398
 C 0.3159 0.242 0.2234   0.444708
 C 0.1768 0.353 0.17529   0.430324
 C 0.0945 0.4199 0.11778   -0.374583
 C 0.0495 0.3608 0.04372   0.44386
 C 0.0532 0.2684 0.93896   0.447498
 C 0.0989 0.2027 0.87472   -0.456716
 C 0.5553 0.4478 0.8388   -0.446161
 C 0.5313 0.3736 0.90401   0.477191
 C 0.5553 0.2505 0.99119   0.432604
 C 0.6103 0.1631 0.04486   -0.386016
 C 0.6705 0.0734 0.00343   0.448137
 C 0.7856 0.989 0.92917   0.446247
 C 0.881 0.9635 0.8731   -0.457899
 N 0.1166 0.2012 0.43541   -0.533881
 N 0.9255 0.1276 0.43743   -0.394255
 N 0.9418 0.2083 0.49411   -0.297214
 N 0.2553 0.40994 0.44934   -0.548344
 N 0.1491 0.52976 0.51582   -0.363328
 N 0.2244 0.58429 0.46677   -0.332649
 N 0.4345 0.20135 0.44457   -0.341247
 N 0.4316 0.14137 0.51316   -0.369769
 N 0.6291 0.1933 0.4998   -0.53243
 N 0.7688 0.21565 0.65481   -0.566044
 N 0.6682 0.144 0.75134   -0.368568
 N 0.7592 0.2172 0.78258   -0.332481
 N 0.3834 0.7012 0.06459   -0.533881
 N 0.5745 0.6276 0.06257   -0.394255
 N 0.5582 0.7083 0.00589   -0.297214
 N 0.2447 0.90994 0.05066   -0.548344
 N 0.3509 0.02976 0.98418   -0.363328
 N 0.2756 0.08429 0.03323   -0.332649
 N 0.0655 0.70135 0.05543   -0.341247
 N 0.0684 0.64137 0.98684   -0.369769
 N 0.8709 0.6933 0.0002   -0.53243
 N 0.7312 0.71565 0.84519   -0.566044
 N 0.8318 0.644 0.74866   -0.368568
 N 0.7408 0.7172 0.71742   -0.332481
 N 0.8834 0.7988 0.56459   -0.533881
 N 0.0745 0.8724 0.56257   -0.394255
 N 0.0582 0.7917 0.50589   -0.297214
 N 0.7447 0.59006 0.55066   -0.548344
 N 0.8509 0.47024 0.48418   -0.363328
 N 0.7756 0.41571 0.53323   -0.332649
 N 0.5655 0.79865 0.55543   -0.341247
 N 0.5684 0.85863 0.48684   -0.369768
 N 0.3709 0.8067 0.5002   -0.53243
 N 0.2312 0.78435 0.34519   -0.566044
 N 0.3318 0.856 0.24866   -0.368568
 N 0.2408 0.7828 0.21742   -0.332481
 N 0.6166 0.2988 0.93541   -0.533881
 N 0.4255 0.3724 0.93743   -0.394255
 N 0.4418 0.2917 0.99411   -0.297214
 N 0.7553 0.09006 0.94934   -0.548344
 N 0.6491 0.97024 0.01582   -0.363328
 N 0.7244 0.91571 0.96677   -0.332649
 N 0.9345 0.29865 0.94457   -0.341247
 N 0.9316 0.35863 0.01316   -0.369768
 N 0.1291 0.3067 0.9998   -0.53243
 N 0.2688 0.28435 0.15481   -0.566044
 N 0.1682 0.356 0.25134   -0.368568
 N 0.2592 0.2828 0.28258   -0.332481
