{'_ref': 'TBD', '_srcid': 'CAKYAQ_clean', 'submitters': [{'name': 'Dalar Nazarian Jeff Camp and David Sholl', 'email': 'dalar@gatech.edu jcamp6@gatech.edu'}], '_method': 'VASP DFT with PBE;DDEC'}
data_ZnH8C7N6
_symmetry_space_group_name_H-M   'P 1'
_cell_length_a   10.82909974
_cell_length_b   12.52900000
_cell_length_c   16.84800000
_cell_angle_alpha   90.00000000
_cell_angle_beta   94.99299875
_cell_angle_gamma   90.00000000
_symmetry_Int_Tables_number   1
_chemical_formula_structural   ZnH8C7N6
_chemical_formula_sum   'Zn8 H64 C56 N48'
_cell_volume   2277.22520812
_cell_formula_units_Z   8
loop_
 _symmetry_equiv_pos_site_id
 _symmetry_equiv_pos_as_xyz
  1  'x, y, z'
loop_
 _atom_site_label
 _atom_site_fract_x
 _atom_site_fract_y
 _atom_site_fract_z
 _atom_site_charge
 Zn 0.2754 0.26785 0.40442   0.797859
 Zn 0.79421 0.25673 0.54327   0.804298
 Zn 0.2246 0.76785 0.09558   0.797859
 Zn 0.70579 0.75673 0.95673   0.804298
 Zn 0.7246 0.73215 0.59558   0.797859
 Zn 0.20579 0.74327 0.45673   0.804298
 Zn 0.7754 0.23215 0.90442   0.797859
 Zn 0.29421 0.24327 0.04327   0.804298
 H 0.9351 0.356 0.7922   0.13909
 H 0.9884 0.3167 0.7115   0.150671
 H 0.8829 0.4064 0.7086   0.153228
 H 0.5312 0.0517 0.6448   0.16841
 H 0.6512 0.0198 0.6011   0.148276
 H 0.5202 0.33 0.3424   0.130081
 H 0.6357 0.3705 0.4003   0.151352
 H 0.649 0.2668 0.3462   0.162166
 H 0.9995 0.0282 0.317   0.150931
 H 0.1331 0.0825 0.3155   0.125069
 H 0.1137 0.9857 0.3752   0.141207
 H 0.1667 0.3127 0.5892   0.152728
 H 0.0365 0.3731 0.5756   0.147895
 H 0.3693 0.6131 0.3584   0.146581
 H 0.459 0.5231 0.3987   0.151496
 H 0.3606 0.4931 0.3257   0.143768
 H 0.5649 0.856 0.7078   0.139089
 H 0.5116 0.8167 0.7885   0.150671
 H 0.6171 0.9064 0.7914   0.153228
 H 0.9688 0.5517 0.8552   0.16841
 H 0.8488 0.5198 0.8989   0.148276
 H 0.9798 0.83 0.1576   0.130081
 H 0.8643 0.8705 0.0997   0.151352
 H 0.851 0.7668 0.1538   0.162166
 H 0.5005 0.5282 0.183   0.150931
 H 0.3669 0.5825 0.1845   0.125069
 H 0.3863 0.4857 0.1248   0.141207
 H 0.3333 0.8127 0.9108   0.152728
 H 0.4635 0.8731 0.9244   0.147895
 H 0.1307 0.1131 0.1416   0.146581
 H 0.041 0.0231 0.1013   0.151496
 H 0.1394 0.9931 0.1743   0.143768
 H 0.0649 0.644 0.2078   0.139089
 H 0.0116 0.6833 0.2885   0.150671
 H 0.1171 0.5936 0.2914   0.153228
 H 0.4688 0.9483 0.3552   0.16841
 H 0.3488 0.9802 0.3989   0.148276
 H 0.4798 0.67 0.6576   0.130081
 H 0.3643 0.6295 0.5997   0.151352
 H 0.351 0.7332 0.6538   0.162165
 H 0.000500000000002 0.9718 0.683   0.150931
 H 0.8669 0.9175 0.6845   0.125069
 H 0.8863 0.0143 0.6248   0.141207
 H 0.8333 0.6873 0.4108   0.152728
 H 0.9635 0.6269 0.4244   0.147895
 H 0.6307 0.3869 0.6416   0.146581
 H 0.541 0.4769 0.6013   0.151496
 H 0.6394 0.5069 0.6743   0.143768
 H 0.4351 0.144 0.2922   0.139089
 H 0.4884 0.1833 0.2115   0.150671
 H 0.3829 0.0936 0.2086   0.153228
 H 0.0312 0.4483 0.1448   0.16841
 H 0.1512 0.4802 0.1011   0.148276
 H 0.0202 0.17 0.8424   0.130081
 H 0.1357 0.1295 0.9003   0.151352
 H 0.149 0.2332 0.8462   0.162165
 H 0.4995 0.4718 0.817   0.150931
 H 0.6331 0.4175 0.8155   0.125069
 H 0.6137 0.5143 0.8752   0.141207
 H 0.6667 0.1873 0.0892   0.152728
 H 0.5365 0.1269 0.0756   0.147895
 H 0.8693 0.8869 0.8584   0.146581
 H 0.959 0.9769 0.8987   0.151496
 H 0.8606 0.0069 0.8257   0.143768
 C 0.9142 0.3412 0.7355   -0.451797
 C 0.8167 0.2565 0.7265   0.442727
 C 0.6815 0.1465 0.6775   0.435328
 C 0.6019 0.0809 0.6182   -0.378434
 C 0.553 0.1425 0.5461   0.448557
 C 0.5517 0.2391 0.4422   0.448652
 C 0.5927 0.3074 0.3772   -0.458179
 C 0.0751 0.0491 0.3496   -0.435743
 C 0.0434 0.126 0.4115   0.479599
 C 0.0559 0.2539 0.4946   0.433408
 C 0.1055 0.3426 0.548   -0.388626
 C 0.1659 0.4305 0.5051   0.449318
 C 0.282 0.5125 0.4303   0.443041
 C 0.3757 0.5376 0.3734   -0.455792
 C 0.5858 0.8412 0.7645   -0.451797
 C 0.6833 0.7565 0.7735   0.442727
 C 0.8185 0.6465 0.8225   0.435328
 C 0.8981 0.5809 0.8818   -0.378434
 C 0.947 0.6425 0.9539   0.448557
 C 0.9483 0.7391 0.0578   0.448652
 C 0.9073 0.8074 0.1228   -0.458179
 C 0.4249 0.5491 0.1504   -0.435743
 C 0.4566 0.626 0.0885   0.479599
 C 0.4441 0.7539 0.0054   0.433408
 C 0.3945 0.8426 0.952   -0.388626
 C 0.3341 0.9305 0.9949   0.449318
 C 0.218 0.0125 0.0697   0.443041
 C 0.1243 0.0376 0.1266   -0.455792
 C 0.0858 0.6588 0.2645   -0.451797
 C 0.1833 0.7435 0.2735   0.442727
 C 0.3185 0.8535 0.3225   0.435328
 C 0.3981 0.9191 0.3818   -0.378434
 C 0.447 0.8575 0.4539   0.448557
 C 0.4483 0.7609 0.5578   0.448652
 C 0.4073 0.6926 0.6228   -0.458179
 C 0.9249 0.9509 0.6504   -0.435743
 C 0.9566 0.874 0.5885   0.479598
 C 0.9441 0.7461 0.5054   0.433408
 C 0.8945 0.6574 0.452   -0.388626
 C 0.8341 0.5695 0.4949   0.449318
 C 0.718 0.4875 0.5697   0.443041
 C 0.6243 0.4624 0.6266   -0.455792
 C 0.4142 0.1588 0.2355   -0.451797
 C 0.3167 0.2435 0.2265   0.442727
 C 0.1815 0.3535 0.1775   0.435328
 C 0.1019 0.4191 0.1182   -0.378434
 C 0.053 0.3575 0.0461   0.448557
 C 0.0517 0.2609 0.9422   0.448652
 C 0.0927 0.1926 0.8772   -0.458179
 C 0.5751 0.4509 0.8496   -0.435743
 C 0.5434 0.374 0.9115   0.479598
 C 0.5559 0.2461 0.9946   0.433408
 C 0.6055 0.1574 0.048   -0.388626
 C 0.6659 0.0695 0.0051   0.449318
 C 0.782 0.9875 0.9303   0.443041
 C 0.8757 0.9624 0.8734   -0.455792
 N 0.1217 0.2046 0.4416   -0.533044
 N 0.9368 0.1261 0.4427   -0.395526
 N 0.9451 0.2096 0.4971   -0.298519
 N 0.2516 0.4128 0.45214   -0.547055
 N 0.1437 0.5322 0.5173   -0.359651
 N 0.2191 0.585 0.4672   -0.334039
 N 0.4355 0.2078 0.4494   -0.335032
 N 0.4366 0.1447 0.5175   -0.373941
 N 0.6289 0.2001 0.5016   -0.536995
 N 0.7712 0.2157 0.6565   -0.569759
 N 0.6734 0.1425 0.7544   -0.369189
 N 0.7617 0.2148 0.7859   -0.324415
 N 0.3783 0.7046 0.0584   -0.533044
 N 0.5632 0.6261 0.0573   -0.395526
 N 0.5549 0.7096 0.0029   -0.298519
 N 0.2484 0.9128 0.04786   -0.547055
 N 0.3563 0.0322 0.9827   -0.359651
 N 0.2809 0.085 0.0328   -0.334039
 N 0.0645 0.7078 0.0506   -0.335032
 N 0.0634 0.6447 0.9825   -0.373941
 N 0.8711 0.7001 0.9984   -0.536995
 N 0.7288 0.7157 0.8435   -0.569759
 N 0.8266 0.6425 0.7456   -0.369189
 N 0.7383 0.7148 0.7141   -0.324415
 N 0.8783 0.7954 0.5584   -0.533044
 N 0.0632 0.8739 0.5573   -0.395526
 N 0.0549 0.7904 0.5029   -0.29852
 N 0.7484 0.5872 0.54786   -0.547055
 N 0.8563 0.4678 0.4827   -0.359651
 N 0.7809 0.415 0.5328   -0.334039
 N 0.5645 0.7922 0.5506   -0.335032
 N 0.5634 0.8553 0.4825   -0.37394
 N 0.3711 0.7999 0.4984   -0.536994
 N 0.2288 0.7843 0.3435   -0.569759
 N 0.3266 0.8575 0.2456   -0.369189
 N 0.2383 0.7852 0.2141   -0.324415
 N 0.6217 0.2954 0.9416   -0.533044
 N 0.4368 0.3739 0.9427   -0.395526
 N 0.4451 0.2904 0.9971   -0.29852
 N 0.7516 0.0872 0.95214   -0.547055
 N 0.6437 0.9678 0.0173   -0.359651
 N 0.7191 0.915 0.9672   -0.334039
 N 0.9355 0.2922 0.9494   -0.335032
 N 0.9366 0.3553 0.0175   -0.37394
 N 0.1289 0.2999 0.0016   -0.536994
 N 0.2712 0.2843 0.1565   -0.569759
 N 0.1734 0.3575 0.2544   -0.369189
 N 0.2617 0.2852 0.2859   -0.324415
