{'_ref': 'TBD', '_srcid': 'CAKYAQ_clean', 'submitters': [{'name': 'Dalar Nazarian Jeff Camp and David Sholl', 'email': 'dalar@gatech.edu jcamp6@gatech.edu'}], '_method': 'VASP DFT with PBE;DDEC'}
data_PrHC5(NO2)2
_symmetry_space_group_name_H-M   'P 1'
_cell_length_a   16.60039972
_cell_length_b   16.60040022
_cell_length_c   16.60040000
_cell_angle_alpha   104.57300137
_cell_angle_beta   104.57300183
_cell_angle_gamma   119.78599791
_symmetry_Int_Tables_number   1
_chemical_formula_structural   PrHC5(NO2)2
_chemical_formula_sum   'Pr16 H16 C80 N32 O64'
_cell_volume   3434.65769605
_cell_formula_units_Z   16
loop_
 _symmetry_equiv_pos_site_id
 _symmetry_equiv_pos_as_xyz
  1  'x, y, z'
loop_
 _atom_site_label
 _atom_site_fract_x
 _atom_site_fract_y
 _atom_site_fract_z
 _atom_site_charge
 Pr 0.7451 0.76164 0.36118   2.106693
 Pr 0.48883 0.87084 0.01791   2.19637
 Pr 0.90046 0.38392 0.13882   2.134975
 Pr 0.35293 0.47092 0.48209   2.165856
 Pr 0.88392 0.2451 0.48346   2.139277
 Pr 0.97092 0.98883 0.11799   2.174702
 Pr 0.26164 0.40046 0.01654   2.150843
 Pr 0.37084 0.85293 0.38201   2.172746
 Pr 0.2549 0.23836 0.63882   2.106988
 Pr 0.51117 0.12916 0.98209   2.196557
 Pr 0.09954 0.61608 0.86118   2.135223
 Pr 0.64707 0.52908 0.51791   2.165995
 Pr 0.11608 0.7549 0.51654   2.139546
 Pr 0.02908 0.01117 0.88201   2.174907
 Pr 0.73836 0.59954 0.98346   2.151141
 Pr 0.62916 0.14707 0.61799   2.172969
 H 0.6867 0.9125 0.2362   0.03107
 H 0.623 0.8961 0.3853   0.026683
 H 0.1763 0.4505 0.2638   0.032695
 H 0.0108 0.2377 0.1147   0.027299
 H 0.9505 0.1867 0.2742   0.030181
 H 0.7377 0.123 0.2269   0.026258
 H 0.4125 0.6763 0.2258   0.031042
 H 0.3961 0.5108 0.2731   0.028217
 H 0.3133 0.0875 0.7638   0.03107
 H 0.377 0.1039 0.6147   0.026682
 H 0.8237 0.5495 0.7362   0.032694
 H 0.9892 0.7623 0.8853   0.027299
 H 0.0495 0.8133 0.7258   0.03018
 H 0.2623 0.877 0.7731   0.026257
 H 0.5875 0.3237 0.7742   0.031042
 H 0.6039 0.4892 0.7269   0.028217
 C 0.635 0.8415 0.2007   0.398226
 C 0.5504 0.68 0.1538   -0.023794
 C 0.4975 0.6972 0.0899   0.01078
 C 0.4015 0.6328 0.000300000000003   0.77775
 C 0.531 0.5843 0.1633   0.737296
 C 0.5908 0.8431 0.4019   0.423557
 C 0.5563 0.7179 0.4354   0.007142
 C 0.4897 0.7439 0.4446   0.036457
 C 0.4004 0.6986 0.4668   0.744569
 C 0.5735 0.6423 0.4478   0.721466
 C 0.1408 0.4343 0.2993   0.403965
 C 0.0262 0.3966 0.3462   -0.026339
 C 0.1073 0.4076 0.4101   0.009985
 C 0.1325 0.4012 0.4997   0.773367
 C 0.921 0.3677 0.3367   0.734611
 C 0.9412 0.1889 0.0981   0.419458
 C 0.7825 0.1209 0.0646   0.001948
 C 0.7993 0.0451 0.0554   0.034772
 C 0.7318 0.9336 0.0332   0.738325
 C 0.6945 0.1257 0.0522   0.722868
 C 0.9343 0.135 0.2935   0.401999
 C 0.8966 0.0504 0.3704   -0.027534
 C 0.9076 0.9975 0.3003   0.012813
 C 0.9012 0.9015 0.2687   0.771447
 C 0.8677 0.031 0.4467   0.734903
 C 0.6889 0.0908 0.2477   0.419779
 C 0.6209 0.0563 0.3384   0.003778
 C 0.5451 0.9897 0.2458   0.035904
 C 0.4336 0.9004 0.2018   0.746396
 C 0.6257 0.0735 0.4312   0.735621
 C 0.3415 0.6408 0.2065   0.408948
 C 0.18 0.5262 0.1296   -0.021379
 C 0.1972 0.6073 0.1997   0.010914
 C 0.1328 0.6325 0.2313   0.779293
 C 0.0843 0.421 0.0533   0.734994
 C 0.3431 0.4412 0.2523   0.419253
 C 0.2179 0.2825 0.1616   0.006191
 C 0.2439 0.2993 0.2542   0.032419
 C 0.1986 0.2318 0.2982   0.737727
 C 0.1423 0.1945 0.0688   0.721572
 C 0.365 0.1585 0.7993   0.398232
 C 0.4496 0.32 0.8462   -0.02379
 C 0.5025 0.3028 0.9101   0.010782
 C 0.5985 0.3672 0.9997   0.777744
 C 0.469 0.4157 0.8367   0.737291
 C 0.4092 0.1569 0.5981   0.423565
 C 0.4437 0.2821 0.5646   0.007156
 C 0.5103 0.2561 0.5554   0.036477
 C 0.5996 0.3014 0.5332   0.744636
 C 0.4265 0.3577 0.5522   0.721468
 C 0.8592 0.5657 0.7007   0.403969
 C 0.9738 0.6034 0.6538   -0.026336
 C 0.8927 0.5924 0.5899   0.009986
 C 0.8675 0.5988 0.5003   0.773368
 C 0.079 0.6323 0.6633   0.734612
 C 0.0588 0.8111 0.9019   0.419465
 C 0.2175 0.8791 0.9354   0.001963
 C 0.2007 0.9549 0.9446   0.034787
 C 0.2682 0.0664 0.9668   0.738393
 C 0.3055 0.8743 0.9478   0.722866
 C 0.0657 0.865 0.7065   0.402005
 C 0.1034 0.9496 0.6296   -0.02753
 C 0.0924 0.0025 0.6997   0.012815
 C 0.0988 0.0985 0.7313   0.771447
 C 0.1323 0.969 0.5533   0.734904
 C 0.3111 0.9092 0.7523   0.419786
 C 0.3791 0.9437 0.6616   0.003793
 C 0.4549 0.0103 0.7542   0.035919
 C 0.5664 0.0996 0.7982   0.746456
 C 0.3743 0.9265 0.5688   0.735628
 C 0.6585 0.3592 0.7935   0.408955
 C 0.82 0.4738 0.8704   -0.021375
 C 0.8028 0.3927 0.8003   0.010916
 C 0.8672 0.3675 0.7687   0.779294
 C 0.9157 0.579 0.9467   0.734995
 C 0.6569 0.5588 0.7477   0.419259
 C 0.7821 0.7175 0.8384   0.006207
 C 0.7561 0.7007 0.7458   0.032437
 C 0.8014 0.7682 0.7018   0.737799
 C 0.8577 0.8055 0.9312   0.721572
 N 0.5531 0.8039 0.1224   -0.572911
 N 0.6394 0.7738 0.2254   -0.599093
 N 0.6213 0.7844 0.4069   -0.584757
 N 0.5112 0.8234 0.4214   -0.605455
 N 0.1815 0.4307 0.3776   -0.567541
 N 0.0484 0.414 0.2746   -0.603917
 N 0.8775 0.2144 0.0931   -0.594559
 N 0.902 0.0898 0.0786   -0.592201
 N 0.9307 0.0531 0.2492   -0.567355
 N 0.914 0.1394 0.3656   -0.602942
 N 0.7144 0.1213 0.3369   -0.59251
 N 0.5898 0.0112 0.1878   -0.591618
 N 0.3039 0.6815 0.2508   -0.58478
 N 0.2738 0.5484 0.1344   -0.606169
 N 0.2844 0.3775 0.1631   -0.599214
 N 0.3234 0.402 0.3122   -0.594439
 N 0.4469 0.1961 0.8776   -0.572919
 N 0.3606 0.2262 0.7746   -0.599103
 N 0.3787 0.2156 0.5931   -0.584769
 N 0.4888 0.1766 0.5786   -0.605466
 N 0.8185 0.5693 0.6224   -0.567547
 N 0.9516 0.586 0.7254   -0.603925
 N 0.1225 0.7856 0.9069   -0.594569
 N 0.098 0.9102 0.9214   -0.59221
 N 0.0693 0.9469 0.7508   -0.567363
 N 0.086 0.8606 0.6344   -0.602952
 N 0.2856 0.8787 0.6631   -0.592521
 N 0.4102 0.9888 0.8122   -0.591627
 N 0.6961 0.3185 0.7492   -0.58479
 N 0.7262 0.4516 0.8656   -0.606179
 N 0.7156 0.6225 0.8369   -0.599227
 N 0.6766 0.598 0.6878   -0.594446
 O 0.3909 0.6811 0.9564   -0.706057
 O 0.3378 0.5367 0.9701   -0.784725
 O 0.4455 0.4975 0.1052   -0.729306
 O 0.6022 0.5978 0.227   -0.672851
 O 0.3499 0.7346 0.4563   -0.661288
 O 0.3824 0.6312 0.4958   -0.725542
 O 0.5274 0.5852 0.4844   -0.805344
 O 0.6397 0.6376 0.4253   -0.754185
 O 0.2247 0.4345 0.5436   -0.699405
 O 0.0666 0.3677 0.5299   -0.763646
 O 0.8923 0.3403 0.3948   -0.725394
 O 0.8708 0.3752 0.273   -0.66397
 O 0.7783 0.8936 0.0437   -0.658603
 O 0.6354 0.8866 0.0042   -0.729411
 O 0.6008 0.043 0.0156   -0.812055
 O 0.7123 0.2144 0.0747   -0.764394
 O 0.9345 0.8909 0.2098   -0.700642
 O 0.8677 0.8378 0.3011   -0.766701
 O 0.8403 0.9455 0.448   -0.717622
 O 0.8752 0.1022 0.5044   -0.665802
 O 0.3936 0.8499 0.1153   -0.658736
 O 0.3866 0.8824 0.2512   -0.729937
 O 0.543 0.0274 0.4422   -0.830308
 O 0.7144 0.1397 0.5021   -0.761032
 O 0.1811 0.7247 0.2902   -0.705463
 O 0.0367 0.5666 0.1989   -0.77286
 O 0.9975 0.3923 0.052   -0.726641
 O 0.0978 0.3708 0.9956   -0.675122
 O 0.2346 0.2783 0.3847   -0.661684
 O 0.1312 0.1354 0.2488   -0.725417
 O 0.0852 0.1008 0.0578   -0.809273
 O 0.1376 0.2123 0.9979   -0.76446
 O 0.6091 0.3189 0.0436   -0.706059
 O 0.6622 0.4633 0.0299   -0.784743
 O 0.5545 0.5025 0.8948   -0.729314
 O 0.3978 0.4022 0.773   -0.672866
 O 0.6501 0.2654 0.5437   -0.661311
 O 0.6176 0.3688 0.5042   -0.725553
 O 0.4726 0.4148 0.5156   -0.805354
 O 0.3603 0.3624 0.5747   -0.754188
 O 0.7753 0.5655 0.4564   -0.699408
 O 0.9334 0.6323 0.4701   -0.763655
 O 0.1077 0.6597 0.6052   -0.725401
 O 0.1292 0.6248 0.727   -0.663977
 O 0.2217 0.1064 0.9563   -0.658603
 O 0.3646 0.1134 0.9958   -0.729425
 O 0.3992 0.957 0.9844   -0.812034
 O 0.2877 0.7856 0.9253   -0.76438
 O 0.0655 0.1091 0.7902   -0.700645
 O 0.1323 0.1622 0.6989   -0.76671
 O 0.1597 0.0545 0.552   -0.71763
 O 0.1248 0.8978 0.4956   -0.66581
 O 0.6064 0.1501 0.8847   -0.658732
 O 0.6134 0.1176 0.7488   -0.72995
 O 0.457 0.9726 0.5578   -0.830342
 O 0.2856 0.8603 0.4979   -0.761043
 O 0.8189 0.2753 0.7098   -0.705466
 O 0.9633 0.4334 0.8011   -0.77287
 O 0.0025 0.6077 0.948   -0.726648
 O 0.9022 0.6292 0.0044   -0.675132
 O 0.7654 0.7217 0.6153   -0.661692
 O 0.8688 0.8646 0.7512   -0.725431
 O 0.9148 0.8992 0.9422   -0.809265
 O 0.8624 0.7877 0.0021   -0.764451
