{'_ref': 'TBD', '_srcid': 'CAKYAQ_clean', 'submitters': [{'name': 'Dalar Nazarian Jeff Camp and David Sholl', 'email': 'dalar@gatech.edu jcamp6@gatech.edu'}], '_method': 'VASP DFT with PBE;DDEC'}
data_KCd4C16(N3O4)4
_symmetry_space_group_name_H-M   'P 1'
_cell_length_a   16.05500002
_cell_length_b   17.93688342
_cell_length_c   17.93685838
_cell_angle_alpha   72.88283890
_cell_angle_beta   63.41406811
_cell_angle_gamma   63.41400689
_symmetry_Int_Tables_number   1
_chemical_formula_structural   KCd4C16(N3O4)4
_chemical_formula_sum   'K4 Cd16 C64 N48 O64'
_cell_volume   4102.15202503
_cell_formula_units_Z   4
loop_
 _symmetry_equiv_pos_site_id
 _symmetry_equiv_pos_as_xyz
  1  'x, y, z'
loop_
 _atom_site_label
 _atom_site_fract_x
 _atom_site_fract_y
 _atom_site_fract_z
 _atom_site_charge
 K 0.7589 0.08838 0.41162   0.934483
 K 0.7589 0.41162 0.08838   0.934484
 K 0.2411 0.91162 0.58838   0.934483
 K 0.2411 0.58838 0.91162   0.934484
 Cd 0.34581 0.04498 0.73262   0.942604
 Cd 0.57833 0.17995 0.62933   1.038169
 Cd 0.62341 0.45502 0.76738   0.941442
 Cd 0.88761 0.32005 0.87067   1.037501
 Cd 0.37659 0.23262 0.54498   0.941451
 Cd 0.11239 0.12933 0.67995   1.037518
 Cd 0.65419 0.26738 0.95502   0.942603
 Cd 0.42167 0.37067 0.82005   1.038164
 Cd 0.65419 0.95502 0.26738   0.942604
 Cd 0.42167 0.82005 0.37067   1.038169
 Cd 0.37659 0.54498 0.23262   0.941442
 Cd 0.11239 0.67995 0.12933   1.037501
 Cd 0.62341 0.76738 0.45502   0.941451
 Cd 0.88761 0.87067 0.32005   1.037518
 Cd 0.34581 0.73262 0.04498   0.942604
 Cd 0.57833 0.62933 0.17995   1.038164
 C 0.5448 0.9733 0.5843   0.003515
 C 0.5544 0.0448 0.601   0.633088
 C 0.2517 0.9074 0.8422   0.000259
 C 0.1966 0.9468 0.783   0.55106
 C 0.2021 0.849 0.1892   3e-06
 C 0.1032 0.8788 0.245   0.024174
 C 0.2947 0.8679 0.1599   0.590735
 C 0.0404 0.946 0.3026   0.610765
 C 0.6024 0.5267 0.9157   0.00089
 C 0.7002 0.4552 0.899   0.630917
 C 0.5013 0.5926 0.6578   -0.000824
 C 0.4264 0.5532 0.717   0.555479
 C 0.7403 0.651 0.3108   -0.002455
 C 0.727 0.6212 0.255   0.023411
 C 0.8225 0.6321 0.3401   0.588344
 C 0.789 0.554 0.1974   0.613161
 C 0.3976 0.0843 0.4733   0.000894
 C 0.2998 0.101 0.5448   0.630904
 C 0.4987 0.3422 0.4074   -0.000833
 C 0.5736 0.283 0.4468   0.555484
 C 0.2597 0.6892 0.349   -0.002458
 C 0.273 0.745 0.3788   0.023412
 C 0.1775 0.6599 0.3679   0.588351
 C 0.211 0.8026 0.446   0.613162
 C 0.4552 0.4157 0.0267   0.003519
 C 0.4456 0.399 0.9552   0.633084
 C 0.7483 0.1578 0.0926   0.000235
 C 0.8034 0.217 0.0532   0.551061
 C 0.7979 0.8108 0.151   4.2e-05
 C 0.8968 0.755 0.1212   0.024148
 C 0.7053 0.8401 0.1321   0.59073
 C 0.9596 0.6974 0.054   0.610765
 C 0.4552 0.0267 0.4157   0.003518
 C 0.4456 0.9552 0.399   0.633088
 C 0.7483 0.0926 0.1578   0.000265
 C 0.8034 0.0532 0.217   0.551059
 C 0.7979 0.151 0.8108   3e-06
 C 0.8968 0.1212 0.755   0.024174
 C 0.7053 0.1321 0.8401   0.590736
 C 0.9596 0.054 0.6974   0.610766
 C 0.3976 0.4733 0.0843   0.000893
 C 0.2998 0.5448 0.101   0.630917
 C 0.4987 0.4074 0.3422   -0.000816
 C 0.5736 0.4468 0.283   0.555478
 C 0.2597 0.349 0.6892   -0.002455
 C 0.273 0.3788 0.745   0.023411
 C 0.1775 0.3679 0.6599   0.588345
 C 0.211 0.446 0.8026   0.613161
 C 0.6024 0.9157 0.5267   0.000897
 C 0.7002 0.899 0.4552   0.630904
 C 0.5013 0.6578 0.5926   -0.000825
 C 0.4264 0.717 0.5532   0.555483
 C 0.7403 0.3108 0.651   -0.002458
 C 0.727 0.255 0.6212   0.023412
 C 0.8225 0.3401 0.6321   0.588352
 C 0.789 0.1974 0.554   0.613162
 C 0.5448 0.5843 0.9733   0.003522
 C 0.5544 0.601 0.0448   0.633084
 C 0.2517 0.8422 0.9074   0.000241
 C 0.1966 0.783 0.9468   0.55106
 C 0.2021 0.1892 0.849   4.2e-05
 C 0.1032 0.245 0.8788   0.024148
 C 0.2947 0.1599 0.8679   0.590731
 C 0.0404 0.3026 0.946   0.610765
 N 0.4588 0.9591 0.6311   -0.184359
 N 0.3189 0.9371 0.8355   -0.185311
 N 0.2098 0.787 0.1556   -0.189528
 N 0.1221 0.7782 0.186   -0.057989
 N 0.0563 0.8344 0.2406   -0.244045
 N 0.549 0.5409 0.8689   -0.18432
 N 0.5915 0.5629 0.6645   -0.184754
 N 0.6524 0.713 0.3444   -0.184809
 N 0.5863 0.7218 0.314   -0.060874
 N 0.6313 0.6656 0.2594   -0.242846
 N 0.451 0.1311 0.4591   -0.184327
 N 0.4085 0.3355 0.4371   -0.184749
 N 0.3476 0.6556 0.287   -0.184816
 N 0.4137 0.686 0.2782   -0.060863
 N 0.3687 0.7406 0.3344   -0.242853
 N 0.5412 0.3689 0.0409   -0.184371
 N 0.6811 0.1645 0.0629   -0.185308
 N 0.7902 0.8444 0.213   -0.189551
 N 0.8779 0.814 0.2218   -0.057997
 N 0.9437 0.7594 0.1656   -0.244021
 N 0.5412 0.0409 0.3689   -0.184359
 N 0.6811 0.0629 0.1645   -0.185312
 N 0.7902 0.213 0.8444   -0.189528
 N 0.8779 0.2218 0.814   -0.057989
 N 0.9437 0.1656 0.7594   -0.244045
 N 0.451 0.4591 0.1311   -0.184321
 N 0.4085 0.4371 0.3355   -0.184755
 N 0.3476 0.287 0.6556   -0.184809
 N 0.4137 0.2782 0.686   -0.060874
 N 0.3687 0.3344 0.7406   -0.242846
 N 0.549 0.8689 0.5409   -0.184327
 N 0.5915 0.6645 0.5629   -0.18475
 N 0.6524 0.3444 0.713   -0.184816
 N 0.5863 0.314 0.7218   -0.060863
 N 0.6313 0.2594 0.6656   -0.242853
 N 0.4588 0.6311 0.9591   -0.184372
 N 0.3189 0.8355 0.9371   -0.185309
 N 0.2098 0.1556 0.787   -0.18955
 N 0.1221 0.186 0.7782   -0.057997
 N 0.0563 0.2406 0.8344   -0.244021
 N 0.4609 0.895 0.605   -0.155226
 N 0.4609 0.605 0.895   -0.155218
 N 0.5391 0.105 0.395   -0.155226
 N 0.5391 0.395 0.105   -0.155218
 N 0.3586 0.8933 0.8933   -0.056459
 N 0.6452 0.6067 0.6067   -0.056869
 N 0.3548 0.3933 0.3933   -0.056869
 N 0.6414 0.1067 0.1067   -0.056459
 O 0.47363 0.09957 0.64257   -0.618002
 O 0.63795 0.05095 0.57455   -0.548552
 O 0.215 0.0088 0.7322   -0.610414
 O 0.1123 0.9412 0.806   -0.383758
 O 0.3677 0.8306 0.0994   -0.495866
 O 0.2943 0.9167 0.1967   -0.33814
 O 0.9566 0.9447 0.3527   -0.577459
 O 0.0739 0.9988 0.2958   -0.32059
 O 0.71577 0.40043 0.85743   -0.616518
 O 0.76345 0.44905 0.92545   -0.547267
 O 0.456 0.4912 0.7678   -0.612754
 O 0.3595 0.5588 0.694   -0.385039
 O 0.7977 0.6694 0.4006   -0.493375
 O 0.9077 0.5833 0.3033   -0.338078
 O 0.754 0.5553 0.1473   -0.57828
 O 0.8685 0.5012 0.2042   -0.321902
 O 0.28423 0.14257 0.59957   -0.616531
 O 0.23655 0.07455 0.55095   -0.547257
 O 0.544 0.2322 0.5088   -0.612755
 O 0.6405 0.306 0.4412   -0.385044
 O 0.2023 0.5994 0.3306   -0.493381
 O 0.0923 0.6967 0.4167   -0.338078
 O 0.246 0.8527 0.4447   -0.57828
 O 0.1315 0.7958 0.4988   -0.3219
 O 0.52637 0.35743 0.90043   -0.618001
 O 0.36205 0.42545 0.94905   -0.548555
 O 0.785 0.2678 0.9912   -0.610413
 O 0.8877 0.194 0.0588   -0.383752
 O 0.6323 0.9006 0.1694   -0.495867
 O 0.7057 0.8033 0.0833   -0.338144
 O 0.0434 0.6473 0.0553   -0.577452
 O 0.9261 0.7042 0.0012   -0.320592
 O 0.52637 0.90043 0.35743   -0.618002
 O 0.36205 0.94905 0.42545   -0.548552
 O 0.785 0.9912 0.2678   -0.610414
 O 0.8877 0.0588 0.194   -0.383757
 O 0.6323 0.1694 0.9006   -0.495866
 O 0.7057 0.0833 0.8033   -0.338141
 O 0.0434 0.0553 0.6473   -0.577459
 O 0.9261 0.0012 0.7042   -0.320592
 O 0.28423 0.59957 0.14257   -0.616518
 O 0.23655 0.55095 0.07455   -0.547267
 O 0.544 0.5088 0.2322   -0.612753
 O 0.6405 0.4412 0.306   -0.385038
 O 0.2023 0.3306 0.5994   -0.493375
 O 0.0923 0.4167 0.6967   -0.338078
 O 0.246 0.4447 0.8527   -0.57828
 O 0.1315 0.4988 0.7958   -0.321903
 O 0.71577 0.85743 0.40043   -0.616531
 O 0.76345 0.92545 0.44905   -0.547257
 O 0.456 0.7678 0.4912   -0.612755
 O 0.3595 0.694 0.5588   -0.385044
 O 0.7977 0.4006 0.6694   -0.493381
 O 0.9077 0.3033 0.5833   -0.338078
 O 0.754 0.1473 0.5553   -0.57828
 O 0.8685 0.2042 0.5012   -0.321902
 O 0.47363 0.64257 0.09957   -0.618001
 O 0.63795 0.57455 0.05095   -0.548555
 O 0.215 0.7322 0.0088   -0.610413
 O 0.1123 0.806 0.9412   -0.383751
 O 0.3677 0.0994 0.8306   -0.495867
 O 0.2943 0.1967 0.9167   -0.338144
 O 0.9566 0.3527 0.9447   -0.577452
 O 0.0739 0.2958 0.9988   -0.320593
