{'_ref': 'TBD', '_srcid': 'CAKYAQ_clean', 'submitters': [{'name': 'Dalar Nazarian Jeff Camp and David Sholl', 'email': 'dalar@gatech.edu jcamp6@gatech.edu'}], '_method': 'VASP DFT with PBE;DDEC'}
data_In(CO2)4
_symmetry_space_group_name_H-M   'P 1'
_cell_length_a   9.01480000
_cell_length_b   9.01480016
_cell_length_c   11.46450000
_cell_angle_alpha   90.00000000
_cell_angle_beta   90.00000000
_cell_angle_gamma   119.99999940
_symmetry_Int_Tables_number   1
_chemical_formula_structural   In(CO2)4
_chemical_formula_sum   'In3 C12 O24'
_cell_volume   806.85956721
_cell_formula_units_Z   3
loop_
 _symmetry_equiv_pos_site_id
 _symmetry_equiv_pos_as_xyz
  1  'x, y, z'
loop_
 _atom_site_label
 _atom_site_fract_x
 _atom_site_fract_y
 _atom_site_fract_z
 _atom_site_charge
 In 0.5 0.0 0.66667   1.42434
 In 0.5 0.5 0.0   1.424373
 In 0.0 0.5 0.33333   1.424334
 C 0.791 0.209 0.5   0.478491
 C 0.69155 0.30845 0.5   0.521408
 C 0.418 0.209 0.83333   0.478588
 C 0.6169 0.30845 0.83333   0.521378
 C 0.791 0.582 0.16667   0.478588
 C 0.69155 0.3831 0.16667   0.521377
 C 0.209 0.791 0.5   0.47849
 C 0.30845 0.69155 0.5   0.521408
 C 0.582 0.791 0.83333   0.478588
 C 0.3831 0.69155 0.83333   0.521378
 C 0.209 0.418 0.16667   0.478588
 C 0.30845 0.6169 0.16667   0.521378
 O 0.7345 0.0752 0.5629   -0.408094
 O 0.5567 0.2435 0.5569   -0.447932
 O 0.3407 0.2655 0.89623   -0.408206
 O 0.6868 0.4433 0.89023   -0.447887
 O 0.9248 0.6593 0.22957   -0.40807
 O 0.7565 0.3132 0.22357   -0.447989
 O 0.2655 0.9248 0.5629   -0.408094
 O 0.4433 0.7565 0.5569   -0.447931
 O 0.6593 0.7345 0.89623   -0.408206
 O 0.3132 0.5567 0.89023   -0.447886
 O 0.0752 0.3407 0.22957   -0.408069
 O 0.2435 0.6868 0.22357   -0.447988
 O 0.6593 0.9248 0.77043   -0.408071
 O 0.3132 0.7565 0.77643   -0.447989
 O 0.0752 0.7345 0.4371   -0.408095
 O 0.2435 0.5567 0.4431   -0.447931
 O 0.2655 0.3407 0.10377   -0.408207
 O 0.4433 0.6868 0.10977   -0.447887
 O 0.3407 0.0752 0.77043   -0.40807
 O 0.6868 0.2435 0.77643   -0.447988
 O 0.9248 0.2655 0.4371   -0.408095
 O 0.7565 0.4433 0.4431   -0.44793
 O 0.7345 0.6593 0.10377   -0.408207
 O 0.5567 0.3132 0.10977   -0.447885
