{'_ref': 'TBD', '_srcid': 'CAKYAQ_clean', 'submitters': [{'name': 'Dalar Nazarian Jeff Camp and David Sholl', 'email': 'dalar@gatech.edu jcamp6@gatech.edu'}], '_method': 'VASP DFT with PBE;DDEC'}
data_CoH12C17SN2O5
_symmetry_space_group_name_H-M   'P 1'
_cell_length_a   11.42840000
_cell_length_b   11.42840024
_cell_length_c   30.74300000
_cell_angle_alpha   90.00000000
_cell_angle_beta   90.00000000
_cell_angle_gamma   119.99999931
_symmetry_Int_Tables_number   1
_chemical_formula_structural   CoH12C17SN2O5
_chemical_formula_sum   'Co6 H72 C102 S6 N12 O30'
_cell_volume   3477.34478482
_cell_formula_units_Z   6
loop_
 _symmetry_equiv_pos_site_id
 _symmetry_equiv_pos_as_xyz
  1  'x, y, z'
loop_
 _atom_site_label
 _atom_site_fract_x
 _atom_site_fract_y
 _atom_site_fract_z
 _atom_site_charge
 Co 0.0 0.93788 0.16667   0.907637
 Co 0.93788 0.0 0.5   0.877114
 Co 0.06212 0.06212 0.83333   0.907707
 Co 0.9143 0.0 0.0   0.876161
 Co 0.0857 0.0857 0.33333   1.080529
 Co 0.0 0.9143 0.66667   1.080338
 H 0.4415 0.5722 0.0024   0.107243
 H 0.4293 0.2046 0.9993   0.14479
 H 0.2216 0.1982 0.9971   0.089326
 H 0.5935 0.8361 0.128   0.117101
 H 0.3674 0.7344 0.1085   0.104582
 H 0.0237 0.3616 0.1015   0.129012
 H 0.0233 0.1578 0.1031   0.081388
 H 0.9687 0.5116 0.1018   0.146135
 H 0.4434 0.8785 0.9472   0.152404
 H 0.6502 0.8874 0.9479   0.082869
 H 0.961 0.7106 0.1044   0.08343
 H 0.2893 0.601 0.0456   0.106404
 H 0.1307 0.5585 0.33573   0.107497
 H 0.7753 0.5707 0.33263   0.143596
 H 0.9766 0.7784 0.33043   0.084997
 H 0.2426 0.4065 0.46133   0.116697
 H 0.367 0.6326 0.44183   0.103556
 H 0.3379 0.9763 0.43483   0.131486
 H 0.1345 0.9767 0.43643   0.083815
 H 0.5429 0.0313 0.43513   0.14758
 H 0.4351 0.5566 0.28053   0.150229
 H 0.2372 0.3498 0.28123   0.077485
 H 0.7496 0.039 0.43773   0.08712
 H 0.3117 0.7107 0.37893   0.107092
 H 0.4278 0.8693 0.66907   0.107678
 H 0.7954 0.2247 0.66597   0.143515
 H 0.8018 0.0234 0.66377   0.084747
 H 0.1639 0.7574 0.79467   0.116107
 H 0.2656 0.633 0.77517   0.103552
 H 0.6384 0.6621 0.76817   0.131063
 H 0.8422 0.8655 0.76977   0.082852
 H 0.4884 0.4571 0.76847   0.147461
 H 0.1215 0.5649 0.61387   0.150705
 H 0.1126 0.7628 0.61457   0.077196
 H 0.2894 0.2504 0.77107   0.086061
 H 0.399 0.6883 0.71227   0.107441
 H 0.8693 0.4278 0.9976   0.107247
 H 0.2247 0.7954 0.000700000000002   0.14476
 H 0.0234 0.8018 0.0029   0.089329
 H 0.7574 0.1639 0.872   0.11706
 H 0.633 0.2656 0.8915   0.104559
 H 0.6621 0.6384 0.8985   0.129019
 H 0.8655 0.8422 0.8969   0.081395
 H 0.4571 0.4884 0.8982   0.146123
 H 0.5649 0.1215 0.0528   0.152303
 H 0.7628 0.1126 0.0521   0.082869
 H 0.2504 0.2894 0.8956   0.083438
 H 0.6883 0.399 0.9544   0.106419
 H 0.5722 0.4415 0.66427   0.107504
 H 0.2046 0.4293 0.66737   0.143568
 H 0.1982 0.2216 0.66957   0.085004
 H 0.8361 0.5935 0.53867   0.116597
 H 0.7344 0.3674 0.55817   0.103533
 H 0.3616 0.0237 0.56517   0.131495
 H 0.1578 0.0233 0.56357   0.08382
 H 0.5116 0.9687 0.56487   0.147577
 H 0.8785 0.4434 0.71947   0.150121
 H 0.8874 0.6502 0.71877   0.077486
 H 0.7106 0.961 0.56227   0.087128
 H 0.601 0.2893 0.62107   0.107106
 H 0.5585 0.1307 0.33093   0.107685
 H 0.5707 0.7753 0.33403   0.143483
 H 0.7784 0.9766 0.33623   0.084756
 H 0.4065 0.2426 0.20533   0.116038
 H 0.6326 0.367 0.22483   0.103532
 H 0.9763 0.3379 0.23183   0.131073
 H 0.9767 0.1345 0.23023   0.082858
 H 0.0313 0.5429 0.23153   0.147452
 H 0.5566 0.4351 0.38613   0.150601
 H 0.3498 0.2372 0.38543   0.0772
 H 0.039 0.7496 0.22893   0.08607
 H 0.7107 0.3117 0.28773   0.107453
 C 0.4731 0.6287 0.02736   -0.037264
 C 0.8043 0.8549 0.08966   0.680133
 C 0.6572 0.7751 0.07497   -0.062763
 C 0.3476 0.1202 0.99931   -0.211331
 C 0.2226 0.1156 0.99862   0.17173
 C 0.6113 0.6959 0.0376   -0.211848
 C 0.5637 0.7855 0.10175   -0.087498
 C 0.4289 0.7232 0.09057   -0.092462
 C 0.0139 0.3168 0.12843   -0.183502
 C 0.0135 0.1944 0.12967   0.17798
 C 0.9806 0.5568 0.12878   -0.188703
 C 0.5083 0.9293 0.96888   -0.212208
 C 0.6317 0.9341 0.96995   0.178528
 C 0.9785 0.6773 0.13042   0.180369
 C 0.3822 0.644 0.05325   -0.076829
 C 0.1556 0.5269 0.36069   -0.036233
 C 0.0506 0.1957 0.42299   0.693701
 C 0.1179 0.3428 0.4083   -0.064115
 C 0.7726 0.6524 0.33264   -0.216868
 C 0.893 0.7774 0.33195   0.185134
 C 0.0846 0.3887 0.37093   -0.210739
 C 0.2218 0.4363 0.43508   -0.087326
 C 0.2943 0.5711 0.4239   -0.093391
 C 0.3029 0.9861 0.46176   -0.181276
 C 0.1809 0.9865 0.463   0.181329
 C 0.5762 0.0194 0.46211   -0.186637
 C 0.421 0.4917 0.30221   -0.218299
 C 0.3024 0.3683 0.30328   0.192539
 C 0.6988 0.0215 0.46375   0.18282
 C 0.2618 0.6178 0.38658   -0.076508
 C 0.3713 0.8444 0.69403   -0.035249
 C 0.1451 0.9494 0.75633   0.69465
 C 0.2249 0.8821 0.74164   -0.063276
 C 0.8798 0.2274 0.66598   -0.217166
 C 0.8844 0.107 0.66529   0.184647
 C 0.3041 0.9154 0.70427   -0.210299
 C 0.2145 0.7782 0.76842   -0.089011
 C 0.2768 0.7057 0.75724   -0.094121
 C 0.6832 0.6971 0.7951   -0.179992
 C 0.8056 0.8191 0.79634   0.181268
 C 0.4432 0.4238 0.79545   -0.185826
 C 0.0707 0.579 0.63555   -0.217174
 C 0.0659 0.6976 0.63662   0.192907
 C 0.3227 0.3012 0.79709   0.183508
 C 0.356 0.7382 0.71992   -0.07642
 C 0.8444 0.3713 0.97264   -0.037261
 C 0.9494 0.1451 0.91034   0.680138
 C 0.8821 0.2249 0.92503   -0.062773
 C 0.2274 0.8798 0.000689999999999   -0.211333
 C 0.107 0.8844 0.00138   0.171735
 C 0.9154 0.3041 0.9624   -0.211849
 C 0.7782 0.2145 0.89825   -0.087458
 C 0.7057 0.2768 0.90943   -0.092448
 C 0.6971 0.6832 0.87157   -0.183498
 C 0.8191 0.8056 0.87033   0.177976
 C 0.4238 0.4432 0.87122   -0.18868
 C 0.579 0.0707 0.03112   -0.212157
 C 0.6976 0.0659 0.03005   0.178546
 C 0.3012 0.3227 0.86958   0.180346
 C 0.7382 0.356 0.94675   -0.076837
 C 0.6287 0.4731 0.63931   -0.036238
 C 0.8549 0.8043 0.57701   0.693701
 C 0.7751 0.6572 0.5917   -0.064144
 C 0.1202 0.3476 0.66736   -0.216883
 C 0.1156 0.2226 0.66805   0.185114
 C 0.6959 0.6113 0.62907   -0.210732
 C 0.7855 0.5637 0.56492   -0.087274
 C 0.7232 0.4289 0.5761   -0.093392
 C 0.3168 0.0139 0.53824   -0.181286
 C 0.1944 0.0135 0.537   0.181328
 C 0.5568 0.9806 0.53789   -0.186637
 C 0.9293 0.5083 0.69779   -0.21828
 C 0.9341 0.6317 0.69672   0.192535
 C 0.6773 0.9785 0.53625   0.182812
 C 0.644 0.3822 0.61342   -0.076513
 C 0.5269 0.1556 0.30597   -0.035251
 C 0.1957 0.0506 0.24367   0.694655
 C 0.3428 0.1179 0.25836   -0.063292
 C 0.6524 0.7726 0.33402   -0.217158
 C 0.7774 0.893 0.33471   0.184644
 C 0.3887 0.0846 0.29573   -0.210295
 C 0.4363 0.2218 0.23158   -0.08898
 C 0.5711 0.2943 0.24276   -0.094119
 C 0.9861 0.3029 0.2049   -0.180013
 C 0.9865 0.1809 0.20366   0.181275
 C 0.0194 0.5762 0.20455   -0.185827
 C 0.4917 0.421 0.36445   -0.217116
 C 0.3683 0.3024 0.36338   0.192904
 C 0.0215 0.6988 0.20291   0.183499
 C 0.6178 0.2618 0.28008   -0.076424
 C 0.0 0.5026 0.16667   0.090757
 C 0.0 0.3719 0.16667   0.088798
 C 0.5026 0.0 0.5   0.092152
 C 0.3719 0.0 0.5   0.089731
 C 0.4974 0.4974 0.83333   0.090758
 C 0.6281 0.6281 0.83333   0.088787
 C 0.4813 0.0 0.0   0.117482
 C 0.3508 0.0 0.0   0.094353
 C 0.5187 0.5187 0.33333   0.12049
 C 0.6492 0.6492 0.33333   0.095002
 C 0.0 0.4813 0.66667   0.120498
 C 0.0 0.3508 0.66667   0.095003
 S 0.72094 0.66746 0.00296   1.306357
 S 0.94652 0.27906 0.33629   1.316947
 S 0.33254 0.05348 0.66963   1.316842
 S 0.05348 0.33254 0.99704   1.306383
 S 0.66746 0.72094 0.66371   1.316937
 S 0.27906 0.94652 0.33037   1.316843
 N 0.0 0.1262 0.16667   -0.398408
 N 0.0 0.7478 0.16667   -0.388583
 N 0.1262 0.0 0.5   -0.391693
 N 0.7478 0.0 0.5   -0.379993
 N 0.8738 0.8738 0.83333   -0.398445
 N 0.2522 0.2522 0.83333   -0.388619
 N 0.1056 0.0 0.0   -0.273258
 N 0.7259 0.0 0.0   -0.324779
 N 0.8944 0.8944 0.33333   -0.339171
 N 0.2741 0.2741 0.33333   -0.392405
 N 0.0 0.1056 0.66667   -0.339058
 N 0.0 0.7259 0.66667   -0.392283
 O 0.8956 0.932 0.06328   -0.574724
 O 0.8058 0.7952 0.97903   -0.639987
 O 0.6323 0.5613 0.97314   -0.614824
 O 0.8256 0.8438 0.12866   -0.596033
 O 0.8002 0.633 0.03148   -0.62612
 O 0.0364 0.1044 0.39661   -0.61927
 O 0.9894 0.1942 0.31236   -0.678721
 O 0.929 0.3677 0.30647   -0.627873
 O 0.0182 0.1744 0.46199   -0.601695
 O 0.8328 0.1998 0.36481   -0.628338
 O 0.068 0.9636 0.72995   -0.624545
 O 0.2048 0.0106 0.6457   -0.678071
 O 0.4387 0.071 0.63981   -0.627154
 O 0.1562 0.9818 0.79533   -0.608854
 O 0.367 0.1672 0.69815   -0.6282
 O 0.9636 0.068 0.93672   -0.574726
 O 0.0106 0.2048 0.02097   -0.639986
 O 0.071 0.4387 0.02686   -0.614827
 O 0.9818 0.1562 0.87134   -0.596041
 O 0.1672 0.367 0.96852   -0.626116
 O 0.932 0.8956 0.60339   -0.619262
 O 0.7952 0.8058 0.68764   -0.678713
 O 0.5613 0.6323 0.69353   -0.627871
 O 0.8438 0.8256 0.53801   -0.601653
 O 0.633 0.8002 0.63519   -0.628339
 O 0.1044 0.0364 0.27005   -0.624555
 O 0.1942 0.9894 0.3543   -0.678071
 O 0.3677 0.929 0.36019   -0.627153
 O 0.1744 0.0182 0.20467   -0.608834
 O 0.1998 0.8328 0.30185   -0.6282
