{'_ref': 'TBD', '_srcid': 'CAKYAQ_clean', 'submitters': [{'name': 'Dalar Nazarian Jeff Camp and David Sholl', 'email': 'dalar@gatech.edu jcamp6@gatech.edu'}], '_method': 'VASP DFT with PBE;DDEC'}
data_VH4C8O5
_symmetry_space_group_name_H-M   'P 1'
_cell_length_a   6.79600000
_cell_length_b   10.21400000
_cell_length_c   18.41000000
_cell_angle_alpha   90.00000000
_cell_angle_beta   90.00000000
_cell_angle_gamma   90.00000000
_symmetry_Int_Tables_number   1
_chemical_formula_structural   VH4C8O5
_chemical_formula_sum   'V4 H16 C32 O20'
_cell_volume   1277.91807304
_cell_formula_units_Z   4
loop_
 _symmetry_equiv_pos_site_id
 _symmetry_equiv_pos_as_xyz
  1  'x, y, z'
loop_
 _atom_site_label
 _atom_site_fract_x
 _atom_site_fract_y
 _atom_site_fract_z
 _atom_site_charge
 V 0.8007 0.2677 0.25   1.894639
 V 0.6993 0.7677 0.75   1.894639
 V 0.1993 0.7323 0.75   1.894632
 V 0.3007 0.2323 0.25   1.894632
 H 0.2974 0.024 0.4421   0.11021
 H 0.7141 0.0599 0.4416   0.110929
 H 0.2026 0.524 0.5579   0.11021
 H 0.7859 0.5599 0.5584   0.110929
 H 0.7026 0.976 0.9421   0.11021
 H 0.2859 0.9401 0.9416   0.110929
 H 0.7974 0.476 0.0579   0.11021
 H 0.2141 0.4401 0.0584   0.110929
 H 0.7026 0.976 0.5579   0.110208
 H 0.2859 0.9401 0.5584   0.110927
 H 0.7974 0.476 0.4421   0.110208
 H 0.2141 0.4401 0.4416   0.110927
 H 0.2974 0.024 0.0579   0.110208
 H 0.7141 0.0599 0.0584   0.110927
 H 0.2026 0.524 0.9421   0.110208
 H 0.7859 0.5599 0.9416   0.110927
 C 0.0138 0.1084 0.3563   0.727591
 C 0.0072 0.0477 0.4303   -0.120791
 C 0.177 0.0139 0.4654   -0.054537
 C 0.83 0.0352 0.465   -0.05867
 C 0.4862 0.6084 0.6437   0.727591
 C 0.4928 0.5477 0.5697   -0.120791
 C 0.323 0.5139 0.5346   -0.054537
 C 0.67 0.5352 0.535   -0.05867
 C 0.9862 0.8916 0.8563   0.727591
 C 0.9928 0.9523 0.9303   -0.120791
 C 0.823 0.9861 0.9654   -0.054537
 C 0.17 0.9648 0.965   -0.05867
 C 0.5138 0.3916 0.1437   0.727591
 C 0.5072 0.4523 0.0697   -0.120791
 C 0.677 0.4861 0.0346   -0.054537
 C 0.33 0.4648 0.035   -0.05867
 C 0.9862 0.8916 0.6437   0.727591
 C 0.9928 0.9523 0.5697   -0.120798
 C 0.823 0.9861 0.5346   -0.054519
 C 0.17 0.9648 0.535   -0.058651
 C 0.5138 0.3916 0.3563   0.727591
 C 0.5072 0.4523 0.4303   -0.120797
 C 0.677 0.4861 0.4654   -0.054519
 C 0.33 0.4648 0.465   -0.058651
 C 0.0138 0.1084 0.1437   0.727591
 C 0.0072 0.0477 0.0697   -0.120797
 C 0.177 0.0139 0.0346   -0.054519
 C 0.83 0.0352 0.035   -0.058651
 C 0.4862 0.6084 0.8563   0.727591
 C 0.4928 0.5477 0.9303   -0.120797
 C 0.323 0.5139 0.9654   -0.054519
 C 0.67 0.5352 0.965   -0.058651
 O 0.8517 0.1397 0.3275   -0.630939
 O 0.1807 0.1242 0.3283   -0.651679
 O 0.6483 0.6397 0.6725   -0.630939
 O 0.3193 0.6242 0.6717   -0.651679
 O 0.1483 0.8603 0.8275   -0.630938
 O 0.8193 0.8758 0.8283   -0.65168
 O 0.3517 0.3603 0.1725   -0.630938
 O 0.6807 0.3758 0.1717   -0.65168
 O 0.1483 0.8603 0.6725   -0.630938
 O 0.8193 0.8758 0.6717   -0.65168
 O 0.3517 0.3603 0.3275   -0.630938
 O 0.6807 0.3758 0.3283   -0.65168
 O 0.8517 0.1397 0.1725   -0.630939
 O 0.1807 0.1242 0.1717   -0.651679
 O 0.6483 0.6397 0.8275   -0.630939
 O 0.3193 0.6242 0.8283   -0.651679
 O 0.016 0.3284 0.25   -0.75889
 O 0.484 0.8284 0.75   -0.75889
 O 0.984 0.6716 0.75   -0.75889
 O 0.516 0.1716 0.25   -0.75889
