{'_ref': 'TBD', '_srcid': 'CAKYAQ_clean', 'submitters': [{'name': 'Dalar Nazarian Jeff Camp and David Sholl', 'email': 'dalar@gatech.edu jcamp6@gatech.edu'}], '_method': 'VASP DFT with PBE;DDEC'}
data_VH4C8O5
_symmetry_space_group_name_H-M   'P 1'
_cell_length_a   6.78580000
_cell_length_b   12.61800000
_cell_length_c   17.08600000
_cell_angle_alpha   90.00000000
_cell_angle_beta   90.00000000
_cell_angle_gamma   90.00000000
_symmetry_Int_Tables_number   1
_chemical_formula_structural   VH4C8O5
_chemical_formula_sum   'V4 H16 C32 O20'
_cell_volume   1462.9584121
_cell_formula_units_Z   4
loop_
 _symmetry_equiv_pos_site_id
 _symmetry_equiv_pos_as_xyz
  1  'x, y, z'
loop_
 _atom_site_label
 _atom_site_fract_x
 _atom_site_fract_y
 _atom_site_fract_z
 _atom_site_charge
 V 0.94114 0.2654 0.00074   1.889375
 V 0.55886 0.7346 0.50074   1.889375
 V 0.05886 0.7654 0.49926   1.889378
 V 0.44114 0.2346 0.99926   1.889378
 H 0.9495 0.4636 0.1944   0.116874
 H 0.5453 0.5045 0.3233   0.111622
 H 0.5302 0.4037 0.2111   0.114735
 H 0.9685 0.5655 0.3079   0.113771
 H 0.5505 0.5364 0.6944   0.116874
 H 0.9547 0.4955 0.8233   0.111621
 H 0.9698 0.5963 0.7111   0.114735
 H 0.5315 0.4345 0.8079   0.113771
 H 0.0505 0.9636 0.3056   0.116875
 H 0.4547 0.0045 0.1767   0.111622
 H 0.4698 0.9037 0.2889   0.114735
 H 0.0315 0.0655 0.1921   0.113771
 H 0.4495 0.0364 0.8056   0.116875
 H 0.0453 0.9955 0.6767   0.111622
 H 0.0302 0.0963 0.7889   0.114735
 H 0.4685 0.9345 0.6921   0.113771
 C 0.2393 0.4256 0.1907   -0.124696
 C 0.0695 0.4725 0.2199   -0.063855
 C 0.2274 0.3625 0.1174   0.732516
 C 0.4256 0.4967 0.2974   -0.053008
 C 0.4173 0.4366 0.2301   -0.055771
 C 0.2603 0.545 0.3268   -0.121565
 C 0.081 0.533 0.2881   -0.059237
 C 0.2702 0.6154 0.3968   0.720456
 C 0.2607 0.5744 0.6907   -0.124697
 C 0.4305 0.5275 0.7199   -0.063856
 C 0.2726 0.6375 0.6174   0.732517
 C 0.0744 0.5033 0.7974   -0.053008
 C 0.0827 0.5634 0.7301   -0.055771
 C 0.2397 0.455 0.8268   -0.121565
 C 0.419 0.467 0.7881   -0.059237
 C 0.2298 0.3846 0.8968   0.720456
 C 0.7607 0.9256 0.3093   -0.124696
 C 0.9305 0.9725 0.2801   -0.063858
 C 0.7726 0.8625 0.3826   0.732516
 C 0.5744 0.9967 0.2026   -0.05301
 C 0.5827 0.9366 0.2699   -0.055773
 C 0.7397 0.045 0.1732   -0.121565
 C 0.919 0.033 0.2119   -0.059238
 C 0.7298 0.1154 0.1032   0.720456
 C 0.7393 0.0744 0.8093   -0.124697
 C 0.5695 0.0275 0.7801   -0.063858
 C 0.7274 0.1375 0.8826   0.732517
 C 0.9256 0.0033 0.7026   -0.05301
 C 0.9173 0.0634 0.7699   -0.055773
 C 0.7603 0.955 0.6732   -0.121565
 C 0.581 0.967 0.7119   -0.059238
 C 0.7702 0.8846 0.6032   0.720456
 O 0.2224 0.18534 0.99604   -0.762636
 O 0.062 0.3449 0.08833   -0.651201
 O 0.441 0.635 0.42387   -0.650058
 O 0.1096 0.6505 0.42316   -0.621317
 O 0.3902 0.3299 0.0893   -0.636005
 O 0.2776 0.81466 0.49604   -0.762636
 O 0.438 0.6551 0.58833   -0.651201
 O 0.059 0.365 0.92387   -0.650058
 O 0.3904 0.3495 0.92316   -0.621317
 O 0.1098 0.6701 0.5893   -0.636005
 O 0.7776 0.68534 0.50396   -0.762636
 O 0.938 0.8449 0.41167   -0.651201
 O 0.559 0.135 0.07613   -0.650058
 O 0.8904 0.1505 0.07684   -0.621316
 O 0.6098 0.8299 0.4107   -0.636004
 O 0.7224 0.31466 0.00396   -0.762636
 O 0.562 0.1551 0.91167   -0.651201
 O 0.941 0.865 0.57613   -0.650058
 O 0.6096 0.8495 0.57684   -0.621316
 O 0.8902 0.1701 0.9107   -0.636004
