{'_ref': 'TBD', '_srcid': 'CAKYAQ_clean', 'submitters': [{'name': 'Dalar Nazarian Jeff Camp and David Sholl', 'email': 'dalar@gatech.edu jcamp6@gatech.edu'}], '_method': 'VASP DFT with PBE;DDEC'}
data_CoH5C6(N2O)2
_symmetry_space_group_name_H-M   'P 1'
_cell_length_a   12.58450000
_cell_length_b   12.58450000
_cell_length_c   25.44640000
_cell_angle_alpha   90.00000000
_cell_angle_beta   90.00000000
_cell_angle_gamma   90.00000000
_symmetry_Int_Tables_number   1
_chemical_formula_structural   CoH5C6(N2O)2
_chemical_formula_sum   'Co16 H80 C96 N64 O32'
_cell_volume   4029.93721366
_cell_formula_units_Z   16
loop_
 _symmetry_equiv_pos_site_id
 _symmetry_equiv_pos_as_xyz
  1  'x, y, z'
loop_
 _atom_site_label
 _atom_site_fract_x
 _atom_site_fract_y
 _atom_site_fract_z
 _atom_site_charge
 Co 0.06672 0.95802 0.5643   0.820033
 Co 0.43328 0.54198 0.5643   0.820033
 Co 0.54198 0.06672 0.5643   0.820033
 Co 0.95802 0.43328 0.5643   0.820033
 Co 0.43328 0.95802 0.9357   0.820033
 Co 0.06672 0.54198 0.9357   0.820033
 Co 0.95802 0.06672 0.9357   0.820033
 Co 0.54198 0.43328 0.9357   0.820033
 Co 0.93328 0.04198 0.4357   0.820033
 Co 0.56672 0.45802 0.4357   0.820033
 Co 0.45802 0.93328 0.4357   0.820033
 Co 0.04198 0.56672 0.4357   0.820033
 Co 0.56672 0.04198 0.0643   0.820033
 Co 0.93328 0.45802 0.0643   0.820033
 Co 0.04198 0.93328 0.0643   0.820033
 Co 0.45802 0.56672 0.0643   0.820033
 H 0.0498 0.1375 0.6463   0.356979
 H 0.4502 0.3625 0.6463   0.356979
 H 0.3625 0.0498 0.6463   0.35698
 H 0.1375 0.4502 0.6463   0.35698
 H 0.4502 0.1375 0.8537   0.35698
 H 0.0498 0.3625 0.8537   0.35698
 H 0.1375 0.0498 0.8537   0.35698
 H 0.3625 0.4502 0.8537   0.35698
 H 0.9502 0.8625 0.3537   0.356979
 H 0.5498 0.6375 0.3537   0.356979
 H 0.6375 0.9502 0.3537   0.35698
 H 0.8625 0.5498 0.3537   0.35698
 H 0.5498 0.8625 0.1463   0.35698
 H 0.9502 0.6375 0.1463   0.35698
 H 0.8625 0.9502 0.1463   0.35698
 H 0.6375 0.5498 0.1463   0.35698
 H 0.0317 0.2545 0.6461   0.353028
 H 0.4683 0.2455 0.6461   0.353028
 H 0.2455 0.0317 0.6461   0.353029
 H 0.2545 0.4683 0.6461   0.353029
 H 0.4683 0.2545 0.8539   0.353029
 H 0.0317 0.2455 0.8539   0.353029
 H 0.2545 0.0317 0.8539   0.353029
 H 0.2455 0.4683 0.8539   0.353029
 H 0.9683 0.7455 0.3539   0.353028
 H 0.5317 0.7545 0.3539   0.353028
 H 0.7545 0.9683 0.3539   0.353029
 H 0.7455 0.5317 0.3539   0.353029
 H 0.5317 0.7455 0.1461   0.353029
 H 0.9683 0.7545 0.1461   0.353029
 H 0.7455 0.9683 0.1461   0.353029
 H 0.7545 0.5317 0.1461   0.353029
 H 0.0709 0.6754 0.6672   0.096733
 H 0.4291 0.8246 0.6672   0.096733
 H 0.8246 0.0709 0.6672   0.096733
 H 0.6754 0.4291 0.6672   0.096733
 H 0.4291 0.6754 0.8328   0.096733
 H 0.0709 0.8246 0.8328   0.096733
 H 0.6754 0.0709 0.8328   0.096733
 H 0.8246 0.4291 0.8328   0.096733
 H 0.9291 0.3246 0.3328   0.096733
 H 0.5709 0.1754 0.3328   0.096733
 H 0.1754 0.9291 0.3328   0.096733
 H 0.3246 0.5709 0.3328   0.096733
 H 0.5709 0.3246 0.1672   0.096733
 H 0.9291 0.1754 0.1672   0.096733
 H 0.3246 0.9291 0.1672   0.096733
 H 0.1754 0.5709 0.1672   0.096733
 H 0.0758 0.5679 0.7411   0.092261
 H 0.4242 0.9321 0.7411   0.092261
 H 0.9321 0.0758 0.7411   0.092261
 H 0.5679 0.4242 0.7411   0.092261
 H 0.4242 0.5679 0.7589   0.092261
 H 0.0758 0.9321 0.7589   0.092261
 H 0.5679 0.0758 0.7589   0.092261
 H 0.9321 0.4242 0.7589   0.092261
 H 0.9242 0.4321 0.2589   0.092261
 H 0.5758 0.0679 0.2589   0.092261
 H 0.0679 0.9242 0.2589   0.092261
 H 0.4321 0.5758 0.2589   0.092261
 H 0.5758 0.4321 0.2411   0.092261
 H 0.9242 0.0679 0.2411   0.092261
 H 0.4321 0.9242 0.2411   0.092261
 H 0.0679 0.5758 0.2411   0.092261
 H 0.9353 0.2718 0.4731   0.081362
 H 0.5647 0.2282 0.4731   0.081362
 H 0.2282 0.9353 0.4731   0.081362
 H 0.2718 0.5647 0.4731   0.081362
 H 0.5647 0.2718 0.0269   0.081362
 H 0.9353 0.2282 0.0269   0.081362
 H 0.2718 0.9353 0.0269   0.081362
 H 0.2282 0.5647 0.0269   0.081362
 H 0.0647 0.7282 0.5269   0.081362
 H 0.4353 0.7718 0.5269   0.081362
 H 0.7718 0.0647 0.5269   0.081362
 H 0.7282 0.4353 0.5269   0.081362
 H 0.4353 0.7282 0.9731   0.081362
 H 0.0647 0.7718 0.9731   0.081362
 H 0.7282 0.0647 0.9731   0.081362
 H 0.7718 0.4353 0.9731   0.081362
 C 0.0711 0.8833 0.6578   0.672971
 C 0.4289 0.6167 0.6578   0.672971
 C 0.6167 0.0711 0.6578   0.672971
 C 0.8833 0.4289 0.6578   0.672971
 C 0.4289 0.8833 0.8422   0.672971
 C 0.0711 0.6167 0.8422   0.672971
 C 0.8833 0.0711 0.8422   0.672971
 C 0.6167 0.4289 0.8422   0.672971
 C 0.9289 0.1167 0.3422   0.672971
 C 0.5711 0.3833 0.3422   0.672971
 C 0.3833 0.9289 0.3422   0.672971
 C 0.1167 0.5711 0.3422   0.672971
 C 0.5711 0.1167 0.1578   0.672971
 C 0.9289 0.3833 0.1578   0.672971
 C 0.1167 0.9289 0.1578   0.672971
 C 0.3833 0.5711 0.1578   0.672971
 C 0.0745 0.8148 0.70572   -0.124624
 C 0.4255 0.6852 0.70572   -0.124624
 C 0.6852 0.0745 0.70572   -0.124624
 C 0.8148 0.4255 0.70572   -0.124624
 C 0.4255 0.8148 0.79428   -0.124624
 C 0.0745 0.6852 0.79428   -0.124624
 C 0.8148 0.0745 0.79428   -0.124624
 C 0.6852 0.4255 0.79428   -0.124624
 C 0.9255 0.1852 0.29428   -0.124624
 C 0.5745 0.3148 0.29428   -0.124624
 C 0.3148 0.9255 0.29428   -0.124624
 C 0.1852 0.5745 0.29428   -0.124624
 C 0.5745 0.1852 0.20572   -0.124624
 C 0.9255 0.3148 0.20572   -0.124624
 C 0.1852 0.9255 0.20572   -0.124624
 C 0.3148 0.5745 0.20572   -0.124624
 C 0.073 0.7059 0.7005   -0.051952
 C 0.427 0.7941 0.7005   -0.051952
 C 0.7941 0.073 0.7005   -0.051952
 C 0.7059 0.427 0.7005   -0.051952
 C 0.427 0.7059 0.7995   -0.051951
 C 0.073 0.7941 0.7995   -0.051951
 C 0.7059 0.073 0.7995   -0.051952
 C 0.7941 0.427 0.7995   -0.051952
 C 0.927 0.2941 0.2995   -0.051952
 C 0.573 0.2059 0.2995   -0.051952
 C 0.2059 0.927 0.2995   -0.051952
 C 0.2941 0.573 0.2995   -0.051952
 C 0.573 0.2941 0.2005   -0.051951
 C 0.927 0.2059 0.2005   -0.051951
 C 0.2941 0.927 0.2005   -0.051952
 C 0.2059 0.573 0.2005   -0.051952
 C 0.0746 0.6414 0.7449   -0.054905
 C 0.4254 0.8586 0.7449   -0.054905
 C 0.8586 0.0746 0.7449   -0.054905
 C 0.6414 0.4254 0.7449   -0.054905
 C 0.4254 0.6414 0.7551   -0.054906
 C 0.0746 0.8586 0.7551   -0.054906
 C 0.6414 0.0746 0.7551   -0.054906
 C 0.8586 0.4254 0.7551   -0.054906
 C 0.9254 0.3586 0.2551   -0.054905
 C 0.5746 0.1414 0.2551   -0.054905
 C 0.1414 0.9254 0.2551   -0.054905
 C 0.3586 0.5746 0.2551   -0.054905
 C 0.5746 0.3586 0.2449   -0.054906
 C 0.9254 0.1414 0.2449   -0.054906
 C 0.3586 0.9254 0.2449   -0.054906
 C 0.1414 0.5746 0.2449   -0.054906
 C 0.9564 0.232 0.50203   0.280049
 C 0.5436 0.268 0.50203   0.280049
 C 0.268 0.9564 0.50203   0.280049
 C 0.232 0.5436 0.50203   0.280049
 C 0.5436 0.232 0.99797   0.280049
 C 0.9564 0.268 0.99797   0.280049
 C 0.232 0.9564 0.99797   0.280049
 C 0.268 0.5436 0.99797   0.280049
 C 0.0436 0.768 0.49797   0.280049
 C 0.4564 0.732 0.49797   0.280049
 C 0.732 0.0436 0.49797   0.28005
 C 0.768 0.4564 0.49797   0.28005
 C 0.4564 0.768 0.00203   0.280049
 C 0.0436 0.732 0.00203   0.280049
 C 0.768 0.0436 0.00203   0.28005
 C 0.732 0.4564 0.00203   0.28005
 C 0.004 0.1899 0.57915   0.664027
 C 0.496 0.3101 0.57915   0.664027
 C 0.3101 0.004 0.57915   0.664027
 C 0.1899 0.496 0.57915   0.664027
 C 0.496 0.1899 0.92085   0.664027
 C 0.004 0.3101 0.92085   0.664027
 C 0.1899 0.004 0.92085   0.664027
 C 0.3101 0.496 0.92085   0.664027
 C 0.996 0.8101 0.42085   0.664027
 C 0.504 0.6899 0.42085   0.664027
 C 0.6899 0.996 0.42085   0.664027
 C 0.8101 0.504 0.42085   0.664027
 C 0.504 0.8101 0.07915   0.664027
 C 0.996 0.6899 0.07915   0.664027
 C 0.8101 0.996 0.07915   0.664027
 C 0.6899 0.504 0.07915   0.664027
 N 0.9709 0.1302 0.50035   -0.268495
 N 0.5291 0.3698 0.50035   -0.268495
 N 0.3698 0.9709 0.50035   -0.268495
 N 0.1302 0.5291 0.50035   -0.268495
 N 0.5291 0.1302 0.99965   -0.268495
 N 0.9709 0.3698 0.99965   -0.268495
 N 0.1302 0.9709 0.99965   -0.268495
 N 0.3698 0.5291 0.99965   -0.268495
 N 0.0291 0.8698 0.49965   -0.268495
 N 0.4709 0.6302 0.49965   -0.268495
 N 0.6302 0.0291 0.49965   -0.268495
 N 0.8698 0.4709 0.49965   -0.268495
 N 0.4709 0.8698 0.000349999999997   -0.268495
 N 0.0291 0.6302 0.000349999999997   -0.268495
 N 0.8698 0.0291 0.000349999999997   -0.268495
 N 0.6302 0.4709 0.000349999999997   -0.268495
 N 0.002 0.1001 0.55096   -0.440393
 N 0.498 0.3999 0.55096   -0.440393
 N 0.3999 0.002 0.55096   -0.440393
 N 0.1001 0.498 0.55096   -0.440393
 N 0.498 0.1001 0.94904   -0.440393
 N 0.002 0.3999 0.94904   -0.440393
 N 0.1001 0.002 0.94904   -0.440393
 N 0.3999 0.498 0.94904   -0.440393
 N 0.998 0.8999 0.44904   -0.440393
 N 0.502 0.6001 0.44904   -0.440393
 N 0.6001 0.998 0.44904   -0.440393
 N 0.8999 0.502 0.44904   -0.440393
 N 0.502 0.8999 0.05096   -0.440393
 N 0.998 0.6001 0.05096   -0.440393
 N 0.8999 0.998 0.05096   -0.440393
 N 0.6001 0.502 0.05096   -0.440393
 N 0.0318 0.1945 0.62992   -0.73773
 N 0.4682 0.3055 0.62992   -0.73773
 N 0.3055 0.0318 0.62992   -0.73773
 N 0.1945 0.4682 0.62992   -0.73773
 N 0.4682 0.1945 0.87008   -0.73773
 N 0.0318 0.3055 0.87008   -0.73773
 N 0.1945 0.0318 0.87008   -0.73773
 N 0.3055 0.4682 0.87008   -0.73773
 N 0.9682 0.8055 0.37008   -0.73773
 N 0.5318 0.6945 0.37008   -0.73773
 N 0.6945 0.9682 0.37008   -0.73773
 N 0.8055 0.5318 0.37008   -0.73773
 N 0.5318 0.8055 0.12992   -0.73773
 N 0.9682 0.6945 0.12992   -0.73773
 N 0.8055 0.9682 0.12992   -0.73773
 N 0.6945 0.5318 0.12992   -0.73773
 N 0.9746 0.2749 0.55003   -0.56745
 N 0.5254 0.2251 0.55003   -0.56745
 N 0.2251 0.9746 0.55003   -0.56745
 N 0.2749 0.5254 0.55003   -0.56745
 N 0.5254 0.2749 0.94997   -0.56745
 N 0.9746 0.2251 0.94997   -0.56745
 N 0.2749 0.9746 0.94997   -0.56745
 N 0.2251 0.5254 0.94997   -0.56745
 N 0.0254 0.7251 0.44997   -0.56745
 N 0.4746 0.7749 0.44997   -0.56745
 N 0.7749 0.0254 0.44997   -0.56745
 N 0.7251 0.4746 0.44997   -0.56745
 N 0.4746 0.7251 0.05003   -0.56745
 N 0.0254 0.7749 0.05003   -0.56745
 N 0.7251 0.0254 0.05003   -0.56745
 N 0.7749 0.4746 0.05003   -0.56745
 O 0.0487 0.8414 0.61459   -0.566947
 O 0.4513 0.6586 0.61459   -0.566947
 O 0.6586 0.0487 0.61459   -0.566947
 O 0.8414 0.4513 0.61459   -0.566947
 O 0.4513 0.8414 0.88541   -0.566947
 O 0.0487 0.6586 0.88541   -0.566947
 O 0.8414 0.0487 0.88541   -0.566947
 O 0.6586 0.4513 0.88541   -0.566947
 O 0.9513 0.1586 0.38541   -0.566947
 O 0.5487 0.3414 0.38541   -0.566947
 O 0.3414 0.9513 0.38541   -0.566947
 O 0.1586 0.5487 0.38541   -0.566947
 O 0.5487 0.1586 0.11459   -0.566947
 O 0.9513 0.3414 0.11459   -0.566947
 O 0.1586 0.9513 0.11459   -0.566947
 O 0.3414 0.5487 0.11459   -0.566947
 O 0.0879 0.9794 0.66079   -0.604948
 O 0.4121 0.5206 0.66079   -0.604948
 O 0.5206 0.0879 0.66079   -0.604948
 O 0.9794 0.4121 0.66079   -0.604948
 O 0.4121 0.9794 0.83921   -0.604948
 O 0.0879 0.5206 0.83921   -0.604948
 O 0.9794 0.0879 0.83921   -0.604948
 O 0.5206 0.4121 0.83921   -0.604948
 O 0.9121 0.0206 0.33921   -0.604948
 O 0.5879 0.4794 0.33921   -0.604948
 O 0.4794 0.9121 0.33921   -0.604948
 O 0.0206 0.5879 0.33921   -0.604948
 O 0.5879 0.0206 0.16079   -0.604948
 O 0.9121 0.4794 0.16079   -0.604948
 O 0.0206 0.9121 0.16079   -0.604948
 O 0.4794 0.5879 0.16079   -0.604948
