{'_ref': 'TBD', '_srcid': 'CAKYAQ_clean', 'submitters': [{'name': 'Dalar Nazarian Jeff Camp and David Sholl', 'email': 'dalar@gatech.edu jcamp6@gatech.edu'}], '_method': 'VASP DFT with PBE;DDEC'}
data_MnH6(C3O)4
_symmetry_space_group_name_H-M   'P 1'
_cell_length_a   7.53500000
_cell_length_b   10.46600015
_cell_length_c   21.51300000
_cell_angle_alpha   90.00000000
_cell_angle_beta   90.00000000
_cell_angle_gamma   96.66599723
_symmetry_Int_Tables_number   1
_chemical_formula_structural   MnH6(C3O)4
_chemical_formula_sum   'Mn4 H24 C48 O16'
_cell_volume   1685.07426854
_cell_formula_units_Z   4
loop_
 _symmetry_equiv_pos_site_id
 _symmetry_equiv_pos_as_xyz
  1  'x, y, z'
loop_
 _atom_site_label
 _atom_site_fract_x
 _atom_site_fract_y
 _atom_site_fract_z
 _atom_site_charge
 Mn 0.6256 0.66741 0.76239   1.128868
 Mn 0.8744 0.33259 0.26239   1.128868
 Mn 0.3744 0.33259 0.23761   1.128869
 Mn 0.1256 0.66741 0.73761   1.128869
 H 0.7531 0.9286 0.6254   0.112494
 H 0.8363 0.036 0.5352   0.110931
 H 0.5963 0.4281 0.5731   0.109603
 H 0.0668 0.6444 0.5996   0.09123
 H 0.6925 0.3576 0.4802   0.111977
 H 0.2427 0.8809 0.5688   0.10672
 H 0.7469 0.0714 0.1254   0.112494
 H 0.6637 0.964 0.0352   0.110931
 H 0.9037 0.5719 0.0731   0.109603
 H 0.4332 0.3556 0.0996   0.09123
 H 0.8075 0.6424 0.9802   0.111977
 H 0.2573 0.1191 0.0688   0.10672
 H 0.2469 0.0714 0.3746   0.112494
 H 0.1637 0.964 0.4648   0.11093
 H 0.4037 0.5719 0.4269   0.109603
 H 0.9332 0.3556 0.4004   0.09123
 H 0.3075 0.6424 0.5198   0.111977
 H 0.7573 0.1191 0.4312   0.10672
 H 0.2531 0.9286 0.8746   0.112494
 H 0.3363 0.036 0.9648   0.11093
 H 0.0963 0.4281 0.9269   0.109603
 H 0.5668 0.6444 0.9004   0.09123
 H 0.1925 0.3576 0.0198   0.111977
 H 0.7427 0.8809 0.9312   0.10672
 C 0.6675 0.941 0.59549   -0.04616
 C 0.8257 0.5424 0.59694   -0.152941
 C 0.7591 0.5831 0.65791   0.695301
 C 0.717 0.0048 0.54138   -0.142664
 C 0.486 0.8938 0.60589   -0.14502
 C 0.5907 0.024 0.49508   0.043322
 C 0.7114 0.456 0.55947   -0.039462
 C 0.9931 0.5863 0.57567   -0.066453
 C 0.7688 0.414 0.50409   -0.122321
 C 0.0558 0.5446 0.51785   0.044036
 C 0.3618 0.9117 0.56162   -0.075493
 C 0.4343 0.8229 0.66541   0.718326
 C 0.8325 0.059 0.09549   -0.04616
 C 0.6743 0.4576 0.09694   -0.152941
 C 0.7409 0.4169 0.15791   0.695301
 C 0.783 0.9952 0.04138   -0.142664
 C 0.014 0.1062 0.10589   -0.14502
 C 0.9093 0.976 0.99508   0.043322
 C 0.7886 0.544 0.05947   -0.039462
 C 0.5069 0.4137 0.07567   -0.066453
 C 0.7312 0.586 0.00409   -0.122321
 C 0.4442 0.4554 0.01785   0.044036
 C 0.1382 0.0883 0.06162   -0.075493
 C 0.0657 0.1771 0.16541   0.718326
 C 0.3325 0.059 0.40451   -0.046161
 C 0.1743 0.4576 0.40306   -0.152941
 C 0.2409 0.4169 0.34209   0.6953
 C 0.283 0.9952 0.45862   -0.142663
 C 0.514 0.1062 0.39411   -0.145019
 C 0.4093 0.976 0.50492   0.043317
 C 0.2886 0.544 0.44053   -0.039463
 C 0.0069 0.4137 0.42433   -0.066454
 C 0.2312 0.586 0.49591   -0.122316
 C 0.9442 0.4554 0.48215   0.044043
 C 0.6382 0.0883 0.43838   -0.075497
 C 0.5657 0.1771 0.33459   0.718326
 C 0.1675 0.941 0.90451   -0.046161
 C 0.3257 0.5424 0.90306   -0.152941
 C 0.2591 0.5831 0.84209   0.6953
 C 0.217 0.0048 0.95862   -0.142663
 C 0.986 0.8938 0.89411   -0.145019
 C 0.0907 0.024 0.00492   0.043317
 C 0.2114 0.456 0.94053   -0.039463
 C 0.4931 0.5863 0.92433   -0.066454
 C 0.2688 0.414 0.99591   -0.122316
 C 0.5558 0.5446 0.98215   0.044043
 C 0.8618 0.9117 0.93838   -0.075497
 C 0.9343 0.8229 0.83459   0.718326
 O 0.8648 0.64742 0.69632   -0.678208
 O 0.5984 0.55448 0.67149   -0.577395
 O 0.5516 0.81905 0.70607   -0.601761
 O 0.2739 0.77418 0.66993   -0.62493
 O 0.6352 0.35258 0.19632   -0.678208
 O 0.9016 0.44552 0.17149   -0.577395
 O 0.9484 0.18095 0.20607   -0.601761
 O 0.2261 0.22582 0.16993   -0.62493
 O 0.1352 0.35258 0.30368   -0.678208
 O 0.4016 0.44552 0.32851   -0.577395
 O 0.4484 0.18095 0.29393   -0.601761
 O 0.7261 0.22582 0.33007   -0.62493
 O 0.3648 0.64742 0.80368   -0.678208
 O 0.0984 0.55448 0.82851   -0.577395
 O 0.0516 0.81905 0.79393   -0.601761
 O 0.7739 0.77418 0.83007   -0.62493
