{'_ref': 'TBD', '_srcid': 'CAKYAQ_clean', 'submitters': [{'name': 'Dalar Nazarian Jeff Camp and David Sholl', 'email': 'dalar@gatech.edu jcamp6@gatech.edu'}], '_method': 'VASP DFT with PBE;DDEC'}
data_UZnH2(CO)12
_symmetry_space_group_name_H-M   'P 1'
_cell_length_a   6.30570048
_cell_length_b   8.35290021
_cell_length_c   9.10640000
_cell_angle_alpha   98.19999826
_cell_angle_beta   91.28000015
_cell_angle_gamma   103.20000080
_symmetry_Int_Tables_number   1
_chemical_formula_structural   UZnH2(CO)12
_chemical_formula_sum   'U1 Zn1 H2 C12 O12'
_cell_volume   461.444372735
_cell_formula_units_Z   1
loop_
 _symmetry_equiv_pos_site_id
 _symmetry_equiv_pos_as_xyz
  1  'x, y, z'
loop_
 _atom_site_label
 _atom_site_fract_x
 _atom_site_fract_y
 _atom_site_fract_z
 _atom_site_charge
 U 0.5 0.5 0.0   2.097777
 Zn 0.0 0.5 0.5   0.614506
 H 0.593 0.958 0.255   0.429386
 H 0.407 0.042 0.745   0.429386
 C 0.1322 0.2912 0.2296   0.734356
 C 0.0603 0.1368 0.1127   -0.127099
 C 0.7735 0.269 0.0184   0.647252
 C 0.3497 0.0207 0.219   0.648937
 C 0.1713 0.0092 0.1031   -0.097723
 C 0.8883 0.1278 0.0104   -0.050808
 C 0.8678 0.7088 0.7704   0.734357
 C 0.9397 0.8632 0.8873   -0.127109
 C 0.2265 0.731 0.9816   0.64725
 C 0.6503 0.9793 0.781   0.648934
 C 0.8287 0.9908 0.8969   -0.097692
 C 0.1117 0.8722 0.9896   -0.050776
 O 0.3518 0.0995 0.3425   -0.494099
 O 0.02 0.2991 0.34065   -0.533124
 O 0.4951 0.9394 0.1753   -0.527606
 O 0.2926 0.40182 0.20554   -0.682234
 O 0.6457 0.2902 0.11866   -0.636132
 O 0.8072 0.3654 0.92294   -0.667266
 O 0.6482 0.9005 0.6575   -0.4941
 O 0.98 0.7009 0.65935   -0.533124
 O 0.5049 0.0606 0.8247   -0.527606
 O 0.7074 0.59818 0.79446   -0.682238
 O 0.3543 0.7098 0.88134   -0.636132
 O 0.1928 0.6346 0.07706   -0.667274
