{'_ref': 'TBD', '_srcid': 'CAKYAQ_clean', 'submitters': [{'name': 'Dalar Nazarian Jeff Camp and David Sholl', 'email': 'dalar@gatech.edu jcamp6@gatech.edu'}], '_method': 'VASP DFT with PBE;DDEC'}
data_U3H12(C3O2)8
_symmetry_space_group_name_H-M   'P 1'
_cell_length_a   15.21349958
_cell_length_b   15.21350017
_cell_length_c   15.21350000
_cell_angle_alpha   60.00000037
_cell_angle_beta   59.99999910
_cell_angle_gamma   60.00000067
_symmetry_Int_Tables_number   1
_chemical_formula_structural   U3H12(C3O2)8
_chemical_formula_sum   'U6 H24 C48 O32'
_cell_volume   2489.84557478
_cell_formula_units_Z   2
loop_
 _symmetry_equiv_pos_site_id
 _symmetry_equiv_pos_as_xyz
  1  'x, y, z'
loop_
 _atom_site_label
 _atom_site_fract_x
 _atom_site_fract_y
 _atom_site_fract_z
 _atom_site_charge
 U 0.87399 0.87399 0.12601   2.919206
 U 0.12601 0.12601 0.87399   2.919206
 U 0.87399 0.12601 0.12601   2.919207
 U 0.12601 0.87399 0.87399   2.919207
 U 0.87399 0.12601 0.87399   2.919208
 U 0.12601 0.87399 0.12601   2.919208
 H 0.86432 0.5783 0.4217   0.118106
 H 0.5783 0.86432 0.13568   0.118076
 H 0.4217 0.13568 0.86432   0.118076
 H 0.13568 0.4217 0.5783   0.118106
 H 0.86432 0.4217 0.13568   0.118106
 H 0.5783 0.13568 0.4217   0.118076
 H 0.4217 0.86432 0.5783   0.118076
 H 0.13568 0.5783 0.86432   0.118106
 H 0.86432 0.13568 0.5783   0.118091
 H 0.5783 0.4217 0.86432   0.118077
 H 0.4217 0.5783 0.13568   0.118077
 H 0.13568 0.86432 0.4217   0.118091
 H 0.4217 0.13568 0.5783   0.118079
 H 0.13568 0.4217 0.86432   0.118109
 H 0.86432 0.5783 0.13568   0.118109
 H 0.5783 0.86432 0.4217   0.118079
 H 0.5783 0.13568 0.86432   0.118079
 H 0.86432 0.4217 0.5783   0.118108
 H 0.13568 0.5783 0.4217   0.118108
 H 0.4217 0.86432 0.13568   0.118079
 H 0.86432 0.13568 0.4217   0.118093
 H 0.5783 0.4217 0.13568   0.11808
 H 0.4217 0.5783 0.86432   0.11808
 H 0.13568 0.86432 0.5783   0.118093
 C 0.9187 0.5463 0.4537   -0.061477
 C 0.5463 0.9187 0.0813   -0.061448
 C 0.4537 0.0813 0.9187   -0.061448
 C 0.0813 0.4537 0.5463   -0.061477
 C 0.9187 0.4537 0.0813   -0.061477
 C 0.5463 0.0813 0.4537   -0.061448
 C 0.4537 0.9187 0.5463   -0.061448
 C 0.0813 0.5463 0.9187   -0.061477
 C 0.9187 0.0813 0.5463   -0.061462
 C 0.5463 0.4537 0.9187   -0.061449
 C 0.4537 0.5463 0.0813   -0.061449
 C 0.0813 0.9187 0.4537   -0.061462
 C 0.4537 0.0813 0.5463   -0.06146
 C 0.0813 0.4537 0.9187   -0.061489
 C 0.9187 0.5463 0.0813   -0.061489
 C 0.5463 0.9187 0.4537   -0.06146
 C 0.5463 0.0813 0.9187   -0.06146
 C 0.9187 0.4537 0.5463   -0.061489
 C 0.0813 0.5463 0.4537   -0.061489
 C 0.4537 0.9187 0.0813   -0.06146
 C 0.9187 0.0813 0.4537   -0.061474
 C 0.5463 0.4537 0.0813   -0.061461
 C 0.4537 0.5463 0.9187   -0.061461
 C 0.0813 0.9187 0.5463   -0.061474
 C 0.0 0.6902 0.3098   0.80541
 C 0.0 0.5916 0.4084   -0.14176
 C 0.6902 0.0 0.0   0.805409
 C 0.5916 0.0 0.0   -0.141758
 C 0.3098 0.0 0.0   0.805409
 C 0.4084 0.0 0.0   -0.141758
 C 0.0 0.3098 0.6902   0.80541
 C 0.0 0.4084 0.5916   -0.14176
 C 0.0 0.3098 0.0   0.80541
 C 0.0 0.4084 0.0   -0.141759
 C 0.6902 0.0 0.3098   0.805409
 C 0.5916 0.0 0.4084   -0.141759
 C 0.3098 0.0 0.6902   0.805409
 C 0.4084 0.0 0.5916   -0.141759
 C 0.0 0.6902 0.0   0.80541
 C 0.0 0.5916 0.0   -0.141759
 C 0.0 0.0 0.6902   0.805409
 C 0.0 0.0 0.5916   -0.141759
 C 0.6902 0.3098 0.0   0.805409
 C 0.5916 0.4084 0.0   -0.141759
 C 0.3098 0.6902 0.0   0.805409
 C 0.4084 0.5916 0.0   -0.141759
 C 0.0 0.0 0.3098   0.805409
 C 0.0 0.0 0.4084   -0.141759
 O 0.9253 0.7271 0.2729   -0.711243
 O 0.7271 0.9253 0.0747   -0.711242
 O 0.2729 0.0747 0.9253   -0.711242
 O 0.0747 0.2729 0.7271   -0.711243
 O 0.9253 0.2729 0.0747   -0.711243
 O 0.7271 0.0747 0.2729   -0.711242
 O 0.2729 0.9253 0.7271   -0.711242
 O 0.0747 0.7271 0.9253   -0.711243
 O 0.9253 0.0747 0.7271   -0.711243
 O 0.7271 0.2729 0.9253   -0.711242
 O 0.2729 0.7271 0.0747   -0.711242
 O 0.0747 0.9253 0.2729   -0.711243
 O 0.2729 0.0747 0.7271   -0.711242
 O 0.0747 0.2729 0.9253   -0.711243
 O 0.9253 0.7271 0.0747   -0.711243
 O 0.7271 0.9253 0.2729   -0.711242
 O 0.7271 0.0747 0.9253   -0.711242
 O 0.9253 0.2729 0.7271   -0.711243
 O 0.0747 0.7271 0.2729   -0.711243
 O 0.2729 0.9253 0.0747   -0.711242
 O 0.9253 0.0747 0.2729   -0.711243
 O 0.7271 0.2729 0.0747   -0.711242
 O 0.2729 0.7271 0.9253   -0.711242
 O 0.0747 0.9253 0.7271   -0.711243
 O 0.8197 0.0601 0.0601   -1.221025
 O 0.0601 0.8197 0.0601   -1.221025
 O 0.0601 0.0601 0.8197   -1.221025
 O 0.0601 0.0601 0.0601   -1.221025
 O 0.9399 0.1803 0.9399   -1.221025
 O 0.1803 0.9399 0.9399   -1.221025
 O 0.9399 0.9399 0.1803   -1.221025
 O 0.9399 0.9399 0.9399   -1.221025
