{'_ref': 'TBD', '_srcid': 'CAKYAQ_clean', 'submitters': [{'name': 'Dalar Nazarian Jeff Camp and David Sholl', 'email': 'dalar@gatech.edu jcamp6@gatech.edu'}], '_method': 'VASP DFT with PBE;DDEC'}
data_Zn4H6C24O13
_symmetry_space_group_name_H-M   'P 1'
_cell_length_a   18.20160001
_cell_length_b   18.20159977
_cell_length_c   18.20160000
_cell_angle_alpha   59.99999958
_cell_angle_beta   60.00000002
_cell_angle_gamma   60.00000062
_symmetry_Int_Tables_number   1
_chemical_formula_structural   Zn4H6C24O13
_chemical_formula_sum   'Zn8 H12 C48 O26'
_cell_volume   4263.96563313
_cell_formula_units_Z   2
loop_
 _symmetry_equiv_pos_site_id
 _symmetry_equiv_pos_as_xyz
  1  'x, y, z'
loop_
 _atom_site_label
 _atom_site_fract_x
 _atom_site_fract_y
 _atom_site_fract_z
 _atom_site_charge
 Zn 0.54338 0.36986 0.54338   1.162115
 Zn 0.36986 0.54338 0.54338   1.162115
 Zn 0.54338 0.54338 0.54338   1.162112
 Zn 0.54338 0.54338 0.36986   1.162115
 Zn 0.13029 0.95657 0.95657   1.14303
 Zn 0.95657 0.13029 0.95657   1.14303
 Zn 0.95657 0.95657 0.13029   1.14303
 Zn 0.95657 0.95657 0.95657   1.143029
 H 0.3148 0.0968 0.7942   0.16344
 H 0.0968 0.3148 0.7942   0.16344
 H 0.7942 0.7942 0.3148   0.16344
 H 0.7942 0.7942 0.0968   0.163439
 H 0.3148 0.7942 0.7942   0.163439
 H 0.0968 0.7942 0.7942   0.163438
 H 0.7942 0.3148 0.0968   0.163438
 H 0.7942 0.0968 0.3148   0.163438
 H 0.3148 0.7942 0.0968   0.163437
 H 0.0968 0.7942 0.3148   0.163437
 H 0.7942 0.0968 0.7942   0.163437
 H 0.7942 0.3148 0.7942   0.163437
 C 0.3305 0.2125 0.7285   0.017937
 C 0.2881 0.1589 0.7765   -0.114313
 C 0.2125 0.3305 0.7285   0.017937
 C 0.1589 0.2881 0.7765   -0.114313
 C 0.7285 0.7285 0.3305   0.017939
 C 0.7765 0.7765 0.2881   -0.114313
 C 0.7285 0.7285 0.2125   0.017938
 C 0.7765 0.7765 0.1589   -0.114313
 C 0.3305 0.7285 0.7285   0.017938
 C 0.2881 0.7765 0.7765   -0.114313
 C 0.2125 0.7285 0.7285   0.017938
 C 0.1589 0.7765 0.7765   -0.114313
 C 0.7285 0.3305 0.2125   0.017937
 C 0.7765 0.2881 0.1589   -0.114313
 C 0.7285 0.2125 0.3305   0.017937
 C 0.7765 0.1589 0.2881   -0.114312
 C 0.3305 0.7285 0.2125   0.017937
 C 0.2881 0.7765 0.1589   -0.114312
 C 0.2125 0.7285 0.3305   0.017937
 C 0.1589 0.7765 0.2881   -0.114312
 C 0.7285 0.2125 0.7285   0.017938
 C 0.7765 0.1589 0.7765   -0.114312
 C 0.7285 0.3305 0.7285   0.017938
 C 0.7765 0.2881 0.7765   -0.114313
 C 0.3049 0.3049 0.6951   -0.16233
 C 0.2007 0.2007 0.7993   0.014829
 C 0.1393 0.1393 0.8607   0.616444
 C 0.3617 0.3617 0.6383   0.804851
 C 0.6951 0.6951 0.3049   -0.162331
 C 0.7993 0.7993 0.2007   0.014829
 C 0.8607 0.8607 0.1393   0.616453
 C 0.6383 0.6383 0.3617   0.804851
 C 0.3049 0.6951 0.6951   -0.162331
 C 0.2007 0.7993 0.7993   0.014829
 C 0.1393 0.8607 0.8607   0.61644
 C 0.3617 0.6383 0.6383   0.804851
 C 0.6951 0.3049 0.3049   -0.16233
 C 0.7993 0.2007 0.2007   0.014829
 C 0.8607 0.1393 0.1393   0.61644
 C 0.6383 0.3617 0.3617   0.804851
 C 0.3049 0.6951 0.3049   -0.16233
 C 0.2007 0.7993 0.2007   0.014829
 C 0.1393 0.8607 0.1393   0.61644
 C 0.3617 0.6383 0.3617   0.804852
 C 0.6951 0.3049 0.6951   -0.162331
 C 0.7993 0.2007 0.7993   0.014829
 C 0.8607 0.1393 0.8607   0.61644
 C 0.6383 0.3617 0.6383   0.804852
 O 0.1785 0.0517 0.8849   -0.610604
 O 0.4415 0.3247 0.6169   -0.644068
 O 0.0517 0.1785 0.8849   -0.610599
 O 0.3247 0.4415 0.6169   -0.644068
 O 0.8849 0.8849 0.1785   -0.610606
 O 0.6169 0.6169 0.4415   -0.644067
 O 0.8849 0.8849 0.0517   -0.610606
 O 0.6169 0.6169 0.3247   -0.644068
 O 0.1785 0.8849 0.8849   -0.6106
 O 0.4415 0.6169 0.6169   -0.644067
 O 0.0517 0.8849 0.8849   -0.610597
 O 0.3247 0.6169 0.6169   -0.644068
 O 0.8849 0.1785 0.0517   -0.610598
 O 0.6169 0.4415 0.3247   -0.644068
 O 0.8849 0.0517 0.1785   -0.6106
 O 0.6169 0.3247 0.4415   -0.644068
 O 0.1785 0.8849 0.0517   -0.6106
 O 0.4415 0.6169 0.3247   -0.644068
 O 0.0517 0.8849 0.1785   -0.610598
 O 0.3247 0.6169 0.4415   -0.644068
 O 0.8849 0.0517 0.8849   -0.6106
 O 0.6169 0.3247 0.6169   -0.644068
 O 0.8849 0.1785 0.8849   -0.610598
 O 0.6169 0.4415 0.6169   -0.644067
 O 0.0 0.0 0.0   -1.301013
 O 0.5 0.5 0.5   -1.311059
