{'_ref': 'TBD', '_srcid': 'CAKYAQ_clean', 'submitters': [{'name': 'Dalar Nazarian Jeff Camp and David Sholl', 'email': 'dalar@gatech.edu jcamp6@gatech.edu'}], '_method': 'VASP DFT with PBE;DDEC'}
data_Zn4H12C24O13
_symmetry_space_group_name_H-M   'P 1'
_cell_length_a   18.08970022
_cell_length_b   18.08969996
_cell_length_c   18.08970000
_cell_angle_alpha   59.99999992
_cell_angle_beta   60.00000040
_cell_angle_gamma   59.99999873
_symmetry_Int_Tables_number   1
_chemical_formula_structural   Zn4H12C24O13
_chemical_formula_sum   'Zn8 H24 C48 O26'
_cell_volume   4185.80600808
_cell_formula_units_Z   2
loop_
 _symmetry_equiv_pos_site_id
 _symmetry_equiv_pos_as_xyz
  1  'x, y, z'
loop_
 _atom_site_label
 _atom_site_fract_x
 _atom_site_fract_y
 _atom_site_fract_z
 _atom_site_charge
 Zn 0.3811 0.2063 0.2063   1.121752
 Zn 0.2063 0.3811 0.2063   1.121752
 Zn 0.2063 0.2063 0.3811   1.121753
 Zn 0.2063 0.2063 0.2063   1.121752
 Zn 0.7937 0.6189 0.7937   1.121753
 Zn 0.6189 0.7937 0.7937   1.121753
 Zn 0.7937 0.7937 0.6189   1.121753
 Zn 0.7937 0.7937 0.7937   1.121753
 H 0.352 0.0424 0.5632   0.08829
 H 0.0424 0.352 0.0424   0.088291
 H 0.5632 0.0424 0.352   0.08829
 H 0.0424 0.5632 0.0424   0.088291
 H 0.352 0.5632 0.0424   0.08829
 H 0.0424 0.0424 0.5632   0.08829
 H 0.5632 0.352 0.0424   0.08829
 H 0.0424 0.0424 0.352   0.08829
 H 0.352 0.0424 0.0424   0.08829
 H 0.0424 0.5632 0.352   0.088289
 H 0.5632 0.0424 0.0424   0.088289
 H 0.0424 0.352 0.5632   0.088289
 H 0.9576 0.648 0.4368   0.088282
 H 0.648 0.9576 0.9576   0.088282
 H 0.9576 0.4368 0.648   0.088282
 H 0.4368 0.9576 0.9576   0.088282
 H 0.4368 0.648 0.9576   0.088281
 H 0.9576 0.9576 0.4368   0.088281
 H 0.648 0.4368 0.9576   0.088281
 H 0.9576 0.9576 0.648   0.088281
 H 0.9576 0.648 0.9576   0.088281
 H 0.4368 0.9576 0.648   0.08828
 H 0.9576 0.4368 0.9576   0.08828
 H 0.648 0.9576 0.4368   0.08828
 C 0.4143 0.0259 0.5339   -0.051851
 C 0.0259 0.4143 0.0259   -0.051851
 C 0.5339 0.0259 0.4143   -0.051852
 C 0.0259 0.5339 0.0259   -0.051851
 C 0.4143 0.5339 0.0259   -0.051851
 C 0.0259 0.0259 0.5339   -0.051851
 C 0.5339 0.4143 0.0259   -0.051851
 C 0.0259 0.0259 0.4143   -0.051852
 C 0.4143 0.0259 0.0259   -0.051851
 C 0.0259 0.5339 0.4143   -0.051851
 C 0.5339 0.0259 0.0259   -0.051851
 C 0.0259 0.4143 0.5339   -0.051851
 C 0.9741 0.5857 0.4661   -0.051788
 C 0.5857 0.9741 0.9741   -0.051788
 C 0.9741 0.4661 0.5857   -0.051788
 C 0.4661 0.9741 0.9741   -0.051788
 C 0.4661 0.5857 0.9741   -0.051787
 C 0.9741 0.9741 0.4661   -0.051787
 C 0.5857 0.4661 0.9741   -0.051788
 C 0.9741 0.9741 0.5857   -0.051788
 C 0.9741 0.5857 0.9741   -0.051788
 C 0.4661 0.9741 0.5857   -0.051788
 C 0.9741 0.4661 0.9741   -0.051788
 C 0.5857 0.9741 0.4661   -0.051788
 C 0.3858 0.1142 0.3858   0.72317
 C 0.4434 0.0566 0.4434   -0.114061
 C 0.1142 0.3858 0.1142   0.72317
 C 0.0566 0.4434 0.0566   -0.114062
 C 0.3858 0.3858 0.1142   0.72317
 C 0.4434 0.4434 0.0566   -0.114062
 C 0.1142 0.1142 0.3858   0.723171
 C 0.0566 0.0566 0.4434   -0.114062
 C 0.3858 0.1142 0.1142   0.723171
 C 0.4434 0.0566 0.0566   -0.114062
 C 0.1142 0.3858 0.3858   0.723171
 C 0.0566 0.4434 0.4434   -0.114062
 C 0.8858 0.6142 0.6142   0.723174
 C 0.9434 0.5566 0.5566   -0.114087
 C 0.6142 0.8858 0.8858   0.723174
 C 0.5566 0.9434 0.9434   -0.114087
 C 0.6142 0.6142 0.8858   0.723175
 C 0.5566 0.5566 0.9434   -0.114087
 C 0.8858 0.8858 0.6142   0.723175
 C 0.9434 0.9434 0.5566   -0.114087
 C 0.8858 0.6142 0.8858   0.723175
 C 0.9434 0.5566 0.9434   -0.114087
 C 0.6142 0.8858 0.6142   0.723175
 C 0.5566 0.9434 0.5566   -0.114087
 O 0.25 0.25 0.25   -1.313107
 O 0.75 0.75 0.75   -1.313107
 O 0.4261 0.1357 0.3025   -0.605507
 O 0.1357 0.4261 0.1357   -0.605507
 O 0.3025 0.1357 0.4261   -0.605507
 O 0.1357 0.3025 0.1357   -0.605506
 O 0.4261 0.3025 0.1357   -0.605507
 O 0.1357 0.1357 0.3025   -0.605506
 O 0.3025 0.4261 0.1357   -0.605507
 O 0.1357 0.1357 0.4261   -0.605507
 O 0.4261 0.1357 0.1357   -0.605507
 O 0.1357 0.3025 0.4261   -0.605507
 O 0.3025 0.1357 0.1357   -0.605506
 O 0.1357 0.4261 0.3025   -0.605507
 O 0.8643 0.5739 0.6975   -0.605507
 O 0.5739 0.8643 0.8643   -0.605508
 O 0.8643 0.6975 0.5739   -0.605508
 O 0.6975 0.8643 0.8643   -0.605507
 O 0.6975 0.5739 0.8643   -0.605507
 O 0.8643 0.8643 0.6975   -0.605507
 O 0.5739 0.6975 0.8643   -0.605507
 O 0.8643 0.8643 0.5739   -0.605508
 O 0.8643 0.5739 0.8643   -0.605508
 O 0.6975 0.8643 0.5739   -0.605508
 O 0.8643 0.6975 0.8643   -0.605507
 O 0.5739 0.8643 0.6975   -0.605508
