{'_ref': 'TBD', '_srcid': 'CAKYAQ_clean', 'submitters': [{'name': 'Dalar Nazarian Jeff Camp and David Sholl', 'email': 'dalar@gatech.edu jcamp6@gatech.edu'}], '_method': 'VASP DFT with PBE;DDEC'}
data_NiH15C18N7O3
_symmetry_space_group_name_H-M   'P 1'
_cell_length_a   14.99760000
_cell_length_b   16.31809989
_cell_length_c   19.69170000
_cell_angle_alpha   98.36000035
_cell_angle_beta   90.00000000
_cell_angle_gamma   90.00000000
_symmetry_Int_Tables_number   1
_chemical_formula_structural   NiH15C18N7O3
_chemical_formula_sum   'Ni8 H120 C144 N56 O24'
_cell_volume   4767.98731168
_cell_formula_units_Z   8
loop_
 _symmetry_equiv_pos_site_id
 _symmetry_equiv_pos_as_xyz
  1  'x, y, z'
loop_
 _atom_site_label
 _atom_site_fract_x
 _atom_site_fract_y
 _atom_site_fract_z
 _atom_site_charge
 Ni 0.74339 0.87905 0.75686   0.259816
 Ni 0.74432 0.37515 0.23925   0.293923
 Ni 0.24339 0.12095 0.74314   0.259816
 Ni 0.24432 0.62485 0.26075   0.293923
 Ni 0.25661 0.12095 0.24314   0.259816
 Ni 0.25568 0.62485 0.76075   0.293923
 Ni 0.75661 0.87905 0.25686   0.259816
 Ni 0.75568 0.37515 0.73925   0.293923
 H 0.7577 0.0069 0.6576   0.065767
 H 0.7659 0.009 0.5407   0.123121
 H 0.7685 0.8833 0.4657   0.107336
 H 0.7677 0.7627 0.6296   0.102196
 H 0.7799 0.7272 0.4485   0.058014
 H 0.7844 0.5302 0.5453   0.063609
 H 0.7775 0.2488 0.3369   0.062837
 H 0.7821 0.2479 0.4536   0.120188
 H 0.7834 0.3731 0.528   0.106485
 H 0.7874 0.4932 0.3631   0.103201
 H 0.9186 0.8222 0.6863   0.082889
 H 0.0702 0.8219 0.7096   0.109609
 H 0.1233 0.8749 0.8179   0.091796
 H 0.8692 0.9356 0.8727   0.070626
 H 0.0909 0.9388 0.9391   0.052162
 H 0.5666 0.3328 0.1801   0.078421
 H 0.4143 0.336 0.205   0.122
 H 0.3665 0.382 0.3156   0.103111
 H 0.6244 0.4361 0.3676   0.065066
 H 0.4061 0.4448 0.4393   0.065276
 H 0.5756 0.9266 0.8392   0.078437
 H 0.4234 0.9288 0.8276   0.107198
 H 0.3561 0.8785 0.7234   0.089282
 H 0.6028 0.8204 0.6482   0.062663
 H 0.3783 0.8185 0.5951   0.056194
 H 0.5632 0.6992 0.4736   0.061482
 H 0.4313 0.5821 0.2097   0.07781
 H 0.5783 0.5912 0.2449   0.125316
 H 0.6113 0.6422 0.3576   0.104778
 H 0.3481 0.6812 0.392   0.071522
 H 0.2577 0.9931 0.8424   0.065768
 H 0.2659 0.991 0.9593   0.123121
 H 0.2685 0.1167 0.0343   0.107336
 H 0.2677 0.2373 0.8704   0.102196
 H 0.2799 0.2728 0.0515   0.058014
 H 0.2844 0.4698 0.9547   0.063609
 H 0.2775 0.7512 0.1631   0.062837
 H 0.2821 0.7521 0.0464   0.120188
 H 0.2834 0.6269 0.972   0.106485
 H 0.2874 0.5068 0.1369   0.103201
 H 0.4186 0.1778 0.8137   0.082889
 H 0.5702 0.1781 0.7904   0.109609
 H 0.6233 0.1251 0.6821   0.091797
 H 0.3692 0.0644 0.6273   0.070626
 H 0.5909 0.0612 0.5609   0.052162
 H 0.0666 0.6672 0.3199   0.078421
 H 0.9143 0.664 0.295   0.122
 H 0.8665 0.618 0.1844   0.103111
 H 0.1244 0.5639 0.1324   0.065066
 H 0.9061 0.5552 0.0607   0.065276
 H 0.0756 0.0734 0.6608   0.078437
 H 0.9234 0.0712 0.6724   0.107197
 H 0.8561 0.1215 0.7766   0.089282
 H 0.1028 0.1796 0.8518   0.062663
 H 0.8783 0.1815 0.9049   0.056194
 H 0.0632 0.3008 0.0264   0.061482
 H 0.9313 0.4179 0.2903   0.07781
 H 0.0783 0.4088 0.2551   0.125316
 H 0.1113 0.3578 0.1424   0.104778
 H 0.8481 0.3188 0.108   0.071522
 H 0.2423 0.9931 0.3424   0.065767
 H 0.2341 0.991 0.4593   0.123121
 H 0.2315 0.1167 0.5343   0.107335
 H 0.2323 0.2373 0.3704   0.102196
 H 0.2201 0.2728 0.5515   0.058014
 H 0.2156 0.4698 0.4547   0.063609
 H 0.2225 0.7512 0.6631   0.062838
 H 0.2179 0.7521 0.5464   0.120188
 H 0.2166 0.6269 0.472   0.106485
 H 0.2126 0.5068 0.6369   0.103201
 H 0.0814 0.1778 0.3137   0.082889
 H 0.9298 0.1781 0.2904   0.109609
 H 0.8767 0.1251 0.1821   0.091797
 H 0.1308 0.0644 0.1273   0.070626
 H 0.9091 0.0612 0.0609   0.052162
 H 0.4334 0.6672 0.8199   0.078421
 H 0.5857 0.664 0.795   0.122
 H 0.6335 0.618 0.6844   0.103111
 H 0.3756 0.5639 0.6324   0.065066
 H 0.5939 0.5552 0.5607   0.065276
 H 0.4244 0.0734 0.1608   0.078436
 H 0.5766 0.0712 0.1724   0.107198
 H 0.6439 0.1215 0.2766   0.089283
 H 0.3972 0.1796 0.3518   0.062663
 H 0.6217 0.1815 0.4049   0.056194
 H 0.4368 0.3008 0.5264   0.061482
 H 0.5687 0.4179 0.7903   0.07781
 H 0.4217 0.4088 0.7551   0.125316
 H 0.3887 0.3578 0.6424   0.104778
 H 0.6519 0.3188 0.608   0.071522
 H 0.7423 0.0069 0.1576   0.065768
 H 0.7341 0.009 0.0407   0.12312
 H 0.7315 0.8833 0.9657   0.107335
 H 0.7323 0.7627 0.1296   0.102196
 H 0.7201 0.7272 0.9485   0.058014
 H 0.7156 0.5302 0.0453   0.063609
 H 0.7225 0.2488 0.8369   0.062838
 H 0.7179 0.2479 0.9536   0.120188
 H 0.7166 0.3731 0.028   0.106485
 H 0.7126 0.4932 0.8631   0.103201
 H 0.5814 0.8222 0.1863   0.082889
 H 0.4298 0.8219 0.2096   0.109609
 H 0.3767 0.8749 0.3179   0.091797
 H 0.6308 0.9356 0.3727   0.070626
 H 0.4091 0.9388 0.4391   0.052162
 H 0.9334 0.3328 0.6801   0.078421
 H 0.0857 0.336 0.705   0.122
 H 0.1335 0.382 0.8156   0.103111
 H 0.8756 0.4361 0.8676   0.065066
 H 0.0939 0.4448 0.9393   0.065276
 H 0.9244 0.9266 0.3392   0.078436
 H 0.0766 0.9288 0.3276   0.107197
 H 0.1439 0.8785 0.2234   0.089283
 H 0.8972 0.8204 0.1482   0.062663
 H 0.1217 0.8185 0.0951   0.056194
 H 0.9368 0.6992 0.9736   0.061482
 H 0.0687 0.5821 0.7097   0.077811
 H 0.9217 0.5912 0.7449   0.125316
 H 0.8887 0.6422 0.8576   0.104778
 H 0.1519 0.6812 0.892   0.071522
 C 0.7609 0.9559 0.6274   0.090798
 C 0.7647 0.9577 0.5581   -0.176329
 C 0.7669 0.8836 0.5139   -0.015996
 C 0.7667 0.81 0.5409   -0.076536
 C 0.7655 0.8132 0.6109   0.117859
 C 0.7693 0.7294 0.4963   0.151604
 C 0.7768 0.5273 0.4971   0.158429
 C 0.7793 0.3001 0.3667   0.098908
 C 0.7814 0.299 0.436   -0.169556
 C 0.7823 0.3726 0.4797   -0.004155
 C 0.7817 0.4465 0.4521   -0.080447
 C 0.7835 0.443 0.382   0.120998
 C 0.9395 0.8463 0.7303   0.110503
 C 0.0298 0.845 0.7444   -0.16673
 C 0.0615 0.8766 0.8077   -0.031648
 C 0.000999999999998 0.9114 0.8567   -0.086893
 C 0.9108 0.9119 0.8391   0.127832
 C 0.0309 0.9466 0.926   0.15758
 C 0.5474 0.3545 0.2251   0.114526
 C 0.4562 0.3552 0.2399   -0.15257
 C 0.428 0.3835 0.3044   0.012228
 C 0.4906 0.415 0.3544   -0.106209
 C 0.5811 0.414 0.3348   0.139604
 C 0.4662 0.4501 0.4253   0.187907
 C 0.5499 0.9049 0.7962   0.101259
 C 0.459 0.9065 0.7895   -0.1633
 C 0.419 0.8766 0.7287   -0.039958
 C 0.4736 0.8432 0.6747   -0.077386
 C 0.5655 0.8433 0.6852   0.138948
 C 0.4386 0.8091 0.6066   0.142239
 C 0.5036 0.7036 0.4581   0.197076
 C 0.4443 0.605 0.2558   0.123308
 C 0.532 0.6093 0.2764   -0.151361
 C 0.5512 0.6398 0.3422   0.007621
 C 0.4827 0.6677 0.3876   -0.107638
 C 0.3957 0.6621 0.362   0.124458
 C 0.2609 0.0441 0.8726   0.090797
 C 0.2647 0.0423 0.9419   -0.176328
 C 0.2669 0.1164 0.9861   -0.015996
 C 0.2667 0.19 0.9591   -0.076536
 C 0.2655 0.1868 0.8891   0.117859
 C 0.2693 0.2706 0.0037   0.151604
 C 0.2768 0.4727 0.0029   0.158429
 C 0.2793 0.6999 0.1333   0.098908
 C 0.2814 0.701 0.064   -0.169556
 C 0.2823 0.6274 0.0203   -0.004155
 C 0.2817 0.5535 0.0479   -0.080447
 C 0.2835 0.557 0.118   0.120998
 C 0.4395 0.1537 0.7697   0.110503
 C 0.5298 0.155 0.7556   -0.16673
 C 0.5615 0.1234 0.6923   -0.031648
 C 0.501 0.0886 0.6433   -0.086893
 C 0.4108 0.0881 0.6609   0.127832
 C 0.5309 0.0534 0.574   0.15758
 C 0.0474 0.6455 0.2749   0.114526
 C 0.9562 0.6448 0.2601   -0.15257
 C 0.928 0.6165 0.1956   0.012228
 C 0.9906 0.585 0.1456   -0.106209
 C 0.0811 0.586 0.1652   0.139604
 C 0.9662 0.5499 0.0747   0.187907
 C 0.0499 0.0951 0.7038   0.101259
 C 0.959 0.0935 0.7105   -0.1633
 C 0.919 0.1234 0.7713   -0.039958
 C 0.9736 0.1568 0.8253   -0.077386
 C 0.0655 0.1567 0.8148   0.138948
 C 0.9386 0.1909 0.8934   0.142239
 C 0.0036 0.2964 0.0419   0.197076
 C 0.9443 0.395 0.2442   0.123308
 C 0.032 0.3907 0.2236   -0.151361
 C 0.0512 0.3602 0.1578   0.007621
 C 0.9827 0.3323 0.1124   -0.107638
 C 0.8957 0.3379 0.138   0.124458
 C 0.2391 0.0441 0.3726   0.090797
 C 0.2353 0.0423 0.4419   -0.176329
 C 0.2331 0.1164 0.4861   -0.015995
 C 0.2333 0.19 0.4591   -0.076536
 C 0.2345 0.1868 0.3891   0.117859
 C 0.2307 0.2706 0.5037   0.151604
 C 0.2232 0.4727 0.5029   0.158429
 C 0.2207 0.6999 0.6333   0.098908
 C 0.2186 0.701 0.564   -0.169556
 C 0.2177 0.6274 0.5203   -0.004155
 C 0.2183 0.5535 0.5479   -0.080447
 C 0.2165 0.557 0.618   0.120998
 C 0.0605 0.1537 0.2697   0.110503
 C 0.9702 0.155 0.2556   -0.16673
 C 0.9385 0.1234 0.1923   -0.031648
 C 0.999 0.0886 0.1433   -0.086893
 C 0.0892 0.0881 0.1609   0.127832
 C 0.9691 0.0534 0.074   0.15758
 C 0.4526 0.6455 0.7749   0.114526
 C 0.5438 0.6448 0.7601   -0.15257
 C 0.572 0.6165 0.6956   0.012228
 C 0.5094 0.585 0.6456   -0.106209
 C 0.4189 0.586 0.6652   0.139604
 C 0.5338 0.5499 0.5747   0.187906
 C 0.4501 0.0951 0.2038   0.101259
 C 0.541 0.0935 0.2105   -0.1633
 C 0.581 0.1234 0.2713   -0.039958
 C 0.5264 0.1568 0.3253   -0.077386
 C 0.4345 0.1567 0.3148   0.138948
 C 0.5614 0.1909 0.3934   0.142239
 C 0.4964 0.2964 0.5419   0.197076
 C 0.5557 0.395 0.7442   0.123308
 C 0.468 0.3907 0.7236   -0.151361
 C 0.4488 0.3602 0.6578   0.007621
 C 0.5173 0.3323 0.6124   -0.107638
 C 0.6043 0.3379 0.638   0.124458
 C 0.7391 0.9559 0.1274   0.090797
 C 0.7353 0.9577 0.0581   -0.176328
 C 0.7331 0.8836 0.0139   -0.015996
 C 0.7333 0.81 0.0409   -0.076536
 C 0.7345 0.8132 0.1109   0.117859
 C 0.7307 0.7294 0.9963   0.151604
 C 0.7232 0.5273 0.9971   0.158429
 C 0.7207 0.3001 0.8667   0.098908
 C 0.7186 0.299 0.936   -0.169556
 C 0.7177 0.3726 0.9797   -0.004155
 C 0.7183 0.4465 0.9521   -0.080447
 C 0.7165 0.443 0.882   0.120998
 C 0.5605 0.8463 0.2303   0.110503
 C 0.4702 0.845 0.2444   -0.16673
 C 0.4385 0.8766 0.3077   -0.031648
 C 0.499 0.9114 0.3567   -0.086893
 C 0.5892 0.9119 0.3391   0.127831
 C 0.4691 0.9466 0.426   0.157579
 C 0.9526 0.3545 0.7251   0.114526
 C 0.0438 0.3552 0.7399   -0.15257
 C 0.072 0.3835 0.8044   0.012228
 C 0.0094 0.415 0.8544   -0.106209
 C 0.9189 0.414 0.8348   0.139604
 C 0.0338 0.4501 0.9253   0.187906
 C 0.9501 0.9049 0.2962   0.101259
 C 0.041 0.9065 0.2895   -0.1633
 C 0.081 0.8766 0.2287   -0.039958
 C 0.0264 0.8432 0.1747   -0.077386
 C 0.9345 0.8433 0.1852   0.138948
 C 0.0614 0.8091 0.1066   0.142239
 C 0.9964 0.7036 0.9581   0.197076
 C 0.0557 0.605 0.7558   0.123308
 C 0.968 0.6093 0.7764   -0.151361
 C 0.9488 0.6398 0.8422   0.007621
 C 0.0173 0.6677 0.8876   -0.107638
 C 0.1043 0.6621 0.862   0.124458
 N 0.7613 0.885 0.6542   -0.222539
 N 0.7574 0.6626 0.5214   -0.221755
 N 0.7622 0.5926 0.4711   -0.223096
 N 0.7798 0.3707 0.3391   -0.240774
 N 0.8809 0.8808 0.7773   -0.248898
 N 0.9788 0.9866 0.9679   -0.260053
 N 0.6079 0.3829 0.2713   -0.267131
 N 0.52 0.4866 0.4682   -0.25202
 N 0.6037 0.874 0.7448   -0.249449
 N 0.489 0.7674 0.5638   -0.222515
 N 0.4482 0.7398 0.4996   -0.290525
 N 0.3765 0.6313 0.2975   -0.267471
 N 0.7376 0.7472 0.8079   0.763981
 N 0.7205 0.5045 0.1871   0.771752
 N 0.2613 0.115 0.8458   -0.222539
 N 0.2574 0.3374 0.9786   -0.221755
 N 0.2622 0.4074 0.0289   -0.223096
 N 0.2798 0.6293 0.1609   -0.240774
 N 0.3809 0.1192 0.7227   -0.248898
 N 0.4788 0.0134 0.5321   -0.260053
 N 0.1079 0.6171 0.2287   -0.267131
 N 0.02 0.5134 0.0318   -0.25202
 N 0.1037 0.126 0.7552   -0.249449
 N 0.989 0.2326 0.9362   -0.222515
 N 0.9482 0.2602 0.000399999999999   -0.290525
 N 0.8765 0.3687 0.2025   -0.267471
 N 0.2376 0.2528 0.6921   0.763981
 N 0.2205 0.4955 0.3129   0.771752
 N 0.2387 0.115 0.3458   -0.222539
 N 0.2426 0.3374 0.4786   -0.221755
 N 0.2378 0.4074 0.5289   -0.223096
 N 0.2202 0.6293 0.6609   -0.240774
 N 0.1191 0.1192 0.2227   -0.248898
 N 0.0212 0.0134 0.0321   -0.260049
 N 0.3921 0.6171 0.7287   -0.267131
 N 0.48 0.5134 0.5318   -0.252017
 N 0.3963 0.126 0.2552   -0.249449
 N 0.511 0.2326 0.4362   -0.222515
 N 0.5518 0.2602 0.5004   -0.290525
 N 0.6235 0.3687 0.7025   -0.267471
 N 0.2624 0.2528 0.1921   0.763981
 N 0.2795 0.4955 0.8129   0.771752
 N 0.7387 0.885 0.1542   -0.222539
 N 0.7426 0.6626 0.0214   -0.221755
 N 0.7378 0.5926 0.9711   -0.223096
 N 0.7202 0.3707 0.8391   -0.240774
 N 0.6191 0.8808 0.2773   -0.248898
 N 0.5212 0.9866 0.4679   -0.260049
 N 0.8921 0.3829 0.7713   -0.267131
 N 0.98 0.4866 0.9682   -0.252017
 N 0.8963 0.874 0.2448   -0.249449
 N 0.011 0.7674 0.0638   -0.222515
 N 0.0518 0.7398 0.9996   -0.290525
 N 0.1235 0.6313 0.7975   -0.267471
 N 0.7624 0.7472 0.3079   0.763981
 N 0.7795 0.5045 0.6871   0.771752
 O 0.7274 0.8179 0.84524   -0.448732
 O 0.7492 0.7498 0.74412   -0.405037
 O 0.737 0.6824 0.8315   -0.398446
 O 0.7484 0.5046 0.248   -0.40681
 O 0.7068 0.4337 0.15274   -0.447338
 O 0.7075 0.569 0.1632   -0.422251
 O 0.2274 0.1821 0.65476   -0.448732
 O 0.2492 0.2502 0.75588   -0.405037
 O 0.237 0.3176 0.6685   -0.398446
 O 0.2484 0.4954 0.252   -0.40681
 O 0.2068 0.5663 0.34726   -0.447338
 O 0.2075 0.431 0.3368   -0.422251
 O 0.2726 0.1821 0.15476   -0.448732
 O 0.2508 0.2502 0.25588   -0.405036
 O 0.263 0.3176 0.1685   -0.398446
 O 0.2516 0.4954 0.752   -0.40681
 O 0.2932 0.5663 0.84726   -0.447338
 O 0.2925 0.431 0.8368   -0.422251
 O 0.7726 0.8179 0.34524   -0.448732
 O 0.7508 0.7498 0.24412   -0.405036
 O 0.763 0.6824 0.3315   -0.398446
 O 0.7516 0.5046 0.748   -0.40681
 O 0.7932 0.4337 0.65274   -0.447338
 O 0.7925 0.569 0.6632   -0.422251
