{'_ref': 'TBD', '_srcid': 'CAKYAQ_clean', 'submitters': [{'name': 'Dalar Nazarian Jeff Camp and David Sholl', 'email': 'dalar@gatech.edu jcamp6@gatech.edu'}], '_method': 'VASP DFT with PBE;DDEC'}
data_Cu3H13C8(N3O)2
_symmetry_space_group_name_H-M   'P 1'
_cell_length_a   11.57329997
_cell_length_b   14.60660000
_cell_length_c   14.60660038
_cell_angle_alpha   113.28890001
_cell_angle_beta   105.31399843
_cell_angle_gamma   105.31420258
_symmetry_Int_Tables_number   1
_chemical_formula_structural   Cu3H13C8(N3O)2
_chemical_formula_sum   'Cu9 H39 C24 N18 O6'
_cell_volume   1989.2258353
_cell_formula_units_Z   3
loop_
 _symmetry_equiv_pos_site_id
 _symmetry_equiv_pos_as_xyz
  1  'x, y, z'
loop_
 _atom_site_label
 _atom_site_fract_x
 _atom_site_fract_y
 _atom_site_fract_z
 _atom_site_charge
 Cu 0.08442 0.48332 0.88186   0.71187
 Cu 0.6011 0.39854 0.51668   0.711668
 Cu 0.20256 0.11814 0.60146   0.710935
 Cu 0.6011 0.51668 0.39854   0.711663
 Cu 0.20256 0.60146 0.11814   0.71094
 Cu 0.08442 0.88186 0.48332   0.711875
 Cu 0.91586 0.59531 0.0   0.258665
 Cu 0.32055 0.40469 0.40469   0.258848
 Cu 0.91586 0.0 0.59531   0.258665
 H 0.6615 0.5812 0.8594   0.12333
 H 0.5511 0.4728 0.7488   0.142181
 H 0.6238 0.5802 0.7452   0.146966
 H 0.8265 0.2921 0.5485   0.13969
 H 0.9771 0.3751 0.6293   0.132149
 H 0.8898 0.404 0.5491   0.174672
 H 0.0803 0.2782 0.4188   0.124165
 H 0.0783 0.276 0.5272   0.142401
 H 0.0436 0.165 0.4198   0.147046
 H 0.5344 0.2564 0.7079   0.13917
 H 0.602 0.2542 0.6249   0.129892
 H 0.4858 0.1451 0.596   0.174085
 H 0.8021 0.1406 0.7218   0.123756
 H 0.8023 0.2512 0.724   0.142433
 H 0.8786 0.2548 0.835   0.146942
 H 0.278 0.4515 0.7436   0.139863
 H 0.3478 0.3707 0.7458   0.131283
 H 0.3407 0.4509 0.8549   0.174993
 H 0.0803 0.4188 0.2782   0.124167
 H 0.0783 0.5272 0.276   0.142403
 H 0.0436 0.4198 0.165   0.147045
 H 0.5344 0.7079 0.2564   0.139169
 H 0.602 0.6249 0.2542   0.1299
 H 0.4858 0.596 0.1451   0.174083
 H 0.8021 0.7218 0.1406   0.123746
 H 0.8023 0.724 0.2512   0.142436
 H 0.8786 0.835 0.2548   0.146941
 H 0.278 0.7436 0.4515   0.139865
 H 0.3478 0.7458 0.3707   0.13128
 H 0.3407 0.8549 0.4509   0.174992
 H 0.6615 0.8594 0.5812   0.12333
 H 0.5511 0.7488 0.4728   0.142178
 H 0.6238 0.7452 0.5802   0.14696
 H 0.8265 0.5485 0.2921   0.139689
 H 0.9771 0.6293 0.3751   0.13215
 H 0.8898 0.5491 0.404   0.174672
 H 0.1329 0.6701 0.0   0.40367
 H 0.4628 0.3299 0.3299   0.402417
 H 0.1329 0.0 0.6701   0.403628
 C 0.6347 0.5363 0.7804   -0.427016
 C 0.7381 0.4978 0.7619   0.421769
 C 0.8466 0.4266 0.6813   0.45477
 C 0.8887 0.3696 0.5946   -0.455736
 C 0.0984 0.2441 0.4637   -0.428698
 C 0.2403 0.2641 0.5022   0.420941
 C 0.42 0.2547 0.5734   0.452748
 C 0.5191 0.225 0.6304   -0.452701
 C 0.8543 0.2196 0.7559   -0.428058
 C 0.9762 0.2381 0.7359   0.42131
 C 0.1653 0.3187 0.7453   0.453699
 C 0.2941 0.4054 0.775   -0.455193
 C 0.0984 0.4637 0.2441   -0.428702
 C 0.2403 0.5022 0.2641   0.420939
 C 0.42 0.5734 0.2547   0.452768
 C 0.5191 0.6304 0.225   -0.452704
 C 0.8543 0.7559 0.2196   -0.428055
 C 0.9762 0.7359 0.2381   0.421332
 C 0.1653 0.7453 0.3187   0.453688
 C 0.2941 0.775 0.4054   -0.45519
 C 0.6347 0.7804 0.5363   -0.427003
 C 0.7381 0.7619 0.4978   0.421764
 C 0.8466 0.6813 0.4266   0.45477
 C 0.8887 0.5946 0.3696   -0.455736
 N 0.8439 0.5156 0.8374   -0.235273
 N 0.9151 0.4692 0.7881   -0.34679
 N 0.7332 0.4418 0.6604   -0.511266
 N 0.3283 0.3218 0.4844   -0.236138
 N 0.4459 0.3189 0.5308   -0.345268
 N 0.2914 0.2186 0.5582   -0.508281
 N 0.0065 0.1626 0.6782   -0.235441
 N 0.127 0.2119 0.6811   -0.345817
 N 0.0728 0.3396 0.7814   -0.50996
 N 0.3283 0.4844 0.3218   -0.23609
 N 0.4459 0.5308 0.3189   -0.345329
 N 0.2914 0.5582 0.2186   -0.508291
 N 0.0065 0.6782 0.1626   -0.235438
 N 0.127 0.6811 0.2119   -0.345815
 N 0.0728 0.7814 0.3396   -0.509978
 N 0.8439 0.8374 0.5156   -0.235281
 N 0.9151 0.7881 0.4692   -0.346793
 N 0.7332 0.6604 0.4418   -0.511262
 O 0.08925 0.61355 0.0   -0.752617
 O 0.2411 0.5174 0.0   -0.852038
 O 0.4757 0.38645 0.38645   -0.750343
 O 0.7237 0.4826 0.4826   -0.852461
 O 0.08925 0.0 0.61355   -0.752568
 O 0.2411 0.0 0.5174   -0.852039
