{'_ref': 'TBD', '_srcid': 'CAKYAQ_clean', 'submitters': [{'name': 'Dalar Nazarian Jeff Camp and David Sholl', 'email': 'dalar@gatech.edu jcamp6@gatech.edu'}], '_method': 'VASP DFT with PBE;DDEC'}
data_NiH24C26N7
_symmetry_space_group_name_H-M   'P 1'
_cell_length_a   8.62999964
_cell_length_b   13.51449993
_cell_length_c   13.51450000
_cell_angle_alpha   94.88800063
_cell_angle_beta   96.88520146
_cell_angle_gamma   96.88520000
_symmetry_Int_Tables_number   1
_chemical_formula_structural   NiH24C26N7
_chemical_formula_sum   'Ni2 H48 C52 N14'
_cell_volume   1545.5967079
_cell_formula_units_Z   2
loop_
 _symmetry_equiv_pos_site_id
 _symmetry_equiv_pos_as_xyz
  1  'x, y, z'
loop_
 _atom_site_label
 _atom_site_fract_x
 _atom_site_fract_y
 _atom_site_fract_z
 _atom_site_charge
 Ni 0.75 0.67556 0.32444   0.544119
 Ni 0.25 0.32444 0.67556   0.544119
 H 0.5032 0.6052 0.1368   0.074948
 H 0.485 0.6004 0.9632   0.113875
 H 0.9299 0.7454 0.9948   0.122376
 H 0.9386 0.7461 0.1687   0.073128
 H 0.6715 0.5985 0.8197   0.101536
 H 0.6117 0.7023 0.8227   0.08685
 H 0.9021 0.5722 0.4988   0.075524
 H 0.9174 0.5727 0.6723   0.117874
 H 0.705 0.8261 0.6765   0.118822
 H 0.6774 0.8089 0.5013   0.069791
 H 0.9226 0.6744 0.8314   0.074959
 H 0.8622 0.778 0.8336   0.078264
 H 0.9968 0.8632 0.3948   0.074948
 H 0.015 0.0368 0.3996   0.113875
 H 0.5701 0.0052 0.2546   0.122376
 H 0.5614 0.8313 0.2539   0.073127
 H 0.8285 0.1803 0.4015   0.101536
 H 0.8883 0.1773 0.2977   0.08685
 H 0.5979 0.5012 0.4278   0.075524
 H 0.5826 0.3277 0.4273   0.117874
 H 0.795 0.3235 0.1739   0.118822
 H 0.8226 0.4987 0.1911   0.069791
 H 0.5774 0.1686 0.3256   0.074959
 H 0.6378 0.1664 0.222   0.078264
 H 0.4968 0.3948 0.8632   0.074949
 H 0.515 0.3996 0.0368   0.113874
 H 0.0701 0.2546 0.0052   0.122377
 H 0.0614 0.2539 0.8313   0.073128
 H 0.3285 0.4015 0.1803   0.101537
 H 0.3883 0.2977 0.1773   0.086851
 H 0.0979 0.4278 0.5012   0.075524
 H 0.0826 0.4273 0.3277   0.117874
 H 0.295 0.1739 0.3235   0.118821
 H 0.3226 0.1911 0.4987   0.06979
 H 0.0774 0.3256 0.1686   0.074958
 H 0.1378 0.222 0.1664   0.078265
 H 0.0032 0.1368 0.6052   0.074949
 H 0.985 0.9632 0.6004   0.113874
 H 0.4299 0.9948 0.7454   0.122376
 H 0.4386 0.1687 0.7461   0.073127
 H 0.1715 0.8197 0.5985   0.101537
 H 0.1117 0.8227 0.7023   0.086851
 H 0.4021 0.4988 0.5722   0.075524
 H 0.4174 0.6723 0.5727   0.117874
 H 0.205 0.6765 0.8261   0.118821
 H 0.1774 0.5013 0.8089   0.06979
 H 0.4226 0.8314 0.6744   0.074958
 H 0.3622 0.8336 0.778   0.078265
 C 0.592 0.6341 0.1073   0.117436
 C 0.579 0.6316 0.0042   -0.241824
 C 0.704 0.6723 0.9599   0.134178
 C 0.841 0.714 0.0228   -0.271458
 C 0.844 0.714 0.1248   0.13612
 C 0.694 0.6678 0.847   -0.161122
 C 0.855 0.6232 0.536   0.129358
 C 0.868 0.6265 0.6387   -0.231416
 C 0.815 0.7027 0.6933   0.140067
 C 0.746 0.7711 0.6419   -0.248893
 C 0.731 0.7609 0.5379   0.128175
 C 0.833 0.7089 0.8065   -0.144639
 C 0.383 0.6527 0.3471   0.520396
 C 0.908 0.8927 0.3659   0.117436
 C 0.921 0.9958 0.3684   -0.241824
 C 0.796 0.0401 0.3277   0.134178
 C 0.659 0.9772 0.286   -0.271456
 C 0.656 0.8752 0.286   0.136121
 C 0.806 0.153 0.3322   -0.161122
 C 0.645 0.464 0.3768   0.129358
 C 0.632 0.3613 0.3735   -0.231416
 C 0.685 0.3067 0.2973   0.140068
 C 0.754 0.3581 0.2289   -0.248893
 C 0.769 0.4621 0.2391   0.128175
 C 0.667 0.1935 0.2911   -0.144639
 C 0.117 0.6529 0.3473   0.520399
 C 0.408 0.3659 0.8927   0.117435
 C 0.421 0.3684 0.9958   -0.241823
 C 0.296 0.3277 0.0401   0.134178
 C 0.159 0.286 0.9772   -0.271459
 C 0.156 0.286 0.8752   0.13612
 C 0.306 0.3322 0.153   -0.161122
 C 0.145 0.3768 0.464   0.129358
 C 0.132 0.3735 0.3613   -0.231416
 C 0.185 0.2973 0.3067   0.140067
 C 0.254 0.2289 0.3581   -0.248893
 C 0.269 0.2391 0.4621   0.128175
 C 0.167 0.2911 0.1935   -0.144639
 C 0.617 0.3473 0.6529   0.520396
 C 0.092 0.1073 0.6341   0.117435
 C 0.079 0.0042 0.6316   -0.241823
 C 0.204 0.9599 0.6723   0.134178
 C 0.341 0.0228 0.714   -0.271457
 C 0.344 0.1248 0.714   0.136121
 C 0.194 0.847 0.6678   -0.161122
 C 0.355 0.536 0.6232   0.129358
 C 0.368 0.6387 0.6265   -0.231416
 C 0.315 0.6933 0.7027   0.140067
 C 0.246 0.6419 0.7711   -0.248893
 C 0.231 0.5379 0.7609   0.128175
 C 0.333 0.8065 0.7089   -0.144639
 C 0.883 0.3471 0.6527   0.520399
 N 0.7244 0.6732 0.168   -0.278049
 N 0.783 0.6879 0.4845   -0.261536
 N 0.5105 0.6684 0.3306   -0.580637
 N 0.7756 0.832 0.3268   -0.27805
 N 0.717 0.5155 0.3121   -0.261536
 N 0.9895 0.6694 0.3316   -0.580638
 N 0.25 0.6243 0.3757   -0.532325
 N 0.2756 0.3268 0.832   -0.278049
 N 0.217 0.3121 0.5155   -0.261536
 N 0.4895 0.3316 0.6694   -0.580637
 N 0.2244 0.168 0.6732   -0.27805
 N 0.283 0.4845 0.6879   -0.261536
 N 0.0105 0.3306 0.6684   -0.580638
 N 0.75 0.3757 0.6243   -0.532325
