{'_ref': 'TBD', '_srcid': 'CAKYAQ_clean', 'submitters': [{'name': 'Dalar Nazarian Jeff Camp and David Sholl', 'email': 'dalar@gatech.edu jcamp6@gatech.edu'}], '_method': 'VASP DFT with PBE;DDEC'}
data_NiH24C26N7
_symmetry_space_group_name_H-M   'P 1'
_cell_length_a   8.63000020
_cell_length_b   13.53299999
_cell_length_c   13.53300000
_cell_angle_alpha   93.41340179
_cell_angle_beta   97.03599852
_cell_angle_gamma   97.03599874
_symmetry_Int_Tables_number   1
_chemical_formula_structural   NiH24C26N7
_chemical_formula_sum   'Ni2 H48 C52 N14'
_cell_volume   1552.33672428
_cell_formula_units_Z   2
loop_
 _symmetry_equiv_pos_site_id
 _symmetry_equiv_pos_as_xyz
  1  'x, y, z'
loop_
 _atom_site_label
 _atom_site_fract_x
 _atom_site_fract_y
 _atom_site_fract_z
 _atom_site_charge
 Ni 0.75 0.6771 0.3229   0.494396
 Ni 0.25 0.3229 0.6771   0.494396
 H 0.9443 0.7456 0.1604   0.079319
 H 0.9243 0.735 0.9806   0.124127
 H 0.4675 0.6017 0.9615   0.116788
 H 0.5046 0.6059 0.1407   0.071951
 H 0.5964 0.6958 0.8218   0.078653
 H 0.6668 0.5958 0.8224   0.107654
 H 0.6735 0.8146 0.49   0.084154
 H 0.7014 0.8292 0.6726   0.118735
 H 0.9217 0.5725 0.6661   0.115021
 H 0.8845 0.5587 0.4971   0.085974
 H 0.833 0.7799 0.8345   0.089573
 H 0.9084 0.6819 0.8425   0.057239
 H 0.5557 0.8396 0.2544   0.079318
 H 0.5757 0.0194 0.265   0.124127
 H 0.0325 0.0385 0.3983   0.116788
 H 0.9954 0.8593 0.3941   0.071951
 H 0.9036 0.1782 0.3042   0.078653
 H 0.8332 0.1776 0.4042   0.107654
 H 0.8265 0.51 0.1854   0.084154
 H 0.7986 0.3274 0.1708   0.118735
 H 0.5783 0.3339 0.4275   0.115021
 H 0.6155 0.5029 0.4413   0.085974
 H 0.667 0.1655 0.2201   0.089573
 H 0.5916 0.1575 0.3181   0.057239
 H 0.0557 0.2544 0.8396   0.079319
 H 0.0757 0.265 0.0194   0.124129
 H 0.5325 0.3983 0.0385   0.116785
 H 0.4954 0.3941 0.8593   0.07195
 H 0.4036 0.3042 0.1782   0.078655
 H 0.3332 0.4042 0.1776   0.107653
 H 0.3265 0.1854 0.51   0.084151
 H 0.2986 0.1708 0.3274   0.118732
 H 0.0783 0.4275 0.3339   0.115021
 H 0.1155 0.4413 0.5029   0.085977
 H 0.167 0.2201 0.1655   0.089579
 H 0.0916 0.3181 0.1575   0.057237
 H 0.4443 0.1604 0.7456   0.079319
 H 0.4243 0.9806 0.735   0.12413
 H 0.9675 0.9615 0.6017   0.116785
 H 0.0046 0.1407 0.6059   0.07195
 H 0.0964 0.8218 0.6958   0.078655
 H 0.1668 0.8224 0.5958   0.107653
 H 0.1735 0.49 0.8146   0.084151
 H 0.2014 0.6726 0.8292   0.118732
 H 0.4217 0.6661 0.5725   0.115021
 H 0.3845 0.4971 0.5587   0.085977
 H 0.333 0.8345 0.7799   0.089579
 H 0.4084 0.8425 0.6819   0.057237
 C 0.838 0.713 0.123   0.120552
 C 0.832 0.7111 0.0149   -0.285183
 C 0.696 0.669 0.959   0.176339
 C 0.574 0.628 0.004   -0.252083
 C 0.588 0.6361 0.1059   0.122199
 C 0.688 0.662 0.85   -0.169351
 C 0.726 0.764 0.53   0.109363
 C 0.741 0.771 0.639   -0.260937
 C 0.81 0.697 0.689   0.129212
 C 0.865 0.624 0.636   -0.194033
 C 0.852 0.62 0.536   0.097169
 C 0.816 0.714 0.806   -0.146465
 C 0.109 0.6561 0.3459   0.542633
 C 0.662 0.877 0.287   0.120556
 C 0.668 0.9851 0.2889   -0.28518
 C 0.804 0.041 0.331   0.176339
 C 0.926 0.996 0.372   -0.252083
 C 0.912 0.8941 0.3639   0.122199
 C 0.812 0.15 0.338   -0.169351
 C 0.774 0.47 0.236   0.109363
 C 0.759 0.361 0.229   -0.260937
 C 0.69 0.311 0.303   0.129212
 C 0.635 0.364 0.376   -0.194033
 C 0.648 0.464 0.38   0.097169
 C 0.684 0.194 0.286   -0.146465
 C 0.391 0.6541 0.3439   0.542632
 C 0.162 0.287 0.877   0.120553
 C 0.168 0.2889 0.9851   -0.285185
 C 0.304 0.331 0.041   0.176339
 C 0.426 0.372 0.996   -0.252082
 C 0.412 0.3639 0.8941   0.122199
 C 0.312 0.338 0.15   -0.16935
 C 0.274 0.236 0.47   0.109363
 C 0.259 0.229 0.361   -0.260937
 C 0.19 0.303 0.311   0.129213
 C 0.135 0.376 0.364   -0.194031
 C 0.148 0.38 0.464   0.097169
 C 0.184 0.286 0.194   -0.146467
 C 0.891 0.3439 0.6541   0.542633
 C 0.338 0.123 0.713   0.120556
 C 0.332 0.0149 0.7111   -0.285182
 C 0.196 0.959 0.669   0.176339
 C 0.074 0.004 0.628   -0.252082
 C 0.088 0.1059 0.6361   0.122199
 C 0.188 0.85 0.662   -0.16935
 C 0.226 0.53 0.764   0.109363
 C 0.241 0.639 0.771   -0.260937
 C 0.31 0.689 0.697   0.129213
 C 0.365 0.636 0.624   -0.194031
 C 0.352 0.536 0.62   0.097169
 C 0.316 0.806 0.714   -0.146467
 C 0.609 0.3459 0.6561   0.542632
 N 0.72 0.6745 0.1657   -0.257482
 N 0.779 0.688 0.4838   -0.252802
 N 0.988 0.6718 0.3304   -0.54945
 N 0.78 0.8343 0.3255   -0.257483
 N 0.721 0.5162 0.312   -0.252803
 N 0.512 0.6696 0.3282   -0.54945
 N 0.25 0.624 0.376   -0.612138
 N 0.28 0.3255 0.8343   -0.257482
 N 0.221 0.312 0.5162   -0.252803
 N 0.012 0.3282 0.6696   -0.54945
 N 0.22 0.1657 0.6745   -0.257483
 N 0.279 0.4838 0.688   -0.252803
 N 0.488 0.3304 0.6718   -0.54945
 N 0.75 0.376 0.624   -0.612138
