{'_ref': 'TBD', '_srcid': 'CAKYAQ_clean', 'submitters': [{'name': 'Dalar Nazarian Jeff Camp and David Sholl', 'email': 'dalar@gatech.edu jcamp6@gatech.edu'}], '_method': 'VASP DFT with PBE;DDEC'}
data_Zn3H24C42(NO6)2
_symmetry_space_group_name_H-M   'P 1'
_cell_length_a   14.72010014
_cell_length_b   14.72010032
_cell_length_c   16.80000000
_cell_angle_alpha   102.40900077
_cell_angle_beta   102.40900092
_cell_angle_gamma   115.86199850
_symmetry_Int_Tables_number   1
_chemical_formula_structural   Zn3H24C42(NO6)2
_chemical_formula_sum   'Zn6 H48 C84 N4 O24'
_cell_volume   2995.38414586
_cell_formula_units_Z   2
loop_
 _symmetry_equiv_pos_site_id
 _symmetry_equiv_pos_as_xyz
  1  'x, y, z'
loop_
 _atom_site_label
 _atom_site_fract_x
 _atom_site_fract_y
 _atom_site_fract_z
 _atom_site_charge
 Zn 0.52586 0.92474 0.91827   1.069815
 Zn 0.07526 0.47414 0.58173   1.069815
 Zn 0.47414 0.07526 0.08173   1.069815
 Zn 0.92474 0.52586 0.41827   1.069815
 Zn 0.32863 0.67137 0.75   1.025396
 Zn 0.67137 0.32863 0.25   1.025396
 H 0.4912 0.5478 0.837   0.099886
 H 0.5859 0.4585 0.8471   0.117077
 H 0.8619 0.7367 0.9259   0.130631
 H 0.7656 0.8254 0.9128   0.104973
 H 0.124 0.606 0.9122   0.081804
 H 0.9869 0.5743 0.9686   0.122657
 H 0.8017 0.5579 0.7485   0.125806
 H 0.9376 0.587 0.6918   0.102521
 H 0.6133 0.3311 0.0307   0.099314
 H 0.6961 0.4905 0.0064   0.128935
 H 0.797 0.3566 0.8385   0.116654
 H 0.7236 0.2014 0.8713   0.100839
 H 0.4522 0.5088 0.663   0.099886
 H 0.5415 0.4141 0.6529   0.117077
 H 0.2633 0.1381 0.5741   0.130631
 H 0.1746 0.2344 0.5872   0.104973
 H 0.394 0.876 0.5878   0.081804
 H 0.4257 0.0131 0.5314   0.122657
 H 0.4421 0.1983 0.7515   0.125805
 H 0.413 0.0624 0.8082   0.102521
 H 0.6689 0.3867 0.4693   0.099314
 H 0.5095 0.3039 0.4936   0.128935
 H 0.6434 0.203 0.6615   0.116654
 H 0.7986 0.2764 0.6287   0.10084
 H 0.5088 0.4522 0.163   0.099886
 H 0.4141 0.5415 0.1529   0.117077
 H 0.1381 0.2633 0.0741   0.130631
 H 0.2344 0.1746 0.0872   0.104973
 H 0.876 0.394 0.0878   0.081804
 H 0.0131 0.4257 0.0314   0.122658
 H 0.1983 0.4421 0.2515   0.125806
 H 0.0624 0.413 0.3082   0.102521
 H 0.3867 0.6689 0.9693   0.099314
 H 0.3039 0.5095 0.9936   0.128936
 H 0.203 0.6434 0.1615   0.116654
 H 0.2764 0.7986 0.1287   0.10084
 H 0.5478 0.4912 0.337   0.099887
 H 0.4585 0.5859 0.3471   0.117077
 H 0.7367 0.8619 0.4259   0.130631
 H 0.8254 0.7656 0.4128   0.104974
 H 0.606 0.124 0.4122   0.081804
 H 0.5743 0.9869 0.4686   0.122658
 H 0.5579 0.8017 0.2485   0.125806
 H 0.587 0.9376 0.1918   0.102521
 H 0.3311 0.6133 0.5307   0.099314
 H 0.4905 0.6961 0.5064   0.128936
 H 0.3566 0.797 0.3385   0.116655
 H 0.2014 0.7236 0.3713   0.10084
 C 0.55522 0.75098 0.8667   0.71537
 C 0.61887 0.69593 0.8747   -0.195569
 C 0.56604 0.58636 0.8548   0.009479
 C 0.623 0.5328 0.861   -0.213239
 C 0.73337 0.58763 0.8874   0.192344
 C 0.78705 0.69795 0.9075   -0.216724
 C 0.7291 0.7513 0.9002   0.003271
 C 0.13038 0.61362 0.7569   0.701418
 C 0.04427 0.59853 0.7957   -0.176762
 C 0.05871 0.59529 0.8786   0.015251
 C 0.97632 0.57608 0.9125   -0.206746
 C 0.88004 0.55996 0.8631   0.189595
 C 0.86616 0.56604 0.7814   -0.199359
 C 0.9481 0.5843 0.7477   0.003983
 C 0.60134 0.14406 0.966   0.730976
 C 0.65798 0.24902 0.9522   -0.198702
 C 0.65088 0.33612 0.9924   0.027239
 C 0.69886 0.43114 0.9767   -0.212732
 C 0.75142 0.43878 0.9166   0.189298
 C 0.7605 0.3523 0.8776   -0.215068
 C 0.7152 0.2586 0.8966   0.003644
 C 0.24902 0.44478 0.6333   0.71537
 C 0.30407 0.38113 0.6253   -0.195566
 C 0.41364 0.43396 0.6452   0.009476
 C 0.4672 0.377 0.639   -0.213239
 C 0.41237 0.26663 0.6126   0.192344
 C 0.30205 0.21295 0.5925   -0.216724
 C 0.2487 0.2709 0.5998   0.003269
 C 0.38638 0.86962 0.7431   0.701419
 C 0.40147 0.95573 0.7043   -0.176762
 C 0.40471 0.94129 0.6214   0.015251
 C 0.42392 0.02368 0.5875   -0.206746
 C 0.44004 0.11996 0.6369   0.189595
 C 0.43396 0.13384 0.7186   -0.199359
 C 0.4157 0.0519 0.7523   0.003983
 C 0.85594 0.39866 0.534   0.730976
 C 0.75098 0.34202 0.5478   -0.198702
 C 0.66388 0.34912 0.5076   0.027239
 C 0.56886 0.30114 0.5233   -0.212732
 C 0.56122 0.24858 0.5834   0.189298
 C 0.6477 0.2395 0.6224   -0.215069
 C 0.7414 0.2848 0.6034   0.003644
 C 0.44478 0.24902 0.1333   0.71537
 C 0.38113 0.30407 0.1253   -0.195569
 C 0.43396 0.41364 0.1452   0.009479
 C 0.377 0.4672 0.139   -0.213239
 C 0.26663 0.41237 0.1126   0.192344
 C 0.21295 0.30205 0.0925   -0.216724
 C 0.2709 0.2487 0.0998   0.00327
 C 0.86962 0.38638 0.2431   0.701418
 C 0.95573 0.40147 0.2043   -0.176762
 C 0.94129 0.40471 0.1214   0.015251
 C 0.02368 0.42392 0.0875   -0.206746
 C 0.11996 0.44004 0.1369   0.189595
 C 0.13384 0.43396 0.2186   -0.199359
 C 0.0519 0.4157 0.2523   0.003983
 C 0.39866 0.85594 0.034   0.730976
 C 0.34202 0.75098 0.0478   -0.198702
 C 0.34912 0.66388 0.0076   0.027239
 C 0.30114 0.56886 0.0233   -0.212732
 C 0.24858 0.56122 0.0834   0.189298
 C 0.2395 0.6477 0.1224   -0.215068
 C 0.2848 0.7414 0.1034   0.003644
 C 0.75098 0.55522 0.3667   0.71537
 C 0.69593 0.61887 0.3747   -0.195566
 C 0.58636 0.56604 0.3548   0.009476
 C 0.5328 0.623 0.361   -0.213239
 C 0.58763 0.73337 0.3874   0.192344
 C 0.69795 0.78705 0.4075   -0.216724
 C 0.7513 0.7291 0.4002   0.003269
 C 0.61362 0.13038 0.2569   0.701419
 C 0.59853 0.04427 0.2957   -0.176762
 C 0.59529 0.05871 0.3786   0.015251
 C 0.57608 0.97632 0.4125   -0.206747
 C 0.55996 0.88004 0.3631   0.189595
 C 0.56604 0.86616 0.2814   -0.199359
 C 0.5843 0.9481 0.2477   0.003983
 C 0.14406 0.60134 0.466   0.730976
 C 0.24902 0.65798 0.4522   -0.198702
 C 0.33612 0.65088 0.4924   0.027239
 C 0.43114 0.69886 0.4767   -0.212732
 C 0.43878 0.75142 0.4166   0.189298
 C 0.3523 0.7605 0.3776   -0.215069
 C 0.2586 0.7152 0.3966   0.003644
 N 0.79327 0.53409 0.89606   -0.166394
 N 0.46591 0.20673 0.60394   -0.166394
 N 0.20673 0.46591 0.10394   -0.166394
 N 0.53409 0.79327 0.39606   -0.166394
 O 0.45388 0.69206 0.8367   -0.632631
 O 0.60475 0.85237 0.89133   -0.598944
 O 0.22193 0.64217 0.80795   -0.565879
 O 0.10885 0.59819 0.67743   -0.646495
 O 0.52857 0.13135 0.99811   -0.658136
 O 0.62577 0.07519 0.94278   -0.5921
 O 0.30794 0.54612 0.6633   -0.632631
 O 0.14763 0.39525 0.60867   -0.598944
 O 0.35783 0.77807 0.69205   -0.565879
 O 0.40181 0.89115 0.82257   -0.646495
 O 0.86865 0.47143 0.50189   -0.658136
 O 0.92481 0.37423 0.55722   -0.5921
 O 0.54612 0.30794 0.1633   -0.632631
 O 0.39525 0.14763 0.10867   -0.598944
 O 0.77807 0.35783 0.19205   -0.565879
 O 0.89115 0.40181 0.32257   -0.646495
 O 0.47143 0.86865 0.00189   -0.658136
 O 0.37423 0.92481 0.05722   -0.5921
 O 0.69206 0.45388 0.3367   -0.632631
 O 0.85237 0.60475 0.39133   -0.598944
 O 0.64217 0.22193 0.30795   -0.565879
 O 0.59819 0.10885 0.17743   -0.646495
 O 0.13135 0.52857 0.49811   -0.658136
 O 0.07519 0.62577 0.44278   -0.5921
