{'_ref': 'TBD', '_srcid': 'CAKYAQ_clean', 'submitters': [{'name': 'Dalar Nazarian Jeff Camp and David Sholl', 'email': 'dalar@gatech.edu jcamp6@gatech.edu'}], '_method': 'VASP DFT with PBE;DDEC'}
data_ZnH12C15NO5
_symmetry_space_group_name_H-M   'P 1'
_cell_length_a   10.36299986
_cell_length_b   12.74280031
_cell_length_c   12.74280000
_cell_angle_alpha   72.17799810
_cell_angle_beta   86.79510067
_cell_angle_gamma   86.79509938
_symmetry_Int_Tables_number   1
_chemical_formula_structural   ZnH12C15NO5
_chemical_formula_sum   'Zn4 H48 C60 N4 O20'
_cell_volume   1598.14363151
_cell_formula_units_Z   4
loop_
 _symmetry_equiv_pos_site_id
 _symmetry_equiv_pos_as_xyz
  1  'x, y, z'
loop_
 _atom_site_label
 _atom_site_fract_x
 _atom_site_fract_y
 _atom_site_fract_z
 _atom_site_charge
 Zn 0.89971 0.57995 0.02185   0.932403
 Zn 0.60029 0.97815 0.42005   0.932403
 Zn 0.10029 0.42005 0.97815   0.932403
 Zn 0.39971 0.02185 0.57995   0.932403
 H 0.7782 0.3821 0.3523   0.089776
 H 0.7383 0.2593 0.5241   0.129294
 H 0.0723 0.093 0.4928   0.132901
 H 0.1068 0.2131 0.3183   0.092455
 H 0.7431 0.1538 0.6936   0.082177
 H 0.7722 0.0293 0.7571   0.100378
 H 0.7349 0.6684 0.1798   0.090173
 H 0.5816 0.8058 0.1756   0.135298
 H 0.5634 0.8619 0.8521   0.140484
 H 0.7184 0.7235 0.8637   0.07737
 H 0.4085 0.9321 0.0733   0.092535
 H 0.4087 0.9594 0.9444   0.099352
 H 0.7218 0.6477 0.6179   0.089777
 H 0.7617 0.4759 0.7407   0.129294
 H 0.4277 0.5072 0.907   0.132901
 H 0.3932 0.6817 0.7869   0.092456
 H 0.7569 0.3064 0.8462   0.082174
 H 0.7278 0.2429 0.9707   0.100377
 H 0.7651 0.8202 0.3316   0.090172
 H 0.9184 0.8244 0.1942   0.135298
 H 0.9366 0.1479 0.1381   0.140484
 H 0.7816 0.1363 0.2765   0.07737
 H 0.0915 0.9267 0.0679   0.092534
 H 0.0913 0.0556 0.0406   0.099352
 H 0.2218 0.6179 0.6477   0.089776
 H 0.2617 0.7407 0.4759   0.129295
 H 0.9277 0.907 0.5072   0.132901
 H 0.8932 0.7869 0.6817   0.092457
 H 0.2569 0.8462 0.3064   0.082175
 H 0.2278 0.9707 0.2429   0.100376
 H 0.2651 0.3316 0.8202   0.090173
 H 0.4184 0.1942 0.8244   0.135297
 H 0.4366 0.1381 0.1479   0.140484
 H 0.2816 0.2765 0.1363   0.077371
 H 0.5915 0.0679 0.9267   0.092532
 H 0.5913 0.0406 0.0556   0.099352
 H 0.2782 0.3523 0.3821   0.089777
 H 0.2383 0.5241 0.2593   0.129294
 H 0.5723 0.4928 0.093   0.132901
 H 0.6068 0.3183 0.2131   0.092457
 H 0.2431 0.6936 0.1538   0.082172
 H 0.2722 0.7571 0.0293   0.100376
 H 0.2349 0.1798 0.6684   0.090172
 H 0.0816 0.1756 0.8058   0.135297
 H 0.0634 0.8521 0.8619   0.140484
 H 0.2184 0.8637 0.7235   0.077371
 H 0.9085 0.0733 0.9321   0.092531
 H 0.9087 0.9444 0.9594   0.099351
 C 0.9676 0.388 0.2032   0.699263
 C 0.9463 0.3113 0.3159   -0.226405
 C 0.8368 0.3233 0.3799   0.029459
 C 0.8129 0.2503 0.4831   -0.270322
 C 0.9011 0.1628 0.5256   0.291321
 C 0.0122 0.1502 0.4642   -0.240277
 C 0.0332 0.2231 0.3599   0.016465
 C 0.7654 0.0822 0.6842   -0.06489
 C 0.657 0.0499 0.6259   0.65391
 C 0.7017 0.709 0.1124   0.175613
 C 0.6091 0.7913 0.1105   -0.237011
 C 0.5576 0.8516 0.0128   0.164922
 C 0.5984 0.8245 0.9197   -0.229636
 C 0.6918 0.7413 0.9273   0.189554
 C 0.4634 0.948 0.0066   -0.166718
 C 0.5324 0.7968 0.612   0.699263
 C 0.5537 0.6841 0.6887   -0.226405
 C 0.6632 0.6201 0.6767   0.029459
 C 0.6871 0.5169 0.7497   -0.270322
 C 0.5989 0.4744 0.8372   0.291321
 C 0.4878 0.5358 0.8498   -0.240276
 C 0.4668 0.6401 0.7769   0.016466
 C 0.7346 0.3158 0.9178   -0.064889
 C 0.843 0.3741 0.9501   0.65391
 C 0.7983 0.8876 0.291   0.175613
 C 0.8909 0.8895 0.2087   -0.237012
 C 0.9424 0.9872 0.1484   0.164922
 C 0.9016 0.0803 0.1755   -0.229635
 C 0.8082 0.0727 0.2587   0.189555
 C 0.0366 0.9934 0.052   -0.166717
 C 0.0324 0.612 0.7968   0.699263
 C 0.0537 0.6887 0.6841   -0.226405
 C 0.1632 0.6767 0.6201   0.02946
 C 0.1871 0.7497 0.5169   -0.270322
 C 0.0989 0.8372 0.4744   0.291321
 C 0.9878 0.8498 0.5358   -0.240277
 C 0.9668 0.7769 0.6401   0.016464
 C 0.2346 0.9178 0.3158   -0.064889
 C 0.343 0.9501 0.3741   0.653909
 C 0.2983 0.291 0.8876   0.175613
 C 0.3909 0.2087 0.8895   -0.237011
 C 0.4424 0.1484 0.9872   0.164921
 C 0.4016 0.1755 0.0803   -0.229635
 C 0.3082 0.2587 0.0727   0.189554
 C 0.5366 0.052 0.9934   -0.16672
 C 0.4676 0.2032 0.388   0.699263
 C 0.4463 0.3159 0.3113   -0.226405
 C 0.3368 0.3799 0.3233   0.02946
 C 0.3129 0.4831 0.2503   -0.270322
 C 0.4011 0.5256 0.1628   0.291321
 C 0.5122 0.4642 0.1502   -0.240276
 C 0.5332 0.3599 0.2231   0.016465
 C 0.2654 0.6842 0.0822   -0.064888
 C 0.157 0.6259 0.0499   0.653909
 C 0.2017 0.1124 0.709   0.175613
 C 0.1091 0.1105 0.7913   -0.237012
 C 0.0576 0.0128 0.8516   0.164921
 C 0.0984 0.9197 0.8245   -0.229635
 C 0.1918 0.9273 0.7413   0.189555
 C 0.9634 0.0066 0.948   -0.166719
 N 0.7457 0.68509 0.02169   -0.321703
 N 0.7543 0.97831 0.31491   -0.321703
 N 0.2543 0.31491 0.97831   -0.321703
 N 0.2457 0.02169 0.68509   -0.321703
 O 0.9039 0.47864 0.17736   -0.598716
 O 0.0482 0.35637 0.13967   -0.619453
 O 0.8873 0.08679 0.62717   -0.248871
 O 0.5449 0.05796 0.66716   -0.610842
 O 0.6878 0.01642 0.5457   -0.580258
 O 0.5961 0.82264 0.52136   -0.598716
 O 0.4518 0.86033 0.64363   -0.619453
 O 0.6127 0.37283 0.91321   -0.248871
 O 0.9551 0.33284 0.94204   -0.610842
 O 0.8122 0.4543 0.98358   -0.580258
 O 0.0961 0.52136 0.82264   -0.598715
 O 0.9518 0.64363 0.86033   -0.619453
 O 0.1127 0.91321 0.37283   -0.248871
 O 0.4551 0.94204 0.33284   -0.610842
 O 0.3122 0.98358 0.4543   -0.580258
 O 0.4039 0.17736 0.47864   -0.598715
 O 0.5482 0.13967 0.35637   -0.619453
 O 0.3873 0.62717 0.08679   -0.248871
 O 0.0449 0.66716 0.05796   -0.610842
 O 0.1878 0.5457 0.01642   -0.580258
