{'_ref': 'TBD', '_srcid': 'CAKYAQ_clean', 'submitters': [{'name': 'Dalar Nazarian Jeff Camp and David Sholl', 'email': 'dalar@gatech.edu jcamp6@gatech.edu'}], '_method': 'VASP DFT with PBE;DDEC'}
data_LaH9C21(SO2)3
_symmetry_space_group_name_H-M   'P 1'
_cell_length_a   8.20599996
_cell_length_b   14.18330043
_cell_length_c   14.18330000
_cell_angle_alpha   69.96899934
_cell_angle_beta   88.73499828
_cell_angle_gamma   88.73500034
_symmetry_Int_Tables_number   1
_chemical_formula_structural   LaH9C21(SO2)3
_chemical_formula_sum   'La2 H18 C42 S6 O12'
_cell_volume   1550.34588565
_cell_formula_units_Z   2
loop_
 _symmetry_equiv_pos_site_id
 _symmetry_equiv_pos_as_xyz
  1  'x, y, z'
loop_
 _atom_site_label
 _atom_site_fract_x
 _atom_site_fract_y
 _atom_site_fract_z
 _atom_site_charge
 La 0.00345 0.74878 0.782   2.168764
 La 0.50345 0.782 0.74878   2.168762
 H 0.4973 0.5632 0.3978   0.100347
 H 0.4287 0.2818 0.5918   0.103183
 H 0.2771 0.3574 0.3052   0.104141
 H 0.4639 0.7429 0.0463   0.114367
 H 0.5267 0.6603 0.2249   0.131911
 H 0.7846 0.3956 0.7828   0.12677
 H 0.6267 0.3135 0.6857   0.121912
 H 0.0509 0.0395 0.4293   0.124859
 H 0.1317 0.2146 0.3522   0.127067
 H 0.9973 0.3978 0.5632   0.100348
 H 0.9287 0.5918 0.2818   0.103182
 H 0.7771 0.3052 0.3574   0.10414
 H 0.9639 0.0463 0.7429   0.114368
 H 0.0267 0.2249 0.6603   0.131911
 H 0.2846 0.7828 0.3956   0.126771
 H 0.1267 0.6857 0.3135   0.121912
 H 0.5509 0.4293 0.0395   0.12486
 H 0.6317 0.3522 0.2146   0.127068
 C 0.3851 0.4739 0.3345   0.061141
 C 0.4594 0.497 0.4112   -0.139058
 C 0.4802 0.426 0.5072   0.072404
 C 0.4186 0.3302 0.5264   -0.166183
 C 0.3425 0.3034 0.4522   0.064855
 C 0.3271 0.3751 0.3565   -0.153959
 C 0.3672 0.5478 0.2326   -0.015576
 C 0.3 0.6324 0.0546   -0.230551
 C 0.4147 0.6824 0.0878   -0.038032
 C 0.4517 0.6349 0.1897   -0.15573
 C 0.229 0.6595 0.9537   0.725376
 C 0.5683 0.4489 0.5853   -0.023991
 C 0.7167 0.5343 0.6833   -0.210761
 C 0.7259 0.4313 0.7239   -0.040897
 C 0.6365 0.3842 0.667   -0.150559
 C 0.7948 0.6077 0.7203   0.684279
 C 0.2749 0.2026 0.4732   -0.023985
 C 0.194 0.0242 0.5498   -0.186446
 C 0.1238 0.0714 0.4596   -0.034625
 C 0.1696 0.1719 0.4155   -0.156047
 C 0.1583 0.9228 0.6214   0.70935
 C 0.8851 0.3345 0.4739   0.061142
 C 0.9594 0.4112 0.497   -0.139058
 C 0.9802 0.5072 0.426   0.072404
 C 0.9186 0.5264 0.3302   -0.166179
 C 0.8425 0.4522 0.3034   0.064854
 C 0.8271 0.3565 0.3751   -0.153959
 C 0.8672 0.2326 0.5478   -0.015576
 C 0.8 0.0546 0.6324   -0.230551
 C 0.9147 0.0878 0.6824   -0.038032
 C 0.9517 0.1897 0.6349   -0.15573
 C 0.729 0.9537 0.6595   0.725375
 C 0.0683 0.5853 0.4489   -0.023992
 C 0.2167 0.6833 0.5343   -0.210759
 C 0.2259 0.7239 0.4313   -0.040898
 C 0.1365 0.667 0.3842   -0.150559
 C 0.2948 0.7203 0.6077   0.684271
 C 0.7749 0.4732 0.2026   -0.023983
 C 0.694 0.5498 0.0242   -0.186446
 C 0.6238 0.4596 0.0714   -0.034627
 C 0.6696 0.4155 0.1719   -0.156045
 C 0.6583 0.6214 0.9228   0.70935
 S 0.2359 0.52682 0.14936   0.140388
 S 0.5999 0.57177 0.57633   0.148273
 S 0.3213 0.10408 0.58136   0.116696
 S 0.7359 0.14936 0.52682   0.140388
 S 0.0999 0.57633 0.57177   0.148273
 S 0.8213 0.58136 0.10408   0.116693
 O 0.2903 0.7323 0.8833   -0.817612
 O 0.1095 0.6123 0.9407   -0.6119
 O 0.9061 0.5792 0.7818   -0.605311
 O 0.7475 0.6996 0.6846   -0.757459
 O 0.0532 0.8711 0.6015   -0.599746
 O 0.2363 0.8912 0.7042   -0.827657
 O 0.7903 0.8833 0.7323   -0.81761
 O 0.6095 0.9407 0.6123   -0.611899
 O 0.4061 0.7818 0.5792   -0.605309
 O 0.2475 0.6846 0.6996   -0.757454
 O 0.5532 0.6015 0.8711   -0.599746
 O 0.7363 0.7042 0.8912   -0.827658
