{'_ref': 'TBD', '_srcid': 'CAKYAQ_clean', 'submitters': [{'name': 'Dalar Nazarian Jeff Camp and David Sholl', 'email': 'dalar@gatech.edu jcamp6@gatech.edu'}], '_method': 'VASP DFT with PBE;DDEC'}
data_CeH9C21(SO2)3
_symmetry_space_group_name_H-M   'P 1'
_cell_length_a   8.17199994
_cell_length_b   14.19689993
_cell_length_c   14.19690000
_cell_angle_alpha   69.75899981
_cell_angle_beta   88.95240061
_cell_angle_gamma   88.95240108
_symmetry_Int_Tables_number   1
_chemical_formula_structural   CeH9C21(SO2)3
_chemical_formula_sum   'Ce2 H18 C42 S6 O12'
_cell_volume   1544.98438558
_cell_formula_units_Z   2
loop_
 _symmetry_equiv_pos_site_id
 _symmetry_equiv_pos_as_xyz
  1  'x, y, z'
loop_
 _atom_site_label
 _atom_site_fract_x
 _atom_site_fract_y
 _atom_site_fract_z
 _atom_site_charge
 Ce 0.39888 0.91447 0.94757   2.27608
 Ce 0.89888 0.94757 0.91447   2.276079
 H 0.9026 0.2993 0.1331   0.103057
 H 0.9725 0.1049 0.4147   0.103474
 H 0.1229 0.3914 0.3396   0.103834
 H 0.9407 0.65 0.9528   0.115603
 H 0.8745 0.4718 0.038   0.128444
 H 0.6178 0.9122 0.2998   0.127438
 H 0.7702 0.0085 0.3833   0.123558
 H 0.3508 0.266 0.6588   0.125747
 H 0.2707 0.3441 0.4825   0.127621
 H 0.4026 0.1331 0.2993   0.103057
 H 0.4725 0.4147 0.1049   0.103474
 H 0.6229 0.3396 0.3914   0.103834
 H 0.4407 0.9528 0.65   0.115605
 H 0.3745 0.038 0.4718   0.128444
 H 0.1178 0.2998 0.9122   0.12744
 H 0.2702 0.3833 0.0085   0.123558
 H 0.8508 0.6588 0.266   0.125748
 H 0.7707 0.4825 0.3441   0.127621
 C 0.0174 0.3618 0.2238   0.063765
 C 0.9412 0.2857 0.1993   -0.1438
 C 0.9212 0.1899 0.2713   0.077334
 C 0.9824 0.1706 0.3666   -0.165898
 C 0.0578 0.2438 0.3942   0.066088
 C 0.0733 0.34 0.3218   -0.155202
 C 0.0336 0.4642 0.1488   -0.015889
 C 0.1017 0.6413 0.0643   -0.220924
 C 0.9887 0.6088 0.014   -0.041752
 C 0.9507 0.5069 0.0629   -0.151996
 C 0.1736 0.7445 0.0361   0.727967
 C 0.8348 0.1127 0.2457   -0.039349
 C 0.6869 0.0131 0.1605   -0.218839
 C 0.6764 0.9715 0.2647   -0.03192
 C 0.7626 0.0275 0.3125   -0.156033
 C 0.6098 0.9776 0.088   0.688994
 C 0.1271 0.2229 0.4955   -0.034494
 C 0.2047 0.1458 0.6716   -0.191011
 C 0.2777 0.2365 0.6261   -0.035484
 C 0.2324 0.2808 0.5254   -0.150327
 C 0.2411 0.0749 0.7737   0.712509
 C 0.5174 0.2238 0.3618   0.063765
 C 0.4412 0.1993 0.2857   -0.1438
 C 0.4212 0.2713 0.1899   0.077334
 C 0.4824 0.3666 0.1706   -0.165898
 C 0.5578 0.3942 0.2438   0.066088
 C 0.5733 0.3218 0.34   -0.155202
 C 0.5336 0.1488 0.4642   -0.015889
 C 0.6017 0.0643 0.6413   -0.220924
 C 0.4887 0.014 0.6088   -0.041752
 C 0.4507 0.0629 0.5069   -0.151995
 C 0.6736 0.0361 0.7445   0.727967
 C 0.3348 0.2457 0.1127   -0.039349
 C 0.1869 0.1605 0.0131   -0.218839
 C 0.1764 0.2647 0.9715   -0.031921
 C 0.2626 0.3125 0.0275   -0.156033
 C 0.1098 0.088 0.9776   0.688994
 C 0.6271 0.4955 0.2229   -0.034494
 C 0.7047 0.6716 0.1458   -0.191011
 C 0.7777 0.6261 0.2365   -0.035485
 C 0.7324 0.5254 0.2808   -0.150327
 C 0.7411 0.7737 0.0749   0.712509
 S 0.1662 0.54799 0.17027   0.131847
 S 0.8031 0.12046 0.124   0.173521
 S 0.0803 0.1147 0.59296   0.13882
 S 0.6662 0.17027 0.54799   0.131847
 S 0.3031 0.124 0.12046   0.173521
 S 0.5803 0.59296 0.1147   0.13882
 O 0.1104 0.8146 0.9636   -0.841862
 O 0.2958 0.7586 0.0818   -0.627016
 O 0.4954 0.9158 0.1152   -0.624443
 O 0.6582 0.0117 0.9947   -0.790932
 O 0.3494 0.0948 0.826   -0.617812
 O 0.1639 0.9909 0.8073   -0.86072
 O 0.6104 0.9636 0.8146   -0.841862
 O 0.7958 0.0818 0.7586   -0.627016
 O 0.9954 0.1152 0.9158   -0.624443
 O 0.1582 0.9947 0.0117   -0.790932
 O 0.8494 0.826 0.0948   -0.617811
 O 0.6639 0.8073 0.9909   -0.86072
