{'_ref': 'TBD', '_srcid': 'CAKYAQ_clean', 'submitters': [{'name': 'Dalar Nazarian Jeff Camp and David Sholl', 'email': 'dalar@gatech.edu jcamp6@gatech.edu'}], '_method': 'VASP DFT with PBE;DDEC'}
data_Rb3H13C14(SO7)2
_symmetry_space_group_name_H-M   'P 1'
_cell_length_a   7.05600000
_cell_length_b   15.01169979
_cell_length_c   23.07760000
_cell_angle_alpha   90.00000000
_cell_angle_beta   90.00000000
_cell_angle_gamma   93.41500160
_symmetry_Int_Tables_number   1
_chemical_formula_structural   Rb3H13C14(SO7)2
_chemical_formula_sum   'Rb12 H52 C56 S8 O56'
_cell_volume   2440.09765274
_cell_formula_units_Z   4
loop_
 _symmetry_equiv_pos_site_id
 _symmetry_equiv_pos_as_xyz
  1  'x, y, z'
loop_
 _atom_site_label
 _atom_site_fract_x
 _atom_site_fract_y
 _atom_site_fract_z
 _atom_site_charge
 Rb 0.71287 0.99319 0.43348   0.951367
 Rb 0.61141 0.78335 0.04085   0.965371
 Rb 0.99856 0.39292 0.1279   0.933324
 Rb 0.78713 0.00681 0.93348   0.951367
 Rb 0.88859 0.21665 0.54085   0.965371
 Rb 0.50144 0.60708 0.6279   0.933324
 Rb 0.28713 0.00681 0.56652   0.951367
 Rb 0.38859 0.21665 0.95915   0.965369
 Rb 0.00144 0.60708 0.8721   0.933322
 Rb 0.21287 0.99319 0.06652   0.951366
 Rb 0.11141 0.78335 0.45915   0.965369
 Rb 0.49856 0.39292 0.3721   0.933322
 H 0.81 0.15 0.355   0.447407
 H 0.641 0.617 0.142   0.410006
 H 0.4924 0.8512 0.2828   0.097015
 H 0.7384 0.2156 0.1544   0.07276
 H 0.6614 0.6081 0.3334   0.089422
 H 0.997 0.795 0.957   0.419568
 H 0.971 0.726 0.996   0.387253
 H 0.608 0.4 0.124   0.363276
 H 0.474 0.329 0.126   0.405557
 H 0.751 0.424 0.257   0.392092
 H 0.7677 0.9606 0.2703   0.133627
 H 0.516 0.8095 0.1865   0.150863
 H 0.743 0.9471 0.1693   0.094535
 H 0.69 0.85 0.855   0.447407
 H 0.859 0.383 0.642   0.410006
 H 0.0076 0.1488 0.7828   0.097015
 H 0.7616 0.7844 0.6544   0.07276
 H 0.8386 0.3919 0.8334   0.089422
 H 0.503 0.205 0.457   0.419568
 H 0.529 0.274 0.496   0.387253
 H 0.892 0.6 0.624   0.363276
 H 0.026 0.671 0.626   0.405557
 H 0.749 0.576 0.757   0.392092
 H 0.7323 0.0394 0.7703   0.133627
 H 0.984 0.1905 0.6865   0.150863
 H 0.757 0.0529 0.6693   0.094535
 H 0.19 0.85 0.645   0.447407
 H 0.359 0.383 0.858   0.410006
 H 0.5076 0.1488 0.7172   0.097014
 H 0.2616 0.7844 0.8456   0.07276
 H 0.3386 0.3919 0.6666   0.089422
 H 0.003 0.205 0.043   0.419568
 H 0.029 0.274 0.004   0.387253
 H 0.392 0.6 0.876   0.363276
 H 0.526 0.671 0.874   0.405557
 H 0.249 0.576 0.743   0.392092
 H 0.2323 0.0394 0.7297   0.133627
 H 0.484 0.1905 0.8135   0.150863
 H 0.257 0.0529 0.8307   0.094535
 H 0.31 0.15 0.145   0.447407
 H 0.141 0.617 0.358   0.410006
 H 0.9924 0.8512 0.2172   0.097014
 H 0.2384 0.2156 0.3456   0.07276
 H 0.1614 0.6081 0.1666   0.089422
 H 0.497 0.795 0.543   0.419568
 H 0.471 0.726 0.504   0.387253
 H 0.108 0.4 0.376   0.363276
 H 0.974 0.329 0.374   0.405557
 H 0.251 0.424 0.243   0.392092
 H 0.2677 0.9606 0.2297   0.133627
 H 0.016 0.8095 0.3135   0.150863
 H 0.243 0.9471 0.3307   0.094535
 C 0.7626 0.174 0.2384   -0.317733
 C 0.6431 0.623 0.2451   -0.351735
 C 0.7636 0.0964 0.2719   0.4483
 C 0.6013 0.6844 0.2023   0.400549
 C 0.7598 0.0122 0.2468   -0.284603
 C 0.5455 0.7689 0.2164   -0.235275
 C 0.7443 0.0044 0.1868   0.046849
 C 0.5331 0.7938 0.2732   0.045883
 C 0.7307 0.0791 0.1524   -0.304406
 C 0.5809 0.7342 0.3181   -0.281188
 C 0.7432 0.1641 0.1781   0.088137
 C 0.6328 0.649 0.3036   0.067794
 C 0.7741 0.264 0.265   0.748963
 C 0.7001 0.5332 0.2304   0.707034
 C 0.7374 0.826 0.7384   -0.317733
 C 0.8569 0.377 0.7451   -0.351735
 C 0.7364 0.9036 0.7719   0.4483
 C 0.8987 0.3156 0.7023   0.400549
 C 0.7402 0.9878 0.7468   -0.284603
 C 0.9545 0.2311 0.7164   -0.235275
 C 0.7557 0.9956 0.6868   0.046849
 C 0.9669 0.2062 0.7732   0.045883
 C 0.7693 0.9209 0.6524   -0.304406
 C 0.9191 0.2658 0.8181   -0.281188
 C 0.7568 0.8359 0.6781   0.088137
 C 0.8672 0.351 0.8036   0.067794
 C 0.7259 0.736 0.765   0.748963
 C 0.7999 0.4668 0.7304   0.707034
 C 0.2374 0.826 0.7616   -0.317733
 C 0.3569 0.377 0.7549   -0.351735
 C 0.2364 0.9036 0.7281   0.4483
 C 0.3987 0.3156 0.7977   0.400549
 C 0.2402 0.9878 0.7532   -0.284603
 C 0.4545 0.2311 0.7836   -0.235276
 C 0.2557 0.9956 0.8132   0.046849
 C 0.4669 0.2062 0.7268   0.045883
 C 0.2693 0.9209 0.8476   -0.304406
 C 0.4191 0.2658 0.6819   -0.281188
 C 0.2568 0.8359 0.8219   0.088137
 C 0.3672 0.351 0.6964   0.067794
 C 0.2259 0.736 0.735   0.748962
 C 0.2999 0.4668 0.7696   0.707033
 C 0.2626 0.174 0.2616   -0.317733
 C 0.1431 0.623 0.2549   -0.351735
 C 0.2636 0.0964 0.2281   0.4483
 C 0.1013 0.6844 0.2977   0.400549
 C 0.2598 0.0122 0.2532   -0.284603
 C 0.0455 0.7689 0.2836   -0.235276
 C 0.2443 0.0044 0.3132   0.046849
 C 0.0331 0.7938 0.2268   0.045883
 C 0.2307 0.0791 0.3476   -0.304406
 C 0.0809 0.7342 0.1819   -0.281188
 C 0.2432 0.1641 0.3219   0.088137
 C 0.1328 0.649 0.1964   0.067794
 C 0.2741 0.264 0.235   0.748962
 C 0.2001 0.5332 0.2696   0.707033
 S 0.6954 0.0706 0.07747   1.42333
 S 0.5854 0.77316 0.38925   1.388873
 S 0.8046 0.9294 0.57747   1.42333
 S 0.9146 0.22684 0.88925   1.388873
 S 0.3046 0.9294 0.92253   1.42333
 S 0.4146 0.22684 0.61075   1.388873
 S 0.1954 0.0706 0.42253   1.42333
 S 0.0854 0.77316 0.11075   1.388873
 O 0.9388 0.7396 0.9597   -0.880104
 O 0.7708 0.101 0.3311   -0.63083
 O 0.6113 0.6644 0.1449   -0.545834
 O 0.5634 0.3538 0.1016   -0.838276
 O 0.6259 0.9793 0.0663   -0.783566
 O 0.444 0.8389 0.3938   -0.741694
 O 0.5595 0.1355 0.062   -0.737283
 O 0.7764 0.8128 0.3993   -0.763861
 O 0.8812 0.0904 0.0503   -0.780529
 O 0.5407 0.695 0.4256   -0.694366
 O 0.7875 0.3306 0.2314   -0.687986
 O 0.7286 0.4785 0.2719   -0.53826
 O 0.7684 0.27 0.3194   -0.68163
 O 0.7177 0.5119 0.1776   -0.59999
 O 0.5612 0.2604 0.4597   -0.880104
 O 0.7292 0.899 0.8311   -0.63083
 O 0.8887 0.3356 0.6449   -0.545834
 O 0.9366 0.6462 0.6016   -0.838276
 O 0.8741 0.0207 0.5663   -0.783566
 O 0.056 0.1611 0.8938   -0.741694
 O 0.9405 0.8645 0.562   -0.737283
 O 0.7236 0.1872 0.8993   -0.763861
 O 0.6188 0.9096 0.5503   -0.780529
 O 0.9593 0.305 0.9256   -0.694366
 O 0.7125 0.6694 0.7314   -0.687986
 O 0.7714 0.5215 0.7719   -0.53826
 O 0.7316 0.73 0.8194   -0.68163
 O 0.7823 0.4881 0.6776   -0.59999
 O 0.0612 0.2604 0.0403   -0.880104
 O 0.2292 0.899 0.6689   -0.63083
 O 0.3887 0.3356 0.8551   -0.545834
 O 0.4366 0.6462 0.8984   -0.838276
 O 0.3741 0.0207 0.9337   -0.783566
 O 0.556 0.1611 0.6062   -0.741694
 O 0.4405 0.8645 0.938   -0.737284
 O 0.2236 0.1872 0.6007   -0.763861
 O 0.1188 0.9096 0.9497   -0.780529
 O 0.4593 0.305 0.5744   -0.694367
 O 0.2125 0.6694 0.7686   -0.687986
 O 0.2714 0.5215 0.7281   -0.53826
 O 0.2316 0.73 0.6806   -0.68163
 O 0.2823 0.4881 0.8224   -0.59999
 O 0.4388 0.7396 0.5403   -0.880104
 O 0.2708 0.101 0.1689   -0.63083
 O 0.1113 0.6644 0.3551   -0.545834
 O 0.0634 0.3538 0.3984   -0.838276
 O 0.1259 0.9793 0.4337   -0.783566
 O 0.944 0.8389 0.1062   -0.741694
 O 0.0595 0.1355 0.438   -0.737284
 O 0.2764 0.8128 0.1007   -0.763861
 O 0.3812 0.0904 0.4497   -0.780529
 O 0.0407 0.695 0.0744   -0.694367
 O 0.2875 0.3306 0.2686   -0.687986
 O 0.2286 0.4785 0.2281   -0.53826
 O 0.2684 0.27 0.1806   -0.68163
 O 0.2177 0.5119 0.3224   -0.59999
