{'_ref': 'TBD', '_srcid': 'CAKYAQ_clean', 'submitters': [{'name': 'Dalar Nazarian Jeff Camp and David Sholl', 'email': 'dalar@gatech.edu jcamp6@gatech.edu'}], '_method': 'VASP DFT with PBE;DDEC'}
data_CdH17C23(NO2)2
_symmetry_space_group_name_H-M   'P 1'
_cell_length_a   11.25350036
_cell_length_b   11.25349999
_cell_length_c   20.55700000
_cell_angle_alpha   74.46329764
_cell_angle_beta   74.46329816
_cell_angle_gamma   79.52699654
_symmetry_Int_Tables_number   1
_chemical_formula_structural   CdH17C23(NO2)2
_chemical_formula_sum   'Cd4 H68 C92 N8 O16'
_cell_volume   2399.54622609
_cell_formula_units_Z   4
loop_
 _symmetry_equiv_pos_site_id
 _symmetry_equiv_pos_as_xyz
  1  'x, y, z'
loop_
 _atom_site_label
 _atom_site_fract_x
 _atom_site_fract_y
 _atom_site_fract_z
 _atom_site_charge
 Cd 0.25745 0.80936 0.66767   1.026078
 Cd 0.19064 0.74255 0.83233   1.026077
 Cd 0.74255 0.19064 0.33233   1.026078
 Cd 0.80936 0.25745 0.16767   1.026077
 H 0.399 0.0674 0.416   0.125126
 H 0.3662 0.9406 0.3158   0.091487
 H 0.6742 0.7228 0.6646   0.10512
 H 0.8796 0.7364 0.6606   0.10806
 H 0.6002 0.786 0.4052   0.088804
 H 0.5709 0.9185 0.3592   0.115507
 H 0.2683 0.0611 0.5327   0.106365
 H 0.4245 0.6447 0.5817   0.158926
 H 0.5423 0.6635 0.5202   0.138652
 H 0.4212 0.631 0.5083   0.141466
 H 0.5588 0.6166 0.3725   0.096231
 H 0.8555 0.9125 0.8454   0.11379
 H 0.4734 0.532 0.3063   0.105277
 H 0.4467 0.8845 0.8525   0.111498
 H 0.7018 0.9736 0.9288   0.097612
 H 0.2745 0.8571 0.2536   0.094888
 H 0.494 0.9644 0.9326   0.101182
 H 0.9326 0.601 0.084   0.125126
 H 0.0594 0.6338 0.1842   0.091487
 H 0.2772 0.3258 0.8354   0.10512
 H 0.2636 0.1204 0.8394   0.10806
 H 0.214 0.3998 0.0948   0.088804
 H 0.0815 0.4291 0.1408   0.115507
 H 0.9389 0.7317 0.9673   0.106364
 H 0.3553 0.5755 0.9183   0.158926
 H 0.3365 0.4577 0.9798   0.138652
 H 0.369 0.5788 0.9917   0.141466
 H 0.3834 0.4412 0.1275   0.096231
 H 0.0875 0.1445 0.6546   0.113789
 H 0.468 0.5266 0.1937   0.105277
 H 0.1155 0.5533 0.6475   0.111498
 H 0.0264 0.2982 0.5712   0.097611
 H 0.1429 0.7255 0.2464   0.094884
 H 0.0356 0.506 0.5674   0.101183
 H 0.601 0.9326 0.584   0.125126
 H 0.6338 0.0594 0.6842   0.091487
 H 0.3258 0.2772 0.3354   0.105121
 H 0.1204 0.2636 0.3394   0.10806
 H 0.3998 0.214 0.5948   0.088804
 H 0.4291 0.0815 0.6408   0.115507
 H 0.7317 0.9389 0.4673   0.106366
 H 0.5755 0.3553 0.4183   0.158927
 H 0.4577 0.3365 0.4798   0.138654
 H 0.5788 0.369 0.4917   0.141467
 H 0.4412 0.3834 0.6275   0.096231
 H 0.1445 0.0875 0.1546   0.11379
 H 0.5266 0.468 0.6937   0.105277
 H 0.5533 0.1155 0.1475   0.111498
 H 0.2982 0.0264 0.0712   0.097611
 H 0.7255 0.1429 0.7464   0.094888
 H 0.506 0.0356 0.0674   0.101181
 H 0.0674 0.399 0.916   0.125126
 H 0.9406 0.3662 0.8158   0.091487
 H 0.7228 0.6742 0.1646   0.105121
 H 0.7364 0.8796 0.1606   0.108059
 H 0.786 0.6002 0.9052   0.088804
 H 0.9185 0.5709 0.8592   0.115507
 H 0.0611 0.2683 0.0327   0.106364
 H 0.6447 0.4245 0.0817   0.158927
 H 0.6635 0.5423 0.0202   0.138654
 H 0.631 0.4212 0.0083   0.141467
 H 0.6166 0.5588 0.8725   0.096231
 H 0.9125 0.8555 0.3454   0.113789
 H 0.532 0.4734 0.8063   0.105277
 H 0.8845 0.4467 0.3525   0.111498
 H 0.9736 0.7018 0.4288   0.09761
 H 0.8571 0.2745 0.7536   0.094884
 H 0.9644 0.494 0.4326   0.101182
 C 0.5979 0.7881 0.7495   -0.156016
 C 0.8458 0.8052 0.7447   -0.141465
 C 0.3899 0.9975 0.4525   -0.141867
 C 0.751 0.847 0.7975   0.050623
 C 0.4681 0.7715 0.7499   0.6977
 C 0.9824 0.8022 0.7417   0.693119
 C 0.3886 0.8572 0.3147   -0.108334
 C 0.6924 0.7528 0.6984   -0.059864
 C 0.6244 0.8386 0.8   0.048963
 C 0.4088 0.81 0.5132   0.330975
 C 0.8167 0.7611 0.6958   -0.061782
 C 0.4721 0.7907 0.3501   0.019056
 C 0.3663 0.6863 0.2717   0.038416
 C 0.534 0.8462 0.3898   -0.053046
 C 0.3172 0.9938 0.517   0.016942
 C 0.4531 0.6753 0.5326   -0.426757
 C 0.5029 0.6665 0.3476   -0.130799
 C 0.7742 0.903 0.8472   -0.121968
 C 0.4506 0.615 0.3079   -0.11702
 C 0.5295 0.8867 0.8513   -0.119559
 C 0.6827 0.9419 0.896   -0.085388
 C 0.3337 0.8075 0.2763   -0.108691
 C 0.5572 0.9356 0.8988   -0.101462
 C 0.2119 0.4021 0.7505   -0.156015
 C 0.1948 0.1542 0.7553   -0.141465
 C 0.0025 0.6101 0.0475   -0.141867
 C 0.153 0.249 0.7025   0.050623
 C 0.2285 0.5319 0.7501   0.6977
 C 0.1978 0.0176 0.7583   0.693119
 C 0.1428 0.6114 0.1853   -0.108336
 C 0.2472 0.3076 0.8016   -0.059864
 C 0.1614 0.3756 0.7   0.048963
 C 0.19 0.5912 0.9868   0.330975
 C 0.2389 0.1833 0.8042   -0.061782
 C 0.2093 0.5279 0.1499   0.019057
 C 0.3137 0.6337 0.2283   0.038416
 C 0.1538 0.466 0.1102   -0.053046
 C 0.0062 0.6828 0.983   0.016942
 C 0.3247 0.5469 0.9674   -0.426757
 C 0.3335 0.4971 0.1524   -0.130799
 C 0.097 0.2258 0.6528   -0.121968
 C 0.385 0.5494 0.1921   -0.11702
 C 0.1133 0.4705 0.6487   -0.119559
 C 0.0581 0.3173 0.604   -0.085388
 C 0.1925 0.6663 0.2237   -0.108684
 C 0.0644 0.4428 0.6012   -0.101462
 C 0.4021 0.2119 0.2505   -0.156015
 C 0.1542 0.1948 0.2553   -0.141465
 C 0.6101 0.0025 0.5475   -0.141867
 C 0.249 0.153 0.2025   0.050623
 C 0.5319 0.2285 0.2501   0.6977
 C 0.0176 0.1978 0.2583   0.693119
 C 0.6114 0.1428 0.6853   -0.108334
 C 0.3076 0.2472 0.3016   -0.059864
 C 0.3756 0.1614 0.2   0.048963
 C 0.5912 0.19 0.4868   0.330976
 C 0.1833 0.2389 0.3042   -0.061783
 C 0.5279 0.2093 0.6499   0.019056
 C 0.6337 0.3137 0.7283   0.038416
 C 0.466 0.1538 0.6102   -0.053046
 C 0.6828 0.0062 0.483   0.016941
 C 0.5469 0.3247 0.4674   -0.426758
 C 0.4971 0.3335 0.6524   -0.130799
 C 0.2258 0.097 0.1528   -0.121968
 C 0.5494 0.385 0.6921   -0.11702
 C 0.4705 0.1133 0.1487   -0.119559
 C 0.3173 0.0581 0.104   -0.085388
 C 0.6663 0.1925 0.7237   -0.108691
 C 0.4428 0.0644 0.1012   -0.101461
 C 0.7881 0.5979 0.2495   -0.156015
 C 0.8052 0.8458 0.2447   -0.141465
 C 0.9975 0.3899 0.9525   -0.141867
 C 0.847 0.751 0.2975   0.050623
 C 0.7715 0.4681 0.2499   0.6977
 C 0.8022 0.9824 0.2417   0.693119
 C 0.8572 0.3886 0.8147   -0.108337
 C 0.7528 0.6924 0.1984   -0.059865
 C 0.8386 0.6244 0.3   0.048963
 C 0.81 0.4088 0.0132   0.330976
 C 0.7611 0.8167 0.1958   -0.061782
 C 0.7907 0.4721 0.8501   0.019057
 C 0.6863 0.3663 0.7717   0.038417
 C 0.8462 0.534 0.8898   -0.053046
 C 0.9938 0.3172 0.017   0.016941
 C 0.6753 0.4531 0.0326   -0.426758
 C 0.6665 0.5029 0.8476   -0.130799
 C 0.903 0.7742 0.3472   -0.121968
 C 0.615 0.4506 0.8079   -0.11702
 C 0.8867 0.5295 0.3513   -0.119559
 C 0.9419 0.6827 0.396   -0.085388
 C 0.8075 0.3337 0.7763   -0.108685
 C 0.9356 0.5572 0.3988   -0.101461
 N 0.3285 0.8731 0.55512   -0.440033
 N 0.4466 0.8826 0.4504   0.012361
 N 0.1269 0.6715 0.94488   -0.440033
 N 0.1174 0.5534 0.0496   0.012361
 N 0.6715 0.1269 0.44488   -0.440033
 N 0.5534 0.1174 0.5496   0.012361
 N 0.8731 0.3285 0.05512   -0.440033
 N 0.8826 0.4466 0.9504   0.012361
 O 0.39541 0.73801 0.8073   -0.610626
 O 0.44363 0.79123 0.69152   -0.622365
 O 0.0134 0.773 0.7984   -0.618225
 O 0.0534 0.8248 0.6829   -0.608956
 O 0.26199 0.60459 0.6927   -0.610626
 O 0.20877 0.55637 0.80848   -0.622365
 O 0.227 0.9866 0.7016   -0.618225
 O 0.1752 0.9466 0.8171   -0.608956
 O 0.60459 0.26199 0.1927   -0.610626
 O 0.55637 0.20877 0.30848   -0.622365
 O 0.9866 0.227 0.2016   -0.618225
 O 0.9466 0.1752 0.3171   -0.608956
 O 0.73801 0.39541 0.3073   -0.610626
 O 0.79123 0.44363 0.19152   -0.622365
 O 0.773 0.0134 0.2984   -0.618225
 O 0.8248 0.0534 0.1829   -0.608956
