{'_ref': 'TBD', '_srcid': 'CAKYAQ_clean', 'submitters': [{'name': 'Dalar Nazarian Jeff Camp and David Sholl', 'email': 'dalar@gatech.edu jcamp6@gatech.edu'}], '_method': 'VASP DFT with PBE;DDEC'}
data_ZnH20C28(NO2)2
_symmetry_space_group_name_H-M   'P 1'
_cell_length_a   7.62290000
_cell_length_b   13.91589997
_cell_length_c   14.28270000
_cell_angle_alpha   99.27099819
_cell_angle_beta   90.00000000
_cell_angle_gamma   90.00000000
_symmetry_Int_Tables_number   1
_chemical_formula_structural   ZnH20C28(NO2)2
_chemical_formula_sum   'Zn2 H40 C56 N4 O8'
_cell_volume   1495.31068848
_cell_formula_units_Z   2
loop_
 _symmetry_equiv_pos_site_id
 _symmetry_equiv_pos_as_xyz
  1  'x, y, z'
loop_
 _atom_site_label
 _atom_site_fract_x
 _atom_site_fract_y
 _atom_site_fract_z
 _atom_site_charge
 Zn 0.4002 0.25 0.25   0.891061
 Zn 0.5998 0.75 0.75   0.891061
 H 0.5232 0.2503 0.4552   0.095024
 H 0.7704 0.208 0.5291   0.129815
 H 0.9465 0.0697 0.2765   0.129606
 H 0.6913 0.1112 0.2094   0.082061
 H 0.0583 0.129 0.5236   0.102768
 H 0.1814 0.0438 0.3481   0.103404
 H 0.2976 0.0917 0.5982   0.109349
 H 0.4484 0.958 0.3388   0.114713
 H 0.2754 0.93 0.9985   0.092681
 H 0.9466 0.1487 0.0947   0.08245
 H 0.5232 0.2497 0.0448   0.095024
 H 0.7704 0.292 0.9709   0.129814
 H 0.9465 0.4303 0.2235   0.129606
 H 0.6913 0.3888 0.2906   0.08206
 H 0.0583 0.371 0.9764   0.102768
 H 0.1814 0.4562 0.1519   0.103404
 H 0.2976 0.4083 0.9018   0.109347
 H 0.4484 0.542 0.1612   0.114713
 H 0.2754 0.57 0.5015   0.092681
 H 0.9466 0.3513 0.4053   0.08245
 H 0.4768 0.7497 0.5448   0.095024
 H 0.2296 0.792 0.4709   0.129815
 H 0.0535 0.9303 0.7235   0.129605
 H 0.3087 0.8888 0.7906   0.08206
 H 0.9417 0.871 0.4764   0.102768
 H 0.8186 0.9562 0.6519   0.103404
 H 0.7024 0.9083 0.4018   0.109348
 H 0.5516 0.042 0.6612   0.114712
 H 0.7246 0.07 0.0015   0.092681
 H 0.0534 0.8513 0.9053   0.082449
 H 0.4768 0.7503 0.9552   0.095024
 H 0.2296 0.708 0.0291   0.129815
 H 0.0535 0.5697 0.7765   0.129605
 H 0.3087 0.6112 0.7094   0.08206
 H 0.9417 0.629 0.0236   0.102768
 H 0.8186 0.5438 0.8481   0.103404
 H 0.7024 0.5917 0.0982   0.109346
 H 0.5516 0.458 0.8388   0.114712
 H 0.7246 0.43 0.4985   0.092681
 H 0.0534 0.6487 0.5947   0.082449
 C 0.6108 0.2129 0.4185   0.166152
 C 0.7577 0.1881 0.4626   -0.20333
 C 0.8909 0.1335 0.4115   0.1538
 C 0.8608 0.1065 0.3151   -0.19597
 C 0.7091 0.1325 0.2753   0.178294
 C 0.0505 0.1088 0.4569   -0.136648
 C 0.187 0.0607 0.4151   -0.069727
 C 0.3449 0.0308 0.4604   0.04699
 C 0.3802 0.0544 0.5578   -0.115191
 C 0.4692 0.9756 0.4049   -0.10683
 C 0.2709 0.0957 0.1229   0.686242
 C 0.1311 0.0451 0.059   -0.122691
 C 0.162 0.9586 0.0   -0.061384
 C 0.9688 0.0873 0.0567   -0.081587
 C 0.6108 0.2871 0.0815   0.166152
 C 0.7577 0.3119 0.0374   -0.203329
 C 0.8909 0.3665 0.0885   0.1538
 C 0.8608 0.3935 0.1849   -0.19597
 C 0.7091 0.3675 0.2247   0.178294
 C 0.0505 0.3912 0.0431   -0.136647
 C 0.187 0.4393 0.0849   -0.069727
 C 0.3449 0.4692 0.0396   0.04699
 C 0.3802 0.4456 0.9422   -0.115191
 C 0.4692 0.5244 0.0951   -0.10683
 C 0.2709 0.4043 0.3771   0.686242
 C 0.1311 0.4549 0.441   -0.122691
 C 0.162 0.5414 0.5   -0.061384
 C 0.9688 0.4127 0.4433   -0.081587
 C 0.3892 0.7871 0.5815   0.166152
 C 0.2423 0.8119 0.5374   -0.20333
 C 0.1091 0.8665 0.5885   0.1538
 C 0.1392 0.8935 0.6849   -0.19597
 C 0.2909 0.8675 0.7247   0.178294
 C 0.9495 0.8912 0.5431   -0.136648
 C 0.813 0.9393 0.5849   -0.069727
 C 0.6551 0.9692 0.5396   0.046987
 C 0.6198 0.9456 0.4422   -0.11518
 C 0.5308 0.0244 0.5951   -0.106819
 C 0.7291 0.9043 0.8771   0.686242
 C 0.8689 0.9549 0.941   -0.122692
 C 0.838 0.0414 0.0   -0.061381
 C 0.0312 0.9127 0.9433   -0.081584
 C 0.3892 0.7129 0.9185   0.166152
 C 0.2423 0.6881 0.9626   -0.20333
 C 0.1091 0.6335 0.9115   0.1538
 C 0.1392 0.6065 0.8151   -0.19597
 C 0.2909 0.6325 0.7753   0.178294
 C 0.9495 0.6088 0.9569   -0.136647
 C 0.813 0.5607 0.9151   -0.069727
 C 0.6551 0.5308 0.9604   0.046986
 C 0.6198 0.5544 0.0578   -0.115179
 C 0.5308 0.4756 0.9049   -0.106819
 C 0.7291 0.5957 0.6229   0.686242
 C 0.8689 0.5451 0.559   -0.122692
 C 0.838 0.4586 0.5   -0.061382
 C 0.0312 0.5873 0.5567   -0.081583
 N 0.5845 0.1862 0.3239   -0.378172
 N 0.5845 0.3138 0.1761   -0.378172
 N 0.4155 0.8138 0.6761   -0.378172
 N 0.4155 0.6862 0.8239   -0.378172
 O 0.2374 0.1769 0.1657   -0.62425
 O 0.4129 0.0594 0.1267   -0.623109
 O 0.2374 0.3231 0.3343   -0.62425
 O 0.4129 0.4406 0.3733   -0.623109
 O 0.7626 0.8231 0.8343   -0.62425
 O 0.5871 0.9406 0.8733   -0.623109
 O 0.7626 0.6769 0.6657   -0.62425
 O 0.5871 0.5594 0.6267   -0.623109
