{'_ref': 'TBD', '_srcid': 'CAKYAQ_clean', 'submitters': [{'name': 'Dalar Nazarian Jeff Camp and David Sholl', 'email': 'dalar@gatech.edu jcamp6@gatech.edu'}], '_method': 'VASP DFT with PBE;DDEC'}
data_LuH3(CO)6
_symmetry_space_group_name_H-M   'P 1'
_cell_length_a   8.42600000
_cell_length_b   9.62900009
_cell_length_c   17.15900000
_cell_angle_alpha   90.00000000
_cell_angle_beta   90.00000000
_cell_angle_gamma   112.14000004
_symmetry_Int_Tables_number   1
_chemical_formula_structural   LuH3(CO)6
_chemical_formula_sum   'Lu4 H12 C24 O24'
_cell_volume   1289.52636511
_cell_formula_units_Z   4
loop_
 _symmetry_equiv_pos_site_id
 _symmetry_equiv_pos_as_xyz
  1  'x, y, z'
loop_
 _atom_site_label
 _atom_site_fract_x
 _atom_site_fract_y
 _atom_site_fract_z
 _atom_site_charge
 Lu 0.8442 0.0256 0.2571   1.936007
 Lu 0.1558 0.4744 0.7571   1.935682
 Lu 0.1558 0.9744 0.7429   1.935582
 Lu 0.8442 0.5256 0.2429   1.935944
 H 0.88996 0.09657 0.97339   0.150699
 H 0.28842 0.15596 0.32551   0.145473
 H 0.39979 0.8986 0.26354   0.128413
 H 0.11004 0.40343 0.47339   0.150502
 H 0.71158 0.34404 0.82551   0.145615
 H 0.60021 0.6014 0.76354   0.128415
 H 0.11004 0.90343 0.02661   0.150667
 H 0.71158 0.84404 0.67449   0.143361
 H 0.59217 0.09344 0.73594   0.127578
 H 0.89029 0.59643 0.52686   0.150553
 H 0.28842 0.65596 0.17449   0.145465
 H 0.39979 0.3986 0.23646   0.128413
 C 0.9067 0.0258 0.0984   0.689305
 C 0.9466 0.0342 0.0144   -0.199616
 C 0.5634 0.1964 0.2889   0.796434
 C 0.3779 0.1031 0.3006   -0.21205
 C 0.312 0.9579 0.2827   -0.197564
 C 0.1278 0.3643 0.2142   0.830826
 C 0.0933 0.4742 0.5984   0.689366
 C 0.0534 0.4658 0.5144   -0.199927
 C 0.4366 0.3036 0.7889   0.796706
 C 0.6221 0.3969 0.8006   -0.211078
 C 0.688 0.5421 0.7827   -0.198253
 C 0.8722 0.1357 0.7142   0.833683
 C 0.0933 0.9742 0.9016   0.689461
 C 0.0534 0.9658 0.9856   -0.199762
 C 0.4366 0.8036 0.7111   0.796495
 C 0.6221 0.8969 0.6994   -0.213631
 C 0.688 0.0421 0.7173   -0.198689
 C 0.8722 0.6357 0.7858   0.83101
 C 0.9067 0.5258 0.4016   0.689529
 C 0.9466 0.5342 0.4856   -0.199607
 C 0.5634 0.6964 0.2111   0.796434
 C 0.3779 0.6031 0.1994   -0.212045
 C 0.312 0.4579 0.2173   -0.197552
 C 0.1278 0.8643 0.2858   0.830829
 O 0.9657 0.9542 0.1453   -0.676152
 O 0.8135 0.0928 0.1233   -0.620444
 O 0.6625 0.1349 0.2696   -0.723055
 O 0.6069 0.3355 0.2963   -0.641482
 O 0.0224 0.4239 0.1947   -0.743181
 O 0.0854 0.2301 0.2312   -0.66341
 O 0.0343 0.5458 0.6453   -0.676082
 O 0.1865 0.4072 0.6233   -0.62053
 O 0.3375 0.3651 0.7696   -0.723097
 O 0.3931 0.1645 0.7963   -0.641214
 O 0.9776 0.0761 0.6947   -0.742048
 O 0.9146 0.2699 0.7312   -0.663215
 O 0.0343 0.0458 0.8547   -0.676205
 O 0.1865 0.9072 0.8767   -0.620607
 O 0.3375 0.8651 0.7304   -0.722766
 O 0.3931 0.6645 0.7037   -0.640931
 O 0.9776 0.5761 0.8053   -0.743273
 O 0.9146 0.7699 0.7688   -0.663325
 O 0.9657 0.4542 0.3547   -0.676108
 O 0.8135 0.5928 0.3767   -0.620418
 O 0.6625 0.6349 0.2304   -0.723037
 O 0.6069 0.8355 0.2037   -0.641501
 O 0.0224 0.9239 0.3053   -0.743178
 O 0.0854 0.7301 0.2688   -0.663412
