{'_ref': 'TBD', '_srcid': 'CAKYAQ_clean', 'submitters': [{'name': 'Dalar Nazarian Jeff Camp and David Sholl', 'email': 'dalar@gatech.edu jcamp6@gatech.edu'}], '_method': 'VASP DFT with PBE;DDEC'}
data_FeH4C8O5
_symmetry_space_group_name_H-M   'P 1'
_cell_length_a   6.88650029
_cell_length_b   10.55790006
_cell_length_c   13.46620000
_cell_angle_alpha   70.14400269
_cell_angle_beta   88.05800314
_cell_angle_gamma   76.03300188
_symmetry_Int_Tables_number   1
_chemical_formula_structural   FeH4C8O5
_chemical_formula_sum   'Fe4 H16 C32 O20'
_cell_volume   892.412056597
_cell_formula_units_Z   4
loop_
 _symmetry_equiv_pos_site_id
 _symmetry_equiv_pos_as_xyz
  1  'x, y, z'
loop_
 _atom_site_label
 _atom_site_fract_x
 _atom_site_fract_y
 _atom_site_fract_z
 _atom_site_charge
 Fe 0.5308 0.4968 0.7223   1.347635
 Fe 0.0266 0.4956 0.7128   1.316317
 Fe 0.4692 0.5032 0.2777   1.347635
 Fe 0.9734 0.5044 0.2872   1.316317
 H 0.8287 0.8302 0.5064   0.11793
 H 0.34 0.9335 0.5567   0.104333
 H 0.7363 0.1455 0.6816   0.114951
 H 0.8792 0.9078 0.7169   0.104273
 H 0.3322 0.8268 0.7864   0.123513
 H 0.1893 0.0645 0.7511   0.106312
 H 0.2103 0.154 0.9615   0.122303
 H 0.662 0.0816 0.9386   0.10727
 H 0.1713 0.1698 0.4936   0.117929
 H 0.66 0.0665 0.4433   0.104331
 H 0.2637 0.8545 0.3184   0.114951
 H 0.1208 0.0922 0.2831   0.104273
 H 0.6678 0.1732 0.2136   0.123513
 H 0.8107 0.9355 0.2489   0.106312
 H 0.7897 0.846 0.0385   0.122303
 H 0.338 0.9184 0.0614   0.10727
 C 0.0984 0.8623 0.5368   -0.108939
 C 0.9001 0.901 0.5037   -0.051535
 C 0.1982 0.9613 0.533   -0.061375
 C 0.2082 0.7085 0.5778   0.668566
 C 0.4509 0.1247 0.7134   -0.10457
 C 0.652 0.0791 0.7034   -0.055273
 C 0.7353 0.9405 0.724   -0.062081
 C 0.6176 0.8476 0.7546   -0.101996
 C 0.4165 0.8932 0.7646   -0.05467
 C 0.3332 0.0318 0.7439   -0.065492
 C 0.3609 0.2745 0.6911   0.692562
 C 0.7076 0.6978 0.7769   0.681241
 C 0.9255 0.1373 0.9417   -0.095644
 C 0.1226 0.0898 0.9775   -0.058441
 C 0.803 0.0476 0.9642   -0.067853
 C 0.8446 0.2867 0.8784   0.677513
 C 0.9016 0.1377 0.4632   -0.108943
 C 0.0999 0.099 0.4963   -0.051525
 C 0.8018 0.0387 0.467   -0.061365
 C 0.7918 0.2915 0.4222   0.668566
 C 0.5491 0.8753 0.2866   -0.10457
 C 0.348 0.9209 0.2966   -0.055273
 C 0.2647 0.0595 0.276   -0.062082
 C 0.3824 0.1524 0.2454   -0.101996
 C 0.5835 0.1068 0.2354   -0.054671
 C 0.6668 0.9682 0.2561   -0.065492
 C 0.6391 0.7255 0.3089   0.692562
 C 0.2924 0.3022 0.2231   0.681241
 C 0.0745 0.8627 0.0583   -0.095643
 C 0.8774 0.9102 0.0225   -0.058444
 C 0.197 0.9524 0.0358   -0.067856
 C 0.1554 0.7133 0.1216   0.677512
 O 0.275 0.4948 0.785   -0.553841
 O 0.7837 0.5042 0.642   -0.59428
 O 0.117 0.6169 0.5789   -0.52139
 O 0.3906 0.6724 0.6108   -0.521235
 O 0.4675 0.3616 0.6566   -0.54697
 O 0.1771 0.3159 0.7064   -0.525589
 O 0.8953 0.6546 0.7725   -0.522731
 O 0.597 0.6125 0.8004   -0.542895
 O 0.9568 0.3706 0.8601   -0.530026
 O 0.6635 0.33 0.8427   -0.537895
 O 0.725 0.5052 0.215   -0.553841
 O 0.2163 0.4958 0.358   -0.59428
 O 0.883 0.3831 0.4211   -0.521389
 O 0.6094 0.3276 0.3892   -0.521235
 O 0.5325 0.6384 0.3434   -0.54697
 O 0.8229 0.6841 0.2936   -0.525589
 O 0.1047 0.3454 0.2275   -0.522731
 O 0.403 0.3875 0.1996   -0.542895
 O 0.0432 0.6294 0.1399   -0.530026
 O 0.3365 0.67 0.1573   -0.537895
