{'_ref': 'TBD', '_srcid': 'CAKYAQ_clean', 'submitters': [{'name': 'Dalar Nazarian Jeff Camp and David Sholl', 'email': 'dalar@gatech.edu jcamp6@gatech.edu'}], '_method': 'VASP DFT with PBE;DDEC'}
data_K3H20C22Cl3O5
_symmetry_space_group_name_H-M   'P 1'
_cell_length_a   7.08160000
_cell_length_b   18.04509983
_cell_length_c   21.01770000
_cell_angle_alpha   90.00000000
_cell_angle_beta   90.00000000
_cell_angle_gamma   91.86899858
_symmetry_Int_Tables_number   1
_chemical_formula_structural   K3H20C22Cl3O5
_chemical_formula_sum   'K12 H80 C88 Cl12 O20'
_cell_volume   2684.38478028
_cell_formula_units_Z   4
loop_
 _symmetry_equiv_pos_site_id
 _symmetry_equiv_pos_as_xyz
  1  'x, y, z'
loop_
 _atom_site_label
 _atom_site_fract_x
 _atom_site_fract_y
 _atom_site_fract_z
 _atom_site_charge
 K 0.39243 0.89266 0.66558   0.947839
 K 0.37448 0.6034 0.66569   0.944704
 K 0.51233 0.74826 0.76834   0.968272
 K 0.10757 0.10734 0.16558   0.947839
 K 0.12552 0.3966 0.16569   0.944704
 K 0.98767 0.25174 0.26834   0.968272
 K 0.60757 0.10734 0.33442   0.947839
 K 0.62552 0.3966 0.33431   0.944704
 K 0.48767 0.25174 0.23166   0.96827
 K 0.89243 0.89266 0.83442   0.947839
 K 0.87448 0.6034 0.83431   0.944704
 K 0.01233 0.74826 0.73166   0.96827
 H 0.6374 0.7244 0.6054   0.125534
 H 0.7283 0.7211 0.4983   0.105282
 H 0.2004 0.7672 0.4435   0.085305
 H 0.104 0.7694 0.5498   0.124166
 H 0.9504 0.6241 0.6211   0.119024
 H 0.0683 0.5134 0.5835   0.10252
 H 0.7598 0.3979 0.713   0.109236
 H 0.6407 0.5072 0.7522   0.099863
 H 0.9619 0.8672 0.6215   0.108073
 H 0.0907 0.9753 0.5768   0.103194
 H 0.8152 0.098 0.7058   0.111118
 H 0.6808 0.991 0.7501   0.102988
 H 0.4647 0.0806 0.5843   0.061037
 H 0.6573 0.0633 0.5478   0.049183
 H 0.7094 0.942 0.5107   0.045496
 H 0.5528 0.8772 0.5223   0.044721
 H 0.2497 0.523 0.4832   0.051442
 H 0.3244 0.6054 0.5004   0.058511
 H 0.5312 0.4353 0.5937   0.062623
 H 0.3752 0.4202 0.5396   0.037556
 H 0.8626 0.2756 0.1054   0.125534
 H 0.7717 0.2789 0.9983   0.105282
 H 0.2996 0.2328 0.9435   0.085305
 H 0.396 0.2306 0.0498   0.124166
 H 0.5496 0.3759 0.1211   0.119024
 H 0.4317 0.4866 0.0835   0.10252
 H 0.7402 0.6021 0.213   0.109236
 H 0.8593 0.4928 0.2522   0.099863
 H 0.5381 0.1328 0.1215   0.108073
 H 0.4093 0.0247 0.0768   0.103194
 H 0.6848 0.902 0.2058   0.111118
 H 0.8192 0.009 0.2501   0.102988
 H 0.0353 0.9194 0.0843   0.061037
 H 0.8427 0.9367 0.0478   0.049183
 H 0.7906 0.058 0.0107   0.045496
 H 0.9472 0.1228 0.0223   0.044721
 H 0.2503 0.477 0.9832   0.051442
 H 0.1756 0.3946 0.000399999999999   0.058511
 H 0.9688 0.5647 0.0937   0.062623
 H 0.1248 0.5798 0.0396   0.037556
 H 0.3626 0.2756 0.3946   0.125534
 H 0.2717 0.2789 0.5017   0.105282
 H 0.7996 0.2328 0.5565   0.085305
 H 0.896 0.2306 0.4502   0.124166
 H 0.0496 0.3759 0.3789   0.119024
 H 0.9317 0.4866 0.4165   0.102522
 H 0.2402 0.6021 0.287   0.109236
 H 0.3593 0.4928 0.2478   0.099863
 H 0.0381 0.1328 0.3785   0.108073
 H 0.9093 0.0247 0.4232   0.103197
 H 0.1848 0.902 0.2942   0.111116
 H 0.3192 0.009 0.2499   0.102988
 H 0.5353 0.9194 0.4157   0.061037
 H 0.3427 0.9367 0.4522   0.049184
 H 0.2906 0.058 0.4893   0.045497
 H 0.4472 0.1228 0.4777   0.044721
 H 0.7503 0.477 0.5168   0.051443
 H 0.6756 0.3946 0.4996   0.058511
 H 0.4688 0.5647 0.4063   0.062623
 H 0.6248 0.5798 0.4604   0.037557
 H 0.1374 0.7244 0.8946   0.125534
 H 0.2283 0.7211 0.0017   0.105283
 H 0.7004 0.7672 0.0565   0.085305
 H 0.604 0.7694 0.9502   0.124166
 H 0.4504 0.6241 0.8789   0.119024
 H 0.5683 0.5134 0.9165   0.102522
 H 0.2598 0.3979 0.787   0.109236
 H 0.1407 0.5072 0.7478   0.099863
 H 0.4619 0.8672 0.8785   0.108073
 H 0.5907 0.9753 0.9232   0.103197
 H 0.3152 0.098 0.7942   0.111116
 H 0.1808 0.991 0.7499   0.102988
 H 0.9647 0.0806 0.9157   0.061037
 H 0.1573 0.0633 0.9522   0.049184
 H 0.2094 0.942 0.9893   0.045497
 H 0.0528 0.8772 0.9777   0.044721
 H 0.7497 0.523 0.0168   0.051443
 H 0.8244 0.6054 0.9996   0.058511
 H 0.0312 0.4353 0.9063   0.062623
 H 0.8752 0.4202 0.9604   0.037557
 C 0.3586 0.7466 0.5903   0.353966
 C 0.5466 0.7327 0.5731   -0.293598
 C 0.6014 0.7311 0.5091   -0.088441
 C 0.473 0.7439 0.462   0.082264
 C 0.2885 0.7582 0.4765   -0.09544
 C 0.2317 0.7595 0.5401   -0.258559
 C 0.7854 0.58 0.6928   0.371884
 C 0.9122 0.5787 0.6409   -0.276149
 C 0.9824 0.5126 0.6182   -0.142992
 C 0.9276 0.4459 0.6459   0.086505
 C 0.7999 0.444 0.6949   -0.0513
 C 0.7293 0.5094 0.7183   -0.353393
 C 0.809 0.9155 0.6924   0.371491
 C 0.9318 0.9138 0.6393   -0.271695
 C 0.0093 0.9781 0.6126   -0.133323
 C 0.9682 0.0459 0.638   0.071667
 C 0.8451 0.0509 0.6891   -0.046036
 C 0.7662 0.987 0.7155   -0.345702
 C 0.5202 0.0509 0.5498   0.080475
 C 0.5718 0.9307 0.5131   0.070263
 C 0.3618 0.5532 0.4968   0.073402
 C 0.4846 0.4526 0.552   0.08367
 C 0.1414 0.2534 0.0903   0.353966
 C 0.9534 0.2673 0.0731   -0.293598
 C 0.8986 0.2689 0.0091   -0.088441
 C 0.027 0.2561 0.962   0.082264
 C 0.2115 0.2418 0.9765   -0.09544
 C 0.2683 0.2405 0.0401   -0.258559
 C 0.7146 0.42 0.1928   0.371884
 C 0.5878 0.4213 0.1409   -0.276149
 C 0.5176 0.4874 0.1182   -0.142992
 C 0.5724 0.5541 0.1459   0.086505
 C 0.7001 0.556 0.1949   -0.0513
 C 0.7707 0.4906 0.2183   -0.353393
 C 0.691 0.0845 0.1924   0.371491
 C 0.5682 0.0862 0.1393   -0.271695
 C 0.4907 0.0219 0.1126   -0.133323
 C 0.5318 0.9541 0.138   0.071667
 C 0.6549 0.9491 0.1891   -0.046036
 C 0.7338 0.013 0.2155   -0.345702
 C 0.9798 0.9491 0.0498   0.080475
 C 0.9282 0.0693 0.0131   0.070263
 C 0.1382 0.4468 0.9968   0.073402
 C 0.0154 0.5474 0.052   0.08367
 C 0.6414 0.2534 0.4097   0.353966
 C 0.4534 0.2673 0.4269   -0.293598
 C 0.3986 0.2689 0.4909   -0.088441
 C 0.527 0.2561 0.538   0.082265
 C 0.7115 0.2418 0.5235   -0.09544
 C 0.7683 0.2405 0.4599   -0.258559
 C 0.2146 0.42 0.3072   0.371884
 C 0.0878 0.4213 0.3591   -0.276149
 C 0.0176 0.4874 0.3818   -0.142993
 C 0.0724 0.5541 0.3541   0.086506
 C 0.2001 0.556 0.3051   -0.051299
 C 0.2707 0.4906 0.2817   -0.353393
 C 0.191 0.0845 0.3076   0.371491
 C 0.0682 0.0862 0.3607   -0.271694
 C 0.9907 0.0219 0.3874   -0.133324
 C 0.0318 0.9541 0.362   0.071667
 C 0.1549 0.9491 0.3109   -0.046035
 C 0.2338 0.013 0.2845   -0.345702
 C 0.4798 0.9491 0.4502   0.080477
 C 0.4282 0.0693 0.4869   0.070265
 C 0.6382 0.4468 0.5032   0.073404
 C 0.5154 0.5474 0.448   0.083672
 C 0.8586 0.7466 0.9097   0.353966
 C 0.0466 0.7327 0.9269   -0.293598
 C 0.1014 0.7311 0.9909   -0.088441
 C 0.973 0.7439 0.038   0.082265
 C 0.7885 0.7582 0.0235   -0.09544
 C 0.7317 0.7595 0.9599   -0.258559
 C 0.2854 0.58 0.8072   0.371884
 C 0.4122 0.5787 0.8591   -0.276149
 C 0.4824 0.5126 0.8818   -0.142993
 C 0.4276 0.4459 0.8541   0.086506
 C 0.2999 0.444 0.8051   -0.051299
 C 0.2293 0.5094 0.7817   -0.353393
 C 0.309 0.9155 0.8076   0.371491
 C 0.4318 0.9138 0.8607   -0.271694
 C 0.5093 0.9781 0.8874   -0.133324
 C 0.4682 0.0459 0.862   0.071667
 C 0.3451 0.0509 0.8109   -0.046035
 C 0.2662 0.987 0.7845   -0.345702
 C 0.0202 0.0509 0.9502   0.080477
 C 0.0718 0.9307 0.9869   0.070265
 C 0.8618 0.5532 0.0032   0.073404
 C 0.9846 0.4526 0.948   0.083672
 Cl 0.5418 0.74128 0.38186   -0.131403
 Cl 0.0237 0.36417 0.61803   -0.125206
 Cl 0.07 0.127 0.60528   -0.116904
 Cl 0.9582 0.25872 0.88186   -0.131405
 Cl 0.4763 0.63583 0.11803   -0.125207
 Cl 0.43 0.873 0.10528   -0.116905
 Cl 0.4582 0.25872 0.61814   -0.131409
 Cl 0.9763 0.63583 0.38197   -0.125208
 Cl 0.93 0.873 0.39472   -0.116907
 Cl 0.0418 0.74128 0.11814   -0.131411
 Cl 0.5237 0.36417 0.88197   -0.12521
 Cl 0.57 0.127 0.89472   -0.116907
 O 0.3054 0.74785 0.65051   -0.900762
 O 0.722 0.64137 0.7165   -0.867649
 O 0.7348 0.85513 0.71814   -0.873324
 O 0.4906 0.9734 0.56296   -0.418713
 O 0.4261 0.52751 0.5577   -0.422683
 O 0.1946 0.25215 0.15051   -0.900762
 O 0.778 0.35863 0.2165   -0.867649
 O 0.7652 0.14487 0.21814   -0.873324
 O 0.0094 0.0266 0.06296   -0.418713
 O 0.0739 0.47249 0.0577   -0.422683
 O 0.6946 0.25215 0.34949   -0.900762
 O 0.278 0.35863 0.2835   -0.867649
 O 0.2652 0.14487 0.28186   -0.873324
 O 0.5094 0.0266 0.43704   -0.418714
 O 0.5739 0.47249 0.4423   -0.422683
 O 0.8054 0.74785 0.84949   -0.900762
 O 0.222 0.64137 0.7835   -0.867649
 O 0.2348 0.85513 0.78186   -0.873324
 O 0.9906 0.9734 0.93704   -0.418714
 O 0.9261 0.52751 0.9423   -0.422683
