{'_ref': 'TBD', '_srcid': 'CAKYAQ_clean', 'submitters': [{'name': 'Dalar Nazarian Jeff Camp and David Sholl', 'email': 'dalar@gatech.edu jcamp6@gatech.edu'}], '_method': 'VASP DFT with PBE;DDEC'}
data_CdH10C12N3O4
_symmetry_space_group_name_H-M   'P 1'
_cell_length_a   9.64270021
_cell_length_b   9.93920022
_cell_length_c   9.98320000
_cell_angle_alpha   86.30300116
_cell_angle_beta   81.11799959
_cell_angle_gamma   65.26199942
_symmetry_Int_Tables_number   1
_chemical_formula_structural   CdH10C12N3O4
_chemical_formula_sum   'Cd2 H20 C24 N6 O8'
_cell_volume   858.572074055
_cell_formula_units_Z   2
loop_
 _symmetry_equiv_pos_site_id
 _symmetry_equiv_pos_as_xyz
  1  'x, y, z'
loop_
 _atom_site_label
 _atom_site_fract_x
 _atom_site_fract_y
 _atom_site_fract_z
 _atom_site_charge
 Cd 0.95039 0.72492 0.5415   1.069258
 Cd 0.04961 0.27508 0.4585   1.069259
 H 0.171 0.9943 0.8052   0.110177
 H 0.8222 0.8976 0.9976   0.11571
 H 0.4921 0.6567 0.6697   0.108989
 H 0.7073 0.4193 0.3257   0.100048
 H 0.4493 0.449 0.8946   0.087789
 H 0.4168 0.4136 0.0519   0.089541
 H 0.1993 0.6113 0.9687   0.11013
 H 0.2975 0.7089 0.9458   0.103942
 H 0.2332 0.8324 0.3936   0.10543
 H 0.0713 0.5984 0.2167   0.13188
 H 0.829 0.0057 0.1948   0.110181
 H 0.1778 0.1024 0.0024   0.115721
 H 0.5079 0.3433 0.3303   0.108987
 H 0.2927 0.5807 0.6743   0.100044
 H 0.5507 0.551 0.1054   0.087789
 H 0.5832 0.5864 0.9481   0.089542
 H 0.8007 0.3887 0.0313   0.110122
 H 0.7025 0.2911 0.0542   0.103939
 H 0.7668 0.1676 0.6064   0.10543
 H 0.9287 0.4016 0.7833   0.131877
 C 0.9933 0.8629 0.7543   0.630302
 C 0.9965 0.935 0.8808   -0.106014
 C 0.1013 0.9965 0.8843   -0.085839
 C 0.8946 0.9392 0.9984   -0.070076
 C 0.7513 0.5874 0.496   0.654147
 C 0.6198 0.5443 0.4965   -0.116676
 C 0.4955 0.5931 0.601   -0.059839
 C 0.6228 0.4521 0.3968   -0.059026
 C 0.4301 0.4886 0.9873   -0.154621
 C 0.2812 0.6298 0.0022   -0.066299
 C 0.2167 0.7792 0.3265   0.296977
 C 0.1271 0.6534 0.2338   0.147189
 C 0.0067 0.1371 0.2457   0.630301
 C 0.0035 0.065 0.1192   -0.106015
 C 0.8987 0.0035 0.1157   -0.085835
 C 0.1054 0.0608 0.0016   -0.070072
 C 0.2487 0.4126 0.504   0.654146
 C 0.3802 0.4557 0.5035   -0.116677
 C 0.5045 0.4069 0.399   -0.059841
 C 0.3772 0.5479 0.6032   -0.059027
 C 0.5699 0.5114 0.0127   -0.154632
 C 0.7188 0.3702 0.9978   -0.066294
 C 0.7833 0.2208 0.6735   0.296976
 C 0.8729 0.3466 0.7662   0.147188
 N 0.2309 0.6792 0.143   0.163586
 N 0.2897 0.7604 0.2034   -0.367482
 N 0.1142 0.7158 0.3506   -0.474489
 N 0.7691 0.3208 0.857   0.163585
 N 0.7103 0.2396 0.7966   -0.367482
 N 0.8858 0.2842 0.6494   -0.474489
 O 0.067 0.8772 0.644   -0.620921
 O 0.9155 0.786 0.7629   -0.608623
 O 0.7352 0.6852 0.5789   -0.581038
 O 0.8731 0.5256 0.4128   -0.654146
 O 0.933 0.1228 0.356   -0.62092
 O 0.0845 0.214 0.2371   -0.608623
 O 0.2648 0.3148 0.4211   -0.581038
 O 0.1269 0.4744 0.5872   -0.654146
