{'_ref': 'TBD', '_srcid': 'CAKYAQ_clean', 'submitters': [{'name': 'Dalar Nazarian Jeff Camp and David Sholl', 'email': 'dalar@gatech.edu jcamp6@gatech.edu'}], '_method': 'VASP DFT with PBE;DDEC'}
data_ZnH18C26(NO2)2
_symmetry_space_group_name_H-M   'P 1'
_cell_length_a   6.22260000
_cell_length_b   14.70195328
_cell_length_c   17.50450000
_cell_angle_alpha   102.23303888
_cell_angle_beta   90.00000000
_cell_angle_gamma   102.21715237
_symmetry_Int_Tables_number   1
_chemical_formula_structural   ZnH18C26(NO2)2
_chemical_formula_sum   'Zn2 H36 C52 N4 O8'
_cell_volume   1527.89675353
_cell_formula_units_Z   2
loop_
 _symmetry_equiv_pos_site_id
 _symmetry_equiv_pos_as_xyz
  1  'x, y, z'
loop_
 _atom_site_label
 _atom_site_fract_x
 _atom_site_fract_y
 _atom_site_fract_z
 _atom_site_charge
 Zn 0.43648 0.0 0.75   0.831867
 Zn 0.56352 0.0 0.25   0.831867
 H 0.8311 0.8094 0.638   0.082002
 H 0.5692 0.683 0.5688   0.099395
 H 0.9706 0.508 0.5848   0.103531
 H 0.2299 0.6324 0.655   0.103245
 H 0.6172 0.439 0.5189   0.099334
 H 0.7906 0.9016 0.785   0.091248
 H 0.0307 0.9022 0.884   0.137357
 H 0.7659 0.1008 0.0217   0.138622
 H 0.5181 0.0838 0.9203   0.077728
 H 0.0217 0.1906 0.862   0.082169
 H 0.8862 0.317 0.9312   0.100243
 H 0.4626 0.492 0.9152   0.104955
 H 0.5975 0.3676 0.845   0.103406
 H 0.1782 0.561 0.9811   0.097749
 H 0.889 0.0984 0.715   0.091849
 H 0.1285 0.0978 0.616   0.135888
 H 0.6651 0.8992 0.4783   0.138474
 H 0.4343 0.9162 0.5797   0.076818
 H 0.1689 0.1906 0.362   0.082002
 H 0.4308 0.317 0.4312   0.099396
 H 0.0294 0.492 0.4152   0.103531
 H 0.7701 0.3676 0.345   0.103245
 H 0.3828 0.561 0.4811   0.099329
 H 0.2094 0.0984 0.215   0.091248
 H 0.9693 0.0978 0.116   0.137358
 H 0.2341 0.8992 0.9783   0.138623
 H 0.4819 0.9162 0.0797   0.077728
 H 0.9783 0.8094 0.138   0.082169
 H 0.1138 0.683 0.0688   0.100243
 H 0.5374 0.508 0.0848   0.104955
 H 0.4025 0.6324 0.155   0.103406
 H 0.8218 0.439 0.0189   0.097744
 H 0.111 0.9016 0.285   0.091849
 H 0.8715 0.9022 0.384   0.135889
 H 0.3349 0.1008 0.5217   0.138475
 H 0.5657 0.0838 0.4203   0.076818
 C 0.2297 0.8176 0.6963   0.644235
 C 0.0567 0.7346 0.6537   -0.156797
 C 0.8595 0.7486 0.6274   -0.031154
 C 0.7024 0.6726 0.5852   -0.135381
 C 0.7433 0.5818 0.5674   0.073783
 C 0.9424 0.569 0.5952   -0.144819
 C 0.0984 0.6432 0.6375   -0.036184
 C 0.5878 0.4988 0.5201   -0.115222
 C 0.7853 0.9418 0.8335   0.19313
 C 0.9297 0.9412 0.893   -0.176909
 C 0.9243 0.0 0.9673   0.090346
 C 0.7718 0.0574 0.975   -0.197408
 C 0.6286 0.0494 0.9121   0.181437
 C 0.4121 0.1824 0.8037   0.64482
 C 0.3221 0.2654 0.8463   -0.161058
 C 0.1109 0.2514 0.8726   -0.027903
 C 0.0298 0.3274 0.9148   -0.136516
 C 0.1615 0.4182 0.9326   0.073267
 C 0.3734 0.431 0.9048   -0.146021
 C 0.4552 0.3568 0.8625   -0.035863
 C 0.089 0.5012 0.9799   -0.113587
 C 0.8435 0.0582 0.6665   0.191153
 C 0.9885 0.0588 0.607   -0.174457
 C 0.9243 0.0 0.5327   0.089808
 C 0.7144 0.9426 0.525   -0.196901
 C 0.5792 0.9506 0.5879   0.18249
 C 0.7703 0.1824 0.3037   0.644235
 C 0.9433 0.2654 0.3463   -0.156797
 C 0.1405 0.2514 0.3726   -0.031154
 C 0.2976 0.3274 0.4148   -0.13538
 C 0.2567 0.4182 0.4326   0.073776
 C 0.0576 0.431 0.4048   -0.144818
 C 0.9016 0.3568 0.3625   -0.036184
 C 0.4122 0.5012 0.4799   -0.115174
 C 0.2147 0.0582 0.1665   0.19313
 C 0.0703 0.0588 0.107   -0.176909
 C 0.0757 0.0 0.0327   0.090349
 C 0.2282 0.9426 0.025   -0.197408
 C 0.3714 0.9506 0.0879   0.181437
 C 0.5879 0.8176 0.1963   0.64482
 C 0.6779 0.7346 0.1537   -0.161058
 C 0.8891 0.7486 0.1274   -0.027902
 C 0.9702 0.6726 0.0852   -0.136514
 C 0.8385 0.5818 0.0674   0.073258
 C 0.6266 0.569 0.0952   -0.14602
 C 0.5448 0.6432 0.1375   -0.035863
 C 0.911 0.4988 0.0201   -0.113529
 C 0.1565 0.9418 0.3335   0.191153
 C 0.0115 0.9412 0.393   -0.174457
 C 0.0757 0.0 0.4673   0.089811
 C 0.2856 0.0574 0.475   -0.196901
 C 0.4208 0.0494 0.4121   0.18249
 N 0.6365 0.9974 0.842   -0.325993
 N 0.6391 0.0026 0.658   -0.32551
 N 0.3635 0.0026 0.158   -0.325994
 N 0.3609 0.9974 0.342   -0.32551
 O 0.18017 0.89834 0.7089   -0.610405
 O 0.4124 0.806 0.7132   -0.600924
 O 0.28183 0.10166 0.7911   -0.611112
 O 0.6064 0.194 0.7868   -0.600273
 O 0.81983 0.10166 0.2911   -0.610405
 O 0.5876 0.194 0.2868   -0.600924
 O 0.71817 0.89834 0.2089   -0.611112
 O 0.3936 0.806 0.2132   -0.600273
