{'_ref': 'TBD', '_srcid': 'CAKYAQ_clean', 'submitters': [{'name': 'Dalar Nazarian Jeff Camp and David Sholl', 'email': 'dalar@gatech.edu jcamp6@gatech.edu'}], '_method': 'VASP DFT with PBE;DDEC'}
data_MnH4(CO)4
_symmetry_space_group_name_H-M   'P 1'
_cell_length_a   10.78800000
_cell_length_b   12.70200000
_cell_length_c   15.78400000
_cell_angle_alpha   90.00000000
_cell_angle_beta   90.00000000
_cell_angle_gamma   90.00000000
_symmetry_Int_Tables_number   1
_chemical_formula_structural   MnH4(CO)4
_chemical_formula_sum   'Mn12 H48 C48 O48'
_cell_volume   2162.86851398
_cell_formula_units_Z   12
loop_
 _symmetry_equiv_pos_site_id
 _symmetry_equiv_pos_as_xyz
  1  'x, y, z'
loop_
 _atom_site_label
 _atom_site_fract_x
 _atom_site_fract_y
 _atom_site_fract_z
 _atom_site_charge
 Mn 0.04447 0.25 0.63752   1.206072
 Mn 0.31414 0.25 0.71722   1.22103
 Mn 0.45553 0.75 0.13752   1.206072
 Mn 0.18586 0.75 0.21722   1.22103
 Mn 0.95553 0.75 0.36248   1.206072
 Mn 0.68586 0.75 0.28278   1.221031
 Mn 0.54447 0.25 0.86248   1.206072
 Mn 0.81414 0.25 0.78278   1.221031
 Mn 0.0 0.0 0.5   1.301243
 Mn 0.5 0.0 0.0   1.301243
 Mn 0.0 0.5 0.5   1.301243
 Mn 0.5 0.5 0.0   1.301243
 H 0.3764 0.5568 0.6048   0.174908
 H 0.412 0.4525 0.6562   0.142563
 H 0.4341 0.4578 0.556   0.17143
 H 0.7049 0.5086 0.6395   0.18084
 H 0.7063 0.45 0.7292   0.145005
 H 0.7619 0.5663 0.7208   0.179842
 H 0.1236 0.4432 0.1048   0.174908
 H 0.088 0.5475 0.1562   0.142563
 H 0.0659 0.5422 0.056   0.17143
 H 0.7951 0.4914 0.1395   0.18084
 H 0.7937 0.55 0.2292   0.145005
 H 0.7381 0.4337 0.2208   0.179842
 H 0.6236 0.0568 0.3952   0.174907
 H 0.588 0.9525 0.3438   0.142563
 H 0.5659 0.9578 0.444   0.17143
 H 0.2951 0.0086 0.3605   0.18084
 H 0.2937 0.95 0.2708   0.145005
 H 0.2381 0.0663 0.2792   0.179842
 H 0.8764 0.9432 0.8952   0.174907
 H 0.912 0.0475 0.8438   0.142563
 H 0.9341 0.0422 0.944   0.17143
 H 0.2049 0.9914 0.8605   0.18084
 H 0.2063 0.05 0.7708   0.145005
 H 0.2619 0.9337 0.7792   0.179842
 H 0.6236 0.4432 0.3952   0.174891
 H 0.588 0.5475 0.3438   0.142562
 H 0.5659 0.5422 0.444   0.171429
 H 0.2951 0.4914 0.3605   0.180837
 H 0.2937 0.55 0.2708   0.145003
 H 0.2381 0.4337 0.2792   0.179823
 H 0.8764 0.5568 0.8952   0.174891
 H 0.912 0.4525 0.8438   0.142562
 H 0.9341 0.4578 0.944   0.171429
 H 0.2049 0.5086 0.8605   0.180837
 H 0.2063 0.45 0.7708   0.145003
 H 0.2619 0.5663 0.7792   0.179823
 H 0.3764 0.9432 0.6048   0.174891
 H 0.412 0.0475 0.6562   0.142562
 H 0.4341 0.0422 0.556   0.171429
 H 0.7049 0.9914 0.6395   0.180837
 H 0.7063 0.05 0.7292   0.145003
 H 0.7619 0.9337 0.7208   0.179823
 H 0.1236 0.0568 0.1048   0.174891
 H 0.088 0.9525 0.1562   0.142562
 H 0.0659 0.9578 0.056   0.171429
 H 0.7951 0.0086 0.1395   0.180837
 H 0.7937 0.95 0.2292   0.145003
 H 0.7381 0.0663 0.2208   0.179823
 C 0.25158 0.43705 0.58784   0.843966
 C 0.3797 0.4798 0.6025   -0.557621
 C 0.8769 0.45301 0.67196   0.833392
 C 0.7516 0.4984 0.6921   -0.563959
 C 0.24842 0.56295 0.08784   0.843966
 C 0.1203 0.5202 0.1025   -0.557621
 C 0.6231 0.54699 0.17196   0.833392
 C 0.7484 0.5016 0.1921   -0.563959
 C 0.74842 0.93705 0.41216   0.843966
 C 0.6203 0.9798 0.3975   -0.557621
 C 0.1231 0.95301 0.32804   0.833392
 C 0.2484 0.9984 0.3079   -0.563959
 C 0.75158 0.06295 0.91216   0.843966
 C 0.8797 0.0202 0.8975   -0.557621
 C 0.3769 0.04699 0.82804   0.833392
 C 0.2516 0.0016 0.8079   -0.563959
 C 0.74842 0.56295 0.41216   0.843965
 C 0.6203 0.5202 0.3975   -0.557615
 C 0.1231 0.54699 0.32804   0.83339
 C 0.2484 0.5016 0.3079   -0.56395
 C 0.75158 0.43705 0.91216   0.843965
 C 0.8797 0.4798 0.8975   -0.557615
 C 0.3769 0.45301 0.82804   0.83339
 C 0.2516 0.4984 0.8079   -0.56395
 C 0.25158 0.06295 0.58784   0.843965
 C 0.3797 0.0202 0.6025   -0.557615
 C 0.8769 0.04699 0.67196   0.83339
 C 0.7516 0.0016 0.6921   -0.56395
 C 0.24842 0.93705 0.08784   0.843965
 C 0.1203 0.9798 0.1025   -0.557615
 C 0.6231 0.95301 0.17196   0.83339
 C 0.7484 0.9984 0.1921   -0.56395
 C 0.9566 0.25 0.476   0.70255
 C 0.9048 0.25 0.38807   -0.23476
 C 0.0836 0.25 0.8462   0.677406
 C 0.1704 0.25 0.92162   -0.245965
 C 0.5434 0.75 0.976   0.70255
 C 0.5952 0.75 0.88807   -0.23476
 C 0.4164 0.75 0.3462   0.677406
 C 0.3296 0.75 0.42162   -0.245965
 C 0.0434 0.75 0.524   0.70255
 C 0.0952 0.75 0.61193   -0.23476
 C 0.9164 0.75 0.1538   0.677406
 C 0.8296 0.75 0.07838   -0.245964
 C 0.4566 0.25 0.024   0.70255
 C 0.4048 0.25 0.11193   -0.23476
 C 0.5836 0.25 0.6538   0.677406
 C 0.6704 0.25 0.57838   -0.245964
 O 0.2141 0.35767 0.63072   -0.70163
 O 0.95068 0.50827 0.63187   -0.63042
 O 0.19026 0.48174 0.53218   -0.623989
 O 0.90082 0.35776 0.69395   -0.712173
 O 0.97815 0.16621 0.51492   -0.607463
 O 0.2859 0.64233 0.13072   -0.70163
 O 0.54932 0.49173 0.13187   -0.63042
 O 0.30974 0.51826 0.03218   -0.623989
 O 0.59918 0.64224 0.19395   -0.712173
 O 0.52185 0.83379 0.01492   -0.607463
 O 0.7859 0.85767 0.36928   -0.70163
 O 0.04932 0.00827 0.36813   -0.63042
 O 0.80974 0.98174 0.46782   -0.623989
 O 0.09918 0.85776 0.30605   -0.712173
 O 0.02185 0.66621 0.48508   -0.607463
 O 0.7141 0.14233 0.86928   -0.70163
 O 0.45068 0.99173 0.86813   -0.63042
 O 0.69026 0.01826 0.96782   -0.623989
 O 0.40082 0.14224 0.80605   -0.712173
 O 0.47815 0.33379 0.98508   -0.607463
 O 0.7859 0.64233 0.36928   -0.701629
 O 0.04932 0.49173 0.36813   -0.63042
 O 0.80974 0.51826 0.46782   -0.623989
 O 0.09918 0.64224 0.30605   -0.712172
 O 0.02185 0.83379 0.48508   -0.607463
 O 0.7141 0.35767 0.86928   -0.701629
 O 0.45068 0.50827 0.86813   -0.63042
 O 0.69026 0.48174 0.96782   -0.623989
 O 0.40082 0.35776 0.80605   -0.712172
 O 0.47815 0.16621 0.98508   -0.607463
 O 0.2141 0.14233 0.63072   -0.701629
 O 0.95068 0.99173 0.63187   -0.63042
 O 0.19026 0.01826 0.53218   -0.623989
 O 0.90082 0.14224 0.69395   -0.712172
 O 0.97815 0.33379 0.51492   -0.607463
 O 0.2859 0.85767 0.13072   -0.701629
 O 0.54932 0.00827 0.13187   -0.63042
 O 0.30974 0.98174 0.03218   -0.623989
 O 0.59918 0.85776 0.19395   -0.712172
 O 0.52185 0.66621 0.01492   -0.607463
 O 0.12887 0.25 0.77135   -0.637384
 O 0.9708 0.25 0.86156   -0.539548
 O 0.37113 0.75 0.27135   -0.637384
 O 0.5292 0.75 0.36156   -0.539548
 O 0.87113 0.75 0.22865   -0.637384
 O 0.0292 0.75 0.13844   -0.539548
 O 0.62887 0.25 0.72865   -0.637384
 O 0.4708 0.25 0.63844   -0.539548
