{'_ref': 'TBD', '_srcid': 'CAKYAQ_clean', 'submitters': [{'name': 'Dalar Nazarian Jeff Camp and David Sholl', 'email': 'dalar@gatech.edu jcamp6@gatech.edu'}], '_method': 'VASP DFT with PBE;DDEC'}
data_HoAgH8C14(NO4)2
_symmetry_space_group_name_H-M   'P 1'
_cell_length_a   9.11370000
_cell_length_b   9.66390033
_cell_length_c   22.25900000
_cell_angle_alpha   90.00000000
_cell_angle_beta   90.00000000
_cell_angle_gamma   117.95999782
_symmetry_Int_Tables_number   1
_chemical_formula_structural   HoAgH8C14(NO4)2
_chemical_formula_sum   'Ho4 Ag4 H32 C56 N8 O32'
_cell_volume   1731.60500225
_cell_formula_units_Z   4
loop_
 _symmetry_equiv_pos_site_id
 _symmetry_equiv_pos_as_xyz
  1  'x, y, z'
loop_
 _atom_site_label
 _atom_site_fract_x
 _atom_site_fract_y
 _atom_site_fract_z
 _atom_site_charge
 Ho 0.61922 0.3546 0.00827   2.273461
 Ho 0.88078 0.6454 0.50827   2.273461
 Ho 0.38078 0.6454 0.99173   2.273467
 Ho 0.11922 0.3546 0.49173   2.273467
 Ag 0.01177 0.67984 0.85168   0.499259
 Ag 0.48823 0.32016 0.35168   0.499259
 Ag 0.98823 0.32016 0.14832   0.499262
 Ag 0.51177 0.67984 0.64832   0.499262
 H 0.9452 0.2272 0.9289   0.087955
 H 0.746 0.0368 0.8678   0.136896
 H 0.7753 0.8232 0.8411   0.055022
 H 0.1825 0.9711 0.935   0.0752
 H 0.9851 0.638 0.7159   0.076404
 H 0.1018 0.3095 0.6599   0.110262
 H 0.1387 0.2625 0.7598   0.135955
 H 0.1084 0.4122 0.8334   0.076249
 H 0.5548 0.7728 0.4289   0.087955
 H 0.754 0.9632 0.3678   0.136896
 H 0.7247 0.1768 0.3411   0.055022
 H 0.3175 0.0289 0.435   0.0752
 H 0.5149 0.362 0.2159   0.076404
 H 0.3982 0.6905 0.1599   0.110262
 H 0.3613 0.7375 0.2598   0.135955
 H 0.3916 0.5878 0.3334   0.076249
 H 0.0548 0.7728 0.0711   0.087956
 H 0.254 0.9632 0.1322   0.136834
 H 0.2247 0.1768 0.1589   0.055014
 H 0.8175 0.0289 0.065   0.075196
 H 0.0149 0.362 0.2841   0.076375
 H 0.8982 0.6905 0.3401   0.110245
 H 0.8613 0.7375 0.2402   0.13592
 H 0.8916 0.5878 0.1666   0.076246
 H 0.4452 0.2272 0.5711   0.087956
 H 0.246 0.0368 0.6322   0.136834
 H 0.2753 0.8232 0.6589   0.055014
 H 0.6825 0.9711 0.565   0.075196
 H 0.4851 0.638 0.7841   0.076375
 H 0.6018 0.3095 0.8401   0.110245
 H 0.6387 0.2625 0.7402   0.13592
 H 0.6084 0.4122 0.6666   0.076246
 C 0.2244 0.2461 0.97436   0.783256
 C 0.0881 0.1197 0.9377   -0.243803
 C 0.9549 0.1391 0.91787   0.037829
 C 0.8365 0.026 0.8814   -0.164265
 C 0.8548 0.8983 0.8659   0.151574
 C 0.095 0.9861 0.9208   0.18503
 C 0.0184 0.5627 0.72449   0.153772
 C 0.0394 0.4811 0.6772   -0.24473
 C 0.0863 0.3669 0.6905   0.037393
 C 0.1097 0.3399 0.7498   -0.198226
 C 0.0894 0.429 0.7937   0.157329
 C 0.0108 0.5168 0.6142   0.76515
 C 0.5081 0.0075 0.96559   0.541717
 C 0.9978 0.52 0.96683   0.5335
 C 0.2756 0.7539 0.47436   0.783256
 C 0.4119 0.8803 0.4377   -0.243803
 C 0.5451 0.8609 0.41787   0.037829
 C 0.6635 0.974 0.3814   -0.164265
 C 0.6452 0.1017 0.3659   0.151574
 C 0.405 0.0139 0.4208   0.18503
 C 0.4816 0.4373 0.22449   0.153772
 C 0.4606 0.5189 0.1772   -0.24473
 C 0.4137 0.6331 0.1905   0.037393
 C 0.3903 0.6601 0.2498   -0.198226
 C 0.4106 0.571 0.2937   0.157329
 C 0.4892 0.4832 0.1142   0.765149
 C 0.9919 0.9925 0.46559   0.541717
 C 0.5022 0.48 0.46683   0.5335
 C 0.7756 0.7539 0.02564   0.783292
 C 0.9119 0.8803 0.0623   -0.243746
 C 0.0451 0.8609 0.08213   0.03784
 C 0.1635 0.974 0.1186   -0.164248
 C 0.1452 0.1017 0.1341   0.151585
 C 0.905 0.0139 0.0792   0.185099
 C 0.9816 0.4373 0.27551   0.153872
 C 0.9606 0.5189 0.3228   -0.244742
 C 0.9137 0.6331 0.3095   0.03739
 C 0.8903 0.6601 0.2502   -0.198159
 C 0.9106 0.571 0.2063   0.157368
 C 0.9892 0.4832 0.3858   0.765182
 C 0.4919 0.9925 0.03441   0.541798
 C 0.0022 0.48 0.03317   0.533393
 C 0.7244 0.2461 0.52564   0.783291
 C 0.5881 0.1197 0.5623   -0.243746
 C 0.4549 0.1391 0.58213   0.03784
 C 0.3365 0.026 0.6186   -0.164248
 C 0.3548 0.8983 0.6341   0.151585
 C 0.595 0.9861 0.5792   0.185099
 C 0.5184 0.5627 0.77551   0.153872
 C 0.5394 0.4811 0.8228   -0.244742
 C 0.5863 0.3669 0.8095   0.03739
 C 0.6097 0.3399 0.7502   -0.198159
 C 0.5894 0.429 0.7063   0.157368
 C 0.5108 0.5168 0.8858   0.765181
 C 0.0081 0.0075 0.53441   0.541798
 C 0.4978 0.52 0.53317   0.533393
 N 0.9819 0.876 0.88476   -0.343381
 N 0.0433 0.5395 0.78198   -0.336282
 N 0.5181 0.124 0.38476   -0.343381
 N 0.4567 0.4605 0.28198   -0.336282
 N 0.0181 0.124 0.11524   -0.34339
 N 0.9567 0.4605 0.21802   -0.336299
 N 0.4819 0.876 0.61524   -0.34339
 N 0.5433 0.5395 0.71802   -0.336299
 O 0.328 0.2126 0.99912   -0.726831
 O 0.2235 0.3745 0.97613   -0.73115
 O 0.9492 0.6076 0.60668   -0.684374
 O 0.0482 0.4517 0.57264   -0.787392
 O 0.134 0.6149 0.94346   -0.609429
 O 0.8605 0.4569 0.94095   -0.580456
 O 0.5781 0.1437 0.94439   -0.62684
 O 0.4507 0.8826 0.93619   -0.596171
 O 0.172 0.7874 0.49912   -0.726831
 O 0.2765 0.6255 0.47613   -0.73115
 O 0.5508 0.3924 0.10668   -0.684374
 O 0.4518 0.5483 0.07264   -0.787391
 O 0.366 0.3851 0.44346   -0.609429
 O 0.6395 0.5431 0.44095   -0.580456
 O 0.9219 0.8563 0.44439   -0.62684
 O 0.0493 0.1174 0.43619   -0.596171
 O 0.672 0.7874 0.000880000000002   -0.726829
 O 0.7765 0.6255 0.02387   -0.731146
 O 0.0508 0.3924 0.39332   -0.684379
 O 0.9518 0.5483 0.42736   -0.787384
 O 0.866 0.3851 0.05654   -0.60942
 O 0.1395 0.5431 0.05905   -0.580448
 O 0.4219 0.8563 0.05561   -0.626848
 O 0.5493 0.1174 0.06381   -0.596181
 O 0.828 0.2126 0.50088   -0.726829
 O 0.7235 0.3745 0.52387   -0.731146
 O 0.4492 0.6076 0.89332   -0.684379
 O 0.5482 0.4517 0.92736   -0.787384
 O 0.634 0.6149 0.55654   -0.60942
 O 0.3605 0.4569 0.55905   -0.580448
 O 0.0781 0.1437 0.55561   -0.626848
 O 0.9507 0.8826 0.56381   -0.596181
