{'_ref': 'TBD', '_srcid': 'CAKYAQ_clean', 'submitters': [{'name': 'Dalar Nazarian Jeff Camp and David Sholl', 'email': 'dalar@gatech.edu jcamp6@gatech.edu'}], '_method': 'VASP DFT with PBE;DDEC'}
data_MnH5C10N3O4
_symmetry_space_group_name_H-M   'P 1'
_cell_length_a   7.75630028
_cell_length_b   9.69380025
_cell_length_c   9.69380000
_cell_angle_alpha   65.89999948
_cell_angle_beta   80.69450391
_cell_angle_gamma   80.69450028
_symmetry_Int_Tables_number   1
_chemical_formula_structural   MnH5C10N3O4
_chemical_formula_sum   'Mn2 H10 C20 N6 O8'
_cell_volume   652.857221449
_cell_formula_units_Z   2
loop_
 _symmetry_equiv_pos_site_id
 _symmetry_equiv_pos_as_xyz
  1  'x, y, z'
loop_
 _atom_site_label
 _atom_site_fract_x
 _atom_site_fract_y
 _atom_site_fract_z
 _atom_site_charge
 Mn 0.52501 0.44554 0.88786   1.08457
 Mn 0.02501 0.88786 0.44554   1.08457
 H 0.8676 0.4797 0.2653   0.141154
 H 0.0174 0.2536 0.2606   0.095229
 H 0.834 0.027 0.6812   0.104132
 H 0.6762 0.2413 0.6999   0.131879
 H 0.6655 0.6788 0.2754   0.330503
 H 0.3676 0.2653 0.4797   0.141154
 H 0.5174 0.2606 0.2536   0.095229
 H 0.334 0.6812 0.027   0.104132
 H 0.1762 0.6999 0.2413   0.131879
 H 0.1655 0.2754 0.6788   0.330503
 C 0.2963 0.7054 0.6776   0.66867
 C 0.4322 0.6693 0.5635   -0.012768
 C 0.4206 0.9076 0.2936   0.636435
 C 0.4819 0.7521 0.4085   0.012643
 C 0.8572 0.3891 0.3501   -0.20392
 C 0.9473 0.2516 0.3486   0.18342
 C 0.8383 0.1184 0.5966   0.187345
 C 0.7435 0.247 0.6096   -0.177593
 C 0.7507 0.3865 0.4835   0.028873
 C 0.6388 0.5244 0.4904   0.297716
 C 0.7963 0.6776 0.7054   0.668671
 C 0.9322 0.5635 0.6693   -0.012768
 C 0.9206 0.2936 0.9076   0.636435
 C 0.9819 0.4085 0.7521   0.012643
 C 0.3572 0.3501 0.3891   -0.203922
 C 0.4473 0.3486 0.2516   0.18342
 C 0.3383 0.5966 0.1184   0.187345
 C 0.2435 0.6096 0.247   -0.177594
 C 0.2507 0.4835 0.3865   0.028873
 C 0.1388 0.4904 0.5244   0.297716
 N 0.5345 0.528 0.613   -0.473975
 N 0.6112 0.658 0.3652   -0.266309
 N 0.9374 0.1171 0.4679   -0.378316
 N 0.0345 0.613 0.528   -0.473975
 N 0.1112 0.3652 0.658   -0.266309
 N 0.4374 0.4679 0.1171   -0.378316
 O 0.2975 0.6112 0.813   -0.589516
 O 0.1912 0.8262 0.6322   -0.6069
 O 0.2591 0.9541 0.2971   -0.61066
 O 0.5405 0.9783 0.1979   -0.582613
 O 0.7975 0.813 0.6112   -0.589516
 O 0.6912 0.6322 0.8262   -0.6069
 O 0.7591 0.2971 0.9541   -0.610657
 O 0.0405 0.1979 0.9783   -0.582612
