{'_ref': 'TBD', '_srcid': 'CAKYAQ_clean', 'submitters': [{'name': 'Dalar Nazarian Jeff Camp and David Sholl', 'email': 'dalar@gatech.edu jcamp6@gatech.edu'}], '_method': 'VASP DFT with PBE;DDEC'}
data_ZnH8C17(O2F3)2
_symmetry_space_group_name_H-M   'P 1'
_cell_length_a   7.73000000
_cell_length_b   21.25999993
_cell_length_c   21.26000000
_cell_angle_alpha   120.00000011
_cell_angle_beta   90.00000000
_cell_angle_gamma   90.00000000
_symmetry_Int_Tables_number   1
_chemical_formula_structural   ZnH8C17(O2F3)2
_chemical_formula_sum   'Zn6 H48 C102 O24 F36'
_cell_volume   3025.77509566
_cell_formula_units_Z   6
loop_
 _symmetry_equiv_pos_site_id
 _symmetry_equiv_pos_as_xyz
  1  'x, y, z'
loop_
 _atom_site_label
 _atom_site_fract_x
 _atom_site_fract_y
 _atom_site_fract_z
 _atom_site_charge
 Zn 0.0 0.29909 0.70092   1.02673
 Zn 0.66667 0.40183 0.70091   1.026737
 Zn 0.33333 0.29909 0.59818   1.026627
 Zn 0.0 0.70091 0.29908   1.026729
 Zn 0.66667 0.59817 0.29908   1.026736
 Zn 0.33333 0.70092 0.40183   1.026742
 H 0.1096 0.1534 0.4076   0.09606
 H 0.5653 0.0705 0.4132   0.113853
 H 0.6925 0.1571 0.5193   0.101743
 H 0.9892 0.0648 0.3015   0.104499
 H 0.77627 0.2542 0.8466   0.096074
 H 0.23197 0.3427 0.9295   0.113835
 H 0.35917 0.3622 0.8429   0.101759
 H 0.65587 0.2367 0.9352   0.104511
 H 0.44293 0.5924 0.7458   0.096105
 H 0.89863 0.5868 0.6573   0.113914
 H 0.02583 0.4807 0.6378   0.101756
 H 0.32253 0.6985 0.7633   0.104505
 H 0.1096 0.8466 0.5924   0.09606
 H 0.5653 0.9295 0.5868   0.113853
 H 0.6925 0.8429 0.4807   0.10174
 H 0.9892 0.9352 0.6985   0.1045
 H 0.77627 0.7458 0.1534   0.096074
 H 0.23197 0.6573 0.0705   0.113836
 H 0.35917 0.6378 0.1571   0.101759
 H 0.65587 0.7633 0.0648   0.104512
 H 0.44293 0.4076 0.2542   0.096104
 H 0.89863 0.4132 0.3427   0.113913
 H 0.02583 0.5193 0.3622   0.101758
 H 0.32253 0.3015 0.2367   0.104504
 H 0.55707 0.7458 0.5924   0.096105
 H 0.10137 0.6573 0.5868   0.113912
 H 0.97417 0.6378 0.4807   0.101758
 H 0.67747 0.7633 0.6985   0.104503
 H 0.8904 0.4076 0.1534   0.096061
 H 0.4347 0.4132 0.0705   0.113854
 H 0.3075 0.5193 0.1571   0.101739
 H 0.0108 0.3015 0.0648   0.104502
 H 0.22373 0.8466 0.2542   0.096073
 H 0.76803 0.9295 0.3427   0.113837
 H 0.64083 0.8429 0.3622   0.101762
 H 0.34413 0.9352 0.2367   0.104512
 H 0.55707 0.2542 0.4076   0.096107
 H 0.10137 0.3427 0.4132   0.113913
 H 0.97417 0.3622 0.5193   0.101756
 H 0.67747 0.2367 0.3015   0.104504
 H 0.8904 0.5924 0.8466   0.09606
 H 0.4347 0.5868 0.9295   0.113854
 H 0.3075 0.4807 0.8429   0.101741
 H 0.0108 0.6985 0.9352   0.104501
 H 0.22373 0.1534 0.7458   0.096073
 H 0.76803 0.0705 0.6573   0.113837
 H 0.64083 0.1571 0.6378   0.101762
 H 0.34413 0.0648 0.7633   0.104511
 C 0.0038 0.2189 0.5413   0.724874
 C 0.0002 0.1358 0.4088   0.002745
 C 0.6764 0.0863 0.4115   -0.146855
 C 0.7521 0.1387 0.4757   0.001086
 C 0.9174 0.1635 0.4743   -0.177999
 C 0.9281 0.0831 0.3449   -0.153791
 C 0.7592 0.0569 0.3456   0.084773
 C 0.5409 0.0424 0.255   0.691257
 C 0.67047 0.3224 0.7811   0.725004
 C 0.66687 0.273 0.8642   0.002765
 C 0.34307 0.3252 0.9137   -0.146874
 C 0.41877 0.337 0.8613   0.00108
 C 0.58407 0.3108 0.8365   -0.178068
 C 0.59477 0.2618 0.9169   -0.153823
 C 0.42587 0.2887 0.9431   0.084806
 C 0.20757 0.2126 0.9576   0.691298
 C 0.33713 0.4587 0.6776   0.724884
 C 0.33353 0.5912 0.727   0.002678
 C 0.00973 0.5885 0.6748   -0.146958
 C 0.08543 0.5243 0.663   0.001126
 C 0.25073 0.5257 0.6892   -0.178039
 C 0.26143 0.6551 0.7382   -0.153733
 C 0.09253 0.6544 0.7113   0.084798
 C 0.87423 0.745 0.7874   0.6914
 C 0.0038 0.7811 0.4587   0.72489
 C 0.0002 0.8642 0.5912   0.002748
 C 0.6764 0.9137 0.5885   -0.146856
 C 0.7521 0.8613 0.5243   0.00109
 C 0.9174 0.8365 0.5257   -0.178004
 C 0.9281 0.9169 0.6551   -0.15379
 C 0.7592 0.9431 0.6544   0.084777
 C 0.5409 0.9576 0.745   0.691258
 C 0.67047 0.6776 0.2189   0.725012
 C 0.66687 0.727 0.1358   0.002769
 C 0.34307 0.6748 0.0863   -0.146872
 C 0.41877 0.663 0.1387   0.001083
 C 0.58407 0.6892 0.1635   -0.178077
 C 0.59477 0.7382 0.0831   -0.153822
 C 0.42587 0.7113 0.0569   0.084809
 C 0.20757 0.7874 0.0424   0.691298
 C 0.33713 0.5413 0.3224   0.724896
 C 0.33353 0.4088 0.273   0.002675
 C 0.00973 0.4115 0.3252   -0.146959
 C 0.08543 0.4757 0.337   0.001123
 C 0.25073 0.4743 0.3108   -0.178035
 C 0.26143 0.3449 0.2618   -0.153736
 C 0.09253 0.3456 0.2887   0.084792
 C 0.87423 0.255 0.2126   0.6914
 C 0.66287 0.6776 0.4587   0.724897
 C 0.66647 0.727 0.5912   0.002675
 C 0.99027 0.6748 0.5885   -0.146959
 C 0.91457 0.663 0.5243   0.001125
 C 0.74927 0.6892 0.5257   -0.178032
 C 0.73857 0.7382 0.6551   -0.153737
 C 0.90747 0.7113 0.6544   0.084789
 C 0.12577 0.7874 0.745   0.691399
 C 0.9962 0.5413 0.2189   0.724902
 C 0.9998 0.4088 0.1358   0.002752
 C 0.3236 0.4115 0.0863   -0.146856
 C 0.2479 0.4757 0.1387   0.001092
 C 0.0826 0.4743 0.1635   -0.178016
 C 0.0719 0.3449 0.0831   -0.153788
 C 0.2408 0.3456 0.0569   0.084781
 C 0.4591 0.255 0.0424   0.691257
 C 0.32953 0.7811 0.3224   0.725027
 C 0.33313 0.8642 0.273   0.002768
 C 0.65693 0.9137 0.3252   -0.146871
 C 0.58123 0.8613 0.337   0.001083
 C 0.41593 0.8365 0.3108   -0.178081
 C 0.40523 0.9169 0.2618   -0.153823
 C 0.57413 0.9431 0.2887   0.084809
 C 0.79243 0.9576 0.2126   0.691299
 C 0.66287 0.3224 0.5413   0.724893
 C 0.66647 0.273 0.4088   0.002678
 C 0.99027 0.3252 0.4115   -0.146957
 C 0.91457 0.337 0.4757   0.001125
 C 0.74927 0.3108 0.4743   -0.178038
 C 0.73857 0.2618 0.3449   -0.153735
 C 0.90747 0.2887 0.3456   0.084794
 C 0.12577 0.2126 0.255   0.691399
 C 0.9962 0.4587 0.7811   0.724911
 C 0.9998 0.5912 0.8642   0.002752
 C 0.3236 0.5885 0.9137   -0.146855
 C 0.2479 0.5243 0.8613   0.001091
 C 0.0826 0.5257 0.8365   -0.178018
 C 0.0719 0.6551 0.9169   -0.15379
 C 0.2408 0.6544 0.9431   0.084779
 C 0.4591 0.745 0.9576   0.691257
 C 0.32953 0.2189 0.6776   0.725021
 C 0.33313 0.1358 0.727   0.002768
 C 0.65693 0.0863 0.6748   -0.146871
 C 0.58123 0.1387 0.663   0.001084
 C 0.41593 0.1635 0.6892   -0.178077
 C 0.40523 0.0831 0.7382   -0.153824
 C 0.57413 0.0569 0.7113   0.084807
 C 0.79243 0.0424 0.7874   0.691298
 C 0.66667 0.0 0.2765   -0.298801
 C 0.33333 0.2765 0.0   -0.298801
 C 0.0 0.7235 0.7235   -0.298965
 C 0.66667 0.0 0.7235   -0.298801
 C 0.33333 0.7235 0.0   -0.298801
 C 0.0 0.2765 0.2765   -0.298965
 O 0.9258 0.239 0.6006   -0.620379
 O 0.1462 0.2421 0.5356   -0.593787
 O 0.59247 0.3616 0.761   -0.620417
 O 0.81287 0.2935 0.7579   -0.593847
 O 0.25913 0.3994 0.6384   -0.620377
 O 0.47953 0.4644 0.7065   -0.59378
 O 0.9258 0.761 0.3994   -0.620373
 O 0.1462 0.7579 0.4644   -0.593832
 O 0.59247 0.6384 0.239   -0.620424
 O 0.81287 0.7065 0.2421   -0.59384
 O 0.25913 0.6006 0.3616   -0.6204
 O 0.47953 0.5356 0.2935   -0.59381
 O 0.74087 0.6384 0.3994   -0.620399
 O 0.52047 0.7065 0.4644   -0.593808
 O 0.0742 0.6006 0.239   -0.620395
 O 0.8538 0.5356 0.2421   -0.593824
 O 0.40753 0.761 0.3616   -0.620432
 O 0.18713 0.7579 0.2935   -0.593867
 O 0.74087 0.3616 0.6006   -0.620424
 O 0.52047 0.2935 0.5356   -0.593759
 O 0.0742 0.3994 0.761   -0.620399
 O 0.8538 0.4644 0.7579   -0.59384
 O 0.40753 0.239 0.6384   -0.620398
 O 0.18713 0.2421 0.7065   -0.593863
 F 0.4157 0.0713 0.3018   -0.177283
 F 0.4691 0.0036 0.19   -0.194683
 F 0.6253 0.0976 0.2534   -0.220076
 F 0.08237 0.2305 0.9287   -0.177279
 F 0.13577 0.1864 0.9964   -0.19469
 F 0.29197 0.1558 0.9024   -0.220083
 F 0.74903 0.6982 0.7695   -0.177322
 F 0.80243 0.81 0.8136   -0.194726
 F 0.95863 0.7466 0.8442   -0.220067
 F 0.4157 0.9287 0.6982   -0.177285
 F 0.4691 0.9964 0.81   -0.194682
 F 0.6253 0.9024 0.7466   -0.220076
 F 0.08237 0.7695 0.0713   -0.177279
 F 0.13577 0.8136 0.0036   -0.194689
 F 0.29197 0.8442 0.0976   -0.220083
 F 0.74903 0.3018 0.2305   -0.177321
 F 0.80243 0.19 0.1864   -0.194727
 F 0.95863 0.2534 0.1558   -0.220067
 F 0.25097 0.7695 0.6982   -0.17732
 F 0.19757 0.8136 0.81   -0.194728
 F 0.04137 0.8442 0.7466   -0.220065
 F 0.5843 0.3018 0.0713   -0.177285
 F 0.5309 0.19 0.0036   -0.194681
 F 0.3747 0.2534 0.0976   -0.220075
 F 0.91763 0.9287 0.2305   -0.177279
 F 0.86423 0.9964 0.1864   -0.194691
 F 0.70803 0.9024 0.1558   -0.220087
 F 0.25097 0.2305 0.3018   -0.17732
 F 0.19757 0.1864 0.19   -0.194729
 F 0.04137 0.1558 0.2534   -0.220066
 F 0.5843 0.6982 0.9287   -0.177285
 F 0.5309 0.81 0.9964   -0.19468
 F 0.3747 0.7466 0.9024   -0.220075
 F 0.91763 0.0713 0.7695   -0.177278
 F 0.86423 0.0036 0.8136   -0.194692
 F 0.70803 0.0976 0.8442   -0.220086
