{'_ref': 'TBD', '_srcid': 'CAKYAQ_clean', 'submitters': [{'name': 'Dalar Nazarian Jeff Camp and David Sholl', 'email': 'dalar@gatech.edu jcamp6@gatech.edu'}], '_method': 'VASP DFT with PBE;DDEC'}
data_Zn2H24(C11O4)3
_symmetry_space_group_name_H-M   'P 1'
_cell_length_a   12.45799963
_cell_length_b   17.20890006
_cell_length_c   28.38730000
_cell_angle_alpha   81.60040130
_cell_angle_beta   77.32449953
_cell_angle_gamma   68.77910063
_symmetry_Int_Tables_number   1
_chemical_formula_structural   Zn2H24(C11O4)3
_chemical_formula_sum   'Zn8 H96 C132 O48'
_cell_volume   5520.08671358
_cell_formula_units_Z   4
loop_
 _symmetry_equiv_pos_site_id
 _symmetry_equiv_pos_as_xyz
  1  'x, y, z'
loop_
 _atom_site_label
 _atom_site_fract_x
 _atom_site_fract_y
 _atom_site_fract_z
 _atom_site_charge
 Zn 0.72055 0.86369 0.82821   1.032146
 Zn 0.79628 0.43084 0.25622   1.164556
 Zn 0.58755 0.36369 0.32821   1.03199
 Zn 0.51666 0.93084 0.75622   1.163951
 Zn 0.41245 0.63631 0.67179   1.03199
 Zn 0.48334 0.06916 0.24378   1.163951
 Zn 0.27945 0.13631 0.17179   1.032146
 Zn 0.20372 0.56916 0.74378   1.164556
 H 0.8814 0.0473 0.7605   0.084662
 H 0.941 0.1579 0.7205   0.129365
 H 0.6412 0.2516 0.6646   0.146463
 H 0.5844 0.1399 0.7051   0.096554
 H 0.9572 0.2909 0.6851   0.062281
 H 0.9987 0.2259 0.6439   0.07505
 H 0.6347 0.7058 0.6872   0.100179
 H 0.7156 0.5786 0.653   0.124463
 H 0.9717 0.5072 0.734   0.124165
 H 0.8882 0.6358 0.7682   0.093944
 H 0.3634 0.2248 0.4298   0.098143
 H 0.2338 0.2001 0.5001   0.138527
 H 0.2268 0.4092 0.5506   0.114613
 H 0.3484 0.4339 0.4809   0.09379
 H 0.7199 0.3407 0.4419   0.109837
 H 0.7815 0.3294 0.5148   0.133414
 H 0.0138 0.443 0.4494   0.131639
 H 0.9543 0.4521 0.3761   0.084858
 H 0.819 0.3497 0.5795   0.074222
 H 0.942 0.2766 0.565   0.074983
 H 0.1041 0.3466 0.632   0.07064
 H 0.0723 0.4061 0.5843   0.057713
 H 0.7841 0.4339 0.6453   0.079709
 H 0.8611 0.4795 0.6065   0.075835
 H 0.3108 0.5473 0.2605   0.084489
 H 0.1806 0.6579 0.2205   0.12946
 H 0.4426 0.7516 0.1646   0.147156
 H 0.5706 0.6399 0.2051   0.096621
 H 0.0668 0.7909 0.1851   0.062108
 H 0.1315 0.7259 0.1439   0.074706
 H 0.9723 0.2058 0.1872   0.1005
 H 0.0528 0.0786 0.153   0.124223
 H 0.7871 0.0072 0.234   0.125268
 H 0.7078 0.1358 0.2682   0.092652
 H 0.982 0.7248 0.9298   0.098345
 H 0.066 0.7001 0.000100000000003   0.138716
 H 0.8134 0.9092 0.0506   0.114803
 H 0.7368 0.9339 0.9809   0.093434
 H 0.4975 0.8407 0.9419   0.109761
 H 0.3743 0.8294 0.0148   0.133471
 H 0.0938 0.943 0.9494   0.132076
 H 0.2175 0.9521 0.8761   0.082917
 H 0.2518 0.8497 0.0795   0.073984
 H 0.2164 0.7766 0.065   0.075331
 H 0.9173 0.8466 0.132   0.070341
 H 0.9373 0.9061 0.0843   0.058117
 H 0.1367 0.9339 0.1453   0.079353
 H 0.0529 0.9795 0.1065   0.076374
 H 0.6892 0.4527 0.7395   0.084489
 H 0.8194 0.3421 0.7795   0.129461
 H 0.5574 0.2484 0.8354   0.147156
 H 0.4294 0.3601 0.7949   0.096621
 H 0.9332 0.2091 0.8149   0.062108
 H 0.8685 0.2741 0.8561   0.074706
 H 0.0277 0.7942 0.8128   0.1005
 H 0.9472 0.9214 0.847   0.124223
 H 0.2129 0.9928 0.766   0.125268
 H 0.2922 0.8642 0.7318   0.092652
 H 0.018 0.2752 0.0702   0.098345
 H 0.934 0.2999 0.9999   0.138716
 H 0.1866 0.0908 0.9494   0.114803
 H 0.2632 0.0661 0.0191   0.093433
 H 0.5025 0.1593 0.0581   0.109761
 H 0.6257 0.1706 0.9852   0.133471
 H 0.9062 0.057 0.0506   0.132076
 H 0.7825 0.0479 0.1239   0.082917
 H 0.7482 0.1503 0.9205   0.073984
 H 0.7836 0.2234 0.935   0.075331
 H 0.0827 0.1534 0.868   0.070341
 H 0.0627 0.0939 0.9157   0.058117
 H 0.8633 0.0661 0.8547   0.079353
 H 0.9471 0.0205 0.8935   0.076374
 H 0.1186 0.9527 0.2395   0.084662
 H 0.059 0.8421 0.2795   0.129365
 H 0.3588 0.7484 0.3354   0.146463
 H 0.4156 0.8601 0.2949   0.096555
 H 0.0428 0.7091 0.3149   0.062282
 H 0.0013 0.7741 0.3561   0.07505
 H 0.3653 0.2942 0.3128   0.100179
 H 0.2844 0.4214 0.347   0.124463
 H 0.0283 0.4928 0.266   0.124165
 H 0.1118 0.3642 0.2318   0.093944
 H 0.6366 0.7752 0.5702   0.098143
 H 0.7662 0.7999 0.4999   0.138527
 H 0.7732 0.5908 0.4494   0.114613
 H 0.6516 0.5661 0.5191   0.09379
 H 0.2801 0.6593 0.5581   0.109837
 H 0.2185 0.6706 0.4852   0.133414
 H 0.9862 0.557 0.5506   0.131639
 H 0.0457 0.5479 0.6239   0.084858
 H 0.181 0.6503 0.4205   0.074222
 H 0.058 0.7234 0.435   0.074983
 H 0.8959 0.6534 0.368   0.07064
 H 0.9277 0.5939 0.4157   0.057713
 H 0.2159 0.5661 0.3547   0.079709
 H 0.1389 0.5205 0.3935   0.075835
 C 0.68892 0.01204 0.76132   0.747418
 C 0.72669 0.0835 0.73692   -0.222588
 C 0.8328 0.08879 0.74101   0.049933
 C 0.86915 0.15388 0.71702   -0.287042
 C 0.798 0.21294 0.68786   0.305988
 C 0.69051 0.20964 0.68374   -0.250415
 C 0.65669 0.14363 0.70819   0.017877
 C 0.94081 0.27997 0.65461   0.063864
 C 0.94636 0.35074 0.61554   -0.036322
 C 0.70518 0.76723 0.75161   0.745421
 C 0.7543 0.68487 0.73053   -0.220147
 C 0.70366 0.66554 0.69654   0.049518
 C 0.75114 0.59 0.67632   -0.25985
 C 0.85028 0.53077 0.68987   0.298246
 C 0.90318 0.54771 0.72453   -0.249254
 C 0.85376 0.62435 0.74453   0.015861
 C 0.44941 0.35041 0.40297   0.648239
 C 0.36659 0.33227 0.44855   -0.187484
 C 0.33407 0.26305 0.45441   -0.003919
 C 0.25747 0.24764 0.49642   -0.254793
 C 0.21825 0.30306 0.53184   0.303207
 C 0.25338 0.37147 0.52577   -0.263226
 C 0.32589 0.38587 0.48455   0.018241
 C 0.7933 0.40121 0.35479   0.744917
 C 0.78 0.36146 0.44334   0.039963
 C 0.81563 0.35541 0.48673   -0.277824
 C 0.90145 0.38732 0.48938   0.312015
 C 0.95357 0.42237 0.44789   -0.248173
 C 0.91832 0.42763 0.40433   0.020913
 C 0.90503 0.33602 0.57232   0.055
 C 0.07204 0.35227 0.60225   0.076808
 C 0.86424 0.43555 0.63337   0.055101
 C 0.83136 0.39768 0.4014   -0.218511
 C 0.53772 0.51204 0.26132   0.74607
 C 0.45289 0.5835 0.23692   -0.222439
 C 0.3374 0.58879 0.24101   0.050305
 C 0.25995 0.65388 0.21702   -0.287232
 C 0.3012 0.71294 0.18786   0.3067
 C 0.41611 0.70964 0.18374   -0.25125
 C 0.49149 0.64363 0.20819   0.017488
 C 0.12461 0.77997 0.15461   0.064843
 C 0.08736 0.85074 0.11554   -0.036653
 C 0.77598 0.26723 0.25161   0.746479
 C 0.8303 0.18487 0.23053   -0.221051
 C 0.93426 0.16554 0.19654   0.049408
 C 0.98254 0.09 0.17632   -0.2606
 C 0.92908 0.03077 0.18987   0.299904
 C 0.82458 0.04771 0.22453   -0.250641
 C 0.77736 0.12435 0.24453   0.01741
 C 0.79721 0.85041 0.90297   0.64847
 C 0.85259 0.83227 0.94855   -0.188235
 C 0.94847 0.76305 0.95441   -0.003036
 C 0.99847 0.74764 0.99642   -0.256528
 C 0.94685 0.80306 0.03184   0.303872
 C 0.84938 0.87147 0.02577   -0.263805
 C 0.80369 0.88587 0.98455   0.019022
 C 0.4507 0.90121 0.85479   0.744007
 C 0.4152 0.86146 0.94334   0.038339
 C 0.34223 0.85541 0.98673   -0.277008
 C 0.22185 0.88732 0.98938   0.311116
 C 0.17617 0.92237 0.94789   -0.248245
 C 0.24972 0.92763 0.90433   0.022618
 C 0.18663 0.83602 0.07232   0.054789
 C 0.97344 0.85227 0.10225   0.076441
 C 0.06684 0.93555 0.13337   0.054262
 C 0.36956 0.89768 0.9014   -0.21695
 C 0.46228 0.48796 0.73868   0.74607
 C 0.54711 0.4165 0.76308   -0.222439
 C 0.6626 0.41121 0.75899   0.050305
 C 0.74005 0.34612 0.78298   -0.287232
 C 0.6988 0.28706 0.81214   0.3067
 C 0.58389 0.29036 0.81626   -0.25125
 C 0.50851 0.35637 0.79181   0.017488
 C 0.87539 0.22003 0.84539   0.064843
 C 0.91264 0.14926 0.88446   -0.036653
 C 0.22402 0.73277 0.74839   0.746479
 C 0.1697 0.81513 0.76947   -0.221051
 C 0.06574 0.83446 0.80346   0.049408
 C 0.01746 0.91 0.82368   -0.2606
 C 0.07092 0.96923 0.81013   0.299904
 C 0.17542 0.95229 0.77547   -0.250641
 C 0.22264 0.87565 0.75547   0.01741
 C 0.20279 0.14959 0.09703   0.64847
 C 0.14741 0.16773 0.05145   -0.188235
 C 0.05153 0.23695 0.04559   -0.003036
 C 0.00153 0.25236 0.00358   -0.256528
 C 0.05315 0.19694 0.96816   0.303872
 C 0.15062 0.12853 0.97423   -0.263805
 C 0.19631 0.11413 0.01545   0.019022
 C 0.5493 0.09879 0.14521   0.744007
 C 0.5848 0.13854 0.05666   0.038339
 C 0.65777 0.14459 0.01327   -0.277008
 C 0.77815 0.11268 0.01062   0.311116
 C 0.82383 0.07763 0.05211   -0.248245
 C 0.75028 0.07237 0.09567   0.022618
 C 0.81337 0.16398 0.92768   0.054788
 C 0.02656 0.14773 0.89775   0.076441
 C 0.93316 0.06445 0.86663   0.054262
 C 0.63044 0.10232 0.0986   -0.21695
 C 0.31108 0.98796 0.23868   0.747418
 C 0.27331 0.9165 0.26308   -0.222588
 C 0.1672 0.91121 0.25899   0.049933
 C 0.13085 0.84612 0.28298   -0.287042
 C 0.202 0.78706 0.31214   0.305988
 C 0.30949 0.79036 0.31626   -0.250415
 C 0.34331 0.85637 0.29181   0.017877
 C 0.05919 0.72003 0.34539   0.063864
 C 0.05364 0.64926 0.38446   -0.036322
 C 0.29482 0.23277 0.24839   0.745421
 C 0.2457 0.31513 0.26947   -0.220147
 C 0.29634 0.33446 0.30346   0.049518
 C 0.24886 0.41 0.32368   -0.25985
 C 0.14972 0.46923 0.31013   0.298246
 C 0.09682 0.45229 0.27547   -0.249254
 C 0.14624 0.37565 0.25547   0.015861
 C 0.55059 0.64959 0.59703   0.648239
 C 0.63341 0.66773 0.55145   -0.187484
 C 0.66593 0.73695 0.54559   -0.003919
 C 0.74253 0.75236 0.50358   -0.254793
 C 0.78175 0.69694 0.46816   0.303207
 C 0.74662 0.62853 0.47423   -0.263226
 C 0.67411 0.61413 0.51545   0.018241
 C 0.2067 0.59879 0.64521   0.744916
 C 0.22 0.63854 0.55666   0.039963
 C 0.18437 0.64459 0.51327   -0.277824
 C 0.09855 0.61268 0.51062   0.312015
 C 0.04643 0.57763 0.55211   -0.248173
 C 0.08168 0.57237 0.59567   0.020913
 C 0.09497 0.66398 0.42768   0.055
 C 0.92796 0.64773 0.39775   0.076808
 C 0.13576 0.56445 0.36663   0.055101
 C 0.16864 0.60232 0.5986   -0.218511
 O 0.75908 0.78024 0.7804   -0.593691
 O 0.75241 0.95857 0.78853   -0.586906
 O 0.90734 0.45385 0.67165   -0.27893
 O 0.71847 0.36785 0.35495   -0.639264
 O 0.83929 0.43517 0.31763   -0.645521
 O 0.14338 0.28422 0.57262   -0.313846
 O 0.46456 0.4187 0.39758   -0.601487
 O 0.93712 0.38898 0.53122   -0.262802
 O 0.5939 0.01062 0.75318   -0.695519
 O 0.49797 0.29628 0.37338   -0.594082
 O 0.6123 0.82013 0.73807   -0.680091
 O 0.82437 0.27858 0.66142   -0.268108
 O 0.68028 0.28024 0.2804   -0.594094
 O 0.50049 0.45857 0.28853   -0.586175
 O 0.96716 0.95385 0.17165   -0.278177
 O 0.55873 0.86785 0.85495   -0.638929
 O 0.40791 0.93517 0.81763   -0.645073
 O 0.99978 0.78422 0.07262   -0.313686
 O 0.71916 0.9187 0.89758   -0.601672
 O 0.14268 0.88898 0.03122   -0.26236
 O 0.6423 0.51062 0.25318   -0.695497
 O 0.83237 0.79628 0.87338   -0.593868
 O 0.8295 0.32013 0.23807   -0.680914
 O 0.23563 0.77858 0.16142   -0.268057
 O 0.31972 0.71976 0.7196   -0.594094
 O 0.49951 0.54143 0.71147   -0.586175
 O 0.03284 0.04615 0.82835   -0.278177
 O 0.44127 0.13215 0.14505   -0.638929
 O 0.59209 0.06483 0.18237   -0.645073
 O 0.000219999999999 0.21578 0.92738   -0.313686
 O 0.28084 0.0813 0.10242   -0.601672
 O 0.85732 0.11102 0.96878   -0.26236
 O 0.3577 0.48938 0.74682   -0.695497
 O 0.16763 0.20372 0.12662   -0.593868
 O 0.1705 0.67987 0.76193   -0.680914
 O 0.76437 0.22142 0.83858   -0.268057
 O 0.24092 0.21976 0.2196   -0.593691
 O 0.24759 0.04143 0.21147   -0.586906
 O 0.09266 0.54615 0.32835   -0.27893
 O 0.28153 0.63215 0.64505   -0.639264
 O 0.16071 0.56483 0.68237   -0.645521
 O 0.85662 0.71578 0.42738   -0.313846
 O 0.53544 0.5813 0.60242   -0.601487
 O 0.06288 0.61102 0.46878   -0.262802
 O 0.4061 0.98938 0.24682   -0.695519
 O 0.50203 0.70372 0.62662   -0.594082
 O 0.3877 0.17987 0.26193   -0.680091
 O 0.17563 0.72142 0.33858   -0.268108
