{'_ref': 'TBD', '_srcid': 'CAKYAQ_clean', 'submitters': [{'name': 'Dalar Nazarian Jeff Camp and David Sholl', 'email': 'dalar@gatech.edu jcamp6@gatech.edu'}], '_method': 'VASP DFT with PBE;DDEC'}
data_ZnH6(CO)8
_symmetry_space_group_name_H-M   'P 1'
_cell_length_a   8.94000000
_cell_length_b   12.47999950
_cell_length_c   14.02000000
_cell_angle_alpha   90.00000000
_cell_angle_beta   90.00000000
_cell_angle_gamma   91.72999864
_symmetry_Int_Tables_number   1
_chemical_formula_structural   ZnH6(CO)8
_chemical_formula_sum   'Zn4 H24 C32 O32'
_cell_volume   1563.51517157
_cell_formula_units_Z   4
loop_
 _symmetry_equiv_pos_site_id
 _symmetry_equiv_pos_as_xyz
  1  'x, y, z'
loop_
 _atom_site_label
 _atom_site_fract_x
 _atom_site_fract_y
 _atom_site_fract_z
 _atom_site_charge
 Zn 0.75 0.25 0.32633   0.999897
 Zn 0.75 0.25 0.83874   0.999127
 Zn 0.25 0.75 0.67367   0.999897
 Zn 0.25 0.75 0.16126   0.999127
 H 0.441 0.4646 0.1525   0.163536
 H 0.4511 0.3557 0.0939   0.155504
 H 0.6222 0.5468 0.0556   0.119554
 H 0.0258 0.4976 0.6622   0.157137
 H 0.0648 0.3807 0.6247   0.159594
 H 0.8491 0.5087 0.5326   0.127135
 H 0.059 0.0354 0.1525   0.163536
 H 0.0489 0.1443 0.0939   0.155501
 H 0.8778 0.9532 0.0556   0.119553
 H 0.4742 0.0024 0.6622   0.157137
 H 0.4352 0.1193 0.6247   0.159586
 H 0.6509 0.9913 0.5326   0.127135
 H 0.559 0.5354 0.8475   0.163536
 H 0.5489 0.6443 0.9061   0.155502
 H 0.3778 0.4532 0.9444   0.119552
 H 0.9742 0.5024 0.3378   0.157137
 H 0.9352 0.6193 0.3753   0.159592
 H 0.1509 0.4913 0.4674   0.127133
 H 0.941 0.9646 0.8475   0.163535
 H 0.9511 0.8557 0.9061   0.1555
 H 0.1222 0.0468 0.9444   0.11955
 H 0.5258 0.9976 0.3378   0.157137
 H 0.5648 0.8807 0.3753   0.159584
 H 0.3491 0.0087 0.4674   0.127133
 C 0.6243 0.3783 0.1883   0.652916
 C 0.5105 0.4185 0.1175   -0.327821
 C 0.5682 0.481 0.0313   -0.100033
 C 0.6812 0.4168 0.9733   0.589738
 C 0.8539 0.3849 0.6872   0.663389
 C 0.9846 0.4336 0.6284   -0.330415
 C 0.9416 0.4658 0.5277   -0.12032
 C 0.9042 0.3705 0.4672   0.608212
 C 0.8757 0.1217 0.1883   0.652917
 C 0.9895 0.0815 0.1175   -0.327821
 C 0.9318 0.019 0.0313   -0.100033
 C 0.8188 0.0832 0.9733   0.589738
 C 0.6461 0.1151 0.6872   0.663388
 C 0.5154 0.0664 0.6284   -0.330412
 C 0.5584 0.0342 0.5277   -0.120321
 C 0.5958 0.1295 0.4672   0.608213
 C 0.3757 0.6217 0.8117   0.652916
 C 0.4895 0.5815 0.8825   -0.327821
 C 0.4318 0.519 0.9687   -0.100031
 C 0.3188 0.5832 0.0267   0.589738
 C 0.1461 0.6151 0.3128   0.663389
 C 0.0154 0.5664 0.3716   -0.330414
 C 0.0584 0.5342 0.4723   -0.120319
 C 0.0958 0.6295 0.5328   0.608212
 C 0.1243 0.8783 0.8117   0.652916
 C 0.0105 0.9185 0.8825   -0.32782
 C 0.0682 0.981 0.9687   -0.100031
 C 0.1812 0.9168 0.0267   0.589738
 C 0.3539 0.8849 0.3128   0.663388
 C 0.4846 0.9336 0.3716   -0.330411
 C 0.4416 0.9658 0.4723   -0.12032
 C 0.4042 0.8705 0.5328   0.608213
 O 0.5848 0.3031 0.2454   -0.517426
 O 0.8142 0.4394 0.9737   -0.316731
 O 0.6227 0.3366 0.9223   -0.535385
 O 0.8996 0.3353 0.7692   -0.524236
 O 0.7266 0.3932 0.6683   -0.388214
 O 0.7845 0.372 0.4146   -0.504485
 O 0.9888 0.2934 0.4625   -0.359921
 O 0.755 0.4252 0.1934   -0.371228
 O 0.9152 0.1969 0.2454   -0.517428
 O 0.6858 0.0606 0.9737   -0.316731
 O 0.8773 0.1634 0.9223   -0.535385
 O 0.6004 0.1647 0.7692   -0.524236
 O 0.7734 0.1068 0.6683   -0.388215
 O 0.7155 0.128 0.4146   -0.504485
 O 0.5112 0.2066 0.4625   -0.359924
 O 0.745 0.0748 0.1934   -0.371228
 O 0.4152 0.6969 0.7546   -0.517427
 O 0.1858 0.5606 0.0263   -0.316732
 O 0.3773 0.6634 0.0777   -0.535385
 O 0.1004 0.6647 0.2308   -0.524236
 O 0.2734 0.6068 0.3317   -0.388215
 O 0.2155 0.628 0.5854   -0.504485
 O 0.0112 0.7066 0.5375   -0.359921
 O 0.245 0.5748 0.8066   -0.371229
 O 0.0848 0.8031 0.7546   -0.517428
 O 0.3142 0.9394 0.0263   -0.316732
 O 0.1227 0.8366 0.0777   -0.535385
 O 0.3996 0.8353 0.2308   -0.524236
 O 0.2266 0.8932 0.3317   -0.388215
 O 0.2845 0.872 0.5854   -0.504486
 O 0.4888 0.7934 0.5375   -0.359924
 O 0.255 0.9252 0.8066   -0.371229
