{'_ref': 'TBD', '_srcid': 'CAKYAQ_clean', 'submitters': [{'name': 'Dalar Nazarian Jeff Camp and David Sholl', 'email': 'dalar@gatech.edu jcamp6@gatech.edu'}], '_method': 'VASP DFT with PBE;DDEC'}
data_ZnH12C20NO5
_symmetry_space_group_name_H-M   'P 1'
_cell_length_a   14.01369990
_cell_length_b   14.01369950
_cell_length_c   26.04100000
_cell_angle_alpha   79.24910022
_cell_angle_beta   79.24910053
_cell_angle_gamma   78.61070165
_symmetry_Int_Tables_number   1
_chemical_formula_structural   ZnH12C20NO5
_chemical_formula_sum   'Zn8 H96 C160 N8 O40'
_cell_volume   4865.46403624
_cell_formula_units_Z   8
loop_
 _symmetry_equiv_pos_site_id
 _symmetry_equiv_pos_as_xyz
  1  'x, y, z'
loop_
 _atom_site_label
 _atom_site_fract_x
 _atom_site_fract_y
 _atom_site_fract_z
 _atom_site_charge
 Zn 0.19834 0.88352 0.08743   0.939269
 Zn 0.42889 0.82033 0.06868   0.911617
 Zn 0.88352 0.19834 0.58743   0.939267
 Zn 0.82033 0.42889 0.56868   0.911617
 Zn 0.11648 0.80166 0.41257   0.939267
 Zn 0.17967 0.57111 0.43132   0.911617
 Zn 0.80166 0.11648 0.91257   0.939269
 Zn 0.57111 0.17967 0.93132   0.911617
 H 0.0426 0.1588 0.2845   0.09236
 H 0.7575 0.9119 0.9957   0.14091
 H 0.5958 0.9038 0.9956   0.087063
 H 0.3627 0.9723 0.2349   0.106624
 H 0.1054 0.0302 0.2366   0.107038
 H 0.4226 0.5022 0.1125   0.1125
 H 0.2552 0.2666 0.1317   0.104045
 H 0.8555 0.1987 0.4216   0.101604
 H 0.9988 0.1932 0.1095   0.106341
 H 0.2922 0.1226 0.0962   0.101092
 H 0.3183 0.1129 0.2719   0.103911
 H 0.3901 0.3473 0.1534   0.099703
 H 0.5823 0.7317 0.1322   0.09808
 H 0.921 0.8704 0.9929   0.129478
 H 0.7436 0.7336 0.1354   0.14049
 H 0.1819 0.6247 0.2016   0.106815
 H 0.0759 0.8831 0.0022   0.072517
 H 0.9466 0.459 0.4019   0.094969
 H 0.8577 0.8061 0.1501   0.116285
 H 0.017 0.816 0.1549   0.09179
 H 0.1588 0.4714 0.2467   0.099257
 H 0.9353 0.3199 0.1568   0.104712
 H 0.8825 0.2019 0.3303   0.090534
 H 0.978 0.4612 0.3113   0.087957
 H 0.1588 0.0426 0.7845   0.09236
 H 0.9119 0.7575 0.4957   0.14091
 H 0.9038 0.5958 0.4956   0.087063
 H 0.9723 0.3627 0.7349   0.106624
 H 0.0302 0.1054 0.7366   0.107038
 H 0.5022 0.4226 0.6125   0.1125
 H 0.2666 0.2552 0.6317   0.104045
 H 0.1987 0.8555 0.9216   0.101604
 H 0.1932 0.9988 0.6095   0.106341
 H 0.1226 0.2922 0.5962   0.101092
 H 0.1129 0.3183 0.7719   0.103911
 H 0.3473 0.3901 0.6534   0.099703
 H 0.7317 0.5823 0.6322   0.09808
 H 0.8704 0.921 0.4929   0.129478
 H 0.7336 0.7436 0.6354   0.14049
 H 0.6247 0.1819 0.7016   0.106815
 H 0.8831 0.0759 0.5022   0.072517
 H 0.459 0.9466 0.9019   0.094969
 H 0.8061 0.8577 0.6501   0.116285
 H 0.816 0.017 0.6549   0.09179
 H 0.4714 0.1588 0.7467   0.099257
 H 0.3199 0.9353 0.6568   0.104712
 H 0.2019 0.8825 0.8303   0.090534
 H 0.4612 0.978 0.8113   0.087957
 H 0.8412 0.9574 0.2155   0.09236
 H 0.0881 0.2425 0.5043   0.14091
 H 0.0962 0.4042 0.5044   0.087063
 H 0.0277 0.6373 0.2651   0.106624
 H 0.9698 0.8946 0.2634   0.107038
 H 0.4978 0.5774 0.3875   0.1125
 H 0.7334 0.7448 0.3683   0.104045
 H 0.8013 0.1445 0.0784   0.101604
 H 0.8068 0.0012 0.3905   0.106341
 H 0.8774 0.7078 0.4038   0.101092
 H 0.8871 0.6817 0.2281   0.103911
 H 0.6527 0.6099 0.3466   0.099703
 H 0.2683 0.4177 0.3678   0.09808
 H 0.1296 0.079 0.5071   0.129478
 H 0.2664 0.2564 0.3646   0.14049
 H 0.3753 0.8181 0.2984   0.106814
 H 0.1169 0.9241 0.4978   0.072517
 H 0.541 0.0534 0.0981   0.094969
 H 0.1939 0.1423 0.3499   0.116285
 H 0.184 0.983 0.3451   0.09179
 H 0.5286 0.8412 0.2533   0.099257
 H 0.6801 0.0647 0.3432   0.104712
 H 0.7981 0.1175 0.1697   0.090534
 H 0.5388 0.022 0.1887   0.087957
 H 0.9574 0.8412 0.7155   0.09236
 H 0.2425 0.0881 0.0043   0.14091
 H 0.4042 0.0962 0.0044   0.087063
 H 0.6373 0.0277 0.7651   0.106624
 H 0.8946 0.9698 0.7634   0.107038
 H 0.5774 0.4978 0.8875   0.1125
 H 0.7448 0.7334 0.8683   0.104045
 H 0.1445 0.8013 0.5784   0.101604
 H 0.0012 0.8068 0.8905   0.106341
 H 0.7078 0.8774 0.9038   0.101092
 H 0.6817 0.8871 0.7281   0.103911
 H 0.6099 0.6527 0.8466   0.099703
 H 0.4177 0.2683 0.8678   0.09808
 H 0.079 0.1296 0.0071   0.129478
 H 0.2564 0.2664 0.8646   0.14049
 H 0.8181 0.3753 0.7984   0.106814
 H 0.9241 0.1169 0.9978   0.072517
 H 0.0534 0.541 0.5981   0.094969
 H 0.1423 0.1939 0.8499   0.116285
 H 0.983 0.184 0.8451   0.09179
 H 0.8412 0.5286 0.7533   0.099257
 H 0.0647 0.6801 0.8432   0.104712
 H 0.1175 0.7981 0.6697   0.090534
 H 0.022 0.5388 0.6887   0.087957
 C 0.33256 0.03256 0.16185   -0.101084
 C 0.03445 0.16605 0.24925   -0.065618
 C 0.72304 0.87524 0.024   -0.183351
 C 0.62598 0.87018 0.02426   0.167556
 C 0.36412 0.93932 0.13836   0.642226
 C 0.33995 0.03135 0.21445   -0.03521
 C 0.06157 0.10017 0.16786   -0.097897
 C 0.07246 0.08926 0.22047   -0.055977
 C 0.31785 0.67885 0.12266   0.689711
 C 0.36712 0.49632 0.13798   -0.066491
 C 0.27536 0.20736 0.15268   -0.078556
 C 0.8788 0.252 0.39923   -0.063183
 C 0.9839 0.2543 0.22524   -0.090355
 C 0.8749 0.3311 0.47897   0.684701
 C 0.0086 0.1866 0.14448   -0.072686
 C 0.29883 0.12143 0.13115   -0.047382
 C 0.2817 0.2059 0.20573   -0.091312
 C 0.2688 0.3938 0.20232   -0.094231
 C 0.76904 0.82524 0.0663   0.105444
 C 0.31439 0.11519 0.23641   -0.064372
 C 0.34822 0.40342 0.16324   -0.077622
 C 0.61797 0.76877 0.10454   0.181616
 C 0.9389 0.8583 0.0265   -0.179897
 C 0.10985 0.02065 0.13614   0.600131
 C 0.87201 0.83281 0.07008   0.093744
 C 0.8959 0.3291 0.42045   -0.120874
 C 0.71461 0.76981 0.10684   -0.177291
 C 0.30282 0.57962 0.15116   -0.104276
 C 0.2246 0.569 0.1919   -0.04862
 C 0.248 0.2954 0.23174   0.431623
 C 0.032 0.866 0.03247   0.17845
 C 0.9339 0.4075 0.38752   -0.064851
 C 0.9017 0.8197 0.1193   -0.180452
 C 0.9971 0.8273 0.12191   0.156414
 C 0.9527 0.3399 0.25256   0.426525
 C 0.9343 0.3319 0.31113   -0.064532
 C 0.2093 0.4771 0.2182   -0.046648
 C 0.9706 0.2622 0.17282   -0.057476
 C 0.8962 0.253 0.34448   -0.086269
 C 0.9527 0.4087 0.33331   -0.044411
 C 0.03256 0.33256 0.66185   -0.101084
 C 0.16605 0.03445 0.74925   -0.065618
 C 0.87524 0.72304 0.524   -0.183351
 C 0.87018 0.62598 0.52426   0.167556
 C 0.93932 0.36412 0.63836   0.642226
 C 0.03135 0.33995 0.71445   -0.03521
 C 0.10017 0.06157 0.66786   -0.097897
 C 0.08926 0.07246 0.72047   -0.055977
 C 0.67885 0.31785 0.62266   0.68971
 C 0.49632 0.36712 0.63798   -0.066491
 C 0.20736 0.27536 0.65268   -0.078556
 C 0.252 0.8788 0.89923   -0.063183
 C 0.2543 0.9839 0.72524   -0.090355
 C 0.3311 0.8749 0.97897   0.684702
 C 0.1866 0.0086 0.64448   -0.072686
 C 0.12143 0.29883 0.63115   -0.047382
 C 0.2059 0.2817 0.70573   -0.091312
 C 0.3938 0.2688 0.70232   -0.094231
 C 0.82524 0.76904 0.5663   0.105444
 C 0.11519 0.31439 0.73641   -0.064372
 C 0.40342 0.34822 0.66324   -0.077622
 C 0.76877 0.61797 0.60454   0.181616
 C 0.8583 0.9389 0.5265   -0.179897
 C 0.02065 0.10985 0.63614   0.600131
 C 0.83281 0.87201 0.57008   0.093744
 C 0.3291 0.8959 0.92045   -0.120875
 C 0.76981 0.71461 0.60684   -0.177291
 C 0.57962 0.30282 0.65116   -0.104275
 C 0.569 0.2246 0.6919   -0.048621
 C 0.2954 0.248 0.73174   0.431623
 C 0.866 0.032 0.53247   0.17845
 C 0.4075 0.9339 0.88752   -0.064851
 C 0.8197 0.9017 0.6193   -0.180452
 C 0.8273 0.9971 0.62191   0.156414
 C 0.3399 0.9527 0.75256   0.426525
 C 0.3319 0.9343 0.81113   -0.064532
 C 0.4771 0.2093 0.7182   -0.046648
 C 0.2622 0.9706 0.67282   -0.057476
 C 0.253 0.8962 0.84448   -0.086269
 C 0.4087 0.9527 0.83331   -0.044411
 C 0.96744 0.66744 0.33815   -0.101084
 C 0.83395 0.96555 0.25075   -0.065618
 C 0.12476 0.27696 0.476   -0.183351
 C 0.12982 0.37402 0.47574   0.167556
 C 0.06068 0.63588 0.36164   0.642226
 C 0.96865 0.66005 0.28555   -0.03521
 C 0.89983 0.93843 0.33214   -0.097897
 C 0.91074 0.92754 0.27953   -0.055977
 C 0.32115 0.68215 0.37734   0.68971
 C 0.50368 0.63288 0.36202   -0.066491
 C 0.79264 0.72464 0.34732   -0.078556
 C 0.748 0.1212 0.10077   -0.063183
 C 0.7457 0.0161 0.27476   -0.090355
 C 0.6689 0.1251 0.02103   0.684702
 C 0.8134 0.9914 0.35552   -0.072686
 C 0.87857 0.70117 0.36885   -0.047382
 C 0.7941 0.7183 0.29427   -0.091312
 C 0.6062 0.7312 0.29768   -0.094231
 C 0.17476 0.23096 0.4337   0.105444
 C 0.88481 0.68561 0.26359   -0.064372
 C 0.59658 0.65178 0.33676   -0.077621
 C 0.23123 0.38203 0.39546   0.181616
 C 0.1417 0.0611 0.4735   -0.179897
 C 0.97935 0.89015 0.36386   0.600131
 C 0.16719 0.12799 0.42992   0.093744
 C 0.6709 0.1041 0.07955   -0.120875
 C 0.23019 0.28539 0.39316   -0.177291
 C 0.42038 0.69718 0.34884   -0.104275
 C 0.431 0.7754 0.3081   -0.048621
 C 0.7046 0.752 0.26826   0.431623
 C 0.134 0.968 0.46753   0.17845
 C 0.5925 0.0661 0.11248   -0.064851
 C 0.1803 0.0983 0.3807   -0.180452
 C 0.1727 0.0029 0.37809   0.156414
 C 0.6601 0.0473 0.24744   0.426526
 C 0.6681 0.0657 0.18887   -0.064533
 C 0.5229 0.7907 0.2818   -0.046648
 C 0.7378 0.0294 0.32718   -0.057476
 C 0.747 0.1038 0.15552   -0.086269
 C 0.5913 0.0473 0.16669   -0.044411
 C 0.66744 0.96744 0.83815   -0.101084
 C 0.96555 0.83395 0.75075   -0.065618
 C 0.27696 0.12476 0.976   -0.183351
 C 0.37402 0.12982 0.97574   0.167556
 C 0.63588 0.06068 0.86164   0.642226
 C 0.66005 0.96865 0.78555   -0.03521
 C 0.93843 0.89983 0.83214   -0.097897
 C 0.92754 0.91074 0.77953   -0.055977
 C 0.68215 0.32115 0.87734   0.689711
 C 0.63288 0.50368 0.86202   -0.066491
 C 0.72464 0.79264 0.84732   -0.078556
 C 0.1212 0.748 0.60077   -0.063183
 C 0.0161 0.7457 0.77476   -0.090355
 C 0.1251 0.6689 0.52103   0.684701
 C 0.9914 0.8134 0.85552   -0.072686
 C 0.70117 0.87857 0.86885   -0.047382
 C 0.7183 0.7941 0.79427   -0.091312
 C 0.7312 0.6062 0.79768   -0.094231
 C 0.23096 0.17476 0.9337   0.105444
 C 0.68561 0.88481 0.76359   -0.064372
 C 0.65178 0.59658 0.83676   -0.077621
 C 0.38203 0.23123 0.89546   0.181616
 C 0.0611 0.1417 0.9735   -0.179897
 C 0.89015 0.97935 0.86386   0.600131
 C 0.12799 0.16719 0.92992   0.093744
 C 0.1041 0.6709 0.57955   -0.120874
 C 0.28539 0.23019 0.89316   -0.177291
 C 0.69718 0.42038 0.84884   -0.104276
 C 0.7754 0.431 0.8081   -0.04862
 C 0.752 0.7046 0.76826   0.431623
 C 0.968 0.134 0.96753   0.17845
 C 0.0661 0.5925 0.61248   -0.064851
 C 0.0983 0.1803 0.8807   -0.180452
 C 0.0029 0.1727 0.87809   0.156414
 C 0.0473 0.6601 0.74744   0.426526
 C 0.0657 0.6681 0.68887   -0.064533
 C 0.7907 0.5229 0.7818   -0.046648
 C 0.0294 0.7378 0.82718   -0.057476
 C 0.1038 0.747 0.65552   -0.086269
 C 0.0473 0.5913 0.66669   -0.044411
 N 0.06287 0.85047 0.07845   -0.319094
 N 0.57268 0.8185 0.06442   -0.345137
 N 0.85047 0.06287 0.57845   -0.319094
 N 0.8185 0.57268 0.56442   -0.345137
 N 0.14953 0.93713 0.42155   -0.319094
 N 0.1815 0.42732 0.43558   -0.345137
 N 0.93713 0.14953 0.92155   -0.319094
 N 0.42732 0.1815 0.93558   -0.345137
 O 0.14032 0.93524 0.16005   -0.559436
 O 0.12384 0.03956 0.0862   -0.589067
 O 0.87976 0.24924 0.50946   -0.597401
 O 0.33951 0.93909 0.09201   -0.648674
 O 0.41632 0.86786 0.16012   -0.540441
 O 0.2023 0.28846 0.27673   -0.430031
 O 0.24433 0.74739 0.12488   -0.591051
 O 0.85463 0.41433 0.49321   -0.58031
 O 0.40199 0.68851 0.09695   -0.589714
 O 0.9421 0.4237 0.22636   -0.453822
 O 0.93524 0.14032 0.66005   -0.559436
 O 0.03956 0.12384 0.5862   -0.589067
 O 0.24924 0.87976 0.00946   -0.597401
 O 0.93909 0.33951 0.59201   -0.648674
 O 0.86786 0.41632 0.66012   -0.540441
 O 0.28846 0.2023 0.77673   -0.430032
 O 0.74739 0.24433 0.62488   -0.591048
 O 0.41433 0.85463 0.99321   -0.580311
 O 0.68851 0.40199 0.59695   -0.589713
 O 0.4237 0.9421 0.72636   -0.453822
 O 0.06476 0.85968 0.33995   -0.559437
 O 0.96044 0.87616 0.4138   -0.589067
 O 0.75076 0.12024 0.99054   -0.597401
 O 0.06091 0.66049 0.40799   -0.648674
 O 0.13214 0.58368 0.33988   -0.540441
 O 0.71154 0.7977 0.22327   -0.430032
 O 0.25261 0.75567 0.37512   -0.591048
 O 0.58567 0.14537 0.00679   -0.580311
 O 0.31149 0.59801 0.40305   -0.589713
 O 0.5763 0.0579 0.27364   -0.453822
 O 0.85968 0.06476 0.83995   -0.559436
 O 0.87616 0.96044 0.9138   -0.589067
 O 0.12024 0.75076 0.49054   -0.597401
 O 0.66049 0.06091 0.90799   -0.648674
 O 0.58368 0.13214 0.83988   -0.540441
 O 0.7977 0.71154 0.72327   -0.430031
 O 0.75567 0.25261 0.87512   -0.591051
 O 0.14537 0.58567 0.50679   -0.58031
 O 0.59801 0.31149 0.90305   -0.589714
 O 0.0579 0.5763 0.77364   -0.453822
