{'_ref': 'TBD', '_srcid': 'CAKYAQ_clean', 'submitters': [{'name': 'Dalar Nazarian Jeff Camp and David Sholl', 'email': 'dalar@gatech.edu jcamp6@gatech.edu'}], '_method': 'VASP DFT with PBE;DDEC'}
data_ZnH12C20NO5
_symmetry_space_group_name_H-M   'P 1'
_cell_length_a   14.04929955
_cell_length_b   14.04930023
_cell_length_c   26.29800000
_cell_angle_alpha   78.89839958
_cell_angle_beta   78.89839903
_cell_angle_gamma   79.92860113
_symmetry_Int_Tables_number   1
_chemical_formula_structural   ZnH12C20NO5
_chemical_formula_sum   'Zn8 H96 C160 N8 O40'
_cell_volume   4946.87861446
_cell_formula_units_Z   8
loop_
 _symmetry_equiv_pos_site_id
 _symmetry_equiv_pos_as_xyz
  1  'x, y, z'
loop_
 _atom_site_label
 _atom_site_fract_x
 _atom_site_fract_y
 _atom_site_fract_z
 _atom_site_charge
 Zn 0.19057 0.88893 0.08692   0.939553
 Zn 0.4216 0.8279 0.06706   0.917432
 Zn 0.88893 0.19057 0.58692   0.939554
 Zn 0.8279 0.4216 0.56706   0.917432
 Zn 0.11107 0.80943 0.41308   0.939554
 Zn 0.1721 0.5784 0.43294   0.917432
 Zn 0.80943 0.11107 0.91308   0.939553
 Zn 0.5784 0.1721 0.93294   0.917432
 H 0.1654 0.6254 0.1945   0.107864
 H 0.1426 0.4708 0.2397   0.101978
 H 0.3812 0.357 0.148   0.102683
 H 0.4089 0.5137 0.1072   0.112384
 H 0.2909 0.1259 0.0949   0.09951
 H 0.2517 0.2687 0.13   0.10278
 H 0.3155 0.1195 0.2689   0.106654
 H 0.3587 0.9787 0.2328   0.105639
 H 0.8662 0.1914 0.4225   0.101071
 H 0.8925 0.1957 0.3329   0.089481
 H 0.9871 0.4567 0.3119   0.088919
 H 0.9543 0.4551 0.401   0.094867
 H 0.9998 0.1944 0.1115   0.107198
 H 0.9417 0.3199 0.159   0.107007
 H 0.0463 0.1557 0.2847   0.091344
 H 0.1048 0.0296 0.2371   0.107873
 H 0.0066 0.8254 0.1545   0.090217
 H 0.8486 0.8122 0.1499   0.11897
 H 0.9163 0.8673 0.9933   0.132528
 H 0.0701 0.8859 0.0025   0.071626
 H 0.5681 0.7439 0.1338   0.099699
 H 0.7295 0.7425 0.1375   0.141234
 H 0.7567 0.9063 0.9941   0.138742
 H 0.5945 0.9019 0.9939   0.08743
 H 0.6254 0.1654 0.6945   0.107864
 H 0.4708 0.1426 0.7397   0.101978
 H 0.357 0.3812 0.648   0.102683
 H 0.5137 0.4089 0.6072   0.112384
 H 0.1259 0.2909 0.5949   0.09951
 H 0.2687 0.2517 0.63   0.10278
 H 0.1195 0.3155 0.7689   0.106654
 H 0.9787 0.3587 0.7328   0.105639
 H 0.1914 0.8662 0.9225   0.101071
 H 0.1957 0.8925 0.8329   0.089481
 H 0.4567 0.9871 0.8119   0.088919
 H 0.4551 0.9543 0.901   0.094867
 H 0.1944 0.9998 0.6115   0.107198
 H 0.3199 0.9417 0.659   0.107007
 H 0.1557 0.0463 0.7847   0.091344
 H 0.0296 0.1048 0.7371   0.107873
 H 0.8254 0.0066 0.6545   0.090217
 H 0.8122 0.8486 0.6499   0.11897
 H 0.8673 0.9163 0.4933   0.132528
 H 0.8859 0.0701 0.5025   0.071626
 H 0.7439 0.5681 0.6338   0.099699
 H 0.7425 0.7295 0.6375   0.141234
 H 0.9063 0.7567 0.4941   0.138742
 H 0.9019 0.5945 0.4939   0.08743
 H 0.3746 0.8346 0.3055   0.107864
 H 0.5292 0.8574 0.2603   0.101978
 H 0.643 0.6188 0.352   0.102683
 H 0.4863 0.5911 0.3928   0.112385
 H 0.8741 0.7091 0.4051   0.09951
 H 0.7313 0.7483 0.37   0.10278
 H 0.8805 0.6845 0.2311   0.106654
 H 0.0213 0.6413 0.2672   0.105639
 H 0.8086 0.1338 0.0775   0.101071
 H 0.8043 0.1075 0.1671   0.089481
 H 0.5433 0.0129 0.1881   0.088919
 H 0.5449 0.0457 0.099   0.094867
 H 0.8056 0.0002 0.3885   0.107198
 H 0.6801 0.0583 0.341   0.107007
 H 0.8443 0.9537 0.2153   0.091344
 H 0.9704 0.8952 0.2629   0.107873
 H 0.1746 0.9934 0.3455   0.090217
 H 0.1878 0.1514 0.3501   0.11897
 H 0.1327 0.0837 0.5067   0.132528
 H 0.1141 0.9299 0.4975   0.071626
 H 0.2561 0.4319 0.3662   0.099699
 H 0.2575 0.2705 0.3625   0.141234
 H 0.0937 0.2433 0.5059   0.138742
 H 0.0981 0.4055 0.5061   0.08743
 H 0.8346 0.3746 0.8055   0.107864
 H 0.8574 0.5292 0.7603   0.101978
 H 0.6188 0.643 0.852   0.102683
 H 0.5911 0.4863 0.8928   0.112385
 H 0.7091 0.8741 0.9051   0.09951
 H 0.7483 0.7313 0.87   0.10278
 H 0.6845 0.8805 0.7311   0.106654
 H 0.6413 0.0213 0.7672   0.105639
 H 0.1338 0.8086 0.5775   0.101071
 H 0.1075 0.8043 0.6671   0.089481
 H 0.0129 0.5433 0.6881   0.088919
 H 0.0457 0.5449 0.599   0.094867
 H 0.0002 0.8056 0.8885   0.107198
 H 0.0583 0.6801 0.841   0.107007
 H 0.9537 0.8443 0.7153   0.091344
 H 0.8952 0.9704 0.7629   0.107873
 H 0.9934 0.1746 0.8455   0.090217
 H 0.1514 0.1878 0.8501   0.11897
 H 0.0837 0.1327 0.0067   0.132528
 H 0.9299 0.1141 0.9975   0.071626
 H 0.4319 0.2561 0.8662   0.099699
 H 0.2705 0.2575 0.8625   0.141234
 H 0.2433 0.0937 0.0059   0.138742
 H 0.4055 0.0981 0.0061   0.08743
 C 0.30367 0.68627 0.11924   0.685877
 C 0.28848 0.58428 0.14669   -0.102402
 C 0.20966 0.57126 0.18573   -0.049211
 C 0.195 0.4786 0.21231   -0.043311
 C 0.25869 0.39729 0.19801   -0.094132
 C 0.3384 0.411 0.15803   -0.084192
 C 0.35431 0.50471 0.133   -0.063643
 C 0.35982 0.94482 0.13764   0.649074
 C 0.32956 0.03716 0.16022   -0.105194
 C 0.29664 0.12484 0.12963   -0.044935
 C 0.27242 0.21022 0.15083   -0.080513
 C 0.27871 0.20931 0.20298   -0.089427
 C 0.31111 0.12111 0.23391   -0.068103
 C 0.33645 0.03705 0.21229   -0.034156
 C 0.24375 0.29875 0.22824   0.427126
 C 0.88664 0.32364 0.47885   0.678458
 C 0.90762 0.32256 0.42098   -0.12924
 C 0.88952 0.24512 0.40017   -0.056326
 C 0.90596 0.24736 0.34655   -0.083884
 C 0.9427 0.3273 0.31257   -0.065244
 C 0.9616 0.4038 0.33399   -0.039025
 C 0.94306 0.40246 0.38735   -0.056265
 C 0.10776 0.02196 0.13713   0.60358
 C 0.06067 0.09987 0.16918   -0.10001
 C 0.00984 0.18704 0.14611   -0.073395
 C 0.9748 0.2618 0.17464   -0.063539
 C 0.98811 0.25151 0.22662   -0.086192
 C 0.03735 0.16355 0.24987   -0.065527
 C 0.07273 0.08833 0.22135   -0.056743
 C 0.9577 0.3369 0.25464   0.418442
 C 0.98778 0.83438 0.12161   0.160534
 C 0.89309 0.82529 0.11919   -0.182341
 C 0.86405 0.83585 0.07053   0.093963
 C 0.9327 0.8587 0.02674   -0.181918
 C 0.02545 0.86885 0.03259   0.176911
 C 0.6066 0.7774 0.10561   0.183219
 C 0.70313 0.77693 0.10831   -0.175516
 C 0.76141 0.82841 0.06696   0.101794
 C 0.71931 0.87391 0.02325   -0.182863
 C 0.62211 0.87071 0.02331   0.168712
 C 0.68627 0.30367 0.61924   0.685876
 C 0.58428 0.28848 0.64669   -0.102401
 C 0.57126 0.20966 0.68573   -0.049211
 C 0.4786 0.195 0.71231   -0.04331
 C 0.39729 0.25869 0.69801   -0.094133
 C 0.411 0.3384 0.65803   -0.084191
 C 0.50471 0.35431 0.633   -0.063644
 C 0.94482 0.35982 0.63764   0.649074
 C 0.03716 0.32956 0.66022   -0.105194
 C 0.12484 0.29664 0.62963   -0.044935
 C 0.21022 0.27242 0.65083   -0.080513
 C 0.20931 0.27871 0.70298   -0.089426
 C 0.12111 0.31111 0.73391   -0.068103
 C 0.03705 0.33645 0.71229   -0.034156
 C 0.29875 0.24375 0.72824   0.427127
 C 0.32364 0.88664 0.97885   0.678456
 C 0.32256 0.90762 0.92098   -0.12924
 C 0.24512 0.88952 0.90017   -0.056325
 C 0.24736 0.90596 0.84655   -0.083884
 C 0.3273 0.9427 0.81257   -0.065244
 C 0.4038 0.9616 0.83399   -0.039024
 C 0.40246 0.94306 0.88735   -0.056266
 C 0.02196 0.10776 0.63713   0.60358
 C 0.09987 0.06067 0.66918   -0.10001
 C 0.18704 0.00984 0.64611   -0.073395
 C 0.2618 0.9748 0.67464   -0.063539
 C 0.25151 0.98811 0.72662   -0.086192
 C 0.16355 0.03735 0.74987   -0.065526
 C 0.08833 0.07273 0.72135   -0.056743
 C 0.3369 0.9577 0.75464   0.418442
 C 0.83438 0.98778 0.62161   0.160534
 C 0.82529 0.89309 0.61919   -0.182341
 C 0.83585 0.86405 0.57053   0.093962
 C 0.8587 0.9327 0.52674   -0.181918
 C 0.86885 0.02545 0.53259   0.176911
 C 0.7774 0.6066 0.60561   0.183219
 C 0.77693 0.70313 0.60831   -0.175516
 C 0.82841 0.76141 0.56696   0.101796
 C 0.87391 0.71931 0.52325   -0.182863
 C 0.87071 0.62211 0.52331   0.168713
 C 0.31373 0.69633 0.38076   0.685876
 C 0.41572 0.71152 0.35331   -0.102401
 C 0.42874 0.79034 0.31427   -0.049211
 C 0.5214 0.805 0.28769   -0.04331
 C 0.60271 0.74131 0.30199   -0.094134
 C 0.589 0.6616 0.34197   -0.08419
 C 0.49529 0.64569 0.367   -0.063644
 C 0.05518 0.64018 0.36236   0.649074
 C 0.96284 0.67044 0.33978   -0.105194
 C 0.87516 0.70336 0.37037   -0.044935
 C 0.78978 0.72758 0.34917   -0.080513
 C 0.79069 0.72129 0.29702   -0.089426
 C 0.87889 0.68889 0.26609   -0.068103
 C 0.96295 0.66355 0.28771   -0.034156
 C 0.70125 0.75625 0.27176   0.427127
 C 0.67636 0.11336 0.02115   0.678457
 C 0.67744 0.09238 0.07902   -0.12924
 C 0.75488 0.11048 0.09983   -0.056325
 C 0.75264 0.09404 0.15345   -0.083884
 C 0.6727 0.0573 0.18743   -0.065244
 C 0.5962 0.0384 0.16601   -0.039024
 C 0.59754 0.05694 0.11265   -0.056266
 C 0.97804 0.89224 0.36287   0.60358
 C 0.90013 0.93933 0.33082   -0.10001
 C 0.81296 0.99016 0.35389   -0.073395
 C 0.7382 0.0252 0.32536   -0.063539
 C 0.74849 0.01189 0.27338   -0.086192
 C 0.83645 0.96265 0.25013   -0.065526
 C 0.91167 0.92727 0.27865   -0.056743
 C 0.6631 0.0423 0.24536   0.418443
 C 0.16562 0.01222 0.37839   0.160534
 C 0.17471 0.10691 0.38081   -0.182341
 C 0.16415 0.13595 0.42947   0.093962
 C 0.1413 0.0673 0.47326   -0.181918
 C 0.13115 0.97455 0.46741   0.176911
 C 0.2226 0.3934 0.39439   0.183219
 C 0.22307 0.29687 0.39169   -0.175516
 C 0.17159 0.23859 0.43304   0.101796
 C 0.12609 0.28069 0.47675   -0.182863
 C 0.12929 0.37789 0.47669   0.168713
 C 0.69633 0.31373 0.88076   0.685877
 C 0.71152 0.41572 0.85331   -0.102402
 C 0.79034 0.42874 0.81427   -0.049211
 C 0.805 0.5214 0.78769   -0.043311
 C 0.74131 0.60271 0.80199   -0.094132
 C 0.6616 0.589 0.84197   -0.084191
 C 0.64569 0.49529 0.867   -0.063644
 C 0.64018 0.05518 0.86236   0.649074
 C 0.67044 0.96284 0.83978   -0.105194
 C 0.70336 0.87516 0.87037   -0.044935
 C 0.72758 0.78978 0.84917   -0.080513
 C 0.72129 0.79069 0.79702   -0.089427
 C 0.68889 0.87889 0.76609   -0.068103
 C 0.66355 0.96295 0.78771   -0.034156
 C 0.75625 0.70125 0.77176   0.427126
 C 0.11336 0.67636 0.52115   0.678458
 C 0.09238 0.67744 0.57902   -0.12924
 C 0.11048 0.75488 0.59983   -0.056325
 C 0.09404 0.75264 0.65345   -0.083884
 C 0.0573 0.6727 0.68743   -0.065244
 C 0.0384 0.5962 0.66601   -0.039025
 C 0.05694 0.59754 0.61265   -0.056264
 C 0.89224 0.97804 0.86287   0.60358
 C 0.93933 0.90013 0.83082   -0.10001
 C 0.99016 0.81296 0.85389   -0.073395
 C 0.0252 0.7382 0.82536   -0.063539
 C 0.01189 0.74849 0.77338   -0.086192
 C 0.96265 0.83645 0.75013   -0.065527
 C 0.92727 0.91167 0.77865   -0.056742
 C 0.0423 0.6631 0.74536   0.418443
 C 0.01222 0.16562 0.87839   0.160534
 C 0.10691 0.17471 0.88081   -0.182341
 C 0.13595 0.16415 0.92947   0.093963
 C 0.0673 0.1413 0.97326   -0.181918
 C 0.97455 0.13115 0.96741   0.176911
 C 0.3934 0.2226 0.89439   0.183219
 C 0.29687 0.22307 0.89169   -0.175516
 C 0.23859 0.17159 0.93304   0.101795
 C 0.28069 0.12609 0.97675   -0.182862
 C 0.37789 0.12929 0.97669   0.168712
 N 0.05472 0.8556 0.07861   -0.320146
 N 0.56555 0.82393 0.06436   -0.348715
 N 0.8556 0.05472 0.57861   -0.320146
 N 0.82393 0.56555 0.56436   -0.348715
 N 0.1444 0.94528 0.42139   -0.320146
 N 0.17607 0.43445 0.43564   -0.348715
 N 0.94528 0.1444 0.92139   -0.320146
 N 0.43445 0.17607 0.93564   -0.348715
 O 0.23183 0.75303 0.12328   -0.580674
 O 0.38857 0.69737 0.09384   -0.595408
 O 0.33546 0.94328 0.09222   -0.650923
 O 0.4105 0.87442 0.15992   -0.550105
 O 0.20125 0.29041 0.27383   -0.434273
 O 0.88906 0.24224 0.50972   -0.594268
 O 0.86772 0.40694 0.49275   -0.581425
 O 0.12109 0.04179 0.0879   -0.589018
 O 0.13549 0.93629 0.16048   -0.560353
 O 0.94681 0.42061 0.22842   -0.449826
 O 0.75303 0.23183 0.62328   -0.580674
 O 0.69737 0.38857 0.59384   -0.595407
 O 0.94328 0.33546 0.59222   -0.650923
 O 0.87442 0.4105 0.65992   -0.550105
 O 0.29041 0.20125 0.77383   -0.434273
 O 0.24224 0.88906 0.00972   -0.594267
 O 0.40694 0.86772 0.99275   -0.581425
 O 0.04179 0.12109 0.5879   -0.589018
 O 0.93629 0.13549 0.66048   -0.560353
 O 0.42061 0.94681 0.72842   -0.449826
 O 0.24697 0.76817 0.37672   -0.580674
 O 0.30263 0.61143 0.40616   -0.595407
 O 0.05672 0.66454 0.40778   -0.650923
 O 0.12558 0.5895 0.34008   -0.550105
 O 0.70959 0.79875 0.22617   -0.434273
 O 0.75776 0.11094 0.99028   -0.594267
 O 0.59306 0.13228 0.00725   -0.581425
 O 0.95821 0.87891 0.4121   -0.589018
 O 0.06371 0.86451 0.33952   -0.560353
 O 0.57939 0.05319 0.27158   -0.449826
 O 0.76817 0.24697 0.87672   -0.580674
 O 0.61143 0.30263 0.90616   -0.595408
 O 0.66454 0.05672 0.90778   -0.650923
 O 0.5895 0.12558 0.84008   -0.550105
 O 0.79875 0.70959 0.72617   -0.434273
 O 0.11094 0.75776 0.49028   -0.594268
 O 0.13228 0.59306 0.50725   -0.581425
 O 0.87891 0.95821 0.9121   -0.589018
 O 0.86451 0.06371 0.83952   -0.560353
 O 0.05319 0.57939 0.77158   -0.449826
