{'_ref': 'TBD', '_srcid': 'CAKYAQ_clean', 'submitters': [{'name': 'Dalar Nazarian Jeff Camp and David Sholl', 'email': 'dalar@gatech.edu jcamp6@gatech.edu'}], '_method': 'VASP DFT with PBE;DDEC'}
data_Na5Co6H16(C8O11)3
_symmetry_space_group_name_H-M   'P 1'
_cell_length_a   12.26000004
_cell_length_b   12.36599957
_cell_length_c   19.10100000
_cell_angle_alpha   78.18000125
_cell_angle_beta   84.62500057
_cell_angle_gamma   89.51100164
_symmetry_Int_Tables_number   1
_chemical_formula_structural   Na5Co6H16(C8O11)3
_chemical_formula_sum   'Na10 Co12 H32 C48 O66'
_cell_volume   2821.81268248
_cell_formula_units_Z   2
loop_
 _symmetry_equiv_pos_site_id
 _symmetry_equiv_pos_as_xyz
  1  'x, y, z'
loop_
 _atom_site_label
 _atom_site_fract_x
 _atom_site_fract_y
 _atom_site_fract_z
 _atom_site_charge
 Na 0.224 0.1945 0.8463   0.93093
 Na 0.2006 0.9182 0.9569   0.925164
 Na 0.624 0.708 0.4047   0.895271
 Na 0.042 0.464 0.5814   0.897472
 Na 0.776 0.8055 0.1537   0.930898
 Na 0.7994 0.0818 0.0431   0.925185
 Na 0.376 0.292 0.5953   0.895168
 Na 0.958 0.536 0.4186   0.897866
 Na 0.0 0.5 0.0   0.903897
 Na 0.5 0.5 0.5   0.860469
 Co 0.56843 0.74218 0.68567   1.225697
 Co 0.58506 0.87775 0.80923   1.199788
 Co 0.78536 0.87571 0.69173   1.224968
 Co 0.72374 0.65906 0.81077   1.206783
 Co 0.19019 0.86064 0.57683   0.993796
 Co 0.37338 0.76692 0.07874   1.030146
 Co 0.43157 0.25782 0.31433   1.225738
 Co 0.41494 0.12225 0.19077   1.199787
 Co 0.21464 0.12429 0.30827   1.22497
 Co 0.27626 0.34094 0.18923   1.206782
 Co 0.80981 0.13936 0.42317   0.993807
 Co 0.62662 0.23308 0.92126   1.030144
 H 0.3074 0.6786 0.8673   0.170403
 H 0.364 0.7808 0.8104   0.169969
 H 0.5399 0.6157 0.9318   0.184421
 H 0.4333 0.5412 0.9327   0.19705
 H 0.9413 0.7577 0.821   0.159935
 H 0.9748 0.8199 0.8818   0.155759
 H 0.8255 0.92 0.9441   0.176593
 H 0.7213 0.8451 0.9401   0.188065
 H 0.6166 0.1686 0.629   0.167606
 H 0.6897 0.1007 0.6882   0.166562
 H 0.5022 0.059 0.564   0.163259
 H 0.5791 0.9542 0.5627   0.166847
 H 0.8127 0.762 0.5645   0.178797
 H 0.8908 0.6587 0.5602   0.088614
 H 0.7746 0.4962 0.6259   0.139636
 H 0.6805 0.5176 0.6857   0.178871
 H 0.6926 0.3214 0.1327   0.170403
 H 0.636 0.2192 0.1896   0.169968
 H 0.4601 0.3843 0.0682   0.184357
 H 0.5667 0.4588 0.0673   0.196988
 H 0.0587 0.2423 0.179   0.159935
 H 0.0252 0.1801 0.1182   0.155759
 H 0.1745 0.08 0.0559   0.176593
 H 0.2787 0.1549 0.0599   0.188065
 H 0.3834 0.8314 0.371   0.167604
 H 0.3103 0.8993 0.3118   0.166562
 H 0.4978 0.941 0.436   0.163215
 H 0.4209 0.0458 0.4373   0.166802
 H 0.1873 0.238 0.4355   0.178798
 H 0.1092 0.3413 0.4398   0.088614
 H 0.2254 0.5038 0.3741   0.139629
 H 0.3195 0.4824 0.3143   0.178876
 C 0.4027 0.7782 0.9157   0.757079
 C 0.3757 0.723 0.8532   -0.464838
 C 0.472 0.647 0.8344   0.339646
 C 0.5013 0.5719 0.9036   -0.515718
 C 0.5743 0.4772 0.8879   0.771379
 C 0.4282 0.5764 0.7829   0.555662
 C 0.8648 0.6878 0.9232   0.728047
 C 0.9128 0.7858 0.8641   -0.454856
 C 0.8252 0.8745 0.8431   0.335755
 C 0.7686 0.9072 0.9131   -0.507271
 C 0.7012 0.0083 0.8966   0.813607
 C 0.8836 0.9738 0.7957   0.544876
 C 0.7409 0.0763 0.583   0.746544
 C 0.6533 0.0973 0.6445   -0.441503
 C 0.5688 0.0031 0.6612   0.331915
 C 0.5216 0.9862 0.5921   -0.471713
 C 0.4193 0.9098 0.6065   0.763079
 C 0.4727 0.0358 0.7102   0.590252
 C 0.9584 0.7738 0.6075   0.768656
 C 0.8635 0.71 0.5913   -0.451177
 C 0.8001 0.643 0.6609   0.289181
 C 0.7279 0.5534 0.6425   -0.433922
 C 0.6557 0.6089 0.5818   0.727952
 C 0.8841 0.5791 0.7112   0.619028
 C 0.5973 0.2218 0.0843   0.757086
 C 0.6243 0.277 0.1468   -0.464837
 C 0.528 0.353 0.1656   0.339631
 C 0.4987 0.4281 0.0964   -0.51573
 C 0.4257 0.5228 0.1121   0.771381
 C 0.5718 0.4236 0.2171   0.555746
 C 0.1352 0.3122 0.0768   0.728047
 C 0.0872 0.2142 0.1359   -0.454856
 C 0.1748 0.1255 0.1569   0.335755
 C 0.2314 0.0928 0.0869   -0.507271
 C 0.2988 0.9917 0.1034   0.813607
 C 0.1164 0.0262 0.2043   0.544876
 C 0.2591 0.9237 0.417   0.74656
 C 0.3467 0.9027 0.3555   -0.441502
 C 0.4312 0.9969 0.3388   0.331915
 C 0.4784 0.0138 0.4079   -0.471736
 C 0.5807 0.0902 0.3935   0.763071
 C 0.5273 0.9642 0.2898   0.590256
 C 0.0416 0.2262 0.3925   0.768661
 C 0.1365 0.29 0.4087   -0.451176
 C 0.1999 0.357 0.3391   0.289182
 C 0.2721 0.4466 0.3575   -0.433921
 C 0.3443 0.3911 0.4182   0.727945
 C 0.1159 0.4209 0.2888   0.619039
 O 0.5606 0.7127 0.7985   -0.785345
 O 0.6158 0.903 0.697   -0.793382
 O 0.7353 0.7145 0.6975   -0.782006
 O 0.4288 0.8153 0.646   -0.609513
 O 0.5997 0.6914 0.5884   -0.559814
 O 0.4681 0.6006 0.7172   -0.503208
 O 0.7455 0.8297 0.8047   -0.787825
 O 0.4595 0.9837 0.7748   -0.499934
 O 0.4888 0.8324 0.9079   -0.565274
 O 0.6404 0.0171 0.8457   -0.611555
 O 0.9414 0.8248 0.6582   -0.611818
 O 0.7922 0.9879 0.5925   -0.602902
 O 0.8714 0.9926 0.7288   -0.54144
 O 0.8645 0.5819 0.7781   -0.558868
 O 0.6588 0.5008 0.8444   -0.616245
 O 0.7823 0.6379 0.9111   -0.600921
 O 0.0491 0.7729 0.5708   -0.637278
 O 0.7496 0.1526 0.527   -0.563911
 O 0.3355 0.9478 0.5788   -0.598635
 O 0.3369 0.7604 0.972   -0.671863
 O 0.5496 0.3797 0.9213   -0.623899
 O 0.7072 0.0812 0.9343   -0.712129
 O 0.936 0.0372 0.8238   -0.483333
 O 0.3583 0.5048 0.8072   -0.50193
 O 0.9048 0.6709 0.9831   -0.735712
 O 0.6555 0.5615 0.5285   -0.712234
 O 0.4152 0.119 0.6843   -0.641976
 O 0.9645 0.5345 0.6853   -0.644211
 O 0.0804 0.0725 0.919   -0.564818
 O 0.3387 0.0432 0.8901   -0.537507
 O 0.5828 0.5256 0.3803   -0.3136
 O 0.4534 0.6987 0.4823   -0.39254
 O 0.2045 0.3643 0.6435   -0.639422
 O 0.4394 0.2873 0.2015   -0.785338
 O 0.3842 0.097 0.303   -0.793393
 O 0.2647 0.2855 0.3025   -0.782014
 O 0.5712 0.1847 0.354   -0.609501
 O 0.4003 0.3086 0.4116   -0.55986
 O 0.5319 0.3994 0.2828   -0.503857
 O 0.2545 0.1703 0.1953   -0.787824
 O 0.5405 0.0163 0.2252   -0.499934
 O 0.5112 0.1676 0.0921   -0.565275
 O 0.3596 0.9829 0.1543   -0.611555
 O 0.0586 0.1752 0.3418   -0.611817
 O 0.2078 0.0121 0.4075   -0.602903
 O 0.1286 0.0074 0.2712   -0.54144
 O 0.1355 0.4181 0.2219   -0.558866
 O 0.3412 0.4992 0.1556   -0.616243
 O 0.2177 0.3621 0.0889   -0.600921
 O 0.9509 0.2271 0.4292   -0.63731
 O 0.2504 0.8474 0.473   -0.564068
 O 0.6645 0.0522 0.4212   -0.59867
 O 0.6631 0.2396 0.028   -0.671931
 O 0.4504 0.6203 0.0787   -0.623966
 O 0.2928 0.9188 0.0657   -0.712128
 O 0.064 0.9628 0.1762   -0.483332
 O 0.6417 0.4952 0.1928   -0.502014
 O 0.0952 0.3291 0.0169   -0.735712
 O 0.3445 0.4385 0.4715   -0.712218
 O 0.5848 0.881 0.3157   -0.641984
 O 0.0355 0.4655 0.3147   -0.644243
 O 0.9196 0.9275 0.081   -0.564849
 O 0.6613 0.9568 0.1099   -0.537507
 O 0.4172 0.4744 0.6197   -0.314571
 O 0.5466 0.3013 0.5177   -0.392631
 O 0.7955 0.6357 0.3565   -0.639745
