{'_ref': 'TBD', '_srcid': 'CAKYAQ_clean', 'submitters': [{'name': 'Dalar Nazarian Jeff Camp and David Sholl', 'email': 'dalar@gatech.edu jcamp6@gatech.edu'}], '_method': 'VASP DFT with PBE;DDEC'}
data_BaCdH4(C3O4)2
_symmetry_space_group_name_H-M   'P 1'
_cell_length_a   6.92240000
_cell_length_b   9.68490000
_cell_length_c   18.80900000
_cell_angle_alpha   90.00000000
_cell_angle_beta   90.00000000
_cell_angle_gamma   90.00000000
_symmetry_Int_Tables_number   1
_chemical_formula_structural   BaCdH4(C3O4)2
_chemical_formula_sum   'Ba4 Cd4 H16 C24 O32'
_cell_volume   1261.00711785
_cell_formula_units_Z   4
loop_
 _symmetry_equiv_pos_site_id
 _symmetry_equiv_pos_as_xyz
  1  'x, y, z'
loop_
 _atom_site_label
 _atom_site_fract_x
 _atom_site_fract_y
 _atom_site_fract_z
 _atom_site_charge
 Ba 0.75 0.49331 0.75   1.720246
 Ba 0.25 0.00669 0.25   1.720246
 Ba 0.25 0.50669 0.25   1.720245
 Ba 0.75 0.99331 0.75   1.720245
 Cd 0.0 0.0 0.5   1.267911
 Cd 0.5 0.0 0.0   1.267911
 Cd 0.5 0.5 0.5   1.267911
 Cd 0.0 0.5 0.0   1.267911
 H 0.4286 0.8314 0.5693   0.197685
 H 0.6237 0.9076 0.5822   0.148866
 H 0.0714 0.8314 0.9307   0.197685
 H 0.8763 0.9076 0.9178   0.148866
 H 0.9286 0.6686 0.4307   0.197685
 H 0.1237 0.5924 0.4178   0.148866
 H 0.5714 0.6686 0.0693   0.197685
 H 0.3763 0.5924 0.0822   0.148866
 H 0.5714 0.1686 0.4307   0.197685
 H 0.3763 0.0924 0.4178   0.148866
 H 0.9286 0.1686 0.0693   0.197685
 H 0.1237 0.0924 0.0822   0.148866
 H 0.0714 0.3314 0.5693   0.197685
 H 0.8763 0.4076 0.5822   0.148866
 H 0.4286 0.3314 0.9307   0.197685
 H 0.6237 0.4076 0.9178   0.148866
 C 0.6165 0.8084 0.4865   0.818538
 C 0.5677 0.8216 0.5656   -0.606782
 C 0.628 0.7095 0.6175   0.860647
 C 0.8835 0.8084 0.0135   0.818538
 C 0.9323 0.8216 0.9344   -0.606782
 C 0.872 0.7095 0.8825   0.860647
 C 0.1165 0.6916 0.5135   0.818538
 C 0.0677 0.6784 0.4344   -0.606782
 C 0.128 0.7905 0.3825   0.860647
 C 0.3835 0.6916 0.9865   0.818538
 C 0.4323 0.6784 0.0656   -0.606782
 C 0.372 0.7905 0.1175   0.860647
 C 0.3835 0.1916 0.5135   0.818538
 C 0.4323 0.1784 0.4344   -0.606782
 C 0.372 0.2905 0.3825   0.860647
 C 0.1165 0.1916 0.9865   0.818538
 C 0.0677 0.1784 0.0656   -0.606782
 C 0.128 0.2905 0.1175   0.860647
 C 0.8835 0.3084 0.4865   0.818538
 C 0.9323 0.3216 0.5656   -0.606782
 C 0.872 0.2095 0.6175   0.860647
 C 0.6165 0.3084 0.0135   0.818538
 C 0.5677 0.3216 0.9344   -0.606782
 C 0.628 0.2095 0.8825   0.860647
 O 0.706 0.9061 0.4581   -0.678508
 O 0.5606 0.7061 0.4525   -0.682057
 O 0.6343 0.5838 0.5986   -0.724062
 O 0.659 0.747 0.6804   -0.828404
 O 0.794 0.9061 0.0419   -0.678508
 O 0.9394 0.7061 0.0475   -0.682057
 O 0.8657 0.5838 0.9014   -0.724062
 O 0.841 0.747 0.8196   -0.828404
 O 0.206 0.5939 0.5419   -0.678508
 O 0.0606 0.7939 0.5475   -0.682057
 O 0.1343 0.9162 0.4014   -0.724062
 O 0.159 0.753 0.3196   -0.828404
 O 0.294 0.5939 0.9581   -0.678508
 O 0.4394 0.7939 0.9525   -0.682057
 O 0.3657 0.9162 0.0986   -0.724062
 O 0.341 0.753 0.1804   -0.828404
 O 0.294 0.0939 0.5419   -0.678508
 O 0.4394 0.2939 0.5475   -0.682057
 O 0.3657 0.4162 0.4014   -0.724062
 O 0.341 0.253 0.3196   -0.828404
 O 0.206 0.0939 0.9581   -0.678508
 O 0.0606 0.2939 0.9525   -0.682057
 O 0.1343 0.4162 0.0986   -0.724062
 O 0.159 0.253 0.1804   -0.828404
 O 0.794 0.4061 0.4581   -0.678508
 O 0.9394 0.2061 0.4525   -0.682057
 O 0.8657 0.0838 0.5986   -0.724062
 O 0.841 0.247 0.6804   -0.828404
 O 0.706 0.4061 0.0419   -0.678508
 O 0.5606 0.2061 0.0475   -0.682057
 O 0.6343 0.0838 0.9014   -0.724062
 O 0.659 0.247 0.8196   -0.828404
