{'_ref': 'TBD', '_srcid': 'CAKYAQ_clean', 'submitters': [{'name': 'Dalar Nazarian Jeff Camp and David Sholl', 'email': 'dalar@gatech.edu jcamp6@gatech.edu'}], '_method': 'VASP DFT with PBE;DDEC'}
data_ZnH6(C3O)4
_symmetry_space_group_name_H-M   'P 1'
_cell_length_a   10.32700027
_cell_length_b   11.06699961
_cell_length_c   11.69200000
_cell_angle_alpha   112.33000070
_cell_angle_beta   97.30999989
_cell_angle_gamma   106.78999815
_symmetry_Int_Tables_number   1
_chemical_formula_structural   ZnH6(C3O)4
_chemical_formula_sum   'Zn3 H18 C36 O12'
_cell_volume   1140.20673442
_cell_formula_units_Z   3
loop_
 _symmetry_equiv_pos_site_id
 _symmetry_equiv_pos_as_xyz
  1  'x, y, z'
loop_
 _atom_site_label
 _atom_site_fract_x
 _atom_site_fract_y
 _atom_site_fract_z
 _atom_site_charge
 Zn 0.83336 0.16711 0.86002   1.10065
 Zn 0.16664 0.83289 0.13998   1.10065
 Zn 0.0 0.0 0.0   1.155973
 H 0.0952 0.3309 0.336   0.100459
 H 0.2281 0.4537 0.568   0.099191
 H 0.7493 0.3989 0.2238   0.09835
 H 0.6775 0.6602 0.82   0.092083
 H 0.5581 0.4273 0.6855   0.110823
 H 0.5751 0.7636 0.5349   0.116292
 H 0.3525 0.146 0.9142   0.117528
 H 0.584 0.2906 0.9831   0.108923
 H 0.2332 0.4691 0.9401   0.107625
 H 0.9048 0.6691 0.664   0.100459
 H 0.7719 0.5463 0.432   0.099191
 H 0.2507 0.6011 0.7762   0.09835
 H 0.3225 0.3398 0.18   0.092083
 H 0.4419 0.5727 0.3145   0.110823
 H 0.4249 0.2364 0.4651   0.116293
 H 0.6475 0.854 0.0858   0.117527
 H 0.416 0.7094 0.0169   0.108923
 H 0.7668 0.5309 0.0599   0.107625
 C 0.9105 0.2553 0.1247   0.720453
 C 0.9218 0.3504 0.2604   -0.146708
 C 0.0317 0.3753 0.3563   -0.057214
 C 0.0503 0.4676 0.486   0.037256
 C 0.1626 0.4957 0.5864   -0.122194
 C 0.8234 0.4158 0.2892   -0.046173
 C 0.7208 0.8879 0.7783   0.707593
 C 0.6392 0.7358 0.6889   -0.134767
 C 0.6334 0.6327 0.7349   -0.029339
 C 0.5631 0.4937 0.6542   -0.128894
 C 0.5733 0.6955 0.5635   -0.068887
 C 0.4976 0.4489 0.5233   0.035606
 C 0.1174 0.2005 0.8852   0.709351
 C 0.2685 0.2946 0.922   -0.1326
 C 0.3762 0.2407 0.9343   -0.036914
 C 0.5146 0.3273 0.9753   -0.143892
 C 0.5537 0.4727 0.0064   0.035704
 C 0.304 0.4346 0.95   -0.071337
 C 0.0895 0.7447 0.8753   0.720453
 C 0.0782 0.6496 0.7396   -0.14671
 C 0.9683 0.6247 0.6437   -0.057213
 C 0.9497 0.5324 0.514   0.037255
 C 0.8374 0.5043 0.4136   -0.122185
 C 0.1766 0.5842 0.7108   -0.046163
 C 0.2792 0.1121 0.2217   0.707593
 C 0.3608 0.2642 0.3111   -0.134768
 C 0.3666 0.3673 0.2651   -0.029338
 C 0.4369 0.5063 0.3458   -0.128894
 C 0.4267 0.3045 0.4365   -0.068882
 C 0.5024 0.5511 0.4767   0.035614
 C 0.8826 0.7995 0.1148   0.709351
 C 0.7315 0.7054 0.078   -0.1326
 C 0.6238 0.7593 0.0657   -0.036914
 C 0.4854 0.6727 0.0247   -0.143892
 C 0.4463 0.5273 0.9936   0.035705
 C 0.696 0.5654 0.05   -0.071338
 O 0.9935 0.19155 0.10729   -0.606774
 O 0.819 0.2494 0.03622   -0.637172
 O 0.7136 0.97787 0.73584   -0.634368
 O 0.7913 0.92181 0.88808   -0.621128
 O 0.0863 0.07771 0.87559   -0.615473
 O 0.0271 0.2532 0.8654   -0.642056
 O 0.0065 0.80845 0.89271   -0.606774
 O 0.181 0.7506 0.96378   -0.637172
 O 0.2864 0.02213 0.26416   -0.634368
 O 0.2087 0.07819 0.11192   -0.621128
 O 0.9137 0.92229 0.12441   -0.615473
 O 0.9729 0.7468 0.1346   -0.642056
