{'_ref': 'TBD', '_srcid': 'CAKYAQ_clean', 'submitters': [{'name': 'Dalar Nazarian Jeff Camp and David Sholl', 'email': 'dalar@gatech.edu jcamp6@gatech.edu'}], '_method': 'VASP DFT with PBE;DDEC'}
data_Cd3H46C56(N5O7)2
_symmetry_space_group_name_H-M   'P 1'
_cell_length_a   11.06030026
_cell_length_b   16.32199998
_cell_length_c   19.47230000
_cell_angle_alpha   65.76379827
_cell_angle_beta   73.50079957
_cell_angle_gamma   70.19519963
_symmetry_Int_Tables_number   1
_chemical_formula_structural   Cd3H46C56(N5O7)2
_chemical_formula_sum   'Cd6 H92 C112 N20 O28'
_cell_volume   2972.49898575
_cell_formula_units_Z   2
loop_
 _symmetry_equiv_pos_site_id
 _symmetry_equiv_pos_as_xyz
  1  'x, y, z'
loop_
 _atom_site_label
 _atom_site_fract_x
 _atom_site_fract_y
 _atom_site_fract_z
 _atom_site_charge
 Cd 0.0016 0.40826 0.47476   1.08669
 Cd 0.88462 0.09174 0.02524   1.086279
 Cd 0.9984 0.59174 0.52524   1.08669
 Cd 0.11538 0.90826 0.97476   1.086279
 Cd 0.81846 0.25 0.75   1.112956
 Cd 0.18154 0.75 0.25   1.112956
 H 0.7504 0.7361 0.6903   0.063675
 H 0.5693 0.4519 0.6961   0.09811
 H 0.3182 0.5737 0.7925   0.073602
 H 0.3585 0.4933 0.7597   0.085477
 H 0.3178 0.4328 0.8922   0.128196
 H 0.4651 0.3933 0.8631   0.123167
 H 0.4243 0.4738 0.8958   0.107383
 H 0.5155 0.8563 0.8373   0.084497
 H 0.3629 0.8867 0.8469   0.070568
 H 0.4206 0.9016 0.9456   0.103737
 H 0.5066 0.7986 0.9684   0.088258
 H 0.4056 0.671 0.0242   0.071166
 H 0.2531 0.6901 0.0397   0.090831
 H 0.2486 0.7444 0.9104   0.071423
 H 0.3469 0.6457 0.9313   0.094987
 H 0.585 0.9326 0.5574   0.099462
 H 0.7418 0.8421 0.4933   0.08261
 H 0.4947 0.6902 0.5326   0.089401
 H 0.3391 0.7786 0.5992   0.086706
 H 0.4473 0.9522 0.6736   0.09749
 H 0.2843 0.0569 0.7225   0.109895
 H 0.0288 0.0336 0.6248   0.086848
 H 0.192 0.9289 0.5759   0.095187
 H 0.1768 0.7639 0.8097   0.064495
 H 0.7173 0.0481 0.8039   0.099152
 H 0.6844 0.9263 0.7075   0.073908
 H 0.6115 0.0067 0.7403   0.085286
 H 0.6428 0.0672 0.6078   0.128307
 H 0.7215 0.1067 0.6369   0.123627
 H 0.7939 0.0262 0.6042   0.106819
 H 0.2091 0.6437 0.6627   0.085052
 H 0.0965 0.6133 0.6531   0.071302
 H 0.2678 0.5984 0.5544   0.104622
 H 0.2736 0.7014 0.5316   0.089392
 H 0.1008 0.829 0.4758   0.070688
 H 0.9829 0.8099 0.4603   0.090782
 H 0.9034 0.7556 0.5896   0.071498
 H 0.9239 0.8543 0.5687   0.095647
 H 0.075 0.5674 0.9426   0.099536
 H 0.0772 0.6579 0.0067   0.082275
 H 0.7175 0.8098 0.9674   0.08885
 H 0.7169 0.7214 0.9008   0.087344
 H 0.0731 0.5478 0.8264   0.099152
 H 0.0637 0.4431 0.7775   0.111173
 H 0.6872 0.4664 0.8752   0.087251
 H 0.6968 0.5711 0.9241   0.096478
 H 0.2496 0.2639 0.3097   0.063675
 H 0.4307 0.5481 0.3039   0.09811
 H 0.6818 0.4263 0.2075   0.073602
 H 0.6415 0.5067 0.2403   0.085477
 H 0.6822 0.5672 0.1078   0.128196
 H 0.5349 0.6067 0.1369   0.123167
 H 0.5757 0.5262 0.1042   0.107383
 H 0.4845 0.1437 0.1627   0.084497
 H 0.6371 0.1133 0.1531   0.070568
 H 0.5794 0.0984 0.0544   0.103738
 H 0.4934 0.2014 0.0316   0.088259
 H 0.5944 0.329 0.9758   0.071167
 H 0.7469 0.3099 0.9603   0.090831
 H 0.7514 0.2556 0.0896   0.071423
 H 0.6531 0.3543 0.0687   0.094987
 H 0.415 0.0674 0.4426   0.099462
 H 0.2582 0.1579 0.5067   0.08261
 H 0.5053 0.3098 0.4674   0.089401
 H 0.6609 0.2214 0.4008   0.086706
 H 0.5527 0.0478 0.3264   0.09749
 H 0.7157 0.9431 0.2775   0.109895
 H 0.9712 0.9664 0.3752   0.086848
 H 0.808 0.0711 0.4241   0.095187
 H 0.8232 0.2361 0.1903   0.064495
 H 0.2827 0.9519 0.1961   0.099152
 H 0.3156 0.0737 0.2925   0.073908
 H 0.3885 0.9933 0.2597   0.085286
 H 0.3572 0.9328 0.3922   0.128307
 H 0.2785 0.8933 0.3631   0.123627
 H 0.2061 0.9738 0.3958   0.10682
 H 0.7909 0.3563 0.3373   0.085052
 H 0.9035 0.3867 0.3469   0.071302
 H 0.7322 0.4016 0.4456   0.104622
 H 0.7264 0.2986 0.4684   0.089392
 H 0.8992 0.171 0.5242   0.070688
 H 0.0171 0.1901 0.5397   0.090782
 H 0.0966 0.2444 0.4104   0.071498
 H 0.0761 0.1457 0.4313   0.095648
 H 0.925 0.4326 0.0574   0.099536
 H 0.9228 0.3421 0.9933   0.082275
 H 0.2825 0.1902 0.0326   0.08885
 H 0.2831 0.2786 0.0992   0.087344
 H 0.9269 0.4522 0.1736   0.099152
 H 0.9363 0.5569 0.2225   0.111173
 H 0.3128 0.5336 0.1248   0.087251
 H 0.3032 0.4289 0.0759   0.096478
 C 0.78956 0.45659 0.61189   0.773454
 C 0.70899 0.51867 0.65673   -0.38551
 C 0.74758 0.59163 0.66097   0.519058
 C 0.65717 0.63972 0.71084   -0.379096
 C 0.67824 0.71412 0.72042   0.321406
 C 0.50122 0.71745 0.81411   0.565489
 C 0.54238 0.61387 0.75511   0.418338
 C 0.5926 0.49973 0.69933   0.143662
 C 0.38571 0.51869 0.78825   0.040507
 C 0.39949 0.44828 0.86694   -0.352439
 C 0.43623 0.83993 0.86941   -0.01142
 C 0.42787 0.83936 0.94832   -0.030797
 C 0.32674 0.71207 0.00445   -0.014438
 C 0.33162 0.70948 0.92744   -0.028758
 C 0.56623 0.8844 0.55202   -0.144992
 C 0.66008 0.83004 0.51362   -0.031586
 C 0.63479 0.75783 0.50485   -0.135202
 C 0.51297 0.73911 0.53735   -0.047358
 C 0.41921 0.79275 0.57663   -0.149313
 C 0.4425 0.86714 0.58296   0.044228
 C 0.33787 0.93029 0.61889   0.05376
 C 0.36344 0.96874 0.66338   -0.150181
 C 0.26579 0.03148 0.69294   -0.022904
 C 0.13922 0.05645 0.67803   -0.102524
 C 0.11301 0.01755 0.63447   -0.055845
 C 0.21097 0.95475 0.60499   -0.137999
 C 0.73543 0.70022 0.46092   0.667427
 C 0.0322 0.1245 0.7095   0.625516
 C 0.85804 0.04341 0.88811   0.773539
 C 0.88439 0.98133 0.84327   -0.385397
 C 0.00018 0.90837 0.83903   0.520008
 C 0.00773 0.86028 0.78916   -0.380026
 C 0.11278 0.78588 0.77958   0.320543
 C 0.03278 0.78255 0.68589   0.566429
 C 0.91136 0.88613 0.74489   0.417671
 C 0.79166 0.00027 0.80067   0.143002
 C 0.69265 0.98131 0.71175   0.03931
 C 0.71471 0.05172 0.63306   -0.352282
 C 0.14557 0.66007 0.63059   -0.011863
 C 0.21555 0.66064 0.55168   -0.033124
 C 0.04326 0.78793 0.49555   -0.013369
 C 0.96854 0.79052 0.57256   -0.0305
 C 0.00265 0.6156 0.94798   -0.1468
 C 0.00374 0.66996 0.98638   -0.031389
 C 0.89747 0.74217 0.99515   -0.131766
 C 0.78943 0.76089 0.96265   -0.048126
 C 0.78859 0.70725 0.92337   -0.149837
 C 0.8926 0.63286 0.91704   0.045019
 C 0.88705 0.56971 0.88111   0.055694
 C 0.99556 0.53126 0.83662   -0.152376
 C 0.99021 0.46852 0.80706   -0.024081
 C 0.8737 0.44355 0.82197   -0.101561
 C 0.76503 0.48245 0.86553   -0.056121
 C 0.77071 0.54525 0.89501   -0.141683
 C 0.89657 0.79978 0.03908   0.666131
 C 0.8662 0.3755 0.7905   0.625811
 C 0.21044 0.54341 0.38811   0.773454
 C 0.29101 0.48133 0.34327   -0.38551
 C 0.25242 0.40837 0.33903   0.519058
 C 0.34283 0.36028 0.28916   -0.379096
 C 0.32176 0.28588 0.27958   0.321406
 C 0.49878 0.28255 0.18589   0.565489
 C 0.45762 0.38613 0.24489   0.418338
 C 0.4074 0.50027 0.30067   0.143662
 C 0.61429 0.48131 0.21175   0.040507
 C 0.60051 0.55172 0.13306   -0.35244
 C 0.56377 0.16007 0.13059   -0.01142
 C 0.57213 0.16064 0.05168   -0.030797
 C 0.67326 0.28793 0.99555   -0.014438
 C 0.66838 0.29052 0.07256   -0.028758
 C 0.43377 0.1156 0.44798   -0.144992
 C 0.33992 0.16996 0.48638   -0.031586
 C 0.36521 0.24217 0.49515   -0.135202
 C 0.48703 0.26089 0.46265   -0.047358
 C 0.58079 0.20725 0.42337   -0.149313
 C 0.5575 0.13286 0.41704   0.044228
 C 0.66213 0.06971 0.38111   0.05376
 C 0.63656 0.03126 0.33662   -0.150181
 C 0.73421 0.96852 0.30706   -0.022904
 C 0.86078 0.94355 0.32197   -0.102524
 C 0.88699 0.98245 0.36553   -0.055845
 C 0.78903 0.04525 0.39501   -0.137999
 C 0.26457 0.29978 0.53908   0.667427
 C 0.9678 0.8755 0.2905   0.625516
 C 0.14196 0.95659 0.11189   0.773539
 C 0.11561 0.01867 0.15673   -0.385397
 C 0.99982 0.09163 0.16097   0.520008
 C 0.99227 0.13972 0.21084   -0.380026
 C 0.88722 0.21412 0.22042   0.320543
 C 0.96722 0.21745 0.31411   0.566429
 C 0.08864 0.11387 0.25511   0.417671
 C 0.20834 0.99973 0.19933   0.143002
 C 0.30735 0.01869 0.28825   0.03931
 C 0.28529 0.94828 0.36694   -0.352283
 C 0.85443 0.33993 0.36941   -0.011863
 C 0.78445 0.33936 0.44832   -0.033124
 C 0.95674 0.21207 0.50445   -0.013369
 C 0.03146 0.20948 0.42744   -0.0305
 C 0.99735 0.3844 0.05202   -0.1468
 C 0.99626 0.33004 0.01362   -0.031389
 C 0.10253 0.25783 0.00485   -0.131766
 C 0.21057 0.23911 0.03735   -0.048126
 C 0.21141 0.29275 0.07663   -0.149837
 C 0.1074 0.36714 0.08296   0.045019
 C 0.11295 0.43029 0.11889   0.055694
 C 0.00444 0.46874 0.16338   -0.152376
 C 0.00979 0.53148 0.19294   -0.024081
 C 0.1263 0.55645 0.17803   -0.101561
 C 0.23497 0.51755 0.13447   -0.056121
 C 0.22929 0.45475 0.10499   -0.141683
 C 0.10343 0.20022 0.96092   0.666131
 C 0.1338 0.6245 0.2095   0.625811
 N 0.31421 0.80732 0.99926   -0.269664
 N 0.4357 0.74923 0.87179   -0.178818
 N 0.60284 0.75483 0.76905   -0.51269
 N 0.46438 0.65164 0.80646   -0.555637
 N 0.50962 0.54554 0.74562   -0.061909
 N 0.12079 0.69268 0.50074   -0.269341
 N 0.05672 0.75077 0.62821   -0.180382
 N 0.12672 0.74517 0.73095   -0.513098
 N 0.92248 0.84836 0.69354   -0.554313
 N 0.80078 0.95446 0.75438   -0.061243
 N 0.68579 0.19268 0.00074   -0.269664
 N 0.5643 0.25077 0.12821   -0.178818
 N 0.39716 0.24517 0.23095   -0.51269
 N 0.53562 0.34836 0.19354   -0.555637
 N 0.49038 0.45446 0.25438   -0.061909
 N 0.87921 0.30732 0.49926   -0.269341
 N 0.94328 0.24923 0.37179   -0.180382
 N 0.87328 0.25483 0.26905   -0.513098
 N 0.07752 0.15164 0.30646   -0.554313
 N 0.19922 0.04554 0.24562   -0.061243
 O 0.76811 0.37924 0.6302   -0.625506
 O 0.87543 0.48609 0.55551   -0.640299
 O 0.85304 0.6144 0.62824   -0.543241
 O 0.85311 0.7016 0.45092   -0.624061
 O 0.6977 0.65528 0.43664   -0.557652
 O 0.92906 0.16067 0.68075   -0.606103
 O 0.04683 0.1415 0.76316   -0.562475
 O 0.77755 0.12076 0.8698   -0.62476
 O 0.91703 0.01391 0.94449   -0.640842
 O 0.09568 0.8856 0.87176   -0.544077
 O 0.00563 0.7984 0.04908   -0.624432
 O 0.78962 0.84472 0.06336   -0.556753
 O 0.77048 0.33933 0.81925   -0.606792
 O 0.95149 0.3585 0.73684   -0.56249
 O 0.23189 0.62076 0.3698   -0.625506
 O 0.12457 0.51391 0.44449   -0.640299
 O 0.14696 0.3856 0.37176   -0.543241
 O 0.14689 0.2984 0.54908   -0.624061
 O 0.3023 0.34472 0.56336   -0.557652
 O 0.07094 0.83933 0.31925   -0.606103
 O 0.95317 0.8585 0.23684   -0.562475
 O 0.22245 0.87924 0.1302   -0.62476
 O 0.08297 0.98609 0.05551   -0.640842
 O 0.90432 0.1144 0.12824   -0.544077
 O 0.99437 0.2016 0.95092   -0.624432
 O 0.21038 0.15528 0.93664   -0.556753
 O 0.22952 0.66067 0.18075   -0.606792
 O 0.04851 0.6415 0.26316   -0.562491
