{'_ref': 'TBD', '_srcid': 'CAKYAQ_clean', 'submitters': [{'name': 'Dalar Nazarian Jeff Camp and David Sholl', 'email': 'dalar@gatech.edu jcamp6@gatech.edu'}], '_method': 'VASP DFT with PBE;DDEC'}
data_Co3H2(C4O5)2
_symmetry_space_group_name_H-M   'P 1'
_cell_length_a   5.48730038
_cell_length_b   7.92959975
_cell_length_c   7.92960000
_cell_angle_alpha   106.68499681
_cell_angle_beta   90.18749878
_cell_angle_gamma   90.18750004
_symmetry_Int_Tables_number   1
_chemical_formula_structural   Co3H2(C4O5)2
_chemical_formula_sum   'Co3 H2 C8 O10'
_cell_volume   330.501847976
_cell_formula_units_Z   1
loop_
 _symmetry_equiv_pos_site_id
 _symmetry_equiv_pos_as_xyz
  1  'x, y, z'
loop_
 _atom_site_label
 _atom_site_fract_x
 _atom_site_fract_y
 _atom_site_fract_z
 _atom_site_charge
 Co 0.5 0.0 0.0   1.043677
 Co 0.0 0.87601 0.12399   1.06042
 Co 0.0 0.12399 0.87601   1.060423
 H 0.842 0.171 0.171   0.495991
 H 0.158 0.829 0.829   0.495995
 C 0.6604 0.9491 0.4347   0.204661
 C 0.424 0.00596 0.38324   0.217451
 C 0.3396 0.5653 0.0509   0.204665
 C 0.576 0.61676 0.99404   0.217451
 C 0.3396 0.0509 0.5653   0.204687
 C 0.576 0.99404 0.61676   0.217488
 C 0.6604 0.4347 0.9491   0.204687
 C 0.424 0.38324 0.00596   0.217485
 O 0.8522 0.88469 0.36029   -0.453263
 O 0.3277 0.01348 0.24036   -0.507156
 O 0.1478 0.63971 0.11531   -0.453263
 O 0.6723 0.75964 0.98652   -0.507156
 O 0.1478 0.11531 0.63971   -0.453268
 O 0.6723 0.98652 0.75964   -0.507161
 O 0.8522 0.36029 0.88469   -0.453267
 O 0.3277 0.24036 0.01348   -0.507161
 O 0.8274 0.1005 0.1005   -1.00169
 O 0.1726 0.8995 0.8995   -1.001692
