{'_ref': 'TBD', '_srcid': 'CAKYAQ_clean', 'submitters': [{'name': 'Dalar Nazarian Jeff Camp and David Sholl', 'email': 'dalar@gatech.edu jcamp6@gatech.edu'}], '_method': 'VASP DFT with PBE;DDEC'}
data_CeH4C5O8
_symmetry_space_group_name_H-M   'P 1'
_cell_length_a   6.09970005
_cell_length_b   7.65280000
_cell_length_c   22.53300000
_cell_angle_alpha   90.00000000
_cell_angle_beta   91.60599878
_cell_angle_gamma   90.00000000
_symmetry_Int_Tables_number   1
_chemical_formula_structural   CeH4C5O8
_chemical_formula_sum   'Ce4 H16 C20 O32'
_cell_volume   1051.42240894
_cell_formula_units_Z   4
loop_
 _symmetry_equiv_pos_site_id
 _symmetry_equiv_pos_as_xyz
  1  'x, y, z'
loop_
 _atom_site_label
 _atom_site_fract_x
 _atom_site_fract_y
 _atom_site_fract_z
 _atom_site_charge
 Ce 0.54512 0.50171 0.85391   2.201183
 Ce 0.45488 0.00171 0.64609   2.201182
 Ce 0.45488 0.49829 0.14609   2.201183
 Ce 0.54512 0.99829 0.35391   2.201182
 H 0.44 0.125 0.8837   0.455761
 H 0.302 0.228 0.7419   0.37476
 H 0.1259 0.0644 0.8747   0.119512
 H 0.041 0.978 0.7801   0.116002
 H 0.56 0.625 0.6163   0.455761
 H 0.698 0.728 0.7581   0.37476
 H 0.8741 0.5644 0.6253   0.119512
 H 0.959 0.478 0.7199   0.116002
 H 0.56 0.875 0.1163   0.455761
 H 0.698 0.772 0.2581   0.37476
 H 0.8741 0.9356 0.1253   0.119512
 H 0.959 0.022 0.2199   0.116002
 H 0.44 0.375 0.3837   0.455761
 H 0.302 0.272 0.2419   0.37476
 H 0.1259 0.4356 0.3747   0.119512
 H 0.041 0.522 0.2801   0.116002
 C 0.0468 0.3057 0.84011   0.701191
 C 0.1823 0.1393 0.8433   0.045118
 C 0.1837 0.0355 0.78552   0.082779
 C 0.3611 0.8941 0.78871   0.671468
 C 0.5821 0.4242 0.00133   0.573586
 C 0.9532 0.8057 0.65989   0.701191
 C 0.8177 0.6393 0.6567   0.045118
 C 0.8163 0.5355 0.71448   0.082779
 C 0.6389 0.3941 0.71129   0.671468
 C 0.4179 0.9242 0.49867   0.573586
 C 0.9532 0.6943 0.15989   0.701191
 C 0.8177 0.8607 0.1567   0.045118
 C 0.8163 0.9645 0.21448   0.082779
 C 0.6389 0.1059 0.21129   0.671468
 C 0.4179 0.5758 0.99867   0.573581
 C 0.0468 0.1943 0.34011   0.701191
 C 0.1823 0.3607 0.3433   0.045118
 C 0.1837 0.4645 0.28552   0.082779
 C 0.3611 0.6059 0.28871   0.671468
 C 0.5821 0.0758 0.50133   0.573581
 O 0.8462 0.2893 0.83336   -0.687266
 O 0.1456 0.4473 0.84532   -0.680279
 O 0.3999 0.186 0.85829   -0.635704
 O 0.2203 0.1403 0.7347   -0.639432
 O 0.3504 0.7868 0.82974   -0.655992
 O 0.5111 0.898 0.74922   -0.700581
 O 0.6615 0.3694 0.95368   -0.688551
 O 0.6233 0.3681 0.05176   -0.653552
 O 0.1538 0.7893 0.66664   -0.687266
 O 0.8544 0.9473 0.65468   -0.68028
 O 0.6001 0.686 0.64171   -0.635704
 O 0.7797 0.6403 0.7653   -0.639432
 O 0.6496 0.2868 0.67026   -0.655992
 O 0.4889 0.398 0.75078   -0.700581
 O 0.3385 0.8694 0.54632   -0.688551
 O 0.3767 0.8681 0.44824   -0.653552
 O 0.1538 0.7107 0.16664   -0.687266
 O 0.8544 0.5527 0.15468   -0.680279
 O 0.6001 0.814 0.14171   -0.635704
 O 0.7797 0.8597 0.2653   -0.639432
 O 0.6496 0.2132 0.17026   -0.655992
 O 0.4889 0.102 0.25078   -0.700581
 O 0.3385 0.6306 0.04632   -0.688551
 O 0.3767 0.6319 0.94824   -0.653552
 O 0.8462 0.2107 0.33336   -0.687266
 O 0.1456 0.0527 0.34532   -0.68028
 O 0.3999 0.314 0.35829   -0.635704
 O 0.2203 0.3597 0.2347   -0.639432
 O 0.3504 0.7132 0.32974   -0.655992
 O 0.5111 0.602 0.24922   -0.700581
 O 0.6615 0.1306 0.45368   -0.688551
 O 0.6233 0.1319 0.55176   -0.653552
