{'_ref': 'TBD', '_srcid': 'CAKYAQ_clean', 'submitters': [{'name': 'Dalar Nazarian Jeff Camp and David Sholl', 'email': 'dalar@gatech.edu jcamp6@gatech.edu'}], '_method': 'VASP DFT with PBE;DDEC'}
data_Cu3H12C8(N2O)8
_symmetry_space_group_name_H-M   'P 1'
_cell_length_a   6.68500008
_cell_length_b   9.90500000
_cell_length_c   20.66600000
_cell_angle_alpha   90.00000000
_cell_angle_beta   91.90999590
_cell_angle_gamma   90.00000000
_symmetry_Int_Tables_number   1
_chemical_formula_structural   Cu3H12C8(N2O)8
_chemical_formula_sum   'Cu6 H24 C16 N32 O16'
_cell_volume   1367.63739639
_cell_formula_units_Z   2
loop_
 _symmetry_equiv_pos_site_id
 _symmetry_equiv_pos_as_xyz
  1  'x, y, z'
loop_
 _atom_site_label
 _atom_site_fract_x
 _atom_site_fract_y
 _atom_site_fract_z
 _atom_site_charge
 Cu 0.32665 0.29581 0.72117   0.571751
 Cu 0.67335 0.79581 0.77883   0.571751
 Cu 0.67335 0.70419 0.27883   0.571751
 Cu 0.32665 0.20419 0.22117   0.571751
 Cu 0.0 0.0 0.0   0.405047
 Cu 0.0 0.5 0.5   0.405047
 H 0.8957 0.0549 0.7365   0.322942
 H 0.988 0.2283 0.9462   0.319539
 H 0.1855 0.1709 0.9345   0.323658
 H 0.4256 0.7568 0.6575   0.314339
 H 0.0952 0.1667 0.6447   0.321333
 H 0.2728 0.2013 0.6086   0.321403
 H 0.1043 0.5549 0.7635   0.322942
 H 0.012 0.7283 0.5538   0.319539
 H 0.8145 0.6709 0.5655   0.323659
 H 0.5744 0.2568 0.8425   0.314341
 H 0.9048 0.6667 0.8553   0.321333
 H 0.7272 0.7013 0.8914   0.321403
 H 0.1043 0.9451 0.2635   0.322942
 H 0.012 0.7717 0.0538   0.319539
 H 0.8145 0.8291 0.0655   0.323657
 H 0.5744 0.2432 0.3425   0.314339
 H 0.9048 0.8333 0.3553   0.321333
 H 0.7272 0.7987 0.3914   0.321403
 H 0.8957 0.4451 0.2365   0.322942
 H 0.988 0.2717 0.4462   0.31954
 H 0.1855 0.3291 0.4345   0.323658
 H 0.4256 0.7432 0.1575   0.314341
 H 0.0952 0.3333 0.1447   0.321333
 H 0.2728 0.2987 0.1086   0.321403
 C 0.886 0.9774 0.8756   0.55072
 C 0.998 0.149 0.8138   0.524808
 C 0.4314 0.0312 0.7176   0.550144
 C 0.3014 0.9241 0.628   0.549476
 C 0.114 0.4774 0.6244   0.55072
 C 0.002 0.649 0.6862   0.524807
 C 0.5686 0.5312 0.7824   0.550144
 C 0.6986 0.4241 0.872   0.549476
 C 0.114 0.0226 0.1244   0.55072
 C 0.002 0.851 0.1862   0.524808
 C 0.5686 0.9688 0.2824   0.550144
 C 0.6986 0.0759 0.372   0.549476
 C 0.886 0.5226 0.3756   0.55072
 C 0.998 0.351 0.3138   0.524807
 C 0.4314 0.4688 0.2176   0.550144
 C 0.3014 0.5759 0.128   0.549476
 N 0.907 0.0522 0.7781   -0.237982
 N 0.8324 0.9464 0.8152   -0.426542
 N 0.9806 0.1 0.8761   -0.112871
 N 0.0539 0.1526 0.9357   -0.446403
 N 0.4099 0.841 0.6659   -0.259986
 N 0.4961 0.9042 0.7211   -0.429028
 N 0.3132 0.0443 0.6619   -0.124202
 N 0.2297 0.1712 0.6468   -0.486977
 N 0.093 0.5522 0.7219   -0.237982
 N 0.1676 0.4464 0.6848   -0.426542
 N 0.0194 0.6 0.6239   -0.11287
 N 0.9461 0.6526 0.5643   -0.446404
 N 0.5901 0.341 0.8341   -0.259986
 N 0.5039 0.4042 0.7789   -0.429028
 N 0.6868 0.5443 0.8381   -0.124202
 N 0.7703 0.6712 0.8532   -0.486977
 N 0.093 0.9478 0.2219   -0.237982
 N 0.1676 0.0536 0.1848   -0.426542
 N 0.0194 0.9 0.1239   -0.112871
 N 0.9461 0.8474 0.0643   -0.446403
 N 0.5901 0.159 0.3341   -0.259986
 N 0.5039 0.0958 0.2789   -0.429028
 N 0.6868 0.9557 0.3381   -0.124202
 N 0.7703 0.8288 0.3532   -0.486977
 N 0.907 0.4478 0.2781   -0.237982
 N 0.8324 0.5536 0.3152   -0.426542
 N 0.9806 0.4 0.3761   -0.112871
 N 0.0539 0.3474 0.4357   -0.446404
 N 0.4099 0.659 0.1659   -0.259986
 N 0.4961 0.5958 0.2211   -0.429028
 N 0.3132 0.4557 0.1619   -0.124202
 N 0.2297 0.3288 0.1468   -0.486977
 O 0.859 0.9104 0.92676   -0.588761
 O 0.0776 0.2558 0.79733   -0.575751
 O 0.4644 0.1307 0.75395   -0.573171
 O 0.2121 0.9032 0.57611   -0.610964
 O 0.141 0.4104 0.57324   -0.588761
 O 0.9224 0.7558 0.70267   -0.575751
 O 0.5356 0.6307 0.74605   -0.573171
 O 0.7879 0.4032 0.92389   -0.610964
 O 0.141 0.0896 0.07324   -0.588761
 O 0.9224 0.7442 0.20267   -0.575751
 O 0.5356 0.8693 0.24605   -0.573171
 O 0.7879 0.0968 0.42389   -0.610964
 O 0.859 0.5896 0.42676   -0.588761
 O 0.0776 0.2442 0.29733   -0.575751
 O 0.4644 0.3693 0.25395   -0.573171
 O 0.2121 0.5968 0.07611   -0.610964
