{'_ref': 'TBD', '_srcid': 'CAKYAQ_clean', 'submitters': [{'name': 'Dalar Nazarian Jeff Camp and David Sholl', 'email': 'dalar@gatech.edu jcamp6@gatech.edu'}], '_method': 'VASP DFT with PBE;DDEC'}
data_La2NiH14C26(N3O8)2
_symmetry_space_group_name_H-M   'P 1'
_cell_length_a   7.29180029
_cell_length_b   9.33999960
_cell_length_c   14.12900000
_cell_angle_alpha   83.81599960
_cell_angle_beta   85.46099996
_cell_angle_gamma   72.64599862
_symmetry_Int_Tables_number   1
_chemical_formula_structural   La2NiH14C26(N3O8)2
_chemical_formula_sum   'La2 Ni1 H14 C26 N6 O16'
_cell_volume   911.99384019
_cell_formula_units_Z   1
loop_
 _symmetry_equiv_pos_site_id
 _symmetry_equiv_pos_as_xyz
  1  'x, y, z'
loop_
 _atom_site_label
 _atom_site_fract_x
 _atom_site_fract_y
 _atom_site_fract_z
 _atom_site_charge
 La 0.50617 0.28555 0.59596   2.170323
 La 0.49383 0.71445 0.40404   2.17032
 Ni 0.5 0.5 0.0   0.685779
 H 0.8373 0.538 0.0039   0.301799
 H 0.7002 0.6859 0.0066   0.342627
 H 0.1936 0.8292 0.9021   0.108258
 H 0.2165 0.8778 0.7347   0.339363
 H 0.9895 0.441 0.8589   0.12459
 H 0.9185 0.7369 0.626   0.121149
 H 0.6243 0.8565 0.8719   0.125102
 H 0.1627 0.462 0.9961   0.301803
 H 0.2998 0.3141 0.9934   0.342618
 H 0.8064 0.1708 0.0979   0.108243
 H 0.7835 0.1222 0.2653   0.339364
 H 0.0105 0.559 0.1411   0.124588
 H 0.0815 0.2631 0.374   0.121149
 H 0.3757 0.1435 0.1281   0.125093
 C 0.2644 0.762 0.8593   0.224053
 C 0.3927 0.6701 0.7246   -0.032229
 C 0.4507 0.5625 0.7995   -0.018857
 C 0.5846 0.4051 0.8107   0.69158
 C 0.4441 0.6812 0.6211   0.674167
 C 0.1274 0.4575 0.6798   0.637425
 C 0.7959 0.642 0.881   0.191273
 C 0.9302 0.5358 0.8294   -0.163112
 C 0.9762 0.5709 0.7338   -0.066764
 C 0.8886 0.7131 0.6899   -0.060256
 C 0.7114 0.7843 0.8371   -0.176788
 C 0.7557 0.8198 0.742   -0.086951
 C 0.6593 0.9727 0.6934   0.662409
 C 0.7356 0.238 0.1407   0.224057
 C 0.6073 0.3299 0.2754   -0.032229
 C 0.5493 0.4375 0.2005   -0.018857
 C 0.4154 0.5949 0.1893   0.69158
 C 0.5559 0.3188 0.3789   0.674167
 C 0.8726 0.5425 0.3202   0.637425
 C 0.2041 0.358 0.119   0.191271
 C 0.0698 0.4642 0.1706   -0.163111
 C 0.0238 0.4291 0.2662   -0.066765
 C 0.1114 0.2869 0.3101   -0.060256
 C 0.2886 0.2157 0.1629   -0.176784
 C 0.2443 0.1802 0.258   -0.086952
 C 0.3407 0.0273 0.3066   0.662409
 N 0.7343 0.602 0.9756   -0.590426
 N 0.3681 0.623 0.8836   -0.361493
 N 0.2746 0.7936 0.765   -0.212652
 N 0.2657 0.398 0.0244   -0.590424
 N 0.6319 0.377 0.1164   -0.361494
 N 0.7254 0.2064 0.235   -0.212653
 O 0.6264 0.3565 0.8961   -0.559147
 O 0.6485 0.3343 0.7399   -0.670285
 O 0.4046 0.8096 0.5782   -0.628626
 O 0.5225 0.563 0.5792   -0.754473
 O 0.1617 0.4825 0.5924   -0.66057
 O 0.2246 0.3403 0.726   -0.65941
 O 0.7212 0.0104 0.6116   -0.700057
 O 0.5199 0.0609 0.7349   -0.654898
 O 0.3736 0.6435 0.1039   -0.559147
 O 0.3515 0.6657 0.2601   -0.670284
 O 0.5954 0.1904 0.4218   -0.628627
 O 0.4775 0.437 0.4208   -0.754473
 O 0.8383 0.5175 0.4076   -0.66057
 O 0.7754 0.6597 0.274   -0.65941
 O 0.2788 0.9896 0.3884   -0.700057
 O 0.4801 0.9391 0.2651   -0.654898
