{'_ref': 'TBD', '_srcid': 'CAKYAQ_clean', 'submitters': [{'name': 'Dalar Nazarian Jeff Camp and David Sholl', 'email': 'dalar@gatech.edu jcamp6@gatech.edu'}], '_method': 'VASP DFT with PBE;DDEC'}
data_CuH6C8(N2O)2
_symmetry_space_group_name_H-M   'P 1'
_cell_length_a   15.76000000
_cell_length_b   15.76000000
_cell_length_c   15.76000000
_cell_angle_alpha   90.00000000
_cell_angle_beta   90.00000000
_cell_angle_gamma   90.00000000
_symmetry_Int_Tables_number   1
_chemical_formula_structural   CuH6C8(N2O)2
_chemical_formula_sum   'Cu12 H72 C96 N48 O24'
_cell_volume   3914.430976
_cell_formula_units_Z   12
loop_
 _symmetry_equiv_pos_site_id
 _symmetry_equiv_pos_as_xyz
  1  'x, y, z'
loop_
 _atom_site_label
 _atom_site_fract_x
 _atom_site_fract_y
 _atom_site_fract_z
 _atom_site_charge
 Cu 0.5 0.25 0.75   0.819296
 Cu 0.0 0.25 0.75   0.819296
 Cu 0.75 0.5 0.25   0.819296
 Cu 0.75 0.0 0.25   0.819296
 Cu 0.25 0.75 0.5   0.819296
 Cu 0.25 0.75 0.0   0.819296
 Cu 0.5 0.75 0.25   0.819295
 Cu 0.0 0.75 0.25   0.819295
 Cu 0.25 0.5 0.75   0.819295
 Cu 0.25 0.0 0.75   0.819295
 Cu 0.75 0.25 0.5   0.819295
 Cu 0.75 0.25 0.0   0.819295
 H 0.5797 0.0739 0.7423   0.084731
 H 0.9203 0.4261 0.7423   0.084731
 H 0.9203 0.0739 0.7577   0.084731
 H 0.5797 0.4261 0.7577   0.084731
 H 0.7423 0.5797 0.0739   0.084731
 H 0.7423 0.9203 0.4261   0.084731
 H 0.7577 0.9203 0.0739   0.084731
 H 0.7577 0.5797 0.4261   0.084731
 H 0.0739 0.7423 0.5797   0.084731
 H 0.4261 0.7423 0.9203   0.084731
 H 0.0739 0.7577 0.9203   0.084731
 H 0.4261 0.7577 0.5797   0.084731
 H 0.5739 0.0797 0.2577   0.084731
 H 0.9261 0.4203 0.2577   0.084731
 H 0.5739 0.4203 0.2423   0.084731
 H 0.9261 0.0797 0.2423   0.084731
 H 0.0797 0.2423 0.9261   0.084731
 H 0.4203 0.2423 0.5739   0.084731
 H 0.4203 0.2577 0.9261   0.084731
 H 0.0797 0.2577 0.5739   0.084731
 H 0.2423 0.5739 0.4203   0.084731
 H 0.2423 0.9261 0.0797   0.084731
 H 0.2577 0.5739 0.0797   0.084731
 H 0.2577 0.9261 0.4203   0.084731
 H 0.4203 0.9261 0.2577   0.084737
 H 0.0797 0.5739 0.2577   0.084737
 H 0.0797 0.9261 0.2423   0.084737
 H 0.4203 0.5739 0.2423   0.084737
 H 0.2577 0.4203 0.9261   0.084737
 H 0.2577 0.0797 0.5739   0.084737
 H 0.2423 0.0797 0.9261   0.084737
 H 0.2423 0.4203 0.5739   0.084737
 H 0.9261 0.2577 0.4203   0.084737
 H 0.5739 0.2577 0.0797   0.084737
 H 0.9261 0.2423 0.0797   0.084737
 H 0.5739 0.2423 0.4203   0.084737
 H 0.4261 0.9203 0.7423   0.084737
 H 0.0739 0.5797 0.7423   0.084737
 H 0.4261 0.5797 0.7577   0.084737
 H 0.0739 0.9203 0.7577   0.084737
 H 0.9203 0.7577 0.0739   0.084737
 H 0.5797 0.7577 0.4261   0.084737
 H 0.5797 0.7423 0.0739   0.084737
 H 0.9203 0.7423 0.4261   0.084737
 H 0.7577 0.4261 0.5797   0.084737
 H 0.7577 0.0739 0.9203   0.084737
 H 0.7423 0.4261 0.9203   0.084737
 H 0.7423 0.0739 0.5797   0.084737
 H 0.686 0.003 0.814   0.147061
 H 0.814 0.497 0.814   0.147061
 H 0.814 0.003 0.686   0.147064
 H 0.686 0.497 0.686   0.147064
 H 0.814 0.686 0.003   0.147062
 H 0.814 0.814 0.497   0.147062
 H 0.686 0.814 0.003   0.147065
 H 0.686 0.686 0.497   0.147065
 H 0.003 0.814 0.686   0.147063
 H 0.497 0.814 0.814   0.147063
 H 0.003 0.686 0.814   0.147066
 H 0.497 0.686 0.686   0.147066
 H 0.503 0.186 0.186   0.147061
 H 0.997 0.314 0.186   0.147061
 H 0.503 0.314 0.314   0.147064
 H 0.997 0.186 0.314   0.147064
 H 0.186 0.314 0.997   0.147062
 H 0.314 0.314 0.503   0.147062
 H 0.314 0.186 0.997   0.147065
 H 0.186 0.186 0.503   0.147065
 H 0.314 0.503 0.314   0.147063
 H 0.314 0.997 0.186   0.147063
 H 0.186 0.503 0.186   0.147066
 H 0.186 0.997 0.314   0.147066
 C 0.6086 0.1008 0.7862   0.273037
 C 0.8914 0.3992 0.7862   0.273037
 C 0.8914 0.1008 0.7138   0.273038
 C 0.6086 0.3992 0.7138   0.273038
 C 0.7862 0.6086 0.1008   0.273038
 C 0.7862 0.8914 0.3992   0.273038
 C 0.7138 0.8914 0.1008   0.273038
 C 0.7138 0.6086 0.3992   0.273038
 C 0.1008 0.7862 0.6086   0.273038
 C 0.3992 0.7862 0.8914   0.273038
 C 0.1008 0.7138 0.8914   0.273038
 C 0.3992 0.7138 0.6086   0.273038
 C 0.6008 0.1086 0.2138   0.273038
 C 0.8992 0.3914 0.2138   0.273038
 C 0.6008 0.3914 0.2862   0.273038
 C 0.8992 0.1086 0.2862   0.273038
 C 0.1086 0.2862 0.8992   0.273038
 C 0.3914 0.2862 0.6008   0.273038
 C 0.3914 0.2138 0.8992   0.273038
 C 0.1086 0.2138 0.6008   0.273038
 C 0.2862 0.6008 0.3914   0.273038
 C 0.2862 0.8992 0.1086   0.273038
 C 0.2138 0.6008 0.1086   0.273038
 C 0.2138 0.8992 0.3914   0.273038
 C 0.3914 0.8992 0.2138   0.273036
 C 0.1086 0.6008 0.2138   0.273036
 C 0.1086 0.8992 0.2862   0.273036
 C 0.3914 0.6008 0.2862   0.273036
 C 0.2138 0.3914 0.8992   0.273036
 C 0.2138 0.1086 0.6008   0.273036
 C 0.2862 0.1086 0.8992   0.273036
 C 0.2862 0.3914 0.6008   0.273036
 C 0.8992 0.2138 0.3914   0.273036
 C 0.6008 0.2138 0.1086   0.273036
 C 0.8992 0.2862 0.1086   0.273036
 C 0.6008 0.2862 0.3914   0.273036
 C 0.3992 0.8914 0.7862   0.273036
 C 0.1008 0.6086 0.7862   0.273036
 C 0.3992 0.6086 0.7138   0.273036
 C 0.1008 0.8914 0.7138   0.273036
 C 0.8914 0.7138 0.1008   0.273036
 C 0.6086 0.7138 0.3992   0.273036
 C 0.6086 0.7862 0.1008   0.273036
 C 0.8914 0.7862 0.3992   0.273036
 C 0.7138 0.3992 0.6086   0.273036
 C 0.7138 0.1008 0.8914   0.273036
 C 0.7862 0.3992 0.8914   0.273036
 C 0.7862 0.1008 0.6086   0.273036
 C 0.6278 0.2188 0.8722   0.713066
 C 0.6713 0.0573 0.8287   -0.383571
 C 0.8722 0.2812 0.8722   0.713066
 C 0.8287 0.4427 0.8287   -0.383571
 C 0.8722 0.2188 0.6278   0.713066
 C 0.8287 0.0573 0.6713   -0.383571
 C 0.6278 0.2812 0.6278   0.713066
 C 0.6713 0.4427 0.6713   -0.383571
 C 0.8722 0.6278 0.2188   0.713066
 C 0.8287 0.6713 0.0573   -0.383572
 C 0.8722 0.8722 0.2812   0.713066
 C 0.8287 0.8287 0.4427   -0.383572
 C 0.6278 0.8722 0.2188   0.713066
 C 0.6713 0.8287 0.0573   -0.383571
 C 0.6278 0.6278 0.2812   0.713066
 C 0.6713 0.6713 0.4427   -0.383571
 C 0.2188 0.8722 0.6278   0.713066
 C 0.0573 0.8287 0.6713   -0.383572
 C 0.2812 0.8722 0.8722   0.713066
 C 0.4427 0.8287 0.8287   -0.383572
 C 0.2188 0.6278 0.8722   0.713066
 C 0.0573 0.6713 0.8287   -0.383572
 C 0.2812 0.6278 0.6278   0.713066
 C 0.4427 0.6713 0.6713   -0.383572
 C 0.7188 0.1278 0.1278   0.713066
 C 0.5573 0.1713 0.1713   -0.383571
 C 0.7812 0.3722 0.1278   0.713066
 C 0.9427 0.3287 0.1713   -0.383571
 C 0.7188 0.3722 0.3722   0.713066
 C 0.5573 0.3287 0.3287   -0.383571
 C 0.7812 0.1278 0.3722   0.713066
 C 0.9427 0.1713 0.3287   -0.383571
 C 0.1278 0.3722 0.7812   0.713066
 C 0.1713 0.3287 0.9427   -0.383571
 C 0.3722 0.3722 0.7188   0.713066
 C 0.3287 0.3287 0.5573   -0.383571
 C 0.3722 0.1278 0.7812   0.713066
 C 0.3287 0.1713 0.9427   -0.383571
 C 0.1278 0.1278 0.7188   0.713066
 C 0.1713 0.1713 0.5573   -0.383571
 C 0.3722 0.7188 0.3722   0.713066
 C 0.3287 0.5573 0.3287   -0.383572
 C 0.3722 0.7812 0.1278   0.713066
 C 0.3287 0.9427 0.1713   -0.383572
 C 0.1278 0.7188 0.1278   0.713066
 C 0.1713 0.5573 0.1713   -0.383572
 C 0.1278 0.7812 0.3722   0.713066
 C 0.1713 0.9427 0.3287   -0.383572
 N 0.5884 0.1795 0.806   -0.489249
 N 0.9116 0.3205 0.806   -0.489249
 N 0.9116 0.1795 0.694   -0.489249
 N 0.5884 0.3205 0.694   -0.489249
 N 0.806 0.5884 0.1795   -0.489249
 N 0.806 0.9116 0.3205   -0.489249
 N 0.694 0.9116 0.1795   -0.489249
 N 0.694 0.5884 0.3205   -0.489249
 N 0.1795 0.806 0.5884   -0.489249
 N 0.3205 0.806 0.9116   -0.489249
 N 0.1795 0.694 0.9116   -0.489249
 N 0.3205 0.694 0.5884   -0.489249
 N 0.6795 0.0884 0.194   -0.489249
 N 0.8205 0.4116 0.194   -0.489249
 N 0.6795 0.4116 0.306   -0.489249
 N 0.8205 0.0884 0.306   -0.489249
 N 0.0884 0.306 0.8205   -0.489249
 N 0.4116 0.306 0.6795   -0.489249
 N 0.4116 0.194 0.8205   -0.489249
 N 0.0884 0.194 0.6795   -0.489249
 N 0.306 0.6795 0.4116   -0.489249
 N 0.306 0.8205 0.0884   -0.489249
 N 0.194 0.6795 0.0884   -0.489249
 N 0.194 0.8205 0.4116   -0.489249
 N 0.4116 0.8205 0.194   -0.489249
 N 0.0884 0.6795 0.194   -0.489249
 N 0.0884 0.8205 0.306   -0.489249
 N 0.4116 0.6795 0.306   -0.489249
 N 0.194 0.4116 0.8205   -0.489249
 N 0.194 0.0884 0.6795   -0.489249
 N 0.306 0.0884 0.8205   -0.489249
 N 0.306 0.4116 0.6795   -0.489249
 N 0.8205 0.194 0.4116   -0.489249
 N 0.6795 0.194 0.0884   -0.489249
 N 0.8205 0.306 0.0884   -0.489249
 N 0.6795 0.306 0.4116   -0.489249
 N 0.3205 0.9116 0.806   -0.489248
 N 0.1795 0.5884 0.806   -0.489248
 N 0.3205 0.5884 0.694   -0.489248
 N 0.1795 0.9116 0.694   -0.489248
 N 0.9116 0.694 0.1795   -0.489248
 N 0.5884 0.694 0.3205   -0.489248
 N 0.5884 0.806 0.1795   -0.489248
 N 0.9116 0.806 0.3205   -0.489248
 N 0.694 0.3205 0.5884   -0.489248
 N 0.694 0.1795 0.9116   -0.489248
 N 0.806 0.3205 0.9116   -0.489248
 N 0.806 0.1795 0.5884   -0.489248
 O 0.6042 0.2908 0.8958   -0.623251
 O 0.8958 0.2092 0.8958   -0.623251
 O 0.8958 0.2908 0.6042   -0.623251
 O 0.6042 0.2092 0.6042   -0.623251
 O 0.8958 0.6042 0.2908   -0.623251
 O 0.8958 0.8958 0.2092   -0.623251
 O 0.6042 0.8958 0.2908   -0.623251
 O 0.6042 0.6042 0.2092   -0.623251
 O 0.2908 0.8958 0.6042   -0.623251
 O 0.2092 0.8958 0.8958   -0.623251
 O 0.2908 0.6042 0.8958   -0.623251
 O 0.2092 0.6042 0.6042   -0.623251
 O 0.7908 0.1042 0.1042   -0.62325
 O 0.7092 0.3958 0.1042   -0.62325
 O 0.7908 0.3958 0.3958   -0.62325
 O 0.7092 0.1042 0.3958   -0.62325
 O 0.1042 0.3958 0.7092   -0.62325
 O 0.3958 0.3958 0.7908   -0.62325
 O 0.3958 0.1042 0.7092   -0.62325
 O 0.1042 0.1042 0.7908   -0.62325
 O 0.3958 0.7908 0.3958   -0.62325
 O 0.3958 0.7092 0.1042   -0.62325
 O 0.1042 0.7908 0.1042   -0.62325
 O 0.1042 0.7092 0.3958   -0.62325
