{'_ref': 'TBD', '_srcid': 'CAKYAQ_clean', 'submitters': [{'name': 'Dalar Nazarian Jeff Camp and David Sholl', 'email': 'dalar@gatech.edu jcamp6@gatech.edu'}], '_method': 'VASP DFT with PBE;DDEC'}
data_Co2H22C25N18
_symmetry_space_group_name_H-M   'P 1'
_cell_length_a   13.93900000
_cell_length_b   15.23000000
_cell_length_c   16.40500000
_cell_angle_alpha   90.00000000
_cell_angle_beta   90.00000000
_cell_angle_gamma   90.00000000
_symmetry_Int_Tables_number   1
_chemical_formula_structural   Co2H22C25N18
_chemical_formula_sum   'Co8 H88 C100 N72'
_cell_volume   3482.63336285
_cell_formula_units_Z   4
loop_
 _symmetry_equiv_pos_site_id
 _symmetry_equiv_pos_as_xyz
  1  'x, y, z'
loop_
 _atom_site_label
 _atom_site_fract_x
 _atom_site_fract_y
 _atom_site_fract_z
 _atom_site_charge
 Co 0.66609 0.91473 0.5768   0.557773
 Co 0.16609 0.58527 0.9232   0.557773
 Co 0.83391 0.08527 0.5768   0.557773
 Co 0.33391 0.41473 0.9232   0.557773
 Co 0.33391 0.08527 0.4232   0.557773
 Co 0.83391 0.41473 0.0768   0.557773
 Co 0.16609 0.91473 0.4232   0.557773
 Co 0.66609 0.58527 0.0768   0.557773
 H 0.3141 0.2318 0.8338   0.071487
 H 0.5168 0.4071 0.8198   0.072468
 H 0.5554 0.769 0.4918   0.075308
 H 0.4008 0.134 0.7575   0.13921
 H 0.5726 0.6506 0.4075   0.134908
 H 0.6088 0.3155 0.7417   0.136387
 H 0.6759 0.571 0.3071   0.098859
 H 0.7865 0.5905 0.3054   0.095422
 H 0.6949 0.4896 0.428   0.067034
 H 0.854 0.7018 0.3998   0.126068
 H 0.8286 0.8181 0.4849   0.074777
 H 0.8141 0.2682 0.6662   0.071485
 H 0.0168 0.0929 0.6802   0.072468
 H 0.0554 0.731 0.0082   0.075308
 H 0.9008 0.366 0.7425   0.13921
 H 0.0726 0.8494 0.0925   0.134908
 H 0.1088 0.1845 0.7583   0.136386
 H 0.1759 0.929 0.1929   0.098859
 H 0.2865 0.9095 0.1946   0.095422
 H 0.1949 0.0104 0.072   0.067033
 H 0.354 0.7982 0.1002   0.126068
 H 0.3286 0.6819 0.0151   0.074777
 H 0.1859 0.7682 0.8338   0.071487
 H 0.9832 0.5929 0.8198   0.072468
 H 0.9446 0.231 0.4918   0.075308
 H 0.0992 0.866 0.7575   0.139208
 H 0.9274 0.3494 0.4075   0.134908
 H 0.8912 0.6845 0.7417   0.136386
 H 0.8241 0.429 0.3071   0.098859
 H 0.7135 0.4095 0.3054   0.095422
 H 0.8051 0.5104 0.428   0.067027
 H 0.646 0.2982 0.3998   0.126067
 H 0.6714 0.1819 0.4849   0.074777
 H 0.6859 0.7318 0.6662   0.071485
 H 0.4832 0.9071 0.6802   0.072468
 H 0.4446 0.269 0.0082   0.075308
 H 0.5992 0.634 0.7425   0.139208
 H 0.4274 0.1506 0.0925   0.134908
 H 0.3912 0.8155 0.7583   0.136384
 H 0.3241 0.071 0.1929   0.098859
 H 0.2135 0.0905 0.1946   0.095422
 H 0.3051 0.9896 0.072   0.067027
 H 0.146 0.2018 0.1002   0.126067
 H 0.1714 0.3181 0.0151   0.074777
 H 0.6859 0.7682 0.1662   0.071487
 H 0.4832 0.5929 0.1802   0.072468
 H 0.4446 0.231 0.5082   0.075309
 H 0.5992 0.866 0.2425   0.13921
 H 0.4274 0.3494 0.5925   0.134904
 H 0.3912 0.6845 0.2583   0.136386
 H 0.3241 0.429 0.6929   0.098859
 H 0.2135 0.4095 0.6946   0.095422
 H 0.3051 0.5104 0.572   0.067031
 H 0.146 0.2982 0.6002   0.126068
 H 0.1714 0.1819 0.5151   0.074777
 H 0.1859 0.7318 0.3338   0.071485
 H 0.9832 0.9071 0.3198   0.072468
 H 0.9446 0.269 0.9918   0.075309
 H 0.0992 0.634 0.2575   0.13921
 H 0.9274 0.1506 0.9075   0.134904
 H 0.8912 0.8155 0.2417   0.136384
 H 0.8241 0.071 0.8071   0.098859
 H 0.7135 0.0905 0.8054   0.095422
 H 0.8051 0.9896 0.928   0.067031
 H 0.646 0.2018 0.8998   0.126068
 H 0.6714 0.3181 0.9849   0.074777
 H 0.8141 0.2318 0.1662   0.071487
 H 0.0168 0.4071 0.1802   0.072468
 H 0.0554 0.769 0.5082   0.075309
 H 0.9008 0.134 0.2425   0.139207
 H 0.0726 0.6506 0.5925   0.134904
 H 0.1088 0.3155 0.2583   0.136385
 H 0.1759 0.571 0.6929   0.098859
 H 0.2865 0.5905 0.6946   0.095422
 H 0.1949 0.4896 0.572   0.067025
 H 0.354 0.7018 0.6002   0.126067
 H 0.3286 0.8181 0.5151   0.074777
 H 0.3141 0.2682 0.3338   0.071485
 H 0.5168 0.0929 0.3198   0.072469
 H 0.5554 0.731 0.9918   0.075309
 H 0.4008 0.366 0.2575   0.139207
 H 0.5726 0.8494 0.9075   0.134904
 H 0.6088 0.1845 0.2417   0.136383
 H 0.6759 0.929 0.8071   0.098859
 H 0.7865 0.9095 0.8054   0.095422
 H 0.6949 0.0104 0.928   0.067025
 H 0.854 0.7982 0.8998   0.126067
 H 0.8286 0.6819 0.9849   0.074777
 C 0.57904 0.15101 0.6969   0.294193
 C 0.37476 0.24829 0.81593   0.148829
 C 0.49352 0.35141 0.80758   0.152435
 C 0.61659 0.75479 0.47342   0.162323
 C 0.42641 0.18878 0.76988   -0.184945
 C 0.51685 0.21193 0.7424   0.049169
 C 0.6261 0.68332 0.42236   -0.244009
 C 0.54953 0.29646 0.76088   -0.190601
 C 0.7319 0.5807 0.34097   -0.19312
 C 0.7923 0.71383 0.41811   -0.232631
 C 0.77652 0.7838 0.46941   0.156473
 C 0.716 0.66088 0.39354   0.166722
 C 0.07904 0.34899 0.8031   0.294193
 C 0.87476 0.25171 0.68407   0.14883
 C 0.99352 0.14859 0.69242   0.152435
 C 0.11659 0.74521 0.02658   0.162323
 C 0.92641 0.31122 0.73012   -0.184945
 C 0.01685 0.28807 0.7576   0.049168
 C 0.1261 0.81668 0.07764   -0.244009
 C 0.04953 0.20354 0.73912   -0.190601
 C 0.2319 0.9193 0.15903   -0.193121
 C 0.2923 0.78617 0.08189   -0.232631
 C 0.27652 0.7162 0.03059   0.156473
 C 0.216 0.83912 0.10646   0.166722
 C 0.92096 0.84899 0.6969   0.294193
 C 0.12524 0.75171 0.81593   0.148829
 C 0.00648 0.64859 0.80758   0.152435
 C 0.88341 0.24521 0.47342   0.162322
 C 0.07359 0.81122 0.76988   -0.184945
 C 0.98315 0.78807 0.7424   0.049168
 C 0.8739 0.31668 0.42236   -0.24401
 C 0.95047 0.70354 0.76088   -0.190601
 C 0.7681 0.4193 0.34097   -0.193121
 C 0.7077 0.28617 0.41811   -0.232631
 C 0.72348 0.2162 0.46941   0.156473
 C 0.784 0.33912 0.39354   0.166722
 C 0.42096 0.65101 0.8031   0.294193
 C 0.62524 0.74829 0.68407   0.148829
 C 0.50648 0.85141 0.69242   0.152435
 C 0.38341 0.25479 0.02658   0.162322
 C 0.57359 0.68878 0.73012   -0.184945
 C 0.48315 0.71193 0.7576   0.049168
 C 0.3739 0.18332 0.07764   -0.24401
 C 0.45047 0.79646 0.73912   -0.1906
 C 0.2681 0.0807 0.15903   -0.193121
 C 0.2077 0.21383 0.08189   -0.232631
 C 0.22348 0.2838 0.03059   0.156473
 C 0.284 0.16088 0.10646   0.166722
 C 0.42096 0.84899 0.3031   0.294193
 C 0.62524 0.75171 0.18407   0.148829
 C 0.50648 0.64859 0.19242   0.152435
 C 0.38341 0.24521 0.52658   0.162322
 C 0.57359 0.81122 0.23012   -0.184945
 C 0.48315 0.78807 0.2576   0.049168
 C 0.3739 0.31668 0.57764   -0.244008
 C 0.45047 0.70354 0.23912   -0.190601
 C 0.2681 0.4193 0.65903   -0.193121
 C 0.2077 0.28617 0.58189   -0.232631
 C 0.22348 0.2162 0.53059   0.156473
 C 0.284 0.33912 0.60646   0.166722
 C 0.92096 0.65101 0.1969   0.294193
 C 0.12524 0.74829 0.31593   0.148829
 C 0.00648 0.85141 0.30758   0.152435
 C 0.88341 0.25479 0.97342   0.162322
 C 0.07359 0.68878 0.26988   -0.184945
 C 0.98315 0.71193 0.2424   0.049168
 C 0.8739 0.18332 0.92236   -0.244008
 C 0.95047 0.79646 0.26088   -0.1906
 C 0.7681 0.0807 0.84097   -0.193121
 C 0.7077 0.21383 0.91811   -0.232631
 C 0.72348 0.2838 0.96941   0.156473
 C 0.784 0.16088 0.89354   0.166722
 C 0.07904 0.15101 0.3031   0.294193
 C 0.87476 0.24829 0.18407   0.148828
 C 0.99352 0.35141 0.19242   0.152435
 C 0.11659 0.75479 0.52658   0.162322
 C 0.92641 0.18878 0.23012   -0.184945
 C 0.01685 0.21193 0.2576   0.049168
 C 0.1261 0.68332 0.57764   -0.244008
 C 0.04953 0.29646 0.23912   -0.1906
 C 0.2319 0.5807 0.65903   -0.193121
 C 0.2923 0.71383 0.58189   -0.232631
 C 0.27652 0.7838 0.53059   0.156473
 C 0.216 0.66088 0.60646   0.166722
 C 0.57904 0.34899 0.1969   0.294193
 C 0.37476 0.25171 0.31593   0.148829
 C 0.49352 0.14859 0.30758   0.152435
 C 0.61659 0.74521 0.97342   0.162322
 C 0.42641 0.31122 0.26988   -0.184945
 C 0.51685 0.28807 0.2424   0.049168
 C 0.6261 0.81668 0.92236   -0.244008
 C 0.54953 0.20354 0.26088   -0.1906
 C 0.7319 0.9193 0.84097   -0.193121
 C 0.7923 0.78617 0.91811   -0.232631
 C 0.77652 0.7162 0.96941   0.156473
 C 0.716 0.83912 0.89354   0.166722
 C 0.75 0.5 0.3932   -0.07359
 C 0.25 0.0 0.1068   -0.07359
 C 0.25 0.5 0.6068   -0.073589
 C 0.75 0.0 0.8932   -0.073588
 N 0.63858 0.03628 0.64529   -0.015525
 N 0.56066 0.06561 0.68421   -0.332671
 N 0.4069 0.32852 0.83638   -0.29649
 N 0.7003 0.10218 0.63583   0.008353
 N 0.66449 0.1752 0.66765   -0.340046
 N 0.68947 0.8047 0.49806   -0.281
 N 0.53319 0.93261 0.51837   -0.484197
 N 0.13858 0.46372 0.85471   -0.015525
 N 0.06066 0.43439 0.81579   -0.332671
 N 0.9069 0.17148 0.66362   -0.29649
 N 0.2003 0.39782 0.86417   0.008353
 N 0.16449 0.3248 0.83235   -0.340046
 N 0.18947 0.6953 0.00194   -0.281
 N 0.03319 0.56739 0.98163   -0.484197
 N 0.86142 0.96372 0.64529   -0.015525
 N 0.93934 0.93439 0.68421   -0.332671
 N 0.0931 0.67148 0.83638   -0.29649
 N 0.7997 0.89782 0.63583   0.008353
 N 0.83551 0.8248 0.66765   -0.340046
 N 0.81053 0.1953 0.49806   -0.281
 N 0.96681 0.06739 0.51837   -0.484197
 N 0.36142 0.53628 0.85471   -0.015525
 N 0.43934 0.56561 0.81579   -0.332671
 N 0.5931 0.82852 0.66362   -0.29649
 N 0.2997 0.60218 0.86417   0.008353
 N 0.33551 0.6752 0.83235   -0.340046
 N 0.31053 0.3047 0.00194   -0.281
 N 0.46681 0.43261 0.98163   -0.484197
 N 0.36142 0.96372 0.35471   -0.015525
 N 0.43934 0.93439 0.31579   -0.332671
 N 0.5931 0.67148 0.16362   -0.29649
 N 0.2997 0.89782 0.36417   0.008353
 N 0.33551 0.8248 0.33235   -0.340046
 N 0.31053 0.1953 0.50194   -0.281
 N 0.46681 0.06739 0.48163   -0.484197
 N 0.86142 0.53628 0.14529   -0.015525
 N 0.93934 0.56561 0.18421   -0.332671
 N 0.0931 0.82852 0.33638   -0.29649
 N 0.7997 0.60218 0.13583   0.008353
 N 0.83551 0.6752 0.16765   -0.340046
 N 0.81053 0.3047 0.99806   -0.281
 N 0.96681 0.43261 0.01837   -0.484197
 N 0.13858 0.03628 0.35471   -0.015525
 N 0.06066 0.06561 0.31579   -0.332671
 N 0.9069 0.32852 0.16362   -0.29649
 N 0.2003 0.10218 0.36417   0.008353
 N 0.16449 0.1752 0.33235   -0.340046
 N 0.18947 0.8047 0.50194   -0.281
 N 0.03319 0.93261 0.48163   -0.484197
 N 0.63858 0.46372 0.14529   -0.015525
 N 0.56066 0.43439 0.18421   -0.332671
 N 0.4069 0.17148 0.33638   -0.29649
 N 0.7003 0.39782 0.13583   0.008353
 N 0.66449 0.3248 0.16765   -0.340046
 N 0.68947 0.6953 0.99806   -0.281
 N 0.53319 0.56739 0.01837   -0.484197
 N 0.75 0.0 0.3582   -0.432573
 N 0.75 0.0 0.42779   0.574014
 N 0.75 0.0 0.50007   -0.604268
 N 0.25 0.5 0.1418   -0.432573
 N 0.25 0.5 0.07221   0.574014
 N 0.25 0.5 0.99993   -0.604268
 N 0.25 0.0 0.6418   -0.432573
 N 0.25 0.0 0.57221   0.574014
 N 0.25 0.0 0.49993   -0.604268
 N 0.75 0.5 0.8582   -0.432573
 N 0.75 0.5 0.92779   0.574014
 N 0.75 0.5 7.00000000009e-05   -0.604268
 N 0.5 0.0 0.5   0.550513
 N 0.0 0.5 0.0   0.550513
 N 0.0 0.0 0.5   0.550513
 N 0.5 0.5 0.0   0.550513
