{'_ref': 'TBD', '_srcid': 'CAKYAQ_clean', 'submitters': [{'name': 'Dalar Nazarian Jeff Camp and David Sholl', 'email': 'dalar@gatech.edu jcamp6@gatech.edu'}], '_method': 'VASP DFT with PBE;DDEC'}
data_Cd3H14(C5O2)6
_symmetry_space_group_name_H-M   'P 1'
_cell_length_a   7.87329988
_cell_length_b   10.14319980
_cell_length_c   13.52800000
_cell_angle_alpha   68.35499852
_cell_angle_beta   79.64499882
_cell_angle_gamma   70.70199626
_symmetry_Int_Tables_number   1
_chemical_formula_structural   Cd3H14(C5O2)6
_chemical_formula_sum   'Cd3 H14 C30 O12'
_cell_volume   945.688666952
_cell_formula_units_Z   1
loop_
 _symmetry_equiv_pos_site_id
 _symmetry_equiv_pos_as_xyz
  1  'x, y, z'
loop_
 _atom_site_label
 _atom_site_fract_x
 _atom_site_fract_y
 _atom_site_fract_z
 _atom_site_charge
 Cd 0.82667 0.6559 0.54336   1.045383
 Cd 0.17333 0.3441 0.45664   1.045383
 Cd 0.5 0.0 0.5   1.098996
 H 0.8533 0.1318 0.5565   0.100078
 H 0.7975 0.2229 0.8287   0.098267
 H 0.8303 0.8157 0.8419   0.101894
 H 0.6023 0.1668 0.9732   0.112121
 H 0.5509 0.1119 0.1566   0.106706
 H 0.8873 0.7039 0.1969   0.113161
 H 0.9357 0.7593 0.0127   0.119217
 H 0.1467 0.8682 0.4435   0.100078
 H 0.2025 0.7771 0.1713   0.098269
 H 0.1697 0.1843 0.1581   0.101897
 H 0.3977 0.8332 0.0268   0.112122
 H 0.4491 0.8881 0.8434   0.106708
 H 0.1127 0.2961 0.8031   0.113161
 H 0.0643 0.2407 0.9873   0.11922
 C 0.8398 0.9577 0.6907   -0.151744
 C 0.8423 0.1021 0.6305   0.008035
 C 0.8279 0.2025 0.6826   -0.145581
 C 0.809 0.1558 0.7944   -0.038592
 C 0.8069 0.0123 0.8551   0.005046
 C 0.8262 0.9134 0.8023   -0.035726
 C 0.7763 0.9711 0.9742   0.06026
 C 0.6605 0.0734 0.0181   -0.141958
 C 0.6281 0.0408 0.1284   -0.026985
 C 0.7126 0.9015 0.1945   -0.155209
 C 0.829 0.7971 0.1518   -0.024051
 C 0.8598 0.8306 0.041   -0.144234
 C 0.8432 0.8498 0.6385   0.679799
 C 0.8379 0.3546 0.6241   0.664433
 C 0.6849 0.8677 0.3148   0.708952
 C 0.1602 0.0423 0.3093   -0.151743
 C 0.1577 0.8979 0.3695   0.008035
 C 0.1721 0.7975 0.3174   -0.145579
 C 0.191 0.8442 0.2056   -0.038591
 C 0.1931 0.9877 0.1449   0.005048
 C 0.1738 0.0866 0.1977   -0.035725
 C 0.2237 0.0289 0.0258   0.060261
 C 0.3395 0.9266 0.9819   -0.141957
 C 0.3719 0.9592 0.8716   -0.026983
 C 0.2874 0.0985 0.8055   -0.155207
 C 0.171 0.2029 0.8482   -0.024051
 C 0.1402 0.1694 0.959   -0.144234
 C 0.1568 0.1502 0.3615   0.679799
 C 0.1621 0.6454 0.3759   0.664432
 C 0.3151 0.1323 0.6852   0.708954
 O 0.8839 0.7161 0.6862   -0.529549
 O 0.7985 0.9004 0.5417   -0.677805
 O 0.8811 0.3967 0.5211   -0.64238
 O 0.7978 0.4467 0.6723   -0.55024
 O 0.5806 0.9714 0.3454   -0.627389
 O 0.7657 0.7436 0.372   -0.58142
 O 0.1161 0.2839 0.3138   -0.529549
 O 0.2015 0.0996 0.4583   -0.677805
 O 0.1189 0.6033 0.4789   -0.64238
 O 0.2022 0.5533 0.3277   -0.55024
 O 0.4194 0.0286 0.6546   -0.62739
 O 0.2343 0.2564 0.628   -0.58142
