{'_ref': 'TBD', '_srcid': 'CAKYAQ_clean', 'submitters': [{'name': 'Dalar Nazarian Jeff Camp and David Sholl', 'email': 'dalar@gatech.edu jcamp6@gatech.edu'}], '_method': 'VASP DFT with PBE;DDEC'}
data_CuH10C8IN2
_symmetry_space_group_name_H-M   'P 1'
_cell_length_a   16.37839990
_cell_length_b   16.37839934
_cell_length_c   16.37840000
_cell_angle_alpha   105.43899900
_cell_angle_beta   105.43899846
_cell_angle_gamma   105.43900023
_symmetry_Int_Tables_number   1
_chemical_formula_structural   CuH10C8IN2
_chemical_formula_sum   'Cu12 H120 C96 I12 N24'
_cell_volume   3804.05481042
_cell_formula_units_Z   12
loop_
 _symmetry_equiv_pos_site_id
 _symmetry_equiv_pos_as_xyz
  1  'x, y, z'
loop_
 _atom_site_label
 _atom_site_fract_x
 _atom_site_fract_y
 _atom_site_fract_z
 _atom_site_charge
 Cu 0.56912 0.25054 0.93296   0.23194
 Cu 0.74947 0.43087 0.06707   0.231622
 Cu 0.93296 0.56912 0.25054   0.23194
 Cu 0.06707 0.74947 0.43087   0.231622
 Cu 0.25054 0.93296 0.56912   0.23194
 Cu 0.43087 0.06707 0.74947   0.231622
 Cu 0.43088 0.74946 0.06704   0.23194
 Cu 0.25053 0.56913 0.93293   0.231622
 Cu 0.06704 0.43088 0.74946   0.23194
 Cu 0.93293 0.25053 0.56913   0.231622
 Cu 0.74946 0.06704 0.43088   0.23194
 Cu 0.56913 0.93293 0.25053   0.231622
 H 0.4724 0.907 0.7506   0.120256
 H 0.3832 0.8661 0.7661   0.132835
 H 0.6168 0.2331 0.1339   0.136453
 H 0.5281 0.2496 0.0933   0.120885
 H 0.604 0.8 0.8601   0.115179
 H 0.6116 0.9015 0.8995   0.110915
 H 0.6037 0.8599 0.7993   0.113845
 H 0.4548 0.7426 0.6824   0.115309
 H 0.3712 0.711 0.7109   0.125391
 H 0.454 0.6819 0.7418   0.115269
 H 0.3931 0.2889 0.018   0.122345
 H 0.3999 0.2427 0.9254   0.116969
 H 0.7574 0.6003 0.0746   0.118369
 H 0.7106 0.6072 0.9822   0.121076
 H 0.2985 0.2347 0.7855   0.105399
 H 0.3326 0.3402 0.8115   0.095215
 H 0.2291 0.2847 0.7803   0.109373
 H 0.2335 0.2344 0.9777   0.094234
 H 0.2272 0.1665 0.8869   0.116535
 H 0.1662 0.2253 0.8852   0.115665
 H 0.7506 0.4724 0.907   0.120255
 H 0.7661 0.3832 0.8661   0.132835
 H 0.1339 0.6168 0.2331   0.136453
 H 0.0933 0.5281 0.2496   0.120885
 H 0.8601 0.604 0.8   0.115179
 H 0.8995 0.6116 0.9015   0.110916
 H 0.7993 0.6037 0.8599   0.113848
 H 0.6824 0.4548 0.7426   0.115311
 H 0.7109 0.3712 0.711   0.125391
 H 0.7418 0.454 0.6819   0.115269
 H 0.018 0.3931 0.2889   0.122345
 H 0.9254 0.3999 0.2427   0.116969
 H 0.0746 0.7574 0.6003   0.118369
 H 0.9822 0.7106 0.6072   0.121076
 H 0.7855 0.2985 0.2347   0.105399
 H 0.8115 0.3326 0.3402   0.095215
 H 0.7803 0.2291 0.2847   0.109373
 H 0.9777 0.2335 0.2344   0.094233
 H 0.8869 0.2272 0.1665   0.116535
 H 0.8852 0.1662 0.2253   0.115666
 H 0.907 0.7506 0.4724   0.120255
 H 0.8661 0.7661 0.3832   0.132835
 H 0.2331 0.1339 0.6168   0.136452
 H 0.2496 0.0933 0.5281   0.120884
 H 0.8 0.8601 0.604   0.115182
 H 0.9015 0.8995 0.6116   0.110916
 H 0.8599 0.7993 0.6037   0.113848
 H 0.7426 0.6824 0.4548   0.115311
 H 0.711 0.7109 0.3712   0.125391
 H 0.6819 0.7418 0.454   0.11527
 H 0.2889 0.018 0.3931   0.122345
 H 0.2427 0.9254 0.3999   0.116969
 H 0.6003 0.0746 0.7574   0.118369
 H 0.6072 0.9822 0.7106   0.121077
 H 0.2347 0.7855 0.2985   0.105399
 H 0.3402 0.8115 0.3326   0.095215
 H 0.2847 0.7803 0.2291   0.109373
 H 0.2344 0.9777 0.2335   0.094233
 H 0.1665 0.8869 0.2272   0.116535
 H 0.2253 0.8852 0.1662   0.115666
 H 0.5276 0.093 0.2494   0.120256
 H 0.6168 0.1339 0.2339   0.132834
 H 0.3832 0.7669 0.8661   0.136453
 H 0.4719 0.7504 0.9067   0.120885
 H 0.396 0.2 0.1399   0.11518
 H 0.3884 0.0985 0.1005   0.110916
 H 0.3963 0.1401 0.2007   0.113846
 H 0.5452 0.2574 0.3176   0.115309
 H 0.6288 0.289 0.2891   0.125391
 H 0.546 0.3181 0.2582   0.115269
 H 0.6069 0.7111 0.982   0.122346
 H 0.6001 0.7573 0.0746   0.116969
 H 0.2426 0.3997 0.9254   0.118369
 H 0.2894 0.3928 0.0178   0.121077
 H 0.7015 0.7653 0.2145   0.105399
 H 0.6674 0.6598 0.1885   0.095215
 H 0.7709 0.7153 0.2197   0.109373
 H 0.7665 0.7656 0.0223   0.094236
 H 0.7728 0.8335 0.1131   0.116535
 H 0.8338 0.7747 0.1148   0.115666
 H 0.2494 0.5276 0.093   0.120255
 H 0.2339 0.6168 0.1339   0.132834
 H 0.8661 0.3832 0.7669   0.136453
 H 0.9067 0.4719 0.7504   0.120885
 H 0.1399 0.396 0.2   0.115181
 H 0.1005 0.3884 0.0985   0.110916
 H 0.2007 0.3963 0.1401   0.113849
 H 0.3176 0.5452 0.2574   0.115311
 H 0.2891 0.6288 0.289   0.125391
 H 0.2582 0.546 0.3181   0.115269
 H 0.982 0.6069 0.7111   0.122346
 H 0.0746 0.6001 0.7573   0.116969
 H 0.9254 0.2426 0.3997   0.118369
 H 0.0178 0.2894 0.3928   0.121077
 H 0.2145 0.7015 0.7653   0.105399
 H 0.1885 0.6674 0.6598   0.095215
 H 0.2197 0.7709 0.7153   0.109373
 H 0.0223 0.7665 0.7656   0.094235
 H 0.1131 0.7728 0.8335   0.116535
 H 0.1148 0.8338 0.7747   0.115666
 H 0.093 0.2494 0.5276   0.120255
 H 0.1339 0.2339 0.6168   0.132834
 H 0.7669 0.8661 0.3832   0.136452
 H 0.7504 0.9067 0.4719   0.120884
 H 0.2 0.1399 0.396   0.115183
 H 0.0985 0.1005 0.3884   0.110916
 H 0.1401 0.2007 0.3963   0.113849
 H 0.2574 0.3176 0.5452   0.115311
 H 0.289 0.2891 0.6288   0.125391
 H 0.3181 0.2582 0.546   0.115271
 H 0.7111 0.982 0.6069   0.122346
 H 0.7573 0.0746 0.6001   0.116969
 H 0.3997 0.9254 0.2426   0.118369
 H 0.3928 0.0178 0.2894   0.121077
 H 0.7653 0.2145 0.7015   0.105399
 H 0.6598 0.1885 0.6674   0.095215
 H 0.7153 0.2197 0.7709   0.109373
 H 0.7656 0.0223 0.7665   0.094235
 H 0.8335 0.1131 0.7728   0.116535
 H 0.7747 0.1148 0.8338   0.115666
 C 0.52345 0.12309 0.02757   0.262663
 C 0.5119 0.03816 0.03819   -0.095677
 C 0.47667 0.97291 0.87719   0.25921
 C 0.44836 0.89 0.79365   -0.316961
 C 0.48097 0.81574 0.81589   0.250551
 C 0.55159 0.20608 0.10997   -0.321166
 C 0.58458 0.8468 0.84652   -0.387135
 C 0.43624 0.73004 0.73002   -0.38657
 C 0.62261 0.52704 0.01904   0.263289
 C 0.53793 0.53766 0.00889   -0.097533
 C 0.47311 0.37733 0.9812   0.266124
 C 0.39333 0.29561 0.9615   -0.308566
 C 0.30042 0.30086 0.912   0.260006
 C 0.70441 0.60693 0.03882   -0.307404
 C 0.28898 0.28902 0.8136   -0.384444
 C 0.22494 0.22486 0.9151   -0.368065
 C 0.02757 0.52345 0.12309   0.262663
 C 0.03819 0.5119 0.03816   -0.095677
 C 0.87719 0.47667 0.97291   0.25921
 C 0.79365 0.44836 0.89   -0.316961
 C 0.81589 0.48097 0.81574   0.250551
 C 0.10997 0.55159 0.20608   -0.321166
 C 0.84652 0.58458 0.8468   -0.387136
 C 0.73002 0.43624 0.73004   -0.386571
 C 0.01904 0.62261 0.52704   0.263289
 C 0.00889 0.53793 0.53766   -0.097533
 C 0.9812 0.47311 0.37733   0.266124
 C 0.9615 0.39333 0.29561   -0.308566
 C 0.912 0.30042 0.30086   0.260006
 C 0.03882 0.70441 0.60693   -0.307404
 C 0.8136 0.28898 0.28902   -0.384444
 C 0.9151 0.22494 0.22486   -0.368065
 C 0.12309 0.02757 0.52345   0.262663
 C 0.03816 0.03819 0.5119   -0.095677
 C 0.97291 0.87719 0.47667   0.25921
 C 0.89 0.79365 0.44836   -0.31696
 C 0.81574 0.81589 0.48097   0.250547
 C 0.20608 0.10997 0.55159   -0.321163
 C 0.8468 0.84652 0.58458   -0.387135
 C 0.73004 0.73002 0.43624   -0.38657
 C 0.52704 0.01904 0.62261   0.263289
 C 0.53766 0.00889 0.53793   -0.097533
 C 0.37733 0.9812 0.47311   0.266124
 C 0.29561 0.9615 0.39333   -0.308566
 C 0.30086 0.912 0.30042   0.260006
 C 0.60693 0.03882 0.70441   -0.307404
 C 0.28902 0.8136 0.28898   -0.384444
 C 0.22486 0.9151 0.22494   -0.368065
 C 0.47655 0.87691 0.97243   0.262663
 C 0.4881 0.96184 0.96181   -0.095675
 C 0.52333 0.02709 0.12281   0.25921
 C 0.55164 0.11 0.20635   -0.316961
 C 0.51903 0.18426 0.18411   0.250551
 C 0.44841 0.79392 0.89003   -0.321166
 C 0.41542 0.1532 0.15348   -0.387136
 C 0.56376 0.26996 0.26998   -0.38657
 C 0.37739 0.47296 0.98096   0.263289
 C 0.46207 0.46234 0.99111   -0.097533
 C 0.52689 0.62267 0.0188   0.266123
 C 0.60667 0.70439 0.0385   -0.308566
 C 0.69958 0.69914 0.088   0.260006
 C 0.29559 0.39307 0.96118   -0.307405
 C 0.71102 0.71098 0.1864   -0.384444
 C 0.77506 0.77514 0.0849   -0.368067
 C 0.97243 0.47655 0.87691   0.262663
 C 0.96181 0.4881 0.96184   -0.095676
 C 0.12281 0.52333 0.02709   0.25921
 C 0.20635 0.55164 0.11   -0.316961
 C 0.18411 0.51903 0.18426   0.250551
 C 0.89003 0.44841 0.79392   -0.321167
 C 0.15348 0.41542 0.1532   -0.387137
 C 0.26998 0.56376 0.26996   -0.386571
 C 0.98096 0.37739 0.47296   0.263289
 C 0.99111 0.46207 0.46234   -0.097533
 C 0.0188 0.52689 0.62267   0.266123
 C 0.0385 0.60667 0.70439   -0.308566
 C 0.088 0.69958 0.69914   0.260006
 C 0.96118 0.29559 0.39307   -0.307405
 C 0.1864 0.71102 0.71098   -0.384444
 C 0.0849 0.77506 0.77514   -0.368067
 C 0.87691 0.97243 0.47655   0.262663
 C 0.96184 0.96181 0.4881   -0.095675
 C 0.02709 0.12281 0.52333   0.25921
 C 0.11 0.20635 0.55164   -0.31696
 C 0.18426 0.18411 0.51903   0.250547
 C 0.79392 0.89003 0.44841   -0.321163
 C 0.1532 0.15348 0.41542   -0.387136
 C 0.26996 0.26998 0.56376   -0.386571
 C 0.47296 0.98096 0.37739   0.263289
 C 0.46234 0.99111 0.46207   -0.097533
 C 0.62267 0.0188 0.52689   0.266123
 C 0.70439 0.0385 0.60667   -0.308566
 C 0.69914 0.088 0.69958   0.260006
 C 0.39307 0.96118 0.29559   -0.307405
 C 0.71098 0.1864 0.71102   -0.384444
 C 0.77514 0.0849 0.77506   -0.368067
 I 0.73861 0.26139 0.99999   -0.384074
 I 0.50001 0.23807 0.76197   -0.379041
 I 0.99999 0.73861 0.26139   -0.384074
 I 0.76197 0.50001 0.23807   -0.379041
 I 0.26139 0.99999 0.73861   -0.384074
 I 0.23807 0.76197 0.50001   -0.379041
 I 0.26139 0.73861 1.00000000032e-05   -0.384074
 I 0.49999 0.76193 0.23803   -0.37904
 I 1.00000000032e-05 0.26139 0.73861   -0.384073
 I 0.23803 0.49999 0.76193   -0.37904
 I 0.73861 1.00000000032e-05 0.26139   -0.384074
 I 0.76193 0.23803 0.49999   -0.37904
 N 0.51267 0.1297 0.94678   -0.152843
 N 0.48762 0.05359 0.87061   -0.150001
 N 0.62939 0.44701 0.0118   -0.153374
 N 0.55302 0.37064 0.98805   -0.154075
 N 0.94678 0.51267 0.1297   -0.152843
 N 0.87061 0.48762 0.05359   -0.150001
 N 0.0118 0.62939 0.44701   -0.153374
 N 0.98805 0.55302 0.37064   -0.154075
 N 0.1297 0.94678 0.51267   -0.152843
 N 0.05359 0.87061 0.48762   -0.150001
 N 0.44701 0.0118 0.62939   -0.153374
 N 0.37064 0.98805 0.55302   -0.154075
 N 0.48733 0.8703 0.05322   -0.152843
 N 0.51238 0.94641 0.12939   -0.150001
 N 0.37061 0.55299 0.9882   -0.153374
 N 0.44698 0.62936 0.01195   -0.154075
 N 0.05322 0.48733 0.8703   -0.152843
 N 0.12939 0.51238 0.94641   -0.150001
 N 0.9882 0.37061 0.55299   -0.153374
 N 0.01195 0.44698 0.62936   -0.154075
 N 0.8703 0.05322 0.48733   -0.152843
 N 0.94641 0.12939 0.51238   -0.150001
 N 0.55299 0.9882 0.37061   -0.153374
 N 0.62936 0.01195 0.44698   -0.154075
