{'_ref': 'TBD', '_srcid': 'CAKYAQ_clean', 'submitters': [{'name': 'Dalar Nazarian Jeff Camp and David Sholl', 'email': 'dalar@gatech.edu jcamp6@gatech.edu'}], '_method': 'VASP DFT with PBE;DDEC'}
data_ErH3(C5O4)2
_symmetry_space_group_name_H-M   'P 1'
_cell_length_a   7.12430000
_cell_length_b   10.69329958
_cell_length_c   17.09200000
_cell_angle_alpha   97.10899772
_cell_angle_beta   90.00000000
_cell_angle_gamma   90.00000000
_symmetry_Int_Tables_number   1
_chemical_formula_structural   ErH3(C5O4)2
_chemical_formula_sum   'Er4 H12 C40 O32'
_cell_volume   1292.09749926
_cell_formula_units_Z   4
loop_
 _symmetry_equiv_pos_site_id
 _symmetry_equiv_pos_as_xyz
  1  'x, y, z'
loop_
 _atom_site_label
 _atom_site_fract_x
 _atom_site_fract_y
 _atom_site_fract_z
 _atom_site_charge
 Er 0.02014 0.67741 0.74657   1.492362
 Er 0.52014 0.82259 0.75343   1.492362
 Er 0.97986 0.32259 0.25343   1.492362
 Er 0.47986 0.17741 0.24657   1.492362
 H 0.4561 0.1805 0.5595   0.443903
 H 0.1806 0.4885 0.52   0.115318
 H 0.1517 0.8355 0.5497   0.122807
 H 0.9561 0.3195 0.9405   0.443903
 H 0.6806 0.0115 0.98   0.115318
 H 0.6517 0.6645 0.9503   0.122807
 H 0.5439 0.8195 0.4405   0.443903
 H 0.8194 0.5115 0.48   0.115318
 H 0.8483 0.1645 0.4503   0.122807
 H 0.0439 0.6805 0.0595   0.443903
 H 0.3194 0.9885 0.02   0.115318
 H 0.3483 0.3355 0.0497   0.122807
 C 0.3261 0.5858 0.65   0.636477
 C 0.4244 0.542 0.5736   -0.007167
 C 0.3093 0.4931 0.5117   -0.031942
 C 0.6186 0.5488 0.562   -0.111383
 C 0.7541 0.5967 0.626   0.663321
 C 0.8528 0.8903 0.6353   0.664016
 C 0.9275 0.9528 0.567   -0.05207
 C 0.0903 0.9013 0.5295   -0.047557
 C 0.8392 0.0532 0.537   -0.080203
 C 0.6773 0.1216 0.5792   0.635935
 C 0.8261 0.9142 0.85   0.636477
 C 0.9244 0.958 0.9264   -0.007167
 C 0.8093 0.0069 0.9883   -0.031942
 C 0.1186 0.9512 0.938   -0.111383
 C 0.2541 0.9033 0.874   0.663321
 C 0.3528 0.6097 0.8647   0.664016
 C 0.4275 0.5472 0.933   -0.05207
 C 0.5903 0.5987 0.9705   -0.047557
 C 0.3392 0.4468 0.963   -0.080203
 C 0.1773 0.3784 0.9208   0.635936
 C 0.6739 0.4142 0.35   0.636477
 C 0.5756 0.458 0.4264   -0.00717
 C 0.6907 0.5069 0.4883   -0.031934
 C 0.3814 0.4512 0.438   -0.111376
 C 0.2459 0.4033 0.374   0.663321
 C 0.1472 0.1097 0.3647   0.664016
 C 0.0725 0.0472 0.433   -0.052071
 C 0.9097 0.0987 0.4705   -0.047551
 C 0.1608 0.9468 0.463   -0.080198
 C 0.3227 0.8784 0.4208   0.635936
 C 0.1739 0.0858 0.15   0.636477
 C 0.0756 0.042 0.0736   -0.00717
 C 0.1907 0.9931 0.0117   -0.031934
 C 0.8814 0.0488 0.062   -0.111376
 C 0.7459 0.0967 0.126   0.663321
 C 0.6472 0.3903 0.1353   0.664016
 C 0.5725 0.4528 0.067   -0.052071
 C 0.4097 0.4013 0.0295   -0.047551
 C 0.6608 0.5532 0.037   -0.080198
 C 0.8227 0.6216 0.0792   0.635936
 O 0.2428 0.5066 0.68556   -0.479487
 O 0.3078 0.7038 0.67159   -0.643979
 O 0.9242 0.5871 0.6145   -0.560874
 O 0.6904 0.6463 0.69311   -0.669301
 O 0.972 0.8448 0.6769   -0.542334
 O 0.6778 0.8858 0.64482   -0.579019
 O 0.6779 0.1522 0.6504   -0.45218
 O 0.5439 0.1488 0.533   -0.516651
 O 0.7428 0.9934 0.81444   -0.479489
 O 0.8078 0.7962 0.82841   -0.643979
 O 0.4242 0.9129 0.8855   -0.560874
 O 0.1904 0.8537 0.80689   -0.669301
 O 0.472 0.6552 0.8231   -0.542334
 O 0.1778 0.6142 0.85518   -0.579019
 O 0.1779 0.3478 0.8496   -0.452183
 O 0.0439 0.3512 0.967   -0.516651
 O 0.7572 0.4934 0.31444   -0.479487
 O 0.6922 0.2962 0.32841   -0.643979
 O 0.0758 0.4129 0.3855   -0.560874
 O 0.3096 0.3537 0.30689   -0.669301
 O 0.028 0.1552 0.3231   -0.542334
 O 0.3222 0.1142 0.35518   -0.579019
 O 0.3221 0.8478 0.3496   -0.45218
 O 0.4561 0.8512 0.467   -0.516651
 O 0.2572 0.0066 0.18556   -0.479489
 O 0.1922 0.2038 0.17159   -0.643979
 O 0.5758 0.0871 0.1145   -0.560874
 O 0.8096 0.1463 0.19311   -0.669301
 O 0.528 0.3448 0.1769   -0.542335
 O 0.8222 0.3858 0.14482   -0.579019
 O 0.8221 0.6522 0.1504   -0.452183
 O 0.9561 0.6488 0.033   -0.516651
