{'_ref': 'TBD', '_srcid': 'CAKYAQ_clean', 'submitters': [{'name': 'Dalar Nazarian Jeff Camp and David Sholl', 'email': 'dalar@gatech.edu jcamp6@gatech.edu'}], '_method': 'VASP DFT with PBE;DDEC'}
data_Cu2H14WC14(SN)4
_symmetry_space_group_name_H-M   'P 1'
_cell_length_a   11.03170009
_cell_length_b   13.89340035
_cell_length_c   18.29110000
_cell_angle_alpha   73.65879909
_cell_angle_beta   72.44869995
_cell_angle_gamma   66.60839982
_symmetry_Int_Tables_number   1
_chemical_formula_structural   Cu2H14WC14(SN)4
_chemical_formula_sum   'Cu8 H56 W4 C56 S16 N16'
_cell_volume   2411.03812009
_cell_formula_units_Z   4
loop_
 _symmetry_equiv_pos_site_id
 _symmetry_equiv_pos_as_xyz
  1  'x, y, z'
loop_
 _atom_site_label
 _atom_site_fract_x
 _atom_site_fract_y
 _atom_site_fract_z
 _atom_site_charge
 Cu 0.40765 0.73701 0.60499   0.3245
 Cu 0.59333 0.74092 0.74686   0.267698
 Cu 0.74965 0.76299 0.89501   0.323721
 Cu 0.08111 0.75908 0.75314   0.267306
 Cu 0.59235 0.26299 0.39501   0.3245
 Cu 0.40667 0.25908 0.25314   0.267698
 Cu 0.25035 0.23701 0.10499   0.323721
 Cu 0.91889 0.24092 0.24686   0.267306
 H 0.9477 0.7658 0.9876   0.075365
 H 0.7666 0.5546 0.0378   0.10322
 H 0.901 0.5066 0.1356   0.123693
 H 0.1062 0.5679 0.1355   0.096817
 H 0.111 0.6783 0.0793   0.101295
 H 0.0025 0.565 0.2702   0.094195
 H 0.9326 0.8484 0.1246   0.082278
 H 0.4832 0.7802 0.0276   0.108615
 H 0.5533 0.0104 0.8558   0.108209
 H 0.3224 0.0845 0.9323   0.133744
 H 0.2502 0.8676 0.097   0.109838
 H 0.2237 0.9903 0.0949   0.095939
 H 0.2001 0.8746 0.9496   0.091382
 H 0.9903 0.0784 0.0994   0.10197
 H 0.7011 0.7342 0.5124   0.074096
 H 0.359 0.9454 0.4622   0.104265
 H 0.5432 0.9934 0.3644   0.125155
 H 0.8096 0.9321 0.3645   0.096697
 H 0.8686 0.8217 0.4207   0.101802
 H 0.8377 0.935 0.2298   0.093924
 H 0.9056 0.6516 0.3754   0.081356
 H 0.291 0.7198 0.4724   0.108289
 H 0.4195 0.4896 0.6442   0.107651
 H 0.3392 0.4155 0.5677   0.132832
 H 0.2148 0.6324 0.403   0.110412
 H 0.3089 0.5097 0.4051   0.096761
 H 0.0243 0.6254 0.5504   0.09128
 H 0.1681 0.4216 0.4006   0.10237
 H 0.0523 0.2342 0.0124   0.075365
 H 0.2334 0.4454 0.9622   0.10322
 H 0.099 0.4934 0.8644   0.123694
 H 0.8938 0.4321 0.8645   0.096817
 H 0.889 0.3217 0.9207   0.101295
 H 0.9975 0.435 0.7298   0.094195
 H 0.0674 0.1516 0.8754   0.082278
 H 0.5168 0.2198 0.9724   0.108614
 H 0.4467 0.9896 0.1442   0.108207
 H 0.6776 0.9155 0.0677   0.133744
 H 0.7498 0.1324 0.903   0.109837
 H 0.7763 0.0097 0.9051   0.095939
 H 0.7999 0.1254 0.0504   0.091381
 H 0.0097 0.9216 0.9006   0.101969
 H 0.2989 0.2658 0.4876   0.074096
 H 0.641 0.0546 0.5378   0.104265
 H 0.4568 0.0066 0.6356   0.125155
 H 0.1904 0.0679 0.6355   0.096697
 H 0.1314 0.1783 0.5793   0.101802
 H 0.1623 0.065 0.7702   0.093924
 H 0.0944 0.3484 0.6246   0.081356
 H 0.709 0.2802 0.5276   0.108288
 H 0.5805 0.5104 0.3558   0.10765
 H 0.6608 0.5845 0.4323   0.132832
 H 0.7852 0.3676 0.597   0.110411
 H 0.6911 0.4903 0.5949   0.096761
 H 0.9757 0.3746 0.4496   0.091279
 H 0.8319 0.5784 0.5994   0.102369
 W 0.84438 0.74198 0.74474   0.691492
 W 0.3311 0.75802 0.75526   0.692299
 W 0.15562 0.25802 0.25526   0.691492
 W 0.6689 0.24198 0.24474   0.692299
 C 0.9177 0.7068 0.0124   0.102165
 C 0.8202 0.5925 0.0399   -0.00897
 C 0.8941 0.5655 0.0933   -0.128241
 C 0.0498 0.6419 0.1167   -0.054167
 C 0.979 0.699 0.1858   0.026595
 C 0.9693 0.6408 0.2616   -0.102212
 C 0.9285 0.8074 0.176   -0.1284
 C 0.4722 0.8474 0.9938   0.082357
 C 0.5098 0.9725 0.9007   0.022902
 C 0.3833 0.0135 0.9423   -0.144243
 C 0.238 0.9385 0.0627   -0.068801
 C 0.1148 0.9715 0.0291   0.023944
 C 0.1183 0.9261 0.9703   -0.112859
 C 0.9946 0.0462 0.0588   -0.104217
 C 0.6369 0.7932 0.4876   0.103379
 C 0.4526 0.9075 0.4601   -0.009322
 C 0.5529 0.9345 0.4067   -0.130966
 C 0.8084 0.8581 0.3833   -0.055715
 C 0.8638 0.801 0.3142   0.025992
 C 0.8717 0.8592 0.2384   -0.100654
 C 0.9119 0.6926 0.324   -0.125544
 C 0.3134 0.6526 0.5062   0.084722
 C 0.383 0.5275 0.5993   0.022501
 C 0.3391 0.4865 0.5577   -0.140039
 C 0.2392 0.5615 0.4373   -0.070704
 C 0.1154 0.5285 0.4709   0.024299
 C 0.0147 0.5739 0.5297   -0.114564
 C 0.0996 0.4538 0.4412   -0.102824
 C 0.0823 0.2932 0.9876   0.102165
 C 0.1798 0.4075 0.9601   -0.00897
 C 0.1059 0.4345 0.9067   -0.128241
 C 0.9502 0.3581 0.8833   -0.054167
 C 0.021 0.301 0.8142   0.026595
 C 0.0307 0.3592 0.7384   -0.102212
 C 0.0715 0.1926 0.824   -0.1284
 C 0.5278 0.1526 0.0062   0.082357
 C 0.4902 0.0275 0.0993   0.022902
 C 0.6167 0.9865 0.0577   -0.144243
 C 0.762 0.0615 0.9373   -0.0688
 C 0.8852 0.0285 0.9709   0.023942
 C 0.8817 0.0739 0.0297   -0.112853
 C 0.0054 0.9538 0.9412   -0.104211
 C 0.3631 0.2068 0.5124   0.103379
 C 0.5474 0.0925 0.5399   -0.009322
 C 0.4471 0.0655 0.5933   -0.130966
 C 0.1916 0.1419 0.6167   -0.055716
 C 0.1362 0.199 0.6858   0.025992
 C 0.1283 0.1408 0.7616   -0.100654
 C 0.0881 0.3074 0.676   -0.125545
 C 0.6866 0.3474 0.4938   0.084722
 C 0.617 0.4725 0.4007   0.022501
 C 0.6609 0.5135 0.4423   -0.14004
 C 0.7608 0.4385 0.5627   -0.070704
 C 0.8846 0.4715 0.5291   0.024297
 C 0.9853 0.4261 0.4703   -0.114556
 C 0.9004 0.5462 0.5588   -0.102816
 S 0.38784 0.86163 0.79921   -0.388543
 S 0.73161 0.64441 0.83679   -0.40123
 S 0.52133 0.6367 0.70284   -0.431073
 S 0.20534 0.67824 0.84922   -0.404354
 S 0.04868 0.63837 0.70079   -0.38809
 S 0.21281 0.85559 0.66321   -0.401332
 S 0.86087 0.8633 0.79716   -0.430605
 S 0.7328 0.82176 0.65078   -0.40427
 S 0.61216 0.13837 0.20079   -0.388543
 S 0.26839 0.35559 0.16321   -0.401229
 S 0.47867 0.3633 0.29716   -0.431073
 S 0.79466 0.32176 0.15078   -0.404354
 S 0.95132 0.36163 0.29921   -0.38809
 S 0.78719 0.14441 0.33679   -0.401332
 S 0.13913 0.1367 0.20284   -0.430605
 S 0.2672 0.17824 0.34922   -0.40427
 N 0.8332 0.6837 0.9883   -0.302969
 N 0.9569 0.6378 0.076   0.057827
 N 0.565 0.8686 0.9332   -0.310075
 N 0.3601 0.9338 0.0012   0.063369
 N 0.5052 0.8163 0.5117   -0.302912
 N 0.6707 0.8622 0.424   0.058805
 N 0.3668 0.6314 0.5668   -0.311818
 N 0.2951 0.5662 0.4988   0.060387
 N 0.1668 0.3163 0.0117   -0.302969
 N 0.0431 0.3622 0.924   0.057827
 N 0.435 0.1314 0.0668   -0.310075
 N 0.6399 0.0662 0.9988   0.063368
 N 0.4948 0.1837 0.4883   -0.302912
 N 0.3293 0.1378 0.576   0.058805
 N 0.6332 0.3686 0.4332   -0.311818
 N 0.7049 0.4338 0.5012   0.060387
