{'_ref': 'TBD', '_srcid': 'CAKYAQ_clean', 'submitters': [{'name': 'Dalar Nazarian Jeff Camp and David Sholl', 'email': 'dalar@gatech.edu jcamp6@gatech.edu'}], '_method': 'VASP DFT with PBE;DDEC'}
data_CdH10C12(N3O)4
_symmetry_space_group_name_H-M   'P 1'
_cell_length_a   10.09360000
_cell_length_b   12.51080000
_cell_length_c   15.17210000
_cell_angle_alpha   90.00000000
_cell_angle_beta   90.00000000
_cell_angle_gamma   90.00000000
_symmetry_Int_Tables_number   1
_chemical_formula_structural   CdH10C12(N3O)4
_chemical_formula_sum   'Cd4 H40 C48 N48 O16'
_cell_volume   1915.91778097
_cell_formula_units_Z   4
loop_
 _symmetry_equiv_pos_site_id
 _symmetry_equiv_pos_as_xyz
  1  'x, y, z'
loop_
 _atom_site_label
 _atom_site_fract_x
 _atom_site_fract_y
 _atom_site_fract_z
 _atom_site_charge
 Cd 0.0 0.5 0.0   0.970044
 Cd 0.5 0.5 0.5   0.970044
 Cd 0.0 0.0 0.5   0.970044
 Cd 0.5 0.0 0.0   0.970044
 H 0.3789 0.7593 0.0579   0.079636
 H 0.6375 0.7762 0.8707   0.102795
 H 0.5187 0.498 0.8874   0.130474
 H 0.4442 0.4792 0.7292   0.115424
 H 0.7159 0.6489 0.616   0.079614
 H 0.1211 0.2407 0.5579   0.079636
 H 0.8625 0.2238 0.3707   0.102795
 H 0.9813 0.502 0.3874   0.130474
 H 0.0558 0.5208 0.2292   0.115424
 H 0.7841 0.3511 0.116   0.079614
 H 0.6211 0.2593 0.4421   0.079637
 H 0.3625 0.2762 0.6293   0.102796
 H 0.4813 0.998 0.6126   0.130474
 H 0.5558 0.9792 0.7708   0.115423
 H 0.2841 0.1489 0.884   0.079614
 H 0.8789 0.7407 0.9421   0.079637
 H 0.1375 0.7238 0.1293   0.102796
 H 0.0187 0.002 0.1126   0.130474
 H 0.9442 0.0208 0.2708   0.115423
 H 0.2159 0.8511 0.384   0.079614
 H 0.6211 0.2407 0.9421   0.079636
 H 0.3625 0.2238 0.1293   0.102795
 H 0.4813 0.502 0.1126   0.130474
 H 0.5558 0.5208 0.2708   0.115424
 H 0.2841 0.3511 0.384   0.079614
 H 0.8789 0.7593 0.4421   0.079636
 H 0.1375 0.7762 0.6293   0.102795
 H 0.0187 0.498 0.6126   0.130474
 H 0.9442 0.4792 0.7708   0.115424
 H 0.2159 0.6489 0.884   0.079614
 H 0.3789 0.7407 0.5579   0.079637
 H 0.6375 0.7238 0.3707   0.102796
 H 0.5187 0.002 0.3874   0.130474
 H 0.4442 0.0208 0.2292   0.115423
 H 0.7159 0.8511 0.116   0.079614
 H 0.1211 0.2593 0.0579   0.079637
 H 0.8625 0.2762 0.8707   0.102796
 H 0.9813 0.998 0.8874   0.130474
 H 0.0558 0.9792 0.7292   0.115423
 H 0.7841 0.1489 0.616   0.079614
 C 0.4359 0.7399 0.0124   0.276895
 C 0.5763 0.7511 0.9116   0.178009
 C 0.5848 0.5535 0.87552   -0.031786
 C 0.721 0.5096 0.9055   0.619354
 C 0.5161 0.524 0.7189   0.185965
 C 0.665 0.6161 0.6594   0.289482
 C 0.0641 0.2601 0.5124   0.276895
 C 0.9237 0.2489 0.4116   0.178009
 C 0.9152 0.4465 0.37552   -0.031786
 C 0.779 0.4904 0.4055   0.619354
 C 0.9839 0.476 0.2189   0.185965
 C 0.835 0.3839 0.1594   0.289482
 C 0.5641 0.2399 0.4876   0.276895
 C 0.4237 0.2511 0.5884   0.178009
 C 0.4152 0.0535 0.62448   -0.031786
 C 0.279 0.0096 0.5945   0.619354
 C 0.4839 0.024 0.7811   0.185965
 C 0.335 0.1161 0.8406   0.289482
 C 0.9359 0.7601 0.9876   0.276895
 C 0.0763 0.7489 0.0884   0.178009
 C 0.0848 0.9465 0.12448   -0.031786
 C 0.221 0.9904 0.0945   0.619354
 C 0.0161 0.976 0.2811   0.185965
 C 0.165 0.8839 0.3406   0.289482
 C 0.5641 0.2601 0.9876   0.276895
 C 0.4237 0.2489 0.0884   0.178009
 C 0.4152 0.4465 0.12448   -0.031786
 C 0.279 0.4904 0.0945   0.619354
 C 0.4839 0.476 0.2811   0.185965
 C 0.335 0.3839 0.3406   0.289482
 C 0.9359 0.7399 0.4876   0.276895
 C 0.0763 0.7511 0.5884   0.178009
 C 0.0848 0.5535 0.62448   -0.031786
 C 0.221 0.5096 0.5945   0.619354
 C 0.0161 0.524 0.7811   0.185965
 C 0.165 0.6161 0.8406   0.289482
 C 0.4359 0.7601 0.5124   0.276895
 C 0.5763 0.7489 0.4116   0.178009
 C 0.5848 0.9465 0.37552   -0.031786
 C 0.721 0.9904 0.4055   0.619354
 C 0.5161 0.976 0.2189   0.185965
 C 0.665 0.8839 0.1594   0.289482
 C 0.0641 0.2399 0.0124   0.276895
 C 0.9237 0.2511 0.9116   0.178009
 C 0.9152 0.0535 0.87552   -0.031786
 C 0.779 0.0096 0.9055   0.619354
 C 0.9839 0.024 0.7189   0.185965
 C 0.835 0.1161 0.6594   0.289482
 N 0.5411 0.65044 0.92032   0.14408
 N 0.4487 0.6412 0.98536   -0.354217
 N 0.5123 0.8118 0.969   -0.433294
 N 0.5885 0.56983 0.78077   0.136006
 N 0.6874 0.6288 0.74346   -0.370995
 N 0.5608 0.551 0.64056   -0.421596
 N 0.9589 0.34956 0.42032   0.14408
 N 0.0513 0.3588 0.48536   -0.354217
 N 0.9877 0.1882 0.469   -0.433294
 N 0.9115 0.43017 0.28077   0.136006
 N 0.8126 0.3712 0.24346   -0.370995
 N 0.9392 0.449 0.14056   -0.421596
 N 0.4589 0.15044 0.57968   0.14408
 N 0.5513 0.1412 0.51464   -0.354217
 N 0.4877 0.3118 0.531   -0.433294
 N 0.4115 0.06983 0.71923   0.136006
 N 0.3126 0.1288 0.75654   -0.370995
 N 0.4392 0.051 0.85944   -0.421596
 N 0.0411 0.84956 0.07968   0.14408
 N 0.9487 0.8588 0.01464   -0.354217
 N 0.0123 0.6882 0.031   -0.433294
 N 0.0885 0.93017 0.21923   0.136006
 N 0.1874 0.8712 0.25654   -0.370995
 N 0.0608 0.949 0.35944   -0.421596
 N 0.4589 0.34956 0.07968   0.14408
 N 0.5513 0.3588 0.01464   -0.354217
 N 0.4877 0.1882 0.031   -0.433294
 N 0.4115 0.43017 0.21923   0.136006
 N 0.3126 0.3712 0.25654   -0.370995
 N 0.4392 0.449 0.35944   -0.421596
 N 0.0411 0.65044 0.57968   0.14408
 N 0.9487 0.6412 0.51464   -0.354217
 N 0.0123 0.8118 0.531   -0.433294
 N 0.0885 0.56983 0.71923   0.136006
 N 0.1874 0.6288 0.75654   -0.370995
 N 0.0608 0.551 0.85944   -0.421596
 N 0.5411 0.84956 0.42032   0.14408
 N 0.4487 0.8588 0.48536   -0.354217
 N 0.5123 0.6882 0.469   -0.433294
 N 0.5885 0.93017 0.28077   0.136006
 N 0.6874 0.8712 0.24346   -0.370995
 N 0.5608 0.949 0.14056   -0.421596
 N 0.9589 0.15044 0.92032   0.14408
 N 0.0513 0.1412 0.98536   -0.354217
 N 0.9877 0.3118 0.969   -0.433294
 N 0.9115 0.06983 0.78077   0.136006
 N 0.8126 0.1288 0.74346   -0.370995
 N 0.9392 0.051 0.64056   -0.421596
 O 0.7776 0.55289 0.96912   -0.611705
 O 0.7593 0.43288 0.86127   -0.599163
 O 0.7224 0.44711 0.46912   -0.611705
 O 0.7407 0.56712 0.36127   -0.599163
 O 0.2224 0.05289 0.53088   -0.611705
 O 0.2407 0.93288 0.63873   -0.599163
 O 0.2776 0.94711 0.03088   -0.611705
 O 0.2593 0.06712 0.13873   -0.599163
 O 0.2224 0.44711 0.03088   -0.611705
 O 0.2407 0.56712 0.13873   -0.599163
 O 0.2776 0.55289 0.53088   -0.611705
 O 0.2593 0.43288 0.63873   -0.599163
 O 0.7776 0.94711 0.46912   -0.611705
 O 0.7593 0.06712 0.36127   -0.599163
 O 0.7224 0.05289 0.96912   -0.611705
 O 0.7407 0.93288 0.86127   -0.599163
