{'_ref': 'TBD', '_srcid': 'CAKYAQ_clean', 'submitters': [{'name': 'Dalar Nazarian Jeff Camp and David Sholl', 'email': 'dalar@gatech.edu jcamp6@gatech.edu'}], '_method': 'VASP DFT with PBE;DDEC'}
data_CdH24C36(NF2)4
_symmetry_space_group_name_H-M   'P 1'
_cell_length_a   13.04420037
_cell_length_b   13.04419959
_cell_length_c   16.75800000
_cell_angle_alpha   109.75700006
_cell_angle_beta   109.75699884
_cell_angle_gamma   93.33929889
_symmetry_Int_Tables_number   1
_chemical_formula_structural   CdH24C36(NF2)4
_chemical_formula_sum   'Cd2 H48 C72 N8 F16'
_cell_volume   2477.21009274
_cell_formula_units_Z   2
loop_
 _symmetry_equiv_pos_site_id
 _symmetry_equiv_pos_as_xyz
  1  'x, y, z'
loop_
 _atom_site_label
 _atom_site_fract_x
 _atom_site_fract_y
 _atom_site_fract_z
 _atom_site_charge
 Cd 0.1224 0.8776 0.25   0.624893
 Cd 0.8776 0.1224 0.75   0.624893
 H 0.3488 0.8252 0.2183   0.055381
 H 0.042 0.7038 0.0398   0.056284
 H 0.4187 0.7339 0.1098   0.121637
 H 0.103 0.6048 0.9272   0.123236
 H 0.328 0.6476 0.9039   0.104692
 H 0.2464 0.5362 0.8812   0.105601
 H 0.2168 0.1396 0.3857   0.035001
 H 0.9585 0.9453 0.3605   0.052026
 H 0.1799 0.2905 0.4856   0.112078
 H 0.9149 0.0907 0.4599   0.121392
 H 0.0756 0.326 0.6127   0.101809
 H 0.9456 0.2802 0.554   0.103654
 H 0.1748 0.6512 0.2817   0.055381
 H 0.2962 0.958 0.4602   0.056284
 H 0.2661 0.5813 0.3902   0.121637
 H 0.3952 0.897 0.5728   0.123236
 H 0.3524 0.672 0.5961   0.104692
 H 0.4638 0.7536 0.6188   0.105601
 H 0.8604 0.7832 0.1143   0.035002
 H 0.0547 0.0415 0.1395   0.052026
 H 0.7095 0.8201 0.0144   0.112078
 H 0.9093 0.0851 0.0401   0.121392
 H 0.674 0.9244 0.8873   0.101809
 H 0.7198 0.0544 0.946   0.103654
 H 0.6512 0.1748 0.7817   0.055382
 H 0.958 0.2962 0.9602   0.056284
 H 0.5813 0.2661 0.8902   0.121637
 H 0.897 0.3952 0.0728   0.123237
 H 0.672 0.3524 0.0961   0.104692
 H 0.7536 0.4638 0.1188   0.105602
 H 0.7832 0.8604 0.6143   0.035002
 H 0.0415 0.0547 0.6395   0.052026
 H 0.8201 0.7095 0.5144   0.112078
 H 0.0851 0.9093 0.5401   0.121392
 H 0.9244 0.674 0.3873   0.101809
 H 0.0544 0.7198 0.446   0.103654
 H 0.8252 0.3488 0.7183   0.055382
 H 0.7038 0.042 0.5398   0.056284
 H 0.7339 0.4187 0.6098   0.121637
 H 0.6048 0.103 0.4272   0.123237
 H 0.6476 0.328 0.4039   0.104692
 H 0.5362 0.2464 0.3812   0.105602
 H 0.1396 0.2168 0.8857   0.035002
 H 0.9453 0.9585 0.8605   0.052026
 H 0.2905 0.1799 0.9856   0.112078
 H 0.0907 0.9149 0.9599   0.121392
 H 0.326 0.0756 0.1127   0.10181
 H 0.2802 0.9456 0.054   0.103654
 C 0.29809 0.78063 0.158   0.134438
 C 0.11962 0.70948 0.05439   0.129331
 C 0.3407 0.72572 0.09373   -0.245464
 C 0.15544 0.65054 0.98646   -0.247219
 C 0.26839 0.65847 0.00539   0.124258
 C 0.3079 0.5961 0.93054   -0.164472
 C 0.40666 0.54614 0.9652   -0.096084
 C 0.39465 0.44241 0.97022   0.135323
 C 0.48508 0.3979 0.00395   0.128814
 C 0.15375 0.12909 0.40037   0.142603
 C 0.00439 0.01673 0.38589   0.149432
 C 0.13232 0.22002 0.46055   -0.229169
 C 0.9777 0.10342 0.44549   -0.238498
 C 0.04242 0.20822 0.48398   0.133022
 C 0.01695 0.30465 0.55091   -0.162015
 C 0.00962 0.40538 0.52512   -0.09769
 C 0.91743 0.40983 0.45607   0.136073
 C 0.90731 0.50051 0.43122   0.138922
 C 0.21937 0.70191 0.342   0.134438
 C 0.29052 0.88038 0.44561   0.129331
 C 0.27428 0.6593 0.40627   -0.245464
 C 0.34946 0.84456 0.51354   -0.247219
 C 0.34153 0.73161 0.49461   0.124258
 C 0.4039 0.6921 0.56946   -0.164472
 C 0.45386 0.59334 0.5348   -0.096084
 C 0.55759 0.60535 0.52978   0.135323
 C 0.6021 0.51492 0.49605   0.128814
 C 0.87091 0.84625 0.09963   0.142603
 C 0.98327 0.99561 0.11411   0.149433
 C 0.77998 0.86768 0.03945   -0.229169
 C 0.89658 0.0223 0.05451   -0.238497
 C 0.79178 0.95758 0.01602   0.133022
 C 0.69535 0.98305 0.94909   -0.162015
 C 0.59462 0.99038 0.97488   -0.09769
 C 0.59017 0.08257 0.04393   0.136073
 C 0.49949 0.09269 0.06878   0.138922
 C 0.70191 0.21937 0.842   0.134438
 C 0.88038 0.29052 0.94561   0.129332
 C 0.6593 0.27428 0.90627   -0.245464
 C 0.84456 0.34946 0.01354   -0.247219
 C 0.73161 0.34153 0.99461   0.124258
 C 0.6921 0.4039 0.06946   -0.164472
 C 0.59334 0.45386 0.0348   -0.096085
 C 0.60535 0.55759 0.02978   0.135323
 C 0.51492 0.6021 0.99605   0.128813
 C 0.84625 0.87091 0.59963   0.142603
 C 0.99561 0.98327 0.61411   0.149432
 C 0.86768 0.77998 0.53945   -0.229169
 C 0.0223 0.89658 0.55451   -0.238498
 C 0.95758 0.79178 0.51602   0.133022
 C 0.98305 0.69535 0.44909   -0.162015
 C 0.99038 0.59462 0.47488   -0.09769
 C 0.08257 0.59017 0.54393   0.136073
 C 0.09269 0.49949 0.56878   0.138923
 C 0.78063 0.29809 0.658   0.134438
 C 0.70948 0.11962 0.55439   0.129331
 C 0.72572 0.3407 0.59373   -0.245464
 C 0.65054 0.15544 0.48646   -0.247219
 C 0.65847 0.26839 0.50539   0.124258
 C 0.5961 0.3079 0.43054   -0.164472
 C 0.54614 0.40666 0.4652   -0.096085
 C 0.44241 0.39465 0.47022   0.135323
 C 0.3979 0.48508 0.50395   0.128813
 C 0.12909 0.15375 0.90037   0.142603
 C 0.01673 0.00439 0.88589   0.149433
 C 0.22002 0.13232 0.96055   -0.229169
 C 0.10342 0.9777 0.94549   -0.238497
 C 0.20822 0.04242 0.98398   0.133022
 C 0.30465 0.01695 0.05091   -0.162015
 C 0.40538 0.00962 0.02512   -0.09769
 C 0.40983 0.91743 0.95607   0.136073
 C 0.50051 0.90731 0.93122   0.138923
 N 0.18923 0.77441 0.13988   -0.393028
 N 0.09116 0.02804 0.36214   -0.363986
 N 0.22559 0.81077 0.36012   -0.393028
 N 0.97196 0.90884 0.13786   -0.363985
 N 0.81077 0.22559 0.86012   -0.393028
 N 0.90884 0.97196 0.63786   -0.363985
 N 0.77441 0.18923 0.63988   -0.393028
 N 0.02804 0.09116 0.86214   -0.363985
 F 0.29202 0.38314 0.9412   -0.130542
 F 0.46757 0.29687 0.00723   -0.122241
 F 0.83324 0.3202 0.4094   -0.12745
 F 0.81398 0.49534 0.36202   -0.1396
 F 0.61686 0.70798 0.5588   -0.130542
 F 0.70313 0.53243 0.49277   -0.122241
 F 0.6798 0.16676 0.0906   -0.127449
 F 0.50466 0.18602 0.13798   -0.1396
 F 0.70798 0.61686 0.0588   -0.130542
 F 0.53243 0.70313 0.99277   -0.122241
 F 0.16676 0.6798 0.5906   -0.12745
 F 0.18602 0.50466 0.63798   -0.1396
 F 0.38314 0.29202 0.4412   -0.130542
 F 0.29687 0.46757 0.50723   -0.122241
 F 0.3202 0.83324 0.9094   -0.127449
 F 0.49534 0.81398 0.86202   -0.1396
