{'_ref': 'TBD', '_srcid': 'CAKYAQ_clean', 'submitters': [{'name': 'Dalar Nazarian Jeff Camp and David Sholl', 'email': 'dalar@gatech.edu jcamp6@gatech.edu'}], '_method': 'VASP DFT with PBE;DDEC'}
data_Co3H7C14(NO5)2
_symmetry_space_group_name_H-M   'P 1'
_cell_length_a   11.11929951
_cell_length_b   11.24729960
_cell_length_c   11.36200000
_cell_angle_alpha   75.65099824
_cell_angle_beta   66.11900154
_cell_angle_gamma   76.99099953
_symmetry_Int_Tables_number   1
_chemical_formula_structural   Co3H7C14(NO5)2
_chemical_formula_sum   'Co6 H14 C28 N4 O20'
_cell_volume   1246.22329467
_cell_formula_units_Z   2
loop_
 _symmetry_equiv_pos_site_id
 _symmetry_equiv_pos_as_xyz
  1  'x, y, z'
loop_
 _atom_site_label
 _atom_site_fract_x
 _atom_site_fract_y
 _atom_site_fract_z
 _atom_site_charge
 Co 0.89106 0.61139 0.50123   0.761126
 Co 0.97109 0.43127 0.28995   1.186595
 Co 0.99917 0.64226 0.99109   1.118218
 Co 0.10894 0.38861 0.49877   0.761126
 Co 0.02891 0.56873 0.71005   1.186595
 Co 0.000830000000001 0.35774 0.00891   1.118218
 H 0.1268 0.4761 0.0781   0.44211
 H 0.0278 0.9675 0.1427   0.147021
 H 0.8582 0.0745 0.497   0.1397
 H 0.815 0.8733 0.592   0.099492
 H 0.4519 0.5804 0.8617   0.143818
 H 0.4192 0.6511 0.5067   0.144518
 H 0.644 0.6735 0.4098   0.098174
 H 0.8732 0.5239 0.9219   0.44211
 H 0.9722 0.0325 0.8573   0.147022
 H 0.1418 0.9255 0.503   0.139699
 H 0.185 0.1267 0.408   0.099494
 H 0.5481 0.4196 0.1383   0.143818
 H 0.5808 0.3489 0.4933   0.144518
 H 0.356 0.3265 0.5902   0.098176
 C 0.985 0.7265 0.2266   0.618958
 C 0.955 0.8323 0.2987   0.080539
 C 0.9853 0.9498 0.2351   -0.08302
 C 0.9519 0.0416 0.31   -0.032697
 C 0.8855 0.0126 0.4442   -0.143036
 C 0.8597 0.8928 0.5   0.140565
 C 0.9878 0.1707 0.2463   0.666143
 C 0.7182 0.5862 0.7756   0.613795
 C 0.6232 0.6068 0.7045   0.082819
 C 0.4897 0.5974 0.7689   -0.095945
 C 0.4117 0.6133 0.695   -0.009901
 C 0.4703 0.6404 0.5593   -0.158692
 C 0.6048 0.6516 0.5022   0.14346
 C 0.267 0.5978 0.7596   0.665539
 C 0.015 0.2735 0.7734   0.618959
 C 0.045 0.1677 0.7013   0.080539
 C 0.0147 0.0502 0.7649   -0.08302
 C 0.0481 0.9584 0.69   -0.032697
 C 0.1145 0.9874 0.5558   -0.143039
 C 0.1403 0.1072 0.5   0.140564
 C 0.0122 0.8293 0.7537   0.666144
 C 0.2818 0.4138 0.2244   0.613797
 C 0.3768 0.3932 0.2955   0.082819
 C 0.5103 0.4026 0.2311   -0.095944
 C 0.5883 0.3867 0.305   -0.009902
 C 0.5297 0.3596 0.4407   -0.158695
 C 0.3952 0.3484 0.4978   0.143459
 C 0.733 0.4022 0.2404   0.665538
 N 0.8952 0.8033 0.4293   -0.256301
 N 0.6809 0.6326 0.5728   -0.262455
 N 0.1048 0.1967 0.5707   -0.256301
 N 0.3191 0.3674 0.4272   -0.262455
 O 0.9511 0.6245 0.2997   -0.547036
 O 0.0353 0.746 0.1043   -0.528938
 O 0.9635 0.244 0.3224   -0.594991
 O 0.0393 0.1916 0.1236   -0.614116
 O 0.8384 0.5944 0.6996   -0.556871
 O 0.6768 0.5648 0.8962   -0.504072
 O 0.2019 0.6411 0.8625   -0.575065
 O 0.2252 0.542 0.7028   -0.619109
 O 0.0506 0.4711 0.0941   -1.045493
 O 0.0817 0.5743 0.5097   -0.664852
 O 0.0489 0.3755 0.7003   -0.547036
 O 0.9647 0.254 0.8957   -0.528938
 O 0.0365 0.756 0.6776   -0.594991
 O 0.9607 0.8084 0.8764   -0.614116
 O 0.1616 0.4056 0.3004   -0.556872
 O 0.3232 0.4352 0.1038   -0.504072
 O 0.7981 0.3589 0.1375   -0.575065
 O 0.7748 0.458 0.2972   -0.619109
 O 0.9494 0.5289 0.9059   -1.045493
 O 0.9183 0.4257 0.4903   -0.664852
