{'_ref': 'TBD', '_srcid': 'CAKYAQ_clean', 'submitters': [{'name': 'Dalar Nazarian Jeff Camp and David Sholl', 'email': 'dalar@gatech.edu jcamp6@gatech.edu'}], '_method': 'VASP DFT with PBE;DDEC'}
data_K2CuH17C17NO9
_symmetry_space_group_name_H-M   'P 1'
_cell_length_a   8.75780026
_cell_length_b   11.14299992
_cell_length_c   12.52900000
_cell_angle_alpha   84.47900238
_cell_angle_beta   81.50100083
_cell_angle_gamma   71.64800194
_symmetry_Int_Tables_number   1
_chemical_formula_structural   K2CuH17C17NO9
_chemical_formula_sum   'K4 Cu2 H34 C34 N2 O18'
_cell_volume   1146.1443075
_cell_formula_units_Z   2
loop_
 _symmetry_equiv_pos_site_id
 _symmetry_equiv_pos_as_xyz
  1  'x, y, z'
loop_
 _atom_site_label
 _atom_site_fract_x
 _atom_site_fract_y
 _atom_site_fract_z
 _atom_site_charge
 K 0.3193 0.64005 0.9531   0.921462
 K 0.94435 0.5854 0.15032   0.937706
 K 0.6807 0.35995 0.0469   0.921462
 K 0.05565 0.4146 0.84968   0.937706
 Cu 0.67967 0.97719 0.96804   0.840004
 Cu 0.32033 0.02281 0.03196   0.840003
 H 0.2078 0.1241 0.8282   0.097211
 H 0.1779 0.2189 0.6599   0.088812
 H 0.2986 0.276 0.4788   0.098669
 H 0.7704 0.1171 0.3848   0.077624
 H 0.8005 0.9994 0.5442   0.099046
 H 0.8108 0.8901 0.6804   0.087018
 H 0.7134 0.8324 0.7754   0.099487
 H 0.0247 0.8093 0.785   0.141304
 H 0.0352 0.8803 0.8847   0.145156
 H 0.9702 0.0468 0.7522   0.139597
 H 0.7871 0.1177 0.7403   0.135236
 H 0.34 0.405 0.135   0.443079
 H 0.319 0.367 0.049   0.450659
 H 0.6532 0.4893 0.2428   0.409631
 H 0.4838 0.6682 0.2901   0.057118
 H 0.4136 0.6079 0.2085   0.04052
 H 0.4953 0.7132 0.1676   0.05631
 H 0.7922 0.8759 0.1718   0.097211
 H 0.8221 0.7811 0.3401   0.088812
 H 0.7014 0.724 0.5212   0.098669
 H 0.2296 0.8829 0.6152   0.077625
 H 0.1995 0.000599999999999 0.4558   0.099048
 H 0.1892 0.1099 0.3196   0.087018
 H 0.2866 0.1676 0.2246   0.099488
 H 0.9753 0.1907 0.215   0.141304
 H 0.9648 0.1197 0.1153   0.145156
 H 0.0298 0.9532 0.2478   0.139597
 H 0.2129 0.8823 0.2597   0.135236
 H 0.66 0.595 0.865   0.443079
 H 0.681 0.633 0.951   0.450659
 H 0.3468 0.5107 0.7572   0.409631
 H 0.5162 0.3318 0.7099   0.057118
 H 0.5864 0.3921 0.7915   0.04052
 H 0.5047 0.2868 0.8324   0.05631
 C 0.4514 0.0343 0.80121   0.342913
 C 0.2976 0.112 0.77589   -0.230492
 C 0.2801 0.1692 0.67554   -0.104417
 C 0.4141 0.1545 0.59492   0.010292
 C 0.3996 0.2227 0.49352   -0.083418
 C 0.5313 0.2118 0.41676   -0.140204
 C 0.6813 0.1264 0.43751   -0.022277
 C 0.7 0.0566 0.53341   -0.180594
 C 0.5673 0.0704 0.61672   0.067374
 C 0.5832 0.007 0.7213   -0.212391
 C 0.7373 0.9094 0.74676   -0.011131
 C 0.9651 0.8468 0.85146   -0.299694
 C 0.9185 0.7457 0.92736   0.712491
 C 0.861 0.068 0.7901   -0.262449
 C 0.8494 0.1455 0.88619   0.708702
 C 0.5205 0.2929 0.3137   0.702661
 C 0.4986 0.6418 0.2176   0.075569
 C 0.5486 0.9657 0.19879   0.342913
 C 0.7024 0.888 0.22411   -0.230492
 C 0.7199 0.8308 0.32446   -0.104417
 C 0.5859 0.8455 0.40508   0.010293
 C 0.6004 0.7773 0.50648   -0.083418
 C 0.4687 0.7882 0.58324   -0.140203
 C 0.3187 0.8736 0.56249   -0.022277
 C 0.3 0.9434 0.46659   -0.180594
 C 0.4327 0.9296 0.38328   0.067374
 C 0.4168 0.993 0.2787   -0.212391
 C 0.2627 0.0906 0.25324   -0.011131
 C 0.0349 0.1532 0.14854   -0.299694
 C 0.0815 0.2543 0.07264   0.712491
 C 0.139 0.932 0.2099   -0.262449
 C 0.1506 0.8545 0.11381   0.708702
 C 0.4795 0.7071 0.6863   0.702661
 C 0.5014 0.3582 0.7824   0.075569
 N 0.8198 0.95062 0.82644   -0.064639
 N 0.1802 0.04938 0.17356   -0.064639
 O 0.47045 0.98562 0.9024   -0.576977
 O 0.78233 0.78111 0.98678   -0.652964
 O 0.0148 0.63776 0.92953   -0.753216
 O 0.775 0.11469 0.97541   -0.664896
 O 0.9056 0.23467 0.87371   -0.683676
 O 0.3849 0.3426 0.28195   -0.677798
 O 0.6498 0.3079 0.26608   -0.716122
 O 0.3435 0.4209 0.07391   -0.969461
 O 0.6488 0.5488 0.1982   -0.678833
 O 0.52955 0.01438 0.0976   -0.576977
 O 0.21767 0.21889 0.01322   -0.652964
 O 0.9852 0.36224 0.07047   -0.753216
 O 0.225 0.88531 0.02459   -0.664896
 O 0.0944 0.76533 0.12629   -0.683676
 O 0.6151 0.6574 0.71805   -0.677798
 O 0.3502 0.6921 0.73392   -0.716122
 O 0.6565 0.5791 0.92609   -0.969462
 O 0.3512 0.4512 0.8018   -0.678833
