{'_ref': 'TBD', '_srcid': 'CAKYAQ_clean', 'submitters': [{'name': 'Dalar Nazarian Jeff Camp and David Sholl', 'email': 'dalar@gatech.edu jcamp6@gatech.edu'}], '_method': 'VASP DFT with PBE;DDEC'}
data_Cu3H13C40N3(Cl3O4)3
_symmetry_space_group_name_H-M   'P 1'
_cell_length_a   18.87639960
_cell_length_b   18.87639997
_cell_length_c   18.87640000
_cell_angle_alpha   72.96869931
_cell_angle_beta   72.96869897
_cell_angle_gamma   72.96869870
_symmetry_Int_Tables_number   1
_chemical_formula_structural   Cu3H13C40N3(Cl3O4)3
_chemical_formula_sum   'Cu12 H52 C160 N12 Cl36 O48'
_cell_volume   5989.14128761
_cell_formula_units_Z   4
loop_
 _symmetry_equiv_pos_site_id
 _symmetry_equiv_pos_as_xyz
  1  'x, y, z'
loop_
 _atom_site_label
 _atom_site_fract_x
 _atom_site_fract_y
 _atom_site_fract_z
 _atom_site_charge
 Cu 0.41057 0.26859 0.85191   0.853486
 Cu 0.85191 0.41057 0.26859   0.853486
 Cu 0.26859 0.85191 0.41057   0.853486
 Cu 0.23141 0.08943 0.64809   0.853483
 Cu 0.08943 0.64809 0.23141   0.853483
 Cu 0.64809 0.23141 0.08943   0.853483
 Cu 0.58943 0.73141 0.14809   0.853485
 Cu 0.14809 0.58943 0.73141   0.853485
 Cu 0.73141 0.14809 0.58943   0.853485
 Cu 0.76859 0.91057 0.35191   0.853482
 Cu 0.91057 0.35191 0.76859   0.853482
 Cu 0.35191 0.76859 0.91057   0.853482
 H 0.4402 0.3042 0.9838   0.091287
 H 0.3748 0.3704 0.0781   0.150604
 H 0.184 0.4032 0.0069   0.147311
 H 0.255 0.3356 0.9159   0.099267
 H 0.9838 0.4402 0.3042   0.091287
 H 0.0781 0.3748 0.3704   0.150604
 H 0.0069 0.184 0.4032   0.147311
 H 0.9159 0.255 0.3356   0.099267
 H 0.3042 0.9838 0.4402   0.091287
 H 0.3704 0.0781 0.3748   0.150604
 H 0.4032 0.0069 0.184   0.147311
 H 0.3356 0.9159 0.255   0.099267
 H 0.1958 0.0598 0.5162   0.091286
 H 0.1296 0.1252 0.4219   0.150604
 H 0.0968 0.316 0.4931   0.14731
 H 0.1644 0.245 0.5841   0.099267
 H 0.0598 0.5162 0.1958   0.091286
 H 0.1252 0.4219 0.1296   0.150604
 H 0.316 0.4931 0.0968   0.14731
 H 0.245 0.5841 0.1644   0.099267
 H 0.5162 0.1958 0.0598   0.091286
 H 0.4219 0.1296 0.1252   0.150604
 H 0.4931 0.0968 0.316   0.14731
 H 0.5841 0.1644 0.245   0.099267
 H 0.5598 0.6958 0.0162   0.091287
 H 0.6252 0.6296 0.9219   0.150604
 H 0.816 0.5968 0.9931   0.147311
 H 0.745 0.6644 0.0841   0.099267
 H 0.0162 0.5598 0.6958   0.091287
 H 0.9219 0.6252 0.6296   0.150604
 H 0.9931 0.816 0.5968   0.147311
 H 0.0841 0.745 0.6644   0.099267
 H 0.6958 0.0162 0.5598   0.091287
 H 0.6296 0.9219 0.6252   0.150604
 H 0.5968 0.9931 0.816   0.147311
 H 0.6644 0.0841 0.745   0.099267
 H 0.8042 0.9402 0.4838   0.091286
 H 0.8704 0.8748 0.5781   0.150604
 H 0.9032 0.684 0.5069   0.14731
 H 0.8356 0.755 0.4159   0.099267
 H 0.9402 0.4838 0.8042   0.091286
 H 0.8748 0.5781 0.8704   0.150604
 H 0.684 0.5069 0.9032   0.14731
 H 0.755 0.4159 0.8356   0.099267
 H 0.4838 0.8042 0.9402   0.091286
 H 0.5781 0.8704 0.8748   0.150604
 H 0.5069 0.9032 0.684   0.14731
 H 0.4159 0.8356 0.755   0.099267
 H 0.05643 0.05643 0.05643   0.024742
 H 0.44357 0.44357 0.44357   0.024742
 H 0.94357 0.94357 0.94357   0.024742
 H 0.55643 0.55643 0.55643   0.024742
 C 0.34261 0.14531 0.94661   0.668868
 C 0.28017 0.91397 0.91927   0.654658
 C 0.28487 0.09757 0.96227   -0.162195
 C 0.3043 0.0334 0.933   0.170392
 C 0.25671 0.98401 0.95291   -0.159985
 C 0.18726 0.000160000000001 0.00486   0.1225
 C 0.16205 0.06645 0.03305   -0.101002
 C 0.2129 0.114 0.0095   0.132492
 C 0.38781 0.32521 0.98851   0.162397
 C 0.3493 0.365 0.0448   -0.188915
 C 0.27156 0.39706 0.05076   0.099763
 C 0.2366 0.3843 0.0029   -0.181045
 C 0.27944 0.34364 0.94864   0.177919
 C 0.94661 0.34261 0.14531   0.668868
 C 0.91927 0.28017 0.91397   0.654658
 C 0.96227 0.28487 0.09757   -0.162195
 C 0.933 0.3043 0.0334   0.170392
 C 0.95291 0.25671 0.98401   -0.159985
 C 0.00486 0.18726 0.000160000000001   0.1225
 C 0.03305 0.16205 0.06645   -0.101002
 C 0.0095 0.2129 0.114   0.132492
 C 0.98851 0.38781 0.32521   0.162397
 C 0.0448 0.3493 0.365   -0.188915
 C 0.05076 0.27156 0.39706   0.099763
 C 0.0029 0.2366 0.3843   -0.181045
 C 0.94864 0.27944 0.34364   0.177919
 C 0.14531 0.94661 0.34261   0.668868
 C 0.91397 0.91927 0.28017   0.654658
 C 0.09757 0.96227 0.28487   -0.162195
 C 0.0334 0.933 0.3043   0.170392
 C 0.98401 0.95291 0.25671   -0.159985
 C 0.000160000000001 0.00486 0.18726   0.1225
 C 0.06645 0.03305 0.16205   -0.101002
 C 0.114 0.0095 0.2129   0.132492
 C 0.32521 0.98851 0.38781   0.162397
 C 0.365 0.0448 0.3493   -0.188915
 C 0.39706 0.05076 0.27156   0.099763
 C 0.3843 0.0029 0.2366   -0.181045
 C 0.34364 0.94864 0.27944   0.177919
 C 0.35469 0.15739 0.55339   0.668868
 C 0.58603 0.21983 0.58073   0.654658
 C 0.40243 0.21513 0.53773   -0.162195
 C 0.4666 0.1957 0.567   0.170392
 C 0.51599 0.24329 0.54709   -0.159985
 C 0.49984 0.31274 0.49514   0.1225
 C 0.43355 0.33795 0.46695   -0.101002
 C 0.386 0.2871 0.4905   0.132492
 C 0.17479 0.11219 0.51149   0.162398
 C 0.135 0.1507 0.4552   -0.188915
 C 0.10294 0.22844 0.44924   0.099762
 C 0.1157 0.2634 0.4971   -0.181045
 C 0.15636 0.22056 0.55136   0.177919
 C 0.15739 0.55339 0.35469   0.668868
 C 0.21983 0.58073 0.58603   0.654658
 C 0.21513 0.53773 0.40243   -0.162195
 C 0.1957 0.567 0.4666   0.170392
 C 0.24329 0.54709 0.51599   -0.159985
 C 0.31274 0.49514 0.49984   0.1225
 C 0.33795 0.46695 0.43355   -0.101002
 C 0.2871 0.4905 0.386   0.132492
 C 0.11219 0.51149 0.17479   0.162397
 C 0.1507 0.4552 0.135   -0.188915
 C 0.22844 0.44924 0.10294   0.099762
 C 0.2634 0.4971 0.1157   -0.181045
 C 0.22056 0.55136 0.15636   0.177919
 C 0.55339 0.35469 0.15739   0.668868
 C 0.58073 0.58603 0.21983   0.654658
 C 0.53773 0.40243 0.21513   -0.162195
 C 0.567 0.4666 0.1957   0.170392
 C 0.54709 0.51599 0.24329   -0.159985
 C 0.49514 0.49984 0.31274   0.1225
 C 0.46695 0.43355 0.33795   -0.101002
 C 0.4905 0.386 0.2871   0.132492
 C 0.51149 0.17479 0.11219   0.162397
 C 0.4552 0.135 0.1507   -0.188915
 C 0.44924 0.10294 0.22844   0.099762
 C 0.4971 0.1157 0.2634   -0.181045
 C 0.55136 0.15636 0.22056   0.177919
 C 0.65739 0.85469 0.05339   0.668868
 C 0.71983 0.08603 0.08073   0.654658
 C 0.71513 0.90243 0.03773   -0.162195
 C 0.6957 0.9666 0.067   0.170392
 C 0.74329 0.01599 0.04709   -0.159985
 C 0.81274 0.99984 0.99514   0.1225
 C 0.83795 0.93355 0.96695   -0.101002
 C 0.7871 0.886 0.9905   0.132492
 C 0.61219 0.67479 0.01149   0.162397
 C 0.6507 0.635 0.9552   -0.188915
 C 0.72844 0.60294 0.94924   0.099763
 C 0.7634 0.6157 0.9971   -0.181045
 C 0.72056 0.65636 0.05136   0.177919
 C 0.05339 0.65739 0.85469   0.668868
 C 0.08073 0.71983 0.08603   0.654658
 C 0.03773 0.71513 0.90243   -0.162195
 C 0.067 0.6957 0.9666   0.170392
 C 0.04709 0.74329 0.01599   -0.159985
 C 0.99514 0.81274 0.99984   0.1225
 C 0.96695 0.83795 0.93355   -0.101002
 C 0.9905 0.7871 0.886   0.132492
 C 0.01149 0.61219 0.67479   0.162397
 C 0.9552 0.6507 0.635   -0.188915
 C 0.94924 0.72844 0.60294   0.099763
 C 0.9971 0.7634 0.6157   -0.181045
 C 0.05136 0.72056 0.65636   0.177919
 C 0.85469 0.05339 0.65739   0.668868
 C 0.08603 0.08073 0.71983   0.654658
 C 0.90243 0.03773 0.71513   -0.162195
 C 0.9666 0.067 0.6957   0.170392
 C 0.01599 0.04709 0.74329   -0.159985
 C 0.99984 0.99514 0.81274   0.1225
 C 0.93355 0.96695 0.83795   -0.101002
 C 0.886 0.9905 0.7871   0.132492
 C 0.67479 0.01149 0.61219   0.162397
 C 0.635 0.9552 0.6507   -0.188915
 C 0.60294 0.94924 0.72844   0.099763
 C 0.6157 0.9971 0.7634   -0.181045
 C 0.65636 0.05136 0.72056   0.177919
 C 0.64531 0.84261 0.44661   0.668868
 C 0.41397 0.78017 0.41927   0.654658
 C 0.59757 0.78487 0.46227   -0.162195
 C 0.5334 0.8043 0.433   0.170392
 C 0.48401 0.75671 0.45291   -0.159985
 C 0.50016 0.68726 0.50486   0.1225
 C 0.56645 0.66205 0.53305   -0.101002
 C 0.614 0.7129 0.5095   0.132492
 C 0.82521 0.88781 0.48851   0.162398
 C 0.865 0.8493 0.5448   -0.188915
 C 0.89706 0.77156 0.55076   0.099762
 C 0.8843 0.7366 0.5029   -0.181045
 C 0.84364 0.77944 0.44864   0.177919
 C 0.84261 0.44661 0.64531   0.668868
 C 0.78017 0.41927 0.41397   0.654658
 C 0.78487 0.46227 0.59757   -0.162195
 C 0.8043 0.433 0.5334   0.170392
 C 0.75671 0.45291 0.48401   -0.159985
 C 0.68726 0.50486 0.50016   0.1225
 C 0.66205 0.53305 0.56645   -0.101002
 C 0.7129 0.5095 0.614   0.132492
 C 0.88781 0.48851 0.82521   0.162397
 C 0.8493 0.5448 0.865   -0.188915
 C 0.77156 0.55076 0.89706   0.099762
 C 0.7366 0.5029 0.8843   -0.181045
 C 0.77944 0.44864 0.84364   0.177919
 C 0.44661 0.64531 0.84261   0.668868
 C 0.41927 0.41397 0.78017   0.654658
 C 0.46227 0.59757 0.78487   -0.162195
 C 0.433 0.5334 0.8043   0.170392
 C 0.45291 0.48401 0.75671   -0.159985
 C 0.50486 0.50016 0.68726   0.1225
 C 0.53305 0.56645 0.66205   -0.101002
 C 0.5095 0.614 0.7129   0.132492
 C 0.48851 0.82521 0.88781   0.162397
 C 0.5448 0.865 0.8493   -0.188915
 C 0.55076 0.89706 0.77156   0.099762
 C 0.5029 0.8843 0.7366   -0.181045
 C 0.44864 0.84364 0.77944   0.177919
 C 0.08043 0.08043 0.08043   0.055064
 C 0.41957 0.41957 0.41957   0.055064
 C 0.91957 0.91957 0.91957   0.055064
 C 0.58043 0.58043 0.58043   0.055064
 N 0.35356 0.31556 0.94076   -0.31183
 N 0.94076 0.35356 0.31556   -0.31183
 N 0.31556 0.94076 0.35356   -0.31183
 N 0.18444 0.14644 0.55924   -0.31183
 N 0.14644 0.55924 0.18444   -0.31183
 N 0.55924 0.18444 0.14644   -0.31183
 N 0.64644 0.68444 0.05924   -0.31183
 N 0.05924 0.64644 0.68444   -0.31183
 N 0.68444 0.05924 0.64644   -0.31183
 N 0.81556 0.85356 0.44076   -0.31183
 N 0.85356 0.44076 0.81556   -0.31183
 N 0.44076 0.81556 0.85356   -0.31183
 Cl 0.39144 0.01499 0.8697   -0.07753
 Cl 0.1314 0.93451 0.03169   -0.010075
 Cl 0.18998 0.19782 0.03989   -0.056738
 Cl 0.8697 0.39144 0.01499   -0.07753
 Cl 0.03169 0.1314 0.93451   -0.010075
 Cl 0.03989 0.18998 0.19782   -0.056739
 Cl 0.01499 0.8697 0.39144   -0.07753
 Cl 0.93451 0.03169 0.1314   -0.010075
 Cl 0.19782 0.03989 0.18998   -0.05674
 Cl 0.48501 0.10856 0.6303   -0.07753
 Cl 0.56549 0.3686 0.46831   -0.010075
 Cl 0.30218 0.31002 0.46011   -0.056738
 Cl 0.10856 0.6303 0.48501   -0.07753
 Cl 0.3686 0.46831 0.56549   -0.010075
 Cl 0.31002 0.46011 0.30218   -0.056739
 Cl 0.6303 0.48501 0.10856   -0.07753
 Cl 0.46831 0.56549 0.3686   -0.010075
 Cl 0.46011 0.30218 0.31002   -0.05674
 Cl 0.60856 0.98501 0.1303   -0.07753
 Cl 0.8686 0.06549 0.96831   -0.010075
 Cl 0.81002 0.80218 0.96011   -0.056738
 Cl 0.1303 0.60856 0.98501   -0.07753
 Cl 0.96831 0.8686 0.06549   -0.010075
 Cl 0.96011 0.81002 0.80218   -0.056739
 Cl 0.98501 0.1303 0.60856   -0.07753
 Cl 0.06549 0.96831 0.8686   -0.010074
 Cl 0.80218 0.96011 0.81002   -0.05674
 Cl 0.51499 0.89144 0.3697   -0.07753
 Cl 0.43451 0.6314 0.53169   -0.010074
 Cl 0.69782 0.68998 0.53989   -0.056738
 Cl 0.89144 0.3697 0.51499   -0.07753
 Cl 0.6314 0.53169 0.43451   -0.010075
 Cl 0.68998 0.53989 0.69782   -0.056739
 Cl 0.3697 0.51499 0.89144   -0.07753
 Cl 0.53169 0.43451 0.6314   -0.010074
 Cl 0.53989 0.69782 0.68998   -0.05674
 O 0.3441 0.19674 0.88679   -0.586355
 O 0.38263 0.12923 0.99263   -0.579522
 O 0.3074 0.85276 0.96141   -0.571477
 O 0.27273 0.92231 0.85405   -0.570873
 O 0.88679 0.3441 0.19674   -0.586355
 O 0.99263 0.38263 0.12923   -0.579522
 O 0.96141 0.3074 0.85276   -0.571477
 O 0.85405 0.27273 0.92231   -0.570873
 O 0.19674 0.88679 0.3441   -0.586355
 O 0.12923 0.99263 0.38263   -0.579522
 O 0.85276 0.96141 0.3074   -0.571477
 O 0.92231 0.85405 0.27273   -0.570873
 O 0.30326 0.1559 0.61321   -0.586355
 O 0.37077 0.11737 0.50737   -0.579522
 O 0.64724 0.1926 0.53859   -0.571477
 O 0.57769 0.22727 0.64595   -0.570873
 O 0.1559 0.61321 0.30326   -0.586355
 O 0.11737 0.50737 0.37077   -0.579522
 O 0.1926 0.53859 0.64724   -0.571477
 O 0.22727 0.64595 0.57769   -0.570873
 O 0.61321 0.30326 0.1559   -0.586355
 O 0.50737 0.37077 0.11737   -0.579522
 O 0.53859 0.64724 0.1926   -0.571477
 O 0.64595 0.57769 0.22727   -0.570873
 O 0.6559 0.80326 0.11321   -0.586355
 O 0.61737 0.87077 0.00737   -0.579523
 O 0.6926 0.14724 0.03859   -0.571477
 O 0.72727 0.07769 0.14595   -0.570873
 O 0.11321 0.6559 0.80326   -0.586355
 O 0.00737 0.61737 0.87077   -0.579523
 O 0.03859 0.6926 0.14724   -0.571477
 O 0.14595 0.72727 0.07769   -0.570873
 O 0.80326 0.11321 0.6559   -0.586355
 O 0.87077 0.00737 0.61737   -0.579523
 O 0.14724 0.03859 0.6926   -0.571477
 O 0.07769 0.14595 0.72727   -0.570873
 O 0.69674 0.8441 0.38679   -0.586355
 O 0.62923 0.88263 0.49263   -0.579523
 O 0.35276 0.8074 0.46141   -0.571477
 O 0.42231 0.77273 0.35405   -0.570873
 O 0.8441 0.38679 0.69674   -0.586355
 O 0.88263 0.49263 0.62923   -0.579522
 O 0.8074 0.46141 0.35276   -0.571477
 O 0.77273 0.35405 0.42231   -0.570873
 O 0.38679 0.69674 0.8441   -0.586355
 O 0.49263 0.62923 0.88263   -0.579522
 O 0.46141 0.35276 0.8074   -0.571477
 O 0.35405 0.42231 0.77273   -0.570873
