{'_ref': 'TBD', '_srcid': 'CAKYAQ_clean', 'submitters': [{'name': 'Dalar Nazarian Jeff Camp and David Sholl', 'email': 'dalar@gatech.edu jcamp6@gatech.edu'}], '_method': 'VASP DFT with PBE;DDEC'}
data_NdH3C9(NO2)3
_symmetry_space_group_name_H-M   'P 1'
_cell_length_a   10.48310000
_cell_length_b   14.02799999
_cell_length_c   18.14400000
_cell_angle_alpha   100.02800179
_cell_angle_beta   90.00000000
_cell_angle_gamma   90.00000000
_symmetry_Int_Tables_number   1
_chemical_formula_structural   NdH3C9(NO2)3
_chemical_formula_sum   'Nd8 H24 C72 N24 O48'
_cell_volume   2627.43815799
_cell_formula_units_Z   8
loop_
 _symmetry_equiv_pos_site_id
 _symmetry_equiv_pos_as_xyz
  1  'x, y, z'
loop_
 _atom_site_label
 _atom_site_fract_x
 _atom_site_fract_y
 _atom_site_fract_z
 _atom_site_charge
 Nd 0.75139 0.39649 0.70769   2.21323
 Nd 0.73027 0.34843 0.34431   2.27831
 Nd 0.25139 0.10351 0.79231   2.21323
 Nd 0.23027 0.15157 0.15569   2.27831
 Nd 0.24861 0.60351 0.29231   2.21323
 Nd 0.26973 0.65157 0.65569   2.27831
 Nd 0.74861 0.89649 0.20769   2.21323
 Nd 0.76973 0.84843 0.84431   2.27831
 H 0.608 0.6345 0.5103   0.087038
 H 0.9771 0.6324 0.5326   0.087169
 H 0.4874 0.6368 0.9271   0.10097
 H 0.3483 0.3762 0.8974   0.09523
 H 0.5518 0.1676 0.5657   0.102908
 H 0.3569 0.0913 0.3819   0.085498
 H 0.108 0.8655 0.9897   0.087038
 H 0.4771 0.8676 0.9674   0.08717
 H 0.9874 0.8632 0.5729   0.100971
 H 0.8483 0.1238 0.6026   0.09523
 H 0.0518 0.3324 0.9343   0.102908
 H 0.8569 0.4087 0.1181   0.085498
 H 0.392 0.3655 0.4897   0.087038
 H 0.0229 0.3676 0.4674   0.087169
 H 0.5126 0.3632 0.0729   0.10097
 H 0.6517 0.6238 0.1026   0.09523
 H 0.4482 0.8324 0.4343   0.102908
 H 0.6431 0.9087 0.6181   0.085498
 H 0.892 0.1345 0.0103   0.087038
 H 0.5229 0.1324 0.0326   0.08717
 H 0.0126 0.1368 0.4271   0.100971
 H 0.1517 0.8762 0.3974   0.09523
 H 0.9482 0.6676 0.0657   0.102908
 H 0.1431 0.5913 0.8819   0.085498
 C 0.6681 0.5509 0.5815   0.060834
 C 0.6812 0.6134 0.5316   0.168971
 C 0.8964 0.6123 0.5446   0.176561
 C 0.8859 0.5497 0.595   0.050303
 C 0.5413 0.5136 0.6078   0.699582
 C 0.995 0.5088 0.6351   0.750061
 C 0.5739 0.545 0.8441   0.050395
 C 0.4874 0.573 0.9022   0.156378
 C 0.4057 0.4212 0.8846   0.173139
 C 0.4898 0.3923 0.8259   0.076062
 C 0.6724 0.6092 0.8188   0.721491
 C 0.4934 0.2911 0.7797   0.736173
 C 0.6091 0.2327 0.482   0.054914
 C 0.5361 0.1716 0.5158   0.175113
 C 0.4213 0.1277 0.4086   0.184551
 C 0.4915 0.1906 0.3735   0.027842
 C 0.7167 0.2958 0.5192   0.702513
 C 0.4698 0.2116 0.297   0.759224
 C 0.1681 0.9491 0.9185   0.060834
 C 0.1812 0.8866 0.9684   0.168971
 C 0.3964 0.8877 0.9554   0.176561
 C 0.3859 0.9503 0.905   0.050303
 C 0.0413 0.9864 0.8922   0.699582
 C 0.495 0.9912 0.8649   0.750061
 C 0.0739 0.955 0.6559   0.050395
 C 0.9874 0.927 0.5978   0.156378
 C 0.9057 0.0788 0.6154   0.173139
 C 0.9898 0.1077 0.6741   0.076062
 C 0.1724 0.8908 0.6812   0.721491
 C 0.9934 0.2089 0.7203   0.736173
 C 0.1091 0.2673 0.018   0.054914
 C 0.0361 0.3284 0.9842   0.175113
 C 0.9213 0.3723 0.0914   0.184551
 C 0.9915 0.3094 0.1265   0.027842
 C 0.2167 0.2042 0.9808   0.702513
 C 0.9698 0.2884 0.203   0.759224
 C 0.3319 0.4491 0.4185   0.060834
 C 0.3188 0.3866 0.4684   0.168971
 C 0.1036 0.3877 0.4554   0.176561
 C 0.1141 0.4503 0.405   0.050303
 C 0.4587 0.4864 0.3922   0.699582
 C 0.005 0.4912 0.3649   0.750061
 C 0.4261 0.455 0.1559   0.050395
 C 0.5126 0.427 0.0978   0.156378
 C 0.5943 0.5788 0.1154   0.173138
 C 0.5102 0.6077 0.1741   0.076062
 C 0.3276 0.3908 0.1812   0.72149
 C 0.5066 0.7089 0.2203   0.736173
 C 0.3909 0.7673 0.518   0.054913
 C 0.4639 0.8284 0.4842   0.175113
 C 0.5787 0.8723 0.5914   0.184552
 C 0.5085 0.8094 0.6265   0.027842
 C 0.2833 0.7042 0.4808   0.702513
 C 0.5302 0.7884 0.703   0.759224
 C 0.8319 0.0509 0.0815   0.060834
 C 0.8188 0.1134 0.0316   0.168971
 C 0.6036 0.1123 0.0446   0.176561
 C 0.6141 0.0497 0.095   0.050303
 C 0.9587 0.0136 0.1078   0.699582
 C 0.505 0.0088 0.1351   0.750061
 C 0.9261 0.045 0.3441   0.050395
 C 0.0126 0.073 0.4022   0.156378
 C 0.0943 0.9212 0.3846   0.173138
 C 0.0102 0.8923 0.3259   0.076062
 C 0.8276 0.1092 0.3188   0.72149
 C 0.0066 0.7911 0.2797   0.736173
 C 0.8909 0.7327 0.982   0.054913
 C 0.9639 0.6716 0.0158   0.175113
 C 0.0787 0.6277 0.9086   0.184552
 C 0.0085 0.6906 0.8735   0.027842
 C 0.7833 0.7958 0.0192   0.702513
 C 0.0302 0.7116 0.797   0.759224
 N 0.7711 0.5167 0.6131   -0.385371
 N 0.7941 0.6454 0.5122   -0.34463
 N 0.5741 0.4538 0.8077   -0.420817
 N 0.4046 0.5103 0.9229   -0.351755
 N 0.5866 0.2416 0.4116   -0.39779
 N 0.4425 0.1172 0.4791   -0.354066
 N 0.2711 0.9833 0.8869   -0.385371
 N 0.2941 0.8546 0.9878   -0.34463
 N 0.0741 0.0462 0.6923   -0.420817
 N 0.9046 0.9897 0.5771   -0.351755
 N 0.0866 0.2584 0.0884   -0.39779
 N 0.9425 0.3828 0.0209   -0.354066
 N 0.2289 0.4833 0.3869   -0.385371
 N 0.2059 0.3546 0.4878   -0.34463
 N 0.4259 0.5462 0.1923   -0.420817
 N 0.5954 0.4897 0.0771   -0.351756
 N 0.4134 0.7584 0.5884   -0.39779
 N 0.5575 0.8828 0.5209   -0.354066
 N 0.7289 0.0167 0.1131   -0.385371
 N 0.7059 0.1454 0.0122   -0.34463
 N 0.9259 0.9538 0.3077   -0.420817
 N 0.0954 0.0103 0.4229   -0.351756
 N 0.9134 0.7416 0.9116   -0.39779
 N 0.0575 0.6172 0.9791   -0.354066
 O 0.5473 0.4514 0.6483   -0.665344
 O 0.4419 0.5521 0.5874   -0.756185
 O 0.9674 0.4553 0.6793   -0.664935
 O 0.1045 0.5358 0.6189   -0.778949
 O 0.751 0.5707 0.7717   -0.692234
 O 0.6689 0.6973 0.848   -0.720184
 O 0.5853 0.2742 0.7337   -0.702
 O 0.4053 0.2356 0.7893   -0.722044
 O 0.7748 0.3456 0.4793   -0.644409
 O 0.7383 0.2926 0.5868   -0.705636
 O 0.5471 0.2684 0.2735   -0.717254
 O 0.3737 0.1711 0.262   -0.750855
 O 0.0473 0.0486 0.8517   -0.665344
 O 0.9419 0.9479 0.9126   -0.756185
 O 0.4674 0.0447 0.8207   -0.664935
 O 0.6045 0.9642 0.8811   -0.778949
 O 0.251 0.9293 0.7283   -0.692234
 O 0.1689 0.8027 0.652   -0.720184
 O 0.0853 0.2258 0.7663   -0.702
 O 0.9053 0.2644 0.7107   -0.722045
 O 0.2748 0.1544 0.0207   -0.644409
 O 0.2383 0.2074 0.9132   -0.705636
 O 0.0471 0.2316 0.2265   -0.717254
 O 0.8737 0.3289 0.238   -0.750855
 O 0.4527 0.5486 0.3517   -0.665344
 O 0.5581 0.4479 0.4126   -0.756185
 O 0.0326 0.5447 0.3207   -0.664935
 O 0.8955 0.4642 0.3811   -0.778949
 O 0.249 0.4293 0.2283   -0.692234
 O 0.3311 0.3027 0.152   -0.720183
 O 0.4147 0.7258 0.2663   -0.702
 O 0.5947 0.7644 0.2107   -0.722044
 O 0.2252 0.6544 0.5207   -0.644409
 O 0.2617 0.7074 0.4132   -0.705636
 O 0.4529 0.7316 0.7265   -0.717254
 O 0.6263 0.8289 0.738   -0.750855
 O 0.9527 0.9514 0.1483   -0.665344
 O 0.0581 0.0521 0.0874   -0.756185
 O 0.5326 0.9553 0.1793   -0.664935
 O 0.3955 0.0358 0.1189   -0.778949
 O 0.749 0.0707 0.2717   -0.692234
 O 0.8311 0.1973 0.348   -0.720183
 O 0.9147 0.7742 0.2337   -0.702
 O 0.0947 0.7356 0.2893   -0.722045
 O 0.7252 0.8456 0.9793   -0.644409
 O 0.7617 0.7926 0.0868   -0.705636
 O 0.9529 0.7684 0.7735   -0.717254
 O 0.1263 0.6711 0.762   -0.750855
