{'_ref': 'TBD', '_srcid': 'CAKYAQ_clean', 'submitters': [{'name': 'Dalar Nazarian Jeff Camp and David Sholl', 'email': 'dalar@gatech.edu jcamp6@gatech.edu'}], '_method': 'VASP DFT with PBE;DDEC'}
data_LaH5(CO)6
_symmetry_space_group_name_H-M   'P 1'
_cell_length_a   9.53859989
_cell_length_b   14.06790000
_cell_length_c   17.06790000
_cell_angle_alpha   90.00000000
_cell_angle_beta   97.46599994
_cell_angle_gamma   90.00000000
_symmetry_Int_Tables_number   1
_chemical_formula_structural   LaH5(CO)6
_chemical_formula_sum   'La8 H40 C48 O48'
_cell_volume   2270.89164022
_cell_formula_units_Z   8
loop_
 _symmetry_equiv_pos_site_id
 _symmetry_equiv_pos_as_xyz
  1  'x, y, z'
loop_
 _atom_site_label
 _atom_site_fract_x
 _atom_site_fract_y
 _atom_site_fract_z
 _atom_site_charge
 La 0.88273 0.87041 0.52856   2.153713
 La 0.6823 0.62892 0.6404   2.052472
 La 0.61727 0.37041 0.97144   2.153714
 La 0.8177 0.12892 0.8596   2.052473
 La 0.11727 0.12959 0.47144   2.153713
 La 0.3177 0.37108 0.3596   2.052472
 La 0.38273 0.62959 0.02856   2.153714
 La 0.1823 0.87108 0.1404   2.052474
 H 0.3495 0.9254 0.4334   0.096882
 H 0.3845 0.7758 0.5469   0.111178
 H 0.3883 0.8835 0.5706   0.170964
 H 0.2937 0.7308 0.4034   0.122804
 H 0.4371 0.7774 0.3893   0.133434
 H 0.1804 0.6175 0.596   0.13893
 H 0.1797 0.7239 0.6228   0.120173
 H 0.2191 0.5706 0.7321   0.111258
 H 0.1231 0.7148 0.7783   0.130519
 H 0.2622 0.7671 0.764   0.139364
 H 0.1505 0.4254 0.0666   0.096882
 H 0.1155 0.2758 0.9531   0.111178
 H 0.1117 0.3835 0.9294   0.170965
 H 0.2063 0.2308 0.0966   0.122804
 H 0.0629 0.2774 0.1107   0.133434
 H 0.3196 0.1175 0.904   0.13893
 H 0.3203 0.2239 0.8772   0.120173
 H 0.2809 0.0706 0.7679   0.11126
 H 0.3769 0.2148 0.7217   0.130519
 H 0.2378 0.2671 0.736   0.139365
 H 0.6505 0.0746 0.5666   0.096882
 H 0.6155 0.2242 0.4531   0.111178
 H 0.6117 0.1165 0.4294   0.170964
 H 0.7063 0.2692 0.5966   0.122804
 H 0.5629 0.2226 0.6107   0.133433
 H 0.8196 0.3825 0.404   0.13893
 H 0.8203 0.2761 0.3772   0.120173
 H 0.7809 0.4294 0.2679   0.111258
 H 0.8769 0.2852 0.2217   0.130519
 H 0.7378 0.2329 0.236   0.139364
 H 0.8495 0.5746 0.9334   0.096882
 H 0.8845 0.7242 0.0469   0.111178
 H 0.8883 0.6165 0.0706   0.170965
 H 0.7937 0.7692 0.9034   0.122804
 H 0.9371 0.7226 0.8893   0.133433
 H 0.6804 0.8825 0.096   0.13893
 H 0.6797 0.7761 0.1228   0.120173
 H 0.7191 0.9294 0.2321   0.11126
 H 0.6231 0.7852 0.2783   0.130519
 H 0.7622 0.7329 0.264   0.139365
 C 0.1688 0.8708 0.4682   0.736082
 C 0.3196 0.8635 0.4516   -0.074434
 C 0.4099 0.8389 0.5305   -0.352302
 C 0.5665 0.8416 0.5257   0.78294
 C 0.3369 0.7895 0.3888   -0.329733
 C 0.2747 0.8144 0.3049   0.735215
 C 0.9996 0.6538 0.6403   0.785218
 C 0.1564 0.6597 0.6372   -0.348594
 C 0.2476 0.6334 0.715   -0.056821
 C 0.2241 0.7066 0.7784   -0.336542
 C 0.2895 0.6821 0.862   0.740639
 C 0.3991 0.6291 0.6993   0.688491
 C 0.3312 0.3708 0.0318   0.736082
 C 0.1804 0.3635 0.0484   -0.074434
 C 0.0901 0.3389 0.9695   -0.352302
 C 0.9335 0.3416 0.9743   0.78294
 C 0.1631 0.2895 0.1112   -0.329733
 C 0.2253 0.3144 0.1951   0.735215
 C 0.5004 0.1538 0.8597   0.785218
 C 0.3436 0.1597 0.8628   -0.348594
 C 0.2524 0.1334 0.785   -0.056822
 C 0.2759 0.2066 0.7216   -0.336542
 C 0.2105 0.1821 0.638   0.740639
 C 0.1009 0.1291 0.8007   0.688491
 C 0.8312 0.1292 0.5318   0.736082
 C 0.6804 0.1365 0.5484   -0.074434
 C 0.5901 0.1611 0.4695   -0.352302
 C 0.4335 0.1584 0.4743   0.78294
 C 0.6631 0.2105 0.6112   -0.329733
 C 0.7253 0.1856 0.6951   0.735215
 C 0.000399999999999 0.3462 0.3597   0.785218
 C 0.8436 0.3403 0.3628   -0.348594
 C 0.7524 0.3666 0.285   -0.056821
 C 0.7759 0.2934 0.2216   -0.336542
 C 0.7105 0.3179 0.138   0.740639
 C 0.6009 0.3709 0.3007   0.688491
 C 0.6688 0.6292 0.9682   0.736082
 C 0.8196 0.6365 0.9516   -0.074434
 C 0.9099 0.6611 0.0305   -0.352303
 C 0.0665 0.6584 0.0257   0.78294
 C 0.8369 0.7105 0.8888   -0.329733
 C 0.7747 0.6856 0.8049   0.735215
 C 0.4996 0.8462 0.1403   0.785218
 C 0.6564 0.8403 0.1372   -0.348594
 C 0.7476 0.8666 0.215   -0.056822
 C 0.7241 0.7934 0.2784   -0.336542
 C 0.7895 0.8179 0.362   0.740639
 C 0.8991 0.8709 0.1993   0.688491
 O 0.1159 0.9521 0.4791   -0.820001
 O 0.0982 0.7972 0.4761   -0.634037
 O 0.6473 0.7808 0.5636   -0.819052
 O 0.6184 0.9071 0.4889   -0.618433
 O 0.2234 0.8969 0.2894   -0.66815
 O 0.2789 0.753 0.2522   -0.662059
 O 0.9193 0.7153 0.6015   -0.827568
 O 0.95 0.5909 0.6796   -0.644553
 O 0.2835 0.7442 0.9146   -0.707987
 O 0.3442 0.6022 0.8779   -0.670805
 O 0.4512 0.5506 0.6833   -0.726844
 O 0.4704 0.7048 0.6967   -0.652362
 O 0.3841 0.4521 0.0209   -0.820001
 O 0.4018 0.2972 0.0239   -0.634037
 O 0.8527 0.2808 0.9364   -0.819053
 O 0.8816 0.4071 0.0111   -0.618433
 O 0.2766 0.3969 0.2106   -0.66815
 O 0.2211 0.253 0.2478   -0.662059
 O 0.5807 0.2153 0.8985   -0.827568
 O 0.55 0.0909 0.8204   -0.644553
 O 0.2165 0.2442 0.5854   -0.707987
 O 0.1558 0.1022 0.6221   -0.670805
 O 0.0488 0.0506 0.8167   -0.726844
 O 0.0296 0.2048 0.8033   -0.652362
 O 0.8841 0.0479 0.5209   -0.820001
 O 0.9018 0.2028 0.5239   -0.634037
 O 0.3527 0.2192 0.4364   -0.819052
 O 0.3816 0.0929 0.5111   -0.618433
 O 0.7766 0.1031 0.7106   -0.668151
 O 0.7211 0.247 0.7478   -0.662059
 O 0.0807 0.2847 0.3985   -0.827568
 O 0.05 0.4091 0.3204   -0.644553
 O 0.7165 0.2558 0.0854   -0.707987
 O 0.6558 0.3978 0.1221   -0.670805
 O 0.5488 0.4494 0.3167   -0.726844
 O 0.5296 0.2952 0.3033   -0.652362
 O 0.6159 0.5479 0.9791   -0.820001
 O 0.5982 0.7028 0.9761   -0.634037
 O 0.1473 0.7192 0.0636   -0.819053
 O 0.1184 0.5929 0.9889   -0.618433
 O 0.7234 0.6031 0.7894   -0.668151
 O 0.7789 0.747 0.7522   -0.662059
 O 0.4193 0.7847 0.1015   -0.827568
 O 0.45 0.9091 0.1796   -0.644553
 O 0.7835 0.7558 0.4146   -0.707987
 O 0.8442 0.8978 0.3779   -0.670805
 O 0.9512 0.9494 0.1833   -0.726844
 O 0.9704 0.7952 0.1967   -0.652362
