{'_ref': 'TBD', '_srcid': 'CAKYAQ_clean', 'submitters': [{'name': 'Dalar Nazarian Jeff Camp and David Sholl', 'email': 'dalar@gatech.edu jcamp6@gatech.edu'}], '_method': 'VASP DFT with PBE;DDEC'}
data_CeH6(C2O)6
_symmetry_space_group_name_H-M   'P 1'
_cell_length_a   9.85550007
_cell_length_b   10.70500006
_cell_length_c   11.10600000
_cell_angle_alpha   62.94700202
_cell_angle_beta   65.65299795
_cell_angle_gamma   66.64699849
_symmetry_Int_Tables_number   1
_chemical_formula_structural   CeH6(C2O)6
_chemical_formula_sum   'Ce2 H12 C24 O12'
_cell_volume   918.663483083
_cell_formula_units_Z   2
loop_
 _symmetry_equiv_pos_site_id
 _symmetry_equiv_pos_as_xyz
  1  'x, y, z'
loop_
 _atom_site_label
 _atom_site_fract_x
 _atom_site_fract_y
 _atom_site_fract_z
 _atom_site_charge
 Ce 0.78301 0.5093 0.51034   2.299336
 Ce 0.21699 0.4907 0.48966   2.299336
 H 0.0253 0.1063 0.3322   0.113885
 H 0.1793 0.8727 0.3404   0.09522
 H 0.7851 0.1032 0.9154   0.106374
 H 0.2043 0.1099 0.8886   0.115355
 H 0.3506 0.1799 0.4055   0.071128
 H 0.5041 0.9458 0.4141   0.097144
 H 0.9747 0.8937 0.6678   0.113885
 H 0.8207 0.1273 0.6596   0.09522
 H 0.2149 0.8968 0.0846   0.106373
 H 0.7957 0.8901 0.1114   0.115354
 H 0.6494 0.8201 0.5945   0.071128
 H 0.4959 0.0542 0.5859   0.097144
 C 0.9859 0.2646 0.7564   0.783845
 C 0.121 0.0727 0.3525   -0.05094
 C 0.2132 0.9338 0.3567   -0.037601
 C 0.3539 0.884 0.3846   -0.140098
 C 0.168 0.1619 0.3776   -0.132913
 C 0.9931 0.1263 0.8822   -0.138055
 C 0.8729 0.061 0.9496   -0.059716
 C 0.1215 0.0652 0.9336   -0.062308
 C 0.3136 0.1162 0.3959   -0.049157
 C 0.4053 0.977 0.4003   -0.056852
 C 0.0596 0.3023 0.3918   0.76143
 C 0.5547 0.2709 0.5953   0.832544
 C 0.0141 0.7354 0.2436   0.783846
 C 0.879 0.9273 0.6475   -0.05094
 C 0.7868 0.0662 0.6433   -0.037601
 C 0.6461 0.116 0.6154   -0.140101
 C 0.832 0.8381 0.6224   -0.132913
 C 0.0069 0.8737 0.1178   -0.138055
 C 0.1271 0.939 0.0504   -0.059716
 C 0.8785 0.9348 0.0664   -0.062308
 C 0.6864 0.8838 0.6041   -0.049157
 C 0.5947 0.023 0.5997   -0.056852
 C 0.9404 0.6977 0.6082   0.76143
 C 0.4453 0.7291 0.4047   0.832542
 O 0.4218 0.306 0.5857   -0.773647
 O 0.6134 0.3565 0.5933   -0.77991
 O 0.9296 0.3401 0.3735   -0.652301
 O 0.0967 0.3771 0.4291   -0.865287
 O 0.8753 0.3081 0.7071   -0.751967
 O 0.0925 0.3252 0.7093   -0.725507
 O 0.5782 0.694 0.4143   -0.773646
 O 0.3866 0.6435 0.4067   -0.779909
 O 0.0704 0.6599 0.6265   -0.652301
 O 0.9033 0.6229 0.5709   -0.865287
 O 0.1247 0.6919 0.2929   -0.751967
 O 0.9075 0.6748 0.2907   -0.725507
