{'_ref': 'TBD', '_srcid': 'CAKYAQ_clean', 'submitters': [{'name': 'Dalar Nazarian Jeff Camp and David Sholl', 'email': 'dalar@gatech.edu jcamp6@gatech.edu'}], '_method': 'VASP DFT with PBE;DDEC'}
data_CuH7C10IN2
_symmetry_space_group_name_H-M   'P 1'
_cell_length_a   10.09160029
_cell_length_b   10.09159957
_cell_length_c   16.43730000
_cell_angle_alpha   95.92630151
_cell_angle_beta   95.92630109
_cell_angle_gamma   92.36159743
_symmetry_Int_Tables_number   1
_chemical_formula_structural   CuH7C10IN2
_chemical_formula_sum   'Cu4 H28 C40 I4 N8'
_cell_volume   1653.85831556
_cell_formula_units_Z   4
loop_
 _symmetry_equiv_pos_site_id
 _symmetry_equiv_pos_as_xyz
  1  'x, y, z'
loop_
 _atom_site_label
 _atom_site_fract_x
 _atom_site_fract_y
 _atom_site_fract_z
 _atom_site_charge
 Cu 0.73991 0.06451 0.82788   0.21857
 Cu 0.56085 0.23701 0.7913   0.223895
 Cu 0.06451 0.73991 0.32788   0.21857
 Cu 0.23701 0.56085 0.2913   0.223895
 H 0.9008 0.0186 0.6912   0.078028
 H 0.8764 0.6298 0.5972   0.110431
 H 0.7263 0.5815 0.6907   0.11158
 H 0.6634 0.7516 0.7846   0.084649
 H 0.9218 0.7462 0.4751   0.083296
 H 0.1122 0.0082 0.6575   0.12096
 H 0.2449 0.9701 0.4322   0.082348
 H 0.3428 0.0712 0.691   0.082848
 H 0.2857 0.1873 0.4617   0.118356
 H 0.5706 0.3784 0.6299   0.078692
 H 0.2743 0.3823 0.4293   0.078614
 H 0.6618 0.4308 0.5253   0.108856
 H 0.6989 0.5903 0.4352   0.114154
 H 0.5237 0.6457 0.3422   0.081117
 H 0.0186 0.9008 0.1912   0.078028
 H 0.6298 0.8764 0.0972   0.110431
 H 0.5815 0.7263 0.1907   0.11158
 H 0.7516 0.6634 0.2846   0.084649
 H 0.7462 0.9218 0.9751   0.083296
 H 0.0082 0.1122 0.1575   0.12096
 H 0.9701 0.2449 0.9322   0.082348
 H 0.0712 0.3428 0.191   0.082848
 H 0.1873 0.2857 0.9617   0.118356
 H 0.3784 0.5706 0.1299   0.078692
 H 0.3823 0.2743 0.9293   0.078614
 H 0.4308 0.6618 0.0253   0.108856
 H 0.5903 0.6989 0.9352   0.114154
 H 0.6457 0.5237 0.8422   0.081118
 C 0.8654 0.9298 0.6911   0.101209
 C 0.9027 0.8287 0.6354   -0.028791
 C 0.8509 0.6989 0.6353   -0.048665
 C 0.7617 0.6703 0.6908   -0.146299
 C 0.7243 0.7713 0.7466   0.115983
 C 0.9913 0.8119 0.494   0.082227
 C 0.0028 0.8714 0.5748   -0.006591
 C 0.1044 0.9676 0.6024   -0.095178
 C 0.1946 0.0044 0.5493   0.000889
 C 0.1832 0.945 0.4685   0.088748
 C 0.3659 0.1285 0.6517   0.089315
 C 0.2982 0.1136 0.573   -0.001221
 C 0.332 0.1974 0.5155   -0.103092
 C 0.4335 0.2961 0.5367   0.009872
 C 0.5012 0.311 0.6154   0.084755
 C 0.3605 0.4245 0.4305   0.097391
 C 0.4646 0.3916 0.4857   -0.011427
 C 0.5907 0.4533 0.4875   -0.05902
 C 0.6127 0.5481 0.434   -0.148994
 C 0.5086 0.581 0.3788   0.114083
 C 0.9298 0.8654 0.1911   0.101209
 C 0.8287 0.9027 0.1354   -0.028791
 C 0.6989 0.8509 0.1353   -0.048664
 C 0.6703 0.7617 0.1908   -0.1463
 C 0.7713 0.7243 0.2466   0.115985
 C 0.8119 0.9913 0.994   0.082228
 C 0.8714 0.0028 0.0748   -0.006591
 C 0.9676 0.1044 0.1024   -0.095178
 C 0.0044 0.1946 0.0493   0.000889
 C 0.945 0.1832 0.9685   0.088748
 C 0.1285 0.3659 0.1517   0.089315
 C 0.1136 0.2982 0.073   -0.001221
 C 0.1974 0.332 0.0155   -0.103092
 C 0.2961 0.4335 0.0367   0.009872
 C 0.311 0.5012 0.1154   0.084756
 C 0.4245 0.3605 0.9305   0.097391
 C 0.3916 0.4646 0.9857   -0.011427
 C 0.4533 0.5907 0.9875   -0.059019
 C 0.5481 0.6127 0.934   -0.148994
 C 0.581 0.5086 0.8788   0.114083
 I 0.81057 0.29011 0.7642   -0.477845
 I 0.49095 0.01051 0.85474   -0.480828
 I 0.29011 0.81057 0.2642   -0.477845
 I 0.01051 0.49095 0.35474   -0.480828
 N 0.7762 0.9012 0.7467   -0.245461
 N 0.0815 0.8487 0.4409   -0.229709
 N 0.4674 0.2272 0.6729   -0.237694
 N 0.3826 0.5192 0.377   -0.240052
 N 0.9012 0.7762 0.2467   -0.245462
 N 0.8487 0.0815 0.9409   -0.229709
 N 0.2272 0.4674 0.1729   -0.237694
 N 0.5192 0.3826 0.877   -0.240051
