{'_ref': 'TBD', '_srcid': 'CAKYAQ_clean', 'submitters': [{'name': 'Dalar Nazarian Jeff Camp and David Sholl', 'email': 'dalar@gatech.edu jcamp6@gatech.edu'}], '_method': 'VASP DFT with PBE;DDEC'}
data_ZnH7C12O5
_symmetry_space_group_name_H-M   'P 1'
_cell_length_a   7.62379993
_cell_length_b   12.34160028
_cell_length_c   12.34160000
_cell_angle_alpha   83.66110098
_cell_angle_beta   85.84000078
_cell_angle_gamma   85.83999932
_symmetry_Int_Tables_number   1
_chemical_formula_structural   ZnH7C12O5
_chemical_formula_sum   'Zn4 H28 C48 O20'
_cell_volume   1148.63786373
_cell_formula_units_Z   4
loop_
 _symmetry_equiv_pos_site_id
 _symmetry_equiv_pos_as_xyz
  1  'x, y, z'
loop_
 _atom_site_label
 _atom_site_fract_x
 _atom_site_fract_y
 _atom_site_fract_z
 _atom_site_charge
 Zn 0.43682 0.29722 0.23478   1.080808
 Zn 0.06318 0.76522 0.70278   1.080809
 Zn 0.56318 0.70278 0.76522   1.080808
 Zn 0.93682 0.23478 0.29722   1.080809
 H 0.7108 0.4571 0.9471   0.106246
 H 0.1961 0.4349 0.7965   0.128342
 H 0.0665 0.2168 0.0538   0.126885
 H 0.484 0.3642 0.8596   0.078607
 H 0.4138 0.299 0.7706   0.060371
 H 0.5127 0.1209 0.9955   0.094272
 H 0.7892 0.0529 0.5429   0.106246
 H 0.3039 0.2035 0.5651   0.128346
 H 0.4335 0.9462 0.7832   0.126885
 H 0.016 0.1404 0.6358   0.078607
 H 0.0862 0.2294 0.701   0.060371
 H 0.9873 0.0045 0.8791   0.094269
 H 0.2892 0.5429 0.0529   0.106247
 H 0.8039 0.5651 0.2035   0.128342
 H 0.9335 0.7832 0.9462   0.126887
 H 0.516 0.6358 0.1404   0.078608
 H 0.5862 0.701 0.2294   0.060371
 H 0.4873 0.8791 0.0045   0.094274
 H 0.2108 0.9471 0.4571   0.106247
 H 0.6961 0.7965 0.4349   0.128346
 H 0.5665 0.0538 0.2168   0.126887
 H 0.984 0.8596 0.3642   0.078608
 H 0.9138 0.7706 0.299   0.060371
 H 0.0127 0.9955 0.1209   0.094271
 H 0.75 0.9912 0.0088   0.099938
 H 0.75 0.2733 0.7267   0.116591
 H 0.25 0.0088 0.9912   0.099938
 H 0.25 0.7267 0.2733   0.116591
 C 0.8708 0.3323 0.0157   -0.133732
 C 0.8232 0.4227 0.9419   -0.048745
 C 0.9461 0.459 0.862   -0.100399
 C 0.1145 0.4083 0.8509   -0.205364
 C 0.1581 0.3175 0.9227   0.253531
 C 0.0368 0.278 0.006   -0.141333
 C 0.7435 0.2937 0.1069   0.682439
 C 0.451 0.2931 0.8447   0.080862
 C 0.6055 0.2088 0.8586   0.035244
 C 0.6074 0.1253 0.9437   -0.135117
 C 0.8963 0.5588 0.785   0.727415
 C 0.6292 0.9843 0.6677   -0.133733
 C 0.6768 0.0581 0.5773   -0.048745
 C 0.5539 0.138 0.541   -0.1004
 C 0.3855 0.1491 0.5917   -0.205365
 C 0.3419 0.0773 0.6825   0.253531
 C 0.4632 0.994 0.722   -0.141331
 C 0.7565 0.8931 0.7063   0.682439
 C 0.049 0.1553 0.7069   0.080862
 C 0.8945 0.1414 0.7912   0.035242
 C 0.8926 0.0563 0.8747   -0.135111
 C 0.6037 0.215 0.4412   0.727414
 C 0.1292 0.6677 0.9843   -0.133733
 C 0.1768 0.5773 0.0581   -0.048745
 C 0.0539 0.541 0.138   -0.1004
 C 0.8855 0.5917 0.1491   -0.205363
 C 0.8419 0.6825 0.0773   0.253531
 C 0.9632 0.722 0.994   -0.141335
 C 0.2565 0.7063 0.8931   0.682439
 C 0.549 0.7069 0.1553   0.080862
 C 0.3945 0.7912 0.1414   0.035245
 C 0.3926 0.8747 0.0563   -0.135118
 C 0.1037 0.4412 0.215   0.727415
 C 0.3708 0.0157 0.3323   -0.133733
 C 0.3232 0.9419 0.4227   -0.048745
 C 0.4461 0.862 0.459   -0.100401
 C 0.6145 0.8509 0.4083   -0.205365
 C 0.6581 0.9227 0.3175   0.253531
 C 0.5368 0.006 0.278   -0.141332
 C 0.2435 0.1069 0.2937   0.682439
 C 0.951 0.8447 0.2931   0.080862
 C 0.1055 0.8586 0.2088   0.035243
 C 0.1074 0.9437 0.1253   -0.135112
 C 0.3963 0.785 0.5588   0.727414
 C 0.75 0.0477 0.9523   -0.037021
 C 0.75 0.2168 0.7832   -0.18724
 C 0.25 0.9523 0.0477   -0.03702
 C 0.25 0.7832 0.2168   -0.18724
 O 0.5903 0.34134 0.10894   -0.565148
 O 0.7872 0.21812 0.17824   -0.638638
 O 0.7363 0.579 0.7738   -0.614423
 O 0.0198 0.6123 0.73872   -0.632858
 O 0.3132 0.25644 0.92028   -0.235405
 O 0.9097 0.89106 0.65866   -0.565148
 O 0.7128 0.82176 0.78188   -0.638638
 O 0.7637 0.2262 0.421   -0.614423
 O 0.4802 0.26128 0.3877   -0.632856
 O 0.1868 0.07972 0.74356   -0.235404
 O 0.4097 0.65866 0.89106   -0.565148
 O 0.2128 0.78188 0.82176   -0.638638
 O 0.2637 0.421 0.2262   -0.614423
 O 0.9802 0.3877 0.26128   -0.632858
 O 0.6868 0.74356 0.07972   -0.235405
 O 0.0903 0.10894 0.34134   -0.565148
 O 0.2872 0.17824 0.21812   -0.638638
 O 0.2363 0.7738 0.579   -0.614423
 O 0.5198 0.73872 0.6123   -0.632856
 O 0.8132 0.92028 0.25644   -0.235404
