{'_ref': 'TBD', '_srcid': 'CAKYAQ_clean', 'submitters': [{'name': 'Dalar Nazarian Jeff Camp and David Sholl', 'email': 'dalar@gatech.edu jcamp6@gatech.edu'}], '_method': 'VASP DFT with PBE;DDEC'}
data_Zn5H10(C8O9)2
_symmetry_space_group_name_H-M   'P 1'
_cell_length_a   9.15859992
_cell_length_b   9.79690016
_cell_length_c   9.87300000
_cell_angle_alpha   77.59799735
_cell_angle_beta   89.94699955
_cell_angle_gamma   88.06000271
_symmetry_Int_Tables_number   1
_chemical_formula_structural   Zn5H10(C8O9)2
_chemical_formula_sum   'Zn5 H10 C16 O18'
_cell_volume   864.677694466
_cell_formula_units_Z   1
loop_
 _symmetry_equiv_pos_site_id
 _symmetry_equiv_pos_as_xyz
  1  'x, y, z'
loop_
 _atom_site_label
 _atom_site_fract_x
 _atom_site_fract_y
 _atom_site_fract_z
 _atom_site_charge
 Zn 0.7798 0.71324 0.8089   1.154982
 Zn 0.6972 0.37024 0.91058   1.106387
 Zn 0.2202 0.28676 0.1911   1.154984
 Zn 0.3028 0.62976 0.08942   1.106387
 Zn 0.0 0.5 0.0   1.123759
 H 0.7286 0.5483 0.0504   0.449414
 H 0.9007 0.6014 0.4287   0.137982
 H 0.8965 0.9768 0.9051   0.132504
 H 0.4897 0.6452 0.4677   0.139973
 H 0.3861 0.9225 0.0698   0.134173
 H 0.2714 0.4517 0.9496   0.449414
 H 0.0993 0.3986 0.5713   0.137977
 H 0.1035 0.0232 0.0949   0.1325
 H 0.5103 0.3548 0.5323   0.139968
 H 0.6139 0.0775 0.9302   0.134171
 C 0.0152 0.4743 0.3107   0.725806
 C 0.9716 0.5269 0.4378   -0.182405
 C 0.0501 0.8109 0.9848   0.740597
 C 0.9775 0.9534 0.9667   -0.179443
 C 0.5938 0.5474 0.6581   0.72653
 C 0.5162 0.5557 0.5226   -0.183963
 C 0.5481 0.8118 0.9807   0.74185
 C 0.474 0.9353 0.0181   -0.1886
 C 0.9848 0.5257 0.6893   0.725799
 C 0.0284 0.4731 0.5622   -0.182351
 C 0.9499 0.1891 0.0152   0.740591
 C 0.0225 0.0466 0.0333   -0.179402
 C 0.4062 0.4526 0.3419   0.726523
 C 0.4838 0.4443 0.4774   -0.183916
 C 0.4519 0.1882 0.0193   0.741849
 C 0.526 0.0647 0.9819   -0.188593
 O 0.7787 0.5298 0.9657   -1.011797
 O 0.967 0.5429 0.1963   -0.622036
 O 0.097 0.3664 0.3282   -0.63339
 O 0.9947 0.7242 0.924   -0.646004
 O 0.165 0.7891 0.0585   -0.605434
 O 0.6015 0.6582 0.7008   -0.632138
 O 0.6455 0.4272 0.716   -0.633928
 O 0.6714 0.8292 0.9249   -0.607358
 O 0.486 0.6955 0.0029   -0.625639
 O 0.2213 0.4702 0.0343   -1.011798
 O 0.033 0.4571 0.8037   -0.622037
 O 0.903 0.6336 0.6718   -0.633389
 O 0.0053 0.2758 0.076   -0.646004
 O 0.835 0.2109 0.9415   -0.605433
 O 0.3985 0.3418 0.2992   -0.632138
 O 0.3545 0.5728 0.284   -0.633927
 O 0.3286 0.1708 0.0751   -0.607359
 O 0.514 0.3045 0.9971   -0.625638
