{'_ref': 'TBD', '_srcid': 'CAKYAQ_clean', 'submitters': [{'name': 'Dalar Nazarian Jeff Camp and David Sholl', 'email': 'dalar@gatech.edu jcamp6@gatech.edu'}], '_method': 'VASP DFT with PBE;DDEC'}
data_AlH5C8O5
_symmetry_space_group_name_H-M   'P 1'
_cell_length_a   6.65253601
_cell_length_b   11.10937413
_cell_length_c   11.10937413
_cell_angle_alpha   74.02210987
_cell_angle_beta   72.57997299
_cell_angle_gamma   72.57997299
_symmetry_Int_Tables_number   1
_chemical_formula_structural   AlH5C8O5
_chemical_formula_sum   'Al2 H10 C16 O10'
_cell_volume   731.752394345
_cell_formula_units_Z   2
loop_
 _symmetry_equiv_pos_site_id
 _symmetry_equiv_pos_as_xyz
  1  'x, y, z'
loop_
 _atom_site_label
 _atom_site_fract_x
 _atom_site_fract_y
 _atom_site_fract_z
 _atom_site_charge
 Al 0.498809 0.497795 0.996975   1.846944
 Al 0.999059 0.497865 0.996905   1.848048
 H 0.734695 0.883003 0.993723   0.111061
 H 0.762944 0.502556 0.611296   0.110755
 H 0.881724 0.493926 0.382086   0.111325
 H 0.615775 0.112163 0.002503   0.112029
 H 0.262514 0.112096 0.002536   0.111387
 H 0.234765 0.494473 0.382093   0.111483
 H 0.115955 0.503113 0.611293   0.111682
 H 0.381404 0.882916 0.993756   0.111297
 H 0.249189 0.37934 0.11452   0.47664
 H 0.749289 0.61551 0.87853   0.476162
 C 0.852213 0.931626 0.995126   -0.071268
 C 0.645485 0.500964 0.562744   -0.071999
 C 0.714175 0.495424 0.430744   -0.073319
 C 0.783433 0.063616 0.000715999999997   -0.076321
 C 0.145145 0.063584 0.000723999999998   -0.074951
 C 0.352303 0.495746 0.430766   -0.07288
 C 0.283623 0.501276 0.562756   -0.074492
 C 0.213915 0.931594 0.995134   -0.072142
 C 0.069089 0.86303 0.99183   -0.100191
 C 0.141509 0.72069 0.98923   0.723547
 C 0.428949 0.50389 0.63149   -0.101219
 C 0.356789 0.50572 0.774   0.723034
 C 0.569179 0.49243 0.36215   -0.099044
 C 0.641489 0.49003 0.21979   0.722258
 C 0.928659 0.13235 0.00349   -0.098908
 C 0.856569 0.27488 0.00514   0.723079
 O 0.341553 0.662303 0.989363   -0.650375
 O 0.156665 0.505437 0.832417   -0.650966
 O 0.499495 0.490217 0.161417   -0.649951
 O 0.998483 0.333323 0.004603   -0.649831
 O 0.656495 0.333317 0.004717   -0.650459
 O 0.841483 0.490123 0.161383   -0.650079
 O 0.498653 0.505203 0.832443   -0.649678
 O 0.999475 0.662387 0.989267   -0.650872
 O 0.249089 0.44416 0.05052   -1.121175
 O 0.748949 0.5514 0.94322   -1.120609
