{'_ref': 'TBD', '_srcid': 'CAKYAQ_clean', 'submitters': [{'name': 'Dalar Nazarian Jeff Camp and David Sholl', 'email': 'dalar@gatech.edu jcamp6@gatech.edu'}], '_method': 'VASP DFT with PBE;DDEC'}
data_CdH2C3O4
_symmetry_space_group_name_H-M   'P 1'
_cell_length_a   10.68229984
_cell_length_b   10.68230016
_cell_length_c   10.68230000
_cell_angle_alpha   106.00400090
_cell_angle_beta   106.00400140
_cell_angle_gamma   106.00399749
_symmetry_Int_Tables_number   1
_chemical_formula_structural   CdH2C3O4
_chemical_formula_sum   'Cd6 H12 C18 O24'
_cell_volume   1041.52500309
_cell_formula_units_Z   6
loop_
 _symmetry_equiv_pos_site_id
 _symmetry_equiv_pos_as_xyz
  1  'x, y, z'
loop_
 _atom_site_label
 _atom_site_fract_x
 _atom_site_fract_y
 _atom_site_fract_z
 _atom_site_charge
 Cd 0.25049 0.71545 0.98493   1.156927
 Cd 0.98493 0.25049 0.71545   1.156927
 Cd 0.71545 0.98493 0.25049   1.156927
 Cd 0.74951 0.28455 0.01507   1.156927
 Cd 0.01507 0.74951 0.28455   1.156927
 Cd 0.28455 0.01507 0.74951   1.156927
 H 0.8569 0.7015 0.6299   0.197662
 H 0.9454 0.8863 0.7118   0.174815
 H 0.6299 0.8569 0.7015   0.197664
 H 0.7118 0.9454 0.8863   0.174814
 H 0.7015 0.6299 0.8569   0.197665
 H 0.8863 0.7118 0.9454   0.174813
 H 0.1431 0.2985 0.3701   0.197665
 H 0.0546 0.1137 0.2882   0.174815
 H 0.3701 0.1431 0.2985   0.197667
 H 0.2882 0.0546 0.1137   0.174814
 H 0.2985 0.3701 0.1431   0.197668
 H 0.1137 0.2882 0.0546   0.174813
 C 0.0654 0.7644 0.7827   0.775357
 C 0.9517 0.7751 0.6697   -0.550359
 C 0.9829 0.7757 0.5392   0.770079
 C 0.7827 0.0654 0.7644   0.775357
 C 0.6697 0.9517 0.7751   -0.550359
 C 0.5392 0.9829 0.7757   0.770079
 C 0.7644 0.7827 0.0654   0.775357
 C 0.7751 0.6697 0.9517   -0.55036
 C 0.7757 0.5392 0.9829   0.770079
 C 0.9346 0.2356 0.2173   0.775357
 C 0.0483 0.2249 0.3303   -0.55036
 C 0.0171 0.2243 0.4608   0.770079
 C 0.2173 0.9346 0.2356   0.775357
 C 0.3303 0.0483 0.2249   -0.55036
 C 0.4608 0.0171 0.2243   0.770079
 C 0.2356 0.2173 0.9346   0.775357
 C 0.2249 0.3303 0.0483   -0.550361
 C 0.2243 0.4608 0.0171   0.770079
 O 0.1891 0.8553 0.8357   -0.681409
 O 0.0332 0.6667 0.8235   -0.586341
 O 0.1348 0.4516 0.9079   -0.656723
 O 0.317 0.5786 0.1057   -0.600011
 O 0.8357 0.1891 0.8553   -0.681408
 O 0.8235 0.0332 0.6667   -0.586341
 O 0.9079 0.1348 0.4516   -0.656723
 O 0.1057 0.317 0.5786   -0.600011
 O 0.8553 0.8357 0.1891   -0.681408
 O 0.6667 0.8235 0.0332   -0.586341
 O 0.4516 0.9079 0.1348   -0.656722
 O 0.5786 0.1057 0.317   -0.600011
 O 0.8109 0.1447 0.1643   -0.681408
 O 0.9668 0.3333 0.1765   -0.586341
 O 0.8652 0.5484 0.0921   -0.656722
 O 0.683 0.4214 0.8943   -0.600011
 O 0.1643 0.8109 0.1447   -0.681408
 O 0.1765 0.9668 0.3333   -0.586341
 O 0.0921 0.8652 0.5484   -0.656722
 O 0.8943 0.683 0.4214   -0.600011
 O 0.1447 0.1643 0.8109   -0.681408
 O 0.3333 0.1765 0.9668   -0.586341
 O 0.5484 0.0921 0.8652   -0.656722
 O 0.4214 0.8943 0.683   -0.600011
