{'_ref': 'TBD', '_srcid': 'CAKYAQ_clean', 'submitters': [{'name': 'Dalar Nazarian Jeff Camp and David Sholl', 'email': 'dalar@gatech.edu jcamp6@gatech.edu'}], '_method': 'VASP DFT with PBE;DDEC'}
data_CdH2C3O4
_symmetry_space_group_name_H-M   'P 1'
_cell_length_a   10.66780004
_cell_length_b   10.66779934
_cell_length_c   10.66780000
_cell_angle_alpha   105.96499828
_cell_angle_beta   105.96499721
_cell_angle_gamma   105.96500140
_symmetry_Int_Tables_number   1
_chemical_formula_structural   CdH2C3O4
_chemical_formula_sum   'Cd6 H12 C18 O24'
_cell_volume   1038.26861926
_cell_formula_units_Z   6
loop_
 _symmetry_equiv_pos_site_id
 _symmetry_equiv_pos_as_xyz
  1  'x, y, z'
loop_
 _atom_site_label
 _atom_site_fract_x
 _atom_site_fract_y
 _atom_site_fract_z
 _atom_site_charge
 Cd 0.98507 0.25033 0.71544   1.155001
 Cd 0.71544 0.98507 0.25033   1.155001
 Cd 0.25033 0.71544 0.98507   1.155
 Cd 0.01493 0.74967 0.28456   1.155001
 Cd 0.28456 0.01493 0.74967   1.155002
 Cd 0.74967 0.28456 0.01493   1.155001
 H 0.3012 0.3579 0.136   0.182254
 H 0.1369 0.2908 0.0608   0.182905
 H 0.136 0.3012 0.3579   0.182256
 H 0.0608 0.1369 0.2908   0.182903
 H 0.3579 0.136 0.3012   0.182258
 H 0.2908 0.0608 0.1369   0.182901
 H 0.6988 0.6421 0.864   0.182258
 H 0.8631 0.7092 0.9392   0.182905
 H 0.864 0.6988 0.6421   0.182259
 H 0.9392 0.8631 0.7092   0.182903
 H 0.6421 0.864 0.6988   0.182262
 H 0.7092 0.9392 0.8631   0.182901
 C 0.2353 0.2177 0.9347   0.756281
 C 0.2237 0.3307 0.0481   -0.530099
 C 0.2253 0.4612 0.0183   0.774481
 C 0.9347 0.2353 0.2177   0.756281
 C 0.0481 0.2237 0.3307   -0.5301
 C 0.0183 0.2253 0.4612   0.774481
 C 0.2177 0.9347 0.2353   0.756281
 C 0.3307 0.0481 0.2237   -0.5301
 C 0.4612 0.0183 0.2253   0.774481
 C 0.7647 0.7823 0.0653   0.756281
 C 0.7763 0.6693 0.9519   -0.5301
 C 0.7747 0.5388 0.9817   0.77448
 C 0.0653 0.7647 0.7823   0.756281
 C 0.9519 0.7763 0.6693   -0.530101
 C 0.9817 0.7747 0.5388   0.77448
 C 0.7823 0.0653 0.7647   0.75628
 C 0.6693 0.9519 0.7763   -0.530101
 C 0.5388 0.9817 0.7747   0.77448
 O 0.1446 0.1642 0.811   -0.674653
 O 0.3337 0.1771 0.9678   -0.587502
 O 0.1343 0.4514 0.9076   -0.66492
 O 0.3167 0.5781 0.1055   -0.593749
 O 0.811 0.1446 0.1642   -0.674653
 O 0.9678 0.3337 0.1771   -0.587502
 O 0.9076 0.1343 0.4514   -0.66492
 O 0.1055 0.3167 0.5781   -0.593749
 O 0.1642 0.811 0.1446   -0.674653
 O 0.1771 0.9678 0.3337   -0.587502
 O 0.4514 0.9076 0.1343   -0.664919
 O 0.5781 0.1055 0.3167   -0.593749
 O 0.8554 0.8358 0.189   -0.674653
 O 0.6663 0.8229 0.0322   -0.587501
 O 0.8657 0.5486 0.0924   -0.664919
 O 0.6833 0.4219 0.8945   -0.593749
 O 0.189 0.8554 0.8358   -0.674653
 O 0.0322 0.6663 0.8229   -0.587501
 O 0.0924 0.8657 0.5486   -0.66492
 O 0.8945 0.6833 0.4219   -0.593749
 O 0.8358 0.189 0.8554   -0.674653
 O 0.8229 0.0322 0.6663   -0.587501
 O 0.5486 0.0924 0.8657   -0.664918
 O 0.4219 0.8945 0.6833   -0.593749
