{'_ref': 'TBD', '_srcid': 'CAKYAQ_clean', 'submitters': [{'name': 'Dalar Nazarian Jeff Camp and David Sholl', 'email': 'dalar@gatech.edu jcamp6@gatech.edu'}], '_method': 'VASP DFT with PBE;DDEC'}
data_ZnH11C13(NO2)2
_symmetry_space_group_name_H-M   'P 1'
_cell_length_a   10.93569973
_cell_length_b   10.93570041
_cell_length_c   12.45490000
_cell_angle_alpha   101.57200211
_cell_angle_beta   101.57200285
_cell_angle_gamma   99.22709692
_symmetry_Int_Tables_number   1
_chemical_formula_structural   ZnH11C13(NO2)2
_chemical_formula_sum   'Zn4 H44 C52 N8 O16'
_cell_volume   1397.96923859
_cell_formula_units_Z   4
loop_
 _symmetry_equiv_pos_site_id
 _symmetry_equiv_pos_as_xyz
  1  'x, y, z'
loop_
 _atom_site_label
 _atom_site_fract_x
 _atom_site_fract_y
 _atom_site_fract_z
 _atom_site_charge
 Zn 0.73604 0.34081 0.3763   0.942055
 Zn 0.65919 0.26396 0.1237   0.942057
 Zn 0.26396 0.65919 0.6237   0.942055
 Zn 0.34081 0.73604 0.8763   0.942057
 H 0.067 0.391 0.799   0.143424
 H 0.983 0.267 0.838   0.142077
 H 0.053 0.237 0.726   0.127578
 H 0.5179 0.2541 0.506   0.128046
 H 0.5148 0.2532 0.618   0.114766
 H 0.5313 0.3693 0.586   0.136056
 H 0.9463 0.3597 0.5771   0.277567
 H 0.0372 0.2448 0.088   0.101011
 H 0.2389 0.2231 0.077   0.10079
 H 0.3653 0.3747 0.411   0.105652
 H 0.1586 0.3758 0.422   0.086067
 H 0.609 0.933 0.701   0.143424
 H 0.733 0.017 0.662   0.142078
 H 0.763 0.947 0.774   0.127578
 H 0.7459 0.4821 0.994   0.128045
 H 0.7468 0.4852 0.882   0.114765
 H 0.6307 0.4687 0.914   0.136056
 H 0.6403 0.0537 0.9229   0.277567
 H 0.7552 0.9628 0.412   0.101011
 H 0.7769 0.7611 0.423   0.10079
 H 0.6253 0.6347 0.089   0.105652
 H 0.6242 0.8414 0.078   0.086067
 H 0.933 0.609 0.201   0.143422
 H 0.017 0.733 0.162   0.142077
 H 0.947 0.763 0.274   0.127578
 H 0.4821 0.7459 0.494   0.128044
 H 0.4852 0.7468 0.382   0.114765
 H 0.4687 0.6307 0.414   0.136057
 H 0.0537 0.6403 0.4229   0.277567
 H 0.9628 0.7552 0.912   0.101011
 H 0.7611 0.7769 0.923   0.100791
 H 0.6347 0.6253 0.589   0.105653
 H 0.8414 0.6242 0.578   0.086067
 H 0.391 0.067 0.299   0.143422
 H 0.267 0.983 0.338   0.142077
 H 0.237 0.053 0.226   0.127578
 H 0.2541 0.5179 0.006   0.128044
 H 0.2532 0.5148 0.118   0.114765
 H 0.3693 0.5313 0.086   0.136057
 H 0.3597 0.9463 0.0771   0.277567
 H 0.2448 0.0372 0.588   0.101011
 H 0.2231 0.2389 0.577   0.100791
 H 0.3747 0.3653 0.911   0.105653
 H 0.3758 0.1586 0.922   0.086067
 C 0.76487 0.28249 0.70451   -0.180944
 C 0.9395 0.31804 0.2677   0.677805
 C 0.07399 0.31081 0.2591   -0.139438
 C 0.0988 0.2672 0.1548   -0.05149
 C 0.2231 0.2617 0.1473   -0.075568
 C 0.32296 0.29924 0.2426   -0.125607
 C 0.45782 0.29158 0.2355   0.654778
 C 0.29797 0.34323 0.3465   -0.071844
 C 0.17394 0.34786 0.355   -0.034155
 C 0.8875 0.3089 0.6923   0.174245
 C 0.0063 0.3003 0.7695   -0.395801
 C 0.5485 0.2945 0.5758   -0.336574
 C 0.6889 0.3059 0.6054   0.238889
 C 0.71751 0.23513 0.79549   -0.180946
 C 0.68196 0.0605 0.2323   0.677806
 C 0.68919 0.92601 0.2409   -0.139438
 C 0.7328 0.9012 0.3452   -0.05149
 C 0.7383 0.7769 0.3527   -0.075567
 C 0.70076 0.67704 0.2574   -0.125608
 C 0.70842 0.54218 0.2645   0.654777
 C 0.65677 0.70203 0.1535   -0.071844
 C 0.65214 0.82606 0.145   -0.034155
 C 0.6911 0.1125 0.8077   0.174246
 C 0.6997 0.9937 0.7305   -0.395802
 C 0.7055 0.4515 0.9242   -0.336574
 C 0.6941 0.3111 0.8946   0.238889
 C 0.23513 0.71751 0.29549   -0.180944
 C 0.0605 0.68196 0.7323   0.677805
 C 0.92601 0.68919 0.7409   -0.139438
 C 0.9012 0.7328 0.8452   -0.05149
 C 0.7769 0.7383 0.8527   -0.075568
 C 0.67704 0.70076 0.7574   -0.125607
 C 0.54218 0.70842 0.7645   0.654778
 C 0.70203 0.65677 0.6535   -0.071844
 C 0.82606 0.65214 0.645   -0.034155
 C 0.1125 0.6911 0.3077   0.174246
 C 0.9937 0.6997 0.2305   -0.395801
 C 0.4515 0.7055 0.4242   -0.336574
 C 0.3111 0.6941 0.3946   0.238889
 C 0.28249 0.76487 0.20451   -0.180946
 C 0.31804 0.9395 0.7677   0.677806
 C 0.31081 0.07399 0.7591   -0.139438
 C 0.2672 0.0988 0.6548   -0.05149
 C 0.2617 0.2231 0.6473   -0.075568
 C 0.29924 0.32296 0.7426   -0.125608
 C 0.29158 0.45782 0.7355   0.654777
 C 0.34323 0.29797 0.8465   -0.071844
 C 0.34786 0.17394 0.855   -0.034155
 C 0.3089 0.8875 0.1923   0.174246
 C 0.3003 0.0063 0.2695   -0.395801
 C 0.2945 0.5485 0.0758   -0.336574
 C 0.3059 0.6889 0.1054   0.238889
 N 0.7697 0.33712 0.54133   -0.34719
 N 0.8872 0.3412 0.5976   -0.016437
 N 0.66288 0.2303 0.95867   -0.34719
 N 0.6588 0.1128 0.9024   -0.016436
 N 0.2303 0.66288 0.45867   -0.34719
 N 0.1128 0.6588 0.4024   -0.016437
 N 0.33712 0.7697 0.04133   -0.34719
 N 0.3412 0.8872 0.0976   -0.016436
 O 0.85424 0.28788 0.17847   -0.610459
 O 0.92239 0.35671 0.36565   -0.596695
 O 0.54234 0.32422 0.32542   -0.593382
 O 0.47519 0.25025 0.1383   -0.575224
 O 0.71212 0.14576 0.32153   -0.610459
 O 0.64329 0.07761 0.13435   -0.596695
 O 0.67578 0.45766 0.17458   -0.593381
 O 0.74975 0.52481 0.3617   -0.575221
 O 0.14576 0.71212 0.82153   -0.610459
 O 0.07761 0.64329 0.63435   -0.596695
 O 0.45766 0.67578 0.67458   -0.593382
 O 0.52481 0.74975 0.8617   -0.575224
 O 0.28788 0.85424 0.67847   -0.610459
 O 0.35671 0.92239 0.86565   -0.596695
 O 0.32422 0.54234 0.82542   -0.593381
 O 0.25025 0.47519 0.6383   -0.575221
