{'_ref': 'TBD', '_srcid': 'CAKYAQ_clean', 'submitters': [{'name': 'Dalar Nazarian Jeff Camp and David Sholl', 'email': 'dalar@gatech.edu jcamp6@gatech.edu'}], '_method': 'VASP DFT with PBE;DDEC'}
data_MgAl3(PO4)4
_symmetry_space_group_name_H-M   'P 1'
_cell_length_a   9.21870000
_cell_length_b   14.58110000
_cell_length_c   14.86520000
_cell_angle_alpha   90.00000000
_cell_angle_beta   90.00000000
_cell_angle_gamma   90.00000000
_symmetry_Int_Tables_number   1
_chemical_formula_structural   MgAl3(PO4)4
_chemical_formula_sum   'Mg4 Al12 P16 O64'
_cell_volume   1998.16214612
_cell_formula_units_Z   4
loop_
 _symmetry_equiv_pos_site_id
 _symmetry_equiv_pos_as_xyz
  1  'x, y, z'
loop_
 _atom_site_label
 _atom_site_fract_x
 _atom_site_fract_y
 _atom_site_fract_z
 _atom_site_charge
 Mg 0.3291 0.75 0.481   1.634509
 Mg 0.6709 0.25 0.519   1.634508
 Mg 0.6709 0.75 0.981   1.634509
 Mg 0.3291 0.25 0.019   1.634508
 Al 0.852 0.8855 0.6521   1.8741
 Al 0.148 0.3855 0.3479   1.8741
 Al 0.148 0.6145 0.1521   1.874099
 Al 0.852 0.1145 0.8479   1.874099
 Al 0.148 0.1145 0.3479   1.874101
 Al 0.852 0.6145 0.6521   1.874101
 Al 0.852 0.3855 0.8479   1.8741
 Al 0.148 0.8855 0.1521   1.8741
 Al 0.1011 0.75 0.8647   1.894123
 Al 0.8989 0.25 0.1353   1.894123
 Al 0.8989 0.75 0.3647   1.894122
 Al 0.1011 0.25 0.6353   1.894122
 P 0.8452 0.8959 0.8644   2.019034
 P 0.1548 0.3959 0.1356   2.019034
 P 0.1548 0.6041 0.3644   2.019034
 P 0.8452 0.1041 0.6356   2.019034
 P 0.1548 0.1041 0.1356   2.019034
 P 0.8452 0.6041 0.8644   2.019034
 P 0.8452 0.3959 0.6356   2.019034
 P 0.1548 0.8959 0.3644   2.019034
 P 0.111 0.75 0.6653   1.875969
 P 0.3149 0.75 0.0362   2.030591
 P 0.889 0.25 0.3347   1.875969
 P 0.6851 0.25 0.9638   2.030591
 P 0.889 0.75 0.1653   1.875969
 P 0.6851 0.75 0.5362   2.030591
 P 0.111 0.25 0.8347   1.875969
 P 0.3149 0.25 0.4638   2.030591
 O 0.0275 0.8372 0.6403   -0.956529
 O 0.272 0.8398 0.0737   -0.942141
 O 0.7326 0.8636 0.9305   -0.967186
 O 0.8731 0.9974 0.8884   -0.911717
 O 0.9866 0.8474 0.8809   -1.012394
 O 0.7898 0.8813 0.7672   -1.030725
 O 0.9725 0.3372 0.3597   -0.956529
 O 0.728 0.3398 0.9263   -0.942141
 O 0.2674 0.3636 0.0695   -0.967186
 O 0.1269 0.4974 0.1116   -0.911717
 O 0.0134 0.3474 0.1191   -1.012394
 O 0.2102 0.3813 0.2328   -1.030725
 O 0.9725 0.6628 0.1403   -0.956529
 O 0.728 0.6602 0.5737   -0.942141
 O 0.2674 0.6364 0.4305   -0.967186
 O 0.1269 0.5026 0.3884   -0.911717
 O 0.0134 0.6526 0.3809   -1.012394
 O 0.2102 0.6187 0.2672   -1.030725
 O 0.0275 0.1628 0.8597   -0.956529
 O 0.272 0.1602 0.4263   -0.942141
 O 0.7326 0.1364 0.5695   -0.967186
 O 0.8731 0.0026 0.6116   -0.911717
 O 0.9866 0.1526 0.6191   -1.012394
 O 0.7898 0.1187 0.7328   -1.030725
 O 0.9725 0.1628 0.3597   -0.956529
 O 0.728 0.1602 0.9263   -0.942141
 O 0.2674 0.1364 0.0695   -0.967186
 O 0.1269 0.0026 0.1116   -0.911717
 O 0.0134 0.1526 0.1191   -1.012394
 O 0.2102 0.1187 0.2328   -1.030725
 O 0.0275 0.6628 0.6403   -0.956529
 O 0.272 0.6602 0.0737   -0.942141
 O 0.7326 0.6364 0.9305   -0.967186
 O 0.8731 0.5026 0.8884   -0.911717
 O 0.9866 0.6526 0.8809   -1.012394
 O 0.7898 0.6187 0.7672   -1.030725
 O 0.0275 0.3372 0.8597   -0.956529
 O 0.272 0.3398 0.4263   -0.942141
 O 0.7326 0.3636 0.5695   -0.967186
 O 0.8731 0.4974 0.6116   -0.911717
 O 0.9866 0.3474 0.6191   -1.012394
 O 0.7898 0.3813 0.7328   -1.030725
 O 0.9725 0.8372 0.1403   -0.956529
 O 0.728 0.8398 0.5737   -0.942141
 O 0.2674 0.8636 0.4305   -0.967186
 O 0.1269 0.9974 0.3884   -0.911717
 O 0.0134 0.8474 0.3809   -1.012394
 O 0.2102 0.8813 0.2672   -1.030725
 O 0.1856 0.75 0.757   -0.879544
 O 0.2428 0.75 0.6054   -0.849995
 O 0.2437 0.75 0.9463   -0.927607
 O 0.4685 0.75 0.0061   -0.922931
 O 0.8144 0.25 0.243   -0.879544
 O 0.7572 0.25 0.3946   -0.849995
 O 0.7563 0.25 0.0537   -0.927607
 O 0.5315 0.25 0.9939   -0.922931
 O 0.8144 0.75 0.257   -0.879544
 O 0.7572 0.75 0.1054   -0.849995
 O 0.7563 0.75 0.4463   -0.927607
 O 0.5315 0.75 0.5061   -0.922931
 O 0.1856 0.25 0.743   -0.879544
 O 0.2428 0.25 0.8946   -0.849995
 O 0.2437 0.25 0.5537   -0.927607
 O 0.4685 0.25 0.4939   -0.922931
