{'_ref': 'TBD', '_srcid': 'CAKYAQ_clean', 'submitters': [{'name': 'Dalar Nazarian Jeff Camp and David Sholl', 'email': 'dalar@gatech.edu jcamp6@gatech.edu'}], '_method': 'VASP DFT with PBE;DDEC'}
data_LaCuPH6C6NO9
_symmetry_space_group_name_H-M   'P 1'
_cell_length_a   8.30280000
_cell_length_b   9.46299967
_cell_length_c   20.63980000
_cell_angle_alpha   90.00000000
_cell_angle_beta   90.00000000
_cell_angle_gamma   109.86699878
_symmetry_Int_Tables_number   1
_chemical_formula_structural   LaCuPH6C6NO9
_chemical_formula_sum   'La4 Cu4 P4 H24 C24 N4 O36'
_cell_volume   1525.14209619
_cell_formula_units_Z   4
loop_
 _symmetry_equiv_pos_site_id
 _symmetry_equiv_pos_as_xyz
  1  'x, y, z'
loop_
 _atom_site_label
 _atom_site_fract_x
 _atom_site_fract_y
 _atom_site_fract_z
 _atom_site_charge
 La 0.37685 0.39893 0.64839   2.224316
 La 0.62315 0.10107 0.14839   2.224316
 La 0.62315 0.60107 0.35161   2.224318
 La 0.37685 0.89893 0.85161   2.224318
 Cu 0.03685 0.94895 0.70321   0.919139
 Cu 0.96315 0.55105 0.20321   0.919139
 Cu 0.96315 0.05105 0.29679   0.919139
 Cu 0.03685 0.44895 0.79679   0.919139
 P 0.20913 0.69441 0.69982   1.506383
 P 0.79087 0.80559 0.19982   1.506383
 P 0.79087 0.30559 0.30018   1.506383
 P 0.20913 0.19441 0.80018   1.506383
 H 0.7793 0.7392 0.593   0.146722
 H 0.8672 0.6142 0.6035   0.161952
 H 0.1062 0.9011 0.5302   0.151214
 H 0.9451 0.9443 0.5542   0.142715
 H 0.143 0.6804 0.5904   0.164508
 H 0.2771 0.8425 0.6074   0.184416
 H 0.2207 0.7608 0.093   0.146722
 H 0.1328 0.8858 0.1035   0.161952
 H 0.8938 0.5989 0.0302   0.151214
 H 0.0549 0.5557 0.0542   0.142715
 H 0.857 0.8196 0.0904   0.164508
 H 0.7229 0.6575 0.1074   0.184416
 H 0.2207 0.2608 0.407   0.146722
 H 0.1328 0.3858 0.3965   0.161952
 H 0.8938 0.0989 0.4698   0.151213
 H 0.0549 0.0557 0.4458   0.142713
 H 0.857 0.3196 0.4096   0.164508
 H 0.7229 0.1575 0.3926   0.184416
 H 0.7793 0.2392 0.907   0.146722
 H 0.8672 0.1142 0.8965   0.161952
 H 0.1062 0.4011 0.9698   0.151213
 H 0.9451 0.4443 0.9458   0.142713
 H 0.143 0.1804 0.9096   0.164508
 H 0.2771 0.3425 0.8926   0.184416
 C 0.7808 0.6775 0.68952   0.735161
 C 0.857 0.7078 0.62146   -0.314712
 C 0.056 0.9363 0.56777   -0.282484
 C 0.1765 0.0893 0.59003   0.67676
 C 0.1706 0.7637 0.62177   -0.483064
 C 0.5692 0.4619 0.50243   0.574164
 C 0.2192 0.8225 0.18952   0.735161
 C 0.143 0.7922 0.12146   -0.314712
 C 0.944 0.5637 0.06777   -0.282484
 C 0.8235 0.4107 0.09003   0.67676
 C 0.8294 0.7363 0.12177   -0.483064
 C 0.4308 0.0381 0.00243   0.574164
 C 0.2192 0.3225 0.31048   0.735161
 C 0.143 0.2922 0.37854   -0.314712
 C 0.944 0.0637 0.43223   -0.282483
 C 0.8235 0.9107 0.40997   0.676759
 C 0.8294 0.2363 0.37823   -0.483064
 C 0.4308 0.5381 0.49757   0.574163
 C 0.7808 0.1775 0.81048   0.735161
 C 0.857 0.2078 0.87854   -0.314712
 C 0.056 0.4363 0.93223   -0.282483
 C 0.1765 0.5893 0.90997   0.676759
 C 0.1706 0.2637 0.87823   -0.483064
 C 0.5692 0.9619 0.99757   0.574163
 N 0.0287 0.8273 0.62213   0.019312
 N 0.9713 0.6727 0.12213   0.019312
 N 0.9713 0.1727 0.37787   0.019311
 N 0.0287 0.3273 0.87787   0.019311
 O 0.8425 0.7783 0.73291   -0.558836
 O 0.6584 0.5589 0.69929   -0.658697
 O 0.1993 0.1088 0.65176   -0.703735
 O 0.2448 0.1908 0.5511   -0.604695
 O 0.3567 0.6363 0.69051   -0.90212
 O 0.0435 0.5649 0.71906   -0.817152
 O 0.2484 0.8303 0.7442   -0.966261
 O 0.5913 0.4123 0.55738   -0.665948
 O 0.6499 0.4567 0.45198   -0.649054
 O 0.1575 0.7217 0.23291   -0.558836
 O 0.3416 0.9411 0.19929   -0.658697
 O 0.8007 0.3912 0.15176   -0.703735
 O 0.7552 0.3092 0.0511   -0.604695
 O 0.6433 0.8637 0.19051   -0.90212
 O 0.9565 0.9351 0.21906   -0.817152
 O 0.7516 0.6697 0.2442   -0.966261
 O 0.4087 0.0877 0.05738   -0.665948
 O 0.3501 0.0433 0.95198   -0.649054
 O 0.1575 0.2217 0.26709   -0.558836
 O 0.3416 0.4411 0.30071   -0.658697
 O 0.8007 0.8912 0.34824   -0.703735
 O 0.7552 0.8092 0.4489   -0.604695
 O 0.6433 0.3637 0.30949   -0.90212
 O 0.9565 0.4351 0.28094   -0.817152
 O 0.7516 0.1697 0.2558   -0.966261
 O 0.4087 0.5877 0.44262   -0.665948
 O 0.3501 0.5433 0.54802   -0.649054
 O 0.8425 0.2783 0.76709   -0.558836
 O 0.6584 0.0589 0.80071   -0.658697
 O 0.1993 0.6088 0.84824   -0.703735
 O 0.2448 0.6908 0.9489   -0.604695
 O 0.3567 0.1363 0.80949   -0.90212
 O 0.0435 0.0649 0.78094   -0.817152
 O 0.2484 0.3303 0.7558   -0.966261
 O 0.5913 0.9123 0.94262   -0.665948
 O 0.6499 0.9567 0.04802   -0.649054
