{'_ref': 'TBD', '_srcid': 'CAKYAQ_clean', 'submitters': [{'name': 'Dalar Nazarian Jeff Camp and David Sholl', 'email': 'dalar@gatech.edu jcamp6@gatech.edu'}], '_method': 'VASP DFT with PBE;DDEC'}
data_CdH24C34(NO3)2
_symmetry_space_group_name_H-M   'P 1'
_cell_length_a   9.67550000
_cell_length_b   12.26400000
_cell_length_c   28.89900000
_cell_angle_alpha   90.00000000
_cell_angle_beta   90.00000000
_cell_angle_gamma   90.00000000
_symmetry_Int_Tables_number   1
_chemical_formula_structural   CdH24C34(NO3)2
_chemical_formula_sum   'Cd4 H96 C136 N8 O24'
_cell_volume   3429.16493447
_cell_formula_units_Z   4
loop_
 _symmetry_equiv_pos_site_id
 _symmetry_equiv_pos_as_xyz
  1  'x, y, z'
loop_
 _atom_site_label
 _atom_site_fract_x
 _atom_site_fract_y
 _atom_site_fract_z
 _atom_site_charge
 Cd 0.50061 0.84551 0.02635   0.989495
 Cd 0.50061 0.15449 0.97365   0.989495
 Cd 0.000610000000002 0.84551 0.47365   0.989495
 Cd 0.000610000000002 0.15449 0.52635   0.989495
 H 0.7377 0.5182 0.0896   0.090264
 H 0.7944 0.3945 0.1474   0.124177
 H 0.5784 0.5691 0.2393   0.128443
 H 0.5203 0.6904 0.1821   0.097661
 H 0.7276 0.4736 0.29   0.067856
 H 0.5889 0.4101 0.2802   0.060308
 H 0.7008 0.0487 0.3201   0.107702
 H 0.9037 0.0707 0.3617   0.10187
 H 0.0083 0.2373 0.3661   0.089738
 H 0.9047 0.3881 0.3324   0.08836
 H 0.5804 0.1832 0.2379   0.080901
 H 0.4946 0.2511 0.2737   0.049239
 H 0.4608 0.2361 0.3503   0.120032
 H 0.3019 0.9543 0.3044   0.140357
 H 0.3258 0.2225 0.4162   0.078182
 H 0.1601 0.9457 0.3688   0.09875
 H 0.5351 0.6319 0.9562   0.085325
 H 0.4084 0.4965 0.9209   0.122323
 H 0.171 0.4931 0.9295   0.112932
 H 0.9575 0.5796 0.9634   0.115894
 H 0.86 0.7106 0.0062   0.126515
 H 0.8876 0.8842 0.0533   0.106836
 H 0.0274 0.0179 0.083   0.113527
 H 0.2644 0.0065 0.0707   0.078262
 H 0.7377 0.4818 0.9104   0.090264
 H 0.7944 0.6055 0.8526   0.124178
 H 0.5784 0.4309 0.7607   0.128443
 H 0.5203 0.3096 0.8179   0.097661
 H 0.7276 0.5264 0.71   0.067856
 H 0.5889 0.5899 0.7198   0.060308
 H 0.7008 0.9513 0.6799   0.107702
 H 0.9037 0.9293 0.6383   0.10187
 H 0.0083 0.7627 0.6339   0.089738
 H 0.9047 0.6119 0.6676   0.08836
 H 0.5804 0.8168 0.7621   0.080901
 H 0.4946 0.7489 0.7263   0.049239
 H 0.4608 0.7639 0.6497   0.120032
 H 0.3019 0.0457 0.6956   0.140357
 H 0.3258 0.7775 0.5838   0.078182
 H 0.1601 0.0543 0.6312   0.09875
 H 0.5351 0.3681 0.0438   0.085325
 H 0.4084 0.5035 0.0791   0.122323
 H 0.171 0.5069 0.0705   0.112932
 H 0.9575 0.4204 0.0366   0.115894
 H 0.86 0.2894 0.9938   0.126515
 H 0.8876 0.1158 0.9467   0.106836
 H 0.0274 0.9821 0.917   0.113527
 H 0.2644 0.9935 0.9293   0.078262
 H 0.2377 0.5182 0.4104   0.090264
 H 0.2944 0.3945 0.3526   0.124177
 H 0.0784 0.5691 0.2607   0.128443
 H 0.0203 0.6904 0.3179   0.09766
 H 0.2276 0.4736 0.21   0.067856
 H 0.0889 0.4101 0.2198   0.060308
 H 0.2008 0.0487 0.1799   0.107702
 H 0.4037 0.0707 0.1383   0.10187
 H 0.5083 0.2373 0.1339   0.089738
 H 0.4047 0.3881 0.1676   0.08836
 H 0.0804 0.1832 0.2621   0.0809
 H 0.9946 0.2511 0.2263   0.049239
 H 0.9608 0.2361 0.1497   0.120032
 H 0.8019 0.9543 0.1956   0.140357
 H 0.8258 0.2225 0.0838   0.078182
 H 0.6601 0.9457 0.1312   0.09875
 H 0.0351 0.6319 0.5438   0.085325
 H 0.9084 0.4965 0.5791   0.122323
 H 0.671 0.4931 0.5705   0.112932
 H 0.4575 0.5796 0.5366   0.115894
 H 0.36 0.7106 0.4938   0.126514
 H 0.3876 0.8842 0.4467   0.106836
 H 0.5274 0.0179 0.417   0.113527
 H 0.7644 0.0065 0.4293   0.078262
 H 0.2377 0.4818 0.5896   0.090264
 H 0.2944 0.6055 0.6474   0.124177
 H 0.0784 0.4309 0.7393   0.128443
 H 0.0203 0.3096 0.6821   0.097661
 H 0.2276 0.5264 0.79   0.067856
 H 0.0889 0.5899 0.7802   0.060308
 H 0.2008 0.9513 0.8201   0.107702
 H 0.4037 0.9293 0.8617   0.10187
 H 0.5083 0.7627 0.8661   0.089738
 H 0.4047 0.6119 0.8324   0.08836
 H 0.0804 0.8168 0.7379   0.0809
 H 0.9946 0.7489 0.7737   0.049239
 H 0.9608 0.7639 0.8503   0.120032
 H 0.8019 0.0457 0.8044   0.140357
 H 0.8258 0.7775 0.9162   0.078182
 H 0.6601 0.0543 0.8688   0.09875
 H 0.0351 0.3681 0.4562   0.085324
 H 0.9084 0.5035 0.4209   0.122323
 H 0.671 0.5069 0.4295   0.112932
 H 0.4575 0.4204 0.4634   0.115894
 H 0.36 0.2894 0.5062   0.126514
 H 0.3876 0.1158 0.5533   0.106836
 H 0.5274 0.9821 0.583   0.113527
 H 0.7644 0.9935 0.5707   0.078262
 C 0.5859 0.6981 0.09309   0.655987
 C 0.6227 0.6193 0.12965   -0.200837
 C 0.7052 0.5288 0.11957   0.003202
 C 0.7391 0.4544 0.15422   -0.25614
 C 0.6905 0.4694 0.19875   0.300239
 C 0.6099 0.5583 0.20921   -0.288349
 C 0.5762 0.6311 0.17484   0.022267
 C 0.6888 0.4069 0.27754   0.098222
 C 0.746 0.3073 0.30291   -0.045081
 C 0.6827 0.2048 0.29909   -0.015524
 C 0.7423 0.117 0.3217   -0.115562
 C 0.8642 0.1304 0.34685   -0.065462
 C 0.9258 0.2296 0.34996   -0.081108
 C 0.8651 0.3194 0.329   -0.118655
 C 0.5539 0.1879 0.27025   0.097599
 C 0.3962 0.0957 0.32123   0.302897
 C 0.4021 0.1768 0.35423   -0.276778
 C 0.306 0.0089 0.32665   -0.23831
 C 0.3194 0.1691 0.39342   0.021572
 C 0.2214 0.0036 0.3655   0.01397
 C 0.2274 0.0835 0.39929   -0.208214
 C 0.1374 0.0793 0.44147   0.67613
 C 0.4394 0.6324 0.9592   0.183785
 C 0.3638 0.5501 0.9381   -0.154334
 C 0.223 0.5486 0.9428   -0.03998
 C 0.159 0.6312 0.96793   -0.008015
 C 0.013 0.6338 0.97609   -0.123697
 C 0.955 0.7118 0.0014   -0.069981
 C 0.0352 0.7974 0.02151   -0.011212
 C 0.9823 0.8816 0.0478   -0.004419
 C 0.0646 0.9608 0.0658   -0.17251
 C 0.2069 0.9539 0.05788   0.191997
 C 0.1805 0.7981 0.01464   0.150033
 C 0.2424 0.7119 0.98779   0.150652
 C 0.5859 0.3019 0.90691   0.655987
 C 0.6227 0.3807 0.87035   -0.200837
 C 0.7052 0.4712 0.88043   0.003202
 C 0.7391 0.5456 0.84578   -0.25614
 C 0.6905 0.5306 0.80125   0.300239
 C 0.6099 0.4417 0.79079   -0.288349
 C 0.5762 0.3689 0.82516   0.022267
 C 0.6888 0.5931 0.72246   0.098222
 C 0.746 0.6927 0.69709   -0.045081
 C 0.6827 0.7952 0.70091   -0.015524
 C 0.7423 0.883 0.6783   -0.115562
 C 0.8642 0.8696 0.65315   -0.065462
 C 0.9258 0.7704 0.65004   -0.081108
 C 0.8651 0.6806 0.671   -0.118654
 C 0.5539 0.8121 0.72975   0.097599
 C 0.3962 0.9043 0.67877   0.302897
 C 0.4021 0.8232 0.64577   -0.276778
 C 0.306 0.9911 0.67335   -0.23831
 C 0.3194 0.8309 0.60658   0.021572
 C 0.2214 0.9964 0.6345   0.01397
 C 0.2274 0.9165 0.60071   -0.208214
 C 0.1374 0.9207 0.55853   0.67613
 C 0.4394 0.3676 0.0408   0.183785
 C 0.3638 0.4499 0.0619   -0.154334
 C 0.223 0.4514 0.0572   -0.039979
 C 0.159 0.3688 0.03207   -0.008015
 C 0.013 0.3662 0.02391   -0.123697
 C 0.955 0.2882 0.9986   -0.069981
 C 0.0352 0.2026 0.97849   -0.011212
 C 0.9823 0.1184 0.9522   -0.004419
 C 0.0646 0.0392 0.9342   -0.17251
 C 0.2069 0.0461 0.94212   0.191997
 C 0.1805 0.2019 0.98536   0.150033
 C 0.2424 0.2881 0.01221   0.150652
 C 0.0859 0.6981 0.40691   0.655987
 C 0.1227 0.6193 0.37035   -0.200837
 C 0.2052 0.5288 0.38043   0.003202
 C 0.2391 0.4544 0.34578   -0.25614
 C 0.1905 0.4694 0.30125   0.300239
 C 0.1099 0.5583 0.29079   -0.288349
 C 0.0762 0.6311 0.32516   0.022267
 C 0.1888 0.4069 0.22246   0.098222
 C 0.246 0.3073 0.19709   -0.045081
 C 0.1827 0.2048 0.20091   -0.015524
 C 0.2423 0.117 0.1783   -0.115562
 C 0.3642 0.1304 0.15315   -0.065462
 C 0.4258 0.2296 0.15004   -0.081107
 C 0.3651 0.3194 0.171   -0.118654
 C 0.0539 0.1879 0.22975   0.097599
 C 0.8962 0.0957 0.17877   0.302897
 C 0.9021 0.1768 0.14577   -0.276778
 C 0.806 0.0089 0.17335   -0.23831
 C 0.8194 0.1691 0.10658   0.021572
 C 0.7214 0.0036 0.1345   0.01397
 C 0.7274 0.0835 0.10071   -0.208214
 C 0.6374 0.0793 0.05853   0.67613
 C 0.9394 0.6324 0.5408   0.183785
 C 0.8638 0.5501 0.5619   -0.154333
 C 0.723 0.5486 0.5572   -0.03998
 C 0.659 0.6312 0.53207   -0.008015
 C 0.513 0.6338 0.52391   -0.123697
 C 0.455 0.7118 0.4986   -0.069981
 C 0.5352 0.7974 0.47849   -0.011212
 C 0.4823 0.8816 0.4522   -0.004419
 C 0.5646 0.9608 0.4342   -0.17251
 C 0.7069 0.9539 0.44212   0.191997
 C 0.6805 0.7981 0.48536   0.150033
 C 0.7424 0.7119 0.51221   0.150652
 C 0.0859 0.3019 0.59309   0.655987
 C 0.1227 0.3807 0.62965   -0.200837
 C 0.2052 0.4712 0.61957   0.003202
 C 0.2391 0.5456 0.65422   -0.25614
 C 0.1905 0.5306 0.69875   0.300239
 C 0.1099 0.4417 0.70921   -0.288349
 C 0.0762 0.3689 0.67484   0.022267
 C 0.1888 0.5931 0.77754   0.098222
 C 0.246 0.6927 0.80291   -0.045081
 C 0.1827 0.7952 0.79909   -0.015524
 C 0.2423 0.883 0.8217   -0.115562
 C 0.3642 0.8696 0.84685   -0.065462
 C 0.4258 0.7704 0.84996   -0.081107
 C 0.3651 0.6806 0.829   -0.118654
 C 0.0539 0.8121 0.77025   0.097599
 C 0.8962 0.9043 0.82123   0.302897
 C 0.9021 0.8232 0.85423   -0.276778
 C 0.806 0.9911 0.82665   -0.23831
 C 0.8194 0.8309 0.89342   0.021572
 C 0.7214 0.9964 0.8655   0.01397
 C 0.7274 0.9165 0.89929   -0.208214
 C 0.6374 0.9207 0.94147   0.67613
 C 0.9394 0.3676 0.4592   0.183785
 C 0.8638 0.4499 0.4381   -0.154333
 C 0.723 0.4514 0.4428   -0.03998
 C 0.659 0.3688 0.46793   -0.008015
 C 0.513 0.3662 0.47609   -0.123697
 C 0.455 0.2882 0.5014   -0.069981
 C 0.5352 0.2026 0.52151   -0.011212
 C 0.4823 0.1184 0.5478   -0.004419
 C 0.5646 0.0392 0.5658   -0.17251
 C 0.7069 0.0461 0.55788   0.191997
 C 0.6805 0.2019 0.51464   0.150033
 C 0.7424 0.2881 0.48779   0.150652
 N 0.3814 0.7113 0.98331   -0.351174
 N 0.2629 0.8752 0.03274   -0.351008
 N 0.3814 0.2887 0.01669   -0.351174
 N 0.2629 0.1248 0.96726   -0.351008
 N 0.8814 0.7113 0.51669   -0.351174
 N 0.7629 0.8752 0.46726   -0.351008
 N 0.8814 0.2887 0.48331   -0.351174
 N 0.7629 0.1248 0.53274   -0.351008
 O 0.1626 0.1474 0.47279   -0.582539
 O 0.6392 0.6885 0.05397   -0.622307
 O 0.0376 0.0136 0.44296   -0.644786
 O 0.4988 0.772 0.10099   -0.628184
 O 0.7301 0.3918 0.22991   -0.283421
 O 0.4775 0.0934 0.28206   -0.285914
 O 0.1626 0.8526 0.52721   -0.582539
 O 0.6392 0.3115 0.94603   -0.622307
 O 0.0376 0.9864 0.55704   -0.644786
 O 0.4988 0.228 0.89901   -0.628184
 O 0.7301 0.6082 0.77009   -0.283421
 O 0.4775 0.9066 0.71794   -0.285914
 O 0.6626 0.1474 0.02721   -0.582539
 O 0.1392 0.6885 0.44603   -0.622307
 O 0.5376 0.0136 0.05704   -0.644786
 O 0.9988 0.772 0.39901   -0.628184
 O 0.2301 0.3918 0.27009   -0.283421
 O 0.9775 0.0934 0.21794   -0.285914
 O 0.6626 0.8526 0.97279   -0.582539
 O 0.1392 0.3115 0.55397   -0.622307
 O 0.5376 0.9864 0.94296   -0.644786
 O 0.9988 0.228 0.60099   -0.628184
 O 0.2301 0.6082 0.72991   -0.283421
 O 0.9775 0.9066 0.78206   -0.285914
