{'_ref': 'TBD', '_srcid': 'CAKYAQ_clean', 'submitters': [{'name': 'Dalar Nazarian Jeff Camp and David Sholl', 'email': 'dalar@gatech.edu jcamp6@gatech.edu'}], '_method': 'VASP DFT with PBE;DDEC'}
data_Zn2H32C41(NO3)4
_symmetry_space_group_name_H-M   'P 1'
_cell_length_a   9.30460052
_cell_length_b   13.70290007
_cell_length_c   19.91110000
_cell_angle_alpha   86.57050011
_cell_angle_beta   79.85169950
_cell_angle_gamma   70.15289881
_symmetry_Int_Tables_number   1
_chemical_formula_structural   Zn2H32C41(NO3)4
_chemical_formula_sum   'Zn4 H64 C82 N8 O24'
_cell_volume   2350.51548366
_cell_formula_units_Z   2
loop_
 _symmetry_equiv_pos_site_id
 _symmetry_equiv_pos_as_xyz
  1  'x, y, z'
loop_
 _atom_site_label
 _atom_site_fract_x
 _atom_site_fract_y
 _atom_site_fract_z
 _atom_site_charge
 Zn 0.59666 0.74166 0.01193   0.883017
 Zn 0.16168 0.74166 0.48807   0.881909
 Zn 0.40334 0.25834 0.98807   0.883017
 Zn 0.83832 0.25834 0.51193   0.881909
 H 0.3871 0.632 0.0667   0.075763
 H 0.3769 0.4862 0.1259   0.154788
 H 0.8277 0.4114 0.1313   0.138733
 H 0.8248 0.5572 0.0709   0.074376
 H 0.7627 0.3148 0.2232   0.063799
 H 0.7858 0.2376 0.1634   0.077377
 H 0.5149 0.1174 0.2427   0.065229
 H 0.5263 0.1872 0.1776   0.076861
 H 0.8916 0.8852 0.1454   0.154742
 H 0.8557 0.764 0.083   0.090098
 H 0.4377 0.9476 0.0704   0.069265
 H 0.4708 0.0742 0.1263   0.144212
 H 0.7874 0.825 0.8067   0.09701
 H 0.9512 0.5144 0.8067   0.101241
 H 0.0195 0.8544 0.941   0.093275
 H 0.2034 0.9918 0.0542   0.091492
 H 0.4809 0.632 0.4333   0.075739
 H 0.6369 0.4862 0.3741   0.154564
 H 0.2609 0.4114 0.3687   0.139811
 H 0.118 0.5572 0.4291   0.073806
 H 0.4225 0.3148 0.2768   0.062525
 H 0.4766 0.2376 0.3366   0.07665
 H 0.8677 0.1174 0.2573   0.064891
 H 0.7865 0.1872 0.3224   0.076225
 H 0.7232 0.8852 0.3546   0.15579
 H 0.8803 0.764 0.417   0.09021
 H 0.1147 0.9476 0.4296   0.069931
 H 0.955 0.0742 0.3737   0.143608
 H 0.8876 0.825 0.6933   0.097373
 H 0.0344 0.5144 0.6933   0.100802
 H 0.6261 0.8544 0.559   0.09343
 H 0.3048 0.9918 0.4458   0.092636
 H 0.6129 0.368 0.9333   0.075763
 H 0.6231 0.5138 0.8741   0.154788
 H 0.1723 0.5886 0.8687   0.138733
 H 0.1752 0.4428 0.9291   0.074376
 H 0.2373 0.6852 0.7768   0.063799
 H 0.2142 0.7624 0.8366   0.077377
 H 0.4851 0.8826 0.7573   0.06523
 H 0.4737 0.8128 0.8224   0.076861
 H 0.1084 0.1148 0.8546   0.154742
 H 0.1443 0.236 0.917   0.090099
 H 0.5623 0.0524 0.9296   0.069265
 H 0.5292 0.9258 0.8737   0.144212
 H 0.2126 0.175 0.1933   0.097011
 H 0.0488 0.4856 0.1933   0.101242
 H 0.9805 0.1456 0.059   0.093275
 H 0.7966 0.0082 0.9458   0.091493
 H 0.5191 0.368 0.5667   0.075739
 H 0.3631 0.5138 0.6259   0.154565
 H 0.7391 0.5886 0.6313   0.139811
 H 0.882 0.4428 0.5709   0.073806
 H 0.5775 0.6852 0.7232   0.062525
 H 0.5234 0.7624 0.6634   0.076649
 H 0.1323 0.8826 0.7427   0.064891
 H 0.2135 0.8128 0.6776   0.076225
 H 0.2768 0.1148 0.6454   0.15579
 H 0.1197 0.236 0.583   0.09021
 H 0.8853 0.0524 0.5704   0.069931
 H 0.045 0.9258 0.6263   0.143609
 H 0.1124 0.175 0.3067   0.097374
 H 0.9656 0.4856 0.3067   0.100803
 H 0.3739 0.1456 0.441   0.09343
 H 0.6952 0.0082 0.5542   0.092637
 C 0.4773 0.5868 0.08   0.213481
 C 0.4699 0.4996 0.1158   -0.302886
 C 0.5999 0.4334 0.1364   0.377282
 C 0.736 0.4556 0.1187   -0.300722
 C 0.7327 0.543 0.0827   0.22239
 C 0.71137 0.27906 0.2002   0.056585
 C 0.58374 0.14532 0.2114   0.061795
 C 0.6834 0.9936 0.1438   0.365319
 C 0.7982 0.8994 0.1297   -0.304834
 C 0.7756 0.8264 0.0927   0.197992
 C 0.5321 0.935 0.0849   0.219994
 C 0.5499 0.0106 0.1193   -0.310012
 C 0.7975 0.6674 0.8949   0.65014
 C 0.8598 0.6694 0.8195   -0.116192
 C 0.8402 0.7622 0.784   -0.078428
 C 0.9358 0.5772 0.7836   -0.064244
 C 0.2688 0.815 0.9934   0.681283
 C 0.1293 0.9108 0.9975   -0.132474
 C 0.0122 0.9124 0.9652   -0.072085
 C 0.1211 0.998 0.0319   -0.069698
 C 0.4359 0.5868 0.42   0.213079
 C 0.5305 0.4996 0.3842   -0.303461
 C 0.4667 0.4334 0.3636   0.37789
 C 0.3084 0.4556 0.3813   -0.302886
 C 0.2243 0.543 0.4173   0.225022
 C 0.50957 0.27906 0.2998   0.059867
 C 0.77094 0.14532 0.2886   0.064733
 C 0.823 0.9936 0.3562   0.365676
 C 0.8024 0.8994 0.3703   -0.304599
 C 0.898 0.8264 0.4073   0.196107
 C 0.0329 0.935 0.4151   0.218061
 C 0.9395 0.0106 0.3807   -0.310801
 C 0.0351 0.6674 0.6051   0.649891
 C 0.9708 0.6694 0.6805   -0.115188
 C 0.8976 0.7622 0.716   -0.079413
 C 0.987 0.5772 0.7164   -0.065173
 C 0.4162 0.815 0.5066   0.677176
 C 0.4599 0.9108 0.5025   -0.133531
 C 0.5754 0.9124 0.5348   -0.070296
 C 0.3809 0.998 0.4681   -0.071116
 C 0.5227 0.4132 0.92   0.213481
 C 0.5301 0.5004 0.8842   -0.302887
 C 0.4001 0.5666 0.8636   0.377282
 C 0.264 0.5444 0.8813   -0.300722
 C 0.2673 0.457 0.9173   0.22239
 C 0.28863 0.72094 0.7998   0.056585
 C 0.41626 0.85468 0.7886   0.061795
 C 0.3166 0.0064 0.8562   0.365319
 C 0.2018 0.1006 0.8703   -0.304833
 C 0.2244 0.1736 0.9073   0.197992
 C 0.4679 0.065 0.9151   0.219994
 C 0.4501 0.9894 0.8807   -0.310012
 C 0.2025 0.3326 0.1051   0.65014
 C 0.1402 0.3306 0.1805   -0.116191
 C 0.1598 0.2378 0.216   -0.078428
 C 0.0642 0.4228 0.2164   -0.064244
 C 0.7312 0.185 0.0066   0.681283
 C 0.8707 0.0892 0.0025   -0.132474
 C 0.9878 0.0876 0.0348   -0.072085
 C 0.8789 0.002 0.9681   -0.069699
 C 0.5641 0.4132 0.58   0.213079
 C 0.4695 0.5004 0.6158   -0.303461
 C 0.5333 0.5666 0.6364   0.37789
 C 0.6916 0.5444 0.6187   -0.302886
 C 0.7757 0.457 0.5827   0.225022
 C 0.49043 0.72094 0.7002   0.059867
 C 0.22906 0.85468 0.7114   0.064733
 C 0.177 0.0064 0.6438   0.365676
 C 0.1976 0.1006 0.6297   -0.304599
 C 0.102 0.1736 0.5927   0.196107
 C 0.9671 0.065 0.5849   0.218061
 C 0.0605 0.9894 0.6193   -0.310801
 C 0.9649 0.3326 0.3949   0.649891
 C 0.0292 0.3306 0.3195   -0.115188
 C 0.1024 0.2378 0.284   -0.079414
 C 0.013 0.4228 0.2836   -0.065173
 C 0.5838 0.185 0.4934   0.677176
 C 0.5401 0.0892 0.4975   -0.13353
 C 0.4246 0.0876 0.4652   -0.070297
 C 0.6191 0.002 0.5319   -0.071117
 C 0.6445 0.211 0.25   -0.036539
 C 0.3555 0.789 0.75   -0.036539
 N 0.60556 0.61008 0.0631   -0.40742
 N 0.64394 0.84132 0.0701   -0.392888
 N 0.28436 0.61008 0.4369   -0.40775
 N 0.01474 0.84132 0.4299   -0.390509
 N 0.39444 0.38992 0.9369   -0.40742
 N 0.35606 0.15868 0.9299   -0.392888
 N 0.71564 0.38992 0.5631   -0.40775
 N 0.98526 0.15868 0.5701   -0.390509
 O 0.58191 0.35198 0.1742   -0.249726
 O 0.71246 0.06308 0.1789   -0.252245
 O 0.69555 0.7501 0.9194   -0.612272
 O 0.8479 0.589 0.9281   -0.577528
 O 0.37761 0.82658 0.017   -0.636962
 O 0.26898 0.73404 0.9715   -0.598673
 O 0.56611 0.35198 0.3258   -0.250679
 O 0.72446 0.06308 0.3211   -0.252658
 O 0.05435 0.7501 0.5806   -0.611546
 O 0.0631 0.589 0.5719   -0.578029
 O 0.29581 0.82658 0.483   -0.635496
 O 0.49698 0.73404 0.5285   -0.595983
 O 0.41809 0.64802 0.8258   -0.249726
 O 0.28754 0.93692 0.8211   -0.252245
 O 0.30445 0.2499 0.0806   -0.612272
 O 0.1521 0.411 0.0719   -0.577528
 O 0.62239 0.17342 0.983   -0.636962
 O 0.73102 0.26596 0.0285   -0.598673
 O 0.43389 0.64802 0.6742   -0.250679
 O 0.27554 0.93692 0.6789   -0.252658
 O 0.94565 0.2499 0.4194   -0.611546
 O 0.9369 0.411 0.4281   -0.578029
 O 0.70419 0.17342 0.517   -0.635496
 O 0.50302 0.26596 0.4715   -0.595983
