{'_ref': 'TBD', '_srcid': 'CAKYAQ_clean', 'submitters': [{'name': 'Dalar Nazarian Jeff Camp and David Sholl', 'email': 'dalar@gatech.edu jcamp6@gatech.edu'}], '_method': 'VASP DFT with PBE;DDEC'}
data_Sm2CuC28(NO4)4
_symmetry_space_group_name_H-M   'P 1'
_cell_length_a   7.81100000
_cell_length_b   9.29600012
_cell_length_c   25.56200000
_cell_angle_alpha   90.00000000
_cell_angle_beta   90.00000000
_cell_angle_gamma   97.27000290
_symmetry_Int_Tables_number   1
_chemical_formula_structural   Sm2CuC28(NO4)4
_chemical_formula_sum   'Sm4 Cu2 C56 N8 O32'
_cell_volume   1841.16246498
_cell_formula_units_Z   2
loop_
 _symmetry_equiv_pos_site_id
 _symmetry_equiv_pos_as_xyz
  1  'x, y, z'
loop_
 _atom_site_label
 _atom_site_fract_x
 _atom_site_fract_y
 _atom_site_fract_z
 _atom_site_charge
 Sm 0.41246 0.48666 0.34962   2.319301
 Sm 0.08754 0.51334 0.84962   2.319301
 Sm 0.58754 0.51334 0.65038   2.319135
 Sm 0.91246 0.48666 0.15038   2.319135
 Cu 0.5 0.0 0.5   0.785797
 Cu 0.0 0.0 0.0   0.785797
 C 0.7224 0.3997 0.2723   0.750965
 C 0.6643 0.2513 0.2954   0.148421
 C 0.7311 0.129 0.2778   -0.118053
 C 0.6727 0.9962 0.301   0.109452
 C 0.5531 0.9915 0.3413   -0.187715
 C 0.4939 0.1204 0.3567   0.230873
 C 0.4846 0.8516 0.3684   0.744624
 C 0.6978 0.7794 0.4924   0.575393
 C 0.7987 0.9041 0.4636   0.150316
 C 0.9497 0.8939 0.4357   -0.114397
 C 0.0309 0.0192 0.4118   0.174187
 C 0.9593 0.1484 0.4154   -0.1352
 C 0.8061 0.1501 0.4432   0.220238
 C 0.0417 0.2863 0.3899   0.737358
 C 0.7776 0.6003 0.7723   0.750965
 C 0.8357 0.7487 0.7954   0.148421
 C 0.7689 0.871 0.7778   -0.118053
 C 0.8273 0.0038 0.801   0.109452
 C 0.9469 0.0085 0.8413   -0.187715
 C 0.0061 0.8796 0.8567   0.230873
 C 0.0154 0.1484 0.8684   0.744624
 C 0.8022 0.2206 0.9924   0.575393
 C 0.7013 0.0959 0.9636   0.150316
 C 0.5503 0.1061 0.9357   -0.114397
 C 0.4691 0.9808 0.9118   0.174187
 C 0.5407 0.8516 0.9154   -0.1352
 C 0.6939 0.8499 0.9432   0.220238
 C 0.4583 0.7137 0.8899   0.737358
 C 0.2776 0.6003 0.7277   0.750961
 C 0.3357 0.7487 0.7046   0.148412
 C 0.2689 0.871 0.7222   -0.118258
 C 0.3273 0.0038 0.699   0.109303
 C 0.4469 0.0085 0.6587   -0.187767
 C 0.5061 0.8796 0.6433   0.230844
 C 0.5154 0.1484 0.6316   0.744617
 C 0.3022 0.2206 0.5076   0.575481
 C 0.2013 0.0959 0.5364   0.150345
 C 0.0503 0.1061 0.5643   -0.114481
 C 0.9691 0.9808 0.5882   0.174234
 C 0.0407 0.8516 0.5846   -0.135124
 C 0.1939 0.8499 0.5568   0.220163
 C 0.9583 0.7137 0.6101   0.737349
 C 0.2224 0.3997 0.2277   0.750961
 C 0.1643 0.2513 0.2046   0.148412
 C 0.2311 0.129 0.2222   -0.118258
 C 0.1727 0.9962 0.199   0.109303
 C 0.0531 0.9915 0.1587   -0.187767
 C 0.9939 0.1204 0.1433   0.230844
 C 0.9846 0.8516 0.1316   0.744617
 C 0.1978 0.7794 0.0076   0.575481
 C 0.2987 0.9041 0.0364   0.150345
 C 0.4497 0.8939 0.0643   -0.114481
 C 0.5309 0.0192 0.0882   0.174234
 C 0.4593 0.1484 0.0846   -0.135124
 C 0.3061 0.1501 0.0568   0.220163
 C 0.5417 0.2863 0.1101   0.737349
 N 0.5469 0.2485 0.33379   -0.512006
 N 0.7285 0.0299 0.46673   -0.243532
 N 0.9531 0.7515 0.83379   -0.512006
 N 0.7715 0.9701 0.96673   -0.243532
 N 0.4531 0.7515 0.66621   -0.512
 N 0.2715 0.9701 0.53327   -0.243528
 N 0.0469 0.2485 0.16621   -0.512
 N 0.2285 0.0299 0.03327   -0.243528
 O 0.6668 0.5059 0.29394   -0.680604
 O 0.8235 0.4049 0.23438   -0.73227
 O 0.5059 0.7368 0.34402   -0.819378
 O 0.4116 0.8583 0.41147   -0.625799
 O 0.5632 0.8093 0.51639   -0.513521
 O 0.7515 0.6597 0.49158   -0.485951
 O 0.1981 0.2928 0.37722   -0.79865
 O 0.9484 0.3838 0.3831   -0.586694
 O 0.8332 0.4941 0.79394   -0.680604
 O 0.6765 0.5951 0.73438   -0.73227
 O 0.9941 0.2632 0.84402   -0.819378
 O 0.0884 0.1417 0.91147   -0.625799
 O 0.9368 0.1907 0.01639   -0.513521
 O 0.7485 0.3403 0.99158   -0.485951
 O 0.3019 0.7072 0.87722   -0.79865
 O 0.5516 0.6162 0.8831   -0.586694
 O 0.3332 0.4941 0.70606   -0.680601
 O 0.1765 0.5951 0.76562   -0.732268
 O 0.4941 0.2632 0.65598   -0.819371
 O 0.5884 0.1417 0.58853   -0.625798
 O 0.4368 0.1907 0.48361   -0.513526
 O 0.2485 0.3403 0.50842   -0.485951
 O 0.8019 0.7072 0.62278   -0.798637
 O 0.0516 0.6162 0.6169   -0.586691
 O 0.1668 0.5059 0.20606   -0.680601
 O 0.3235 0.4049 0.26562   -0.732268
 O 0.0059 0.7368 0.15598   -0.819371
 O 0.9116 0.8583 0.08853   -0.625798
 O 0.0632 0.8093 0.98361   -0.513526
 O 0.2515 0.6597 0.00842   -0.485951
 O 0.6981 0.2928 0.12278   -0.798637
 O 0.4484 0.3838 0.1169   -0.586691
