{'_ref': 'TBD', '_srcid': 'CAKYAQ_clean', 'submitters': [{'name': 'Dalar Nazarian Jeff Camp and David Sholl', 'email': 'dalar@gatech.edu jcamp6@gatech.edu'}], '_method': 'VASP DFT with PBE;DDEC'}
data_Li2H10C10N2O5
_symmetry_space_group_name_H-M   'P 1'
_cell_length_a   8.59580000
_cell_length_b   15.80000000
_cell_length_c   18.46000000
_cell_angle_alpha   90.00000000
_cell_angle_beta   90.00000000
_cell_angle_gamma   90.00000000
_symmetry_Int_Tables_number   1
_chemical_formula_structural   Li2H10C10N2O5
_chemical_formula_sum   'Li16 H80 C80 N16 O40'
_cell_volume   2507.1197944
_cell_formula_units_Z   8
loop_
 _symmetry_equiv_pos_site_id
 _symmetry_equiv_pos_as_xyz
  1  'x, y, z'
loop_
 _atom_site_label
 _atom_site_fract_x
 _atom_site_fract_y
 _atom_site_fract_z
 _atom_site_charge
 Li 0.3944 0.91795 0.32773   0.873797
 Li 0.1056 0.58205 0.82773   0.873797
 Li 0.3944 0.08205 0.17227   0.873798
 Li 0.1056 0.41795 0.67227   0.873798
 Li 0.6056 0.08205 0.67227   0.873797
 Li 0.8944 0.41795 0.17227   0.873797
 Li 0.6056 0.91795 0.82773   0.873798
 Li 0.8944 0.58205 0.32773   0.873798
 Li 0.4116 0.0444 0.4546   0.862747
 Li 0.0884 0.4556 0.9546   0.862747
 Li 0.4116 0.9556 0.0454   0.862747
 Li 0.0884 0.5444 0.5454   0.862747
 Li 0.5884 0.9556 0.5454   0.862747
 Li 0.9116 0.5444 0.0454   0.862747
 Li 0.5884 0.0444 0.9546   0.862747
 Li 0.9116 0.4556 0.4546   0.862747
 H 0.1914 0.2556 0.2994   0.128297
 H 0.3086 0.2444 0.7994   0.128297
 H 0.1914 0.7444 0.2006   0.128297
 H 0.3086 0.7556 0.7006   0.128297
 H 0.8086 0.7444 0.7006   0.128297
 H 0.6914 0.7556 0.2006   0.128297
 H 0.8086 0.2556 0.7994   0.128297
 H 0.6914 0.2444 0.2994   0.128297
 H 0.2845 0.2148 0.541   0.066604
 H 0.2155 0.2852 0.041   0.066604
 H 0.2845 0.7852 0.959   0.066604
 H 0.2155 0.7148 0.459   0.066604
 H 0.7155 0.7852 0.459   0.066604
 H 0.7845 0.7148 0.959   0.066604
 H 0.7155 0.2148 0.041   0.066604
 H 0.7845 0.2852 0.541   0.066604
 H 0.1374 0.364 0.3805   0.089168
 H 0.3626 0.136 0.8805   0.089168
 H 0.1374 0.636 0.1195   0.089168
 H 0.3626 0.864 0.6195   0.089168
 H 0.8626 0.636 0.6195   0.089168
 H 0.6374 0.864 0.1195   0.089168
 H 0.8626 0.364 0.8805   0.089168
 H 0.6374 0.136 0.3805   0.089168
 H 0.6888 0.9876 0.3535   0.013361
 H 0.8112 0.5124 0.8535   0.013361
 H 0.6888 0.0124 0.1465   0.013361
 H 0.8112 0.4876 0.6465   0.013361
 H 0.3112 0.0124 0.6465   0.013361
 H 0.1888 0.4876 0.1465   0.013361
 H 0.3112 0.9876 0.8535   0.013361
 H 0.1888 0.5124 0.3535   0.013361
 H 0.0403 0.8342 0.3304   0.117802
 H 0.4597 0.6658 0.8304   0.117802
 H 0.0403 0.1658 0.1696   0.117802
 H 0.4597 0.3342 0.6696   0.117802
 H 0.9597 0.1658 0.6696   0.117802
 H 0.5403 0.3342 0.1696   0.117802
 H 0.9597 0.8342 0.8304   0.117802
 H 0.5403 0.6658 0.3304   0.117802
 H 0.8863 0.7914 0.3573   0.098492
 H 0.6137 0.7086 0.8573   0.098492
 H 0.8863 0.2086 0.1427   0.098492
 H 0.6137 0.2914 0.6427   0.098492
 H 0.1137 0.2086 0.6427   0.098492
 H 0.3863 0.2914 0.1427   0.098492
 H 0.1137 0.7914 0.8573   0.098492
 H 0.3863 0.7086 0.3573   0.098492
 H 0.9023 0.8195 0.2762   0.091866
 H 0.5977 0.6805 0.7762   0.091866
 H 0.9023 0.1805 0.2238   0.091866
 H 0.5977 0.3195 0.7238   0.091866
 H 0.0977 0.1805 0.7238   0.091866
 H 0.4023 0.3195 0.2238   0.091866
 H 0.0977 0.8195 0.7762   0.091866
 H 0.4023 0.6805 0.2762   0.091866
 H 0.0813 0.9533 0.3669   0.111393
 H 0.4187 0.5467 0.8669   0.111393
 H 0.0813 0.0467 0.1331   0.111393
 H 0.4187 0.4533 0.6331   0.111393
 H 0.9187 0.0467 0.6331   0.111392
 H 0.5813 0.4533 0.1331   0.111392
 H 0.9187 0.9533 0.8669   0.111392
 H 0.5813 0.5467 0.3669   0.111392
 H 0.9761 0.0246 0.334   0.09284
 H 0.5239 0.4754 0.834   0.09284
 H 0.9761 0.9754 0.166   0.09284
 H 0.5239 0.5246 0.666   0.09284
 H 0.0239 0.9754 0.666   0.09284
 H 0.4761 0.5246 0.166   0.09284
 H 0.0239 0.0246 0.834   0.09284
 H 0.4761 0.4754 0.334   0.09284
 H 0.9526 0.9961 0.4146   0.092164
 H 0.5474 0.5039 0.9146   0.092164
 H 0.9526 0.0039 0.0854   0.092164
 H 0.5474 0.4961 0.5854   0.092164
 H 0.0474 0.0039 0.5854   0.092163
 H 0.4526 0.4961 0.0854   0.092163
 H 0.0474 0.9961 0.9146   0.092163
 H 0.4526 0.5039 0.4146   0.092163
 C 0.31803 0.10289 0.32366   0.69829
 C 0.18197 0.39711 0.82366   0.69829
 C 0.31803 0.89711 0.17634   0.69829
 C 0.18197 0.60289 0.67634   0.69829
 C 0.68197 0.89711 0.67634   0.69829
 C 0.81803 0.60289 0.17634   0.69829
 C 0.68197 0.10289 0.82366   0.69829
 C 0.81803 0.39711 0.32366   0.69829
 C 0.16813 0.36901 0.52502   0.773523
 C 0.33187 0.13099 0.02502   0.773523
 C 0.16813 0.63099 0.97498   0.773523
 C 0.33187 0.86901 0.47498   0.773523
 C 0.83187 0.63099 0.47498   0.773523
 C 0.66813 0.86901 0.97498   0.773523
 C 0.83187 0.36901 0.02502   0.773523
 C 0.66813 0.13099 0.52502   0.773523
 C 0.20445 0.30089 0.47011   -0.240142
 C 0.29555 0.19911 0.97011   -0.240142
 C 0.20445 0.69911 0.02989   -0.240142
 C 0.29555 0.80089 0.52989   -0.240142
 C 0.79555 0.69911 0.52989   -0.240142
 C 0.70445 0.80089 0.02989   -0.240142
 C 0.79555 0.30089 0.97011   -0.240142
 C 0.70445 0.19911 0.47011   -0.240142
 C 0.27191 0.17376 0.37497   0.131436
 C 0.22809 0.32624 0.87497   0.131436
 C 0.27191 0.82624 0.12503   0.131436
 C 0.22809 0.67376 0.62503   0.131436
 C 0.72809 0.82624 0.62503   0.131436
 C 0.77191 0.67376 0.12503   0.131436
 C 0.72809 0.17376 0.87497   0.131436
 C 0.77191 0.32624 0.37497   0.131436
 C 0.2103 0.24865 0.34863   -0.148149
 C 0.2897 0.25135 0.84863   -0.148149
 C 0.2103 0.75135 0.15137   -0.148149
 C 0.2897 0.74865 0.65137   -0.148149
 C 0.7897 0.75135 0.65137   -0.148148
 C 0.7103 0.74865 0.15137   -0.148148
 C 0.7897 0.24865 0.84863   -0.148148
 C 0.7103 0.25135 0.34863   -0.148148
 C 0.2656 0.22335 0.49195   0.246672
 C 0.2344 0.27665 0.99195   0.246672
 C 0.2656 0.77665 0.00805   0.246672
 C 0.2344 0.72335 0.50805   0.246672
 C 0.7344 0.77665 0.50805   0.246673
 C 0.7656 0.72335 0.00805   0.246673
 C 0.7344 0.22335 0.99195   0.246673
 C 0.7656 0.27665 0.49195   0.246673
 C 0.1775 0.3129 0.39706   0.047233
 C 0.3225 0.1871 0.89706   0.047233
 C 0.1775 0.6871 0.10294   0.047233
 C 0.3225 0.8129 0.60294   0.047233
 C 0.8225 0.6871 0.60294   0.047233
 C 0.6775 0.8129 0.10294   0.047233
 C 0.8225 0.3129 0.89706   0.047233
 C 0.6775 0.1871 0.39706   0.047233
 C 0.7175 0.933 0.34025   0.416458
 C 0.7825 0.567 0.84025   0.416458
 C 0.7175 0.067 0.15975   0.416458
 C 0.7825 0.433 0.65975   0.416458
 C 0.2825 0.067 0.65975   0.416458
 C 0.2175 0.433 0.15975   0.416458
 C 0.2825 0.933 0.84025   0.416458
 C 0.2175 0.567 0.34025   0.416458
 C 0.9291 0.83327 0.32535   -0.173204
 C 0.5709 0.66673 0.82535   -0.173204
 C 0.9291 0.16673 0.17465   -0.173204
 C 0.5709 0.33327 0.67465   -0.173204
 C 0.0709 0.16673 0.67465   -0.173204
 C 0.4291 0.33327 0.17465   -0.173204
 C 0.0709 0.83327 0.82535   -0.173204
 C 0.4291 0.66673 0.32535   -0.173204
 C 0.9787 0.9774 0.3667   -0.181572
 C 0.5213 0.5226 0.8667   -0.181572
 C 0.9787 0.0226 0.1333   -0.181572
 C 0.5213 0.4774 0.6333   -0.181572
 C 0.0213 0.0226 0.6333   -0.181571
 C 0.4787 0.4774 0.1333   -0.181571
 C 0.0213 0.9774 0.8667   -0.181571
 C 0.4787 0.5226 0.3667   -0.181571
 N 0.29836 0.16039 0.44578   -0.505345
 N 0.20164 0.33961 0.94578   -0.505345
 N 0.29836 0.83961 0.05422   -0.505345
 N 0.20164 0.66039 0.55422   -0.505345
 N 0.70164 0.83961 0.55422   -0.505345
 N 0.79836 0.66039 0.05422   -0.505345
 N 0.70164 0.16039 0.94578   -0.505345
 N 0.79836 0.33961 0.44578   -0.505345
 N 0.8676 0.91418 0.34325   -0.081563
 N 0.6324 0.58582 0.84325   -0.081563
 N 0.8676 0.08582 0.15675   -0.081563
 N 0.6324 0.41418 0.65675   -0.081563
 N 0.1324 0.08582 0.65675   -0.081563
 N 0.3676 0.41418 0.15675   -0.081563
 N 0.1324 0.91418 0.84325   -0.081563
 N 0.3676 0.58582 0.34325   -0.081563
 O 0.3803 0.03875 0.35206   -0.829449
 O 0.1197 0.46125 0.85206   -0.829449
 O 0.3803 0.96125 0.14794   -0.829449
 O 0.1197 0.53875 0.64794   -0.829449
 O 0.6197 0.96125 0.64794   -0.829449
 O 0.8803 0.53875 0.14794   -0.829449
 O 0.6197 0.03875 0.85206   -0.829449
 O 0.8803 0.46125 0.35206   -0.829449
 O 0.29233 0.11469 0.25858   -0.675992
 O 0.20767 0.38531 0.75858   -0.675992
 O 0.29233 0.88531 0.24142   -0.675992
 O 0.20767 0.61469 0.74142   -0.675992
 O 0.70767 0.88531 0.74142   -0.675992
 O 0.79233 0.61469 0.24142   -0.675992
 O 0.70767 0.11469 0.75858   -0.675992
 O 0.79233 0.38531 0.25858   -0.675992
 O 0.19333 0.35445 0.58953   -0.669214
 O 0.30667 0.14555 0.08953   -0.669214
 O 0.19333 0.64555 0.91047   -0.669213
 O 0.30667 0.85445 0.41047   -0.669213
 O 0.80667 0.64555 0.41047   -0.669214
 O 0.69333 0.85445 0.91047   -0.669214
 O 0.80667 0.35445 0.08953   -0.669213
 O 0.69333 0.14555 0.58953   -0.669213
 O 0.11322 0.43745 0.49963   -0.855837
 O 0.38678 0.06255 0.99963   -0.855837
 O 0.11322 0.56255 0.000369999999997   -0.855837
 O 0.38678 0.93745 0.50037   -0.855837
 O 0.88678 0.56255 0.50037   -0.855837
 O 0.61322 0.93745 0.000369999999997   -0.855837
 O 0.88678 0.43745 0.99963   -0.855837
 O 0.61322 0.06255 0.49963   -0.855837
 O 0.6164 0.88638 0.32222   -0.591678
 O 0.8836 0.61362 0.82222   -0.591678
 O 0.6164 0.11362 0.17778   -0.591678
 O 0.8836 0.38638 0.67778   -0.591678
 O 0.3836 0.11362 0.67778   -0.591678
 O 0.1164 0.38638 0.17778   -0.591678
 O 0.3836 0.88638 0.82222   -0.591678
 O 0.1164 0.61362 0.32222   -0.591678
