{'_ref': 'TBD', '_srcid': 'CAKYAQ_clean', 'submitters': [{'name': 'Dalar Nazarian Jeff Camp and David Sholl', 'email': 'dalar@gatech.edu jcamp6@gatech.edu'}], '_method': 'VASP DFT with PBE;DDEC'}
data_Cu3H6C12(NO4)2
_symmetry_space_group_name_H-M   'P 1'
_cell_length_a   5.85949982
_cell_length_b   11.53820000
_cell_length_c   11.53820008
_cell_angle_alpha   85.89089837
_cell_angle_beta   78.27919904
_cell_angle_gamma   78.27900039
_symmetry_Int_Tables_number   1
_chemical_formula_structural   Cu3H6C12(NO4)2
_chemical_formula_sum   'Cu6 H12 C24 N4 O16'
_cell_volume   747.507879282
_cell_formula_units_Z   2
loop_
 _symmetry_equiv_pos_site_id
 _symmetry_equiv_pos_as_xyz
  1  'x, y, z'
loop_
 _atom_site_label
 _atom_site_fract_x
 _atom_site_fract_y
 _atom_site_fract_z
 _atom_site_charge
 Cu 0.85151 0.00893 0.26013   0.883349
 Cu 0.64849 0.73987 0.99107   0.883343
 Cu 0.14849 0.99107 0.73987   0.883349
 Cu 0.35151 0.26013 0.00893   0.883343
 Cu 0.75 0.00878 0.99122   1.064022
 Cu 0.25 0.99122 0.00878   1.064022
 H 0.9275 0.1385 0.0951   0.434231
 H 0.8418 0.2633 0.4585   0.131757
 H 0.166 0.2426 0.3052   0.127397
 H 0.5725 0.9049 0.8615   0.434233
 H 0.6582 0.5415 0.7367   0.131761
 H 0.334 0.6948 0.7574   0.127395
 H 0.0725 0.8615 0.9049   0.434231
 H 0.1582 0.7367 0.5415   0.131758
 H 0.834 0.7574 0.6948   0.127396
 H 0.4275 0.0951 0.1385   0.434233
 H 0.3418 0.4585 0.2633   0.131761
 H 0.666 0.3052 0.2426   0.127394
 C 0.7866 0.1384 0.666   0.585216
 C 0.9953 0.1372 0.565   0.062961
 C 0.9793 0.2083 0.4643   -0.064685
 C 0.1726 0.1952 0.3736   -0.163712
 C 0.3803 0.1118 0.381   0.309404
 C 0.3942 0.04407 0.48911   0.087377
 C 0.7134 0.334 0.8616   0.585224
 C 0.5047 0.435 0.8628   0.062928
 C 0.5207 0.5357 0.7917   -0.064671
 C 0.3274 0.6264 0.8048   -0.163691
 C 0.1197 0.619 0.8882   0.309391
 C 0.1058 0.51089 0.95593   0.08737
 C 0.2134 0.8616 0.334   0.585215
 C 0.0047 0.8628 0.435   0.062961
 C 0.0207 0.7917 0.5357   -0.064686
 C 0.8274 0.8048 0.6264   -0.163711
 C 0.6197 0.8882 0.619   0.309404
 C 0.6058 0.95593 0.51089   0.087373
 C 0.2866 0.666 0.1384   0.585223
 C 0.4953 0.565 0.1372   0.062927
 C 0.4793 0.4643 0.2083   -0.064671
 C 0.6726 0.3736 0.1952   -0.163691
 C 0.8803 0.381 0.1118   0.309391
 C 0.8942 0.48911 0.04407   0.087366
 N 0.1964 0.06027 0.57731   -0.320618
 N 0.3036 0.42269 0.93973   -0.320609
 N 0.8036 0.93973 0.42269   -0.320618
 N 0.6964 0.57731 0.06027   -0.320609
 O 0.9332 0.06701 0.09251   -0.94944
 O 0.8229 0.0667 0.75292   -0.599584
 O 0.5939 0.20308 0.65902   -0.50907
 O 0.547 0.1025 0.2838   -0.546598
 O 0.5668 0.90749 0.93299   -0.949435
 O 0.6771 0.24708 0.9333   -0.599584
 O 0.9061 0.34098 0.79692   -0.50907
 O 0.953 0.7162 0.8975   -0.546587
 O 0.0668 0.93299 0.90749   -0.94944
 O 0.1771 0.9333 0.24708   -0.599584
 O 0.4061 0.79692 0.34098   -0.50907
 O 0.453 0.8975 0.7162   -0.546599
 O 0.4332 0.09251 0.06701   -0.949435
 O 0.3229 0.75292 0.0667   -0.599584
 O 0.0939 0.65902 0.20308   -0.50907
 O 0.047 0.2838 0.1025   -0.546587
