{'_ref': 'TBD', '_srcid': 'CAKYAQ_clean', 'submitters': [{'name': 'Dalar Nazarian Jeff Camp and David Sholl', 'email': 'dalar@gatech.edu jcamp6@gatech.edu'}], '_method': 'VASP DFT with PBE;DDEC'}
data_YPH7C7NO9
_symmetry_space_group_name_H-M   'P 1'
_cell_length_a   11.35800000
_cell_length_b   14.82900000
_cell_length_c   16.32500000
_cell_angle_alpha   90.00000000
_cell_angle_beta   90.00000000
_cell_angle_gamma   90.00000000
_symmetry_Int_Tables_number   1
_chemical_formula_structural   YPH7C7NO9
_chemical_formula_sum   'Y8 P8 H56 C56 N8 O72'
_cell_volume   2749.58354115
_cell_formula_units_Z   8
loop_
 _symmetry_equiv_pos_site_id
 _symmetry_equiv_pos_as_xyz
  1  'x, y, z'
loop_
 _atom_site_label
 _atom_site_fract_x
 _atom_site_fract_y
 _atom_site_fract_z
 _atom_site_charge
 Y 0.27555 0.74497 0.43134   2.000512
 Y 0.2328 0.80503 0.05452   1.969529
 Y 0.22445 0.25503 0.93134   2.000512
 Y 0.2672 0.19497 0.55452   1.969529
 Y 0.72445 0.24497 0.06866   2.000512
 Y 0.7672 0.30503 0.44548   1.969529
 Y 0.77555 0.75503 0.56866   2.000512
 Y 0.7328 0.69497 0.94548   1.969529
 P 0.2566 0.81774 0.83253   1.468573
 P 0.3214 0.9482 0.54687   1.5207
 P 0.2434 0.18226 0.33253   1.468573
 P 0.1786 0.0518 0.04687   1.5207
 P 0.7434 0.31774 0.66747   1.468573
 P 0.6786 0.4482 0.95313   1.5207
 P 0.7566 0.68226 0.16747   1.468573
 P 0.8214 0.5518 0.45313   1.5207
 H 0.3975 0.7474 0.7972   0.451118
 H 0.4768 0.0047 0.5329   0.442032
 H 0.2364 0.0067 0.6941   0.21789
 H 0.8706 0.1529 0.7407   0.297925
 H 0.3337 0.9583 0.8039   0.206932
 H 0.2004 0.9672 0.826   0.1757
 H 0.3906 0.9024 0.6769   0.194435
 H 0.2915 0.8362 0.6477   0.180628
 H 0.0914 0.8591 0.6858   0.12942
 H 0.0893 0.9403 0.6243   0.133795
 H 0.9972 0.8782 0.8199   0.121352
 H 0.87 0.9637 0.9048   0.149947
 H 0.8004 0.0991 0.86   0.125021
 H 0.005 0.081 0.6617   0.118566
 H 0.1025 0.2526 0.2972   0.451118
 H 0.0232 0.9953 0.0329   0.442032
 H 0.2636 0.9933 0.1941   0.21789
 H 0.6294 0.8471 0.2407   0.297925
 H 0.1663 0.0417 0.3039   0.206932
 H 0.2996 0.0328 0.326   0.1757
 H 0.1094 0.0976 0.1769   0.194435
 H 0.2085 0.1638 0.1477   0.180628
 H 0.4086 0.1409 0.1858   0.12942
 H 0.4107 0.0597 0.1243   0.133795
 H 0.5028 0.1218 0.3199   0.121352
 H 0.63 0.0363 0.4048   0.149947
 H 0.6996 0.9009 0.36   0.125021
 H 0.495 0.919 0.1617   0.118566
 H 0.6025 0.2474 0.7028   0.451117
 H 0.5232 0.5047 0.9671   0.442031
 H 0.7636 0.5067 0.8059   0.21789
 H 0.1294 0.6529 0.7593   0.297925
 H 0.6663 0.4583 0.6961   0.206932
 H 0.7996 0.4672 0.674   0.1757
 H 0.6094 0.4024 0.8231   0.194435
 H 0.7085 0.3362 0.8523   0.180628
 H 0.9086 0.3591 0.8142   0.12942
 H 0.9107 0.4403 0.8757   0.133795
 H 0.0028 0.3782 0.6801   0.121352
 H 0.13 0.4637 0.5952   0.149947
 H 0.1996 0.5991 0.64   0.125021
 H 0.995 0.581 0.8383   0.118566
 H 0.8975 0.7526 0.2028   0.451117
 H 0.9768 0.4953 0.4671   0.442032
 H 0.7364 0.4933 0.3059   0.21789
 H 0.3706 0.3471 0.2593   0.297925
 H 0.8337 0.5417 0.1961   0.206932
 H 0.7004 0.5328 0.174   0.1757
 H 0.8906 0.5976 0.3231   0.194435
 H 0.7915 0.6638 0.3523   0.180628
 H 0.5914 0.6409 0.3142   0.12942
 H 0.5893 0.5597 0.3757   0.133795
 H 0.4972 0.6218 0.1801   0.121352
 H 0.37 0.5363 0.0952   0.149947
 H 0.3004 0.4009 0.14   0.125021
 H 0.505 0.419 0.3383   0.118566
 C 0.2564 0.9327 0.7939   -0.519117
 C 0.3134 0.8992 0.6516   -0.545737
 C 0.1023 0.9238 0.6811   -0.121907
 C 0.0125 0.9702 0.7332   -0.024774
 C 0.9732 0.9354 0.8037   0.027175
 C 0.894 0.9865 0.8544   -0.108156
 C 0.8548 0.067 0.8289   0.119472
 C 0.9758 0.0551 0.7094   0.105923
 C 0.5019 0.7397 0.5434   0.54578
 C 0.5505 0.7632 0.459   0.535023
 C 0.2618 0.8239 0.2504   0.538814
 C 0.2464 0.7226 0.2371   0.550232
 C 0.4584 0.7026 0.9878   0.540678
 C 0.5058 0.7974 0.0085   0.550588
 C 0.2436 0.0673 0.2939   -0.519117
 C 0.1866 0.1008 0.1516   -0.545737
 C 0.3977 0.0762 0.1811   -0.121907
 C 0.4875 0.0298 0.2332   -0.024774
 C 0.5268 0.0646 0.3037   0.027175
 C 0.606 0.0135 0.3544   -0.108156
 C 0.6452 0.933 0.3289   0.119472
 C 0.5242 0.9449 0.2094   0.105923
 C 0.9981 0.2603 0.0434   0.54578
 C 0.9495 0.2368 0.959   0.535023
 C 0.2382 0.1761 0.7504   0.538814
 C 0.2536 0.2774 0.7371   0.550232
 C 0.0416 0.2974 0.4878   0.540678
 C 0.9942 0.2026 0.5085   0.550588
 C 0.7436 0.4327 0.7061   -0.519117
 C 0.6866 0.3992 0.8484   -0.545737
 C 0.8977 0.4238 0.8189   -0.121907
 C 0.9875 0.4702 0.7668   -0.024774
 C 0.0268 0.4354 0.6963   0.027175
 C 0.106 0.4865 0.6456   -0.108156
 C 0.1452 0.567 0.6711   0.119472
 C 0.0242 0.5551 0.7906   0.105923
 C 0.4981 0.2397 0.9566   0.54578
 C 0.4495 0.2632 0.041   0.535023
 C 0.7382 0.3239 0.2496   0.538814
 C 0.7536 0.2226 0.2629   0.550232
 C 0.5416 0.2026 0.5122   0.540678
 C 0.4942 0.2974 0.4915   0.550588
 C 0.7564 0.5673 0.2061   -0.519117
 C 0.8134 0.6008 0.3484   -0.545737
 C 0.6023 0.5762 0.3189   -0.121907
 C 0.5125 0.5298 0.2668   -0.024774
 C 0.4732 0.5646 0.1963   0.027175
 C 0.394 0.5135 0.1456   -0.108156
 C 0.3548 0.433 0.1711   0.119472
 C 0.4758 0.4449 0.2906   0.105923
 C 0.0019 0.7603 0.4566   0.54578
 C 0.0505 0.7368 0.541   0.535023
 C 0.7618 0.6761 0.7496   0.538814
 C 0.7464 0.7774 0.7629   0.550232
 C 0.9584 0.7974 0.0122   0.540678
 C 0.0058 0.7026 0.9915   0.550588
 N 0.2272 0.9468 0.7042   0.237274
 N 0.8956 0.1011 0.757   -0.106452
 N 0.2728 0.0532 0.2042   0.237274
 N 0.6044 0.8989 0.257   -0.106452
 N 0.7728 0.4468 0.7958   0.237274
 N 0.1044 0.6011 0.743   -0.106452
 N 0.7272 0.5532 0.2958   0.237274
 N 0.3956 0.3989 0.243   -0.106452
 O 0.1771 0.7607 0.7821   -0.814862
 O 0.2271 0.8292 0.9203   -0.871229
 O 0.3895 0.7896 0.8291   -0.693111
 O 0.2646 0.0397 0.5499   -0.851773
 O 0.2681 0.8843 0.4875   -0.873282
 O 0.4544 0.9523 0.5302   -0.719912
 O 0.3935 0.7256 0.5507   -0.620879
 O 0.5775 0.7348 0.5992   -0.610059
 O 0.6547 0.7783 0.452   -0.570437
 O 0.4742 0.7628 0.3992   -0.670318
 O 0.2776 0.8499 0.3219   -0.580193
 O 0.2599 0.8695 0.1865   -0.60799
 O 0.2262 0.697 0.1652   -0.586824
 O 0.2493 0.6732 0.3007   -0.673761
 O 0.5308 0.6506 0.9512   -0.680071
 O 0.3575 0.6844 0.0068   -0.585863
 O 0.4343 0.8471 0.0432   -0.627944
 O 0.6066 0.8159 0.9868   -0.590379
 O 0.3229 0.2393 0.2821   -0.814862
 O 0.2729 0.1708 0.4203   -0.871229
 O 0.1105 0.2104 0.3291   -0.693111
 O 0.2354 0.9603 0.0499   -0.851773
 O 0.2319 0.1157 0.9875   -0.873282
 O 0.0456 0.0477 0.0302   -0.719912
 O 0.1065 0.2744 0.0507   -0.620879
 O 0.9225 0.2652 0.0992   -0.610059
 O 0.8453 0.2217 0.952   -0.570437
 O 0.0258 0.2372 0.8992   -0.670318
 O 0.2224 0.1501 0.8219   -0.580193
 O 0.2401 0.1305 0.6865   -0.60799
 O 0.2738 0.303 0.6652   -0.586824
 O 0.2507 0.3268 0.8007   -0.673761
 O 0.9692 0.3494 0.4512   -0.680071
 O 0.1425 0.3156 0.5068   -0.585863
 O 0.0657 0.1529 0.5432   -0.627944
 O 0.8934 0.1841 0.4868   -0.590379
 O 0.8229 0.2607 0.7179   -0.814862
 O 0.7729 0.3292 0.5797   -0.871229
 O 0.6105 0.2896 0.6709   -0.693111
 O 0.7354 0.5397 0.9501   -0.851773
 O 0.7319 0.3843 0.0125   -0.873282
 O 0.5456 0.4523 0.9698   -0.719912
 O 0.6065 0.2256 0.9493   -0.620879
 O 0.4225 0.2348 0.9008   -0.610059
 O 0.3453 0.2783 0.048   -0.570437
 O 0.5258 0.2628 0.1008   -0.670318
 O 0.7224 0.3499 0.1781   -0.580193
 O 0.7401 0.3695 0.3135   -0.60799
 O 0.7738 0.197 0.3348   -0.586824
 O 0.7507 0.1732 0.1993   -0.673761
 O 0.4692 0.1506 0.5488   -0.680071
 O 0.6425 0.1844 0.4932   -0.585864
 O 0.5657 0.3471 0.4568   -0.627944
 O 0.3934 0.3159 0.5132   -0.59038
 O 0.6771 0.7393 0.2179   -0.814862
 O 0.7271 0.6708 0.0797   -0.871229
 O 0.8895 0.7104 0.1709   -0.693111
 O 0.7646 0.4603 0.4501   -0.851773
 O 0.7681 0.6157 0.5125   -0.873282
 O 0.9544 0.5477 0.4698   -0.719912
 O 0.8935 0.7744 0.4493   -0.620879
 O 0.0775 0.7652 0.4008   -0.610059
 O 0.1547 0.7217 0.548   -0.570437
 O 0.9742 0.7372 0.6008   -0.670318
 O 0.7776 0.6501 0.6781   -0.580193
 O 0.7599 0.6305 0.8135   -0.60799
 O 0.7262 0.803 0.8348   -0.586824
 O 0.7493 0.8268 0.6993   -0.673761
 O 0.0308 0.8494 0.0488   -0.680071
 O 0.8575 0.8156 0.9932   -0.585864
 O 0.9343 0.6529 0.9568   -0.627944
 O 0.1066 0.6841 0.0132   -0.59038
